MODEL 1
USER: ADFR SOLUTION from run 191
USER: SCORE 23.585473 LL:  -5.526 LR: -18.529 RR:   0.000 FEB: -11.668
USER: RMSD 9.197318
USER: SEED 190
USER: STATUS searching
USER: GENES 25
USER: genes 0 Translation |==|  0.48496 0.44232 0.56364
USER: genes 1 Rotation |==|  0.10280 0.68546 0.64016 0.69542
USER: genes 2 Torsion [N]-CA--C-[N] |==|  0.45548
USER: genes 3 Torsion [C]-N--CA-[CB] |==|  0.85393
USER: genes 4 Torsion [N]-CA--CB-[CG] |==|  0.82276
USER: genes 5 Torsion [CA]-CB--CG-[CD1] |==|  0.91463
USER: genes 6 Torsion [N]-CA--C-[N] |==|  0.37708
USER: genes 7 Torsion [C]-N--CA-[C] |==|  0.76368
USER: genes 8 Torsion [N]-CA--CB-[CG] |==|  0.61031
USER: genes 9 Torsion [CA]-CB--CG-[CD] |==|  0.11400
USER: genes 10 Torsion [CB]-CG--CD-[OE2] |==|  0.73024
USER: genes 11 Torsion [N]-CA--C-[N] |==|  0.00833
USER: genes 12 Torsion [C]-N--CA-[CB] |==|  0.49239
USER: genes 13 Torsion [N]-CA--C-[O] |==|  0.93092
USER: genes 14 Torsion [C]-CA--CB-[CG] |==|  0.80881
USER: genes 15 Torsion [CA]-CB--CG-[CD1] |==|  0.31500
USER: genes 16 Torsion [C]-CA--N-[C] |==|  0.59522
USER: genes 17 Torsion [N]-C--CA-[N] |==|  0.36325
USER: genes 18 Torsion [C]-CA--CB-[CG] |==|  0.29363
USER: genes 19 Torsion [CA]-CB--CG-[CD1] |==|  0.03685
USER: genes 20 Torsion [C]-CA--N-[C] |==|  0.80281
USER: genes 21 Torsion [N]-C--CA-[N] |==|  0.05319
USER: genes 22 Torsion [C]-CA--N-[C] |==|  0.70419
USER: genes 23 Torsion [N]-C--CA-[N] |==|  0.39388
USER: genes 24 Torsion [C]-CA--N-[H3] |==|  0.00022
ROOT
ATOM      1  CA  LEU B   4       2.651 -36.152  -8.418  1.00 25.55 LIG 0.18  C 
ENDROOT
BRANCH 1 2
ATOM      2  C   LEU B   4       2.164 -37.102  -7.319  1.00 26.13 LIG 0.24  C 
ATOM      3 O    LEU B   4       1.647 -38.157  -7.643  1.00 25.31 LIG-0.27  OA
ATOM      4  N   PHE B   5       2.344 -36.720  -6.045  1.00 26.68 LIG-0.35  N 
ATOM      5 H    PHE B   5       2.620 -35.940  -5.809  1.00 26.68 LIG 0.16  HD
BRANCH 4 6
ATOM      6  CA  PHE B   5       2.072 -37.638  -4.930  1.00 28.54 LIG 0.18  C 
BRANCH 6 7
ATOM      7  CB  PHE B   5       0.656 -38.248  -5.018  1.00 28.61 LIG 0.07  C 
BRANCH 7 8
ATOM      8  CG  PHE B   5      -0.457 -37.269  -4.903  1.00 26.86 LIG-0.06  A 
ATOM      9  CD1 PHE B   5      -0.324 -36.124  -4.150  1.00 26.13 LIG 0.01  A 
ATOM     10  CE1 PHE B   5      -1.368 -35.207  -4.058  1.00 23.59 LIG 0.00  A 
ATOM     11  CZ  PHE B   5      -2.580 -35.428  -4.757  1.00 25.19 LIG 0.00  A 
ATOM     12  CE2 PHE B   5      -2.727 -36.595  -5.474  1.00 26.30 LIG 0.00  A 
ATOM     13  CD2 PHE B   5      -1.664 -37.494  -5.566  1.00 27.99 LIG 0.01  A 
ENDBRANCH 7 8
ENDBRANCH 6 7
BRANCH 6 14
ATOM     14  C   PHE B   5       3.082 -38.785  -4.837  1.00 31.71 LIG 0.24  C 
ATOM     15  N   GLU B   6       3.548 -39.080  -3.620  1.00 34.73 LIG-0.35  N 
ATOM     16 H    GLU B   6       3.584 -38.508  -2.979  1.00 34.73 LIG 0.16  HD
ATOM     17 O    PHE B   5       3.471 -39.335  -5.871  1.00 30.66 LIG-0.27  OA
BRANCH 15 18
ATOM     18  CA  GLU B   6       4.052 -40.432  -3.244  1.00 38.89 LIG 0.18  C 
BRANCH 18 19
ATOM     19  CB  GLU B   6       5.116 -40.383  -2.140  1.00 39.10 LIG 0.04  C 
BRANCH 19 20
ATOM     20  CG  GLU B   6       6.277 -41.388  -2.362  1.00 43.96 LIG 0.12  C 
BRANCH 20 21
ATOM     21  CD  GLU B   6       6.764 -41.502  -3.815  1.00 49.39 LIG 0.17  C 
ATOM     22 OE1  GLU B   6       7.550 -40.654  -4.283  1.00 53.88 LIG-0.65  OA
ATOM     23 OE2  GLU B   6       6.319 -42.441  -4.527  1.00 56.34 LIG-0.65  OA
ENDBRANCH 20 21
ENDBRANCH 19 20
ENDBRANCH 18 19
BRANCH 18 24
ATOM     24  C   GLU B   6       2.839 -41.313  -2.810  1.00 41.03 LIG 0.24  C 
ATOM     25 O    GLU B   6       2.996 -42.476  -2.350  1.00 40.13 LIG-0.27  OA
ATOM     26  N   ALA B   7       1.644 -40.718  -2.925  1.00 43.76 LIG-0.35  N 
ATOM     27 H    ALA B   7       1.548 -39.947  -3.293  1.00 43.76 LIG 0.16  HD
BRANCH 26 28
ATOM     28  CA  ALA B   7       0.345 -41.300  -2.438  1.00 45.80 LIG 0.16  C 
ATOM     29  CB  ALA B   7      -0.832 -40.292  -2.681  1.00 46.43 LIG 0.04  C 
BRANCH 28 30
ATOM     30  C   ALA B   7      -0.007 -42.619  -3.109  1.00 46.67 LIG 0.22  C 
ATOM     31 O    ALA B   7       0.450 -42.880  -4.235  1.00 48.32 LIG-0.29  OA
ENDBRANCH 28 30
ENDBRANCH 26 28
ENDBRANCH 18 24
ENDBRANCH 15 18
ENDBRANCH 6 14
ENDBRANCH 4 6
ENDBRANCH 1 2
BRANCH 1 32
ATOM     32  CB  LEU B   4       1.737 -34.944  -8.441  1.00 24.11 LIG 0.04  C 
BRANCH 32 33
ATOM     33  CG  LEU B   4       0.305 -35.248  -8.939  1.00 25.40 LIG-0.02  C 
ATOM     34  CD2 LEU B   4       0.063 -34.374 -10.148  1.00 26.98 LIG 0.01  C 
ATOM     35  CD1 LEU B   4      -0.836 -35.105  -7.893  1.00 25.06 LIG 0.01  C 
ENDBRANCH 32 33
ENDBRANCH 1 32
BRANCH 1 36
ATOM     36  N   LEU B   4       2.759 -36.776  -9.721  1.00 24.30 LIG-0.35  N 
ATOM     37  C   TRP B   3       3.712 -36.425 -10.582  1.00 25.24 LIG 0.24  C 
ATOM     38 O    TRP B   3       4.564 -35.593 -10.319  1.00 25.23 LIG-0.27  OA
ATOM     39 H    LEU B   4       2.166 -37.378  -9.879  1.00 24.30 LIG 0.16  HD
BRANCH 37 40
ATOM     40  CA  TRP B   3       3.675 -37.091 -11.972  1.00 26.39 LIG 0.18  C 
BRANCH 40 41
ATOM     41  CB  TRP B   3       4.791 -38.131 -12.073  1.00 26.78 LIG 0.07  C 
BRANCH 41 42
ATOM     42  CG  TRP B   3       4.265 -39.455 -11.993  1.00 25.50 LIG-0.03  A 
ATOM     43  CD1 TRP B   3       2.964 -39.817 -12.098  1.00 28.00 LIG 0.10  A 
ATOM     44  NE1 TRP B   3       2.838 -41.163 -11.940  1.00 26.39 LIG-0.36  N 
ATOM     45 HE1  TRP B   3       2.099 -41.603 -11.970  1.00 26.39 LIG 0.17  HD
ATOM     46  CE2 TRP B   3       4.071 -41.702 -11.728  1.00 23.90 LIG 0.04  A 
ATOM     47  CZ2 TRP B   3       4.439 -43.031 -11.505  1.00 23.10 LIG 0.03  A 
ATOM     48  CD2 TRP B   3       4.997 -40.647 -11.763  1.00 23.76 LIG-0.00  A 
ATOM     49  CH2 TRP B   3       5.757 -43.301 -11.340  1.00 22.34 LIG 0.00  A 
ATOM     50  CZ3 TRP B   3       6.717 -42.275 -11.353  1.00 25.34 LIG 0.00  A 
ATOM     51  CE3 TRP B   3       6.333 -40.925 -11.560  1.00 25.10 LIG 0.01  A 
ENDBRANCH 41 42
ENDBRANCH 40 41
BRANCH 40 52
ATOM     52  N   TRP B   3       3.791 -36.068 -13.019  1.00 27.54 LIG-0.35  N 
ATOM     53  C   ALA B   2       2.752 -35.251 -13.221  1.00 31.13 LIG 0.24  C 
ATOM     54 O    ALA B   2       1.722 -35.359 -12.565  1.00 30.30 LIG-0.27  OA
ATOM     55 H    TRP B   3       4.534 -36.052 -13.452  1.00 27.54 LIG 0.16  HD
BRANCH 53 56
ATOM     56  CA  ALA B   2       2.880 -34.159 -14.296  1.00 33.66 LIG 0.17  C 
ATOM     57  CB  ALA B   2       1.547 -33.944 -15.056  1.00 33.40 LIG 0.04  C 
BRANCH 56 58
ATOM     58  N   ALA B   2       3.944 -34.399 -15.278  1.00 35.64 LIG-0.35  N 
ATOM     59 H    ALA B   2       3.775 -35.017 -15.852  1.00 35.64 LIG 0.16  HD
ATOM     60  C   ALA B   1       5.068 -33.687 -15.242  1.00 39.08 LIG 0.25  C 
ATOM     61 O    ALA B   1       5.419 -33.107 -14.237  1.00 40.54 LIG-0.27  OA
BRANCH 60 62
ATOM     62  CA  ALA B   1       5.976 -33.654 -16.497  1.00 41.05 LIG 0.27  C 
ATOM     63  CB  ALA B   1       7.092 -34.718 -16.397  1.00 41.95 LIG 0.05  C 
BRANCH 62 64
ATOM     64  N   ALA B   1       6.581 -32.316 -16.730  1.00 41.48 LIG-0.07  N 
ATOM     65 H3   ALA B   1       6.313 -31.754 -16.094  1.00 41.48 LIG 0.28  HD
ATOM     66 H2   ALA B   1       6.325 -32.008 -17.525  1.00 41.48 LIG 0.28  HD
ATOM     67 H1   ALA B   1       7.468 -32.383 -16.710  1.00 41.48 LIG 0.28  HD
ENDBRANCH 62 64
ENDBRANCH 60 62
ENDBRANCH 56 58
ENDBRANCH 53 56
ENDBRANCH 40 52
ENDBRANCH 37 40
ENDBRANCH 1 36
TORSDOF 23
ENDMDL
MODEL 2
USER: ADFR SOLUTION from run 191
USER: SCORE 23.137091 LL:  -5.559 LR: -18.456 RR:   0.000 FEB: -11.595
USER: RMSD 9.183986
USER: SEED 190
USER: STATUS searching
USER: GENES 25
USER: genes 0 Translation |==|  0.48093 0.43821 0.56799
USER: genes 1 Rotation |==|  0.10814 0.69045 0.64048 0.70108
USER: genes 2 Torsion [N]-CA--C-[N] |==|  0.47753
USER: genes 3 Torsion [C]-N--CA-[CB] |==|  0.84672
USER: genes 4 Torsion [N]-CA--CB-[CG] |==|  0.84103
USER: genes 5 Torsion [CA]-CB--CG-[CD1] |==|  0.87023
USER: genes 6 Torsion [N]-CA--C-[N] |==|  0.36539
USER: genes 7 Torsion [C]-N--CA-[C] |==|  0.78652
USER: genes 8 Torsion [N]-CA--CB-[CG] |==|  0.60716
USER: genes 9 Torsion [CA]-CB--CG-[CD] |==|  0.10361
USER: genes 10 Torsion [CB]-CG--CD-[OE2] |==|  0.78526
USER: genes 11 Torsion [N]-CA--C-[N] |==|  0.98511
USER: genes 12 Torsion [C]-N--CA-[CB] |==|  0.50297
USER: genes 13 Torsion [N]-CA--C-[O] |==|  0.91128
USER: genes 14 Torsion [C]-CA--CB-[CG] |==|  0.74231
USER: genes 15 Torsion [CA]-CB--CG-[CD1] |==|  0.26233
USER: genes 16 Torsion [C]-CA--N-[C] |==|  0.59492
USER: genes 17 Torsion [N]-C--CA-[N] |==|  0.35000
USER: genes 18 Torsion [C]-CA--CB-[CG] |==|  0.29160
USER: genes 19 Torsion [CA]-CB--CG-[CD1] |==|  0.04287
USER: genes 20 Torsion [C]-CA--N-[C] |==|  0.84267
USER: genes 21 Torsion [N]-C--CA-[N] |==|  0.52954
USER: genes 22 Torsion [C]-CA--N-[C] |==|  0.81436
USER: genes 23 Torsion [N]-C--CA-[N] |==|  0.50062
USER: genes 24 Torsion [C]-CA--N-[H3] |==|  0.96681
ROOT
ATOM      1  CA  LEU B   4       2.572 -36.239  -8.320  1.00 25.55 LIG 0.18  C 
ENDROOT
BRANCH 1 2
ATOM      2  C   LEU B   4       2.064 -37.197  -7.238  1.00 26.13 LIG 0.24  C 
ATOM      3 O    LEU B   4       1.647 -38.292  -7.574  1.00 25.31 LIG-0.27  OA
ATOM      4  N   PHE B   5       2.114 -36.776  -5.964  1.00 26.68 LIG-0.35  N 
ATOM      5 H    PHE B   5       2.317 -35.974  -5.728  1.00 26.68 LIG 0.16  HD
BRANCH 4 6
ATOM      6  CA  PHE B   5       1.817 -37.688  -4.850  1.00 28.54 LIG 0.18  C 
BRANCH 6 7
ATOM      7  CB  PHE B   5       0.429 -38.348  -5.002  1.00 28.61 LIG 0.07  C 
BRANCH 7 8
ATOM      8  CG  PHE B   5      -0.709 -37.397  -5.113  1.00 26.86 LIG-0.06  A 
ATOM      9  CD1 PHE B   5      -0.831 -36.328  -4.255  1.00 26.13 LIG 0.01  A 
ATOM     10  CE1 PHE B   5      -1.895 -35.436  -4.375  1.00 23.59 LIG 0.00  A 
ATOM     11  CZ  PHE B   5      -2.859 -35.605  -5.399  1.00 25.19 LIG 0.00  A 
ATOM     12  CE2 PHE B   5      -2.758 -36.699  -6.229  1.00 26.30 LIG 0.00  A 
ATOM     13  CD2 PHE B   5      -1.677 -37.573  -6.102  1.00 27.99 LIG 0.01  A 
ENDBRANCH 7 8
ENDBRANCH 6 7
BRANCH 6 14
ATOM     14  C   PHE B   5       2.859 -38.797  -4.687  1.00 31.71 LIG 0.24  C 
ATOM     15  N   GLU B   6       3.335 -39.000  -3.455  1.00 34.73 LIG-0.35  N 
ATOM     16 H    GLU B   6       3.356 -38.387  -2.852  1.00 34.73 LIG 0.16  HD
ATOM     17 O    PHE B   5       3.262 -39.401  -5.685  1.00 30.66 LIG-0.27  OA
BRANCH 15 18
ATOM     18  CA  GLU B   6       3.878 -40.310  -2.995  1.00 38.89 LIG 0.18  C 
BRANCH 18 19
ATOM     19  CB  GLU B   6       4.789 -40.176  -1.768  1.00 39.10 LIG 0.04  C 
BRANCH 19 20
ATOM     20  CG  GLU B   6       6.020 -41.121  -1.812  1.00 43.96 LIG 0.12  C 
BRANCH 20 21
ATOM     21  CD  GLU B   6       6.638 -41.312  -3.205  1.00 49.39 LIG 0.17  C 
ATOM     22 OE1  GLU B   6       7.666 -40.683  -3.529  1.00 53.88 LIG-0.65  OA
ATOM     23 OE2  GLU B   6       6.060 -42.079  -4.020  1.00 56.34 LIG-0.65  OA
ENDBRANCH 20 21
ENDBRANCH 19 20
ENDBRANCH 18 19
BRANCH 18 24
ATOM     24  C   GLU B   6       2.683 -41.269  -2.700  1.00 41.03 LIG 0.24  C 
ATOM     25 O    GLU B   6       2.865 -42.467  -2.350  1.00 40.13 LIG-0.27  OA
ATOM     26  N   ALA B   7       1.472 -40.705  -2.805  1.00 43.76 LIG-0.35  N 
ATOM     27 H    ALA B   7       1.362 -39.904  -3.099  1.00 43.76 LIG 0.16  HD
BRANCH 26 28
ATOM     28  CA  ALA B   7       0.178 -41.374  -2.432  1.00 45.80 LIG 0.16  C 
ATOM     29  CB  ALA B   7      -1.034 -40.420  -2.714  1.00 46.43 LIG 0.04  C 
BRANCH 28 30
ATOM     30  C   ALA B   7      -0.055 -42.680  -3.177  1.00 46.67 LIG 0.22  C 
ATOM     31 O    ALA B   7       0.379 -42.816  -4.334  1.00 48.32 LIG-0.29  OA
ENDBRANCH 28 30
ENDBRANCH 26 28
ENDBRANCH 18 24
ENDBRANCH 15 18
ENDBRANCH 6 14
ENDBRANCH 4 6
ENDBRANCH 1 2
BRANCH 1 32
ATOM     32  CB  LEU B   4       1.694 -35.004  -8.312  1.00 24.11 LIG 0.04  C 
BRANCH 32 33
ATOM     33  CG  LEU B   4       0.506 -35.070  -9.299  1.00 25.40 LIG-0.02  C 
ATOM     34  CD2 LEU B   4       0.372 -33.698  -9.920  1.00 26.98 LIG 0.01  C 
ATOM     35  CD1 LEU B   4      -0.847 -35.570  -8.722  1.00 25.06 LIG 0.01  C 
ENDBRANCH 32 33
ENDBRANCH 1 32
BRANCH 1 36
ATOM     36  N   LEU B   4       2.654 -36.838  -9.637  1.00 24.30 LIG-0.35  N 
ATOM     37  C   TRP B   3       3.610 -36.495 -10.497  1.00 25.24 LIG 0.24  C 
ATOM     38 O    TRP B   3       4.487 -35.692 -10.223  1.00 25.23 LIG-0.27  OA
ATOM     39 H    LEU B   4       2.043 -37.419  -9.803  1.00 24.30 LIG 0.16  HD
BRANCH 37 40
ATOM     40  CA  TRP B   3       3.546 -37.130 -11.901  1.00 26.39 LIG 0.18  C 
BRANCH 40 41
ATOM     41  CB  TRP B   3       4.704 -38.113 -12.074  1.00 26.78 LIG 0.07  C 
BRANCH 41 42
ATOM     42  CG  TRP B   3       4.247 -39.462 -11.988  1.00 25.50 LIG-0.03  A 
ATOM     43  CD1 TRP B   3       2.964 -39.890 -12.073  1.00 28.00 LIG 0.10  A 
ATOM     44  NE1 TRP B   3       2.910 -41.240 -11.916  1.00 26.39 LIG-0.36  N 
ATOM     45 HE1  TRP B   3       2.194 -41.717 -11.935  1.00 26.39 LIG 0.17  HD
ATOM     46  CE2 TRP B   3       4.171 -41.716 -11.723  1.00 23.90 LIG 0.04  A 
ATOM     47  CZ2 TRP B   3       4.610 -43.025 -11.508  1.00 23.10 LIG 0.03  A 
ATOM     48  CD2 TRP B   3       5.042 -40.616 -11.772  1.00 23.76 LIG-0.00  A 
ATOM     49  CH2 TRP B   3       5.942 -43.228 -11.364  1.00 22.34 LIG 0.00  A 
ATOM     50  CZ3 TRP B   3       6.848 -42.154 -11.390  1.00 25.34 LIG 0.00  A 
ATOM     51  CE3 TRP B   3       6.394 -40.825 -11.589  1.00 25.10 LIG 0.01  A 
ENDBRANCH 41 42
ENDBRANCH 40 41
BRANCH 40 52
ATOM     52  N   TRP B   3       3.568 -36.079 -12.926  1.00 27.54 LIG-0.35  N 
ATOM     53  C   ALA B   2       2.627 -35.130 -12.879  1.00 31.13 LIG 0.24  C 
ATOM     54 O    ALA B   2       1.757 -35.142 -12.015  1.00 30.30 LIG-0.27  OA
ATOM     55 H    TRP B   3       4.197 -36.134 -13.510  1.00 27.54 LIG 0.16  HD
BRANCH 53 56
ATOM     56  CA  ALA B   2       2.665 -34.011 -13.932  1.00 33.66 LIG 0.17  C 
ATOM     57  CB  ALA B   2       4.097 -33.448 -14.116  1.00 33.40 LIG 0.04  C 
BRANCH 56 58
ATOM     58  N   ALA B   2       1.755 -32.892 -13.659  1.00 35.64 LIG-0.35  N 
ATOM     59 H    ALA B   2       2.142 -32.146 -13.478  1.00 35.64 LIG 0.16  HD
ATOM     60  C   ALA B   1       0.436 -33.070 -13.701  1.00 39.08 LIG 0.25  C 
ATOM     61 O    ALA B   1      -0.058 -34.172 -13.594  1.00 40.54 LIG-0.27  OA
BRANCH 60 62
ATOM     62  CA  ALA B   1      -0.484 -31.831 -13.826  1.00 41.05 LIG 0.27  C 
ATOM     63  CB  ALA B   1      -0.222 -30.831 -12.677  1.00 41.95 LIG 0.05  C 
BRANCH 62 64
ATOM     64  N   ALA B   1      -1.927 -32.190 -13.855  1.00 41.48 LIG-0.07  N 
ATOM     65 H3   ALA B   1      -2.011 -33.069 -13.968  1.00 41.48 LIG 0.28  HD
ATOM     66 H2   ALA B   1      -2.325 -31.765 -14.528  1.00 41.48 LIG 0.28  HD
ATOM     67 H1   ALA B   1      -2.308 -31.953 -13.087  1.00 41.48 LIG 0.28  HD
ENDBRANCH 62 64
ENDBRANCH 60 62
ENDBRANCH 56 58
ENDBRANCH 53 56
ENDBRANCH 40 52
ENDBRANCH 37 40
ENDBRANCH 1 36
TORSDOF 23
ENDMDL
MODEL 3
USER: ADFR SOLUTION from run 35
USER: SCORE 22.343880 LL:  -5.744 LR: -18.236 RR:   0.000 FEB: -11.375
USER: RMSD 7.588508
USER: SEED 34
USER: STATUS no improvement in best in 2 clusters for 5 generations
USER: GENES 25
USER: genes 0 Translation |==|  0.53897 0.39631 0.42892
USER: genes 1 Rotation |==|  0.73621 0.24903 0.76339 0.74869
USER: genes 2 Torsion [N]-CA--C-[N] |==|  0.87245
USER: genes 3 Torsion [C]-N--CA-[CB] |==|  0.24444
USER: genes 4 Torsion [N]-CA--CB-[CG] |==|  0.86216
USER: genes 5 Torsion [CA]-CB--CG-[CD1] |==|  0.29759
USER: genes 6 Torsion [N]-CA--C-[N] |==|  0.46614
USER: genes 7 Torsion [C]-N--CA-[C] |==|  0.67977
USER: genes 8 Torsion [N]-CA--CB-[CG] |==|  0.54392
USER: genes 9 Torsion [CA]-CB--CG-[CD] |==|  0.28212
USER: genes 10 Torsion [CB]-CG--CD-[OE2] |==|  0.99534
USER: genes 11 Torsion [N]-CA--C-[N] |==|  0.05886
USER: genes 12 Torsion [C]-N--CA-[CB] |==|  0.26185
USER: genes 13 Torsion [N]-CA--C-[O] |==|  0.12793
USER: genes 14 Torsion [C]-CA--CB-[CG] |==|  0.40786
USER: genes 15 Torsion [CA]-CB--CG-[CD1] |==|  0.38673
USER: genes 16 Torsion [C]-CA--N-[C] |==|  0.77644
USER: genes 17 Torsion [N]-C--CA-[N] |==|  0.35098
USER: genes 18 Torsion [C]-CA--CB-[CG] |==|  0.26200
USER: genes 19 Torsion [CA]-CB--CG-[CD1] |==|  0.71665
USER: genes 20 Torsion [C]-CA--N-[C] |==|  0.65399
USER: genes 21 Torsion [N]-C--CA-[N] |==|  0.01102
USER: genes 22 Torsion [C]-CA--N-[C] |==|  0.78687
USER: genes 23 Torsion [N]-C--CA-[N] |==|  0.87224
USER: genes 24 Torsion [C]-CA--N-[H3] |==|  0.13551
ROOT
ATOM      1  CA  LEU B   4       3.704 -37.118 -11.449  1.00 25.55 LIG 0.18  C 
ENDROOT
BRANCH 1 2
ATOM      2  C   LEU B   4       3.412 -35.855 -12.265  1.00 26.13 LIG 0.24  C 
ATOM      3 O    LEU B   4       4.349 -35.211 -12.705  1.00 25.31 LIG-0.27  OA
ATOM      4  N   PHE B   5       2.125 -35.527 -12.461  1.00 26.68 LIG-0.35  N 
ATOM      5 H    PHE B   5       1.462 -35.920 -12.077  1.00 26.68 LIG 0.16  HD
BRANCH 4 6
ATOM      6  CA  PHE B   5       1.747 -34.440 -13.375  1.00 28.54 LIG 0.18  C 
BRANCH 6 7
ATOM      7  CB  PHE B   5       1.575 -34.941 -14.825  1.00 28.61 LIG 0.07  C 
BRANCH 7 8
ATOM      8  CG  PHE B   5       2.699 -35.765 -15.342  1.00 26.86 LIG-0.06  A 
ATOM      9  CD1 PHE B   5       2.569 -37.124 -15.511  1.00 26.13 LIG 0.01  A 
ATOM     10  CE1 PHE B   5       3.625 -37.885 -16.007  1.00 23.59 LIG 0.00  A 
ATOM     11  CZ  PHE B   5       4.848 -37.266 -16.366  1.00 25.19 LIG 0.00  A 
ATOM     12  CE2 PHE B   5       4.991 -35.913 -16.155  1.00 26.30 LIG 0.00  A 
ATOM     13  CD2 PHE B   5       3.916 -35.165 -15.671  1.00 27.99 LIG 0.01  A 
ENDBRANCH 7 8
ENDBRANCH 6 7
BRANCH 6 14
ATOM     14  C   PHE B   5       0.458 -33.726 -12.959  1.00 31.71 LIG 0.24  C 
ATOM     15  N   GLU B   6       0.179 -32.577 -13.580  1.00 34.73 LIG-0.35  N 
ATOM     16 H    GLU B   6       0.782 -32.070 -13.926  1.00 34.73 LIG 0.16  HD
ATOM     17 O    PHE B   5      -0.222 -34.192 -12.040  1.00 30.66 LIG-0.27  OA
BRANCH 15 18
ATOM     18  CA  GLU B   6      -1.208 -32.051 -13.742  1.00 38.89 LIG 0.18  C 
BRANCH 18 19
ATOM     19  CB  GLU B   6      -1.392 -30.664 -13.114  1.00 39.10 LIG 0.04  C 
BRANCH 19 20
ATOM     20  CG  GLU B   6      -2.882 -30.271 -12.923  1.00 43.96 LIG 0.12  C 
BRANCH 20 21
ATOM     21  CD  GLU B   6      -3.411 -30.424 -11.489  1.00 49.39 LIG 0.17  C 
ATOM     22 OE1  GLU B   6      -4.573 -30.068 -11.205  1.00 53.88 LIG-0.65  OA
ATOM     23 OE2  GLU B   6      -2.634 -30.875 -10.606  1.00 56.34 LIG-0.65  OA
ENDBRANCH 20 21
ENDBRANCH 19 20
ENDBRANCH 18 19
BRANCH 18 24
ATOM     24  C   GLU B   6      -1.557 -32.027 -15.262  1.00 41.03 LIG 0.24  C 
ATOM     25 O    GLU B   6      -2.443 -31.259 -15.726  1.00 40.13 LIG-0.27  OA
ATOM     26  N   ALA B   7      -0.814 -32.844 -16.021  1.00 43.76 LIG-0.35  N 
ATOM     27 H    ALA B   7      -0.254 -33.402 -15.684  1.00 43.76 LIG 0.16  HD
BRANCH 26 28
ATOM     28  CA  ALA B   7      -0.858 -32.894 -17.525  1.00 45.80 LIG 0.16  C 
ATOM     29  CB  ALA B   7       0.255 -31.973 -18.136  1.00 46.43 LIG 0.04  C 
BRANCH 28 30
ATOM     30  C   ALA B   7      -0.677 -34.299 -18.080  1.00 46.67 LIG 0.22  C 
ATOM     31 O    ALA B   7      -1.311 -35.245 -17.583  1.00 48.32 LIG-0.29  OA
ENDBRANCH 28 30
ENDBRANCH 26 28
ENDBRANCH 18 24
ENDBRANCH 15 18
ENDBRANCH 6 14
ENDBRANCH 4 6
ENDBRANCH 1 2
BRANCH 1 32
ATOM     32  CB  LEU B   4       3.516 -38.321 -12.352  1.00 24.11 LIG 0.04  C 
BRANCH 32 33
ATOM     33  CG  LEU B   4       4.468 -39.498 -12.038  1.00 25.40 LIG-0.02  C 
ATOM     34  CD2 LEU B   4       5.655 -39.365 -12.966  1.00 26.98 LIG 0.01  C 
ATOM     35  CD1 LEU B   4       3.851 -40.923 -12.100  1.00 25.06 LIG 0.01  C 
ENDBRANCH 32 33
ENDBRANCH 1 32
BRANCH 1 36
ATOM     36  N   LEU B   4       2.919 -37.223 -10.236  1.00 24.30 LIG-0.35  N 
ATOM     37  C   TRP B   3       3.258 -36.562  -9.131  1.00 25.24 LIG 0.24  C 
ATOM     38 O    TRP B   3       4.215 -35.807  -9.081  1.00 25.23 LIG-0.27  OA
ATOM     39 H    LEU B   4       2.234 -37.739 -10.297  1.00 24.30 LIG 0.16  HD
BRANCH 37 40
ATOM     40  CA  TRP B   3       2.402 -36.819  -7.875  1.00 26.39 LIG 0.18  C 
BRANCH 40 41
ATOM     41  CB  TRP B   3       1.581 -35.572  -7.547  1.00 26.78 LIG 0.07  C 
BRANCH 41 42
ATOM     42  CG  TRP B   3       0.278 -35.651  -8.123  1.00 25.50 LIG-0.03  A 
ATOM     43  CD1 TRP B   3      -0.151 -35.024  -9.245  1.00 28.00 LIG 0.10  A 
ATOM     44  NE1 TRP B   3      -1.462 -35.312  -9.471  1.00 26.39 LIG-0.36  N 
ATOM     45 HE1  TRP B   3      -1.932 -35.019 -10.129  1.00 26.39 LIG 0.17  HD
ATOM     46  CE2 TRP B   3      -1.910 -36.140  -8.487  1.00 23.90 LIG 0.04  A 
ATOM     47  CZ2 TRP B   3      -3.178 -36.692  -8.291  1.00 23.10 LIG 0.03  A 
ATOM     48  CD2 TRP B   3      -0.830 -36.380  -7.622  1.00 23.76 LIG-0.00  A 
ATOM     49  CH2 TRP B   3      -3.352 -37.511  -7.226  1.00 22.34 LIG 0.00  A 
ATOM     50  CZ3 TRP B   3      -2.303 -37.767  -6.326  1.00 25.34 LIG 0.00  A 
ATOM     51  CE3 TRP B   3      -1.024 -37.188  -6.520  1.00 25.10 LIG 0.01  A 
ENDBRANCH 41 42
ENDBRANCH 40 41
BRANCH 40 52
ATOM     52  N   TRP B   3       3.266 -37.210  -6.754  1.00 27.54 LIG-0.35  N 
ATOM     53  C   ALA B   2       3.008 -38.365  -6.130  1.00 31.13 LIG 0.24  C 
ATOM     54 O    ALA B   2       2.068 -39.074  -6.471  1.00 30.30 LIG-0.27  OA
ATOM     55 H    TRP B   3       3.900 -36.664  -6.557  1.00 27.54 LIG 0.16  HD
BRANCH 53 56
ATOM     56  CA  ALA B   2       3.929 -38.793  -4.976  1.00 33.66 LIG 0.17  C 
ATOM     57  CB  ALA B   2       3.123 -39.135  -3.698  1.00 33.40 LIG 0.04  C 
BRANCH 56 58
ATOM     58  N   ALA B   2       4.960 -37.807  -4.628  1.00 35.64 LIG-0.35  N 
ATOM     59 H    ALA B   2       4.801 -37.352  -3.916  1.00 35.64 LIG 0.16  HD
ATOM     60  C   ALA B   1       6.042 -37.667  -5.390  1.00 39.08 LIG 0.25  C 
ATOM     61 O    ALA B   1       6.059 -38.042  -6.542  1.00 40.54 LIG-0.27  OA
BRANCH 60 62
ATOM     62  CA  ALA B   1       7.284 -36.950  -4.803  1.00 41.05 LIG 0.27  C 
ATOM     63  CB  ALA B   1       8.061 -37.886  -3.849  1.00 41.95 LIG 0.05  C 
BRANCH 62 64
ATOM     64  N   ALA B   1       6.935 -35.691  -4.092  1.00 41.48 LIG-0.07  N 
ATOM     65 H3   ALA B   1       6.263 -35.845  -3.529  1.00 41.48 LIG 0.28  HD
ATOM     66 H2   ALA B   1       6.689 -35.074  -4.685  1.00 41.48 LIG 0.28  HD
ATOM     67 H1   ALA B   1       7.642 -35.401  -3.637  1.00 41.48 LIG 0.28  HD
ENDBRANCH 62 64
ENDBRANCH 60 62
ENDBRANCH 56 58
ENDBRANCH 53 56
ENDBRANCH 40 52
ENDBRANCH 37 40
ENDBRANCH 1 36
TORSDOF 23
ENDMDL
MODEL 4
USER: ADFR SOLUTION from run 37
USER: SCORE 21.020968 LL:  -5.527 LR: -18.173 RR:   0.000 FEB: -11.312
USER: RMSD 5.629725
USER: SEED 36
USER: STATUS no improvement in best in 15 clusters for 5 generations
USER: GENES 25
USER: genes 0 Translation |==|  0.35274 0.44262 0.57625
USER: genes 1 Rotation |==|  0.73907 0.29734 0.51995 0.88907
USER: genes 2 Torsion [N]-CA--C-[N] |==|  0.49941
USER: genes 3 Torsion [C]-N--CA-[CB] |==|  0.22036
USER: genes 4 Torsion [N]-CA--CB-[CG] |==|  0.08277
USER: genes 5 Torsion [CA]-CB--CG-[CD1] |==|  0.73005
USER: genes 6 Torsion [N]-CA--C-[N] |==|  0.35941
USER: genes 7 Torsion [C]-N--CA-[C] |==|  0.92132
USER: genes 8 Torsion [N]-CA--CB-[CG] |==|  0.73755
USER: genes 9 Torsion [CA]-CB--CG-[CD] |==|  0.19521
USER: genes 10 Torsion [CB]-CG--CD-[OE2] |==|  0.90850
USER: genes 11 Torsion [N]-CA--C-[N] |==|  0.30864
USER: genes 12 Torsion [C]-N--CA-[CB] |==|  0.17914
USER: genes 13 Torsion [N]-CA--C-[O] |==|  0.21145
USER: genes 14 Torsion [C]-CA--CB-[CG] |==|  0.72290
USER: genes 15 Torsion [CA]-CB--CG-[CD1] |==|  0.18908
USER: genes 16 Torsion [C]-CA--N-[C] |==|  0.59841
USER: genes 17 Torsion [N]-C--CA-[N] |==|  0.95883
USER: genes 18 Torsion [C]-CA--CB-[CG] |==|  0.29226
USER: genes 19 Torsion [CA]-CB--CG-[CD1] |==|  0.60522
USER: genes 20 Torsion [C]-CA--N-[C] |==|  0.79277
USER: genes 21 Torsion [N]-C--CA-[N] |==|  0.28333
USER: genes 22 Torsion [C]-CA--N-[C] |==|  0.67116
USER: genes 23 Torsion [N]-C--CA-[N] |==|  0.86217
USER: genes 24 Torsion [C]-CA--N-[H3] |==|  0.62596
ROOT
ATOM      1  CA  LEU B   4       0.072 -36.146  -8.134  1.00 25.55 LIG 0.18  C 
ENDROOT
BRANCH 1 2
ATOM      2  C   LEU B   4       0.202 -34.714  -8.663  1.00 26.13 LIG 0.24  C 
ATOM      3 O    LEU B   4       0.632 -33.851  -7.917  1.00 25.31 LIG-0.27  OA
ATOM      4  N   PHE B   5      -0.160 -34.488  -9.936  1.00 26.68 LIG-0.35  N 
ATOM      5 H    PHE B   5      -0.551 -35.067 -10.437  1.00 26.68 LIG 0.16  HD
BRANCH 4 6
ATOM      6  CA  PHE B   5       0.096 -33.192 -10.581  1.00 28.54 LIG 0.18  C 
BRANCH 6 7
ATOM      7  CB  PHE B   5       1.561 -33.062 -11.049  1.00 28.61 LIG 0.07  C 
BRANCH 7 8
ATOM      8  CG  PHE B   5       2.216 -34.343 -11.422  1.00 26.86 LIG-0.06  A 
ATOM      9  CD1 PHE B   5       3.018 -35.020 -10.532  1.00 26.13 LIG 0.01  A 
ATOM     10  CE1 PHE B   5       3.618 -36.226 -10.887  1.00 23.59 LIG 0.00  A 
ATOM     11  CZ  PHE B   5       3.394 -36.788 -12.168  1.00 25.19 LIG 0.00  A 
ATOM     12  CE2 PHE B   5       2.627 -36.088 -13.072  1.00 26.30 LIG 0.00  A 
ATOM     13  CD2 PHE B   5       2.022 -34.888 -12.693  1.00 27.99 LIG 0.01  A 
ENDBRANCH 7 8
ENDBRANCH 6 7
BRANCH 6 14
ATOM     14  C   PHE B   5      -0.816 -32.929 -11.782  1.00 31.71 LIG 0.24  C 
ATOM     15  N   GLU B   6      -1.457 -31.757 -11.806  1.00 34.73 LIG-0.35  N 
ATOM     16 H    GLU B   6      -1.651 -31.312 -11.096  1.00 34.73 LIG 0.16  HD
ATOM     17 O    PHE B   5      -0.974 -33.814 -12.628  1.00 30.66 LIG-0.27  OA
BRANCH 15 18
ATOM     18  CA  GLU B   6      -1.904 -31.096 -13.066  1.00 38.89 LIG 0.18  C 
BRANCH 18 19
ATOM     19  CB  GLU B   6      -1.965 -29.568 -12.945  1.00 39.10 LIG 0.04  C 
BRANCH 19 20
ATOM     20  CG  GLU B   6      -3.374 -29.038 -12.569  1.00 43.96 LIG 0.12  C 
BRANCH 20 21
ATOM     21  CD  GLU B   6      -3.818 -29.348 -11.131  1.00 49.39 LIG 0.17  C 
ATOM     22 OE1  GLU B   6      -4.512 -28.528 -10.496  1.00 53.88 LIG-0.65  OA
ATOM     23 OE2  GLU B   6      -3.431 -30.423 -10.600  1.00 56.34 LIG-0.65  OA
ENDBRANCH 20 21
ENDBRANCH 19 20
ENDBRANCH 18 19
BRANCH 18 24
ATOM     24  C   GLU B   6      -0.947 -31.527 -14.221  1.00 41.03 LIG 0.24  C 
ATOM     25 O    GLU B   6       0.265 -31.178 -14.241  1.00 40.13 LIG-0.27  OA
ATOM     26  N   ALA B   7      -1.504 -32.322 -15.144  1.00 43.76 LIG-0.35  N 
ATOM     27 H    ALA B   7      -2.345 -32.504 -15.147  1.00 43.76 LIG 0.16  HD
BRANCH 26 28
ATOM     28  CA  ALA B   7      -0.757 -32.986 -16.268  1.00 45.80 LIG 0.16  C 
ATOM     29  CB  ALA B   7       0.279 -34.019 -15.703  1.00 46.43 LIG 0.04  C 
BRANCH 28 30
ATOM     30  C   ALA B   7      -1.670 -33.709 -17.247  1.00 46.67 LIG 0.22  C 
ATOM     31 O    ALA B   7      -2.328 -33.056 -18.075  1.00 48.32 LIG-0.29  OA
ENDBRANCH 28 30
ENDBRANCH 26 28
ENDBRANCH 18 24
ENDBRANCH 15 18
ENDBRANCH 6 14
ENDBRANCH 4 6
ENDBRANCH 1 2
BRANCH 1 32
ATOM     32  CB  LEU B   4      -1.356 -36.604  -8.349  1.00 24.11 LIG 0.04  C 
BRANCH 32 33
ATOM     33  CG  LEU B   4      -2.243 -36.511  -7.086  1.00 25.40 LIG-0.02  C 
ATOM     34  CD2 LEU B   4      -3.499 -37.304  -7.371  1.00 26.98 LIG 0.01  C 
ATOM     35  CD1 LEU B   4      -2.573 -35.082  -6.576  1.00 25.06 LIG 0.01  C 
ENDBRANCH 32 33
ENDBRANCH 1 32
BRANCH 1 36
ATOM     36  N   LEU B   4       0.490 -36.298  -6.755  1.00 24.30 LIG-0.35  N 
ATOM     37  C   TRP B   3       1.101 -37.402  -6.332  1.00 25.24 LIG 0.24  C 
ATOM     38 O    TRP B   3       1.378 -38.329  -7.076  1.00 25.23 LIG-0.27  OA
ATOM     39 H    LEU B   4       0.309 -35.625  -6.251  1.00 24.30 LIG 0.16  HD
BRANCH 37 40
ATOM     40  CA  TRP B   3       1.417 -37.491  -4.826  1.00 26.39 LIG 0.18  C 
BRANCH 40 41
ATOM     41  CB  TRP B   3       0.494 -38.515  -4.165  1.00 26.78 LIG 0.07  C 
BRANCH 41 42
ATOM     42  CG  TRP B   3       1.196 -39.722  -3.871  1.00 25.50 LIG-0.03  A 
ATOM     43  CD1 TRP B   3       0.715 -40.985  -3.975  1.00 28.00 LIG 0.10  A 
ATOM     44  NE1 TRP B   3       1.661 -41.879  -3.580  1.00 26.39 LIG-0.36  N 
ATOM     45 HE1  TRP B   3       1.566 -42.734  -3.567  1.00 26.39 LIG 0.17  HD
ATOM     46  CE2 TRP B   3       2.784 -41.204  -3.207  1.00 23.90 LIG 0.04  A 
ATOM     47  CZ2 TRP B   3       4.001 -41.690  -2.725  1.00 23.10 LIG 0.03  A 
ATOM     48  CD2 TRP B   3       2.524 -39.836  -3.388  1.00 23.76 LIG-0.00  A 
ATOM     49  CH2 TRP B   3       4.973 -40.789  -2.444  1.00 22.34 LIG 0.00  A 
ATOM     50  CZ3 TRP B   3       4.752 -39.409  -2.595  1.00 25.34 LIG 0.00  A 
ATOM     51  CE3 TRP B   3       3.507 -38.922  -3.067  1.00 25.10 LIG 0.01  A 
ENDBRANCH 41 42
ENDBRANCH 40 41
BRANCH 40 52
ATOM     52  N   TRP B   3       1.286 -36.165  -4.209  1.00 27.54 LIG-0.35  N 
ATOM     53  C   ALA B   2       2.247 -35.263  -4.439  1.00 31.13 LIG 0.24  C 
ATOM     54 O    ALA B   2       3.220 -35.536  -5.132  1.00 30.30 LIG-0.27  OA
ATOM     55 H    TRP B   3       0.586 -36.041  -3.725  1.00 27.54 LIG 0.16  HD
BRANCH 53 56
ATOM     56  CA  ALA B   2       2.097 -33.864  -3.821  1.00 33.66 LIG 0.17  C 
ATOM     57  CB  ALA B   2       2.413 -32.747  -4.848  1.00 33.40 LIG 0.04  C 
BRANCH 56 58
ATOM     58  N   ALA B   2       2.916 -33.642  -2.623  1.00 35.64 LIG-0.35  N 
ATOM     59 H    ALA B   2       3.765 -33.703  -2.748  1.00 35.64 LIG 0.16  HD
ATOM     60  C   ALA B   1       2.341 -33.368  -1.454  1.00 39.08 LIG 0.25  C 
ATOM     61 O    ALA B   1       1.181 -33.647  -1.238  1.00 40.54 LIG-0.27  OA
BRANCH 60 62
ATOM     62  CA  ALA B   1       3.196 -32.737  -0.327  1.00 41.05 LIG 0.27  C 
ATOM     63  CB  ALA B   1       3.495 -31.251  -0.630  1.00 41.95 LIG 0.05  C 
BRANCH 62 64
ATOM     64  N   ALA B   1       4.471 -33.467  -0.100  1.00 41.48 LIG-0.07  N 
ATOM     65 H3   ALA B   1       4.597 -33.581   0.773  1.00 41.48 LIG 0.28  HD
ATOM     66 H2   ALA B   1       5.147 -32.996  -0.438  1.00 41.48 LIG 0.28  HD
ATOM     67 H1   ALA B   1       4.435 -34.261  -0.499  1.00 41.48 LIG 0.28  HD
ENDBRANCH 62 64
ENDBRANCH 60 62
ENDBRANCH 56 58
ENDBRANCH 53 56
ENDBRANCH 40 52
ENDBRANCH 37 40
ENDBRANCH 1 36
TORSDOF 23
ENDMDL
MODEL 5
USER: ADFR SOLUTION from run 60
USER: SCORE 22.838377 LL:  -6.730 LR: -18.149 RR:   0.000 FEB: -11.289
USER: RMSD 6.525988
USER: SEED 59
USER: STATUS no improvement in best in 2 clusters for 5 generations
USER: GENES 25
USER: genes 0 Translation |==|  0.46174 0.39842 0.59656
USER: genes 1 Rotation |==|  0.46819 0.30807 0.14019 0.78756
USER: genes 2 Torsion [N]-CA--C-[N] |==|  0.32917
USER: genes 3 Torsion [C]-N--CA-[CB] |==|  0.35807
USER: genes 4 Torsion [N]-CA--CB-[CG] |==|  0.65635
USER: genes 5 Torsion [CA]-CB--CG-[CD1] |==|  0.92784
USER: genes 6 Torsion [N]-CA--C-[N] |==|  0.90546
USER: genes 7 Torsion [C]-N--CA-[C] |==|  0.65118
USER: genes 8 Torsion [N]-CA--CB-[CG] |==|  0.87680
USER: genes 9 Torsion [CA]-CB--CG-[CD] |==|  0.52448
USER: genes 10 Torsion [CB]-CG--CD-[OE2] |==|  0.87103
USER: genes 11 Torsion [N]-CA--C-[N] |==|  0.97946
USER: genes 12 Torsion [C]-N--CA-[CB] |==|  0.16298
USER: genes 13 Torsion [N]-CA--C-[O] |==|  0.81069
USER: genes 14 Torsion [C]-CA--CB-[CG] |==|  0.53624
USER: genes 15 Torsion [CA]-CB--CG-[CD1] |==|  0.25548
USER: genes 16 Torsion [C]-CA--N-[C] |==|  0.67941
USER: genes 17 Torsion [N]-C--CA-[N] |==|  0.02494
USER: genes 18 Torsion [C]-CA--CB-[CG] |==|  0.84199
USER: genes 19 Torsion [CA]-CB--CG-[CD1] |==|  0.77091
USER: genes 20 Torsion [C]-CA--N-[C] |==|  0.64760
USER: genes 21 Torsion [N]-C--CA-[N] |==|  0.91786
USER: genes 22 Torsion [C]-CA--N-[C] |==|  0.81111
USER: genes 23 Torsion [N]-C--CA-[N] |==|  0.82550
USER: genes 24 Torsion [C]-CA--N-[H3] |==|  0.84738
ROOT
ATOM      1  CA  LEU B   4       2.198 -37.074  -7.677  1.00 25.55 LIG 0.18  C 
ENDROOT
BRANCH 1 2
ATOM      2  C   LEU B   4       3.192 -37.333  -8.814  1.00 26.13 LIG 0.24  C 
ATOM      3 O    LEU B   4       4.385 -37.228  -8.585  1.00 25.31 LIG-0.27  OA
ATOM      4  N   PHE B   5       2.690 -37.674 -10.011  1.00 26.68 LIG-0.35  N 
ATOM      5 H    PHE B   5       1.852 -37.658 -10.206  1.00 26.68 LIG 0.16  HD
BRANCH 4 6
ATOM      6  CA  PHE B   5       3.566 -38.112 -11.107  1.00 28.54 LIG 0.18  C 
BRANCH 6 7
ATOM      7  CB  PHE B   5       3.091 -39.445 -11.726  1.00 28.61 LIG 0.07  C 
BRANCH 7 8
ATOM      8  CG  PHE B   5       4.104 -40.533 -11.725  1.00 26.86 LIG-0.06  A 
ATOM      9  CD1 PHE B   5       5.451 -40.253 -11.720  1.00 26.13 LIG 0.01  A 
ATOM     10  CE1 PHE B   5       6.393 -41.280 -11.708  1.00 23.59 LIG 0.00  A 
ATOM     11  CZ  PHE B   5       5.976 -42.633 -11.679  1.00 25.19 LIG 0.00  A 
ATOM     12  CE2 PHE B   5       4.628 -42.912 -11.728  1.00 26.30 LIG 0.00  A 
ATOM     13  CD2 PHE B   5       3.701 -41.869 -11.725  1.00 27.99 LIG 0.01  A 
ENDBRANCH 7 8
ENDBRANCH 6 7
BRANCH 6 14
ATOM     14  C   PHE B   5       3.685 -37.079 -12.230  1.00 31.71 LIG 0.24  C 
ATOM     15  N   GLU B   6       2.600 -36.343 -12.489  1.00 34.73 LIG-0.35  N 
ATOM     16 H    GLU B   6       1.800 -36.611 -12.321  1.00 34.73 LIG 0.16  HD
ATOM     17 O    PHE B   5       4.730 -37.012 -12.885  1.00 30.66 LIG-0.27  OA
BRANCH 15 18
ATOM     18  CA  GLU B   6       2.661 -34.982 -13.096  1.00 38.89 LIG 0.18  C 
BRANCH 18 19
ATOM     19  CB  GLU B   6       2.104 -34.944 -14.525  1.00 39.10 LIG 0.04  C 
BRANCH 19 20
ATOM     20  CG  GLU B   6       2.589 -36.128 -15.403  1.00 43.96 LIG 0.12  C 
BRANCH 20 21
ATOM     21  CD  GLU B   6       2.230 -36.017 -16.893  1.00 49.39 LIG 0.17  C 
ATOM     22 OE1  GLU B   6       3.101 -36.204 -17.766  1.00 53.88 LIG-0.65  OA
ATOM     23 OE2  GLU B   6       1.054 -35.691 -17.205  1.00 56.34 LIG-0.65  OA
ENDBRANCH 20 21
ENDBRANCH 19 20
ENDBRANCH 18 19
BRANCH 18 24
ATOM     24  C   GLU B   6       1.890 -33.990 -12.170  1.00 41.03 LIG 0.24  C 
ATOM     25 O    GLU B   6       1.869 -32.750 -12.401  1.00 40.13 LIG-0.27  OA
ATOM     26  N   ALA B   7       1.229 -34.566 -11.157  1.00 43.76 LIG-0.35  N 
ATOM     27 H    ALA B   7       1.300 -35.405 -10.980  1.00 43.76 LIG 0.16  HD
BRANCH 26 28
ATOM     28  CA  ALA B   7       0.299 -33.846 -10.219  1.00 45.80 LIG 0.16  C 
ATOM     29  CB  ALA B   7      -0.871 -33.172 -11.017  1.00 46.43 LIG 0.04  C 
BRANCH 28 30
ATOM     30  C   ALA B   7      -0.303 -34.756  -9.160  1.00 46.67 LIG 0.22  C 
ATOM     31 O    ALA B   7      -1.115 -35.637  -9.492  1.00 48.32 LIG-0.29  OA
ENDBRANCH 28 30
ENDBRANCH 26 28
ENDBRANCH 18 24
ENDBRANCH 15 18
ENDBRANCH 6 14
ENDBRANCH 4 6
ENDBRANCH 1 2
BRANCH 1 32
ATOM     32  CB  LEU B   4       2.319 -35.622  -7.261  1.00 24.11 LIG 0.04  C 
BRANCH 32 33
ATOM     33  CG  LEU B   4       1.616 -35.291  -5.925  1.00 25.40 LIG-0.02  C 
ATOM     34  CD2 LEU B   4       1.007 -33.915  -6.077  1.00 26.98 LIG 0.01  C 
ATOM     35  CD1 LEU B   4       2.485 -35.391  -4.641  1.00 25.06 LIG 0.01  C 
ENDBRANCH 32 33
ENDBRANCH 1 32
BRANCH 1 36
ATOM     36  N   LEU B   4       2.351 -37.976  -6.554  1.00 24.30 LIG-0.35  N 
ATOM     37  C   TRP B   3       1.392 -38.836  -6.219  1.00 25.24 LIG 0.24  C 
ATOM     38 O    TRP B   3       0.354 -38.946  -6.849  1.00 25.23 LIG-0.27  OA
ATOM     39 H    LEU B   4       3.099 -37.903  -6.136  1.00 24.30 LIG 0.16  HD
BRANCH 37 40
ATOM     40  CA  TRP B   3       1.626 -39.683  -4.951  1.00 26.39 LIG 0.18  C 
BRANCH 40 41
ATOM     41  CB  TRP B   3       0.379 -39.641  -4.067  1.00 26.78 LIG 0.07  C 
BRANCH 41 42
ATOM     42  CG  TRP B   3       0.035 -38.298  -3.731  1.00 25.50 LIG-0.03  A 
ATOM     43  CD1 TRP B   3       0.571 -37.549  -2.737  1.00 28.00 LIG 0.10  A 
ATOM     44  NE1 TRP B   3      -0.027 -36.327  -2.698  1.00 26.39 LIG-0.36  N 
ATOM     45 HE1  TRP B   3       0.162 -35.696  -2.144  1.00 26.39 LIG 0.17  HD
ATOM     46  CE2 TRP B   3      -0.972 -36.262  -3.676  1.00 23.90 LIG 0.04  A 
ATOM     47  CZ2 TRP B   3      -1.841 -35.223  -4.014  1.00 23.10 LIG 0.03  A 
ATOM     48  CD2 TRP B   3      -0.952 -37.492  -4.354  1.00 23.76 LIG-0.00  A 
ATOM     49  CH2 TRP B   3      -2.681 -35.416  -5.059  1.00 22.34 LIG 0.00  A 
ATOM     50  CZ3 TRP B   3      -2.706 -36.637  -5.756  1.00 25.34 LIG 0.00  A 
ATOM     51  CE3 TRP B   3      -1.835 -37.696  -5.395  1.00 25.10 LIG 0.01  A 
ENDBRANCH 41 42
ENDBRANCH 40 41
BRANCH 40 52
ATOM     52  N   TRP B   3       2.813 -39.196  -4.238  1.00 27.54 LIG-0.35  N 
ATOM     53  C   ALA B   2       3.773 -40.076  -3.932  1.00 31.13 LIG 0.24  C 
ATOM     54 O    ALA B   2       3.661 -41.262  -4.223  1.00 30.30 LIG-0.27  OA
ATOM     55 H    TRP B   3       2.825 -38.356  -4.053  1.00 27.54 LIG 0.16  HD
BRANCH 53 56
ATOM     56  CA  ALA B   2       5.031 -39.565  -3.213  1.00 33.66 LIG 0.17  C 
ATOM     57  CB  ALA B   2       4.911 -39.714  -1.675  1.00 33.40 LIG 0.04  C 
BRANCH 56 58
ATOM     58  N   ALA B   2       5.380 -38.173  -3.521  1.00 35.64 LIG-0.35  N 
ATOM     59 H    ALA B   2       5.289 -37.623  -2.866  1.00 35.64 LIG 0.16  HD
ATOM     60  C   ALA B   1       5.800 -37.836  -4.738  1.00 39.08 LIG 0.25  C 
ATOM     61 O    ALA B   1       5.569 -38.533  -5.703  1.00 40.54 LIG-0.27  OA
BRANCH 60 62
ATOM     62  CA  ALA B   1       6.546 -36.492  -4.929  1.00 41.05 LIG 0.27  C 
ATOM     63  CB  ALA B   1       7.838 -36.454  -4.082  1.00 41.95 LIG 0.05  C 
BRANCH 62 64
ATOM     64  N   ALA B   1       5.698 -35.316  -4.600  1.00 41.48 LIG-0.07  N 
ATOM     65 H3   ALA B   1       4.947 -35.348  -5.077  1.00 41.48 LIG 0.28  HD
ATOM     66 H2   ALA B   1       6.140 -34.568  -4.793  1.00 41.48 LIG 0.28  HD
ATOM     67 H1   ALA B   1       5.498 -35.327  -3.733  1.00 41.48 LIG 0.28  HD
ENDBRANCH 62 64
ENDBRANCH 60 62
ENDBRANCH 56 58
ENDBRANCH 53 56
ENDBRANCH 40 52
ENDBRANCH 37 40
ENDBRANCH 1 36
TORSDOF 23
ENDMDL
MODEL 6
USER: ADFR SOLUTION from run 23
USER: SCORE 21.088546 LL:  -6.142 LR: -18.145 RR:   0.000 FEB: -11.284
USER: RMSD 5.385696
USER: SEED 22
USER: STATUS no improvement in best in 7 clusters for 5 generations
USER: GENES 25
USER: genes 0 Translation |==|  0.35283 0.44704 0.58926
USER: genes 1 Rotation |==|  0.64141 0.32123 0.37512 0.92714
USER: genes 2 Torsion [N]-CA--C-[N] |==|  0.23305
USER: genes 3 Torsion [C]-N--CA-[CB] |==|  0.43885
USER: genes 4 Torsion [N]-CA--CB-[CG] |==|  0.11321
USER: genes 5 Torsion [CA]-CB--CG-[CD1] |==|  0.26897
USER: genes 6 Torsion [N]-CA--C-[N] |==|  0.99419
USER: genes 7 Torsion [C]-N--CA-[C] |==|  0.22873
USER: genes 8 Torsion [N]-CA--CB-[CG] |==|  0.54135
USER: genes 9 Torsion [CA]-CB--CG-[CD] |==|  0.31710
USER: genes 10 Torsion [CB]-CG--CD-[OE2] |==|  0.04086
USER: genes 11 Torsion [N]-CA--C-[N] |==|  0.01234
USER: genes 12 Torsion [C]-N--CA-[CB] |==|  0.15720
USER: genes 13 Torsion [N]-CA--C-[O] |==|  0.26715
USER: genes 14 Torsion [C]-CA--CB-[CG] |==|  0.46223
USER: genes 15 Torsion [CA]-CB--CG-[CD1] |==|  0.35734
USER: genes 16 Torsion [C]-CA--N-[C] |==|  0.75580
USER: genes 17 Torsion [N]-C--CA-[N] |==|  0.72856
USER: genes 18 Torsion [C]-CA--CB-[CG] |==|  0.23262
USER: genes 19 Torsion [CA]-CB--CG-[CD1] |==|  0.67675
USER: genes 20 Torsion [C]-CA--N-[C] |==|  0.70789
USER: genes 21 Torsion [N]-C--CA-[N] |==|  0.97491
USER: genes 22 Torsion [C]-CA--N-[C] |==|  0.79985
USER: genes 23 Torsion [N]-C--CA-[N] |==|  0.11830
USER: genes 24 Torsion [C]-CA--N-[H3] |==|  0.30460
ROOT
ATOM      1  CA  LEU B   4       0.074 -36.053  -7.842  1.00 25.55 LIG 0.18  C 
ENDROOT
BRANCH 1 2
ATOM      2  C   LEU B   4       0.675 -34.954  -8.723  1.00 26.13 LIG 0.24  C 
ATOM      3 O    LEU B   4       0.309 -33.803  -8.556  1.00 25.31 LIG-0.27  OA
ATOM      4  N   PHE B   5       1.589 -35.321  -9.635  1.00 26.68 LIG-0.35  N 
ATOM      5 H    PHE B   5       1.783 -36.137  -9.824  1.00 26.68 LIG 0.16  HD
BRANCH 4 6
ATOM      6  CA  PHE B   5       2.347 -34.319 -10.399  1.00 28.54 LIG 0.18  C 
BRANCH 6 7
ATOM      7  CB  PHE B   5       3.666 -34.898 -10.955  1.00 28.61 LIG 0.07  C 
BRANCH 7 8
ATOM      8  CG  PHE B   5       3.568 -36.280 -11.492  1.00 26.86 LIG-0.06  A 
ATOM      9  CD1 PHE B   5       3.399 -36.513 -12.838  1.00 26.13 LIG 0.01  A 
ATOM     10  CE1 PHE B   5       3.319 -37.812 -13.333  1.00 23.59 LIG 0.00  A 
ATOM     11  CZ  PHE B   5       3.432 -38.920 -12.457  1.00 25.19 LIG 0.00  A 
ATOM     12  CE2 PHE B   5       3.557 -38.686 -11.105  1.00 26.30 LIG 0.00  A 
ATOM     13  CD2 PHE B   5       3.650 -37.376 -10.631  1.00 27.99 LIG 0.01  A 
ENDBRANCH 7 8
ENDBRANCH 6 7
BRANCH 6 14
ATOM     14  C   PHE B   5       1.553 -33.729 -11.567  1.00 31.71 LIG 0.24  C 
ATOM     15  N   GLU B   6       0.324 -34.215 -11.767  1.00 34.73 LIG-0.35  N 
ATOM     16 H    GLU B   6       0.087 -35.006 -11.526  1.00 34.73 LIG 0.16  HD
ATOM     17 O    PHE B   5       2.088 -32.896 -12.304  1.00 30.66 LIG-0.27  OA
BRANCH 15 18
ATOM     18  CA  GLU B   6      -0.764 -33.439 -12.428  1.00 38.89 LIG 0.18  C 
BRANCH 18 19
ATOM     19  CB  GLU B   6      -0.800 -31.971 -11.984  1.00 39.10 LIG 0.04  C 
BRANCH 19 20
ATOM     20  CG  GLU B   6      -2.120 -31.248 -12.364  1.00 43.96 LIG 0.12  C 
BRANCH 20 21
ATOM     21  CD  GLU B   6      -2.986 -30.816 -11.171  1.00 49.39 LIG 0.17  C 
ATOM     22 OE1  GLU B   6      -4.162 -30.440 -11.350  1.00 53.88 LIG-0.65  OA
ATOM     23 OE2  GLU B   6      -2.468 -30.810 -10.023  1.00 56.34 LIG-0.65  OA
ENDBRANCH 20 21
ENDBRANCH 19 20
ENDBRANCH 18 19
BRANCH 18 24
ATOM     24  C   GLU B   6      -0.586 -33.550 -13.975  1.00 41.03 LIG 0.24  C 
ATOM     25 O    GLU B   6      -1.300 -32.885 -14.773  1.00 40.13 LIG-0.27  OA
ATOM     26  N   ALA B   7       0.405 -34.362 -14.368  1.00 43.76 LIG-0.35  N 
ATOM     27 H    ALA B   7       0.845 -34.852 -13.815  1.00 43.76 LIG 0.16  HD
BRANCH 26 28
ATOM     28  CA  ALA B   7       0.869 -34.523 -15.790  1.00 45.80 LIG 0.16  C 
ATOM     29  CB  ALA B   7       1.291 -33.137 -16.389  1.00 46.43 LIG 0.04  C 
BRANCH 28 30
ATOM     30  C   ALA B   7       2.040 -35.484 -15.930  1.00 46.67 LIG 0.22  C 
ATOM     31 O    ALA B   7       1.832 -36.671 -16.233  1.00 48.32 LIG-0.29  OA
ENDBRANCH 28 30
ENDBRANCH 26 28
ENDBRANCH 18 24
ENDBRANCH 15 18
ENDBRANCH 6 14
ENDBRANCH 4 6
ENDBRANCH 1 2
BRANCH 1 32
ATOM     32  CB  LEU B   4      -1.329 -35.635  -7.452  1.00 24.11 LIG 0.04  C 
BRANCH 32 33
ATOM     33  CG  LEU B   4      -2.179 -36.776  -6.845  1.00 25.40 LIG-0.02  C 
ATOM     34  CD2 LEU B   4      -3.179 -37.189  -7.901  1.00 26.98 LIG 0.01  C 
ATOM     35  CD1 LEU B   4      -2.873 -36.475  -5.488  1.00 25.06 LIG 0.01  C 
ENDBRANCH 32 33
ENDBRANCH 1 32
BRANCH 1 36
ATOM     36  N   LEU B   4       0.884 -36.381  -6.686  1.00 24.30 LIG-0.35  N 
ATOM     37  C   TRP B   3       1.848 -37.297  -6.751  1.00 25.24 LIG 0.24  C 
ATOM     38 O    TRP B   3       2.132 -37.884  -7.782  1.00 25.23 LIG-0.27  OA
ATOM     39 H    LEU B   4       0.687 -35.940  -5.975  1.00 24.30 LIG 0.16  HD
BRANCH 37 40
ATOM     40  CA  TRP B   3       2.584 -37.629  -5.438  1.00 26.39 LIG 0.18  C 
BRANCH 40 41
ATOM     41  CB  TRP B   3       1.675 -37.322  -4.247  1.00 26.78 LIG 0.07  C 
BRANCH 41 42
ATOM     42  CG  TRP B   3       0.791 -38.411  -3.985  1.00 25.50 LIG-0.03  A 
ATOM     43  CD1 TRP B   3      -0.562 -38.394  -4.070  1.00 28.00 LIG 0.10  A 
ATOM     44  NE1 TRP B   3      -1.068 -39.607  -3.717  1.00 26.39 LIG-0.36  N 
ATOM     45 HE1  TRP B   3      -1.903 -39.814  -3.701  1.00 26.39 LIG 0.17  HD
ATOM     46  CE2 TRP B   3      -0.040 -40.440  -3.393  1.00 23.90 LIG 0.04  A 
ATOM     47  CZ2 TRP B   3      -0.068 -41.769  -2.964  1.00 23.10 LIG 0.03  A 
ATOM     48  CD2 TRP B   3       1.150 -39.714  -3.560  1.00 23.76 LIG-0.00  A 
ATOM     49  CH2 TRP B   3       1.118 -42.379  -2.725  1.00 22.34 LIG 0.00  A 
ATOM     50  CZ3 TRP B   3       2.334 -41.687  -2.864  1.00 25.34 LIG 0.00  A 
ATOM     51  CE3 TRP B   3       2.353 -40.331  -3.281  1.00 25.10 LIG 0.01  A 
ENDBRANCH 41 42
ENDBRANCH 40 41
BRANCH 40 52
ATOM     52  N   TRP B   3       3.843 -36.877  -5.367  1.00 27.54 LIG-0.35  N 
ATOM     53  C   ALA B   2       4.986 -37.537  -5.582  1.00 31.13 LIG 0.24  C 
ATOM     54 O    ALA B   2       4.989 -38.741  -5.815  1.00 30.30 LIG-0.27  OA
ATOM     55 H    TRP B   3       3.773 -36.039  -5.187  1.00 27.54 LIG 0.16  HD
BRANCH 53 56
ATOM     56  CA  ALA B   2       6.304 -36.748  -5.539  1.00 33.66 LIG 0.17  C 
ATOM     57  CB  ALA B   2       7.204 -37.198  -4.360  1.00 33.40 LIG 0.04  C 
BRANCH 56 58
ATOM     58  N   ALA B   2       6.135 -35.292  -5.467  1.00 35.64 LIG-0.35  N 
ATOM     59 H    ALA B   2       6.330 -34.941  -4.707  1.00 35.64 LIG 0.16  HD
ATOM     60  C   ALA B   1       5.709 -34.609  -6.527  1.00 39.08 LIG 0.25  C 
ATOM     61 O    ALA B   1       5.109 -35.151  -7.431  1.00 40.54 LIG-0.27  OA
BRANCH 60 62
ATOM     62  CA  ALA B   1       5.931 -33.077  -6.572  1.00 41.05 LIG 0.27  C 
ATOM     63  CB  ALA B   1       5.700 -32.528  -7.999  1.00 41.95 LIG 0.05  C 
BRANCH 62 64
ATOM     64  N   ALA B   1       7.285 -32.682  -6.100  1.00 41.48 LIG-0.07  N 
ATOM     65 H3   ALA B   1       7.768 -32.394  -6.790  1.00 41.48 LIG 0.28  HD
ATOM     66 H2   ALA B   1       7.687 -33.385  -5.730  1.00 41.48 LIG 0.28  HD
ATOM     67 H1   ALA B   1       7.212 -32.031  -5.498  1.00 41.48 LIG 0.28  HD
ENDBRANCH 62 64
ENDBRANCH 60 62
ENDBRANCH 56 58
ENDBRANCH 53 56
ENDBRANCH 40 52
ENDBRANCH 37 40
ENDBRANCH 1 36
TORSDOF 23
ENDMDL
MODEL 7
USER: ADFR SOLUTION from run 176
USER: SCORE 22.036284 LL:  -6.220 LR: -18.060 RR:   0.000 FEB: -11.199
USER: RMSD 9.165324
USER: SEED 175
USER: STATUS 1 or 2 clusters left
USER: GENES 25
USER: genes 0 Translation |==|  0.42615 0.43039 0.65347
USER: genes 1 Rotation |==|  0.47125 0.04230 0.33405 0.61019
USER: genes 2 Torsion [N]-CA--C-[N] |==|  0.23751
USER: genes 3 Torsion [C]-N--CA-[CB] |==|  0.52229
USER: genes 4 Torsion [N]-CA--CB-[CG] |==|  0.85366
USER: genes 5 Torsion [CA]-CB--CG-[CD1] |==|  0.95225
USER: genes 6 Torsion [N]-CA--C-[N] |==|  0.37628
USER: genes 7 Torsion [C]-N--CA-[C] |==|  0.19376
USER: genes 8 Torsion [N]-CA--CB-[CG] |==|  0.84618
USER: genes 9 Torsion [CA]-CB--CG-[CD] |==|  0.34204
USER: genes 10 Torsion [CB]-CG--CD-[OE2] |==|  0.59391
USER: genes 11 Torsion [N]-CA--C-[N] |==|  0.25747
USER: genes 12 Torsion [C]-N--CA-[CB] |==|  0.26238
USER: genes 13 Torsion [N]-CA--C-[O] |==|  0.81148
USER: genes 14 Torsion [C]-CA--CB-[CG] |==|  0.27691
USER: genes 15 Torsion [CA]-CB--CG-[CD1] |==|  0.54315
USER: genes 16 Torsion [C]-CA--N-[C] |==|  0.77972
USER: genes 17 Torsion [N]-C--CA-[N] |==|  0.92736
USER: genes 18 Torsion [C]-CA--CB-[CG] |==|  0.93773
USER: genes 19 Torsion [CA]-CB--CG-[CD1] |==|  0.30190
USER: genes 20 Torsion [C]-CA--N-[C] |==|  0.83857
USER: genes 21 Torsion [N]-C--CA-[N] |==|  0.49863
USER: genes 22 Torsion [C]-CA--N-[C] |==|  0.80414
USER: genes 23 Torsion [N]-C--CA-[N] |==|  0.82400
USER: genes 24 Torsion [C]-CA--N-[H3] |==|  0.61891
ROOT
ATOM      1  CA  LEU B   4       1.504 -36.403  -6.397  1.00 25.55 LIG 0.18  C 
ENDROOT
BRANCH 1 2
ATOM      2  C   LEU B   4       2.722 -36.936  -5.635  1.00 26.13 LIG 0.24  C 
ATOM      3 O    LEU B   4       3.698 -36.216  -5.514  1.00 25.31 LIG-0.27  OA
ATOM      4  N   PHE B   5       2.642 -38.176  -5.129  1.00 26.68 LIG-0.35  N 
ATOM      5 H    PHE B   5       1.998 -38.723  -5.289  1.00 26.68 LIG 0.16  HD
BRANCH 4 6
ATOM      6  CA  PHE B   5       3.685 -38.702  -4.236  1.00 28.54 LIG 0.18  C 
BRANCH 6 7
ATOM      7  CB  PHE B   5       3.485 -40.205  -3.941  1.00 28.61 LIG 0.07  C 
BRANCH 7 8
ATOM      8  CG  PHE B   5       2.133 -40.571  -3.443  1.00 26.86 LIG-0.06  A 
ATOM      9  CD1 PHE B   5       1.277 -39.620  -2.938  1.00 26.13 LIG 0.01  A 
ATOM     10  CE1 PHE B   5       0.007 -39.971  -2.484  1.00 23.59 LIG 0.00  A 
ATOM     11  CZ  PHE B   5      -0.431 -41.317  -2.555  1.00 25.19 LIG 0.00  A 
ATOM     12  CE2 PHE B   5       0.443 -42.274  -3.020  1.00 26.30 LIG 0.00  A 
ATOM     13  CD2 PHE B   5       1.705 -41.899  -3.483  1.00 27.99 LIG 0.01  A 
ENDBRANCH 7 8
ENDBRANCH 6 7
BRANCH 6 14
ATOM     14  C   PHE B   5       5.100 -38.507  -4.785  1.00 31.71 LIG 0.24  C 
ATOM     15  N   GLU B   6       6.023 -38.064  -3.926  1.00 34.73 LIG-0.35  N 
ATOM     16 H    GLU B   6       5.833 -37.595  -3.232  1.00 34.73 LIG 0.16  HD
ATOM     17 O    PHE B   5       5.315 -38.694  -5.986  1.00 30.66 LIG-0.27  OA
BRANCH 15 18
ATOM     18  CA  GLU B   6       7.481 -38.339  -4.081  1.00 38.89 LIG 0.18  C 
BRANCH 18 19
ATOM     19  CB  GLU B   6       7.791 -39.833  -4.231  1.00 39.10 LIG 0.04  C 
BRANCH 19 20
ATOM     20  CG  GLU B   6       7.230 -40.695  -3.067  1.00 43.96 LIG 0.12  C 
BRANCH 20 21
ATOM     21  CD  GLU B   6       6.286 -41.827  -3.499  1.00 49.39 LIG 0.17  C 
ATOM     22 OE1  GLU B   6       6.443 -42.393  -4.600  1.00 53.88 LIG-0.65  OA
ATOM     23 OE2  GLU B   6       5.331 -42.137  -2.738  1.00 56.34 LIG-0.65  OA
ENDBRANCH 20 21
ENDBRANCH 19 20
ENDBRANCH 18 19
BRANCH 18 24
ATOM     24  C   GLU B   6       8.012 -37.533  -5.308  1.00 41.03 LIG 0.24  C 
ATOM     25 O    GLU B   6       7.929 -37.985  -6.483  1.00 40.13 LIG-0.27  OA
ATOM     26  N   ALA B   7       8.508 -36.325  -5.013  1.00 43.76 LIG-0.35  N 
ATOM     27 H    ALA B   7       8.610 -36.054  -4.203  1.00 43.76 LIG 0.16  HD
BRANCH 26 28
ATOM     28  CA  ALA B   7       8.944 -35.304  -6.030  1.00 45.80 LIG 0.16  C 
ATOM     29  CB  ALA B   7       7.778 -34.301  -6.333  1.00 46.43 LIG 0.04  C 
BRANCH 28 30
ATOM     30  C   ALA B   7      10.162 -34.506  -5.590  1.00 46.67 LIG 0.22  C 
ATOM     31 O    ALA B   7      10.070 -33.713  -4.638  1.00 48.32 LIG-0.29  OA
ENDBRANCH 28 30
ENDBRANCH 26 28
ENDBRANCH 18 24
ENDBRANCH 15 18
ENDBRANCH 6 14
ENDBRANCH 4 6
ENDBRANCH 1 2
BRANCH 1 32
ATOM     32  CB  LEU B   4       1.993 -35.445  -7.464  1.00 24.11 LIG 0.04  C 
BRANCH 32 33
ATOM     33  CG  LEU B   4       2.073 -36.066  -8.878  1.00 25.40 LIG-0.02  C 
ATOM     34  CD2 LEU B   4       2.582 -37.480  -8.709  1.00 26.98 LIG 0.01  C 
ATOM     35  CD1 LEU B   4       2.903 -35.283  -9.932  1.00 25.06 LIG 0.01  C 
ENDBRANCH 32 33
ENDBRANCH 1 32
BRANCH 1 36
ATOM     36  N   LEU B   4       0.501 -35.799  -5.543  1.00 24.30 LIG-0.35  N 
ATOM     37  C   TRP B   3      -0.363 -36.541  -4.855  1.00 25.24 LIG 0.24  C 
ATOM     38 O    TRP B   3      -0.343 -37.760  -4.869  1.00 25.23 LIG-0.27  OA
ATOM     39 H    LEU B   4       0.518 -34.939  -5.526  1.00 24.30 LIG 0.16  HD
BRANCH 37 40
ATOM     40  CA  TRP B   3      -1.442 -35.788  -4.051  1.00 26.39 LIG 0.18  C 
BRANCH 40 41
ATOM     41  CB  TRP B   3      -2.738 -35.729  -4.861  1.00 26.78 LIG 0.07  C 
BRANCH 41 42
ATOM     42  CG  TRP B   3      -2.478 -35.891  -6.255  1.00 25.50 LIG-0.03  A 
ATOM     43  CD1 TRP B   3      -2.780 -36.972  -7.014  1.00 28.00 LIG 0.10  A 
ATOM     44  NE1 TRP B   3      -2.354 -36.779  -8.292  1.00 26.39 LIG-0.36  N 
ATOM     45 HE1  TRP B   3      -2.444 -37.340  -8.939  1.00 26.39 LIG 0.17  HD
ATOM     46  CE2 TRP B   3      -1.762 -35.556  -8.384  1.00 23.90 LIG 0.04  A 
ATOM     47  CZ2 TRP B   3      -1.171 -34.928  -9.482  1.00 23.10 LIG 0.03  A 
ATOM     48  CD2 TRP B   3      -1.832 -34.965  -7.112  1.00 23.76 LIG-0.00  A 
ATOM     49  CH2 TRP B   3      -0.666 -33.684  -9.302  1.00 22.34 LIG 0.00  A 
ATOM     50  CZ3 TRP B   3      -0.701 -33.060  -8.043  1.00 25.34 LIG 0.00  A 
ATOM     51  CE3 TRP B   3      -1.285 -33.711  -6.927  1.00 25.10 LIG 0.01  A 
ENDBRANCH 41 42
ENDBRANCH 40 41
BRANCH 40 52
ATOM     52  N   TRP B   3      -0.960 -34.447  -3.699  1.00 27.54 LIG-0.35  N 
ATOM     53  C   ALA B   2       0.168 -34.348  -2.988  1.00 31.13 LIG 0.24  C 
ATOM     54 O    ALA B   2       0.777 -35.347  -2.622  1.00 30.30 LIG-0.27  OA
ATOM     55 H    TRP B   3      -1.439 -33.789  -3.976  1.00 27.54 LIG 0.16  HD
BRANCH 53 56
ATOM     56  CA  ALA B   2       0.693 -32.945  -2.644  1.00 33.66 LIG 0.17  C 
ATOM     57  CB  ALA B   2       0.920 -32.091  -3.918  1.00 33.40 LIG 0.04  C 
BRANCH 56 58
ATOM     58  N   ALA B   2       1.928 -32.938  -1.852  1.00 35.64 LIG-0.35  N 
ATOM     59 H    ALA B   2       2.629 -32.674  -2.275  1.00 35.64 LIG 0.16  HD
ATOM     60  C   ALA B   1       1.914 -33.323  -0.578  1.00 39.08 LIG 0.25  C 
ATOM     61 O    ALA B   1       1.025 -34.017  -0.135  1.00 40.54 LIG-0.27  OA
BRANCH 60 62
ATOM     62  CA  ALA B   1       3.097 -32.923   0.339  1.00 41.05 LIG 0.27  C 
ATOM     63  CB  ALA B   1       3.235 -31.385   0.420  1.00 41.95 LIG 0.05  C 
BRANCH 62 64
ATOM     64  N   ALA B   1       4.387 -33.518  -0.099  1.00 41.48 LIG-0.07  N 
ATOM     65 H3   ALA B   1       4.832 -33.818   0.611  1.00 41.48 LIG 0.28  HD
ATOM     66 H2   ALA B   1       4.874 -32.898  -0.514  1.00 41.48 LIG 0.28  HD
ATOM     67 H1   ALA B   1       4.229 -34.193  -0.656  1.00 41.48 LIG 0.28  HD
ENDBRANCH 62 64
ENDBRANCH 60 62
ENDBRANCH 56 58
ENDBRANCH 53 56
ENDBRANCH 40 52
ENDBRANCH 37 40
ENDBRANCH 1 36
TORSDOF 23
ENDMDL
MODEL 8
USER: ADFR SOLUTION from run 123
USER: SCORE 21.067491 LL:  -5.602 LR: -17.986 RR:   0.000 FEB: -11.125
USER: RMSD 5.158569
USER: SEED 122
USER: STATUS no improvement in best in 11 clusters for 5 generations
USER: GENES 25
USER: genes 0 Translation |==|  0.31249 0.43530 0.57963
USER: genes 1 Rotation |==|  0.70596 0.43658 0.48936 0.95105
USER: genes 2 Torsion [N]-CA--C-[N] |==|  0.26453
USER: genes 3 Torsion [C]-N--CA-[CB] |==|  0.20892
USER: genes 4 Torsion [N]-CA--CB-[CG] |==|  0.60846
USER: genes 5 Torsion [CA]-CB--CG-[CD1] |==|  0.75737
USER: genes 6 Torsion [N]-CA--C-[N] |==|  0.36795
USER: genes 7 Torsion [C]-N--CA-[C] |==|  0.63041
USER: genes 8 Torsion [N]-CA--CB-[CG] |==|  0.35947
USER: genes 9 Torsion [CA]-CB--CG-[CD] |==|  0.34755
USER: genes 10 Torsion [CB]-CG--CD-[OE2] |==|  0.01512
USER: genes 11 Torsion [N]-CA--C-[N] |==|  0.96388
USER: genes 12 Torsion [C]-N--CA-[CB] |==|  0.20815
USER: genes 13 Torsion [N]-CA--C-[O] |==|  0.94302
USER: genes 14 Torsion [C]-CA--CB-[CG] |==|  0.71533
USER: genes 15 Torsion [CA]-CB--CG-[CD1] |==|  0.31381
USER: genes 16 Torsion [C]-CA--N-[C] |==|  0.66813
USER: genes 17 Torsion [N]-C--CA-[N] |==|  0.05084
USER: genes 18 Torsion [C]-CA--CB-[CG] |==|  0.81016
USER: genes 19 Torsion [CA]-CB--CG-[CD1] |==|  0.16558
USER: genes 20 Torsion [C]-CA--N-[C] |==|  0.69944
USER: genes 21 Torsion [N]-C--CA-[N] |==|  0.31677
USER: genes 22 Torsion [C]-CA--N-[C] |==|  0.52637
USER: genes 23 Torsion [N]-C--CA-[N] |==|  0.85804
USER: genes 24 Torsion [C]-CA--N-[H3] |==|  0.30979
ROOT
ATOM      1  CA  LEU B   4      -0.712 -36.300  -8.058  1.00 25.55 LIG 0.18  C 
ENDROOT
BRANCH 1 2
ATOM      2  C   LEU B   4      -1.123 -35.011  -8.778  1.00 26.13 LIG 0.24  C 
ATOM      3 O    LEU B   4      -1.874 -34.237  -8.211  1.00 25.31 LIG-0.27  OA
ATOM      4  N   PHE B   5      -0.619 -34.799 -10.005  1.00 26.68 LIG-0.35  N 
ATOM      5 H    PHE B   5      -0.167 -35.381 -10.449  1.00 26.68 LIG 0.16  HD
BRANCH 4 6
ATOM      6  CA  PHE B   5      -0.813 -33.516 -10.695  1.00 28.54 LIG 0.18  C 
BRANCH 6 7
ATOM      7  CB  PHE B   5       0.093 -32.408 -10.115  1.00 28.61 LIG 0.07  C 
BRANCH 7 8
ATOM      8  CG  PHE B   5      -0.543 -31.068 -10.011  1.00 26.86 LIG-0.06  A 
ATOM      9  CD1 PHE B   5      -0.519 -30.185 -11.066  1.00 26.13 LIG 0.01  A 
ATOM     10  CE1 PHE B   5      -1.127 -28.935 -10.964  1.00 23.59 LIG 0.00  A 
ATOM     11  CZ  PHE B   5      -1.801 -28.562  -9.775  1.00 25.19 LIG 0.00  A 
ATOM     12  CE2 PHE B   5      -1.786 -29.430  -8.706  1.00 26.30 LIG 0.00  A 
ATOM     13  CD2 PHE B   5      -1.184 -30.683  -8.833  1.00 27.99 LIG 0.01  A 
ENDBRANCH 7 8
ENDBRANCH 6 7
BRANCH 6 14
ATOM     14  C   PHE B   5      -0.559 -33.601 -12.202  1.00 31.71 LIG 0.24  C 
ATOM     15  N   GLU B   6      -1.479 -33.050 -13.000  1.00 34.73 LIG-0.35  N 
ATOM     16 H    GLU B   6      -2.303 -32.956 -12.773  1.00 34.73 LIG 0.16  HD
ATOM     17 O    PHE B   5       0.425 -34.219 -12.617  1.00 30.66 LIG-0.27  OA
BRANCH 15 18
ATOM     18  CA  GLU B   6      -1.174 -32.538 -14.367  1.00 38.89 LIG 0.18  C 
BRANCH 18 19
ATOM     19  CB  GLU B   6      -1.655 -33.484 -15.475  1.00 39.10 LIG 0.04  C 
BRANCH 19 20
ATOM     20  CG  GLU B   6      -2.498 -32.771 -16.566  1.00 43.96 LIG 0.12  C 
BRANCH 20 21
ATOM     21  CD  GLU B   6      -1.986 -32.958 -18.002  1.00 49.39 LIG 0.17  C 
ATOM     22 OE1  GLU B   6      -2.553 -32.380 -18.952  1.00 53.88 LIG-0.65  OA
ATOM     23 OE2  GLU B   6      -1.016 -33.736 -18.199  1.00 56.34 LIG-0.65  OA
ENDBRANCH 20 21
ENDBRANCH 19 20
ENDBRANCH 18 19
BRANCH 18 24
ATOM     24  C   GLU B   6      -1.814 -31.124 -14.524  1.00 41.03 LIG 0.24  C 
ATOM     25 O    GLU B   6      -1.544 -30.380 -15.505  1.00 40.13 LIG-0.27  OA
ATOM     26  N   ALA B   7      -2.694 -30.797 -13.567  1.00 43.76 LIG-0.35  N 
ATOM     27 H    ALA B   7      -2.825 -31.291 -12.875  1.00 43.76 LIG 0.16  HD
BRANCH 26 28
ATOM     28  CA  ALA B   7      -3.548 -29.559 -13.574  1.00 45.80 LIG 0.16  C 
ATOM     29  CB  ALA B   7      -4.721 -29.708 -14.604  1.00 46.43 LIG 0.04  C 
BRANCH 28 30
ATOM     30  C   ALA B   7      -4.143 -29.238 -12.211  1.00 46.67 LIG 0.22  C 
ATOM     31 O    ALA B   7      -4.233 -30.130 -11.351  1.00 48.32 LIG-0.29  OA
ENDBRANCH 28 30
ENDBRANCH 26 28
ENDBRANCH 18 24
ENDBRANCH 15 18
ENDBRANCH 6 14
ENDBRANCH 4 6
ENDBRANCH 1 2
BRANCH 1 32
ATOM     32  CB  LEU B   4      -1.931 -36.857  -7.351  1.00 24.11 LIG 0.04  C 
BRANCH 32 33
ATOM     33  CG  LEU B   4      -1.951 -36.591  -5.828  1.00 25.40 LIG-0.02  C 
ATOM     34  CD2 LEU B   4      -2.020 -37.939  -5.146  1.00 26.98 LIG 0.01  C 
ATOM     35  CD1 LEU B   4      -3.055 -35.630  -5.307  1.00 25.06 LIG 0.01  C 
ENDBRANCH 32 33
ENDBRANCH 1 32
BRANCH 1 36
ATOM     36  N   LEU B   4       0.409 -36.131  -7.157  1.00 24.30 LIG-0.35  N 
ATOM     37  C   TRP B   3       1.544 -36.805  -7.327  1.00 25.24 LIG 0.24  C 
ATOM     38 O    TRP B   3       1.724 -37.569  -8.261  1.00 25.23 LIG-0.27  OA
ATOM     39 H    LEU B   4       0.274 -35.570  -6.519  1.00 24.30 LIG 0.16  HD
BRANCH 37 40
ATOM     40  CA  TRP B   3       2.636 -36.614  -6.255  1.00 26.39 LIG 0.18  C 
BRANCH 40 41
ATOM     41  CB  TRP B   3       3.334 -37.949  -5.989  1.00 26.78 LIG 0.07  C 
BRANCH 41 42
ATOM     42  CG  TRP B   3       2.452 -38.868  -5.345  1.00 25.50 LIG-0.03  A 
ATOM     43  CD1 TRP B   3       1.271 -39.326  -5.824  1.00 28.00 LIG 0.10  A 
ATOM     44  NE1 TRP B   3       0.694 -40.165  -4.921  1.00 26.39 LIG-0.36  N 
ATOM     45 HE1  TRP B   3      -0.060 -40.568  -5.023  1.00 26.39 LIG 0.17  HD
ATOM     46  CE2 TRP B   3       1.501 -40.265  -3.829  1.00 23.90 LIG 0.04  A 
ATOM     47  CZ2 TRP B   3       1.326 -40.996  -2.651  1.00 23.10 LIG 0.03  A 
ATOM     48  CD2 TRP B   3       2.627 -39.462  -4.070  1.00 23.76 LIG-0.00  A 
ATOM     49  CH2 TRP B   3       2.307 -40.933  -1.719  1.00 22.34 LIG 0.00  A 
ATOM     50  CZ3 TRP B   3       3.444 -40.130  -1.911  1.00 25.34 LIG 0.00  A 
ATOM     51  CE3 TRP B   3       3.606 -39.375  -3.101  1.00 25.10 LIG 0.01  A 
ENDBRANCH 41 42
ENDBRANCH 40 41
BRANCH 40 52
ATOM     52  N   TRP B   3       2.044 -36.058  -5.032  1.00 27.54 LIG-0.35  N 
ATOM     53  C   ALA B   2       2.311 -34.785  -4.724  1.00 31.13 LIG 0.24  C 
ATOM     54 O    ALA B   2       3.043 -34.101  -5.430  1.00 30.30 LIG-0.27  OA
ATOM     55 H    TRP B   3       1.550 -36.593  -4.575  1.00 27.54 LIG 0.16  HD
BRANCH 53 56
ATOM     56  CA  ALA B   2       1.668 -34.190  -3.460  1.00 33.66 LIG 0.17  C 
ATOM     57  CB  ALA B   2       0.816 -32.937  -3.788  1.00 33.40 LIG 0.04  C 
BRANCH 56 58
ATOM     58  N   ALA B   2       2.623 -33.842  -2.402  1.00 35.64 LIG-0.35  N 
ATOM     59 H    ALA B   2       3.451 -33.882  -2.633  1.00 35.64 LIG 0.16  HD
ATOM     60  C   ALA B   1       2.192 -33.496  -1.191  1.00 39.08 LIG 0.25  C 
ATOM     61 O    ALA B   1       1.084 -33.798  -0.803  1.00 40.54 LIG-0.27  OA
BRANCH 60 62
ATOM     62  CA  ALA B   1       3.154 -32.745  -0.238  1.00 41.05 LIG 0.27  C 
ATOM     63  CB  ALA B   1       3.371 -31.289  -0.710  1.00 41.95 LIG 0.05  C 
BRANCH 62 64
ATOM     64  N   ALA B   1       4.469 -33.426  -0.100  1.00 41.48 LIG-0.07  N 
ATOM     65 H3   ALA B   1       5.102 -32.930  -0.482  1.00 41.48 LIG 0.28  HD
ATOM     66 H2   ALA B   1       4.435 -34.221  -0.498  1.00 41.48 LIG 0.28  HD
ATOM     67 H1   ALA B   1       4.659 -33.534   0.762  1.00 41.48 LIG 0.28  HD
ENDBRANCH 62 64
ENDBRANCH 60 62
ENDBRANCH 56 58
ENDBRANCH 53 56
ENDBRANCH 40 52
ENDBRANCH 37 40
ENDBRANCH 1 36
TORSDOF 23
ENDMDL
MODEL 9
USER: ADFR SOLUTION from run 186
USER: SCORE 22.912536 LL:  -6.852 LR: -17.995 RR:   0.000 FEB: -11.134
USER: RMSD 6.069090
USER: SEED 185
USER: STATUS no improvement in best in 6 clusters for 5 generations
USER: GENES 25
USER: genes 0 Translation |==|  0.39183 0.40257 0.61376
USER: genes 1 Rotation |==|  0.68136 0.29625 0.37041 0.89850
USER: genes 2 Torsion [N]-CA--C-[N] |==|  0.43347
USER: genes 3 Torsion [C]-N--CA-[CB] |==|  0.23252
USER: genes 4 Torsion [N]-CA--CB-[CG] |==|  0.13898
USER: genes 5 Torsion [CA]-CB--CG-[CD1] |==|  0.75914
USER: genes 6 Torsion [N]-CA--C-[N] |==|  0.02190
USER: genes 7 Torsion [C]-N--CA-[C] |==|  0.23889
USER: genes 8 Torsion [N]-CA--CB-[CG] |==|  0.55575
USER: genes 9 Torsion [CA]-CB--CG-[CD] |==|  0.26626
USER: genes 10 Torsion [CB]-CG--CD-[OE2] |==|  0.54957
USER: genes 11 Torsion [N]-CA--C-[N] |==|  0.47594
USER: genes 12 Torsion [C]-N--CA-[CB] |==|  0.54471
USER: genes 13 Torsion [N]-CA--C-[O] |==|  0.59068
USER: genes 14 Torsion [C]-CA--CB-[CG] |==|  0.16931
USER: genes 15 Torsion [CA]-CB--CG-[CD1] |==|  0.35787
USER: genes 16 Torsion [C]-CA--N-[C] |==|  0.56060
USER: genes 17 Torsion [N]-C--CA-[N] |==|  0.94206
USER: genes 18 Torsion [C]-CA--CB-[CG] |==|  0.93560
USER: genes 19 Torsion [CA]-CB--CG-[CD1] |==|  0.29835
USER: genes 20 Torsion [C]-CA--N-[C] |==|  0.70770
USER: genes 21 Torsion [N]-C--CA-[N] |==|  0.90786
USER: genes 22 Torsion [C]-CA--N-[C] |==|  0.84820
USER: genes 23 Torsion [N]-C--CA-[N] |==|  0.90790
USER: genes 24 Torsion [C]-CA--N-[H3] |==|  0.01345
ROOT
ATOM      1  CA  LEU B   4       0.835 -36.987  -7.290  1.00 25.55 LIG 0.18  C 
ENDROOT
BRANCH 1 2
ATOM      2  C   LEU B   4       1.574 -35.786  -7.889  1.00 26.13 LIG 0.24  C 
ATOM      3 O    LEU B   4       2.278 -35.109  -7.160  1.00 25.31 LIG-0.27  OA
ATOM      4  N   PHE B   5       1.411 -35.548  -9.200  1.00 26.68 LIG-0.35  N 
ATOM      5 H    PHE B   5       0.846 -35.961  -9.700  1.00 26.68 LIG 0.16  HD
BRANCH 4 6
ATOM      6  CA  PHE B   5       2.215 -34.533  -9.895  1.00 28.54 LIG 0.18  C 
BRANCH 6 7
ATOM      7  CB  PHE B   5       3.589 -35.087 -10.333  1.00 28.61 LIG 0.07  C 
BRANCH 7 8
ATOM      8  CG  PHE B   5       3.538 -36.377 -11.070  1.00 26.86 LIG-0.06  A 
ATOM      9  CD1 PHE B   5       3.534 -37.581 -10.404  1.00 26.13 LIG 0.01  A 
ATOM     10  CE1 PHE B   5       3.474 -38.784 -11.103  1.00 23.59 LIG 0.00  A 
ATOM     11  CZ  PHE B   5       3.395 -38.786 -12.518  1.00 25.19 LIG 0.00  A 
ATOM     12  CE2 PHE B   5       3.443 -37.582 -13.185  1.00 26.30 LIG 0.00  A 
ATOM     13  CD2 PHE B   5       3.488 -36.388 -12.465  1.00 27.99 LIG 0.01  A 
ENDBRANCH 7 8
ENDBRANCH 6 7
BRANCH 6 14
ATOM     14  C   PHE B   5       1.517 -33.955 -11.128  1.00 31.71 LIG 0.24  C 
ATOM     15  N   GLU B   6       0.243 -34.309 -11.320  1.00 34.73 LIG-0.35  N 
ATOM     16 H    GLU B   6      -0.092 -35.042 -11.020  1.00 34.73 LIG 0.16  HD
ATOM     17 O    PHE B   5       2.160 -33.257 -11.918  1.00 30.66 LIG-0.27  OA
BRANCH 15 18
ATOM     18  CA  GLU B   6      -0.734 -33.469 -12.072  1.00 38.89 LIG 0.18  C 
BRANCH 18 19
ATOM     19  CB  GLU B   6      -0.543 -31.968 -11.821  1.00 39.10 LIG 0.04  C 
BRANCH 19 20
ATOM     20  CG  GLU B   6      -1.798 -31.124 -12.167  1.00 43.96 LIG 0.12  C 
BRANCH 20 21
ATOM     21  CD  GLU B   6      -2.716 -30.813 -10.975  1.00 49.39 LIG 0.17  C 
ATOM     22 OE1  GLU B   6      -2.306 -30.967  -9.807  1.00 53.88 LIG-0.65  OA
ATOM     23 OE2  GLU B   6      -3.898 -30.443 -11.207  1.00 56.34 LIG-0.65  OA
ENDBRANCH 20 21
ENDBRANCH 19 20
ENDBRANCH 18 19
BRANCH 18 24
ATOM     24  C   GLU B   6      -0.609 -33.801 -13.592  1.00 41.03 LIG 0.24  C 
ATOM     25 O    GLU B   6       0.292 -34.566 -14.030  1.00 40.13 LIG-0.27  OA
ATOM     26  N   ALA B   7      -1.555 -33.251 -14.365  1.00 43.76 LIG-0.35  N 
ATOM     27 H    ALA B   7      -2.128 -32.688 -14.060  1.00 43.76 LIG 0.16  HD
BRANCH 26 28
ATOM     28  CA  ALA B   7      -1.737 -33.537 -15.831  1.00 45.80 LIG 0.16  C 
ATOM     29  CB  ALA B   7      -2.645 -32.443 -16.493  1.00 46.43 LIG 0.04  C 
BRANCH 28 30
ATOM     30  C   ALA B   7      -0.423 -33.597 -16.595  1.00 46.67 LIG 0.22  C 
ATOM     31 O    ALA B   7      -0.380 -33.223 -17.779  1.00 48.32 LIG-0.29  OA
ENDBRANCH 28 30
ENDBRANCH 26 28
ENDBRANCH 18 24
ENDBRANCH 15 18
ENDBRANCH 6 14
ENDBRANCH 4 6
ENDBRANCH 1 2
BRANCH 1 32
ATOM     32  CB  LEU B   4      -0.611 -36.593  -7.069  1.00 24.11 LIG 0.04  C 
BRANCH 32 33
ATOM     33  CG  LEU B   4      -1.360 -36.197  -8.363  1.00 25.40 LIG-0.02  C 
ATOM     34  CD2 LEU B   4      -1.509 -34.693  -8.344  1.00 26.98 LIG 0.01  C 
ATOM     35  CD1 LEU B   4      -2.721 -36.902  -8.619  1.00 25.06 LIG 0.01  C 
ENDBRANCH 32 33
ENDBRANCH 1 32
BRANCH 1 36
ATOM     36  N   LEU B   4       1.447 -37.506  -6.084  1.00 24.30 LIG-0.35  N 
ATOM     37  C   TRP B   3       1.225 -38.752  -5.674  1.00 25.24 LIG 0.24  C 
ATOM     38 O    TRP B   3       0.532 -39.539  -6.298  1.00 25.23 LIG-0.27  OA
ATOM     39 H    LEU B   4       1.952 -36.945  -5.671  1.00 24.30 LIG 0.16  HD
BRANCH 37 40
ATOM     40  CA  TRP B   3       1.856 -39.166  -4.329  1.00 26.39 LIG 0.18  C 
BRANCH 40 41
ATOM     41  CB  TRP B   3       0.788 -39.156  -3.235  1.00 26.78 LIG 0.07  C 
BRANCH 41 42
ATOM     42  CG  TRP B   3      -0.297 -38.298  -3.587  1.00 25.50 LIG-0.03  A 
ATOM     43  CD1 TRP B   3      -1.540 -38.680  -3.968  1.00 28.00 LIG 0.10  A 
ATOM     44  NE1 TRP B   3      -2.298 -37.586  -4.254  1.00 26.39 LIG-0.36  N 
ATOM     45 HE1  TRP B   3      -3.118 -37.601  -4.515  1.00 26.39 LIG 0.17  HD
ATOM     46  CE2 TRP B   3      -1.550 -36.465  -4.063  1.00 23.90 LIG 0.04  A 
ATOM     47  CZ2 TRP B   3      -1.891 -35.121  -4.237  1.00 23.10 LIG 0.03  A 
ATOM     48  CD2 TRP B   3      -0.280 -36.882  -3.632  1.00 23.76 LIG-0.00  A 
ATOM     49  CH2 TRP B   3      -0.949 -34.189  -3.952  1.00 22.34 LIG 0.00  A 
ATOM     50  CZ3 TRP B   3       0.340 -34.562  -3.533  1.00 25.34 LIG 0.00  A 
ATOM     51  CE3 TRP B   3       0.685 -35.928  -3.377  1.00 25.10 LIG 0.01  A 
ENDBRANCH 41 42
ENDBRANCH 40 41
BRANCH 40 52
ATOM     52  N   TRP B   3       2.973 -38.271  -4.004  1.00 27.54 LIG-0.35  N 
ATOM     53  C   ALA B   2       4.219 -38.735  -4.151  1.00 31.13 LIG 0.24  C 
ATOM     54 O    ALA B   2       4.427 -39.882  -4.530  1.00 30.30 LIG-0.27  OA
ATOM     55 H    TRP B   3       2.759 -37.483  -3.733  1.00 27.54 LIG 0.16  HD
BRANCH 53 56
ATOM     56  CA  ALA B   2       5.391 -37.791  -3.842  1.00 33.66 LIG 0.17  C 
ATOM     57  CB  ALA B   2       5.833 -37.893  -2.360  1.00 33.40 LIG 0.04  C 
BRANCH 56 58
ATOM     58  N   ALA B   2       5.131 -36.381  -4.155  1.00 35.64 LIG-0.35  N 
ATOM     59 H    ALA B   2       5.254 -35.835  -3.502  1.00 35.64 LIG 0.16  HD
ATOM     60  C   ALA B   1       4.735 -36.023  -5.375  1.00 39.08 LIG 0.25  C 
ATOM     61 O    ALA B   1       4.230 -36.820  -6.136  1.00 40.54 LIG-0.27  OA
BRANCH 60 62
ATOM     62  CA  ALA B   1       4.869 -34.540  -5.802  1.00 41.05 LIG 0.27  C 
ATOM     63  CB  ALA B   1       6.241 -34.279  -6.463  1.00 41.95 LIG 0.05  C 
BRANCH 62 64
ATOM     64  N   ALA B   1       4.674 -33.599  -4.667  1.00 41.48 LIG-0.07  N 
ATOM     65 H3   ALA B   1       4.581 -34.060  -3.912  1.00 41.48 LIG 0.28  HD
ATOM     66 H2   ALA B   1       3.943 -33.110  -4.808  1.00 41.48 LIG 0.28  HD
ATOM     67 H1   ALA B   1       5.381 -33.062  -4.601  1.00 41.48 LIG 0.28  HD
ENDBRANCH 62 64
ENDBRANCH 60 62
ENDBRANCH 56 58
ENDBRANCH 53 56
ENDBRANCH 40 52
ENDBRANCH 37 40
ENDBRANCH 1 36
TORSDOF 23
ENDMDL
MODEL 10
USER: ADFR SOLUTION from run 49
USER: SCORE 20.657339 LL:  -5.826 LR: -17.920 RR:   0.000 FEB: -11.059
USER: RMSD 6.705370
USER: SEED 48
USER: STATUS no improvement in best in 9 clusters for 5 generations
USER: GENES 25
USER: genes 0 Translation |==|  0.32490 0.45783 0.55114
USER: genes 1 Rotation |==|  0.60570 0.53478 0.27488 0.93236
USER: genes 2 Torsion [N]-CA--C-[N] |==|  0.06308
USER: genes 3 Torsion [C]-N--CA-[CB] |==|  0.45826
USER: genes 4 Torsion [N]-CA--CB-[CG] |==|  0.11536
USER: genes 5 Torsion [CA]-CB--CG-[CD1] |==|  0.27733
USER: genes 6 Torsion [N]-CA--C-[N] |==|  0.36811
USER: genes 7 Torsion [C]-N--CA-[C] |==|  0.89410
USER: genes 8 Torsion [N]-CA--CB-[CG] |==|  0.71977
USER: genes 9 Torsion [CA]-CB--CG-[CD] |==|  0.17261
USER: genes 10 Torsion [CB]-CG--CD-[OE2] |==|  0.40065
USER: genes 11 Torsion [N]-CA--C-[N] |==|  0.33954
USER: genes 12 Torsion [C]-N--CA-[CB] |==|  0.20747
USER: genes 13 Torsion [N]-CA--C-[O] |==|  0.19468
USER: genes 14 Torsion [C]-CA--CB-[CG] |==|  0.25887
USER: genes 15 Torsion [CA]-CB--CG-[CD1] |==|  0.18104
USER: genes 16 Torsion [C]-CA--N-[C] |==|  0.17914
USER: genes 17 Torsion [N]-C--CA-[N] |==|  0.72373
USER: genes 18 Torsion [C]-CA--CB-[CG] |==|  0.44016
USER: genes 19 Torsion [CA]-CB--CG-[CD1] |==|  0.96611
USER: genes 20 Torsion [C]-CA--N-[C] |==|  0.15769
USER: genes 21 Torsion [N]-C--CA-[N] |==|  0.09104
USER: genes 22 Torsion [C]-CA--N-[C] |==|  0.75838
USER: genes 23 Torsion [N]-C--CA-[N] |==|  0.79219
USER: genes 24 Torsion [C]-CA--N-[H3] |==|  0.21458
ROOT
ATOM      1  CA  LEU B   4      -0.470 -35.827  -8.699  1.00 25.55 LIG 0.18  C 
ENDROOT
BRANCH 1 2
ATOM      2  C   LEU B   4      -0.535 -34.549  -9.542  1.00 26.13 LIG 0.24  C 
ATOM      3 O    LEU B   4      -1.381 -33.713  -9.276  1.00 25.31 LIG-0.27  OA
ATOM      4  N   PHE B   5       0.361 -34.414 -10.533  1.00 26.68 LIG-0.35  N 
ATOM      5 H    PHE B   5       0.898 -35.036 -10.787  1.00 26.68 LIG 0.16  HD
BRANCH 4 6
ATOM      6  CA  PHE B   5       0.490 -33.152 -11.275  1.00 28.54 LIG 0.18  C 
BRANCH 6 7
ATOM      7  CB  PHE B   5       1.800 -33.097 -12.092  1.00 28.61 LIG 0.07  C 
BRANCH 7 8
ATOM      8  CG  PHE B   5       2.160 -34.361 -12.786  1.00 26.86 LIG-0.06  A 
ATOM      9  CD1 PHE B   5       1.902 -34.537 -14.126  1.00 26.13 LIG 0.01  A 
ATOM     10  CE1 PHE B   5       2.253 -35.721 -14.771  1.00 23.59 LIG 0.00  A 
ATOM     11  CZ  PHE B   5       2.903 -36.758 -14.059  1.00 25.19 LIG 0.00  A 
ATOM     12  CE2 PHE B   5       3.122 -36.598 -12.708  1.00 26.30 LIG 0.00  A 
ATOM     13  CD2 PHE B   5       2.776 -35.398 -12.084  1.00 27.99 LIG 0.01  A 
ENDBRANCH 7 8
ENDBRANCH 6 7
BRANCH 6 14
ATOM     14  C   PHE B   5      -0.679 -32.894 -12.229  1.00 31.71 LIG 0.24  C 
ATOM     15  N   GLU B   6      -1.229 -31.676 -12.191  1.00 34.73 LIG-0.35  N 
ATOM     16 H    GLU B   6      -1.206 -31.171 -11.495  1.00 34.73 LIG 0.16  HD
ATOM     17 O    PHE B   5      -1.104 -33.816 -12.930  1.00 30.66 LIG-0.27  OA
BRANCH 15 18
ATOM     18  CA  GLU B   6      -1.940 -31.065 -13.351  1.00 38.89 LIG 0.18  C 
BRANCH 18 19
ATOM     19  CB  GLU B   6      -2.078 -29.542 -13.225  1.00 39.10 LIG 0.04  C 
BRANCH 19 20
ATOM     20  CG  GLU B   6      -3.485 -29.091 -12.749  1.00 43.96 LIG 0.12  C 
BRANCH 20 21
ATOM     21  CD  GLU B   6      -3.884 -29.589 -11.351  1.00 49.39 LIG 0.17  C 
ATOM     22 OE1  GLU B   6      -3.567 -30.736 -10.977  1.00 53.88 LIG-0.65  OA
ATOM     23 OE2  GLU B   6      -4.570 -28.830 -10.616  1.00 56.34 LIG-0.65  OA
ENDBRANCH 20 21
ENDBRANCH 19 20
ENDBRANCH 18 19
BRANCH 18 24
ATOM     24  C   GLU B   6      -1.182 -31.451 -14.659  1.00 41.03 LIG 0.24  C 
ATOM     25 O    GLU B   6       0.045 -31.202 -14.811  1.00 40.13 LIG-0.27  OA
ATOM     26  N   ALA B   7      -1.924 -32.098 -15.567  1.00 43.76 LIG-0.35  N 
ATOM     27 H    ALA B   7      -2.772 -32.210 -15.473  1.00 43.76 LIG 0.16  HD
BRANCH 26 28
ATOM     28  CA  ALA B   7      -1.392 -32.702 -16.838  1.00 45.80 LIG 0.16  C 
ATOM     29  CB  ALA B   7      -0.605 -34.023 -16.530  1.00 46.43 LIG 0.04  C 
BRANCH 28 30
ATOM     30  C   ALA B   7      -2.483 -33.018 -17.851  1.00 46.67 LIG 0.22  C 
ATOM     31 O    ALA B   7      -3.078 -32.091 -18.426  1.00 48.32 LIG-0.29  OA
ENDBRANCH 28 30
ENDBRANCH 26 28
ENDBRANCH 18 24
ENDBRANCH 15 18
ENDBRANCH 6 14
ENDBRANCH 4 6
ENDBRANCH 1 2
BRANCH 1 32
ATOM     32  CB  LEU B   4      -0.911 -35.488  -7.290  1.00 24.11 LIG 0.04  C 
BRANCH 32 33
ATOM     33  CG  LEU B   4      -2.417 -35.719  -7.030  1.00 25.40 LIG-0.02  C 
ATOM     34  CD2 LEU B   4      -2.734 -35.091  -5.691  1.00 26.98 LIG 0.01  C 
ATOM     35  CD1 LEU B   4      -2.916 -37.188  -7.104  1.00 25.06 LIG 0.01  C 
ENDBRANCH 32 33
ENDBRANCH 1 32
BRANCH 1 36
ATOM     36  N   LEU B   4       0.825 -36.475  -8.723  1.00 24.30 LIG-0.35  N 
ATOM     37  C   TRP B   3       1.906 -35.886  -8.218  1.00 25.24 LIG 0.24  C 
ATOM     38 O    TRP B   3       1.870 -34.792  -7.678  1.00 25.23 LIG-0.27  OA
ATOM     39 H    LEU B   4       0.827 -37.256  -9.084  1.00 24.30 LIG 0.16  HD
BRANCH 37 40
ATOM     40  CA  TRP B   3       3.246 -36.630  -8.379  1.00 26.39 LIG 0.18  C 
BRANCH 40 41
ATOM     41  CB  TRP B   3       3.162 -37.588  -9.568  1.00 26.78 LIG 0.07  C 
BRANCH 41 42
ATOM     42  CG  TRP B   3       4.463 -37.913 -10.057  1.00 25.50 LIG-0.03  A 
ATOM     43  CD1 TRP B   3       5.627 -37.299  -9.733  1.00 28.00 LIG 0.10  A 
ATOM     44  NE1 TRP B   3       6.660 -37.861 -10.417  1.00 26.39 LIG-0.36  N 
ATOM     45 HE1  TRP B   3       7.485 -37.624 -10.361  1.00 26.39 LIG 0.17  HD
ATOM     46  CE2 TRP B   3       6.178 -38.861 -11.206  1.00 23.90 LIG 0.04  A 
ATOM     47  CZ2 TRP B   3       6.852 -39.709 -12.088  1.00 23.10 LIG 0.03  A 
ATOM     48  CD2 TRP B   3       4.791 -38.924 -10.995  1.00 23.76 LIG-0.00  A 
ATOM     49  CH2 TRP B   3       6.124 -40.644 -12.745  1.00 22.34 LIG 0.00  A 
ATOM     50  CZ3 TRP B   3       4.732 -40.733 -12.575  1.00 25.34 LIG 0.00  A 
ATOM     51  CE3 TRP B   3       4.051 -39.857 -11.693  1.00 25.10 LIG 0.01  A 
ENDBRANCH 41 42
ENDBRANCH 40 41
BRANCH 40 52
ATOM     52  N   TRP B   3       3.578 -37.337  -7.136  1.00 27.54 LIG-0.35  N 
ATOM     53  C   ALA B   2       2.695 -38.218  -6.655  1.00 31.13 LIG 0.24  C 
ATOM     54 O    ALA B   2       1.628 -38.422  -7.224  1.00 30.30 LIG-0.27  OA
ATOM     55 H    TRP B   3       4.336 -37.140  -6.780  1.00 27.54 LIG 0.16  HD
BRANCH 53 56
ATOM     56  CA  ALA B   2       3.052 -38.983  -5.370  1.00 33.66 LIG 0.17  C 
ATOM     57  CB  ALA B   2       1.786 -39.488  -4.634  1.00 33.40 LIG 0.04  C 
BRANCH 56 58
ATOM     58  N   ALA B   2       3.872 -38.220  -4.421  1.00 35.64 LIG-0.35  N 
ATOM     59 H    ALA B   2       3.428 -37.794  -3.820  1.00 35.64 LIG 0.16  HD
ATOM     60  C   ALA B   1       5.199 -38.221  -4.524  1.00 39.08 LIG 0.25  C 
ATOM     61 O    ALA B   1       5.754 -38.514  -5.561  1.00 40.54 LIG-0.27  OA
BRANCH 60 62
ATOM     62  CA  ALA B   1       6.045 -37.775  -3.306  1.00 41.05 LIG 0.27  C 
ATOM     63  CB  ALA B   1       5.571 -38.484  -2.017  1.00 41.95 LIG 0.05  C 
BRANCH 62 64
ATOM     64  N   ALA B   1       6.023 -36.302  -3.102  1.00 41.48 LIG-0.07  N 
ATOM     65 H3   ALA B   1       5.253 -36.066  -2.725  1.00 41.48 LIG 0.28  HD
ATOM     66 H2   ALA B   1       6.107 -35.892  -3.888  1.00 41.48 LIG 0.28  HD
ATOM     67 H1   ALA B   1       6.697 -36.065  -2.572  1.00 41.48 LIG 0.28  HD
ENDBRANCH 62 64
ENDBRANCH 60 62
ENDBRANCH 56 58
ENDBRANCH 53 56
ENDBRANCH 40 52
ENDBRANCH 37 40
ENDBRANCH 1 36
TORSDOF 23
ENDMDL
MODEL 11
USER: ADFR SOLUTION from run 172
USER: SCORE 23.623566 LL:  -6.935 LR: -17.910 RR:   0.000 FEB: -11.049
USER: RMSD 2.696346
USER: SEED 171
USER: STATUS no improvement in best in 2 clusters for 5 generations
USER: GENES 25
USER: genes 0 Translation |==|  0.50089 0.34350 0.68830
USER: genes 1 Rotation |==|  0.56706 0.51775 0.57385 0.98963
USER: genes 2 Torsion [N]-CA--C-[N] |==|  0.01171
USER: genes 3 Torsion [C]-N--CA-[CB] |==|  0.22435
USER: genes 4 Torsion [N]-CA--CB-[CG] |==|  0.73177
USER: genes 5 Torsion [CA]-CB--CG-[CD1] |==|  0.29120
USER: genes 6 Torsion [N]-CA--C-[N] |==|  0.43676
USER: genes 7 Torsion [C]-N--CA-[C] |==|  0.65446
USER: genes 8 Torsion [N]-CA--CB-[CG] |==|  0.20030
USER: genes 9 Torsion [CA]-CB--CG-[CD] |==|  0.24603
USER: genes 10 Torsion [CB]-CG--CD-[OE2] |==|  0.11559
USER: genes 11 Torsion [N]-CA--C-[N] |==|  0.43862
USER: genes 12 Torsion [C]-N--CA-[CB] |==|  0.78509
USER: genes 13 Torsion [N]-CA--C-[O] |==|  0.51564
USER: genes 14 Torsion [C]-CA--CB-[CG] |==|  0.34510
USER: genes 15 Torsion [CA]-CB--CG-[CD1] |==|  0.67154
USER: genes 16 Torsion [C]-CA--N-[C] |==|  0.70710
USER: genes 17 Torsion [N]-C--CA-[N] |==|  0.92778
USER: genes 18 Torsion [C]-CA--CB-[CG] |==|  0.10493
USER: genes 19 Torsion [CA]-CB--CG-[CD1] |==|  0.19723
USER: genes 20 Torsion [C]-CA--N-[C] |==|  0.82033
USER: genes 21 Torsion [N]-C--CA-[N] |==|  0.88394
USER: genes 22 Torsion [C]-CA--N-[C] |==|  0.79565
USER: genes 23 Torsion [N]-C--CA-[N] |==|  0.34094
USER: genes 24 Torsion [C]-CA--N-[H3] |==|  0.46160
ROOT
ATOM      1  CA  LEU B   4       2.961 -38.227  -5.613  1.00 25.55 LIG 0.18  C 
ENDROOT
BRANCH 1 2
ATOM      2  C   LEU B   4       2.026 -37.807  -6.751  1.00 26.13 LIG 0.24  C 
ATOM      3 O    LEU B   4       1.087 -38.531  -7.035  1.00 25.31 LIG-0.27  OA
ATOM      4  N   PHE B   5       2.288 -36.647  -7.373  1.00 26.68 LIG-0.35  N 
ATOM      5 H    PHE B   5       2.998 -36.179  -7.244  1.00 26.68 LIG 0.16  HD
BRANCH 4 6
ATOM      6  CA  PHE B   5       1.349 -36.078  -8.351  1.00 28.54 LIG 0.18  C 
BRANCH 6 7
ATOM      7  CB  PHE B   5       0.187 -35.329  -7.662  1.00 28.61 LIG 0.07  C 
BRANCH 7 8
ATOM      8  CG  PHE B   5      -1.059 -36.123  -7.494  1.00 26.86 LIG-0.06  A 
ATOM      9  CD1 PHE B   5      -1.421 -36.629  -6.267  1.00 26.13 LIG 0.01  A 
ATOM     10  CE1 PHE B   5      -2.596 -37.362  -6.116  1.00 23.59 LIG 0.00  A 
ATOM     11  CZ  PHE B   5      -3.450 -37.581  -7.225  1.00 25.19 LIG 0.00  A 
ATOM     12  CE2 PHE B   5      -3.064 -37.111  -8.461  1.00 26.30 LIG 0.00  A 
ATOM     13  CD2 PHE B   5      -1.891 -36.366  -8.588  1.00 27.99 LIG 0.01  A 
ENDBRANCH 7 8
ENDBRANCH 6 7
BRANCH 6 14
ATOM     14  C   PHE B   5       2.018 -35.119  -9.338  1.00 31.71 LIG 0.24  C 
ATOM     15  N   GLU B   6       1.396 -34.926 -10.505  1.00 34.73 LIG-0.35  N 
ATOM     16 H    GLU B   6       0.869 -35.506 -10.859  1.00 34.73 LIG 0.16  HD
ATOM     17 O    PHE B   5       3.114 -34.626  -9.056  1.00 30.66 LIG-0.27  OA
BRANCH 15 18
ATOM     18  CA  GLU B   6       1.549 -33.684 -11.316  1.00 38.89 LIG 0.18  C 
BRANCH 18 19
ATOM     19  CB  GLU B   6       2.291 -33.925 -12.637  1.00 39.10 LIG 0.04  C 
BRANCH 19 20
ATOM     20  CG  GLU B   6       1.447 -34.704 -13.681  1.00 43.96 LIG 0.12  C 
BRANCH 20 21
ATOM     21  CD  GLU B   6       0.575 -33.826 -14.591  1.00 49.39 LIG 0.17  C 
ATOM     22 OE1  GLU B   6      -0.576 -34.192 -14.904  1.00 53.88 LIG-0.65  OA
ATOM     23 OE2  GLU B   6       1.064 -32.757 -15.043  1.00 56.34 LIG-0.65  OA
ENDBRANCH 20 21
ENDBRANCH 19 20
ENDBRANCH 18 19
BRANCH 18 24
ATOM     24  C   GLU B   6       0.133 -33.080 -11.574  1.00 41.03 LIG 0.24  C 
ATOM     25 O    GLU B   6      -0.913 -33.776 -11.466  1.00 40.13 LIG-0.27  OA
ATOM     26  N   ALA B   7       0.125 -31.773 -11.867  1.00 43.76 LIG-0.35  N 
ATOM     27 H    ALA B   7       0.849 -31.325 -11.993  1.00 43.76 LIG 0.16  HD
BRANCH 26 28
ATOM     28  CA  ALA B   7      -1.115 -30.933 -12.012  1.00 45.80 LIG 0.16  C 
ATOM     29  CB  ALA B   7      -1.797 -31.198 -13.399  1.00 46.43 LIG 0.04  C 
BRANCH 28 30
ATOM     30  C   ALA B   7      -2.139 -31.188 -10.917  1.00 46.67 LIG 0.22  C 
ATOM     31 O    ALA B   7      -3.253 -30.639 -10.974  1.00 48.32 LIG-0.29  OA
ENDBRANCH 28 30
ENDBRANCH 26 28
ENDBRANCH 18 24
ENDBRANCH 15 18
ENDBRANCH 6 14
ENDBRANCH 4 6
ENDBRANCH 1 2
BRANCH 1 32
ATOM     32  CB  LEU B   4       2.115 -38.580  -4.407  1.00 24.11 LIG 0.04  C 
BRANCH 32 33
ATOM     33  CG  LEU B   4       2.365 -40.003  -3.857  1.00 25.40 LIG-0.02  C 
ATOM     34  CD2 LEU B   4       3.547 -40.566  -4.613  1.00 26.98 LIG 0.01  C 
ATOM     35  CD1 LEU B   4       1.155 -40.978  -3.882  1.00 25.06 LIG 0.01  C 
ENDBRANCH 32 33
ENDBRANCH 1 32
BRANCH 1 36
ATOM     36  N   LEU B   4       3.974 -37.240  -5.296  1.00 24.30 LIG-0.35  N 
ATOM     37  C   TRP B   3       5.244 -37.409  -5.655  1.00 25.24 LIG 0.24  C 
ATOM     38 O    TRP B   3       5.626 -38.374  -6.297  1.00 25.23 LIG-0.27  OA
ATOM     39 H    LEU B   4       3.682 -36.555  -4.867  1.00 24.30 LIG 0.16  HD
BRANCH 37 40
ATOM     40  CA  TRP B   3       6.249 -36.338  -5.186  1.00 26.39 LIG 0.18  C 
BRANCH 40 41
ATOM     41  CB  TRP B   3       6.955 -36.816  -3.916  1.00 26.78 LIG 0.07  C 
BRANCH 41 42
ATOM     42  CG  TRP B   3       7.218 -38.218  -3.974  1.00 25.50 LIG-0.03  A 
ATOM     43  CD1 TRP B   3       8.128 -38.839  -4.762  1.00 28.00 LIG 0.10  A 
ATOM     44  NE1 TRP B   3       8.075 -40.185  -4.567  1.00 26.39 LIG-0.36  N 
ATOM     45 HE1  TRP B   3       8.567 -40.767  -4.965  1.00 26.39 LIG 0.17  HD
ATOM     46  CE2 TRP B   3       7.117 -40.462  -3.638  1.00 23.90 LIG 0.04  A 
ATOM     47  CZ2 TRP B   3       6.698 -41.691  -3.126  1.00 23.10 LIG 0.03  A 
ATOM     48  CD2 TRP B   3       6.562 -39.236  -3.238  1.00 23.76 LIG-0.00  A 
ATOM     49  CH2 TRP B   3       5.725 -41.682  -2.183  1.00 22.34 LIG 0.00  A 
ATOM     50  CZ3 TRP B   3       5.129 -40.480  -1.763  1.00 25.34 LIG 0.00  A 
ATOM     51  CE3 TRP B   3       5.547 -39.237  -2.302  1.00 25.10 LIG 0.01  A 
ENDBRANCH 41 42
ENDBRANCH 40 41
BRANCH 40 52
ATOM     52  N   TRP B   3       5.556 -35.062  -4.973  1.00 27.54 LIG-0.35  N 
ATOM     53  C   ALA B   2       5.008 -34.456  -6.033  1.00 31.13 LIG 0.24  C 
ATOM     54 O    ALA B   2       5.094 -34.941  -7.155  1.00 30.30 LIG-0.27  OA
ATOM     55 H    TRP B   3       5.542 -34.769  -4.164  1.00 27.54 LIG 0.16  HD
BRANCH 53 56
ATOM     56  CA  ALA B   2       4.255 -33.135  -5.809  1.00 33.66 LIG 0.17  C 
ATOM     57  CB  ALA B   2       5.225 -31.928  -5.740  1.00 33.40 LIG 0.04  C 
BRANCH 56 58
ATOM     58  N   ALA B   2       3.404 -33.119  -4.614  1.00 35.64 LIG-0.35  N 
ATOM     59 H    ALA B   2       3.706 -32.650  -3.959  1.00 35.64 LIG 0.16  HD
ATOM     60  C   ALA B   1       2.258 -33.796  -4.593  1.00 39.08 LIG 0.25  C 
ATOM     61 O    ALA B   1       2.050 -34.712  -5.359  1.00 40.54 LIG-0.27  OA
BRANCH 60 62
ATOM     62  CA  ALA B   1       1.197 -33.442  -3.521  1.00 41.05 LIG 0.27  C 
ATOM     63  CB  ALA B   1       1.000 -34.615  -2.533  1.00 41.95 LIG 0.05  C 
BRANCH 62 64
ATOM     64  N   ALA B   1      -0.113 -33.066  -4.116  1.00 41.48 LIG-0.07  N 
ATOM     65 H3   ALA B   1      -0.738 -33.067  -3.483  1.00 41.48 LIG 0.28  HD
ATOM     66 H2   ALA B   1      -0.331 -33.653  -4.749  1.00 41.48 LIG 0.28  HD
ATOM     67 H1   ALA B   1      -0.055 -32.254  -4.473  1.00 41.48 LIG 0.28  HD
ENDBRANCH 62 64
ENDBRANCH 60 62
ENDBRANCH 56 58
ENDBRANCH 53 56
ENDBRANCH 40 52
ENDBRANCH 37 40
ENDBRANCH 1 36
TORSDOF 23
ENDMDL
MODEL 12
USER: ADFR SOLUTION from run 169
USER: SCORE 23.424846 LL:  -6.282 LR: -17.896 RR:   0.000 FEB: -11.035
USER: RMSD 5.876596
USER: SEED 168
USER: STATUS no improvement in best in 4 clusters for 5 generations
USER: GENES 25
USER: genes 0 Translation |==|  0.33919 0.43656 0.57129
USER: genes 1 Rotation |==|  0.69774 0.37094 0.45773 0.93870
USER: genes 2 Torsion [N]-CA--C-[N] |==|  0.99030
USER: genes 3 Torsion [C]-N--CA-[CB] |==|  0.81667
USER: genes 4 Torsion [N]-CA--CB-[CG] |==|  0.93767
USER: genes 5 Torsion [CA]-CB--CG-[CD1] |==|  0.86438
USER: genes 6 Torsion [N]-CA--C-[N] |==|  0.46067
USER: genes 7 Torsion [C]-N--CA-[C] |==|  0.84720
USER: genes 8 Torsion [N]-CA--CB-[CG] |==|  0.44376
USER: genes 9 Torsion [CA]-CB--CG-[CD] |==|  0.18928
USER: genes 10 Torsion [CB]-CG--CD-[OE2] |==|  0.80863
USER: genes 11 Torsion [N]-CA--C-[N] |==|  0.88602
USER: genes 12 Torsion [C]-N--CA-[CB] |==|  0.33797
USER: genes 13 Torsion [N]-CA--C-[O] |==|  0.09519
USER: genes 14 Torsion [C]-CA--CB-[CG] |==|  0.73713
USER: genes 15 Torsion [CA]-CB--CG-[CD1] |==|  0.27933
USER: genes 16 Torsion [C]-CA--N-[C] |==|  0.71481
USER: genes 17 Torsion [N]-C--CA-[N] |==|  0.98366
USER: genes 18 Torsion [C]-CA--CB-[CG] |==|  0.79199
USER: genes 19 Torsion [CA]-CB--CG-[CD1] |==|  0.13841
USER: genes 20 Torsion [C]-CA--N-[C] |==|  0.75747
USER: genes 21 Torsion [N]-C--CA-[N] |==|  0.29067
USER: genes 22 Torsion [C]-CA--N-[C] |==|  0.56908
USER: genes 23 Torsion [N]-C--CA-[N] |==|  0.82774
USER: genes 24 Torsion [C]-CA--N-[H3] |==|  0.65889
ROOT
ATOM      1  CA  LEU B   4      -0.192 -36.273  -8.246  1.00 25.55 LIG 0.18  C 
ENDROOT
BRANCH 1 2
ATOM      2  C   LEU B   4      -0.159 -34.941  -9.001  1.00 26.13 LIG 0.24  C 
ATOM      3 O    LEU B   4      -0.874 -34.803  -9.979  1.00 25.31 LIG-0.27  OA
ATOM      4  N   PHE B   5       0.658 -33.983  -8.533  1.00 26.68 LIG-0.35  N 
ATOM      5 H    PHE B   5       1.232 -34.103  -7.904  1.00 26.68 LIG 0.16  HD
BRANCH 4 6
ATOM      6  CA  PHE B   5       0.625 -32.620  -9.082  1.00 28.54 LIG 0.18  C 
BRANCH 6 7
ATOM      7  CB  PHE B   5       1.091 -32.581 -10.554  1.00 28.61 LIG 0.07  C 
BRANCH 7 8
ATOM      8  CG  PHE B   5       1.946 -33.723 -10.971  1.00 26.86 LIG-0.06  A 
ATOM      9  CD1 PHE B   5       3.028 -34.117 -10.217  1.00 26.13 LIG 0.01  A 
ATOM     10  CE1 PHE B   5       3.817 -35.196 -10.610  1.00 23.59 LIG 0.00  A 
ATOM     11  CZ  PHE B   5       3.504 -35.921 -11.786  1.00 25.19 LIG 0.00  A 
ATOM     12  CE2 PHE B   5       2.447 -35.499 -12.562  1.00 26.30 LIG 0.00  A 
ATOM     13  CD2 PHE B   5       1.660 -34.425 -12.143  1.00 27.99 LIG 0.01  A 
ENDBRANCH 7 8
ENDBRANCH 6 7
BRANCH 6 14
ATOM     14  C   PHE B   5      -0.761 -31.974  -9.002  1.00 31.71 LIG 0.24  C 
ATOM     15  N   GLU B   6      -0.822 -30.654  -9.203  1.00 34.73 LIG-0.35  N 
ATOM     16 H    GLU B   6      -0.162 -30.124  -9.050  1.00 34.73 LIG 0.16  HD
ATOM     17 O    PHE B   5      -1.735 -32.667  -8.696  1.00 30.66 LIG-0.27  OA
BRANCH 15 18
ATOM     18  CA  GLU B   6      -2.040 -29.961  -9.712  1.00 38.89 LIG 0.18  C 
BRANCH 18 19
ATOM     19  CB  GLU B   6      -1.833 -28.451  -9.889  1.00 39.10 LIG 0.04  C 
BRANCH 19 20
ATOM     20  CG  GLU B   6      -2.860 -27.801 -10.855  1.00 43.96 LIG 0.12  C 
BRANCH 20 21
ATOM     21  CD  GLU B   6      -4.305 -27.767 -10.334  1.00 49.39 LIG 0.17  C 
ATOM     22 OE1  GLU B   6      -4.824 -26.687  -9.987  1.00 53.88 LIG-0.65  OA
ATOM     23 OE2  GLU B   6      -4.931 -28.855 -10.226  1.00 56.34 LIG-0.65  OA
ENDBRANCH 20 21
ENDBRANCH 19 20
ENDBRANCH 18 19
BRANCH 18 24
ATOM     24  C   GLU B   6      -2.466 -30.628 -11.058  1.00 41.03 LIG 0.24  C 
ATOM     25 O    GLU B   6      -3.678 -30.814 -11.350  1.00 40.13 LIG-0.27  OA
ATOM     26  N   ALA B   7      -1.452 -30.934 -11.877  1.00 43.76 LIG-0.35  N 
ATOM     27 H    ALA B   7      -0.629 -30.854 -11.641  1.00 43.76 LIG 0.16  HD
BRANCH 26 28
ATOM     28  CA  ALA B   7      -1.609 -31.446 -13.283  1.00 45.80 LIG 0.16  C 
ATOM     29  CB  ALA B   7      -0.890 -30.491 -14.298  1.00 46.43 LIG 0.04  C 
BRANCH 28 30
ATOM     30  C   ALA B   7      -1.055 -32.851 -13.472  1.00 46.67 LIG 0.22  C 
ATOM     31 O    ALA B   7      -1.133 -33.674 -12.545  1.00 48.32 LIG-0.29  OA
ENDBRANCH 28 30
ENDBRANCH 26 28
ENDBRANCH 18 24
ENDBRANCH 15 18
ENDBRANCH 6 14
ENDBRANCH 4 6
ENDBRANCH 1 2
BRANCH 1 32
ATOM     32  CB  LEU B   4      -1.615 -36.528  -7.794  1.00 24.11 LIG 0.04  C 
BRANCH 32 33
ATOM     33  CG  LEU B   4      -1.911 -36.055  -6.352  1.00 25.40 LIG-0.02  C 
ATOM     34  CD2 LEU B   4      -2.659 -37.175  -5.665  1.00 26.98 LIG 0.01  C 
ATOM     35  CD1 LEU B   4      -2.655 -34.698  -6.206  1.00 25.06 LIG 0.01  C 
ENDBRANCH 32 33
ENDBRANCH 1 32
BRANCH 1 36
ATOM     36  N   LEU B   4       0.749 -36.343  -7.146  1.00 24.30 LIG-0.35  N 
ATOM     37  C   TRP B   3       1.893 -37.015  -7.252  1.00 25.24 LIG 0.24  C 
ATOM     38 O    TRP B   3       2.235 -37.576  -8.280  1.00 25.23 LIG-0.27  OA
ATOM     39 H    LEU B   4       0.502 -35.921  -6.438  1.00 24.30 LIG 0.16  HD
BRANCH 37 40
ATOM     40  CA  TRP B   3       2.773 -37.097  -5.989  1.00 26.39 LIG 0.18  C 
BRANCH 40 41
ATOM     41  CB  TRP B   3       2.912 -38.556  -5.553  1.00 26.78 LIG 0.07  C 
BRANCH 41 42
ATOM     42  CG  TRP B   3       1.712 -39.022  -4.936  1.00 25.50 LIG-0.03  A 
ATOM     43  CD1 TRP B   3       0.453 -38.906  -5.424  1.00 28.00 LIG 0.10  A 
ATOM     44  NE1 TRP B   3      -0.440 -39.440  -4.546  1.00 26.39 LIG-0.36  N 
ATOM     45 HE1  TRP B   3      -1.292 -39.472  -4.658  1.00 26.39 LIG 0.17  HD
ATOM     46  CE2 TRP B   3       0.233 -39.916  -3.462  1.00 23.90 LIG 0.04  A 
ATOM     47  CZ2 TRP B   3      -0.253 -40.537  -2.310  1.00 23.10 LIG 0.03  A 
ATOM     48  CD2 TRP B   3       1.599 -39.674  -3.683  1.00 23.76 LIG-0.00  A 
ATOM     49  CH2 TRP B   3       0.649 -40.937  -1.380  1.00 22.34 LIG 0.00  A 
ATOM     50  CZ3 TRP B   3       2.024 -40.701  -1.552  1.00 25.34 LIG 0.00  A 
ATOM     51  CE3 TRP B   3       2.508 -40.053  -2.716  1.00 25.10 LIG 0.01  A 
ENDBRANCH 41 42
ENDBRANCH 40 41
BRANCH 40 52
ATOM     52  N   TRP B   3       2.199 -36.265  -4.925  1.00 27.54 LIG-0.35  N 
ATOM     53  C   ALA B   2       2.540 -34.972  -4.880  1.00 31.13 LIG 0.24  C 
ATOM     54 O    ALA B   2       3.324 -34.494  -5.692  1.00 30.30 LIG-0.27  OA
ATOM     55 H    TRP B   3       1.665 -36.663  -4.380  1.00 27.54 LIG 0.16  HD
BRANCH 53 56
ATOM     56  CA  ALA B   2       1.916 -34.090  -3.786  1.00 33.66 LIG 0.17  C 
ATOM     57  CB  ALA B   2       1.353 -32.769  -4.367  1.00 33.40 LIG 0.04  C 
BRANCH 56 58
ATOM     58  N   ALA B   2       2.826 -33.764  -2.681  1.00 35.64 LIG-0.35  N 
ATOM     59 H    ALA B   2       3.662 -33.789  -2.880  1.00 35.64 LIG 0.16  HD
ATOM     60  C   ALA B   1       2.343 -33.459  -1.478  1.00 39.08 LIG 0.25  C 
ATOM     61 O    ALA B   1       1.225 -33.784  -1.143  1.00 40.54 LIG-0.27  OA
BRANCH 60 62
ATOM     62  CA  ALA B   1       3.259 -32.726  -0.467  1.00 41.05 LIG 0.27  C 
ATOM     63  CB  ALA B   1       3.700 -31.351  -1.018  1.00 41.95 LIG 0.05  C 
BRANCH 62 64
ATOM     64  N   ALA B   1       4.459 -33.525  -0.100  1.00 41.48 LIG-0.07  N 
ATOM     65 H3   ALA B   1       4.480 -33.641   0.782  1.00 41.48 LIG 0.28  HD
ATOM     66 H2   ALA B   1       5.194 -33.093  -0.360  1.00 41.48 LIG 0.28  HD
ATOM     67 H1   ALA B   1       4.423 -34.317  -0.502  1.00 41.48 LIG 0.28  HD
ENDBRANCH 62 64
ENDBRANCH 60 62
ENDBRANCH 56 58
ENDBRANCH 53 56
ENDBRANCH 40 52
ENDBRANCH 37 40
ENDBRANCH 1 36
TORSDOF 23
ENDMDL
MODEL 13
USER: ADFR SOLUTION from run 9
USER: SCORE 23.610601 LL:  -6.741 LR: -17.886 RR:   0.000 FEB: -11.025
USER: RMSD 7.406177
USER: SEED 418147
USER: STATUS no improvement in best in 4 clusters for 5 generations
USER: GENES 25
USER: genes 0 Translation |==|  0.42027 0.38298 0.60814
USER: genes 1 Rotation |==|  0.54156 0.24952 0.22124 0.82837
USER: genes 2 Torsion [N]-CA--C-[N] |==|  0.47778
USER: genes 3 Torsion [C]-N--CA-[CB] |==|  0.79823
USER: genes 4 Torsion [N]-CA--CB-[CG] |==|  0.97311
USER: genes 5 Torsion [CA]-CB--CG-[CD1] |==|  0.31418
USER: genes 6 Torsion [N]-CA--C-[N] |==|  0.20793
USER: genes 7 Torsion [C]-N--CA-[C] |==|  0.77360
USER: genes 8 Torsion [N]-CA--CB-[CG] |==|  0.59788
USER: genes 9 Torsion [CA]-CB--CG-[CD] |==|  0.37525
USER: genes 10 Torsion [CB]-CG--CD-[OE2] |==|  0.59980
USER: genes 11 Torsion [N]-CA--C-[N] |==|  0.90340
USER: genes 12 Torsion [C]-N--CA-[CB] |==|  0.84354
USER: genes 13 Torsion [N]-CA--C-[O] |==|  0.39472
USER: genes 14 Torsion [C]-CA--CB-[CG] |==|  0.24695
USER: genes 15 Torsion [CA]-CB--CG-[CD1] |==|  0.17582
USER: genes 16 Torsion [C]-CA--N-[C] |==|  0.62396
USER: genes 17 Torsion [N]-C--CA-[N] |==|  0.96093
USER: genes 18 Torsion [C]-CA--CB-[CG] |==|  0.86362
USER: genes 19 Torsion [CA]-CB--CG-[CD1] |==|  0.76460
USER: genes 20 Torsion [C]-CA--N-[C] |==|  0.69750
USER: genes 21 Torsion [N]-C--CA-[N] |==|  0.93066
USER: genes 22 Torsion [C]-CA--N-[C] |==|  0.76674
USER: genes 23 Torsion [N]-C--CA-[N] |==|  0.85465
USER: genes 24 Torsion [C]-CA--N-[H3] |==|  0.84196
ROOT
ATOM      1  CA  LEU B   4       1.389 -37.398  -7.417  1.00 25.55 LIG 0.18  C 
ENDROOT
BRANCH 1 2
ATOM      2  C   LEU B   4       2.677 -37.262  -8.236  1.00 26.13 LIG 0.24  C 
ATOM      3 O    LEU B   4       3.733 -37.595  -7.727  1.00 25.31 LIG-0.27  OA
ATOM      4  N   PHE B   5       2.568 -36.788  -9.487  1.00 26.68 LIG-0.35  N 
ATOM      5 H    PHE B   5       1.844 -36.464  -9.820  1.00 26.68 LIG 0.16  HD
BRANCH 4 6
ATOM      6  CA  PHE B   5       3.717 -36.791 -10.404  1.00 28.54 LIG 0.18  C 
BRANCH 6 7
ATOM      7  CB  PHE B   5       4.764 -35.723 -10.017  1.00 28.61 LIG 0.07  C 
BRANCH 7 8
ATOM      8  CG  PHE B   5       4.326 -34.768  -8.965  1.00 26.86 LIG-0.06  A 
ATOM      9  CD1 PHE B   5       4.916 -34.756  -7.722  1.00 26.13 LIG 0.01  A 
ATOM     10  CE1 PHE B   5       4.506 -33.849  -6.747  1.00 23.59 LIG 0.00  A 
ATOM     11  CZ  PHE B   5       3.486 -32.907  -7.028  1.00 25.19 LIG 0.00  A 
ATOM     12  CE2 PHE B   5       2.868 -32.949  -8.258  1.00 26.30 LIG 0.00  A 
ATOM     13  CD2 PHE B   5       3.302 -33.856  -9.227  1.00 27.99 LIG 0.01  A 
ENDBRANCH 7 8
ENDBRANCH 6 7
BRANCH 6 14
ATOM     14  C   PHE B   5       4.422 -38.147 -10.479  1.00 31.71 LIG 0.24  C 
ATOM     15  N   GLU B   6       3.804 -39.110 -11.170  1.00 34.73 LIG-0.35  N 
ATOM     16 H    GLU B   6       2.952 -39.134 -11.283  1.00 34.73 LIG 0.16  HD
ATOM     17 O    PHE B   5       5.475 -38.318  -9.858  1.00 30.66 LIG-0.27  OA
BRANCH 15 18
ATOM     18  CA  GLU B   6       4.526 -40.243 -11.818  1.00 38.89 LIG 0.18  C 
BRANCH 18 19
ATOM     19  CB  GLU B   6       3.640 -41.481 -12.005  1.00 39.10 LIG 0.04  C 
BRANCH 19 20
ATOM     20  CG  GLU B   6       4.409 -42.817 -11.829  1.00 43.96 LIG 0.12  C 
BRANCH 20 21
ATOM     21  CD  GLU B   6       3.687 -43.870 -10.973  1.00 49.39 LIG 0.17  C 
ATOM     22 OE1  GLU B   6       2.442 -43.952 -10.993  1.00 53.88 LIG-0.65  OA
ATOM     23 OE2  GLU B   6       4.376 -44.613 -10.225  1.00 56.34 LIG-0.65  OA
ENDBRANCH 20 21
ENDBRANCH 19 20
ENDBRANCH 18 19
BRANCH 18 24
ATOM     24  C   GLU B   6       5.097 -39.753 -13.185  1.00 41.03 LIG 0.24  C 
ATOM     25 O    GLU B   6       6.178 -40.204 -13.651  1.00 40.13 LIG-0.27  OA
ATOM     26  N   ALA B   7       4.327 -38.864 -13.828  1.00 43.76 LIG-0.35  N 
ATOM     27 H    ALA B   7       3.622 -38.524 -13.472  1.00 43.76 LIG 0.16  HD
BRANCH 26 28
ATOM     28  CA  ALA B   7       4.584 -38.355 -15.220  1.00 45.80 LIG 0.16  C 
ATOM     29  CB  ALA B   7       6.016 -37.723 -15.317  1.00 46.43 LIG 0.04  C 
BRANCH 28 30
ATOM     30  C   ALA B   7       4.464 -39.437 -16.283  1.00 46.67 LIG 0.22  C 
ATOM     31 O    ALA B   7       3.958 -39.167 -17.385  1.00 48.32 LIG-0.29  OA
ENDBRANCH 28 30
ENDBRANCH 26 28
ENDBRANCH 18 24
ENDBRANCH 15 18
ENDBRANCH 6 14
ENDBRANCH 4 6
ENDBRANCH 1 2
BRANCH 1 32
ATOM     32  CB  LEU B   4       0.796 -36.017  -7.232  1.00 24.11 LIG 0.04  C 
BRANCH 32 33
ATOM     33  CG  LEU B   4      -0.171 -35.591  -8.361  1.00 25.40 LIG-0.02  C 
ATOM     34  CD2 LEU B   4      -0.493 -34.131  -8.139  1.00 26.98 LIG 0.01  C 
ATOM     35  CD1 LEU B   4      -1.462 -36.441  -8.524  1.00 25.06 LIG 0.01  C 
ENDBRANCH 32 33
ENDBRANCH 1 32
BRANCH 1 36
ATOM     36  N   LEU B   4       1.572 -38.085  -6.154  1.00 24.30 LIG-0.35  N 
ATOM     37  C   TRP B   3       0.720 -39.020  -5.743  1.00 25.24 LIG 0.24  C 
ATOM     38 O    TRP B   3      -0.236 -39.382  -6.409  1.00 25.23 LIG-0.27  OA
ATOM     39 H    LEU B   4       2.265 -37.835  -5.709  1.00 24.30 LIG 0.16  HD
BRANCH 37 40
ATOM     40  CA  TRP B   3       0.963 -39.618  -4.342  1.00 26.39 LIG 0.18  C 
BRANCH 40 41
ATOM     41  CB  TRP B   3      -0.123 -39.134  -3.380  1.00 26.78 LIG 0.07  C 
BRANCH 41 42
ATOM     42  CG  TRP B   3      -0.285 -37.719  -3.463  1.00 25.50 LIG-0.03  A 
ATOM     43  CD1 TRP B   3       0.438 -36.781  -2.805  1.00 28.00 LIG 0.10  A 
ATOM     44  NE1 TRP B   3      -0.022 -35.536  -3.109  1.00 26.39 LIG-0.36  N 
ATOM     45 HE1  TRP B   3       0.294 -34.798  -2.801  1.00 26.39 LIG 0.17  HD
ATOM     46  CE2 TRP B   3      -1.064 -35.648  -3.979  1.00 23.90 LIG 0.04  A 
ATOM     47  CZ2 TRP B   3      -1.855 -34.655  -4.560  1.00 23.10 LIG 0.03  A 
ATOM     48  CD2 TRP B   3      -1.250 -37.018  -4.229  1.00 23.76 LIG-0.00  A 
ATOM     49  CH2 TRP B   3      -2.827 -35.044  -5.420  1.00 22.34 LIG 0.00  A 
ATOM     50  CZ3 TRP B   3      -3.059 -36.404  -5.687  1.00 25.34 LIG 0.00  A 
ATOM     51  CE3 TRP B   3      -2.265 -37.409  -5.079  1.00 25.10 LIG 0.01  A 
ENDBRANCH 41 42
ENDBRANCH 40 41
BRANCH 40 52
ATOM     52  N   TRP B   3       2.306 -39.256  -3.871  1.00 27.54 LIG-0.35  N 
ATOM     53  C   ALA B   2       3.234 -40.217  -3.810  1.00 31.13 LIG 0.24  C 
ATOM     54 O    ALA B   2       2.972 -41.373  -4.122  1.00 30.30 LIG-0.27  OA
ATOM     55 H    TRP B   3       2.421 -38.431  -3.656  1.00 27.54 LIG 0.16  HD
BRANCH 53 56
ATOM     56  CA  ALA B   2       4.650 -39.836  -3.347  1.00 33.66 LIG 0.17  C 
ATOM     57  CB  ALA B   2       4.872 -40.173  -1.851  1.00 33.40 LIG 0.04  C 
BRANCH 56 58
ATOM     58  N   ALA B   2       4.998 -38.427  -3.564  1.00 35.64 LIG-0.35  N 
ATOM     59 H    ALA B   2       4.881 -37.915  -2.884  1.00 35.64 LIG 0.16  HD
ATOM     60  C   ALA B   1       5.458 -38.021  -4.746  1.00 39.08 LIG 0.25  C 
ATOM     61 O    ALA B   1       5.267 -38.664  -5.755  1.00 40.54 LIG-0.27  OA
BRANCH 60 62
ATOM     62  CA  ALA B   1       6.200 -36.664  -4.835  1.00 41.05 LIG 0.27  C 
ATOM     63  CB  ALA B   1       7.587 -36.748  -4.159  1.00 41.95 LIG 0.05  C 
BRANCH 62 64
ATOM     64  N   ALA B   1       5.421 -35.546  -4.239  1.00 41.48 LIG-0.07  N 
ATOM     65 H3   ALA B   1       4.627 -35.491  -4.638  1.00 41.48 LIG 0.28  HD
ATOM     66 H2   ALA B   1       5.864 -34.782  -4.353  1.00 41.48 LIG 0.28  HD
ATOM     67 H1   ALA B   1       5.305 -35.695  -3.370  1.00 41.48 LIG 0.28  HD
ENDBRANCH 62 64
ENDBRANCH 60 62
ENDBRANCH 56 58
ENDBRANCH 53 56
ENDBRANCH 40 52
ENDBRANCH 37 40
ENDBRANCH 1 36
TORSDOF 23
ENDMDL
MODEL 14
USER: ADFR SOLUTION from run 139
USER: SCORE 23.591373 LL:  -7.618 LR: -17.838 RR:   0.000 FEB: -10.977
USER: RMSD 3.591927
USER: SEED 138
USER: STATUS no improvement in best in 2 clusters for 5 generations
USER: GENES 25
USER: genes 0 Translation |==|  0.48845 0.33140 0.71609
USER: genes 1 Rotation |==|  0.52203 0.52156 0.57748 0.99300
USER: genes 2 Torsion [N]-CA--C-[N] |==|  0.93578
USER: genes 3 Torsion [C]-N--CA-[CB] |==|  0.15213
USER: genes 4 Torsion [N]-CA--CB-[CG] |==|  0.22199
USER: genes 5 Torsion [CA]-CB--CG-[CD1] |==|  0.76088
USER: genes 6 Torsion [N]-CA--C-[N] |==|  0.38014
USER: genes 7 Torsion [C]-N--CA-[C] |==|  0.51667
USER: genes 8 Torsion [N]-CA--CB-[CG] |==|  0.63340
USER: genes 9 Torsion [CA]-CB--CG-[CD] |==|  0.81351
USER: genes 10 Torsion [CB]-CG--CD-[OE2] |==|  0.31718
USER: genes 11 Torsion [N]-CA--C-[N] |==|  0.48229
USER: genes 12 Torsion [C]-N--CA-[CB] |==|  0.53934
USER: genes 13 Torsion [N]-CA--C-[O] |==|  0.27314
USER: genes 14 Torsion [C]-CA--CB-[CG] |==|  0.17825
USER: genes 15 Torsion [CA]-CB--CG-[CD1] |==|  0.29938
USER: genes 16 Torsion [C]-CA--N-[C] |==|  0.76207
USER: genes 17 Torsion [N]-C--CA-[N] |==|  0.89782
USER: genes 18 Torsion [C]-CA--CB-[CG] |==|  0.11028
USER: genes 19 Torsion [CA]-CB--CG-[CD1] |==|  0.23252
USER: genes 20 Torsion [C]-CA--N-[C] |==|  0.82804
USER: genes 21 Torsion [N]-C--CA-[N] |==|  0.88967
USER: genes 22 Torsion [C]-CA--N-[C] |==|  0.80864
USER: genes 23 Torsion [N]-C--CA-[N] |==|  0.25508
USER: genes 24 Torsion [C]-CA--N-[H3] |==|  0.01518
ROOT
ATOM      1  CA  LEU B   4       2.719 -38.482  -4.988  1.00 25.55 LIG 0.18  C 
ENDROOT
BRANCH 1 2
ATOM      2  C   LEU B   4       1.793 -38.292  -6.194  1.00 26.13 LIG 0.24  C 
ATOM      3 O    LEU B   4       1.228 -39.268  -6.658  1.00 25.31 LIG-0.27  OA
ATOM      4  N   PHE B   5       1.646 -37.047  -6.673  1.00 26.68 LIG-0.35  N 
ATOM      5 H    PHE B   5       2.110 -36.371  -6.413  1.00 26.68 LIG 0.16  HD
BRANCH 4 6
ATOM      6  CA  PHE B   5       0.647 -36.743  -7.708  1.00 28.54 LIG 0.18  C 
BRANCH 6 7
ATOM      7  CB  PHE B   5      -0.770 -37.191  -7.288  1.00 28.61 LIG 0.07  C 
BRANCH 7 8
ATOM      8  CG  PHE B   5      -1.472 -36.266  -6.360  1.00 26.86 LIG-0.06  A 
ATOM      9  CD1 PHE B   5      -1.291 -36.349  -4.998  1.00 26.13 LIG 0.01  A 
ATOM     10  CE1 PHE B   5      -1.943 -35.470  -4.137  1.00 23.59 LIG 0.00  A 
ATOM     11  CZ  PHE B   5      -2.791 -34.459  -4.653  1.00 25.19 LIG 0.00  A 
ATOM     12  CE2 PHE B   5      -3.005 -34.405  -6.012  1.00 26.30 LIG 0.00  A 
ATOM     13  CD2 PHE B   5      -2.330 -35.285  -6.860  1.00 27.99 LIG 0.01  A 
ENDBRANCH 7 8
ENDBRANCH 6 7
BRANCH 6 14
ATOM     14  C   PHE B   5       0.591 -35.257  -8.070  1.00 31.71 LIG 0.24  C 
ATOM     15  N   GLU B   6       0.502 -34.956  -9.369  1.00 34.73 LIG-0.35  N 
ATOM     16 H    GLU B   6       0.792 -35.474  -9.992  1.00 34.73 LIG 0.16  HD
ATOM     17 O    PHE B   5       0.696 -34.411  -7.177  1.00 30.66 LIG-0.27  OA
BRANCH 15 18
ATOM     18  CA  GLU B   6      -0.108 -33.693  -9.876  1.00 38.89 LIG 0.18  C 
BRANCH 18 19
ATOM     19  CB  GLU B   6       0.648 -32.442  -9.412  1.00 39.10 LIG 0.04  C 
BRANCH 19 20
ATOM     20  CG  GLU B   6      -0.283 -31.342  -8.836  1.00 43.96 LIG 0.12  C 
BRANCH 20 21
ATOM     21  CD  GLU B   6      -1.224 -30.691  -9.861  1.00 49.39 LIG 0.17  C 
ATOM     22 OE1  GLU B   6      -0.765 -29.968 -10.768  1.00 53.88 LIG-0.65  OA
ATOM     23 OE2  GLU B   6      -2.465 -30.869  -9.736  1.00 56.34 LIG-0.65  OA
ENDBRANCH 20 21
ENDBRANCH 19 20
ENDBRANCH 18 19
BRANCH 18 24
ATOM     24  C   GLU B   6      -0.172 -33.762 -11.434  1.00 41.03 LIG 0.24  C 
ATOM     25 O    GLU B   6       0.319 -34.731 -12.075  1.00 40.13 LIG-0.27  OA
ATOM     26  N   ALA B   7      -0.822 -32.744 -12.013  1.00 43.76 LIG-0.35  N 
ATOM     27 H    ALA B   7      -1.101 -32.063 -11.568  1.00 43.76 LIG 0.16  HD
BRANCH 26 28
ATOM     28  CA  ALA B   7      -1.145 -32.657 -13.480  1.00 45.80 LIG 0.16  C 
ATOM     29  CB  ALA B   7      -1.580 -31.198 -13.859  1.00 46.43 LIG 0.04  C 
BRANCH 28 30
ATOM     30  C   ALA B   7       0.020 -33.057 -14.373  1.00 46.67 LIG 0.22  C 
ATOM     31 O    ALA B   7       0.068 -34.204 -14.848  1.00 48.32 LIG-0.29  OA
ENDBRANCH 28 30
ENDBRANCH 26 28
ENDBRANCH 18 24
ENDBRANCH 15 18
ENDBRANCH 6 14
ENDBRANCH 4 6
ENDBRANCH 1 2
BRANCH 1 32
ATOM     32  CB  LEU B   4       1.860 -38.631  -3.749  1.00 24.11 LIG 0.04  C 
BRANCH 32 33
ATOM     33  CG  LEU B   4       0.965 -39.892  -3.752  1.00 25.40 LIG-0.02  C 
ATOM     34  CD2 LEU B   4      -0.451 -39.428  -3.492  1.00 26.98 LIG 0.01  C 
ATOM     35  CD1 LEU B   4       1.378 -41.036  -2.785  1.00 25.06 LIG 0.01  C 
ENDBRANCH 32 33
ENDBRANCH 1 32
BRANCH 1 36
ATOM     36  N   LEU B   4       3.706 -37.432  -4.841  1.00 24.30 LIG-0.35  N 
ATOM     37  C   TRP B   3       4.869 -37.478  -5.487  1.00 25.24 LIG 0.24  C 
ATOM     38 O    TRP B   3       5.160 -38.375  -6.261  1.00 25.23 LIG-0.27  OA
ATOM     39 H    LEU B   4       3.474 -36.795  -4.312  1.00 24.30 LIG 0.16  HD
BRANCH 37 40
ATOM     40  CA  TRP B   3       5.880 -36.353  -5.184  1.00 26.39 LIG 0.18  C 
BRANCH 40 41
ATOM     41  CB  TRP B   3       6.716 -36.728  -3.960  1.00 26.78 LIG 0.07  C 
BRANCH 41 42
ATOM     42  CG  TRP B   3       7.055 -38.114  -3.977  1.00 25.50 LIG-0.03  A 
ATOM     43  CD1 TRP B   3       8.090 -38.687  -4.637  1.00 28.00 LIG 0.10  A 
ATOM     44  NE1 TRP B   3       8.079 -40.034  -4.445  1.00 26.39 LIG-0.36  N 
ATOM     45 HE1  TRP B   3       8.648 -40.590  -4.773  1.00 26.39 LIG 0.17  HD
ATOM     46  CE2 TRP B   3       7.024 -40.361  -3.648  1.00 23.90 LIG 0.04  A 
ATOM     47  CZ2 TRP B   3       6.604 -41.611  -3.190  1.00 23.10 LIG 0.03  A 
ATOM     48  CD2 TRP B   3       6.360 -39.166  -3.329  1.00 23.76 LIG-0.00  A 
ATOM     49  CH2 TRP B   3       5.517 -41.654  -2.382  1.00 22.34 LIG 0.00  A 
ATOM     50  CZ3 TRP B   3       4.812 -40.485  -2.048  1.00 25.34 LIG 0.00  A 
ATOM     51  CE3 TRP B   3       5.233 -39.221  -2.534  1.00 25.10 LIG 0.01  A 
ENDBRANCH 41 42
ENDBRANCH 40 41
BRANCH 40 52
ATOM     52  N   TRP B   3       5.170 -35.083  -4.987  1.00 27.54 LIG-0.35  N 
ATOM     53  C   ALA B   2       4.459 -34.592  -6.008  1.00 31.13 LIG 0.24  C 
ATOM     54 O    ALA B   2       4.413 -35.173  -7.086  1.00 30.30 LIG-0.27  OA
ATOM     55 H    TRP B   3       5.252 -34.720  -4.211  1.00 27.54 LIG 0.16  HD
BRANCH 53 56
ATOM     56  CA  ALA B   2       3.689 -33.278  -5.796  1.00 33.66 LIG 0.17  C 
ATOM     57  CB  ALA B   2       4.596 -32.041  -6.014  1.00 33.40 LIG 0.04  C 
BRANCH 56 58
ATOM     58  N   ALA B   2       3.046 -33.160  -4.482  1.00 35.64 LIG-0.35  N 
ATOM     59 H    ALA B   2       3.390 -32.568  -3.961  1.00 35.64 LIG 0.16  HD
ATOM     60  C   ALA B   1       2.010 -33.934  -4.165  1.00 39.08 LIG 0.25  C 
ATOM     61 O    ALA B   1       1.795 -34.974  -4.750  1.00 40.54 LIG-0.27  OA
BRANCH 60 62
ATOM     62  CA  ALA B   1       1.101 -33.523  -2.981  1.00 41.05 LIG 0.27  C 
ATOM     63  CB  ALA B   1       0.592 -34.769  -2.220  1.00 41.95 LIG 0.05  C 
BRANCH 62 64
ATOM     64  N   ALA B   1      -0.056 -32.693  -3.409  1.00 41.48 LIG-0.07  N 
ATOM     65 H3   ALA B   1      -0.070 -32.639  -4.297  1.00 41.48 LIG 0.28  HD
ATOM     66 H2   ALA B   1       0.021 -31.876  -3.064  1.00 41.48 LIG 0.28  HD
ATOM     67 H1   ALA B   1      -0.812 -33.066  -3.124  1.00 41.48 LIG 0.28  HD
ENDBRANCH 62 64
ENDBRANCH 60 62
ENDBRANCH 56 58
ENDBRANCH 53 56
ENDBRANCH 40 52
ENDBRANCH 37 40
ENDBRANCH 1 36
TORSDOF 23
ENDMDL
MODEL 15
USER: ADFR SOLUTION from run 49
USER: SCORE 20.850143 LL:  -6.059 LR: -17.815 RR:   0.000 FEB: -10.954
USER: RMSD 5.989528
USER: SEED 48
USER: STATUS no improvement in best in 9 clusters for 5 generations
USER: GENES 25
USER: genes 0 Translation |==|  0.31394 0.45473 0.56098
USER: genes 1 Rotation |==|  0.63873 0.37732 0.42009 0.95751
USER: genes 2 Torsion [N]-CA--C-[N] |==|  0.17714
USER: genes 3 Torsion [C]-N--CA-[CB] |==|  0.48333
USER: genes 4 Torsion [N]-CA--CB-[CG] |==|  0.05893
USER: genes 5 Torsion [CA]-CB--CG-[CD1] |==|  0.28421
USER: genes 6 Torsion [N]-CA--C-[N] |==|  0.30315
USER: genes 7 Torsion [C]-N--CA-[C] |==|  0.93244
USER: genes 8 Torsion [N]-CA--CB-[CG] |==|  0.70149
USER: genes 9 Torsion [CA]-CB--CG-[CD] |==|  0.19132
USER: genes 10 Torsion [CB]-CG--CD-[OE2] |==|  0.49887
USER: genes 11 Torsion [N]-CA--C-[N] |==|  0.35747
USER: genes 12 Torsion [C]-N--CA-[CB] |==|  0.18587
USER: genes 13 Torsion [N]-CA--C-[O] |==|  0.03339
USER: genes 14 Torsion [C]-CA--CB-[CG] |==|  0.60575
USER: genes 15 Torsion [CA]-CB--CG-[CD1] |==|  0.36559
USER: genes 16 Torsion [C]-CA--N-[C] |==|  0.71931
USER: genes 17 Torsion [N]-C--CA-[N] |==|  0.11916
USER: genes 18 Torsion [C]-CA--CB-[CG] |==|  0.54284
USER: genes 19 Torsion [CA]-CB--CG-[CD1] |==|  0.78733
USER: genes 20 Torsion [C]-CA--N-[C] |==|  0.15123
USER: genes 21 Torsion [N]-C--CA-[N] |==|  0.13654
USER: genes 22 Torsion [C]-CA--N-[C] |==|  0.78942
USER: genes 23 Torsion [N]-C--CA-[N] |==|  0.78470
USER: genes 24 Torsion [C]-CA--N-[H3] |==|  0.89838
ROOT
ATOM      1  CA  LEU B   4      -0.684 -35.892  -8.478  1.00 25.55 LIG 0.18  C 
ENDROOT
BRANCH 1 2
ATOM      2  C   LEU B   4      -0.539 -34.750  -9.489  1.00 26.13 LIG 0.24  C 
ATOM      3 O    LEU B   4      -1.388 -33.875  -9.512  1.00 25.31 LIG-0.27  OA
ATOM      4  N   PHE B   5       0.533 -34.770 -10.297  1.00 26.68 LIG-0.35  N 
ATOM      5 H    PHE B   5       1.084 -35.428 -10.352  1.00 26.68 LIG 0.16  HD
BRANCH 4 6
ATOM      6  CA  PHE B   5       0.849 -33.630 -11.170  1.00 28.54 LIG 0.18  C 
BRANCH 6 7
ATOM      7  CB  PHE B   5       2.201 -33.818 -11.893  1.00 28.61 LIG 0.07  C 
BRANCH 7 8
ATOM      8  CG  PHE B   5       2.672 -35.225 -11.988  1.00 26.86 LIG-0.06  A 
ATOM      9  CD1 PHE B   5       2.551 -35.940 -13.157  1.00 26.13 LIG 0.01  A 
ATOM     10  CE1 PHE B   5       3.006 -37.254 -13.240  1.00 23.59 LIG 0.00  A 
ATOM     11  CZ  PHE B   5       3.621 -37.870 -12.123  1.00 25.19 LIG 0.00  A 
ATOM     12  CE2 PHE B   5       3.702 -37.168 -10.940  1.00 26.30 LIG 0.00  A 
ATOM     13  CD2 PHE B   5       3.254 -35.848 -10.882  1.00 27.99 LIG 0.01  A 
ENDBRANCH 7 8
ENDBRANCH 6 7
BRANCH 6 14
ATOM     14  C   PHE B   5      -0.226 -33.368 -12.227  1.00 31.71 LIG 0.24  C 
ATOM     15  N   GLU B   6      -0.972 -32.271 -12.068  1.00 34.73 LIG-0.35  N 
ATOM     16 H    GLU B   6      -1.116 -31.907 -11.302  1.00 34.73 LIG 0.16  HD
ATOM     17 O    PHE B   5      -0.406 -34.194 -13.127  1.00 30.66 LIG-0.27  OA
BRANCH 15 18
ATOM     18  CA  GLU B   6      -1.633 -31.561 -13.201  1.00 38.89 LIG 0.18  C 
BRANCH 18 19
ATOM     19  CB  GLU B   6      -1.732 -30.047 -12.975  1.00 39.10 LIG 0.04  C 
BRANCH 19 20
ATOM     20  CG  GLU B   6      -3.174 -29.566 -12.664  1.00 43.96 LIG 0.12  C 
BRANCH 20 21
ATOM     21  CD  GLU B   6      -3.724 -30.015 -11.301  1.00 49.39 LIG 0.17  C 
ATOM     22 OE1  GLU B   6      -3.044 -30.753 -10.560  1.00 53.88 LIG-0.65  OA
ATOM     23 OE2  GLU B   6      -4.887 -29.657 -10.974  1.00 56.34 LIG-0.65  OA
ENDBRANCH 20 21
ENDBRANCH 19 20
ENDBRANCH 18 19
BRANCH 18 24
ATOM     24  C   GLU B   6      -0.850 -31.880 -14.513  1.00 41.03 LIG 0.24  C 
ATOM     25 O    GLU B   6       0.404 -31.772 -14.579  1.00 40.13 LIG-0.27  OA
ATOM     26  N   ALA B   7      -1.610 -32.315 -15.527  1.00 43.76 LIG-0.35  N 
ATOM     27 H    ALA B   7      -2.469 -32.329 -15.486  1.00 43.76 LIG 0.16  HD
BRANCH 26 28
ATOM     28  CA  ALA B   7      -1.079 -32.824 -16.840  1.00 45.80 LIG 0.16  C 
ATOM     29  CB  ALA B   7      -0.302 -34.170 -16.632  1.00 46.43 LIG 0.04  C 
BRANCH 28 30
ATOM     30  C   ALA B   7      -2.169 -33.055 -17.875  1.00 46.67 LIG 0.22  C 
ATOM     31 O    ALA B   7      -3.315 -32.617 -17.673  1.00 48.32 LIG-0.29  OA
ENDBRANCH 28 30
ENDBRANCH 26 28
ENDBRANCH 18 24
ENDBRANCH 15 18
ENDBRANCH 6 14
ENDBRANCH 4 6
ENDBRANCH 1 2
BRANCH 1 32
ATOM     32  CB  LEU B   4      -2.054 -35.789  -7.839  1.00 24.11 LIG 0.04  C 
BRANCH 32 33
ATOM     33  CG  LEU B   4      -2.073 -36.133  -6.332  1.00 25.40 LIG-0.02  C 
ATOM     34  CD2 LEU B   4      -2.643 -37.528  -6.206  1.00 26.98 LIG 0.01  C 
ATOM     35  CD1 LEU B   4      -2.808 -35.130  -5.401  1.00 25.06 LIG 0.01  C 
ENDBRANCH 32 33
ENDBRANCH 1 32
BRANCH 1 36
ATOM     36  N   LEU B   4       0.374 -35.933  -7.489  1.00 24.30 LIG-0.35  N 
ATOM     37  C   TRP B   3       1.385 -36.793  -7.590  1.00 25.24 LIG 0.24  C 
ATOM     38 O    TRP B   3       1.503 -37.565  -8.527  1.00 25.23 LIG-0.27  OA
ATOM     39 H    LEU B   4       0.288 -35.364  -6.850  1.00 24.30 LIG 0.16  HD
BRANCH 37 40
ATOM     40  CA  TRP B   3       2.405 -36.809  -6.434  1.00 26.39 LIG 0.18  C 
BRANCH 40 41
ATOM     41  CB  TRP B   3       3.277 -38.062  -6.535  1.00 26.78 LIG 0.07  C 
BRANCH 41 42
ATOM     42  CG  TRP B   3       3.977 -38.297  -5.314  1.00 25.50 LIG-0.03  A 
ATOM     43  CD1 TRP B   3       5.074 -37.636  -4.869  1.00 28.00 LIG 0.10  A 
ATOM     44  NE1 TRP B   3       5.482 -38.156  -3.680  1.00 26.39 LIG-0.36  N 
ATOM     45 HE1  TRP B   3       6.159 -37.884  -3.222  1.00 26.39 LIG 0.17  HD
ATOM     46  CE2 TRP B   3       4.649 -39.174  -3.330  1.00 23.90 LIG 0.04  A 
ATOM     47  CZ2 TRP B   3       4.674 -40.005  -2.208  1.00 23.10 LIG 0.03  A 
ATOM     48  CD2 TRP B   3       3.680 -39.283  -4.340  1.00 23.76 LIG-0.00  A 
ATOM     49  CH2 TRP B   3       3.700 -40.940  -2.093  1.00 22.34 LIG 0.00  A 
ATOM     50  CZ3 TRP B   3       2.720 -41.095  -3.088  1.00 25.34 LIG 0.00  A 
ATOM     51  CE3 TRP B   3       2.712 -40.261  -4.234  1.00 25.10 LIG 0.01  A 
ENDBRANCH 41 42
ENDBRANCH 40 41
BRANCH 40 52
ATOM     52  N   TRP B   3       1.702 -36.741  -5.147  1.00 27.54 LIG-0.35  N 
ATOM     53  C   ALA B   2       0.753 -37.649  -4.896  1.00 31.13 LIG 0.24  C 
ATOM     54 O    ALA B   2       0.463 -38.508  -5.721  1.00 30.30 LIG-0.27  OA
ATOM     55 H    TRP B   3       1.944 -36.108  -4.617  1.00 27.54 LIG 0.16  HD
BRANCH 53 56
ATOM     56  CA  ALA B   2       0.036 -37.599  -3.537  1.00 33.66 LIG 0.17  C 
ATOM     57  CB  ALA B   2      -1.147 -38.599  -3.477  1.00 33.40 LIG 0.04  C 
BRANCH 56 58
ATOM     58  N   ALA B   2      -0.459 -36.269  -3.163  1.00 35.64 LIG-0.35  N 
ATOM     59 H    ALA B   2      -1.307 -36.160  -3.248  1.00 35.64 LIG 0.16  HD
ATOM     60  C   ALA B   1       0.384 -35.335  -2.728  1.00 39.08 LIG 0.25  C 
ATOM     61 O    ALA B   1       1.571 -35.393  -2.964  1.00 40.54 LIG-0.27  OA
BRANCH 60 62
ATOM     62  CA  ALA B   1      -0.181 -34.115  -1.958  1.00 41.05 LIG 0.27  C 
ATOM     63  CB  ALA B   1      -1.207 -34.564  -0.892  1.00 41.95 LIG 0.05  C 
BRANCH 62 64
ATOM     64  N   ALA B   1      -0.806 -33.110  -2.859  1.00 41.48 LIG-0.07  N 
ATOM     65 H3   ALA B   1      -0.342 -33.061  -3.617  1.00 41.48 LIG 0.28  HD
ATOM     66 H2   ALA B   1      -0.806 -32.314  -2.460  1.00 41.48 LIG 0.28  HD
ATOM     67 H1   ALA B   1      -1.642 -33.351  -3.040  1.00 41.48 LIG 0.28  HD
ENDBRANCH 62 64
ENDBRANCH 60 62
ENDBRANCH 56 58
ENDBRANCH 53 56
ENDBRANCH 40 52
ENDBRANCH 37 40
ENDBRANCH 1 36
TORSDOF 23
ENDMDL
MODEL 16
USER: ADFR SOLUTION from run 197
USER: SCORE 21.359692 LL:  -5.641 LR: -17.770 RR:   0.000 FEB: -10.909
USER: RMSD 10.440881
USER: SEED 196
USER: STATUS no improvement in best in 8 clusters for 5 generations
USER: GENES 25
USER: genes 0 Translation |==|  0.33178 0.50332 0.55312
USER: genes 1 Rotation |==|  0.93930 0.64042 0.30699 0.50670
USER: genes 2 Torsion [N]-CA--C-[N] |==|  0.83409
USER: genes 3 Torsion [C]-N--CA-[CB] |==|  0.21613
USER: genes 4 Torsion [N]-CA--CB-[CG] |==|  0.72377
USER: genes 5 Torsion [CA]-CB--CG-[CD1] |==|  0.75976
USER: genes 6 Torsion [N]-CA--C-[N] |==|  0.42251
USER: genes 7 Torsion [C]-N--CA-[C] |==|  0.73534
USER: genes 8 Torsion [N]-CA--CB-[CG] |==|  0.40721
USER: genes 9 Torsion [CA]-CB--CG-[CD] |==|  0.20125
USER: genes 10 Torsion [CB]-CG--CD-[OE2] |==|  0.15975
USER: genes 11 Torsion [N]-CA--C-[N] |==|  0.26811
USER: genes 12 Torsion [C]-N--CA-[CB] |==|  0.12699
USER: genes 13 Torsion [N]-CA--C-[O] |==|  0.12783
USER: genes 14 Torsion [C]-CA--CB-[CG] |==|  0.10064
USER: genes 15 Torsion [CA]-CB--CG-[CD1] |==|  0.16746
USER: genes 16 Torsion [C]-CA--N-[C] |==|  0.78974
USER: genes 17 Torsion [N]-C--CA-[N] |==|  0.98117
USER: genes 18 Torsion [C]-CA--CB-[CG] |==|  0.80292
USER: genes 19 Torsion [CA]-CB--CG-[CD1] |==|  0.21013
USER: genes 20 Torsion [C]-CA--N-[C] |==|  0.66242
USER: genes 21 Torsion [N]-C--CA-[N] |==|  0.36550
USER: genes 22 Torsion [C]-CA--N-[C] |==|  0.72230
USER: genes 23 Torsion [N]-C--CA-[N] |==|  0.20661
USER: genes 24 Torsion [C]-CA--N-[H3] |==|  0.78911
ROOT
ATOM      1  CA  LEU B   4      -0.336 -34.871  -8.655  1.00 25.55 LIG 0.18  C 
ENDROOT
BRANCH 1 2
ATOM      2  C   LEU B   4       0.308 -35.197  -7.304  1.00 26.13 LIG 0.24  C 
ATOM      3 O    LEU B   4       0.257 -34.365  -6.414  1.00 25.31 LIG-0.27  OA
ATOM      4  N   PHE B   5       0.893 -36.398  -7.169  1.00 26.68 LIG-0.35  N 
ATOM      5 H    PHE B   5       1.017 -36.951  -7.817  1.00 26.68 LIG 0.16  HD
BRANCH 4 6
ATOM      6  CA  PHE B   5       1.378 -36.866  -5.863  1.00 28.54 LIG 0.18  C 
BRANCH 6 7
ATOM      7  CB  PHE B   5       0.224 -37.371  -4.969  1.00 28.61 LIG 0.07  C 
BRANCH 7 8
ATOM      8  CG  PHE B   5      -0.251 -36.398  -3.950  1.00 26.86 LIG-0.06  A 
ATOM      9  CD1 PHE B   5       0.351 -36.307  -2.716  1.00 26.13 LIG 0.01  A 
ATOM     10  CE1 PHE B   5      -0.094 -35.384  -1.772  1.00 23.59 LIG 0.00  A 
ATOM     11  CZ  PHE B   5      -1.164 -34.507  -2.077  1.00 25.19 LIG 0.00  A 
ATOM     12  CE2 PHE B   5      -1.793 -34.629  -3.296  1.00 26.30 LIG 0.00  A 
ATOM     13  CD2 PHE B   5      -1.323 -35.550  -4.234  1.00 27.99 LIG 0.01  A 
ENDBRANCH 7 8
ENDBRANCH 6 7
BRANCH 6 14
ATOM     14  C   PHE B   5       2.420 -37.982  -5.974  1.00 31.71 LIG 0.24  C 
ATOM     15  N   GLU B   6       3.309 -38.076  -4.981  1.00 34.73 LIG-0.35  N 
ATOM     16 H    GLU B   6       3.540 -37.408  -4.491  1.00 34.73 LIG 0.16  HD
ATOM     17 O    PHE B   5       2.443 -38.691  -6.984  1.00 30.66 LIG-0.27  OA
BRANCH 15 18
ATOM     18  CA  GLU B   6       3.995 -39.349  -4.617  1.00 38.89 LIG 0.18  C 
BRANCH 18 19
ATOM     19  CB  GLU B   6       5.466 -39.142  -4.233  1.00 39.10 LIG 0.04  C 
BRANCH 19 20
ATOM     20  CG  GLU B   6       5.959 -40.127  -3.140  1.00 43.96 LIG 0.12  C 
BRANCH 20 21
ATOM     21  CD  GLU B   6       6.150 -41.576  -3.614  1.00 49.39 LIG 0.17  C 
ATOM     22 OE1  GLU B   6       5.569 -42.512  -3.029  1.00 53.88 LIG-0.65  OA
ATOM     23 OE2  GLU B   6       6.936 -41.796  -4.574  1.00 56.34 LIG-0.65  OA
ENDBRANCH 20 21
ENDBRANCH 19 20
ENDBRANCH 18 19
BRANCH 18 24
ATOM     24  C   GLU B   6       3.205 -40.026  -3.453  1.00 41.03 LIG 0.24  C 
ATOM     25 O    GLU B   6       3.356 -39.667  -2.254  1.00 40.13 LIG-0.27  OA
ATOM     26  N   ALA B   7       2.335 -40.968  -3.840  1.00 43.76 LIG-0.35  N 
ATOM     27 H    ALA B   7       2.284 -41.241  -4.654  1.00 43.76 LIG 0.16  HD
BRANCH 26 28
ATOM     28  CA  ALA B   7       1.355 -41.658  -2.929  1.00 45.80 LIG 0.16  C 
ATOM     29  CB  ALA B   7       0.632 -40.613  -2.011  1.00 46.43 LIG 0.04  C 
BRANCH 28 30
ATOM     30  C   ALA B   7       0.297 -42.450  -3.682  1.00 46.67 LIG 0.22  C 
ATOM     31 O    ALA B   7       0.632 -43.191  -4.621  1.00 48.32 LIG-0.29  OA
ENDBRANCH 28 30
ENDBRANCH 26 28
ENDBRANCH 18 24
ENDBRANCH 15 18
ENDBRANCH 6 14
ENDBRANCH 4 6
ENDBRANCH 1 2
BRANCH 1 32
ATOM     32  CB  LEU B   4      -1.506 -35.811  -8.862  1.00 24.11 LIG 0.04  C 
BRANCH 32 33
ATOM     33  CG  LEU B   4      -2.284 -36.142  -7.567  1.00 25.40 LIG-0.02  C 
ATOM     34  CD2 LEU B   4      -3.312 -37.191  -7.926  1.00 26.98 LIG 0.01  C 
ATOM     35  CD1 LEU B   4      -2.930 -34.941  -6.821  1.00 25.06 LIG 0.01  C 
ENDBRANCH 32 33
ENDBRANCH 1 32
BRANCH 1 36
ATOM     36  N   LEU B   4       0.592 -34.906  -9.767  1.00 24.30 LIG-0.35  N 
ATOM     37  C   TRP B   3       1.466 -33.924  -9.972  1.00 25.24 LIG 0.24  C 
ATOM     38 O    TRP B   3       1.566 -32.963  -9.228  1.00 25.23 LIG-0.27  OA
ATOM     39 H    LEU B   4       0.524 -35.603 -10.266  1.00 24.30 LIG 0.16  HD
BRANCH 37 40
ATOM     40  CA  TRP B   3       2.342 -34.024 -11.238  1.00 26.39 LIG 0.18  C 
BRANCH 40 41
ATOM     41  CB  TRP B   3       2.030 -32.854 -12.172  1.00 26.78 LIG 0.07  C 
BRANCH 41 42
ATOM     42  CG  TRP B   3       0.740 -33.002 -12.764  1.00 25.50 LIG-0.03  A 
ATOM     43  CD1 TRP B   3      -0.455 -32.790 -12.164  1.00 28.00 LIG 0.10  A 
ATOM     44  NE1 TRP B   3      -1.469 -33.061 -13.031  1.00 26.39 LIG-0.36  N 
ATOM     45 HE1  TRP B   3      -2.309 -32.992 -12.855  1.00 26.39 LIG 0.17  HD
ATOM     46  CE2 TRP B   3      -0.941 -33.458 -14.221  1.00 23.90 LIG 0.04  A 
ATOM     47  CZ2 TRP B   3      -1.583 -33.846 -15.399  1.00 23.10 LIG 0.03  A 
ATOM     48  CD2 TRP B   3       0.456 -33.424 -14.087  1.00 23.76 LIG-0.00  A 
ATOM     49  CH2 TRP B   3      -0.808 -34.180 -16.460  1.00 22.34 LIG 0.00  A 
ATOM     50  CZ3 TRP B   3       0.594 -34.175 -16.366  1.00 25.34 LIG 0.00  A 
ATOM     51  CE3 TRP B   3       1.239 -33.799 -15.161  1.00 25.10 LIG 0.01  A 
ENDBRANCH 41 42
ENDBRANCH 40 41
BRANCH 40 52
ATOM     52  N   TRP B   3       2.124 -35.317 -11.896  1.00 27.54 LIG-0.35  N 
ATOM     53  C   ALA B   2       3.177 -36.123 -12.072  1.00 31.13 LIG 0.24  C 
ATOM     54 O    ALA B   2       4.299 -35.787 -11.710  1.00 30.30 LIG-0.27  OA
ATOM     55 H    TRP B   3       1.315 -35.488 -12.136  1.00 27.54 LIG 0.16  HD
BRANCH 53 56
ATOM     56  CA  ALA B   2       2.947 -37.491 -12.733  1.00 33.66 LIG 0.17  C 
ATOM     57  CB  ALA B   2       2.993 -38.643 -11.697  1.00 33.40 LIG 0.04  C 
BRANCH 56 58
ATOM     58  N   ALA B   2       3.883 -37.803 -13.819  1.00 35.64 LIG-0.35  N 
ATOM     59 H    ALA B   2       4.654 -38.086 -13.564  1.00 35.64 LIG 0.16  HD
ATOM     60  C   ALA B   1       3.519 -37.644 -15.090  1.00 39.08 LIG 0.25  C 
ATOM     61 O    ALA B   1       2.598 -36.919 -15.399  1.00 40.54 LIG-0.27  OA
BRANCH 60 62
ATOM     62  CA  ALA B   1       4.335 -38.354 -16.198  1.00 41.05 LIG 0.27  C 
ATOM     63  CB  ALA B   1       4.055 -37.721 -17.580  1.00 41.95 LIG 0.05  C 
BRANCH 62 64
ATOM     64  N   ALA B   1       4.069 -39.816 -16.257  1.00 41.48 LIG-0.07  N 
ATOM     65 H3   ALA B   1       4.488 -40.221 -15.585  1.00 41.48 LIG 0.28  HD
ATOM     66 H2   ALA B   1       4.366 -40.141 -17.031  1.00 41.48 LIG 0.28  HD
ATOM     67 H1   ALA B   1       3.194 -39.962 -16.190  1.00 41.48 LIG 0.28  HD
ENDBRANCH 62 64
ENDBRANCH 60 62
ENDBRANCH 56 58
ENDBRANCH 53 56
ENDBRANCH 40 52
ENDBRANCH 37 40
ENDBRANCH 1 36
TORSDOF 23
ENDMDL
MODEL 17
USER: ADFR SOLUTION from run 186
USER: SCORE 22.217503 LL:  -6.482 LR: -17.759 RR:   0.000 FEB: -10.899
USER: RMSD 4.962885
USER: SEED 185
USER: STATUS no improvement in best in 6 clusters for 5 generations
USER: GENES 25
USER: genes 0 Translation |==|  0.38469 0.42423 0.61540
USER: genes 1 Rotation |==|  0.68561 0.39993 0.30972 0.91149
USER: genes 2 Torsion [N]-CA--C-[N] |==|  0.34905
USER: genes 3 Torsion [C]-N--CA-[CB] |==|  0.20000
USER: genes 4 Torsion [N]-CA--CB-[CG] |==|  0.09183
USER: genes 5 Torsion [CA]-CB--CG-[CD1] |==|  0.16896
USER: genes 6 Torsion [N]-CA--C-[N] |==|  0.11810
USER: genes 7 Torsion [C]-N--CA-[C] |==|  0.19277
USER: genes 8 Torsion [N]-CA--CB-[CG] |==|  0.61951
USER: genes 9 Torsion [CA]-CB--CG-[CD] |==|  0.21383
USER: genes 10 Torsion [CB]-CG--CD-[OE2] |==|  0.58964
USER: genes 11 Torsion [N]-CA--C-[N] |==|  0.48057
USER: genes 12 Torsion [C]-N--CA-[CB] |==|  0.53793
USER: genes 13 Torsion [N]-CA--C-[O] |==|  0.57449
USER: genes 14 Torsion [C]-CA--CB-[CG] |==|  0.23009
USER: genes 15 Torsion [CA]-CB--CG-[CD1] |==|  0.34334
USER: genes 16 Torsion [C]-CA--N-[C] |==|  0.56553
USER: genes 17 Torsion [N]-C--CA-[N] |==|  0.03281
USER: genes 18 Torsion [C]-CA--CB-[CG] |==|  0.58071
USER: genes 19 Torsion [CA]-CB--CG-[CD1] |==|  0.34041
USER: genes 20 Torsion [C]-CA--N-[C] |==|  0.69597
USER: genes 21 Torsion [N]-C--CA-[N] |==|  0.86206
USER: genes 22 Torsion [C]-CA--N-[C] |==|  0.85838
USER: genes 23 Torsion [N]-C--CA-[N] |==|  0.99947
USER: genes 24 Torsion [C]-CA--N-[H3] |==|  0.93797
ROOT
ATOM      1  CA  LEU B   4       0.696 -36.532  -7.253  1.00 25.55 LIG 0.18  C 
ENDROOT
BRANCH 1 2
ATOM      2  C   LEU B   4       1.192 -35.220  -7.869  1.00 26.13 LIG 0.24  C 
ATOM      3 O    LEU B   4       1.756 -34.412  -7.150  1.00 25.31 LIG-0.27  OA
ATOM      4  N   PHE B   5       0.984 -35.033  -9.182  1.00 26.68 LIG-0.35  N 
ATOM      5 H    PHE B   5       0.506 -35.552  -9.674  1.00 26.68 LIG 0.16  HD
BRANCH 4 6
ATOM      6  CA  PHE B   5       1.579 -33.891  -9.891  1.00 28.54 LIG 0.18  C 
BRANCH 6 7
ATOM      7  CB  PHE B   5       3.104 -34.059 -10.073  1.00 28.61 LIG 0.07  C 
BRANCH 7 8
ATOM      8  CG  PHE B   5       3.563 -35.461 -10.255  1.00 26.86 LIG-0.06  A 
ATOM      9  CD1 PHE B   5       3.131 -36.221 -11.317  1.00 26.13 LIG 0.01  A 
ATOM     10  CE1 PHE B   5       3.576 -37.530 -11.485  1.00 23.59 LIG 0.00  A 
ATOM     11  CZ  PHE B   5       4.502 -38.095 -10.573  1.00 25.19 LIG 0.00  A 
ATOM     12  CE2 PHE B   5       4.899 -37.347  -9.487  1.00 26.30 LIG 0.00  A 
ATOM     13  CD2 PHE B   5       4.453 -36.033  -9.344  1.00 27.99 LIG 0.01  A 
ENDBRANCH 7 8
ENDBRANCH 6 7
BRANCH 6 14
ATOM     14  C   PHE B   5       0.957 -33.650 -11.269  1.00 31.71 LIG 0.24  C 
ATOM     15  N   GLU B   6      -0.374 -33.747 -11.354  1.00 34.73 LIG-0.35  N 
ATOM     16 H    GLU B   6      -0.845 -34.228 -10.818  1.00 34.73 LIG 0.16  HD
ATOM     17 O    PHE B   5       1.692 -33.448 -12.239  1.00 30.66 LIG-0.27  OA
BRANCH 15 18
ATOM     18  CA  GLU B   6      -1.181 -33.033 -12.384  1.00 38.89 LIG 0.18  C 
BRANCH 18 19
ATOM     19  CB  GLU B   6      -0.918 -31.522 -12.402  1.00 39.10 LIG 0.04  C 
BRANCH 19 20
ATOM     20  CG  GLU B   6      -2.212 -30.676 -12.535  1.00 43.96 LIG 0.12  C 
BRANCH 20 21
ATOM     21  CD  GLU B   6      -3.038 -30.551 -11.246  1.00 49.39 LIG 0.17  C 
ATOM     22 OE1  GLU B   6      -2.476 -30.583 -10.132  1.00 53.88 LIG-0.65  OA
ATOM     23 OE2  GLU B   6      -4.291 -30.461 -11.341  1.00 56.34 LIG-0.65  OA
ENDBRANCH 20 21
ENDBRANCH 19 20
ENDBRANCH 18 19
BRANCH 18 24
ATOM     24  C   GLU B   6      -0.882 -33.668 -13.778  1.00 41.03 LIG 0.24  C 
ATOM     25 O    GLU B   6      -0.009 -34.566 -13.923  1.00 40.13 LIG-0.27  OA
ATOM     26  N   ALA B   7      -1.653 -33.217 -14.777  1.00 43.76 LIG-0.35  N 
ATOM     27 H    ALA B   7      -2.204 -32.565 -14.674  1.00 43.76 LIG 0.16  HD
BRANCH 26 28
ATOM     28  CA  ALA B   7      -1.660 -33.774 -16.174  1.00 45.80 LIG 0.16  C 
ATOM     29  CB  ALA B   7      -2.410 -32.800 -17.148  1.00 46.43 LIG 0.04  C 
BRANCH 28 30
ATOM     30  C   ALA B   7      -0.264 -34.022 -16.725  1.00 46.67 LIG 0.22  C 
ATOM     31 O    ALA B   7      -0.070 -33.991 -17.952  1.00 48.32 LIG-0.29  OA
ENDBRANCH 28 30
ENDBRANCH 26 28
ENDBRANCH 18 24
ENDBRANCH 15 18
ENDBRANCH 6 14
ENDBRANCH 4 6
ENDBRANCH 1 2
BRANCH 1 32
ATOM     32  CB  LEU B   4      -0.494 -36.222  -6.368  1.00 24.11 LIG 0.04  C 
BRANCH 32 33
ATOM     33  CG  LEU B   4      -1.834 -36.108  -7.133  1.00 25.40 LIG-0.02  C 
ATOM     34  CD2 LEU B   4      -2.247 -34.654  -7.084  1.00 26.98 LIG 0.01  C 
ATOM     35  CD1 LEU B   4      -2.981 -37.044  -6.661  1.00 25.06 LIG 0.01  C 
ENDBRANCH 32 33
ENDBRANCH 1 32
BRANCH 1 36
ATOM     36  N   LEU B   4       1.723 -37.268  -6.544  1.00 24.30 LIG-0.35  N 
ATOM     37  C   TRP B   3       1.629 -38.582  -6.355  1.00 25.24 LIG 0.24  C 
ATOM     38 O    TRP B   3       0.705 -39.248  -6.791  1.00 25.23 LIG-0.27  OA
ATOM     39 H    LEU B   4       2.379 -36.787  -6.266  1.00 24.30 LIG 0.16  HD
BRANCH 37 40
ATOM     40  CA  TRP B   3       2.735 -39.245  -5.509  1.00 26.39 LIG 0.18  C 
BRANCH 40 41
ATOM     41  CB  TRP B   3       2.104 -40.210  -4.503  1.00 26.78 LIG 0.07  C 
BRANCH 41 42
ATOM     42  CG  TRP B   3       2.908 -40.322  -3.329  1.00 25.50 LIG-0.03  A 
ATOM     43  CD1 TRP B   3       2.521 -40.068  -2.056  1.00 28.00 LIG 0.10  A 
ATOM     44  NE1 TRP B   3       3.565 -40.255  -1.203  1.00 26.39 LIG-0.36  N 
ATOM     45 HE1  TRP B   3       3.538 -40.149  -0.350  1.00 26.39 LIG 0.17  HD
ATOM     46  CE2 TRP B   3       4.659 -40.638  -1.918  1.00 23.90 LIG 0.04  A 
ATOM     47  CZ2 TRP B   3       5.953 -40.933  -1.484  1.00 23.10 LIG 0.03  A 
ATOM     48  CD2 TRP B   3       4.273 -40.698  -3.267  1.00 23.76 LIG-0.00  A 
ATOM     49  CH2 TRP B   3       6.860 -41.313  -2.415  1.00 22.34 LIG 0.00  A 
ATOM     50  CZ3 TRP B   3       6.522 -41.372  -3.778  1.00 25.34 LIG 0.00  A 
ATOM     51  CE3 TRP B   3       5.212 -41.053  -4.215  1.00 25.10 LIG 0.01  A 
ENDBRANCH 41 42
ENDBRANCH 40 41
BRANCH 40 52
ATOM     52  N   TRP B   3       3.538 -38.214  -4.840  1.00 27.54 LIG-0.35  N 
ATOM     53  C   ALA B   2       4.792 -38.019  -5.262  1.00 31.13 LIG 0.24  C 
ATOM     54 O    ALA B   2       5.268 -38.691  -6.169  1.00 30.30 LIG-0.27  OA
ATOM     55 H    TRP B   3       3.149 -37.786  -4.203  1.00 27.54 LIG 0.16  HD
BRANCH 53 56
ATOM     56  CA  ALA B   2       5.627 -36.919  -4.585  1.00 33.66 LIG 0.17  C 
ATOM     57  CB  ALA B   2       6.087 -37.341  -3.167  1.00 33.40 LIG 0.04  C 
BRANCH 56 58
ATOM     58  N   ALA B   2       4.950 -35.620  -4.489  1.00 35.64 LIG-0.35  N 
ATOM     59 H    ALA B   2       4.950 -35.268  -3.704  1.00 35.64 LIG 0.16  HD
ATOM     60  C   ALA B   1       4.394 -35.068  -5.565  1.00 39.08 LIG 0.25  C 
ATOM     61 O    ALA B   1       4.095 -35.731  -6.535  1.00 40.54 LIG-0.27  OA
BRANCH 60 62
ATOM     62  CA  ALA B   1       4.066 -33.554  -5.547  1.00 41.05 LIG 0.27  C 
ATOM     63  CB  ALA B   1       4.766 -32.825  -6.717  1.00 41.95 LIG 0.05  C 
BRANCH 62 64
ATOM     64  N   ALA B   1       4.436 -32.904  -4.262  1.00 41.48 LIG-0.07  N 
ATOM     65 H3   ALA B   1       4.478 -33.519  -3.620  1.00 41.48 LIG 0.28  HD
ATOM     66 H2   ALA B   1       3.822 -32.296  -4.049  1.00 41.48 LIG 0.28  HD
ATOM     67 H1   ALA B   1       5.228 -32.509  -4.345  1.00 41.48 LIG 0.28  HD
ENDBRANCH 62 64
ENDBRANCH 60 62
ENDBRANCH 56 58
ENDBRANCH 53 56
ENDBRANCH 40 52
ENDBRANCH 37 40
ENDBRANCH 1 36
TORSDOF 23
ENDMDL
MODEL 18
USER: ADFR SOLUTION from run 111
USER: SCORE 22.841887 LL:  -7.752 LR: -17.707 RR:   0.000 FEB: -10.846
USER: RMSD 4.916840
USER: SEED 110
USER: STATUS no improvement in best in 2 clusters for 5 generations
USER: GENES 25
USER: genes 0 Translation |==|  0.36090 0.28425 0.70642
USER: genes 1 Rotation |==|  0.65991 0.57284 0.38084 0.95269
USER: genes 2 Torsion [N]-CA--C-[N] |==|  0.50398
USER: genes 3 Torsion [C]-N--CA-[CB] |==|  0.75795
USER: genes 4 Torsion [N]-CA--CB-[CG] |==|  0.10277
USER: genes 5 Torsion [CA]-CB--CG-[CD1] |==|  0.27764
USER: genes 6 Torsion [N]-CA--C-[N] |==|  0.56019
USER: genes 7 Torsion [C]-N--CA-[C] |==|  0.90833
USER: genes 8 Torsion [N]-CA--CB-[CG] |==|  0.62995
USER: genes 9 Torsion [CA]-CB--CG-[CD] |==|  0.38220
USER: genes 10 Torsion [CB]-CG--CD-[OE2] |==|  0.66429
USER: genes 11 Torsion [N]-CA--C-[N] |==|  0.32567
USER: genes 12 Torsion [C]-N--CA-[CB] |==|  0.79459
USER: genes 13 Torsion [N]-CA--C-[O] |==|  0.17778
USER: genes 14 Torsion [C]-CA--CB-[CG] |==|  0.56381
USER: genes 15 Torsion [CA]-CB--CG-[CD1] |==|  0.43855
USER: genes 16 Torsion [C]-CA--N-[C] |==|  0.16667
USER: genes 17 Torsion [N]-C--CA-[N] |==|  0.35757
USER: genes 18 Torsion [C]-CA--CB-[CG] |==|  0.46530
USER: genes 19 Torsion [CA]-CB--CG-[CD1] |==|  0.72242
USER: genes 20 Torsion [C]-CA--N-[C] |==|  0.63824
USER: genes 21 Torsion [N]-C--CA-[N] |==|  0.00338
USER: genes 22 Torsion [C]-CA--N-[C] |==|  0.80798
USER: genes 23 Torsion [N]-C--CA-[N] |==|  0.77696
USER: genes 24 Torsion [C]-CA--N-[H3] |==|  0.70426
ROOT
ATOM      1  CA  LEU B   4       0.232 -39.472  -5.205  1.00 25.55 LIG 0.18  C 
ENDROOT
BRANCH 1 2
ATOM      2  C   LEU B   4      -0.355 -38.149  -5.709  1.00 26.13 LIG 0.24  C 
ATOM      3 O    LEU B   4       0.406 -37.287  -6.114  1.00 25.31 LIG-0.27  OA
ATOM      4  N   PHE B   5      -1.690 -38.013  -5.683  1.00 26.68 LIG-0.35  N 
ATOM      5 H    PHE B   5      -2.226 -38.575  -5.313  1.00 26.68 LIG 0.16  HD
BRANCH 4 6
ATOM      6  CA  PHE B   5      -2.349 -36.857  -6.308  1.00 28.54 LIG 0.18  C 
BRANCH 6 7
ATOM      7  CB  PHE B   5      -2.447 -35.658  -5.339  1.00 28.61 LIG 0.07  C 
BRANCH 7 8
ATOM      8  CG  PHE B   5      -1.274 -35.480  -4.442  1.00 26.86 LIG-0.06  A 
ATOM      9  CD1 PHE B   5      -0.299 -34.550  -4.721  1.00 26.13 LIG 0.01  A 
ATOM     10  CE1 PHE B   5       0.791 -34.381  -3.869  1.00 23.59 LIG 0.00  A 
ATOM     11  CZ  PHE B   5       0.901 -35.154  -2.686  1.00 25.19 LIG 0.00  A 
ATOM     12  CE2 PHE B   5      -0.054 -36.114  -2.432  1.00 26.30 LIG 0.00  A 
ATOM     13  CD2 PHE B   5      -1.145 -36.257  -3.290  1.00 27.99 LIG 0.01  A 
ENDBRANCH 7 8
ENDBRANCH 6 7
BRANCH 6 14
ATOM     14  C   PHE B   5      -1.650 -36.384  -7.584  1.00 31.71 LIG 0.24  C 
ATOM     15  N   GLU B   6      -1.880 -35.124  -7.966  1.00 34.73 LIG-0.35  N 
ATOM     16 H    GLU B   6      -2.596 -34.694  -7.760  1.00 34.73 LIG 0.16  HD
ATOM     17 O    PHE B   5      -0.971 -37.184  -8.235  1.00 30.66 LIG-0.27  OA
BRANCH 15 18
ATOM     18  CA  GLU B   6      -0.920 -34.331  -8.787  1.00 38.89 LIG 0.18  C 
BRANCH 18 19
ATOM     19  CB  GLU B   6      -1.103 -32.818  -8.615  1.00 39.10 LIG 0.04  C 
BRANCH 19 20
ATOM     20  CG  GLU B   6      -1.125 -32.046  -9.962  1.00 43.96 LIG 0.12  C 
BRANCH 20 21
ATOM     21  CD  GLU B   6      -2.195 -30.947 -10.059  1.00 49.39 LIG 0.17  C 
ATOM     22 OE1  GLU B   6      -2.227 -30.025  -9.220  1.00 53.88 LIG-0.65  OA
ATOM     23 OE2  GLU B   6      -3.056 -31.026 -10.975  1.00 56.34 LIG-0.65  OA
ENDBRANCH 20 21
ENDBRANCH 19 20
ENDBRANCH 18 19
BRANCH 18 24
ATOM     24  C   GLU B   6       0.532 -34.764  -8.413  1.00 41.03 LIG 0.24  C 
ATOM     25 O    GLU B   6       0.980 -34.636  -7.241  1.00 40.13 LIG-0.27  OA
ATOM     26  N   ALA B   7       1.228 -35.316  -9.415  1.00 43.76 LIG-0.35  N 
ATOM     27 H    ALA B   7       0.930 -35.344 -10.222  1.00 43.76 LIG 0.16  HD
BRANCH 26 28
ATOM     28  CA  ALA B   7       2.588 -35.943  -9.272  1.00 45.80 LIG 0.16  C 
ATOM     29  CB  ALA B   7       3.685 -34.837  -9.090  1.00 46.43 LIG 0.04  C 
BRANCH 28 30
ATOM     30  C   ALA B   7       2.680 -36.908  -8.100  1.00 46.67 LIG 0.22  C 
ATOM     31 O    ALA B   7       1.989 -37.941  -8.095  1.00 48.32 LIG-0.29  OA
ENDBRANCH 28 30
ENDBRANCH 26 28
ENDBRANCH 18 24
ENDBRANCH 15 18
ENDBRANCH 6 14
ENDBRANCH 4 6
ENDBRANCH 1 2
BRANCH 1 32
ATOM     32  CB  LEU B   4      -0.314 -39.735  -3.817  1.00 24.11 LIG 0.04  C 
BRANCH 32 33
ATOM     33  CG  LEU B   4       0.565 -40.680  -2.965  1.00 25.40 LIG-0.02  C 
ATOM     34  CD2 LEU B   4       0.316 -42.085  -3.467  1.00 26.98 LIG 0.01  C 
ATOM     35  CD1 LEU B   4       0.391 -40.586  -1.424  1.00 25.06 LIG 0.01  C 
ENDBRANCH 32 33
ENDBRANCH 1 32
BRANCH 1 36
ATOM     36  N   LEU B   4       1.679 -39.517  -5.238  1.00 24.30 LIG-0.35  N 
ATOM     37  C   TRP B   3       2.417 -38.650  -4.549  1.00 25.24 LIG 0.24  C 
ATOM     38 O    TRP B   3       1.929 -37.796  -3.827  1.00 25.23 LIG-0.27  OA
ATOM     39 H    LEU B   4       2.006 -40.141  -5.732  1.00 24.30 LIG 0.16  HD
BRANCH 37 40
ATOM     40  CA  TRP B   3       3.946 -38.735  -4.731  1.00 26.39 LIG 0.18  C 
BRANCH 40 41
ATOM     41  CB  TRP B   3       4.583 -39.311  -3.466  1.00 26.78 LIG 0.07  C 
BRANCH 41 42
ATOM     42  CG  TRP B   3       5.944 -39.672  -3.697  1.00 25.50 LIG-0.03  A 
ATOM     43  CD1 TRP B   3       6.422 -40.916  -3.941  1.00 28.00 LIG 0.10  A 
ATOM     44  NE1 TRP B   3       7.775 -40.878  -4.081  1.00 26.39 LIG-0.36  N 
ATOM     45 HE1  TRP B   3       8.280 -41.556  -4.241  1.00 26.39 LIG 0.17  HD
ATOM     46  CE2 TRP B   3       8.202 -39.594  -3.928  1.00 23.90 LIG 0.04  A 
ATOM     47  CZ2 TRP B   3       9.496 -39.070  -3.976  1.00 23.10 LIG 0.03  A 
ATOM     48  CD2 TRP B   3       7.065 -38.804  -3.691  1.00 23.76 LIG-0.00  A 
ATOM     49  CH2 TRP B   3       9.642 -37.733  -3.807  1.00 22.34 LIG 0.00  A 
ATOM     50  CZ3 TRP B   3       8.533 -36.907  -3.552  1.00 25.34 LIG 0.00  A 
ATOM     51  CE3 TRP B   3       7.225 -37.449  -3.485  1.00 25.10 LIG 0.01  A 
ENDBRANCH 41 42
ENDBRANCH 40 41
BRANCH 40 52
ATOM     52  N   TRP B   3       4.485 -37.409  -5.055  1.00 27.54 LIG-0.35  N 
ATOM     53  C   ALA B   2       5.306 -37.300  -6.106  1.00 31.13 LIG 0.24  C 
ATOM     54 O    ALA B   2       5.615 -38.280  -6.773  1.00 30.30 LIG-0.27  OA
ATOM     55 H    TRP B   3       4.239 -36.765  -4.541  1.00 27.54 LIG 0.16  HD
BRANCH 53 56
ATOM     56  CA  ALA B   2       5.848 -35.908  -6.467  1.00 33.66 LIG 0.17  C 
ATOM     57  CB  ALA B   2       7.397 -35.895  -6.526  1.00 33.40 LIG 0.04  C 
BRANCH 56 58
ATOM     58  N   ALA B   2       5.407 -34.835  -5.567  1.00 35.64 LIG-0.35  N 
ATOM     59 H    ALA B   2       6.024 -34.502  -5.069  1.00 35.64 LIG 0.16  HD
ATOM     60  C   ALA B   1       4.135 -34.442  -5.559  1.00 39.08 LIG 0.25  C 
ATOM     61 O    ALA B   1       3.250 -35.153  -5.983  1.00 40.54 LIG-0.27  OA
BRANCH 60 62
ATOM     62  CA  ALA B   1       3.778 -33.069  -4.937  1.00 41.05 LIG 0.27  C 
ATOM     63  CB  ALA B   1       4.799 -31.989  -5.362  1.00 41.95 LIG 0.05  C 
BRANCH 62 64
ATOM     64  N   ALA B   1       3.694 -33.119  -3.453  1.00 41.48 LIG-0.07  N 
ATOM     65 H3   ALA B   1       2.841 -33.079  -3.202  1.00 41.48 LIG 0.28  HD
ATOM     66 H2   ALA B   1       4.138 -32.430  -3.107  1.00 41.48 LIG 0.28  HD
ATOM     67 H1   ALA B   1       4.052 -33.879  -3.160  1.00 41.48 LIG 0.28  HD
ENDBRANCH 62 64
ENDBRANCH 60 62
ENDBRANCH 56 58
ENDBRANCH 53 56
ENDBRANCH 40 52
ENDBRANCH 37 40
ENDBRANCH 1 36
TORSDOF 23
ENDMDL
MODEL 19
USER: ADFR SOLUTION from run 195
USER: SCORE 23.775442 LL:  -6.886 LR: -17.696 RR:   0.000 FEB: -10.835
USER: RMSD 7.046402
USER: SEED 194
USER: STATUS no improvement in best in 4 clusters for 5 generations
USER: GENES 25
USER: genes 0 Translation |==|  0.43307 0.40344 0.59816
USER: genes 1 Rotation |==|  0.57273 0.23512 0.27829 0.85410
USER: genes 2 Torsion [N]-CA--C-[N] |==|  0.41141
USER: genes 3 Torsion [C]-N--CA-[CB] |==|  0.19048
USER: genes 4 Torsion [N]-CA--CB-[CG] |==|  0.22369
USER: genes 5 Torsion [CA]-CB--CG-[CD1] |==|  0.91752
USER: genes 6 Torsion [N]-CA--C-[N] |==|  0.03416
USER: genes 7 Torsion [C]-N--CA-[C] |==|  0.15960
USER: genes 8 Torsion [N]-CA--CB-[CG] |==|  0.78747
USER: genes 9 Torsion [CA]-CB--CG-[CD] |==|  0.93450
USER: genes 10 Torsion [CB]-CG--CD-[OE2] |==|  0.28062
USER: genes 11 Torsion [N]-CA--C-[N] |==|  0.09162
USER: genes 12 Torsion [C]-N--CA-[CB] |==|  0.86375
USER: genes 13 Torsion [N]-CA--C-[O] |==|  0.17677
USER: genes 14 Torsion [C]-CA--CB-[CG] |==|  0.28108
USER: genes 15 Torsion [CA]-CB--CG-[CD1] |==|  0.21408
USER: genes 16 Torsion [C]-CA--N-[C] |==|  0.59590
USER: genes 17 Torsion [N]-C--CA-[N] |==|  0.90000
USER: genes 18 Torsion [C]-CA--CB-[CG] |==|  0.08243
USER: genes 19 Torsion [CA]-CB--CG-[CD1] |==|  0.20855
USER: genes 20 Torsion [C]-CA--N-[C] |==|  0.73525
USER: genes 21 Torsion [N]-C--CA-[N] |==|  0.96854
USER: genes 22 Torsion [C]-CA--N-[C] |==|  0.76527
USER: genes 23 Torsion [N]-C--CA-[N] |==|  0.75404
USER: genes 24 Torsion [C]-CA--N-[H3] |==|  0.84725
ROOT
ATOM      1  CA  LEU B   4       1.639 -36.969  -7.641  1.00 25.55 LIG 0.18  C 
ENDROOT
BRANCH 1 2
ATOM      2  C   LEU B   4       2.911 -36.548  -8.385  1.00 26.13 LIG 0.24  C 
ATOM      3 O    LEU B   4       3.856 -36.131  -7.738  1.00 25.31 LIG-0.27  OA
ATOM      4  N   PHE B   5       2.918 -36.672  -9.721  1.00 26.68 LIG-0.35  N 
ATOM      5 H    PHE B   5       2.226 -36.875 -10.191  1.00 26.68 LIG 0.16  HD
BRANCH 4 6
ATOM      6  CA  PHE B   5       4.148 -36.463 -10.499  1.00 28.54 LIG 0.18  C 
BRANCH 6 7
ATOM      7  CB  PHE B   5       5.188 -37.575 -10.239  1.00 28.61 LIG 0.07  C 
BRANCH 7 8
ATOM      8  CG  PHE B   5       4.959 -38.836 -10.992  1.00 26.86 LIG-0.06  A 
ATOM      9  CD1 PHE B   5       3.690 -39.236 -11.345  1.00 26.13 LIG 0.01  A 
ATOM     10  CE1 PHE B   5       3.486 -40.413 -12.062  1.00 23.59 LIG 0.00  A 
ATOM     11  CZ  PHE B   5       4.589 -41.210 -12.457  1.00 25.19 LIG 0.00  A 
ATOM     12  CE2 PHE B   5       5.854 -40.832 -12.065  1.00 26.30 LIG 0.00  A 
ATOM     13  CD2 PHE B   5       6.038 -39.641 -11.360  1.00 27.99 LIG 0.01  A 
ENDBRANCH 7 8
ENDBRANCH 6 7
BRANCH 6 14
ATOM     14  C   PHE B   5       3.899 -36.384 -12.007  1.00 31.71 LIG 0.24  C 
ATOM     15  N   GLU B   6       2.628 -36.255 -12.401  1.00 34.73 LIG-0.35  N 
ATOM     16 H    GLU B   6       1.961 -36.531 -11.934  1.00 34.73 LIG 0.16  HD
ATOM     17 O    PHE B   5       4.849 -36.507 -12.785  1.00 30.66 LIG-0.27  OA
BRANCH 15 18
ATOM     18  CA  GLU B   6       2.234 -35.620 -13.691  1.00 38.89 LIG 0.18  C 
BRANCH 18 19
ATOM     19  CB  GLU B   6       2.566 -34.123 -13.741  1.00 39.10 LIG 0.04  C 
BRANCH 19 20
ATOM     20  CG  GLU B   6       1.577 -33.248 -12.927  1.00 43.96 LIG 0.12  C 
BRANCH 20 21
ATOM     21  CD  GLU B   6       0.192 -33.874 -12.706  1.00 49.39 LIG 0.17  C 
ATOM     22 OE1  GLU B   6      -0.676 -33.816 -13.601  1.00 53.88 LIG-0.65  OA
ATOM     23 OE2  GLU B   6      -0.058 -34.405 -11.591  1.00 56.34 LIG-0.65  OA
ENDBRANCH 20 21
ENDBRANCH 19 20
ENDBRANCH 18 19
BRANCH 18 24
ATOM     24  C   GLU B   6       2.932 -36.386 -14.858  1.00 41.03 LIG 0.24  C 
ATOM     25 O    GLU B   6       3.336 -35.791 -15.893  1.00 40.13 LIG-0.27  OA
ATOM     26  N   ALA B   7       3.101 -37.698 -14.644  1.00 43.76 LIG-0.35  N 
ATOM     27 H    ALA B   7       2.770 -38.099 -13.960  1.00 43.76 LIG 0.16  HD
BRANCH 26 28
ATOM     28  CA  ALA B   7       3.873 -38.622 -15.547  1.00 45.80 LIG 0.16  C 
ATOM     29  CB  ALA B   7       3.422 -38.434 -17.038  1.00 46.43 LIG 0.04  C 
BRANCH 28 30
ATOM     30  C   ALA B   7       5.378 -38.411 -15.471  1.00 46.67 LIG 0.22  C 
ATOM     31 O    ALA B   7       5.978 -38.629 -14.405  1.00 48.32 LIG-0.29  OA
ENDBRANCH 28 30
ENDBRANCH 26 28
ENDBRANCH 18 24
ENDBRANCH 15 18
ENDBRANCH 6 14
ENDBRANCH 4 6
ENDBRANCH 1 2
BRANCH 1 32
ATOM     32  CB  LEU B   4       0.694 -35.785  -7.609  1.00 24.11 LIG 0.04  C 
BRANCH 32 33
ATOM     33  CG  LEU B   4      -0.443 -35.859  -8.654  1.00 25.40 LIG-0.02  C 
ATOM     34  CD2 LEU B   4      -0.922 -34.444  -8.887  1.00 26.98 LIG 0.01  C 
ATOM     35  CD1 LEU B   4      -1.624 -36.814  -8.326  1.00 25.06 LIG 0.01  C 
ENDBRANCH 32 33
ENDBRANCH 1 32
BRANCH 1 36
ATOM     36  N   LEU B   4       1.887 -37.502  -6.317  1.00 24.30 LIG-0.35  N 
ATOM     37  C   TRP B   3       1.139 -38.478  -5.810  1.00 25.24 LIG 0.24  C 
ATOM     38 O    TRP B   3       0.231 -39.005  -6.433  1.00 25.23 LIG-0.27  OA
ATOM     39 H    LEU B   4       2.546 -37.136  -5.903  1.00 24.30 LIG 0.16  HD
BRANCH 37 40
ATOM     40  CA  TRP B   3       1.437 -38.903  -4.358  1.00 26.39 LIG 0.18  C 
BRANCH 40 41
ATOM     41  CB  TRP B   3       0.644 -38.023  -3.392  1.00 26.78 LIG 0.07  C 
BRANCH 41 42
ATOM     42  CG  TRP B   3      -0.575 -37.579  -3.986  1.00 25.50 LIG-0.03  A 
ATOM     43  CD1 TRP B   3      -1.694 -38.316  -4.186  1.00 28.00 LIG 0.10  A 
ATOM     44  NE1 TRP B   3      -2.645 -37.565  -4.807  1.00 26.39 LIG-0.36  N 
ATOM     45 HE1  TRP B   3      -3.431 -37.837  -5.027  1.00 26.39 LIG 0.17  HD
ATOM     46  CE2 TRP B   3      -2.152 -36.314  -5.022  1.00 23.90 LIG 0.04  A 
ATOM     47  CZ2 TRP B   3      -2.751 -35.209  -5.631  1.00 23.10 LIG 0.03  A 
ATOM     48  CD2 TRP B   3      -0.846 -36.288  -4.506  1.00 23.76 LIG-0.00  A 
ATOM     49  CH2 TRP B   3      -2.035 -34.061  -5.699  1.00 22.34 LIG 0.00  A 
ATOM     50  CZ3 TRP B   3      -0.719 -33.994  -5.210  1.00 25.34 LIG 0.00  A 
ATOM     51  CE3 TRP B   3      -0.110 -35.125  -4.611  1.00 25.10 LIG 0.01  A 
ENDBRANCH 41 42
ENDBRANCH 40 41
BRANCH 40 52
ATOM     52  N   TRP B   3       2.880 -38.827  -4.102  1.00 27.54 LIG-0.35  N 
ATOM     53  C   ALA B   2       3.606 -39.942  -4.240  1.00 31.13 LIG 0.24  C 
ATOM     54 O    ALA B   2       3.082 -41.005  -4.556  1.00 30.30 LIG-0.27  OA
ATOM     55 H    TRP B   3       3.183 -38.055  -3.873  1.00 27.54 LIG 0.16  HD
BRANCH 53 56
ATOM     56  CA  ALA B   2       5.122 -39.860  -4.002  1.00 33.66 LIG 0.17  C 
ATOM     57  CB  ALA B   2       5.547 -40.646  -2.736  1.00 33.40 LIG 0.04  C 
BRANCH 56 58
ATOM     58  N   ALA B   2       5.645 -38.492  -3.900  1.00 35.64 LIG-0.35  N 
ATOM     59 H    ALA B   2       5.723 -38.193  -3.098  1.00 35.64 LIG 0.16  HD
ATOM     60  C   ALA B   1       5.960 -37.806  -4.997  1.00 39.08 LIG 0.25  C 
ATOM     61 O    ALA B   1       5.505 -38.102  -6.081  1.00 40.54 LIG-0.27  OA
BRANCH 60 62
ATOM     62  CA  ALA B   1       6.878 -36.566  -4.868  1.00 41.05 LIG 0.27  C 
ATOM     63  CB  ALA B   1       7.933 -36.775  -3.758  1.00 41.95 LIG 0.05  C 
BRANCH 62 64
ATOM     64  N   ALA B   1       6.117 -35.316  -4.604  1.00 41.48 LIG-0.07  N 
ATOM     65 H3   ALA B   1       5.499 -35.206  -5.235  1.00 41.48 LIG 0.28  HD
ATOM     66 H2   ALA B   1       6.674 -34.622  -4.610  1.00 41.48 LIG 0.28  HD
ATOM     67 H1   ALA B   1       5.721 -35.371  -3.809  1.00 41.48 LIG 0.28  HD
ENDBRANCH 62 64
ENDBRANCH 60 62
ENDBRANCH 56 58
ENDBRANCH 53 56
ENDBRANCH 40 52
ENDBRANCH 37 40
ENDBRANCH 1 36
TORSDOF 23
ENDMDL
MODEL 20
USER: ADFR SOLUTION from run 191
USER: SCORE 22.962181 LL:  -6.099 LR: -17.617 RR:   0.000 FEB: -10.756
USER: RMSD 9.707996
USER: SEED 190
USER: STATUS searching
USER: GENES 25
USER: genes 0 Translation |==|  0.44627 0.46727 0.58361
USER: genes 1 Rotation |==|  0.10038 0.63457 0.66148 0.71475
USER: genes 2 Torsion [N]-CA--C-[N] |==|  0.46587
USER: genes 3 Torsion [C]-N--CA-[CB] |==|  0.83389
USER: genes 4 Torsion [N]-CA--CB-[CG] |==|  0.89381
USER: genes 5 Torsion [CA]-CB--CG-[CD1] |==|  0.86584
USER: genes 6 Torsion [N]-CA--C-[N] |==|  0.35570
USER: genes 7 Torsion [C]-N--CA-[C] |==|  0.76909
USER: genes 8 Torsion [N]-CA--CB-[CG] |==|  0.57307
USER: genes 9 Torsion [CA]-CB--CG-[CD] |==|  0.12687
USER: genes 10 Torsion [CB]-CG--CD-[OE2] |==|  0.69522
USER: genes 11 Torsion [N]-CA--C-[N] |==|  0.02222
USER: genes 12 Torsion [C]-N--CA-[CB] |==|  0.43836
USER: genes 13 Torsion [N]-CA--C-[O] |==|  0.02464
USER: genes 14 Torsion [C]-CA--CB-[CG] |==|  0.71513
USER: genes 15 Torsion [CA]-CB--CG-[CD1] |==|  0.22999
USER: genes 16 Torsion [C]-CA--N-[C] |==|  0.55355
USER: genes 17 Torsion [N]-C--CA-[N] |==|  0.39943
USER: genes 18 Torsion [C]-CA--CB-[CG] |==|  0.41766
USER: genes 19 Torsion [CA]-CB--CG-[CD1] |==|  0.66324
USER: genes 20 Torsion [C]-CA--N-[C] |==|  0.73622
USER: genes 21 Torsion [N]-C--CA-[N] |==|  0.15589
USER: genes 22 Torsion [C]-CA--N-[C] |==|  0.73607
USER: genes 23 Torsion [N]-C--CA-[N] |==|  0.45522
USER: genes 24 Torsion [C]-CA--N-[H3] |==|  0.95727
ROOT
ATOM      1  CA  LEU B   4       1.896 -35.628  -7.969  1.00 25.55 LIG 0.18  C 
ENDROOT
BRANCH 1 2
ATOM      2  C   LEU B   4       1.554 -36.801  -7.044  1.00 26.13 LIG 0.24  C 
ATOM      3 O    LEU B   4       1.312 -37.888  -7.541  1.00 25.31 LIG-0.27  OA
ATOM      4  N   PHE B   5       1.550 -36.567  -5.722  1.00 26.68 LIG-0.35  N 
ATOM      5 H    PHE B   5       1.626 -35.787  -5.369  1.00 26.68 LIG 0.16  HD
BRANCH 4 6
ATOM      6  CA  PHE B   5       1.409 -37.666  -4.756  1.00 28.54 LIG 0.18  C 
BRANCH 6 7
ATOM      7  CB  PHE B   5       0.084 -38.435  -4.949  1.00 28.61 LIG 0.07  C 
BRANCH 7 8
ATOM      8  CG  PHE B   5      -1.088 -37.589  -5.296  1.00 26.86 LIG-0.06  A 
ATOM      9  CD1 PHE B   5      -1.377 -36.446  -4.587  1.00 26.13 LIG 0.01  A 
ATOM     10  CE1 PHE B   5      -2.471 -35.653  -4.928  1.00 23.59 LIG 0.00  A 
ATOM     11  CZ  PHE B   5      -3.292 -36.001  -6.028  1.00 25.19 LIG 0.00  A 
ATOM     12  CE2 PHE B   5      -3.026 -37.168  -6.710  1.00 26.30 LIG 0.00  A 
ATOM     13  CD2 PHE B   5      -1.918 -37.941  -6.362  1.00 27.99 LIG 0.01  A 
ENDBRANCH 7 8
ENDBRANCH 6 7
BRANCH 6 14
ATOM     14  C   PHE B   5       2.561 -38.673  -4.820  1.00 31.71 LIG 0.24  C 
ATOM     15  N   GLU B   6       3.175 -38.959  -3.668  1.00 34.73 LIG-0.35  N 
ATOM     16 H    GLU B   6       3.200 -38.416  -3.001  1.00 34.73 LIG 0.16  HD
ATOM     17 O    PHE B   5       2.915 -39.119  -5.914  1.00 30.66 LIG-0.27  OA
BRANCH 15 18
ATOM     18  CA  GLU B   6       3.880 -40.248  -3.416  1.00 38.89 LIG 0.18  C 
BRANCH 18 19
ATOM     19  CB  GLU B   6       5.000 -40.119  -2.375  1.00 39.10 LIG 0.04  C 
BRANCH 19 20
ATOM     20  CG  GLU B   6       6.124 -41.175  -2.549  1.00 43.96 LIG 0.12  C 
BRANCH 20 21
ATOM     21  CD  GLU B   6       6.612 -41.367  -3.993  1.00 49.39 LIG 0.17  C 
ATOM     22 OE1  GLU B   6       7.238 -40.456  -4.572  1.00 53.88 LIG-0.65  OA
ATOM     23 OE2  GLU B   6       6.328 -42.441  -4.587  1.00 56.34 LIG-0.65  OA
ENDBRANCH 20 21
ENDBRANCH 19 20
ENDBRANCH 18 19
BRANCH 18 24
ATOM     24  C   GLU B   6       2.829 -41.314  -2.976  1.00 41.03 LIG 0.24  C 
ATOM     25 O    GLU B   6       3.175 -42.437  -2.519  1.00 40.13 LIG-0.27  OA
ATOM     26  N   ALA B   7       1.553 -40.918  -3.079  1.00 43.76 LIG-0.35  N 
ATOM     27 H    ALA B   7       1.331 -40.172  -3.445  1.00 43.76 LIG 0.16  HD
BRANCH 26 28
ATOM     28  CA  ALA B   7       0.368 -41.703  -2.583  1.00 45.80 LIG 0.16  C 
ATOM     29  CB  ALA B   7      -0.858 -40.754  -2.349  1.00 46.43 LIG 0.04  C 
BRANCH 28 30
ATOM     30  C   ALA B   7      -0.056 -42.809  -3.537  1.00 46.67 LIG 0.22  C 
ATOM     31 O    ALA B   7       0.659 -43.091  -4.513  1.00 48.32 LIG-0.29  OA
ENDBRANCH 28 30
ENDBRANCH 26 28
ENDBRANCH 18 24
ENDBRANCH 15 18
ENDBRANCH 6 14
ENDBRANCH 4 6
ENDBRANCH 1 2
BRANCH 1 32
ATOM     32  CB  LEU B   4       0.782 -34.606  -7.872  1.00 24.11 LIG 0.04  C 
BRANCH 32 33
ATOM     33  CG  LEU B   4      -0.196 -34.627  -9.069  1.00 25.40 LIG-0.02  C 
ATOM     34  CD2 LEU B   4      -0.750 -33.227  -9.210  1.00 26.98 LIG 0.01  C 
ATOM     35  CD1 LEU B   4      -1.331 -35.688  -9.019  1.00 25.06 LIG 0.01  C 
ENDBRANCH 32 33
ENDBRANCH 1 32
BRANCH 1 36
ATOM     36  N   LEU B   4       2.154 -36.023  -9.339  1.00 24.30 LIG-0.35  N 
ATOM     37  C   TRP B   3       2.819 -35.230 -10.176  1.00 25.24 LIG 0.24  C 
ATOM     38 O    TRP B   3       3.279 -34.152  -9.839  1.00 25.23 LIG-0.27  OA
ATOM     39 H    LEU B   4       1.844 -36.796  -9.552  1.00 24.30 LIG 0.16  HD
BRANCH 37 40
ATOM     40  CA  TRP B   3       2.955 -35.713 -11.634  1.00 26.39 LIG 0.18  C 
BRANCH 40 41
ATOM     41  CB  TRP B   3       4.266 -36.483 -11.801  1.00 26.78 LIG 0.07  C 
BRANCH 41 42
ATOM     42  CG  TRP B   3       4.150 -37.478 -12.817  1.00 25.50 LIG-0.03  A 
ATOM     43  CD1 TRP B   3       4.338 -38.811 -12.669  1.00 28.00 LIG 0.10  A 
ATOM     44  NE1 TRP B   3       4.171 -39.442 -13.864  1.00 26.39 LIG-0.36  N 
ATOM     45 HE1  TRP B   3       4.245 -40.289 -13.996  1.00 26.39 LIG 0.17  HD
ATOM     46  CE2 TRP B   3       3.869 -38.518 -14.816  1.00 23.90 LIG 0.04  A 
ATOM     47  CZ2 TRP B   3       3.623 -38.686 -16.181  1.00 23.10 LIG 0.03  A 
ATOM     48  CD2 TRP B   3       3.840 -37.264 -14.183  1.00 23.76 LIG-0.00  A 
ATOM     49  CH2 TRP B   3       3.321 -37.584 -16.909  1.00 22.34 LIG 0.00  A 
ATOM     50  CZ3 TRP B   3       3.296 -36.308 -16.320  1.00 25.34 LIG 0.00  A 
ATOM     51  CE3 TRP B   3       3.567 -36.141 -14.938  1.00 25.10 LIG 0.01  A 
ENDBRANCH 41 42
ENDBRANCH 40 41
BRANCH 40 52
ATOM     52  N   TRP B   3       2.878 -34.568 -12.549  1.00 27.54 LIG-0.35  N 
ATOM     53  C   ALA B   2       1.691 -34.269 -13.088  1.00 31.13 LIG 0.24  C 
ATOM     54 O    ALA B   2       0.695 -34.939 -12.841  1.00 30.30 LIG-0.27  OA
ATOM     55 H    TRP B   3       3.614 -34.147 -12.690  1.00 27.54 LIG 0.16  HD
BRANCH 53 56
ATOM     56  CA  ALA B   2       1.600 -33.052 -14.022  1.00 33.66 LIG 0.17  C 
ATOM     57  CB  ALA B   2       0.160 -32.850 -14.560  1.00 33.40 LIG 0.04  C 
BRANCH 56 58
ATOM     58  N   ALA B   2       2.522 -33.094 -15.163  1.00 35.64 LIG-0.35  N 
ATOM     59 H    ALA B   2       2.235 -33.530 -15.846  1.00 35.64 LIG 0.16  HD
ATOM     60  C   ALA B   1       3.705 -32.488 -15.096  1.00 39.08 LIG 0.25  C 
ATOM     61 O    ALA B   1       4.217 -32.213 -14.032  1.00 40.54 LIG-0.27  OA
BRANCH 60 62
ATOM     62  CA  ALA B   1       4.469 -32.187 -16.410  1.00 41.05 LIG 0.27  C 
ATOM     63  CB  ALA B   1       5.050 -33.484 -17.019  1.00 41.95 LIG 0.05  C 
BRANCH 62 64
ATOM     64  N   ALA B   1       5.558 -31.192 -16.222  1.00 41.48 LIG-0.07  N 
ATOM     65 H3   ALA B   1       5.448 -30.774 -15.445  1.00 41.48 LIG 0.28  HD
ATOM     66 H2   ALA B   1       5.535 -30.598 -16.885  1.00 41.48 LIG 0.28  HD
ATOM     67 H1   ALA B   1       6.345 -31.608 -16.225  1.00 41.48 LIG 0.28  HD
ENDBRANCH 62 64
ENDBRANCH 60 62
ENDBRANCH 56 58
ENDBRANCH 53 56
ENDBRANCH 40 52
ENDBRANCH 37 40
ENDBRANCH 1 36
TORSDOF 23
ENDMDL
MODEL 21
USER: ADFR SOLUTION from run 2
USER: SCORE 21.492520 LL:  -5.462 LR: -17.536 RR:   0.000 FEB: -10.675
USER: RMSD 8.324953
USER: SEED 718316
USER: STATUS searching
USER: GENES 25
USER: genes 0 Translation |==|  0.54672 0.29962 0.40585
USER: genes 1 Rotation |==|  0.61599 0.31342 0.82509 0.80992
USER: genes 2 Torsion [N]-CA--C-[N] |==|  0.46440
USER: genes 3 Torsion [C]-N--CA-[CB] |==|  0.76273
USER: genes 4 Torsion [N]-CA--CB-[CG] |==|  0.62235
USER: genes 5 Torsion [CA]-CB--CG-[CD1] |==|  0.61331
USER: genes 6 Torsion [N]-CA--C-[N] |==|  0.55815
USER: genes 7 Torsion [C]-N--CA-[C] |==|  0.75870
USER: genes 8 Torsion [N]-CA--CB-[CG] |==|  0.07865
USER: genes 9 Torsion [CA]-CB--CG-[CD] |==|  0.23237
USER: genes 10 Torsion [CB]-CG--CD-[OE2] |==|  0.50875
USER: genes 11 Torsion [N]-CA--C-[N] |==|  0.52701
USER: genes 12 Torsion [C]-N--CA-[CB] |==|  0.33524
USER: genes 13 Torsion [N]-CA--C-[O] |==|  0.83100
USER: genes 14 Torsion [C]-CA--CB-[CG] |==|  0.25564
USER: genes 15 Torsion [CA]-CB--CG-[CD1] |==|  0.05676
USER: genes 16 Torsion [C]-CA--N-[C] |==|  0.68707
USER: genes 17 Torsion [N]-C--CA-[N] |==|  0.38017
USER: genes 18 Torsion [C]-CA--CB-[CG] |==|  0.51208
USER: genes 19 Torsion [CA]-CB--CG-[CD1] |==|  0.32677
USER: genes 20 Torsion [C]-CA--N-[C] |==|  0.66991
USER: genes 21 Torsion [N]-C--CA-[N] |==|  0.04441
USER: genes 22 Torsion [C]-CA--N-[C] |==|  0.76536
USER: genes 23 Torsion [N]-C--CA-[N] |==|  0.84611
USER: genes 24 Torsion [C]-CA--N-[H3] |==|  0.59381
ROOT
ATOM      1  CA  LEU B   4       3.855 -39.149 -11.968  1.00 25.55 LIG 0.18  C 
ENDROOT
BRANCH 1 2
ATOM      2  C   LEU B   4       3.825 -38.591 -13.395  1.00 26.13 LIG 0.24  C 
ATOM      3 O    LEU B   4       2.942 -37.806 -13.698  1.00 25.31 LIG-0.27  OA
ATOM      4  N   PHE B   5       4.787 -38.994 -14.239  1.00 26.68 LIG-0.35  N 
ATOM      5 H    PHE B   5       5.355 -39.616 -14.063  1.00 26.68 LIG 0.16  HD
BRANCH 4 6
ATOM      6  CA  PHE B   5       4.943 -38.379 -15.565  1.00 28.54 LIG 0.18  C 
BRANCH 6 7
ATOM      7  CB  PHE B   5       4.023 -39.039 -16.616  1.00 28.61 LIG 0.07  C 
BRANCH 7 8
ATOM      8  CG  PHE B   5       4.668 -39.319 -17.926  1.00 26.86 LIG-0.06  A 
ATOM      9  CD1 PHE B   5       4.002 -39.101 -19.110  1.00 26.13 LIG 0.01  A 
ATOM     10  CE1 PHE B   5       4.619 -39.355 -20.333  1.00 23.59 LIG 0.00  A 
ATOM     11  CZ  PHE B   5       5.954 -39.826 -20.377  1.00 25.19 LIG 0.00  A 
ATOM     12  CE2 PHE B   5       6.604 -40.086 -19.191  1.00 26.30 LIG 0.00  A 
ATOM     13  CD2 PHE B   5       5.974 -39.810 -17.976  1.00 27.99 LIG 0.01  A 
ENDBRANCH 7 8
ENDBRANCH 6 7
BRANCH 6 14
ATOM     14  C   PHE B   5       4.666 -36.874 -15.565  1.00 31.71 LIG 0.24  C 
ATOM     15  N   GLU B   6       4.360 -36.318 -16.741  1.00 34.73 LIG-0.35  N 
ATOM     16 H    GLU B   6       4.615 -36.643 -17.496  1.00 34.73 LIG 0.16  HD
ATOM     17 O    PHE B   5       4.799 -36.233 -14.519  1.00 30.66 LIG-0.27  OA
BRANCH 15 18
ATOM     18  CA  GLU B   6       3.543 -35.077 -16.871  1.00 38.89 LIG 0.18  C 
BRANCH 18 19
ATOM     19  CB  GLU B   6       3.916 -34.248 -18.106  1.00 39.10 LIG 0.04  C 
BRANCH 19 20
ATOM     20  CG  GLU B   6       4.480 -35.104 -19.271  1.00 43.96 LIG 0.12  C 
BRANCH 20 21
ATOM     21  CD  GLU B   6       3.416 -35.755 -20.169  1.00 49.39 LIG 0.17  C 
ATOM     22 OE1  GLU B   6       2.203 -35.564 -19.947  1.00 53.88 LIG-0.65  OA
ATOM     23 OE2  GLU B   6       3.797 -36.514 -21.099  1.00 56.34 LIG-0.65  OA
ENDBRANCH 20 21
ENDBRANCH 19 20
ENDBRANCH 18 19
BRANCH 18 24
ATOM     24  C   GLU B   6       2.034 -35.474 -16.899  1.00 41.03 LIG 0.24  C 
ATOM     25 O    GLU B   6       1.650 -36.637 -16.600  1.00 40.13 LIG-0.27  OA
ATOM     26  N   ALA B   7       1.198 -34.477 -17.216  1.00 43.76 LIG-0.35  N 
ATOM     27 H    ALA B   7       1.478 -33.705 -17.472  1.00 43.76 LIG 0.16  HD
BRANCH 26 28
ATOM     28  CA  ALA B   7      -0.303 -34.568 -17.169  1.00 45.80 LIG 0.16  C 
ATOM     29  CB  ALA B   7      -0.886 -33.497 -16.183  1.00 46.43 LIG 0.04  C 
BRANCH 28 30
ATOM     30  C   ALA B   7      -0.956 -34.375 -18.529  1.00 46.67 LIG 0.22  C 
ATOM     31 O    ALA B   7      -0.799 -33.306 -19.143  1.00 48.32 LIG-0.29  OA
ENDBRANCH 28 30
ENDBRANCH 26 28
ENDBRANCH 18 24
ENDBRANCH 15 18
ENDBRANCH 6 14
ENDBRANCH 4 6
ENDBRANCH 1 2
BRANCH 1 32
ATOM     32  CB  LEU B   4       3.550 -40.632 -12.032  1.00 24.11 LIG 0.04  C 
BRANCH 32 33
ATOM     33  CG  LEU B   4       4.804 -41.528 -12.147  1.00 25.40 LIG-0.02  C 
ATOM     34  CD2 LEU B   4       4.508 -42.801 -11.387  1.00 26.98 LIG 0.01  C 
ATOM     35  CD1 LEU B   4       6.151 -40.895 -11.697  1.00 25.06 LIG 0.01  C 
ENDBRANCH 32 33
ENDBRANCH 1 32
BRANCH 1 36
ATOM     36  N   LEU B   4       2.976 -38.452 -11.051  1.00 24.30 LIG-0.35  N 
ATOM     37  C   TRP B   3       3.458 -37.724 -10.047  1.00 25.24 LIG 0.24  C 
ATOM     38 O    TRP B   3       4.653 -37.568  -9.858  1.00 25.23 LIG-0.27  OA
ATOM     39 H    LEU B   4       2.138 -38.553 -11.215  1.00 24.30 LIG 0.16  HD
BRANCH 37 40
ATOM     40  CA  TRP B   3       2.429 -37.102  -9.081  1.00 26.39 LIG 0.18  C 
BRANCH 40 41
ATOM     41  CB  TRP B   3       2.211 -35.631  -9.439  1.00 26.78 LIG 0.07  C 
BRANCH 41 42
ATOM     42  CG  TRP B   3       1.340 -35.000  -8.501  1.00 25.50 LIG-0.03  A 
ATOM     43  CD1 TRP B   3       1.645 -33.965  -7.682  1.00 28.00 LIG 0.10  A 
ATOM     44  NE1 TRP B   3       0.572 -33.650  -6.906  1.00 26.39 LIG-0.36  N 
ATOM     45 HE1  TRP B   3       0.548 -33.024  -6.317  1.00 26.39 LIG 0.17  HD
ATOM     46  CE2 TRP B   3      -0.459 -34.486  -7.213  1.00 23.90 LIG 0.04  A 
ATOM     47  CZ2 TRP B   3      -1.747 -34.552  -6.677  1.00 23.10 LIG 0.03  A 
ATOM     48  CD2 TRP B   3      -0.006 -35.348  -8.225  1.00 23.76 LIG-0.00  A 
ATOM     49  CH2 TRP B   3      -2.594 -35.480  -7.184  1.00 22.34 LIG 0.00  A 
ATOM     50  CZ3 TRP B   3      -2.179 -36.374  -8.186  1.00 25.34 LIG 0.00  A 
ATOM     51  CE3 TRP B   3      -0.864 -36.314  -8.712  1.00 25.10 LIG 0.01  A 
ENDBRANCH 41 42
ENDBRANCH 40 41
BRANCH 40 52
ATOM     52  N   TRP B   3       2.885 -37.261  -7.695  1.00 27.54 LIG-0.35  N 
ATOM     53  C   ALA B   2       2.122 -37.969  -6.855  1.00 31.13 LIG 0.24  C 
ATOM     54 O    ALA B   2       1.061 -38.460  -7.224  1.00 30.30 LIG-0.27  OA
ATOM     55 H    TRP B   3       3.632 -36.883  -7.497  1.00 27.54 LIG 0.16  HD
BRANCH 53 56
ATOM     56  CA  ALA B   2       2.611 -38.164  -5.411  1.00 33.66 LIG 0.17  C 
ATOM     57  CB  ALA B   2       1.450 -38.043  -4.392  1.00 33.40 LIG 0.04  C 
BRANCH 56 58
ATOM     58  N   ALA B   2       3.684 -37.248  -5.008  1.00 35.64 LIG-0.35  N 
ATOM     59 H    ALA B   2       3.421 -36.542  -4.591  1.00 35.64 LIG 0.16  HD
ATOM     60  C   ALA B   1       4.954 -37.531  -5.288  1.00 39.08 LIG 0.25  C 
ATOM     61 O    ALA B   1       5.250 -38.311  -6.167  1.00 40.54 LIG-0.27  OA
BRANCH 60 62
ATOM     62  CA  ALA B   1       6.076 -36.796  -4.513  1.00 41.05 LIG 0.27  C 
ATOM     63  CB  ALA B   1       6.088 -37.222  -3.027  1.00 41.95 LIG 0.05  C 
BRANCH 62 64
ATOM     64  N   ALA B   1       5.960 -35.316  -4.606  1.00 41.48 LIG-0.07  N 
ATOM     65 H3   ALA B   1       6.773 -34.955  -4.611  1.00 41.48 LIG 0.28  HD
ATOM     66 H2   ALA B   1       5.503 -35.009  -3.907  1.00 41.48 LIG 0.28  HD
ATOM     67 H1   ALA B   1       5.535 -35.098  -5.357  1.00 41.48 LIG 0.28  HD
ENDBRANCH 62 64
ENDBRANCH 60 62
ENDBRANCH 56 58
ENDBRANCH 53 56
ENDBRANCH 40 52
ENDBRANCH 37 40
ENDBRANCH 1 36
TORSDOF 23
ENDMDL
MODEL 22
USER: ADFR SOLUTION from run 100
USER: SCORE 21.425965 LL:  -5.180 LR: -17.496 RR:   0.000 FEB: -10.635
USER: RMSD 8.497519
USER: SEED 99
USER: STATUS 1 or 2 clusters left
USER: GENES 25
USER: genes 0 Translation |==|  0.45498 0.41828 0.56725
USER: genes 1 Rotation |==|  0.40414 0.25836 0.17027 0.77148
USER: genes 2 Torsion [N]-CA--C-[N] |==|  0.51334
USER: genes 3 Torsion [C]-N--CA-[CB] |==|  0.57748
USER: genes 4 Torsion [N]-CA--CB-[CG] |==|  0.62255
USER: genes 5 Torsion [CA]-CB--CG-[CD1] |==|  0.30556
USER: genes 6 Torsion [N]-CA--C-[N] |==|  0.31002
USER: genes 7 Torsion [C]-N--CA-[C] |==|  0.79453
USER: genes 8 Torsion [N]-CA--CB-[CG] |==|  0.16313
USER: genes 9 Torsion [CA]-CB--CG-[CD] |==|  0.60023
USER: genes 10 Torsion [CB]-CG--CD-[OE2] |==|  0.33369
USER: genes 11 Torsion [N]-CA--C-[N] |==|  0.36257
USER: genes 12 Torsion [C]-N--CA-[CB] |==|  0.12608
USER: genes 13 Torsion [N]-CA--C-[O] |==|  0.43164
USER: genes 14 Torsion [C]-CA--CB-[CG] |==|  0.24540
USER: genes 15 Torsion [CA]-CB--CG-[CD1] |==|  0.16313
USER: genes 16 Torsion [C]-CA--N-[C] |==|  0.74224
USER: genes 17 Torsion [N]-C--CA-[N] |==|  0.87247
USER: genes 18 Torsion [C]-CA--CB-[CG] |==|  0.14029
USER: genes 19 Torsion [CA]-CB--CG-[CD1] |==|  0.19600
USER: genes 20 Torsion [C]-CA--N-[C] |==|  0.70000
USER: genes 21 Torsion [N]-C--CA-[N] |==|  0.02000
USER: genes 22 Torsion [C]-CA--N-[C] |==|  0.75673
USER: genes 23 Torsion [N]-C--CA-[N] |==|  0.81008
USER: genes 24 Torsion [C]-CA--N-[H3] |==|  0.04772
ROOT
ATOM      1  CA  LEU B   4       2.066 -36.657  -8.337  1.00 25.55 LIG 0.18  C 
ENDROOT
BRANCH 1 2
ATOM      2  C   LEU B   4       2.972 -37.350  -9.360  1.00 26.13 LIG 0.24  C 
ATOM      3 O    LEU B   4       3.666 -38.282  -8.992  1.00 25.31 LIG-0.27  OA
ATOM      4  N   PHE B   5       2.944 -36.893 -10.622  1.00 26.68 LIG-0.35  N 
ATOM      5 H    PHE B   5       2.531 -36.180 -10.869  1.00 26.68 LIG 0.16  HD
BRANCH 4 6
ATOM      6  CA  PHE B   5       3.640 -37.605 -11.704  1.00 28.54 LIG 0.18  C 
BRANCH 6 7
ATOM      7  CB  PHE B   5       4.071 -36.648 -12.837  1.00 28.61 LIG 0.07  C 
BRANCH 7 8
ATOM      8  CG  PHE B   5       3.811 -37.147 -14.213  1.00 26.86 LIG-0.06  A 
ATOM      9  CD1 PHE B   5       2.843 -36.578 -15.007  1.00 26.13 LIG 0.01  A 
ATOM     10  CE1 PHE B   5       2.615 -37.045 -16.300  1.00 23.59 LIG 0.00  A 
ATOM     11  CZ  PHE B   5       3.394 -38.105 -16.826  1.00 25.19 LIG 0.00  A 
ATOM     12  CE2 PHE B   5       4.333 -38.703 -16.014  1.00 26.30 LIG 0.00  A 
ATOM     13  CD2 PHE B   5       4.556 -38.210 -14.727  1.00 27.99 LIG 0.01  A 
ENDBRANCH 7 8
ENDBRANCH 6 7
BRANCH 6 14
ATOM     14  C   PHE B   5       4.878 -38.365 -11.223  1.00 31.71 LIG 0.24  C 
ATOM     15  N   GLU B   6       4.815 -39.700 -11.256  1.00 34.73 LIG-0.35  N 
ATOM     16 H    GLU B   6       4.076 -40.137 -11.209  1.00 34.73 LIG 0.16  HD
ATOM     17 O    PHE B   5       5.838 -37.736 -10.770  1.00 30.66 LIG-0.27  OA
BRANCH 15 18
ATOM     18  CA  GLU B   6       6.019 -40.572 -11.379  1.00 38.89 LIG 0.18  C 
BRANCH 18 19
ATOM     19  CB  GLU B   6       5.742 -42.025 -10.974  1.00 39.10 LIG 0.04  C 
BRANCH 19 20
ATOM     20  CG  GLU B   6       4.621 -42.693 -11.815  1.00 43.96 LIG 0.12  C 
BRANCH 20 21
ATOM     21  CD  GLU B   6       3.723 -43.666 -11.036  1.00 49.39 LIG 0.17  C 
ATOM     22 OE1  GLU B   6       4.208 -44.691 -10.515  1.00 53.88 LIG-0.65  OA
ATOM     23 OE2  GLU B   6       2.487 -43.428 -10.975  1.00 56.34 LIG-0.65  OA
ENDBRANCH 20 21
ENDBRANCH 19 20
ENDBRANCH 18 19
BRANCH 18 24
ATOM     24  C   GLU B   6       6.544 -40.491 -12.846  1.00 41.03 LIG 0.24  C 
ATOM     25 O    GLU B   6       5.769 -40.603 -13.834  1.00 40.13 LIG-0.27  OA
ATOM     26  N   ALA B   7       7.857 -40.250 -12.959  1.00 43.76 LIG-0.35  N 
ATOM     27 H    ALA B   7       8.382 -40.233 -12.278  1.00 43.76 LIG 0.16  HD
BRANCH 26 28
ATOM     28  CA  ALA B   7       8.572 -39.984 -14.256  1.00 45.80 LIG 0.16  C 
ATOM     29  CB  ALA B   7       7.764 -38.962 -15.128  1.00 46.43 LIG 0.04  C 
BRANCH 28 30
ATOM     30  C   ALA B   7       9.980 -39.441 -14.061  1.00 46.67 LIG 0.22  C 
ATOM     31 O    ALA B   7      10.832 -39.600 -14.950  1.00 48.32 LIG-0.29  OA
ENDBRANCH 28 30
ENDBRANCH 26 28
ENDBRANCH 18 24
ENDBRANCH 15 18
ENDBRANCH 6 14
ENDBRANCH 4 6
ENDBRANCH 1 2
BRANCH 1 32
ATOM     32  CB  LEU B   4       2.290 -35.162  -8.440  1.00 24.11 LIG 0.04  C 
BRANCH 32 33
ATOM     33  CG  LEU B   4       1.384 -34.461  -9.479  1.00 25.40 LIG-0.02  C 
ATOM     34  CD2 LEU B   4       1.809 -33.011  -9.526  1.00 26.98 LIG 0.01  C 
ATOM     35  CD1 LEU B   4      -0.149 -34.600  -9.267  1.00 25.06 LIG 0.01  C 
ENDBRANCH 32 33
ENDBRANCH 1 32
BRANCH 1 36
ATOM     36  N   LEU B   4       2.241 -37.140  -6.982  1.00 24.30 LIG-0.35  N 
ATOM     37  C   TRP B   3       1.487 -38.121  -6.492  1.00 25.24 LIG 0.24  C 
ATOM     38 O    TRP B   3       0.637 -38.693  -7.154  1.00 25.23 LIG-0.27  OA
ATOM     39 H    LEU B   4       2.862 -36.743  -6.539  1.00 24.30 LIG 0.16  HD
BRANCH 37 40
ATOM     40  CA  TRP B   3       1.701 -38.491  -5.010  1.00 26.39 LIG 0.18  C 
BRANCH 40 41
ATOM     41  CB  TRP B   3       1.021 -37.452  -4.118  1.00 26.78 LIG 0.07  C 
BRANCH 41 42
ATOM     42  CG  TRP B   3      -0.331 -37.237  -4.520  1.00 25.50 LIG-0.03  A 
ATOM     43  CD1 TRP B   3      -1.364 -38.102  -4.381  1.00 28.00 LIG 0.10  A 
ATOM     44  NE1 TRP B   3      -2.498 -37.565  -4.908  1.00 26.39 LIG-0.36  N 
ATOM     45 HE1  TRP B   3      -3.270 -37.945  -4.925  1.00 26.39 LIG 0.17  HD
ATOM     46  CE2 TRP B   3      -2.215 -36.329  -5.404  1.00 23.90 LIG 0.04  A 
ATOM     47  CZ2 TRP B   3      -3.050 -35.409  -6.043  1.00 23.10 LIG 0.03  A 
ATOM     48  CD2 TRP B   3      -0.852 -36.089  -5.166  1.00 23.76 LIG-0.00  A 
ATOM     49  CH2 TRP B   3      -2.510 -34.227  -6.425  1.00 22.34 LIG 0.00  A 
ATOM     50  CZ3 TRP B   3      -1.147 -33.950  -6.222  1.00 25.34 LIG 0.00  A 
ATOM     51  CE3 TRP B   3      -0.301 -34.896  -5.590  1.00 25.10 LIG 0.01  A 
ENDBRANCH 41 42
ENDBRANCH 40 41
BRANCH 40 52
ATOM     52  N   TRP B   3       3.136 -38.597  -4.724  1.00 27.54 LIG-0.35  N 
ATOM     53  C   ALA B   2       3.653 -39.814  -4.522  1.00 31.13 LIG 0.24  C 
ATOM     54 O    ALA B   2       2.948 -40.816  -4.558  1.00 30.30 LIG-0.27  OA
ATOM     55 H    TRP B   3       3.573 -37.856  -4.701  1.00 27.54 LIG 0.16  HD
BRANCH 53 56
ATOM     56  CA  ALA B   2       5.162 -39.931  -4.253  1.00 33.66 LIG 0.17  C 
ATOM     57  CB  ALA B   2       5.455 -40.812  -3.012  1.00 33.40 LIG 0.04  C 
BRANCH 56 58
ATOM     58  N   ALA B   2       5.847 -38.645  -4.084  1.00 35.64 LIG-0.35  N 
ATOM     59 H    ALA B   2       5.907 -38.369  -3.272  1.00 35.64 LIG 0.16  HD
ATOM     60  C   ALA B   1       6.325 -37.991  -5.141  1.00 39.08 LIG 0.25  C 
ATOM     61 O    ALA B   1       5.915 -38.211  -6.260  1.00 40.54 LIG-0.27  OA
BRANCH 60 62
ATOM     62  CA  ALA B   1       7.384 -36.883  -4.922  1.00 41.05 LIG 0.27  C 
ATOM     63  CB  ALA B   1       8.595 -37.427  -4.130  1.00 41.95 LIG 0.05  C 
BRANCH 62 64
ATOM     64  N   ALA B   1       6.829 -35.691  -4.227  1.00 41.48 LIG-0.07  N 
ATOM     65 H3   ALA B   1       6.059 -35.907  -3.836  1.00 41.48 LIG 0.28  HD
ATOM     66 H2   ALA B   1       6.689 -35.041  -4.819  1.00 41.48 LIG 0.28  HD
ATOM     67 H1   ALA B   1       7.405 -35.411  -3.610  1.00 41.48 LIG 0.28  HD
ENDBRANCH 62 64
ENDBRANCH 60 62
ENDBRANCH 56 58
ENDBRANCH 53 56
ENDBRANCH 40 52
ENDBRANCH 37 40
ENDBRANCH 1 36
TORSDOF 23
ENDMDL
MODEL 23
USER: ADFR SOLUTION from run 67
USER: SCORE 21.885510 LL:  -6.288 LR: -17.437 RR:   0.000 FEB: -10.576
USER: RMSD 7.750904
USER: SEED 66
USER: STATUS 1 or 2 clusters left
USER: GENES 25
USER: genes 0 Translation |==|  0.52671 0.40136 0.51622
USER: genes 1 Rotation |==|  0.95819 0.69460 0.51670 0.54374
USER: genes 2 Torsion [N]-CA--C-[N] |==|  0.99313
USER: genes 3 Torsion [C]-N--CA-[CB] |==|  0.55849
USER: genes 4 Torsion [N]-CA--CB-[CG] |==|  0.58678
USER: genes 5 Torsion [CA]-CB--CG-[CD1] |==|  0.13574
USER: genes 6 Torsion [N]-CA--C-[N] |==|  0.29995
USER: genes 7 Torsion [C]-N--CA-[C] |==|  0.18793
USER: genes 8 Torsion [N]-CA--CB-[CG] |==|  0.74942
USER: genes 9 Torsion [CA]-CB--CG-[CD] |==|  0.07067
USER: genes 10 Torsion [CB]-CG--CD-[OE2] |==|  0.19429
USER: genes 11 Torsion [N]-CA--C-[N] |==|  0.07655
USER: genes 12 Torsion [C]-N--CA-[CB] |==|  0.46323
USER: genes 13 Torsion [N]-CA--C-[O] |==|  0.80207
USER: genes 14 Torsion [C]-CA--CB-[CG] |==|  0.53671
USER: genes 15 Torsion [CA]-CB--CG-[CD1] |==|  0.47312
USER: genes 16 Torsion [C]-CA--N-[C] |==|  0.20376
USER: genes 17 Torsion [N]-C--CA-[N] |==|  0.14570
USER: genes 18 Torsion [C]-CA--CB-[CG] |==|  0.16985
USER: genes 19 Torsion [CA]-CB--CG-[CD1] |==|  0.14201
USER: genes 20 Torsion [C]-CA--N-[C] |==|  0.71865
USER: genes 21 Torsion [N]-C--CA-[N] |==|  0.85006
USER: genes 22 Torsion [C]-CA--N-[C] |==|  0.86108
USER: genes 23 Torsion [N]-C--CA-[N] |==|  0.86192
USER: genes 24 Torsion [C]-CA--N-[H3] |==|  0.44062
ROOT
ATOM      1  CA  LEU B   4       3.465 -37.012  -9.485  1.00 25.55 LIG 0.18  C 
ENDROOT
BRANCH 1 2
ATOM      2  C   LEU B   4       3.026 -37.595  -8.138  1.00 26.13 LIG 0.24  C 
ATOM      3 O    LEU B   4       1.861 -37.921  -7.992  1.00 25.31 LIG-0.27  OA
ATOM      4  N   PHE B   5       3.962 -37.725  -7.184  1.00 26.68 LIG-0.35  N 
ATOM      5 H    PHE B   5       4.761 -37.413  -7.246  1.00 26.68 LIG 0.16  HD
BRANCH 4 6
ATOM      6  CA  PHE B   5       3.676 -38.435  -5.929  1.00 28.54 LIG 0.18  C 
BRANCH 6 7
ATOM      7  CB  PHE B   5       4.656 -38.032  -4.805  1.00 28.61 LIG 0.07  C 
BRANCH 7 8
ATOM      8  CG  PHE B   5       4.951 -39.102  -3.817  1.00 26.86 LIG-0.06  A 
ATOM      9  CD1 PHE B   5       5.305 -40.369  -4.222  1.00 26.13 LIG 0.01  A 
ATOM     10  CE1 PHE B   5       5.592 -41.362  -3.288  1.00 23.59 LIG 0.00  A 
ATOM     11  CZ  PHE B   5       5.543 -41.077  -1.902  1.00 25.19 LIG 0.00  A 
ATOM     12  CE2 PHE B   5       5.147 -39.821  -1.497  1.00 26.30 LIG 0.00  A 
ATOM     13  CD2 PHE B   5       4.878 -38.836  -2.448  1.00 27.99 LIG 0.01  A 
ENDBRANCH 7 8
ENDBRANCH 6 7
BRANCH 6 14
ATOM     14  C   PHE B   5       2.249 -38.210  -5.424  1.00 31.71 LIG 0.24  C 
ATOM     15  N   GLU B   6       1.405 -39.240  -5.526  1.00 34.73 LIG-0.35  N 
ATOM     16 H    GLU B   6       1.491 -39.862  -6.113  1.00 34.73 LIG 0.16  HD
ATOM     17 O    PHE B   5       1.920 -37.092  -5.015  1.00 30.66 LIG-0.27  OA
BRANCH 15 18
ATOM     18  CA  GLU B   6       0.225 -39.422  -4.631  1.00 38.89 LIG 0.18  C 
BRANCH 18 19
ATOM     19  CB  GLU B   6       0.604 -39.436  -3.145  1.00 39.10 LIG 0.04  C 
BRANCH 19 20
ATOM     20  CG  GLU B   6       0.924 -40.857  -2.608  1.00 43.96 LIG 0.12  C 
BRANCH 20 21
ATOM     21  CD  GLU B   6       1.406 -41.856  -3.672  1.00 49.39 LIG 0.17  C 
ATOM     22 OE1  GLU B   6       0.694 -42.831  -3.988  1.00 53.88 LIG-0.65  OA
ATOM     23 OE2  GLU B   6       2.547 -41.691  -4.179  1.00 56.34 LIG-0.65  OA
ENDBRANCH 20 21
ENDBRANCH 19 20
ENDBRANCH 18 19
BRANCH 18 24
ATOM     24  C   GLU B   6      -0.807 -38.290  -4.933  1.00 41.03 LIG 0.24  C 
ATOM     25 O    GLU B   6      -1.583 -37.848  -4.043  1.00 40.13 LIG-0.27  OA
ATOM     26  N   ALA B   7      -0.761 -37.809  -6.182  1.00 43.76 LIG-0.35  N 
ATOM     27 H    ALA B   7      -0.267 -38.159  -6.792  1.00 43.76 LIG 0.16  HD
BRANCH 26 28
ATOM     28  CA  ALA B   7      -1.547 -36.624  -6.674  1.00 45.80 LIG 0.16  C 
ATOM     29  CB  ALA B   7      -1.003 -36.145  -8.064  1.00 46.43 LIG 0.04  C 
BRANCH 28 30
ATOM     30  C   ALA B   7      -3.035 -36.911  -6.814  1.00 46.67 LIG 0.22  C 
ATOM     31 O    ALA B   7      -3.437 -37.653  -7.725  1.00 48.32 LIG-0.29  OA
ENDBRANCH 28 30
ENDBRANCH 26 28
ENDBRANCH 18 24
ENDBRANCH 15 18
ENDBRANCH 6 14
ENDBRANCH 4 6
ENDBRANCH 1 2
BRANCH 1 32
ATOM     32  CB  LEU B   4       3.126 -38.015 -10.569  1.00 24.11 LIG 0.04  C 
BRANCH 32 33
ATOM     33  CG  LEU B   4       3.792 -37.717 -11.932  1.00 25.40 LIG-0.02  C 
ATOM     34  CD2 LEU B   4       3.228 -36.401 -12.419  1.00 26.98 LIG 0.01  C 
ATOM     35  CD1 LEU B   4       3.677 -38.824 -13.017  1.00 25.06 LIG 0.01  C 
ENDBRANCH 32 33
ENDBRANCH 1 32
BRANCH 1 36
ATOM     36  N   LEU B   4       4.859 -36.621  -9.524  1.00 24.30 LIG-0.35  N 
ATOM     37  C   TRP B   3       5.833 -37.526  -9.577  1.00 25.24 LIG 0.24  C 
ATOM     38 O    TRP B   3       5.618 -38.725  -9.633  1.00 25.23 LIG-0.27  OA
ATOM     39 H    LEU B   4       4.992 -35.771  -9.510  1.00 24.30 LIG 0.16  HD
BRANCH 37 40
ATOM     40  CA  TRP B   3       7.281 -36.996  -9.523  1.00 26.39 LIG 0.18  C 
BRANCH 40 41
ATOM     41  CB  TRP B   3       8.257 -38.172  -9.484  1.00 26.78 LIG 0.07  C 
BRANCH 41 42
ATOM     42  CG  TRP B   3       8.135 -38.979 -10.654  1.00 25.50 LIG-0.03  A 
ATOM     43  CD1 TRP B   3       8.161 -38.550 -11.940  1.00 28.00 LIG 0.10  A 
ATOM     44  NE1 TRP B   3       7.983 -39.600 -12.787  1.00 26.39 LIG-0.36  N 
ATOM     45 HE1  TRP B   3       7.966 -39.551 -13.646  1.00 26.39 LIG 0.17  HD
ATOM     46  CE2 TRP B   3       7.837 -40.740 -12.057  1.00 23.90 LIG 0.04  A 
ATOM     47  CZ2 TRP B   3       7.623 -42.053 -12.482  1.00 23.10 LIG 0.03  A 
ATOM     48  CD2 TRP B   3       7.936 -40.381 -10.703  1.00 23.76 LIG-0.00  A 
ATOM     49  CH2 TRP B   3       7.532 -43.017 -11.534  1.00 22.34 LIG 0.00  A 
ATOM     50  CZ3 TRP B   3       7.610 -42.701 -10.166  1.00 25.34 LIG 0.00  A 
ATOM     51  CE3 TRP B   3       7.807 -41.363  -9.741  1.00 25.10 LIG 0.01  A 
ENDBRANCH 41 42
ENDBRANCH 40 41
BRANCH 40 52
ATOM     52  N   TRP B   3       7.447 -36.115  -8.361  1.00 27.54 LIG-0.35  N 
ATOM     53  C   ALA B   2       7.431 -34.793  -8.564  1.00 31.13 LIG 0.24  C 
ATOM     54 O    ALA B   2       7.299 -34.325  -9.689  1.00 30.30 LIG-0.27  OA
ATOM     55 H    TRP B   3       7.547 -36.505  -7.601  1.00 27.54 LIG 0.16  HD
BRANCH 53 56
ATOM     56  CA  ALA B   2       7.574 -33.866  -7.346  1.00 33.66 LIG 0.17  C 
ATOM     57  CB  ALA B   2       9.001 -33.925  -6.745  1.00 33.40 LIG 0.04  C 
BRANCH 56 58
ATOM     58  N   ALA B   2       6.605 -34.122  -6.274  1.00 35.64 LIG-0.35  N 
ATOM     59 H    ALA B   2       6.946 -34.202  -5.488  1.00 35.64 LIG 0.16  HD
ATOM     60  C   ALA B   1       5.306 -34.217  -6.548  1.00 39.08 LIG 0.25  C 
ATOM     61 O    ALA B   1       4.910 -34.463  -7.666  1.00 40.54 LIG-0.27  OA
BRANCH 60 62
ATOM     62  CA  ALA B   1       4.283 -34.068  -5.393  1.00 41.05 LIG 0.27  C 
ATOM     63  CB  ALA B   1       4.175 -32.595  -4.939  1.00 41.95 LIG 0.05  C 
BRANCH 62 64
ATOM     64  N   ALA B   1       4.612 -34.928  -4.225  1.00 41.48 LIG-0.07  N 
ATOM     65 H3   ALA B   1       4.215 -34.604  -3.497  1.00 41.48 LIG 0.28  HD
ATOM     66 H2   ALA B   1       5.494 -34.937  -4.102  1.00 41.48 LIG 0.28  HD
ATOM     67 H1   ALA B   1       4.324 -35.756  -4.375  1.00 41.48 LIG 0.28  HD
ENDBRANCH 62 64
ENDBRANCH 60 62
ENDBRANCH 56 58
ENDBRANCH 53 56
ENDBRANCH 40 52
ENDBRANCH 37 40
ENDBRANCH 1 36
TORSDOF 23
ENDMDL
MODEL 24
USER: ADFR SOLUTION from run 121
USER: SCORE 22.921716 LL:  -7.266 LR: -17.428 RR:   0.000 FEB: -10.567
USER: RMSD 4.727428
USER: SEED 120
USER: STATUS no improvement in best in 3 clusters for 5 generations
USER: GENES 25
USER: genes 0 Translation |==|  0.48546 0.29622 0.74075
USER: genes 1 Rotation |==|  0.54178 0.60063 0.63302 0.96950
USER: genes 2 Torsion [N]-CA--C-[N] |==|  0.98333
USER: genes 3 Torsion [C]-N--CA-[CB] |==|  0.20337
USER: genes 4 Torsion [N]-CA--CB-[CG] |==|  0.16864
USER: genes 5 Torsion [CA]-CB--CG-[CD1] |==|  0.78262
USER: genes 6 Torsion [N]-CA--C-[N] |==|  0.00256
USER: genes 7 Torsion [C]-N--CA-[C] |==|  0.62957
USER: genes 8 Torsion [N]-CA--CB-[CG] |==|  0.72883
USER: genes 9 Torsion [CA]-CB--CG-[CD] |==|  0.77485
USER: genes 10 Torsion [CB]-CG--CD-[OE2] |==|  0.21981
USER: genes 11 Torsion [N]-CA--C-[N] |==|  0.19611
USER: genes 12 Torsion [C]-N--CA-[CB] |==|  0.83789
USER: genes 13 Torsion [N]-CA--C-[O] |==|  0.78493
USER: genes 14 Torsion [C]-CA--CB-[CG] |==|  0.17972
USER: genes 15 Torsion [CA]-CB--CG-[CD1] |==|  0.27227
USER: genes 16 Torsion [C]-CA--N-[C] |==|  0.73188
USER: genes 17 Torsion [N]-C--CA-[N] |==|  0.97664
USER: genes 18 Torsion [C]-CA--CB-[CG] |==|  0.99471
USER: genes 19 Torsion [CA]-CB--CG-[CD1] |==|  0.29376
USER: genes 20 Torsion [C]-CA--N-[C] |==|  0.80975
USER: genes 21 Torsion [N]-C--CA-[N] |==|  0.99461
USER: genes 22 Torsion [C]-CA--N-[C] |==|  0.56226
USER: genes 23 Torsion [N]-C--CA-[N] |==|  0.89794
USER: genes 24 Torsion [C]-CA--N-[H3] |==|  0.61188
ROOT
ATOM      1  CA  LEU B   4       2.660 -39.220  -4.433  1.00 25.55 LIG 0.18  C 
ENDROOT
BRANCH 1 2
ATOM      2  C   LEU B   4       1.383 -39.261  -5.278  1.00 26.13 LIG 0.24  C 
ATOM      3 O    LEU B   4       0.768 -40.310  -5.360  1.00 25.31 LIG-0.27  OA
ATOM      4  N   PHE B   5       1.002 -38.123  -5.880  1.00 26.68 LIG-0.35  N 
ATOM      5 H    PHE B   5       1.477 -37.407  -5.905  1.00 26.68 LIG 0.16  HD
BRANCH 4 6
ATOM      6  CA  PHE B   5      -0.297 -38.021  -6.560  1.00 28.54 LIG 0.18  C 
BRANCH 6 7
ATOM      7  CB  PHE B   5      -1.468 -37.949  -5.556  1.00 28.61 LIG 0.07  C 
BRANCH 7 8
ATOM      8  CG  PHE B   5      -1.432 -36.784  -4.633  1.00 26.86 LIG-0.06  A 
ATOM      9  CD1 PHE B   5      -0.601 -36.769  -3.537  1.00 26.13 LIG 0.01  A 
ATOM     10  CE1 PHE B   5      -0.565 -35.668  -2.684  1.00 23.59 LIG 0.00  A 
ATOM     11  CZ  PHE B   5      -1.372 -34.533  -2.945  1.00 25.19 LIG 0.00  A 
ATOM     12  CE2 PHE B   5      -2.235 -34.568  -4.018  1.00 26.30 LIG 0.00  A 
ATOM     13  CD2 PHE B   5      -2.245 -35.674  -4.869  1.00 27.99 LIG 0.01  A 
ENDBRANCH 7 8
ENDBRANCH 6 7
BRANCH 6 14
ATOM     14  C   PHE B   5      -0.393 -36.812  -7.494  1.00 31.71 LIG 0.24  C 
ATOM     15  N   GLU B   6       0.691 -36.036  -7.586  1.00 34.73 LIG-0.35  N 
ATOM     16 H    GLU B   6       1.276 -35.968  -6.958  1.00 34.73 LIG 0.16  HD
ATOM     17 O    PHE B   5      -1.461 -36.566  -8.060  1.00 30.66 LIG-0.27  OA
BRANCH 15 18
ATOM     18  CA  GLU B   6       1.002 -35.205  -8.784  1.00 38.89 LIG 0.18  C 
BRANCH 18 19
ATOM     19  CB  GLU B   6       0.690 -33.718  -8.572  1.00 39.10 LIG 0.04  C 
BRANCH 19 20
ATOM     20  CG  GLU B   6      -0.688 -33.293  -9.147  1.00 43.96 LIG 0.12  C 
BRANCH 20 21
ATOM     21  CD  GLU B   6      -0.702 -33.023 -10.659  1.00 49.39 LIG 0.17  C 
ATOM     22 OE1  GLU B   6      -0.710 -31.851 -11.090  1.00 53.88 LIG-0.65  OA
ATOM     23 OE2  GLU B   6      -0.748 -34.006 -11.446  1.00 56.34 LIG-0.65  OA
ENDBRANCH 20 21
ENDBRANCH 19 20
ENDBRANCH 18 19
BRANCH 18 24
ATOM     24  C   GLU B   6       2.503 -35.412  -9.159  1.00 41.03 LIG 0.24  C 
ATOM     25 O    GLU B   6       3.367 -34.517  -8.951  1.00 40.13 LIG-0.27  OA
ATOM     26  N   ALA B   7       2.793 -36.618  -9.665  1.00 43.76 LIG-0.35  N 
ATOM     27 H    ALA B   7       2.185 -37.196  -9.854  1.00 43.76 LIG 0.16  HD
BRANCH 26 28
ATOM     28  CA  ALA B   7       4.182 -37.111  -9.965  1.00 45.80 LIG 0.16  C 
ATOM     29  CB  ALA B   7       4.895 -36.155 -10.984  1.00 46.43 LIG 0.04  C 
BRANCH 28 30
ATOM     30  C   ALA B   7       5.055 -37.227  -8.725  1.00 46.67 LIG 0.22  C 
ATOM     31 O    ALA B   7       5.554 -36.206  -8.223  1.00 48.32 LIG-0.29  OA
ENDBRANCH 28 30
ENDBRANCH 26 28
ENDBRANCH 18 24
ENDBRANCH 15 18
ENDBRANCH 6 14
ENDBRANCH 4 6
ENDBRANCH 1 2
BRANCH 1 32
ATOM     32  CB  LEU B   4       2.298 -39.580  -3.006  1.00 24.11 LIG 0.04  C 
BRANCH 32 33
ATOM     33  CG  LEU B   4       1.780 -41.026  -2.835  1.00 25.40 LIG-0.02  C 
ATOM     34  CD2 LEU B   4       0.582 -40.959  -1.913  1.00 26.98 LIG 0.01  C 
ATOM     35  CD1 LEU B   4       2.814 -42.080  -2.350  1.00 25.06 LIG 0.01  C 
ENDBRANCH 32 33
ENDBRANCH 1 32
BRANCH 1 36
ATOM     36  N   LEU B   4       3.371 -37.960  -4.512  1.00 24.30 LIG-0.35  N 
ATOM     37  C   TRP B   3       4.394 -37.792  -5.347  1.00 25.24 LIG 0.24  C 
ATOM     38 O    TRP B   3       4.770 -38.662  -6.114  1.00 25.23 LIG-0.27  OA
ATOM     39 H    LEU B   4       3.076 -37.350  -3.982  1.00 24.30 LIG 0.16  HD
BRANCH 37 40
ATOM     40  CA  TRP B   3       5.133 -36.439  -5.280  1.00 26.39 LIG 0.18  C 
BRANCH 40 41
ATOM     41  CB  TRP B   3       6.566 -36.660  -4.795  1.00 26.78 LIG 0.07  C 
BRANCH 41 42
ATOM     42  CG  TRP B   3       6.801 -38.036  -4.501  1.00 25.50 LIG-0.03  A 
ATOM     43  CD1 TRP B   3       7.521 -38.911  -5.243  1.00 28.00 LIG 0.10  A 
ATOM     44  NE1 TRP B   3       7.501 -40.143  -4.665  1.00 26.39 LIG-0.36  N 
ATOM     45 HE1  TRP B   3       7.894 -40.845  -4.971  1.00 26.39 LIG 0.17  HD
ATOM     46  CE2 TRP B   3       6.758 -40.087  -3.525  1.00 23.90 LIG 0.04  A 
ATOM     47  CZ2 TRP B   3       6.446 -41.094  -2.610  1.00 23.10 LIG 0.03  A 
ATOM     48  CD2 TRP B   3       6.307 -38.763  -3.389  1.00 23.76 LIG-0.00  A 
ATOM     49  CH2 TRP B   3       5.693 -40.759  -1.535  1.00 22.34 LIG 0.00  A 
ATOM     50  CZ3 TRP B   3       5.207 -39.451  -1.366  1.00 25.34 LIG 0.00  A 
ATOM     51  CE3 TRP B   3       5.511 -38.437  -2.310  1.00 25.10 LIG 0.01  A 
ENDBRANCH 41 42
ENDBRANCH 40 41
BRANCH 40 52
ATOM     52  N   TRP B   3       4.401 -35.513  -4.408  1.00 27.54 LIG-0.35  N 
ATOM     53  C   ALA B   2       3.212 -35.062  -4.821  1.00 31.13 LIG 0.24  C 
ATOM     54 O    ALA B   2       2.749 -35.396  -5.906  1.00 30.30 LIG-0.27  OA
ATOM     55 H    TRP B   3       4.786 -35.309  -3.666  1.00 27.54 LIG 0.16  HD
BRANCH 53 56
ATOM     56  CA  ALA B   2       2.428 -34.116  -3.896  1.00 33.66 LIG 0.17  C 
ATOM     57  CB  ALA B   2       2.126 -32.762  -4.587  1.00 33.40 LIG 0.04  C 
BRANCH 56 58
ATOM     58  N   ALA B   2       3.083 -33.848  -2.610  1.00 35.64 LIG-0.35  N 
ATOM     59 H    ALA B   2       3.933 -33.976  -2.602  1.00 35.64 LIG 0.16  HD
ATOM     60  C   ALA B   1       2.370 -33.440  -1.563  1.00 39.08 LIG 0.25  C 
ATOM     61 O    ALA B   1       1.173 -33.621  -1.502  1.00 40.54 LIG-0.27  OA
BRANCH 60 62
ATOM     62  CA  ALA B   1       3.102 -32.774  -0.371  1.00 41.05 LIG 0.27  C 
ATOM     63  CB  ALA B   1       3.272 -31.256  -0.608  1.00 41.95 LIG 0.05  C 
BRANCH 62 64
ATOM     64  N   ALA B   1       4.429 -33.388  -0.100  1.00 41.48 LIG-0.07  N 
ATOM     65 H3   ALA B   1       4.551 -33.455   0.779  1.00 41.48 LIG 0.28  HD
ATOM     66 H2   ALA B   1       5.069 -32.878  -0.450  1.00 41.48 LIG 0.28  HD
ATOM     67 H1   ALA B   1       4.462 -34.198  -0.466  1.00 41.48 LIG 0.28  HD
ENDBRANCH 62 64
ENDBRANCH 60 62
ENDBRANCH 56 58
ENDBRANCH 53 56
ENDBRANCH 40 52
ENDBRANCH 37 40
ENDBRANCH 1 36
TORSDOF 23
ENDMDL
MODEL 25
USER: ADFR SOLUTION from run 98
USER: SCORE 20.597498 LL:  -5.926 LR: -17.418 RR:   0.000 FEB: -10.557
USER: RMSD 10.159562
USER: SEED 97
USER: STATUS no improvement in best in 22 clusters for 5 generations
USER: GENES 25
USER: genes 0 Translation |==|  0.62265 0.23638 0.40994
USER: genes 1 Rotation |==|  0.53937 0.26889 0.73013 0.87693
USER: genes 2 Torsion [N]-CA--C-[N] |==|  0.78926
USER: genes 3 Torsion [C]-N--CA-[CB] |==|  0.53333
USER: genes 4 Torsion [N]-CA--CB-[CG] |==|  0.47667
USER: genes 5 Torsion [CA]-CB--CG-[CD1] |==|  0.19442
USER: genes 6 Torsion [N]-CA--C-[N] |==|  0.35817
USER: genes 7 Torsion [C]-N--CA-[C] |==|  0.64987
USER: genes 8 Torsion [N]-CA--CB-[CG] |==|  0.85330
USER: genes 9 Torsion [CA]-CB--CG-[CD] |==|  0.38070
USER: genes 10 Torsion [CB]-CG--CD-[OE2] |==|  0.55788
USER: genes 11 Torsion [N]-CA--C-[N] |==|  0.83398
USER: genes 12 Torsion [C]-N--CA-[CB] |==|  0.32683
USER: genes 13 Torsion [N]-CA--C-[O] |==|  0.11006
USER: genes 14 Torsion [C]-CA--CB-[CG] |==|  0.28161
USER: genes 15 Torsion [CA]-CB--CG-[CD1] |==|  0.06121
USER: genes 16 Torsion [C]-CA--N-[C] |==|  0.18603
USER: genes 17 Torsion [N]-C--CA-[N] |==|  0.90729
USER: genes 18 Torsion [C]-CA--CB-[CG] |==|  0.17216
USER: genes 19 Torsion [CA]-CB--CG-[CD1] |==|  0.73857
USER: genes 20 Torsion [C]-CA--N-[C] |==|  0.66624
USER: genes 21 Torsion [N]-C--CA-[N] |==|  0.18506
USER: genes 22 Torsion [C]-CA--N-[C] |==|  0.68156
USER: genes 23 Torsion [N]-C--CA-[N] |==|  0.89941
USER: genes 24 Torsion [C]-CA--N-[H3] |==|  0.97850
ROOT
ATOM      1  CA  LEU B   4       5.336 -40.477 -11.876  1.00 25.55 LIG 0.18  C 
ENDROOT
BRANCH 1 2
ATOM      2  C   LEU B   4       5.780 -40.033 -13.273  1.00 26.13 LIG 0.24  C 
ATOM      3 O    LEU B   4       6.973 -39.979 -13.519  1.00 25.31 LIG-0.27  OA
ATOM      4  N   PHE B   5       4.821 -39.734 -14.164  1.00 26.68 LIG-0.35  N 
ATOM      5 H    PHE B   5       3.984 -39.679 -13.972  1.00 26.68 LIG 0.16  HD
BRANCH 4 6
ATOM      6  CA  PHE B   5       5.146 -39.473 -15.573  1.00 28.54 LIG 0.18  C 
BRANCH 6 7
ATOM      7  CB  PHE B   5       3.947 -38.867 -16.336  1.00 28.61 LIG 0.07  C 
BRANCH 7 8
ATOM      8  CG  PHE B   5       4.254 -38.394 -17.712  1.00 26.86 LIG-0.06  A 
ATOM      9  CD1 PHE B   5       4.533 -39.282 -18.725  1.00 26.13 LIG 0.01  A 
ATOM     10  CE1 PHE B   5       4.808 -38.829 -20.014  1.00 23.59 LIG 0.00  A 
ATOM     11  CZ  PHE B   5       4.783 -37.444 -20.307  1.00 25.19 LIG 0.00  A 
ATOM     12  CE2 PHE B   5       4.547 -36.555 -19.282  1.00 26.30 LIG 0.00  A 
ATOM     13  CD2 PHE B   5       4.259 -37.028 -18.001  1.00 27.99 LIG 0.01  A 
ENDBRANCH 7 8
ENDBRANCH 6 7
BRANCH 6 14
ATOM     14  C   PHE B   5       6.346 -38.540 -15.750  1.00 31.71 LIG 0.24  C 
ATOM     15  N   GLU B   6       7.317 -38.956 -16.569  1.00 34.73 LIG-0.35  N 
ATOM     16 H    GLU B   6       7.472 -39.787 -16.731  1.00 34.73 LIG 0.16  HD
ATOM     17 O    PHE B   5       6.405 -37.496 -15.093  1.00 30.66 LIG-0.27  OA
BRANCH 15 18
ATOM     18  CA  GLU B   6       8.232 -38.026 -17.290  1.00 38.89 LIG 0.18  C 
BRANCH 18 19
ATOM     19  CB  GLU B   6       9.672 -38.084 -16.764  1.00 39.10 LIG 0.04  C 
BRANCH 19 20
ATOM     20  CG  GLU B   6       9.771 -37.885 -15.228  1.00 43.96 LIG 0.12  C 
BRANCH 20 21
ATOM     21  CD  GLU B   6      10.743 -38.838 -14.515  1.00 49.39 LIG 0.17  C 
ATOM     22 OE1  GLU B   6      11.622 -39.441 -15.162  1.00 53.88 LIG-0.65  OA
ATOM     23 OE2  GLU B   6      10.601 -39.027 -13.277  1.00 56.34 LIG-0.65  OA
ENDBRANCH 20 21
ENDBRANCH 19 20
ENDBRANCH 18 19
BRANCH 18 24
ATOM     24  C   GLU B   6       8.181 -38.358 -18.814  1.00 41.03 LIG 0.24  C 
ATOM     25 O    GLU B   6       7.858 -37.491 -19.671  1.00 40.13 LIG-0.27  OA
ATOM     26  N   ALA B   7       8.549 -39.608 -19.128  1.00 43.76 LIG-0.35  N 
ATOM     27 H    ALA B   7       8.712 -40.203 -18.529  1.00 43.76 LIG 0.16  HD
BRANCH 26 28
ATOM     28  CA  ALA B   7       8.724 -40.125 -20.530  1.00 45.80 LIG 0.16  C 
ATOM     29  CB  ALA B   7      10.211 -40.561 -20.771  1.00 46.43 LIG 0.04  C 
BRANCH 28 30
ATOM     30  C   ALA B   7       7.819 -41.305 -20.848  1.00 46.67 LIG 0.22  C 
ATOM     31 O    ALA B   7       6.649 -41.316 -20.430  1.00 48.32 LIG-0.29  OA
ENDBRANCH 28 30
ENDBRANCH 26 28
ENDBRANCH 18 24
ENDBRANCH 15 18
ENDBRANCH 6 14
ENDBRANCH 4 6
ENDBRANCH 1 2
BRANCH 1 32
ATOM     32  CB  LEU B   4       4.287 -41.559 -12.033  1.00 24.11 LIG 0.04  C 
BRANCH 32 33
ATOM     33  CG  LEU B   4       4.824 -42.992 -11.811  1.00 25.40 LIG-0.02  C 
ATOM     34  CD2 LEU B   4       3.695 -43.797 -11.208  1.00 26.98 LIG 0.01  C 
ATOM     35  CD1 LEU B   4       6.127 -43.121 -10.975  1.00 25.06 LIG 0.01  C 
ENDBRANCH 32 33
ENDBRANCH 1 32
BRANCH 1 36
ATOM     36  N   LEU B   4       4.872 -39.389 -11.039  1.00 24.30 LIG-0.35  N 
ATOM     37  C   TRP B   3       3.756 -38.722 -11.323  1.00 25.24 LIG 0.24  C 
ATOM     38 O    TRP B   3       3.042 -39.003 -12.271  1.00 25.23 LIG-0.27  OA
ATOM     39 H    LEU B   4       5.375 -39.221 -10.362  1.00 24.30 LIG 0.16  HD
BRANCH 37 40
ATOM     40  CA  TRP B   3       3.409 -37.525 -10.414  1.00 26.39 LIG 0.18  C 
BRANCH 40 41
ATOM     41  CB  TRP B   3       4.042 -36.252 -10.976  1.00 26.78 LIG 0.07  C 
BRANCH 41 42
ATOM     42  CG  TRP B   3       3.527 -35.954 -12.273  1.00 25.50 LIG-0.03  A 
ATOM     43  CD1 TRP B   3       4.070 -36.313 -13.462  1.00 28.00 LIG 0.10  A 
ATOM     44  NE1 TRP B   3       3.317 -35.825 -14.486  1.00 26.39 LIG-0.36  N 
ATOM     45 HE1  TRP B   3       3.481 -35.936 -15.323  1.00 26.39 LIG 0.17  HD
ATOM     46  CE2 TRP B   3       2.262 -35.135 -13.972  1.00 23.90 LIG 0.04  A 
ATOM     47  CZ2 TRP B   3       1.234 -34.455 -14.628  1.00 23.10 LIG 0.03  A 
ATOM     48  CD2 TRP B   3       2.362 -35.204 -12.573  1.00 23.76 LIG-0.00  A 
ATOM     49  CH2 TRP B   3       0.285 -33.859 -13.866  1.00 22.34 LIG 0.00  A 
ATOM     50  CZ3 TRP B   3       0.354 -33.890 -12.462  1.00 25.34 LIG 0.00  A 
ATOM     51  CE3 TRP B   3       1.411 -34.566 -11.803  1.00 25.10 LIG 0.01  A 
ENDBRANCH 41 42
ENDBRANCH 40 41
BRANCH 40 52
ATOM     52  N   TRP B   3       3.857 -37.793  -9.042  1.00 27.54 LIG-0.35  N 
ATOM     53  C   ALA B   2       2.940 -37.804  -8.068  1.00 31.13 LIG 0.24  C 
ATOM     54 O    ALA B   2       1.759 -37.580  -8.307  1.00 30.30 LIG-0.27  OA
ATOM     55 H    TRP B   3       4.700 -37.931  -8.940  1.00 27.54 LIG 0.16  HD
BRANCH 53 56
ATOM     56  CA  ALA B   2       3.401 -38.115  -6.635  1.00 33.66 LIG 0.17  C 
ATOM     57  CB  ALA B   2       2.198 -38.341  -5.684  1.00 33.40 LIG 0.04  C 
BRANCH 56 58
ATOM     58  N   ALA B   2       4.276 -37.095  -6.047  1.00 35.64 LIG-0.35  N 
ATOM     59 H    ALA B   2       3.906 -36.329  -5.919  1.00 35.64 LIG 0.16  HD
ATOM     60  C   ALA B   1       5.542 -37.382  -5.750  1.00 39.08 LIG 0.25  C 
ATOM     61 O    ALA B   1       6.117 -38.316  -6.265  1.00 40.54 LIG-0.27  OA
BRANCH 60 62
ATOM     62  CA  ALA B   1       6.310 -36.460  -4.771  1.00 41.05 LIG 0.27  C 
ATOM     63  CB  ALA B   1       6.079 -36.897  -3.306  1.00 41.95 LIG 0.05  C 
BRANCH 62 64
ATOM     64  N   ALA B   1       5.944 -35.027  -4.928  1.00 41.48 LIG-0.07  N 
ATOM     65 H3   ALA B   1       5.421 -34.931  -5.641  1.00 41.48 LIG 0.28  HD
ATOM     66 H2   ALA B   1       6.683 -34.542  -5.034  1.00 41.48 LIG 0.28  HD
ATOM     67 H1   ALA B   1       5.509 -34.750  -4.203  1.00 41.48 LIG 0.28  HD
ENDBRANCH 62 64
ENDBRANCH 60 62
ENDBRANCH 56 58
ENDBRANCH 53 56
ENDBRANCH 40 52
ENDBRANCH 37 40
ENDBRANCH 1 36
TORSDOF 23
ENDMDL
MODEL 26
USER: ADFR SOLUTION from run 64
USER: SCORE 20.784653 LL:  -5.841 LR: -17.403 RR:   0.000 FEB: -10.542
USER: RMSD 5.912427
USER: SEED 63
USER: STATUS no improvement in best in 3 clusters for 5 generations
USER: GENES 25
USER: genes 0 Translation |==|  0.35779 0.41786 0.58161
USER: genes 1 Rotation |==|  0.62503 0.18719 0.38274 0.85038
USER: genes 2 Torsion [N]-CA--C-[N] |==|  0.32092
USER: genes 3 Torsion [C]-N--CA-[CB] |==|  0.40434
USER: genes 4 Torsion [N]-CA--CB-[CG] |==|  0.19064
USER: genes 5 Torsion [CA]-CB--CG-[CD1] |==|  0.81212
USER: genes 6 Torsion [N]-CA--C-[N] |==|  0.96247
USER: genes 7 Torsion [C]-N--CA-[C] |==|  0.66261
USER: genes 8 Torsion [N]-CA--CB-[CG] |==|  0.95495
USER: genes 9 Torsion [CA]-CB--CG-[CD] |==|  0.43571
USER: genes 10 Torsion [CB]-CG--CD-[OE2] |==|  0.56241
USER: genes 11 Torsion [N]-CA--C-[N] |==|  0.21124
USER: genes 12 Torsion [C]-N--CA-[CB] |==|  0.46444
USER: genes 13 Torsion [N]-CA--C-[O] |==|  0.57048
USER: genes 14 Torsion [C]-CA--CB-[CG] |==|  0.49861
USER: genes 15 Torsion [CA]-CB--CG-[CD1] |==|  0.34823
USER: genes 16 Torsion [C]-CA--N-[C] |==|  0.76099
USER: genes 17 Torsion [N]-C--CA-[N] |==|  0.04613
USER: genes 18 Torsion [C]-CA--CB-[CG] |==|  0.35361
USER: genes 19 Torsion [CA]-CB--CG-[CD1] |==|  0.31371
USER: genes 20 Torsion [C]-CA--N-[C] |==|  0.76014
USER: genes 21 Torsion [N]-C--CA-[N] |==|  0.48330
USER: genes 22 Torsion [C]-CA--N-[C] |==|  0.75151
USER: genes 23 Torsion [N]-C--CA-[N] |==|  0.05677
USER: genes 24 Torsion [C]-CA--N-[H3] |==|  0.04892
ROOT
ATOM      1  CA  LEU B   4       0.171 -36.666  -8.014  1.00 25.55 LIG 0.18  C 
ENDROOT
BRANCH 1 2
ATOM      2  C   LEU B   4       1.392 -35.863  -8.473  1.00 26.13 LIG 0.24  C 
ATOM      3 O    LEU B   4       1.534 -34.724  -8.060  1.00 25.31 LIG-0.27  OA
ATOM      4  N   PHE B   5       2.254 -36.467  -9.306  1.00 26.68 LIG-0.35  N 
ATOM      5 H    PHE B   5       2.114 -37.231  -9.675  1.00 26.68 LIG 0.16  HD
BRANCH 4 6
ATOM      6  CA  PHE B   5       3.538 -35.843  -9.657  1.00 28.54 LIG 0.18  C 
BRANCH 6 7
ATOM      7  CB  PHE B   5       4.654 -36.893  -9.850  1.00 28.61 LIG 0.07  C 
BRANCH 7 8
ATOM      8  CG  PHE B   5       4.495 -37.763 -11.046  1.00 26.86 LIG-0.06  A 
ATOM      9  CD1 PHE B   5       3.473 -38.679 -11.130  1.00 26.13 LIG 0.01  A 
ATOM     10  CE1 PHE B   5       3.326 -39.482 -12.260  1.00 23.59 LIG 0.00  A 
ATOM     11  CZ  PHE B   5       4.218 -39.351 -13.352  1.00 25.19 LIG 0.00  A 
ATOM     12  CE2 PHE B   5       5.267 -38.464 -13.247  1.00 26.30 LIG 0.00  A 
ATOM     13  CD2 PHE B   5       5.388 -37.659 -12.114  1.00 27.99 LIG 0.01  A 
ENDBRANCH 7 8
ENDBRANCH 6 7
BRANCH 6 14
ATOM     14  C   PHE B   5       3.463 -34.985 -10.922  1.00 31.71 LIG 0.24  C 
ATOM     15  N   GLU B   6       2.374 -35.129 -11.683  1.00 34.73 LIG-0.35  N 
ATOM     16 H    GLU B   6       1.904 -35.849 -11.701  1.00 34.73 LIG 0.16  HD
ATOM     17 O    PHE B   5       4.417 -34.262 -11.222  1.00 30.66 LIG-0.27  OA
BRANCH 15 18
ATOM     18  CA  GLU B   6       1.856 -34.055 -12.580  1.00 38.89 LIG 0.18  C 
BRANCH 18 19
ATOM     19  CB  GLU B   6       1.928 -34.437 -14.064  1.00 39.10 LIG 0.04  C 
BRANCH 19 20
ATOM     20  CG  GLU B   6       2.863 -35.644 -14.342  1.00 43.96 LIG 0.12  C 
BRANCH 20 21
ATOM     21  CD  GLU B   6       2.562 -36.409 -15.641  1.00 49.39 LIG 0.17  C 
ATOM     22 OE1  GLU B   6       1.910 -35.865 -16.555  1.00 53.88 LIG-0.65  OA
ATOM     23 OE2  GLU B   6       2.952 -37.602 -15.740  1.00 56.34 LIG-0.65  OA
ENDBRANCH 20 21
ENDBRANCH 19 20
ENDBRANCH 18 19
BRANCH 18 24
ATOM     24  C   GLU B   6       0.392 -33.718 -12.160  1.00 41.03 LIG 0.24  C 
ATOM     25 O    GLU B   6      -0.599 -34.155 -12.806  1.00 40.13 LIG-0.27  OA
ATOM     26  N   ALA B   7       0.283 -32.979 -11.048  1.00 43.76 LIG-0.35  N 
ATOM     27 H    ALA B   7       0.968 -32.642 -10.651  1.00 43.76 LIG 0.16  HD
BRANCH 26 28
ATOM     28  CA  ALA B   7      -1.014 -32.647 -10.361  1.00 45.80 LIG 0.16  C 
ATOM     29  CB  ALA B   7      -0.742 -32.052  -8.936  1.00 46.43 LIG 0.04  C 
BRANCH 28 30
ATOM     30  C   ALA B   7      -1.866 -31.657 -11.140  1.00 46.67 LIG 0.22  C 
ATOM     31 O    ALA B   7      -2.686 -30.942 -10.540  1.00 48.32 LIG-0.29  OA
ENDBRANCH 28 30
ENDBRANCH 26 28
ENDBRANCH 18 24
ENDBRANCH 15 18
ENDBRANCH 6 14
ENDBRANCH 4 6
ENDBRANCH 1 2
BRANCH 1 32
ATOM     32  CB  LEU B   4      -1.076 -35.938  -8.472  1.00 24.11 LIG 0.04  C 
BRANCH 32 33
ATOM     33  CG  LEU B   4      -2.395 -36.646  -8.086  1.00 25.40 LIG-0.02  C 
ATOM     34  CD2 LEU B   4      -2.991 -37.195  -9.363  1.00 26.98 LIG 0.01  C 
ATOM     35  CD1 LEU B   4      -3.429 -35.800  -7.292  1.00 25.06 LIG 0.01  C 
ENDBRANCH 32 33
ENDBRANCH 1 32
BRANCH 1 36
ATOM     36  N   LEU B   4       0.151 -36.933  -6.590  1.00 24.30 LIG-0.35  N 
ATOM     37  C   TRP B   3       0.779 -37.987  -6.073  1.00 25.24 LIG 0.24  C 
ATOM     38 O    TRP B   3       1.432 -38.764  -6.750  1.00 25.23 LIG-0.27  OA
ATOM     39 H    LEU B   4      -0.292 -36.361  -6.125  1.00 24.30 LIG 0.16  HD
BRANCH 37 40
ATOM     40  CA  TRP B   3       0.614 -38.222  -4.558  1.00 26.39 LIG 0.18  C 
BRANCH 40 41
ATOM     41  CB  TRP B   3       0.449 -39.718  -4.284  1.00 26.78 LIG 0.07  C 
BRANCH 41 42
ATOM     42  CG  TRP B   3       1.384 -40.165  -3.303  1.00 25.50 LIG-0.03  A 
ATOM     43  CD1 TRP B   3       1.098 -40.606  -2.054  1.00 28.00 LIG 0.10  A 
ATOM     44  NE1 TRP B   3       2.247 -40.919  -1.395  1.00 26.39 LIG-0.36  N 
ATOM     45 HE1  TRP B   3       2.295 -41.218  -0.589  1.00 26.39 LIG 0.17  HD
ATOM     46  CE2 TRP B   3       3.309 -40.682  -2.214  1.00 23.90 LIG 0.04  A 
ATOM     47  CZ2 TRP B   3       4.675 -40.842  -1.976  1.00 23.10 LIG 0.03  A 
ATOM     48  CD2 TRP B   3       2.795 -40.211  -3.433  1.00 23.76 LIG-0.00  A 
ATOM     49  CH2 TRP B   3       5.530 -40.547  -2.985  1.00 22.34 LIG 0.00  A 
ATOM     50  CZ3 TRP B   3       5.061 -40.059  -4.216  1.00 25.34 LIG 0.00  A 
ATOM     51  CE3 TRP B   3       3.673 -39.880  -4.445  1.00 25.10 LIG 0.01  A 
ENDBRANCH 41 42
ENDBRANCH 40 41
BRANCH 40 52
ATOM     52  N   TRP B   3      -0.528 -37.450  -4.053  1.00 27.54 LIG-0.35  N 
ATOM     53  C   ALA B   2      -0.320 -36.181  -3.687  1.00 31.13 LIG 0.24  C 
ATOM     54 O    ALA B   2       0.796 -35.677  -3.752  1.00 30.30 LIG-0.27  OA
ATOM     55 H    TRP B   3      -1.281 -37.865  -4.021  1.00 27.54 LIG 0.16  HD
BRANCH 53 56
ATOM     56  CA  ALA B   2      -1.519 -35.359  -3.187  1.00 33.66 LIG 0.17  C 
ATOM     57  CB  ALA B   2      -2.600 -35.199  -4.286  1.00 33.40 LIG 0.04  C 
BRANCH 56 58
ATOM     58  N   ALA B   2      -1.170 -34.027  -2.679  1.00 35.64 LIG-0.35  N 
ATOM     59 H    ALA B   2      -1.184 -33.399  -3.266  1.00 35.64 LIG 0.16  HD
ATOM     60  C   ALA B   1      -0.861 -33.855  -1.395  1.00 39.08 LIG 0.25  C 
ATOM     61 O    ALA B   1      -0.499 -34.781  -0.701  1.00 40.54 LIG-0.27  OA
BRANCH 60 62
ATOM     62  CA  ALA B   1      -0.907 -32.427  -0.797  1.00 41.05 LIG 0.27  C 
ATOM     63  CB  ALA B   1      -1.417 -32.457   0.662  1.00 41.95 LIG 0.05  C 
BRANCH 62 64
ATOM     64  N   ALA B   1      -1.746 -31.498  -1.600  1.00 41.48 LIG-0.07  N 
ATOM     65 H3   ALA B   1      -2.279 -31.968  -2.136  1.00 41.48 LIG 0.28  HD
ATOM     66 H2   ALA B   1      -1.221 -30.972  -2.090  1.00 41.48 LIG 0.28  HD
ATOM     67 H1   ALA B   1      -2.241 -30.999  -1.055  1.00 41.48 LIG 0.28  HD
ENDBRANCH 62 64
ENDBRANCH 60 62
ENDBRANCH 56 58
ENDBRANCH 53 56
ENDBRANCH 40 52
ENDBRANCH 37 40
ENDBRANCH 1 36
TORSDOF 23
ENDMDL
MODEL 27
USER: ADFR SOLUTION from run 9
USER: SCORE 23.121102 LL:  -6.571 LR: -17.382 RR:   0.000 FEB: -10.521
USER: RMSD 8.247333
USER: SEED 418147
USER: STATUS no improvement in best in 4 clusters for 5 generations
USER: GENES 25
USER: genes 0 Translation |==|  0.42283 0.38299 0.60923
USER: genes 1 Rotation |==|  0.53837 0.24529 0.22407 0.82789
USER: genes 2 Torsion [N]-CA--C-[N] |==|  0.45993
USER: genes 3 Torsion [C]-N--CA-[CB] |==|  0.79422
USER: genes 4 Torsion [N]-CA--CB-[CG] |==|  0.48341
USER: genes 5 Torsion [CA]-CB--CG-[CD1] |==|  0.18655
USER: genes 6 Torsion [N]-CA--C-[N] |==|  0.24264
USER: genes 7 Torsion [C]-N--CA-[C] |==|  0.80890
USER: genes 8 Torsion [N]-CA--CB-[CG] |==|  0.63558
USER: genes 9 Torsion [CA]-CB--CG-[CD] |==|  0.35096
USER: genes 10 Torsion [CB]-CG--CD-[OE2] |==|  0.54214
USER: genes 11 Torsion [N]-CA--C-[N] |==|  0.43862
USER: genes 12 Torsion [C]-N--CA-[CB] |==|  0.88701
USER: genes 13 Torsion [N]-CA--C-[O] |==|  0.29975
USER: genes 14 Torsion [C]-CA--CB-[CG] |==|  0.24278
USER: genes 15 Torsion [CA]-CB--CG-[CD1] |==|  0.17909
USER: genes 16 Torsion [C]-CA--N-[C] |==|  0.63889
USER: genes 17 Torsion [N]-C--CA-[N] |==|  0.95402
USER: genes 18 Torsion [C]-CA--CB-[CG] |==|  0.85775
USER: genes 19 Torsion [CA]-CB--CG-[CD1] |==|  0.76913
USER: genes 20 Torsion [C]-CA--N-[C] |==|  0.73958
USER: genes 21 Torsion [N]-C--CA-[N] |==|  0.88019
USER: genes 22 Torsion [C]-CA--N-[C] |==|  0.76667
USER: genes 23 Torsion [N]-C--CA-[N] |==|  0.85742
USER: genes 24 Torsion [C]-CA--N-[H3] |==|  0.84238
ROOT
ATOM      1  CA  LEU B   4       1.439 -37.398  -7.392  1.00 25.55 LIG 0.18  C 
ENDROOT
BRANCH 1 2
ATOM      2  C   LEU B   4       2.732 -37.283  -8.207  1.00 26.13 LIG 0.24  C 
ATOM      3 O    LEU B   4       3.796 -37.491  -7.650  1.00 25.31 LIG-0.27  OA
ATOM      4  N   PHE B   5       2.619 -36.966  -9.506  1.00 26.68 LIG-0.35  N 
ATOM      5 H    PHE B   5       1.884 -36.727  -9.884  1.00 26.68 LIG 0.16  HD
BRANCH 4 6
ATOM      6  CA  PHE B   5       3.783 -37.008 -10.403  1.00 28.54 LIG 0.18  C 
BRANCH 6 7
ATOM      7  CB  PHE B   5       4.742 -35.822 -10.157  1.00 28.61 LIG 0.07  C 
BRANCH 7 8
ATOM      8  CG  PHE B   5       6.011 -35.871 -10.929  1.00 26.86 LIG-0.06  A 
ATOM      9  CD1 PHE B   5       6.018 -35.739 -12.299  1.00 26.13 LIG 0.01  A 
ATOM     10  CE1 PHE B   5       7.214 -35.774 -13.013  1.00 23.59 LIG 0.00  A 
ATOM     11  CZ  PHE B   5       8.448 -35.926 -12.335  1.00 25.19 LIG 0.00  A 
ATOM     12  CE2 PHE B   5       8.436 -36.101 -10.968  1.00 26.30 LIG 0.00  A 
ATOM     13  CD2 PHE B   5       7.229 -36.048 -10.270  1.00 27.99 LIG 0.01  A 
ENDBRANCH 7 8
ENDBRANCH 6 7
BRANCH 6 14
ATOM     14  C   PHE B   5       4.587 -38.305 -10.284  1.00 31.71 LIG 0.24  C 
ATOM     15  N   GLU B   6       4.195 -39.328 -11.049  1.00 34.73 LIG-0.35  N 
ATOM     16 H    GLU B   6       3.387 -39.422 -11.331  1.00 34.73 LIG 0.16  HD
ATOM     17 O    PHE B   5       5.500 -38.379  -9.458  1.00 30.66 LIG-0.27  OA
BRANCH 15 18
ATOM     18  CA  GLU B   6       5.114 -40.414 -11.496  1.00 38.89 LIG 0.18  C 
BRANCH 18 19
ATOM     19  CB  GLU B   6       4.369 -41.609 -12.104  1.00 39.10 LIG 0.04  C 
BRANCH 19 20
ATOM     20  CG  GLU B   6       4.826 -42.975 -11.525  1.00 43.96 LIG 0.12  C 
BRANCH 20 21
ATOM     21  CD  GLU B   6       3.694 -43.853 -10.970  1.00 49.39 LIG 0.17  C 
ATOM     22 OE1  GLU B   6       2.503 -43.574 -11.215  1.00 53.88 LIG-0.65  OA
ATOM     23 OE2  GLU B   6       3.996 -44.828 -10.232  1.00 56.34 LIG-0.65  OA
ENDBRANCH 20 21
ENDBRANCH 19 20
ENDBRANCH 18 19
BRANCH 18 24
ATOM     24  C   GLU B   6       6.134 -39.815 -12.514  1.00 41.03 LIG 0.24  C 
ATOM     25 O    GLU B   6       5.905 -38.735 -13.123  1.00 40.13 LIG-0.27  OA
ATOM     26  N   ALA B   7       7.271 -40.512 -12.644  1.00 43.76 LIG-0.35  N 
ATOM     27 H    ALA B   7       7.389 -41.275 -12.266  1.00 43.76 LIG 0.16  HD
BRANCH 26 28
ATOM     28  CA  ALA B   7       8.463 -40.067 -13.447  1.00 45.80 LIG 0.16  C 
ATOM     29  CB  ALA B   7       8.002 -39.409 -14.793  1.00 46.43 LIG 0.04  C 
BRANCH 28 30
ATOM     30  C   ALA B   7       9.346 -39.075 -12.705  1.00 46.67 LIG 0.22  C 
ATOM     31 O    ALA B   7      10.457 -39.434 -12.280  1.00 48.32 LIG-0.29  OA
ENDBRANCH 28 30
ENDBRANCH 26 28
ENDBRANCH 18 24
ENDBRANCH 15 18
ENDBRANCH 6 14
ENDBRANCH 4 6
ENDBRANCH 1 2
BRANCH 1 32
ATOM     32  CB  LEU B   4       0.847 -36.012  -7.243  1.00 24.11 LIG 0.04  C 
BRANCH 32 33
ATOM     33  CG  LEU B   4      -0.084 -35.597  -8.406  1.00 25.40 LIG-0.02  C 
ATOM     34  CD2 LEU B   4      -0.382 -34.125  -8.229  1.00 26.98 LIG 0.01  C 
ATOM     35  CD1 LEU B   4      -1.388 -36.426  -8.579  1.00 25.06 LIG 0.01  C 
ENDBRANCH 32 33
ENDBRANCH 1 32
BRANCH 1 36
ATOM     36  N   LEU B   4       1.614 -38.055  -6.113  1.00 24.30 LIG-0.35  N 
ATOM     37  C   TRP B   3       0.820 -39.053  -5.731  1.00 25.24 LIG 0.24  C 
ATOM     38 O    TRP B   3      -0.069 -39.497  -6.438  1.00 25.23 LIG-0.27  OA
ATOM     39 H    LEU B   4       2.261 -37.746  -5.638  1.00 24.30 LIG 0.16  HD
BRANCH 37 40
ATOM     40  CA  TRP B   3       1.041 -39.615  -4.312  1.00 26.39 LIG 0.18  C 
BRANCH 40 41
ATOM     41  CB  TRP B   3      -0.096 -39.159  -3.395  1.00 26.78 LIG 0.07  C 
BRANCH 41 42
ATOM     42  CG  TRP B   3      -0.281 -37.747  -3.474  1.00 25.50 LIG-0.03  A 
ATOM     43  CD1 TRP B   3       0.416 -36.800  -2.799  1.00 28.00 LIG 0.10  A 
ATOM     44  NE1 TRP B   3      -0.061 -35.562  -3.105  1.00 26.39 LIG-0.36  N 
ATOM     45 HE1  TRP B   3       0.238 -34.820  -2.788  1.00 26.39 LIG 0.17  HD
ATOM     46  CE2 TRP B   3      -1.086 -35.687  -3.992  1.00 23.90 LIG 0.04  A 
ATOM     47  CZ2 TRP B   3      -1.884 -34.704  -4.581  1.00 23.10 LIG 0.03  A 
ATOM     48  CD2 TRP B   3      -1.245 -37.058  -4.252  1.00 23.76 LIG-0.00  A 
ATOM     49  CH2 TRP B   3      -2.836 -35.105  -5.458  1.00 22.34 LIG 0.00  A 
ATOM     50  CZ3 TRP B   3      -3.040 -36.468  -5.736  1.00 25.34 LIG 0.00  A 
ATOM     51  CE3 TRP B   3      -2.239 -37.462  -5.120  1.00 25.10 LIG 0.01  A 
ENDBRANCH 41 42
ENDBRANCH 40 41
BRANCH 40 52
ATOM     52  N   TRP B   3       2.351 -39.190  -3.804  1.00 27.54 LIG-0.35  N 
ATOM     53  C   ALA B   2       3.393 -40.010  -3.979  1.00 31.13 LIG 0.24  C 
ATOM     54 O    ALA B   2       3.260 -41.095  -4.532  1.00 30.30 LIG-0.27  OA
ATOM     55 H    TRP B   3       2.375 -38.422  -3.415  1.00 27.54 LIG 0.16  HD
BRANCH 53 56
ATOM     56  CA  ALA B   2       4.772 -39.554  -3.476  1.00 33.66 LIG 0.17  C 
ATOM     57  CB  ALA B   2       4.930 -39.784  -1.951  1.00 33.40 LIG 0.04  C 
BRANCH 56 58
ATOM     58  N   ALA B   2       5.091 -38.153  -3.772  1.00 35.64 LIG-0.35  N 
ATOM     59 H    ALA B   2       4.926 -37.600  -3.135  1.00 35.64 LIG 0.16  HD
ATOM     60  C   ALA B   1       5.598 -37.812  -4.955  1.00 39.08 LIG 0.25  C 
ATOM     61 O    ALA B   1       5.475 -38.527  -5.926  1.00 40.54 LIG-0.27  OA
BRANCH 60 62
ATOM     62  CA  ALA B   1       6.305 -36.442  -5.102  1.00 41.05 LIG 0.27  C 
ATOM     63  CB  ALA B   1       7.670 -36.446  -4.377  1.00 41.95 LIG 0.05  C 
BRANCH 62 64
ATOM     64  N   ALA B   1       5.476 -35.314  -4.600  1.00 41.48 LIG-0.07  N 
ATOM     65 H3   ALA B   1       4.694 -35.308  -5.025  1.00 41.48 LIG 0.28  HD
ATOM     66 H2   ALA B   1       5.900 -34.546  -4.747  1.00 41.48 LIG 0.28  HD
ATOM     67 H1   ALA B   1       5.336 -35.414  -3.727  1.00 41.48 LIG 0.28  HD
ENDBRANCH 62 64
ENDBRANCH 60 62
ENDBRANCH 56 58
ENDBRANCH 53 56
ENDBRANCH 40 52
ENDBRANCH 37 40
ENDBRANCH 1 36
TORSDOF 23
ENDMDL
MODEL 28
USER: ADFR SOLUTION from run 2
USER: SCORE 21.944239 LL:  -6.228 LR: -17.370 RR:   0.000 FEB: -10.509
USER: RMSD 8.786902
USER: SEED 718316
USER: STATUS searching
USER: GENES 25
USER: genes 0 Translation |==|  0.54860 0.30494 0.40114
USER: genes 1 Rotation |==|  0.61374 0.31908 0.80419 0.83436
USER: genes 2 Torsion [N]-CA--C-[N] |==|  0.44355
USER: genes 3 Torsion [C]-N--CA-[CB] |==|  0.76641
USER: genes 4 Torsion [N]-CA--CB-[CG] |==|  0.62655
USER: genes 5 Torsion [CA]-CB--CG-[CD1] |==|  0.61569
USER: genes 6 Torsion [N]-CA--C-[N] |==|  0.56062
USER: genes 7 Torsion [C]-N--CA-[C] |==|  0.74854
USER: genes 8 Torsion [N]-CA--CB-[CG] |==|  0.08085
USER: genes 9 Torsion [CA]-CB--CG-[CD] |==|  0.21652
USER: genes 10 Torsion [CB]-CG--CD-[OE2] |==|  0.52021
USER: genes 11 Torsion [N]-CA--C-[N] |==|  0.54400
USER: genes 12 Torsion [C]-N--CA-[CB] |==|  0.34706
USER: genes 13 Torsion [N]-CA--C-[O] |==|  0.82785
USER: genes 14 Torsion [C]-CA--CB-[CG] |==|  0.32029
USER: genes 15 Torsion [CA]-CB--CG-[CD1] |==|  0.50033
USER: genes 16 Torsion [C]-CA--N-[C] |==|  0.69389
USER: genes 17 Torsion [N]-C--CA-[N] |==|  0.34583
USER: genes 18 Torsion [C]-CA--CB-[CG] |==|  0.28124
USER: genes 19 Torsion [CA]-CB--CG-[CD1] |==|  0.23798
USER: genes 20 Torsion [C]-CA--N-[C] |==|  0.69588
USER: genes 21 Torsion [N]-C--CA-[N] |==|  0.06032
USER: genes 22 Torsion [C]-CA--N-[C] |==|  0.75903
USER: genes 23 Torsion [N]-C--CA-[N] |==|  0.83993
USER: genes 24 Torsion [C]-CA--N-[H3] |==|  0.60273
ROOT
ATOM      1  CA  LEU B   4       3.892 -39.037 -12.074  1.00 25.55 LIG 0.18  C 
ENDROOT
BRANCH 1 2
ATOM      2  C   LEU B   4       3.832 -38.491 -13.504  1.00 26.13 LIG 0.24  C 
ATOM      3 O    LEU B   4       2.938 -37.716 -13.799  1.00 25.31 LIG-0.27  OA
ATOM      4  N   PHE B   5       4.784 -38.892 -14.361  1.00 26.68 LIG-0.35  N 
ATOM      5 H    PHE B   5       5.360 -39.508 -14.191  1.00 26.68 LIG 0.16  HD
BRANCH 4 6
ATOM      6  CA  PHE B   5       4.912 -38.287 -15.695  1.00 28.54 LIG 0.18  C 
BRANCH 6 7
ATOM      7  CB  PHE B   5       3.956 -38.941 -16.717  1.00 28.61 LIG 0.07  C 
BRANCH 7 8
ATOM      8  CG  PHE B   5       4.572 -39.269 -18.030  1.00 26.86 LIG-0.06  A 
ATOM      9  CD1 PHE B   5       3.901 -39.039 -19.209  1.00 26.13 LIG 0.01  A 
ATOM     10  CE1 PHE B   5       4.491 -39.339 -20.435  1.00 23.59 LIG 0.00  A 
ATOM     11  CZ  PHE B   5       5.805 -39.868 -20.488  1.00 25.19 LIG 0.00  A 
ATOM     12  CE2 PHE B   5       6.457 -40.138 -19.305  1.00 26.30 LIG 0.00  A 
ATOM     13  CD2 PHE B   5       5.855 -39.816 -18.088  1.00 27.99 LIG 0.01  A 
ENDBRANCH 7 8
ENDBRANCH 6 7
BRANCH 6 14
ATOM     14  C   PHE B   5       4.654 -36.778 -15.696  1.00 31.71 LIG 0.24  C 
ATOM     15  N   GLU B   6       4.305 -36.228 -16.864  1.00 34.73 LIG-0.35  N 
ATOM     16 H    GLU B   6       4.525 -36.562 -17.625  1.00 34.73 LIG 0.16  HD
ATOM     17 O    PHE B   5       4.838 -36.131 -14.662  1.00 30.66 LIG-0.27  OA
BRANCH 15 18
ATOM     18  CA  GLU B   6       3.499 -34.978 -16.969  1.00 38.89 LIG 0.18  C 
BRANCH 18 19
ATOM     19  CB  GLU B   6       3.892 -34.120 -18.179  1.00 39.10 LIG 0.04  C 
BRANCH 19 20
ATOM     20  CG  GLU B   6       4.446 -34.951 -19.366  1.00 43.96 LIG 0.12  C 
BRANCH 20 21
ATOM     21  CD  GLU B   6       3.377 -35.668 -20.206  1.00 49.39 LIG 0.17  C 
ATOM     22 OE1  GLU B   6       2.166 -35.485 -19.973  1.00 53.88 LIG-0.65  OA
ATOM     23 OE2  GLU B   6       3.754 -36.472 -21.100  1.00 56.34 LIG-0.65  OA
ENDBRANCH 20 21
ENDBRANCH 19 20
ENDBRANCH 18 19
BRANCH 18 24
ATOM     24  C   GLU B   6       1.988 -35.363 -17.026  1.00 41.03 LIG 0.24  C 
ATOM     25 O    GLU B   6       1.580 -36.496 -16.653  1.00 40.13 LIG-0.27  OA
ATOM     26  N   ALA B   7       1.176 -34.386 -17.450  1.00 43.76 LIG-0.35  N 
ATOM     27 H    ALA B   7       1.475 -33.639 -17.754  1.00 43.76 LIG 0.16  HD
BRANCH 26 28
ATOM     28  CA  ALA B   7      -0.327 -34.460 -17.454  1.00 45.80 LIG 0.16  C 
ATOM     29  CB  ALA B   7      -0.937 -33.249 -16.667  1.00 46.43 LIG 0.04  C 
BRANCH 28 30
ATOM     30  C   ALA B   7      -0.920 -34.471 -18.855  1.00 46.67 LIG 0.22  C 
ATOM     31 O    ALA B   7      -0.742 -33.499 -19.608  1.00 48.32 LIG-0.29  OA
ENDBRANCH 28 30
ENDBRANCH 26 28
ENDBRANCH 18 24
ENDBRANCH 15 18
ENDBRANCH 6 14
ENDBRANCH 4 6
ENDBRANCH 1 2
BRANCH 1 32
ATOM     32  CB  LEU B   4       3.417 -40.476 -12.096  1.00 24.11 LIG 0.04  C 
BRANCH 32 33
ATOM     33  CG  LEU B   4       4.506 -41.503 -11.708  1.00 25.40 LIG-0.02  C 
ATOM     34  CD2 LEU B   4       5.688 -41.258 -12.619  1.00 26.98 LIG 0.01  C 
ATOM     35  CD1 LEU B   4       4.082 -42.998 -11.713  1.00 25.06 LIG 0.01  C 
ENDBRANCH 32 33
ENDBRANCH 1 32
BRANCH 1 36
ATOM     36  N   LEU B   4       3.158 -38.238 -11.114  1.00 24.30 LIG-0.35  N 
ATOM     37  C   TRP B   3       3.785 -37.522 -10.183  1.00 25.24 LIG 0.24  C 
ATOM     38 O    TRP B   3       5.001 -37.465 -10.102  1.00 25.23 LIG-0.27  OA
ATOM     39 H    LEU B   4       2.303 -38.270 -11.202  1.00 24.30 LIG 0.16  HD
BRANCH 37 40
ATOM     40  CA  TRP B   3       2.901 -36.783  -9.159  1.00 26.39 LIG 0.18  C 
BRANCH 40 41
ATOM     41  CB  TRP B   3       3.023 -35.273  -9.370  1.00 26.78 LIG 0.07  C 
BRANCH 41 42
ATOM     42  CG  TRP B   3       1.897 -34.763 -10.082  1.00 25.50 LIG-0.03  A 
ATOM     43  CD1 TRP B   3       0.711 -34.377  -9.553  1.00 28.00 LIG 0.10  A 
ATOM     44  NE1 TRP B   3      -0.133 -33.974 -10.542  1.00 26.39 LIG-0.36  N 
ATOM     45 HE1  TRP B   3      -0.937 -33.689 -10.427  1.00 26.39 LIG 0.17  HD
ATOM     46  CE2 TRP B   3       0.498 -34.094 -11.742  1.00 23.90 LIG 0.04  A 
ATOM     47  CZ2 TRP B   3       0.034 -33.814 -13.029  1.00 23.10 LIG 0.03  A 
ATOM     48  CD2 TRP B   3       1.789 -34.584 -11.484  1.00 23.76 LIG-0.00  A 
ATOM     49  CH2 TRP B   3       0.888 -34.008 -14.064  1.00 22.34 LIG 0.00  A 
ATOM     50  CZ3 TRP B   3       2.183 -34.511 -13.854  1.00 25.34 LIG 0.00  A 
ATOM     51  CE3 TRP B   3       2.641 -34.812 -12.546  1.00 25.10 LIG 0.01  A 
ENDBRANCH 41 42
ENDBRANCH 40 41
BRANCH 40 52
ATOM     52  N   TRP B   3       3.282 -37.173  -7.796  1.00 27.54 LIG-0.35  N 
ATOM     53  C   ALA B   2       2.435 -37.935  -7.097  1.00 31.13 LIG 0.24  C 
ATOM     54 O    ALA B   2       1.360 -38.288  -7.570  1.00 30.30 LIG-0.27  OA
ATOM     55 H    TRP B   3       4.043 -36.883  -7.519  1.00 27.54 LIG 0.16  HD
BRANCH 53 56
ATOM     56  CA  ALA B   2       2.844 -38.372  -5.681  1.00 33.66 LIG 0.17  C 
ATOM     57  CB  ALA B   2       1.622 -38.450  -4.731  1.00 33.40 LIG 0.04  C 
BRANCH 56 58
ATOM     58  N   ALA B   2       3.866 -37.523  -5.058  1.00 35.64 LIG-0.35  N 
ATOM     59 H    ALA B   2       3.559 -36.886  -4.567  1.00 35.64 LIG 0.16  HD
ATOM     60  C   ALA B   1       5.159 -37.760  -5.268  1.00 39.08 LIG 0.25  C 
ATOM     61 O    ALA B   1       5.538 -38.403  -6.222  1.00 40.54 LIG-0.27  OA
BRANCH 60 62
ATOM     62  CA  ALA B   1       6.201 -37.144  -4.301  1.00 41.05 LIG 0.27  C 
ATOM     63  CB  ALA B   1       6.057 -37.743  -2.883  1.00 41.95 LIG 0.05  C 
BRANCH 62 64
ATOM     64  N   ALA B   1       6.107 -35.662  -4.228  1.00 41.48 LIG-0.07  N 
ATOM     65 H3   ALA B   1       6.924 -35.316  -4.154  1.00 41.48 LIG 0.28  HD
ATOM     66 H2   ALA B   1       5.622 -35.429  -3.519  1.00 41.48 LIG 0.28  HD
ATOM     67 H1   ALA B   1       5.721 -35.351  -4.966  1.00 41.48 LIG 0.28  HD
ENDBRANCH 62 64
ENDBRANCH 60 62
ENDBRANCH 56 58
ENDBRANCH 53 56
ENDBRANCH 40 52
ENDBRANCH 37 40
ENDBRANCH 1 36
TORSDOF 23
ENDMDL
MODEL 29
USER: ADFR SOLUTION from run 123
USER: SCORE 20.990686 LL:  -6.132 LR: -17.369 RR:   0.000 FEB: -10.508
USER: RMSD 4.940251
USER: SEED 122
USER: STATUS no improvement in best in 11 clusters for 5 generations
USER: GENES 25
USER: genes 0 Translation |==|  0.31913 0.44077 0.57039
USER: genes 1 Rotation |==|  0.70415 0.41061 0.47089 0.94664
USER: genes 2 Torsion [N]-CA--C-[N] |==|  0.30034
USER: genes 3 Torsion [C]-N--CA-[CB] |==|  0.21506
USER: genes 4 Torsion [N]-CA--CB-[CG] |==|  0.05861
USER: genes 5 Torsion [CA]-CB--CG-[CD1] |==|  0.68289
USER: genes 6 Torsion [N]-CA--C-[N] |==|  0.35023
USER: genes 7 Torsion [C]-N--CA-[C] |==|  0.61060
USER: genes 8 Torsion [N]-CA--CB-[CG] |==|  0.57214
USER: genes 9 Torsion [CA]-CB--CG-[CD] |==|  0.16151
USER: genes 10 Torsion [CB]-CG--CD-[OE2] |==|  0.13282
USER: genes 11 Torsion [N]-CA--C-[N] |==|  0.96749
USER: genes 12 Torsion [C]-N--CA-[CB] |==|  0.16835
USER: genes 13 Torsion [N]-CA--C-[O] |==|  0.99449
USER: genes 14 Torsion [C]-CA--CB-[CG] |==|  0.72539
USER: genes 15 Torsion [CA]-CB--CG-[CD1] |==|  0.30935
USER: genes 16 Torsion [C]-CA--N-[C] |==|  0.68256
USER: genes 17 Torsion [N]-C--CA-[N] |==|  0.03704
USER: genes 18 Torsion [C]-CA--CB-[CG] |==|  0.78384
USER: genes 19 Torsion [CA]-CB--CG-[CD1] |==|  0.15892
USER: genes 20 Torsion [C]-CA--N-[C] |==|  0.69784
USER: genes 21 Torsion [N]-C--CA-[N] |==|  0.34446
USER: genes 22 Torsion [C]-CA--N-[C] |==|  0.51543
USER: genes 23 Torsion [N]-C--CA-[N] |==|  0.84370
USER: genes 24 Torsion [C]-CA--N-[H3] |==|  0.32777
ROOT
ATOM      1  CA  LEU B   4      -0.583 -36.185  -8.266  1.00 25.55 LIG 0.18  C 
ENDROOT
BRANCH 1 2
ATOM      2  C   LEU B   4      -0.801 -34.856  -8.997  1.00 26.13 LIG 0.24  C 
ATOM      3 O    LEU B   4      -1.290 -33.923  -8.383  1.00 25.31 LIG-0.27  OA
ATOM      4  N   PHE B   5      -0.428 -34.788 -10.284  1.00 26.68 LIG-0.35  N 
ATOM      5 H    PHE B   5      -0.171 -35.464 -10.750  1.00 26.68 LIG 0.16  HD
BRANCH 4 6
ATOM      6  CA  PHE B   5      -0.433 -33.510 -11.012  1.00 28.54 LIG 0.18  C 
BRANCH 6 7
ATOM      7  CB  PHE B   5       0.786 -32.635 -10.644  1.00 28.61 LIG 0.07  C 
BRANCH 7 8
ATOM      8  CG  PHE B   5       1.937 -33.375 -10.065  1.00 26.86 LIG-0.06  A 
ATOM      9  CD1 PHE B   5       2.333 -33.171  -8.763  1.00 26.13 LIG 0.01  A 
ATOM     10  CE1 PHE B   5       3.407 -33.878  -8.225  1.00 23.59 LIG 0.00  A 
ATOM     11  CZ  PHE B   5       4.097 -34.837  -9.007  1.00 25.19 LIG 0.00  A 
ATOM     12  CE2 PHE B   5       3.727 -35.008 -10.322  1.00 26.30 LIG 0.00  A 
ATOM     13  CD2 PHE B   5       2.639 -34.301 -10.838  1.00 27.99 LIG 0.01  A 
ENDBRANCH 7 8
ENDBRANCH 6 7
BRANCH 6 14
ATOM     14  C   PHE B   5      -0.456 -33.685 -12.532  1.00 31.71 LIG 0.24  C 
ATOM     15  N   GLU B   6      -1.427 -33.052 -13.196  1.00 34.73 LIG-0.35  N 
ATOM     16 H    GLU B   6      -2.182 -32.845 -12.841  1.00 34.73 LIG 0.16  HD
ATOM     17 O    PHE B   5       0.361 -34.440 -13.068  1.00 30.66 LIG-0.27  OA
BRANCH 15 18
ATOM     18  CA  GLU B   6      -1.304 -32.637 -14.624  1.00 38.89 LIG 0.18  C 
BRANCH 18 19
ATOM     19  CB  GLU B   6      -1.931 -33.648 -15.591  1.00 39.10 LIG 0.04  C 
BRANCH 19 20
ATOM     20  CG  GLU B   6      -1.301 -33.611 -17.009  1.00 43.96 LIG 0.12  C 
BRANCH 20 21
ATOM     21  CD  GLU B   6       0.213 -33.871 -17.051  1.00 49.39 LIG 0.17  C 
ATOM     22 OE1  GLU B   6       0.957 -33.145 -17.740  1.00 53.88 LIG-0.65  OA
ATOM     23 OE2  GLU B   6       0.672 -34.854 -16.411  1.00 56.34 LIG-0.65  OA
ENDBRANCH 20 21
ENDBRANCH 19 20
ENDBRANCH 18 19
BRANCH 18 24
ATOM     24  C   GLU B   6      -1.955 -31.228 -14.790  1.00 41.03 LIG 0.24  C 
ATOM     25 O    GLU B   6      -1.835 -30.565 -15.856  1.00 40.13 LIG-0.27  OA
ATOM     26  N   ALA B   7      -2.676 -30.816 -13.739  1.00 43.76 LIG-0.35  N 
ATOM     27 H    ALA B   7      -2.702 -31.253 -12.999  1.00 43.76 LIG 0.16  HD
BRANCH 26 28
ATOM     28  CA  ALA B   7      -3.516 -29.568 -13.711  1.00 45.80 LIG 0.16  C 
ATOM     29  CB  ALA B   7      -4.634 -29.635 -14.809  1.00 46.43 LIG 0.04  C 
BRANCH 28 30
ATOM     30  C   ALA B   7      -4.181 -29.326 -12.364  1.00 46.67 LIG 0.22  C 
ATOM     31 O    ALA B   7      -4.026 -30.146 -11.443  1.00 48.32 LIG-0.29  OA
ENDBRANCH 28 30
ENDBRANCH 26 28
ENDBRANCH 18 24
ENDBRANCH 15 18
ENDBRANCH 6 14
ENDBRANCH 4 6
ENDBRANCH 1 2
BRANCH 1 32
ATOM     32  CB  LEU B   4      -1.899 -36.607  -7.646  1.00 24.11 LIG 0.04  C 
BRANCH 32 33
ATOM     33  CG  LEU B   4      -2.024 -36.267  -6.143  1.00 25.40 LIG-0.02  C 
ATOM     34  CD2 LEU B   4      -2.304 -37.564  -5.419  1.00 26.98 LIG 0.01  C 
ATOM     35  CD1 LEU B   4      -3.055 -35.168  -5.765  1.00 25.06 LIG 0.01  C 
ENDBRANCH 32 33
ENDBRANCH 1 32
BRANCH 1 36
ATOM     36  N   LEU B   4       0.489 -36.146  -7.292  1.00 24.30 LIG-0.35  N 
ATOM     37  C   TRP B   3       1.597 -36.865  -7.450  1.00 25.24 LIG 0.24  C 
ATOM     38 O    TRP B   3       1.795 -37.566  -8.429  1.00 25.23 LIG-0.27  OA
ATOM     39 H    LEU B   4       0.343 -35.627  -6.622  1.00 24.30 LIG 0.16  HD
BRANCH 37 40
ATOM     40  CA  TRP B   3       2.630 -36.815  -6.306  1.00 26.39 LIG 0.18  C 
BRANCH 40 41
ATOM     41  CB  TRP B   3       3.153 -38.224  -6.022  1.00 26.78 LIG 0.07  C 
BRANCH 41 42
ATOM     42  CG  TRP B   3       2.209 -38.976  -5.262  1.00 25.50 LIG-0.03  A 
ATOM     43  CD1 TRP B   3       0.923 -39.240  -5.599  1.00 28.00 LIG 0.10  A 
ATOM     44  NE1 TRP B   3       0.319 -39.960  -4.614  1.00 26.39 LIG-0.36  N 
ATOM     45 HE1  TRP B   3      -0.496 -40.234  -4.625  1.00 26.39 LIG 0.17  HD
ATOM     46  CE2 TRP B   3       1.214 -40.178  -3.611  1.00 23.90 LIG 0.04  A 
ATOM     47  CZ2 TRP B   3       1.052 -40.853  -2.399  1.00 23.10 LIG 0.03  A 
ATOM     48  CD2 TRP B   3       2.422 -39.574  -3.994  1.00 23.76 LIG-0.00  A 
ATOM     49  CH2 TRP B   3       2.125 -40.941  -1.577  1.00 22.34 LIG 0.00  A 
ATOM     50  CZ3 TRP B   3       3.350 -40.338  -1.913  1.00 25.34 LIG 0.00  A 
ATOM     51  CE3 TRP B   3       3.502 -39.637  -3.136  1.00 25.10 LIG 0.01  A 
ENDBRANCH 41 42
ENDBRANCH 40 41
BRANCH 40 52
ATOM     52  N   TRP B   3       2.025 -36.211  -5.113  1.00 27.54 LIG-0.35  N 
ATOM     53  C   ALA B   2       2.422 -34.985  -4.755  1.00 31.13 LIG 0.24  C 
ATOM     54 O    ALA B   2       3.280 -34.385  -5.392  1.00 30.30 LIG-0.27  OA
ATOM     55 H    TRP B   3       1.438 -36.688  -4.703  1.00 27.54 LIG 0.16  HD
BRANCH 53 56
ATOM     56  CA  ALA B   2       1.769 -34.336  -3.524  1.00 33.66 LIG 0.17  C 
ATOM     57  CB  ALA B   2       0.894 -33.118  -3.915  1.00 33.40 LIG 0.04  C 
BRANCH 56 58
ATOM     58  N   ALA B   2       2.717 -33.915  -2.486  1.00 35.64 LIG-0.35  N 
ATOM     59 H    ALA B   2       3.547 -34.002  -2.696  1.00 35.64 LIG 0.16  HD
ATOM     60  C   ALA B   1       2.278 -33.441  -1.323  1.00 39.08 LIG 0.25  C 
ATOM     61 O    ALA B   1       1.155 -33.671  -0.928  1.00 40.54 LIG-0.27  OA
BRANCH 60 62
ATOM     62  CA  ALA B   1       3.249 -32.630  -0.429  1.00 41.05 LIG 0.27  C 
ATOM     63  CB  ALA B   1       3.620 -31.286  -1.097  1.00 41.95 LIG 0.05  C 
BRANCH 62 64
ATOM     64  N   ALA B   1       4.488 -33.383  -0.100  1.00 41.48 LIG-0.07  N 
ATOM     65 H3   ALA B   1       5.193 -32.952  -0.429  1.00 41.48 LIG 0.28  HD
ATOM     66 H2   ALA B   1       4.444 -34.197  -0.457  1.00 41.48 LIG 0.28  HD
ATOM     67 H1   ALA B   1       4.569 -33.451   0.783  1.00 41.48 LIG 0.28  HD
ENDBRANCH 62 64
ENDBRANCH 60 62
ENDBRANCH 56 58
ENDBRANCH 53 56
ENDBRANCH 40 52
ENDBRANCH 37 40
ENDBRANCH 1 36
TORSDOF 23
ENDMDL
MODEL 30
USER: ADFR SOLUTION from run 55
USER: SCORE 24.077035 LL:  -7.842 LR: -17.353 RR:   0.000 FEB: -10.492
USER: RMSD 8.922106
USER: SEED 54
USER: STATUS no improvement in best in 1 clusters for 5 generations
USER: GENES 25
USER: genes 0 Translation |==|  0.40071 0.36897 0.63450
USER: genes 1 Rotation |==|  0.44843 0.04701 0.30849 0.57393
USER: genes 2 Torsion [N]-CA--C-[N] |==|  0.92271
USER: genes 3 Torsion [C]-N--CA-[CB] |==|  0.83918
USER: genes 4 Torsion [N]-CA--CB-[CG] |==|  0.88225
USER: genes 5 Torsion [CA]-CB--CG-[CD1] |==|  0.41230
USER: genes 6 Torsion [N]-CA--C-[N] |==|  0.33490
USER: genes 7 Torsion [C]-N--CA-[C] |==|  0.20999
USER: genes 8 Torsion [N]-CA--CB-[CG] |==|  0.89631
USER: genes 9 Torsion [CA]-CB--CG-[CD] |==|  0.39064
USER: genes 10 Torsion [CB]-CG--CD-[OE2] |==|  0.05122
USER: genes 11 Torsion [N]-CA--C-[N] |==|  0.16385
USER: genes 12 Torsion [C]-N--CA-[CB] |==|  0.42059
USER: genes 13 Torsion [N]-CA--C-[O] |==|  0.55480
USER: genes 14 Torsion [C]-CA--CB-[CG] |==|  0.95402
USER: genes 15 Torsion [CA]-CB--CG-[CD1] |==|  0.30397
USER: genes 16 Torsion [C]-CA--N-[C] |==|  0.79444
USER: genes 17 Torsion [N]-C--CA-[N] |==|  0.91325
USER: genes 18 Torsion [C]-CA--CB-[CG] |==|  0.90981
USER: genes 19 Torsion [CA]-CB--CG-[CD1] |==|  0.30666
USER: genes 20 Torsion [C]-CA--N-[C] |==|  0.80452
USER: genes 21 Torsion [N]-C--CA-[N] |==|  0.94656
USER: genes 22 Torsion [C]-CA--N-[C] |==|  0.79449
USER: genes 23 Torsion [N]-C--CA-[N] |==|  0.87849
USER: genes 24 Torsion [C]-CA--N-[H3] |==|  0.82178
ROOT
ATOM      1  CA  LEU B   4       1.008 -37.693  -6.824  1.00 25.55 LIG 0.18  C 
ENDROOT
BRANCH 1 2
ATOM      2  C   LEU B   4       2.041 -38.458  -5.991  1.00 26.13 LIG 0.24  C 
ATOM      3 O    LEU B   4       2.573 -39.442  -6.476  1.00 25.31 LIG-0.27  OA
ATOM      4  N   PHE B   5       2.313 -37.994  -4.761  1.00 26.68 LIG-0.35  N 
ATOM      5 H    PHE B   5       1.876 -37.360  -4.376  1.00 26.68 LIG 0.16  HD
BRANCH 4 6
ATOM      6  CA  PHE B   5       3.412 -38.554  -3.962  1.00 28.54 LIG 0.18  C 
BRANCH 6 7
ATOM      7  CB  PHE B   5       3.244 -40.073  -3.738  1.00 28.61 LIG 0.07  C 
BRANCH 7 8
ATOM      8  CG  PHE B   5       1.861 -40.509  -3.411  1.00 26.86 LIG-0.06  A 
ATOM      9  CD1 PHE B   5       1.393 -41.744  -3.796  1.00 26.13 LIG 0.01  A 
ATOM     10  CE1 PHE B   5       0.099 -42.148  -3.474  1.00 23.59 LIG 0.00  A 
ATOM     11  CZ  PHE B   5      -0.752 -41.299  -2.725  1.00 25.19 LIG 0.00  A 
ATOM     12  CE2 PHE B   5      -0.296 -40.046  -2.378  1.00 26.30 LIG 0.00  A 
ATOM     13  CD2 PHE B   5       1.008 -39.665  -2.697  1.00 27.99 LIG 0.01  A 
ENDBRANCH 7 8
ENDBRANCH 6 7
BRANCH 6 14
ATOM     14  C   PHE B   5       4.790 -38.312  -4.584  1.00 31.71 LIG 0.24  C 
ATOM     15  N   GLU B   6       5.669 -37.623  -3.850  1.00 34.73 LIG-0.35  N 
ATOM     16 H    GLU B   6       5.436 -37.058  -3.245  1.00 34.73 LIG 0.16  HD
ATOM     17 O    PHE B   5       5.010 -38.692  -5.737  1.00 30.66 LIG-0.27  OA
BRANCH 15 18
ATOM     18  CA  GLU B   6       7.146 -37.763  -4.000  1.00 38.89 LIG 0.18  C 
BRANCH 18 19
ATOM     19  CB  GLU B   6       7.603 -39.228  -4.030  1.00 39.10 LIG 0.04  C 
BRANCH 19 20
ATOM     20  CG  GLU B   6       6.798 -40.141  -3.067  1.00 43.96 LIG 0.12  C 
BRANCH 20 21
ATOM     21  CD  GLU B   6       6.472 -41.536  -3.622  1.00 49.39 LIG 0.17  C 
ATOM     22 OE1  GLU B   6       5.592 -42.238  -3.084  1.00 53.88 LIG-0.65  OA
ATOM     23 OE2  GLU B   6       7.140 -41.966  -4.599  1.00 56.34 LIG-0.65  OA
ENDBRANCH 20 21
ENDBRANCH 19 20
ENDBRANCH 18 19
BRANCH 18 24
ATOM     24  C   GLU B   6       7.588 -37.014  -5.296  1.00 41.03 LIG 0.24  C 
ATOM     25 O    GLU B   6       8.141 -37.619  -6.254  1.00 40.13 LIG-0.27  OA
ATOM     26  N   ALA B   7       7.291 -35.708  -5.317  1.00 43.76 LIG-0.35  N 
ATOM     27 H    ALA B   7       6.965 -35.299  -4.634  1.00 43.76 LIG 0.16  HD
BRANCH 26 28
ATOM     28  CA  ALA B   7       7.479 -34.805  -6.506  1.00 45.80 LIG 0.16  C 
ATOM     29  CB  ALA B   7       6.436 -33.634  -6.475  1.00 46.43 LIG 0.04  C 
BRANCH 28 30
ATOM     30  C   ALA B   7       8.874 -34.202  -6.582  1.00 46.67 LIG 0.22  C 
ATOM     31 O    ALA B   7       9.070 -33.182  -7.264  1.00 48.32 LIG-0.29  OA
ENDBRANCH 28 30
ENDBRANCH 26 28
ENDBRANCH 18 24
ENDBRANCH 15 18
ENDBRANCH 6 14
ENDBRANCH 4 6
ENDBRANCH 1 2
BRANCH 1 32
ATOM     32  CB  LEU B   4       1.749 -36.759  -7.759  1.00 24.11 LIG 0.04  C 
BRANCH 32 33
ATOM     33  CG  LEU B   4       3.226 -36.520  -7.368  1.00 25.40 LIG-0.02  C 
ATOM     34  CD2 LEU B   4       3.413 -35.024  -7.247  1.00 26.98 LIG 0.01  C 
ATOM     35  CD1 LEU B   4       4.300 -37.156  -8.293  1.00 25.06 LIG 0.01  C 
ENDBRANCH 32 33
ENDBRANCH 1 32
BRANCH 1 36
ATOM     36  N   LEU B   4       0.020 -36.992  -6.027  1.00 24.30 LIG-0.35  N 
ATOM     37  C   TRP B   3      -0.956 -37.645  -5.402  1.00 25.24 LIG 0.24  C 
ATOM     38 O    TRP B   3      -1.061 -38.860  -5.428  1.00 25.23 LIG-0.27  OA
ATOM     39 H    LEU B   4       0.125 -36.139  -5.999  1.00 24.30 LIG 0.16  HD
BRANCH 37 40
ATOM     40  CA  TRP B   3      -2.002 -36.789  -4.659  1.00 26.39 LIG 0.18  C 
BRANCH 40 41
ATOM     41  CB  TRP B   3      -3.176 -36.486  -5.591  1.00 26.78 LIG 0.07  C 
BRANCH 41 42
ATOM     42  CG  TRP B   3      -2.738 -36.373  -6.945  1.00 25.50 LIG-0.03  A 
ATOM     43  CD1 TRP B   3      -2.997 -37.238  -7.955  1.00 28.00 LIG 0.10  A 
ATOM     44  NE1 TRP B   3      -2.390 -36.818  -9.098  1.00 26.39 LIG-0.36  N 
ATOM     45 HE1  TRP B   3      -2.424 -37.219  -9.859  1.00 26.39 LIG 0.17  HD
ATOM     46  CE2 TRP B   3      -1.718 -35.661  -8.845  1.00 23.90 LIG 0.04  A 
ATOM     47  CZ2 TRP B   3      -0.946 -34.870  -9.699  1.00 23.10 LIG 0.03  A 
ATOM     48  CD2 TRP B   3      -1.926 -35.348  -7.492  1.00 23.76 LIG-0.00  A 
ATOM     49  CH2 TRP B   3      -0.396 -33.742  -9.188  1.00 22.34 LIG 0.00  A 
ATOM     50  CZ3 TRP B   3      -0.565 -33.398  -7.836  1.00 25.34 LIG 0.00  A 
ATOM     51  CE3 TRP B   3      -1.334 -34.215  -6.970  1.00 25.10 LIG 0.01  A 
ENDBRANCH 41 42
ENDBRANCH 40 41
BRANCH 40 52
ATOM     52  N   TRP B   3      -1.376 -35.559  -4.158  1.00 27.54 LIG-0.35  N 
ATOM     53  C   ALA B   2      -0.507 -35.660  -3.146  1.00 31.13 LIG 0.24  C 
ATOM     54 O    ALA B   2      -0.249 -36.744  -2.637  1.00 30.30 LIG-0.27  OA
ATOM     55 H    TRP B   3      -1.609 -34.830  -4.551  1.00 27.54 LIG 0.16  HD
BRANCH 53 56
ATOM     56  CA  ALA B   2       0.174 -34.378  -2.639  1.00 33.66 LIG 0.17  C 
ATOM     57  CB  ALA B   2      -0.431 -33.902  -1.294  1.00 33.40 LIG 0.04  C 
BRANCH 56 58
ATOM     58  N   ALA B   2       0.139 -33.259  -3.588  1.00 35.64 LIG-0.35  N 
ATOM     59 H    ALA B   2      -0.413 -32.630  -3.388  1.00 35.64 LIG 0.16  HD
ATOM     60  C   ALA B   1       0.923 -33.263  -4.664  1.00 39.08 LIG 0.25  C 
ATOM     61 O    ALA B   1       1.396 -34.290  -5.099  1.00 40.54 LIG-0.27  OA
BRANCH 60 62
ATOM     62  CA  ALA B   1       1.181 -31.929  -5.409  1.00 41.05 LIG 0.27  C 
ATOM     63  CB  ALA B   1       2.251 -31.087  -4.676  1.00 41.95 LIG 0.05  C 
BRANCH 62 64
ATOM     64  N   ALA B   1      -0.056 -31.122  -5.582  1.00 41.48 LIG-0.07  N 
ATOM     65 H3   ALA B   1      -0.627 -31.562  -6.103  1.00 41.48 LIG 0.28  HD
ATOM     66 H2   ALA B   1       0.149 -30.342  -5.958  1.00 41.48 LIG 0.28  HD
ATOM     67 H1   ALA B   1      -0.431 -30.979  -4.788  1.00 41.48 LIG 0.28  HD
ENDBRANCH 62 64
ENDBRANCH 60 62
ENDBRANCH 56 58
ENDBRANCH 53 56
ENDBRANCH 40 52
ENDBRANCH 37 40
ENDBRANCH 1 36
TORSDOF 23
ENDMDL
MODEL 31
USER: ADFR SOLUTION from run 23
USER: SCORE 21.065596 LL:  -5.532 LR: -17.309 RR:   0.000 FEB: -10.448
USER: RMSD 5.477136
USER: SEED 22
USER: STATUS no improvement in best in 7 clusters for 5 generations
USER: GENES 25
USER: genes 0 Translation |==|  0.35024 0.44658 0.58416
USER: genes 1 Rotation |==|  0.62390 0.42648 0.37029 0.96089
USER: genes 2 Torsion [N]-CA--C-[N] |==|  0.15302
USER: genes 3 Torsion [C]-N--CA-[CB] |==|  0.51931
USER: genes 4 Torsion [N]-CA--CB-[CG] |==|  0.99559
USER: genes 5 Torsion [CA]-CB--CG-[CD1] |==|  0.82902
USER: genes 6 Torsion [N]-CA--C-[N] |==|  0.37314
USER: genes 7 Torsion [C]-N--CA-[C] |==|  0.85501
USER: genes 8 Torsion [N]-CA--CB-[CG] |==|  0.66877
USER: genes 9 Torsion [CA]-CB--CG-[CD] |==|  0.12686
USER: genes 10 Torsion [CB]-CG--CD-[OE2] |==|  0.14649
USER: genes 11 Torsion [N]-CA--C-[N] |==|  0.36649
USER: genes 12 Torsion [C]-N--CA-[CB] |==|  0.28944
USER: genes 13 Torsion [N]-CA--C-[O] |==|  0.87263
USER: genes 14 Torsion [C]-CA--CB-[CG] |==|  0.36537
USER: genes 15 Torsion [CA]-CB--CG-[CD1] |==|  0.40678
USER: genes 16 Torsion [C]-CA--N-[C] |==|  0.59949
USER: genes 17 Torsion [N]-C--CA-[N] |==|  0.86178
USER: genes 18 Torsion [C]-CA--CB-[CG] |==|  0.13364
USER: genes 19 Torsion [CA]-CB--CG-[CD1] |==|  0.68045
USER: genes 20 Torsion [C]-CA--N-[C] |==|  0.62827
USER: genes 21 Torsion [N]-C--CA-[N] |==|  0.34783
USER: genes 22 Torsion [C]-CA--N-[C] |==|  0.83696
USER: genes 23 Torsion [N]-C--CA-[N] |==|  0.29605
USER: genes 24 Torsion [C]-CA--N-[H3] |==|  0.32433
ROOT
ATOM      1  CA  LEU B   4       0.024 -36.063  -7.956  1.00 25.55 LIG 0.18  C 
ENDROOT
BRANCH 1 2
ATOM      2  C   LEU B   4       0.078 -34.912  -8.966  1.00 26.13 LIG 0.24  C 
ATOM      3 O    LEU B   4      -0.730 -34.005  -8.866  1.00 25.31 LIG-0.27  OA
ATOM      4  N   PHE B   5       1.030 -34.962  -9.912  1.00 26.68 LIG-0.35  N 
ATOM      5 H    PHE B   5       1.541 -35.640 -10.048  1.00 26.68 LIG 0.16  HD
BRANCH 4 6
ATOM      6  CA  PHE B   5       1.272 -33.823 -10.809  1.00 28.54 LIG 0.18  C 
BRANCH 6 7
ATOM      7  CB  PHE B   5       2.288 -34.171 -11.919  1.00 28.61 LIG 0.07  C 
BRANCH 7 8
ATOM      8  CG  PHE B   5       2.846 -35.547 -11.850  1.00 26.86 LIG-0.06  A 
ATOM      9  CD1 PHE B   5       3.575 -35.967 -10.761  1.00 26.13 LIG 0.01  A 
ATOM     10  CE1 PHE B   5       4.084 -37.262 -10.700  1.00 23.59 LIG 0.00  A 
ATOM     11  CZ  PHE B   5       3.839 -38.178 -11.753  1.00 25.19 LIG 0.00  A 
ATOM     12  CE2 PHE B   5       3.146 -37.743 -12.861  1.00 26.30 LIG 0.00  A 
ATOM     13  CD2 PHE B   5       2.632 -36.446 -12.896  1.00 27.99 LIG 0.01  A 
ENDBRANCH 7 8
ENDBRANCH 6 7
BRANCH 6 14
ATOM     14  C   PHE B   5      -0.004 -33.302 -11.475  1.00 31.71 LIG 0.24  C 
ATOM     15  N   GLU B   6      -0.181 -31.978 -11.485  1.00 34.73 LIG-0.35  N 
ATOM     16 H    GLU B   6       0.165 -31.453 -10.898  1.00 34.73 LIG 0.16  HD
ATOM     17 O    PHE B   5      -0.834 -34.107 -11.907  1.00 30.66 LIG-0.27  OA
BRANCH 15 18
ATOM     18  CA  GLU B   6      -0.997 -31.269 -12.513  1.00 38.89 LIG 0.18  C 
BRANCH 18 19
ATOM     19  CB  GLU B   6      -0.951 -29.744 -12.359  1.00 39.10 LIG 0.04  C 
BRANCH 19 20
ATOM     20  CG  GLU B   6      -2.343 -29.112 -12.094  1.00 43.96 LIG 0.12  C 
BRANCH 20 21
ATOM     21  CD  GLU B   6      -3.191 -29.837 -11.037  1.00 49.39 LIG 0.17  C 
ATOM     22 OE1  GLU B   6      -4.371 -30.155 -11.286  1.00 53.88 LIG-0.65  OA
ATOM     23 OE2  GLU B   6      -2.681 -30.059  -9.907  1.00 56.34 LIG-0.65  OA
ENDBRANCH 20 21
ENDBRANCH 19 20
ENDBRANCH 18 19
BRANCH 18 24
ATOM     24  C   GLU B   6      -0.501 -31.703 -13.928  1.00 41.03 LIG 0.24  C 
ATOM     25 O    GLU B   6       0.727 -31.751 -14.213  1.00 40.13 LIG-0.27  OA
ATOM     26  N   ALA B   7      -1.473 -32.058 -14.778  1.00 43.76 LIG-0.35  N 
ATOM     27 H    ALA B   7      -2.306 -31.966 -14.588  1.00 43.76 LIG 0.16  HD
BRANCH 26 28
ATOM     28  CA  ALA B   7      -1.245 -32.650 -16.143  1.00 45.80 LIG 0.16  C 
ATOM     29  CB  ALA B   7      -1.534 -34.191 -16.127  1.00 46.43 LIG 0.04  C 
BRANCH 28 30
ATOM     30  C   ALA B   7      -2.107 -32.010 -17.221  1.00 46.67 LIG 0.22  C 
ATOM     31 O    ALA B   7      -3.316 -31.818 -17.012  1.00 48.32 LIG-0.29  OA
ENDBRANCH 28 30
ENDBRANCH 26 28
ENDBRANCH 18 24
ENDBRANCH 15 18
ENDBRANCH 6 14
ENDBRANCH 4 6
ENDBRANCH 1 2
BRANCH 1 32
ATOM     32  CB  LEU B   4      -1.120 -35.800  -6.999  1.00 24.11 LIG 0.04  C 
BRANCH 32 33
ATOM     33  CG  LEU B   4      -2.053 -37.014  -6.785  1.00 25.40 LIG-0.02  C 
ATOM     34  CD2 LEU B   4      -3.115 -36.949  -7.859  1.00 26.98 LIG 0.01  C 
ATOM     35  CD1 LEU B   4      -2.679 -37.166  -5.371  1.00 25.06 LIG 0.01  C 
ENDBRANCH 32 33
ENDBRANCH 1 32
BRANCH 1 36
ATOM     36  N   LEU B   4       1.275 -36.287  -7.260  1.00 24.30 LIG-0.35  N 
ATOM     37  C   TRP B   3       1.677 -37.512  -6.932  1.00 25.24 LIG 0.24  C 
ATOM     38 O    TRP B   3       1.046 -38.514  -7.225  1.00 25.23 LIG-0.27  OA
ATOM     39 H    LEU B   4       1.718 -35.571  -7.085  1.00 24.30 LIG 0.16  HD
BRANCH 37 40
ATOM     40  CA  TRP B   3       2.979 -37.623  -6.114  1.00 26.39 LIG 0.18  C 
BRANCH 40 41
ATOM     41  CB  TRP B   3       2.721 -37.176  -4.674  1.00 26.78 LIG 0.07  C 
BRANCH 41 42
ATOM     42  CG  TRP B   3       1.549 -37.797  -4.148  1.00 25.50 LIG-0.03  A 
ATOM     43  CD1 TRP B   3       0.400 -37.178  -3.781  1.00 28.00 LIG 0.10  A 
ATOM     44  NE1 TRP B   3      -0.487 -38.089  -3.296  1.00 26.39 LIG-0.36  N 
ATOM     45 HE1  TRP B   3      -1.278 -37.911  -3.007  1.00 26.39 LIG 0.17  HD
ATOM     46  CE2 TRP B   3       0.078 -39.327  -3.339  1.00 23.90 LIG 0.04  A 
ATOM     47  CZ2 TRP B   3      -0.440 -40.562  -2.942  1.00 23.10 LIG 0.03  A 
ATOM     48  CD2 TRP B   3       1.365 -39.177  -3.882  1.00 23.76 LIG-0.00  A 
ATOM     49  CH2 TRP B   3       0.337 -41.658  -3.116  1.00 22.34 LIG 0.00  A 
ATOM     50  CZ3 TRP B   3       1.637 -41.552  -3.640  1.00 25.34 LIG 0.00  A 
ATOM     51  CE3 TRP B   3       2.164 -40.293  -4.023  1.00 25.10 LIG 0.01  A 
ENDBRANCH 41 42
ENDBRANCH 40 41
BRANCH 40 52
ATOM     52  N   TRP B   3       4.037 -36.827  -6.747  1.00 27.54 LIG-0.35  N 
ATOM     53  C   ALA B   2       5.245 -37.383  -6.893  1.00 31.13 LIG 0.24  C 
ATOM     54 O    ALA B   2       5.472 -38.520  -6.494  1.00 30.30 LIG-0.27  OA
ATOM     55 H    TRP B   3       3.816 -36.033  -6.994  1.00 27.54 LIG 0.16  HD
BRANCH 53 56
ATOM     56  CA  ALA B   2       6.347 -36.564  -7.584  1.00 33.66 LIG 0.17  C 
ATOM     57  CB  ALA B   2       6.714 -37.153  -8.970  1.00 33.40 LIG 0.04  C 
BRANCH 56 58
ATOM     58  N   ALA B   2       7.577 -36.420  -6.797  1.00 35.64 LIG-0.35  N 
ATOM     59 H    ALA B   2       8.287 -36.723  -7.176  1.00 35.64 LIG 0.16  HD
ATOM     60  C   ALA B   1       7.544 -35.857  -5.592  1.00 39.08 LIG 0.25  C 
ATOM     61 O    ALA B   1       6.516 -35.785  -4.954  1.00 40.54 LIG-0.27  OA
BRANCH 60 62
ATOM     62  CA  ALA B   1       8.866 -35.342  -4.969  1.00 41.05 LIG 0.27  C 
ATOM     63  CB  ALA B   1       9.035 -35.866  -3.524  1.00 41.95 LIG 0.05  C 
BRANCH 62 64
ATOM     64  N   ALA B   1       8.960 -33.858  -4.975  1.00 41.48 LIG-0.07  N 
ATOM     65 H3   ALA B   1       8.991 -33.559  -4.138  1.00 41.48 LIG 0.28  HD
ATOM     66 H2   ALA B   1       8.247 -33.517  -5.386  1.00 41.48 LIG 0.28  HD
ATOM     67 H1   ALA B   1       9.697 -33.608  -5.405  1.00 41.48 LIG 0.28  HD
ENDBRANCH 62 64
ENDBRANCH 60 62
ENDBRANCH 56 58
ENDBRANCH 53 56
ENDBRANCH 40 52
ENDBRANCH 37 40
ENDBRANCH 1 36
TORSDOF 23
ENDMDL
MODEL 32
USER: ADFR SOLUTION from run 182
USER: SCORE 20.909261 LL:  -5.456 LR: -17.292 RR:   0.000 FEB: -10.431
USER: RMSD 8.362053
USER: SEED 181
USER: STATUS no improvement in best in 2 clusters for 5 generations
USER: GENES 25
USER: genes 0 Translation |==|  0.48321 0.46985 0.49039
USER: genes 1 Rotation |==|  0.36414 0.22600 0.21802 0.77740
USER: genes 2 Torsion [N]-CA--C-[N] |==|  0.37368
USER: genes 3 Torsion [C]-N--CA-[CB] |==|  0.81352
USER: genes 4 Torsion [N]-CA--CB-[CG] |==|  0.70190
USER: genes 5 Torsion [CA]-CB--CG-[CD1] |==|  0.83630
USER: genes 6 Torsion [N]-CA--C-[N] |==|  0.47169
USER: genes 7 Torsion [C]-N--CA-[C] |==|  0.67821
USER: genes 8 Torsion [N]-CA--CB-[CG] |==|  0.97429
USER: genes 9 Torsion [CA]-CB--CG-[CD] |==|  0.58837
USER: genes 10 Torsion [CB]-CG--CD-[OE2] |==|  0.99616
USER: genes 11 Torsion [N]-CA--C-[N] |==|  0.05000
USER: genes 12 Torsion [C]-N--CA-[CB] |==|  0.42408
USER: genes 13 Torsion [N]-CA--C-[O] |==|  0.21024
USER: genes 14 Torsion [C]-CA--CB-[CG] |==|  0.31475
USER: genes 15 Torsion [CA]-CB--CG-[CD1] |==|  0.74318
USER: genes 16 Torsion [C]-CA--N-[C] |==|  0.77214
USER: genes 17 Torsion [N]-C--CA-[N] |==|  0.29467
USER: genes 18 Torsion [C]-CA--CB-[CG] |==|  0.74040
USER: genes 19 Torsion [CA]-CB--CG-[CD1] |==|  0.14157
USER: genes 20 Torsion [C]-CA--N-[C] |==|  0.61683
USER: genes 21 Torsion [N]-C--CA-[N] |==|  0.84644
USER: genes 22 Torsion [C]-CA--N-[C] |==|  0.17259
USER: genes 23 Torsion [N]-C--CA-[N] |==|  0.08029
USER: genes 24 Torsion [C]-CA--N-[H3] |==|  0.23849
ROOT
ATOM      1  CA  LEU B   4       2.617 -35.574 -10.066  1.00 25.55 LIG 0.18  C 
ENDROOT
BRANCH 1 2
ATOM      2  C   LEU B   4       3.495 -36.458 -10.957  1.00 26.13 LIG 0.24  C 
ATOM      3 O    LEU B   4       4.697 -36.482 -10.756  1.00 25.31 LIG-0.27  OA
ATOM      4  N   PHE B   5       2.885 -37.173 -11.916  1.00 26.68 LIG-0.35  N 
ATOM      5 H    PHE B   5       2.055 -37.090 -12.126  1.00 26.68 LIG 0.16  HD
BRANCH 4 6
ATOM      6  CA  PHE B   5       3.618 -38.178 -12.699  1.00 28.54 LIG 0.18  C 
BRANCH 6 7
ATOM      7  CB  PHE B   5       4.685 -37.532 -13.609  1.00 28.61 LIG 0.07  C 
BRANCH 7 8
ATOM      8  CG  PHE B   5       4.355 -37.530 -15.058  1.00 26.86 LIG-0.06  A 
ATOM      9  CD1 PHE B   5       4.124 -38.704 -15.739  1.00 26.13 LIG 0.01  A 
ATOM     10  CE1 PHE B   5       3.804 -38.691 -17.094  1.00 23.59 LIG 0.00  A 
ATOM     11  CZ  PHE B   5       3.691 -37.463 -17.792  1.00 25.19 LIG 0.00  A 
ATOM     12  CE2 PHE B   5       3.965 -36.293 -17.120  1.00 26.30 LIG 0.00  A 
ATOM     13  CD2 PHE B   5       4.270 -36.326 -15.758  1.00 27.99 LIG 0.01  A 
ENDBRANCH 7 8
ENDBRANCH 6 7
BRANCH 6 14
ATOM     14  C   PHE B   5       4.306 -39.232 -11.827  1.00 31.71 LIG 0.24  C 
ATOM     15  N   GLU B   6       4.814 -40.295 -12.457  1.00 34.73 LIG-0.35  N 
ATOM     16 H    GLU B   6       4.516 -40.582 -13.211  1.00 34.73 LIG 0.16  HD
ATOM     17 O    PHE B   5       4.306 -39.098 -10.600  1.00 30.66 LIG-0.27  OA
BRANCH 15 18
ATOM     18  CA  GLU B   6       5.952 -41.096 -11.921  1.00 38.89 LIG 0.18  C 
BRANCH 18 19
ATOM     19  CB  GLU B   6       5.588 -42.570 -11.700  1.00 39.10 LIG 0.04  C 
BRANCH 19 20
ATOM     20  CG  GLU B   6       4.072 -42.858 -11.863  1.00 43.96 LIG 0.12  C 
BRANCH 20 21
ATOM     21  CD  GLU B   6       3.531 -43.990 -10.976  1.00 49.39 LIG 0.17  C 
ATOM     22 OE1  GLU B   6       2.313 -44.261 -10.975  1.00 53.88 LIG-0.65  OA
ATOM     23 OE2  GLU B   6       4.335 -44.602 -10.225  1.00 56.34 LIG-0.65  OA
ENDBRANCH 20 21
ENDBRANCH 19 20
ENDBRANCH 18 19
BRANCH 18 24
ATOM     24  C   GLU B   6       7.162 -40.960 -12.897  1.00 41.03 LIG 0.24  C 
ATOM     25 O    GLU B   6       8.103 -41.798 -12.906  1.00 40.13 LIG-0.27  OA
ATOM     26  N   ALA B   7       7.087 -39.921 -13.740  1.00 43.76 LIG-0.35  N 
ATOM     27 H    ALA B   7       6.468 -39.326 -13.684  1.00 43.76 LIG 0.16  HD
BRANCH 26 28
ATOM     28  CA  ALA B   7       8.049 -39.660 -14.867  1.00 45.80 LIG 0.16  C 
ATOM     29  CB  ALA B   7       7.344 -38.854 -16.013  1.00 46.43 LIG 0.04  C 
BRANCH 28 30
ATOM     30  C   ALA B   7       9.286 -38.890 -14.430  1.00 46.67 LIG 0.22  C 
ATOM     31 O    ALA B   7      10.183 -39.471 -13.796  1.00 48.32 LIG-0.29  OA
ENDBRANCH 28 30
ENDBRANCH 26 28
ENDBRANCH 18 24
ENDBRANCH 15 18
ENDBRANCH 6 14
ENDBRANCH 4 6
ENDBRANCH 1 2
BRANCH 1 32
ATOM     32  CB  LEU B   4       2.716 -34.148 -10.567  1.00 24.11 LIG 0.04  C 
BRANCH 32 33
ATOM     33  CG  LEU B   4       1.399 -33.596 -11.160  1.00 25.40 LIG-0.02  C 
ATOM     34  CD2 LEU B   4       0.267 -34.232 -10.386  1.00 26.98 LIG 0.01  C 
ATOM     35  CD1 LEU B   4       1.207 -33.763 -12.693  1.00 25.06 LIG 0.01  C 
ENDBRANCH 32 33
ENDBRANCH 1 32
BRANCH 1 36
ATOM     36  N   LEU B   4       2.928 -35.678  -8.655  1.00 24.30 LIG-0.35  N 
ATOM     37  C   TRP B   3       2.449 -36.671  -7.910  1.00 25.24 LIG 0.24  C 
ATOM     38 O    TRP B   3       1.758 -37.566  -8.368  1.00 25.23 LIG-0.27  OA
ATOM     39 H    LEU B   4       3.437 -35.053  -8.355  1.00 24.30 LIG 0.16  HD
BRANCH 37 40
ATOM     40  CA  TRP B   3       2.772 -36.630  -6.402  1.00 26.39 LIG 0.18  C 
BRANCH 40 41
ATOM     41  CB  TRP B   3       3.310 -37.989  -5.954  1.00 26.78 LIG 0.07  C 
BRANCH 41 42
ATOM     42  CG  TRP B   3       2.260 -38.816  -5.454  1.00 25.50 LIG-0.03  A 
ATOM     43  CD1 TRP B   3       1.084 -39.092  -6.068  1.00 28.00 LIG 0.10  A 
ATOM     44  NE1 TRP B   3       0.319 -39.892  -5.275  1.00 26.39 LIG-0.36  N 
ATOM     45 HE1  TRP B   3      -0.465 -40.187  -5.472  1.00 26.39 LIG 0.17  HD
ATOM     46  CE2 TRP B   3       0.994 -40.150  -4.121  1.00 23.90 LIG 0.04  A 
ATOM     47  CZ2 TRP B   3       0.612 -40.908  -3.012  1.00 23.10 LIG 0.03  A 
ATOM     48  CD2 TRP B   3       2.230 -39.489  -4.207  1.00 23.76 LIG-0.00  A 
ATOM     49  CH2 TRP B   3       1.494 -41.019  -1.990  1.00 22.34 LIG 0.00  A 
ATOM     50  CZ3 TRP B   3       2.736 -40.363  -2.026  1.00 25.34 LIG 0.00  A 
ATOM     51  CE3 TRP B   3       3.110 -39.579  -3.147  1.00 25.10 LIG 0.01  A 
ENDBRANCH 41 42
ENDBRANCH 40 41
BRANCH 40 52
ATOM     52  N   TRP B   3       1.574 -36.245  -5.646  1.00 27.54 LIG-0.35  N 
ATOM     53  C   ALA B   2       1.716 -35.377  -4.638  1.00 31.13 LIG 0.24  C 
ATOM     54 O    ALA B   2       2.816 -34.926  -4.339  1.00 30.30 LIG-0.27  OA
ATOM     55 H    TRP B   3       0.835 -36.606  -5.898  1.00 27.54 LIG 0.16  HD
BRANCH 53 56
ATOM     56  CA  ALA B   2       0.460 -34.947  -3.863  1.00 33.66 LIG 0.17  C 
ATOM     57  CB  ALA B   2      -0.128 -36.116  -3.032  1.00 33.40 LIG 0.04  C 
BRANCH 56 58
ATOM     58  N   ALA B   2      -0.607 -34.389  -4.702  1.00 35.64 LIG-0.35  N 
ATOM     59 H    ALA B   2      -0.812 -33.572  -4.532  1.00 35.64 LIG 0.16  HD
ATOM     60  C   ALA B   1      -1.184 -35.134  -5.643  1.00 39.08 LIG 0.25  C 
ATOM     61 O    ALA B   1      -1.137 -36.344  -5.610  1.00 40.54 LIG-0.27  OA
BRANCH 60 62
ATOM     62  CA  ALA B   1      -1.984 -34.432  -6.769  1.00 41.05 LIG 0.27  C 
ATOM     63  CB  ALA B   1      -1.975 -35.280  -8.061  1.00 41.95 LIG 0.05  C 
BRANCH 62 64
ATOM     64  N   ALA B   1      -1.478 -33.066  -7.064  1.00 41.48 LIG-0.07  N 
ATOM     65 H3   ALA B   1      -0.810 -33.117  -7.651  1.00 41.48 LIG 0.28  HD
ATOM     66 H2   ALA B   1      -1.184 -32.689  -6.313  1.00 41.48 LIG 0.28  HD
ATOM     67 H1   ALA B   1      -2.134 -32.573  -7.406  1.00 41.48 LIG 0.28  HD
ENDBRANCH 62 64
ENDBRANCH 60 62
ENDBRANCH 56 58
ENDBRANCH 53 56
ENDBRANCH 40 52
ENDBRANCH 37 40
ENDBRANCH 1 36
TORSDOF 23
ENDMDL
MODEL 33
USER: ADFR SOLUTION from run 148
USER: SCORE 19.975214 LL:  -5.937 LR: -17.222 RR:   0.000 FEB: -10.361
USER: RMSD 5.760842
USER: SEED 147
USER: STATUS no improvement in best in 3 clusters for 5 generations
USER: GENES 25
USER: genes 0 Translation |==|  0.29737 0.51524 0.60492
USER: genes 1 Rotation |==|  0.68097 0.41054 0.30390 0.91327
USER: genes 2 Torsion [N]-CA--C-[N] |==|  0.74188
USER: genes 3 Torsion [C]-N--CA-[CB] |==|  0.81491
USER: genes 4 Torsion [N]-CA--CB-[CG] |==|  0.93757
USER: genes 5 Torsion [CA]-CB--CG-[CD1] |==|  0.30484
USER: genes 6 Torsion [N]-CA--C-[N] |==|  0.75614
USER: genes 7 Torsion [C]-N--CA-[C] |==|  0.62909
USER: genes 8 Torsion [N]-CA--CB-[CG] |==|  0.69826
USER: genes 9 Torsion [CA]-CB--CG-[CD] |==|  0.03099
USER: genes 10 Torsion [CB]-CG--CD-[OE2] |==|  0.81283
USER: genes 11 Torsion [N]-CA--C-[N] |==|  0.65934
USER: genes 12 Torsion [C]-N--CA-[CB] |==|  0.41326
USER: genes 13 Torsion [N]-CA--C-[O] |==|  0.52493
USER: genes 14 Torsion [C]-CA--CB-[CG] |==|  0.60295
USER: genes 15 Torsion [CA]-CB--CG-[CD1] |==|  0.40519
USER: genes 16 Torsion [C]-CA--N-[C] |==|  0.61117
USER: genes 17 Torsion [N]-C--CA-[N] |==|  0.85173
USER: genes 18 Torsion [C]-CA--CB-[CG] |==|  0.29444
USER: genes 19 Torsion [CA]-CB--CG-[CD1] |==|  0.72527
USER: genes 20 Torsion [C]-CA--N-[C] |==|  0.78333
USER: genes 21 Torsion [N]-C--CA-[N] |==|  0.10846
USER: genes 22 Torsion [C]-CA--N-[C] |==|  0.13831
USER: genes 23 Torsion [N]-C--CA-[N] |==|  0.03417
USER: genes 24 Torsion [C]-CA--N-[H3] |==|  0.27877
ROOT
ATOM      1  CA  LEU B   4      -1.007 -34.621  -7.489  1.00 25.55 LIG 0.18  C 
ENDROOT
BRANCH 1 2
ATOM      2  C   LEU B   4      -0.538 -33.309  -8.126  1.00 26.13 LIG 0.24  C 
ATOM      3 O    LEU B   4      -0.114 -33.331  -9.269  1.00 25.31 LIG-0.27  OA
ATOM      4  N   PHE B   5      -0.629 -32.193  -7.385  1.00 26.68 LIG-0.35  N 
ATOM      5 H    PHE B   5      -0.836 -32.183  -6.551  1.00 26.68 LIG 0.16  HD
BRANCH 4 6
ATOM      6  CA  PHE B   5      -0.371 -30.869  -7.969  1.00 28.54 LIG 0.18  C 
BRANCH 6 7
ATOM      7  CB  PHE B   5       1.107 -30.701  -8.383  1.00 28.61 LIG 0.07  C 
BRANCH 7 8
ATOM      8  CG  PHE B   5       2.061 -31.602  -7.684  1.00 26.86 LIG-0.06  A 
ATOM      9  CD1 PHE B   5       2.683 -32.635  -8.347  1.00 26.13 LIG 0.01  A 
ATOM     10  CE1 PHE B   5       3.584 -33.467  -7.686  1.00 23.59 LIG 0.00  A 
ATOM     11  CZ  PHE B   5       3.890 -33.249  -6.320  1.00 25.19 LIG 0.00  A 
ATOM     12  CE2 PHE B   5       3.234 -32.242  -5.647  1.00 26.30 LIG 0.00  A 
ATOM     13  CD2 PHE B   5       2.346 -31.410  -6.331  1.00 27.99 LIG 0.01  A 
ENDBRANCH 7 8
ENDBRANCH 6 7
BRANCH 6 14
ATOM     14  C   PHE B   5      -1.246 -30.570  -9.189  1.00 31.71 LIG 0.24  C 
ATOM     15  N   GLU B   6      -0.781 -30.970 -10.376  1.00 34.73 LIG-0.35  N 
ATOM     16 H    GLU B   6       0.057 -31.070 -10.543  1.00 34.73 LIG 0.16  HD
ATOM     17 O    PHE B   5      -2.290 -29.928  -9.043  1.00 30.66 LIG-0.27  OA
BRANCH 15 18
ATOM     18  CA  GLU B   6      -1.664 -31.283 -11.537  1.00 38.89 LIG 0.18  C 
BRANCH 18 19
ATOM     19  CB  GLU B   6      -1.682 -30.165 -12.587  1.00 39.10 LIG 0.04  C 
BRANCH 19 20
ATOM     20  CG  GLU B   6      -3.021 -29.381 -12.624  1.00 43.96 LIG 0.12  C 
BRANCH 20 21
ATOM     21  CD  GLU B   6      -3.971 -29.669 -11.452  1.00 49.39 LIG 0.17  C 
ATOM     22 OE1  GLU B   6      -4.185 -28.797 -10.586  1.00 53.88 LIG-0.65  OA
ATOM     23 OE2  GLU B   6      -4.489 -30.814 -11.365  1.00 56.34 LIG-0.65  OA
ENDBRANCH 20 21
ENDBRANCH 19 20
ENDBRANCH 18 19
BRANCH 18 24
ATOM     24  C   GLU B   6      -1.198 -32.633 -12.167  1.00 41.03 LIG 0.24  C 
ATOM     25 O    GLU B   6      -1.181 -33.703 -11.500  1.00 40.13 LIG-0.27  OA
ATOM     26  N   ALA B   7      -0.870 -32.563 -13.464  1.00 43.76 LIG-0.35  N 
ATOM     27 H    ALA B   7      -0.832 -31.816 -13.889  1.00 43.76 LIG 0.16  HD
BRANCH 26 28
ATOM     28  CA  ALA B   7      -0.533 -33.747 -14.329  1.00 45.80 LIG 0.16  C 
ATOM     29  CB  ALA B   7      -0.967 -33.482 -15.812  1.00 46.43 LIG 0.04  C 
BRANCH 28 30
ATOM     30  C   ALA B   7       0.948 -34.094 -14.316  1.00 46.67 LIG 0.22  C 
ATOM     31 O    ALA B   7       1.391 -34.939 -15.111  1.00 48.32 LIG-0.29  OA
ENDBRANCH 28 30
ENDBRANCH 26 28
ENDBRANCH 18 24
ENDBRANCH 15 18
ENDBRANCH 6 14
ENDBRANCH 4 6
ENDBRANCH 1 2
BRANCH 1 32
ATOM     32  CB  LEU B   4      -2.148 -34.308  -6.543  1.00 24.11 LIG 0.04  C 
BRANCH 32 33
ATOM     33  CG  LEU B   4      -2.149 -35.163  -5.254  1.00 25.40 LIG-0.02  C 
ATOM     34  CD2 LEU B   4      -2.940 -36.416  -5.557  1.00 26.98 LIG 0.01  C 
ATOM     35  CD1 LEU B   4      -2.656 -34.466  -3.961  1.00 25.06 LIG 0.01  C 
ENDBRANCH 32 33
ENDBRANCH 1 32
BRANCH 1 36
ATOM     36  N   LEU B   4       0.052 -35.364  -6.837  1.00 24.30 LIG-0.35  N 
ATOM     37  C   TRP B   3       0.127 -36.689  -6.926  1.00 25.24 LIG 0.24  C 
ATOM     38 O    TRP B   3      -0.658 -37.352  -7.584  1.00 25.23 LIG-0.27  OA
ATOM     39 H    LEU B   4       0.611 -34.878  -6.399  1.00 24.30 LIG 0.16  HD
BRANCH 37 40
ATOM     40  CA  TRP B   3       1.242 -37.381  -6.117  1.00 26.39 LIG 0.18  C 
BRANCH 40 41
ATOM     41  CB  TRP B   3       0.928 -37.286  -4.623  1.00 26.78 LIG 0.07  C 
BRANCH 41 42
ATOM     42  CG  TRP B   3       0.493 -38.545  -4.111  1.00 25.50 LIG-0.03  A 
ATOM     43  CD1 TRP B   3      -0.788 -38.933  -3.898  1.00 28.00 LIG 0.10  A 
ATOM     44  NE1 TRP B   3      -0.815 -40.189  -3.373  1.00 26.39 LIG-0.36  N 
ATOM     45 HE1  TRP B   3      -1.525 -40.627  -3.163  1.00 26.39 LIG 0.17  HD
ATOM     46  CE2 TRP B   3       0.462 -40.641  -3.236  1.00 23.90 LIG 0.04  A 
ATOM     47  CZ2 TRP B   3       0.931 -41.858  -2.737  1.00 23.10 LIG 0.03  A 
ATOM     48  CD2 TRP B   3       1.313 -39.626  -3.702  1.00 23.76 LIG-0.00  A 
ATOM     49  CH2 TRP B   3       2.270 -42.063  -2.730  1.00 22.34 LIG 0.00  A 
ATOM     50  CZ3 TRP B   3       3.161 -41.069  -3.172  1.00 25.34 LIG 0.00  A 
ATOM     51  CE3 TRP B   3       2.678 -39.828  -3.659  1.00 25.10 LIG 0.01  A 
ENDBRANCH 41 42
ENDBRANCH 40 41
BRANCH 40 52
ATOM     52  N   TRP B   3       2.541 -36.775  -6.437  1.00 27.54 LIG-0.35  N 
ATOM     53  C   ALA B   2       3.135 -37.124  -7.584  1.00 31.13 LIG 0.24  C 
ATOM     54 O    ALA B   2       2.621 -37.940  -8.341  1.00 30.30 LIG-0.27  OA
ATOM     55 H    TRP B   3       2.852 -36.220  -5.859  1.00 27.54 LIG 0.16  HD
BRANCH 53 56
ATOM     56  CA  ALA B   2       4.480 -36.469  -7.938  1.00 33.66 LIG 0.17  C 
ATOM     57  CB  ALA B   2       5.231 -37.263  -9.036  1.00 33.40 LIG 0.04  C 
BRANCH 56 58
ATOM     58  N   ALA B   2       5.382 -36.285  -6.795  1.00 35.64 LIG-0.35  N 
ATOM     59 H    ALA B   2       5.712 -35.495  -6.718  1.00 35.64 LIG 0.16  HD
ATOM     60  C   ALA B   1       5.638 -37.296  -5.968  1.00 39.08 LIG 0.25  C 
ATOM     61 O    ALA B   1       5.462 -38.447  -6.302  1.00 40.54 LIG-0.27  OA
BRANCH 60 62
ATOM     62  CA  ALA B   1       6.233 -36.990  -4.571  1.00 41.05 LIG 0.27  C 
ATOM     63  CB  ALA B   1       5.518 -37.813  -3.475  1.00 41.95 LIG 0.05  C 
BRANCH 62 64
ATOM     64  N   ALA B   1       6.173 -35.544  -4.228  1.00 41.48 LIG-0.07  N 
ATOM     65 H3   ALA B   1       5.484 -35.396  -3.686  1.00 41.48 LIG 0.28  HD
ATOM     66 H2   ALA B   1       6.073 -35.066  -4.973  1.00 41.48 LIG 0.28  HD
ATOM     67 H1   ALA B   1       6.926 -35.304  -3.821  1.00 41.48 LIG 0.28  HD
ENDBRANCH 62 64
ENDBRANCH 60 62
ENDBRANCH 56 58
ENDBRANCH 53 56
ENDBRANCH 40 52
ENDBRANCH 37 40
ENDBRANCH 1 36
TORSDOF 23
ENDMDL
MODEL 34
USER: ADFR SOLUTION from run 6
USER: SCORE 21.641148 LL:  -6.542 LR: -17.217 RR:   0.000 FEB: -10.356
USER: RMSD 8.544116
USER: SEED 306202
USER: STATUS no improvement in best in 6 clusters for 5 generations
USER: GENES 25
USER: genes 0 Translation |==|  0.46746 0.38327 0.58949
USER: genes 1 Rotation |==|  0.49916 0.27097 0.16641 0.79371
USER: genes 2 Torsion [N]-CA--C-[N] |==|  0.42818
USER: genes 3 Torsion [C]-N--CA-[CB] |==|  0.85035
USER: genes 4 Torsion [N]-CA--CB-[CG] |==|  0.92159
USER: genes 5 Torsion [CA]-CB--CG-[CD1] |==|  0.35083
USER: genes 6 Torsion [N]-CA--C-[N] |==|  0.65130
USER: genes 7 Torsion [C]-N--CA-[C] |==|  0.56141
USER: genes 8 Torsion [N]-CA--CB-[CG] |==|  0.57871
USER: genes 9 Torsion [CA]-CB--CG-[CD] |==|  0.21368
USER: genes 10 Torsion [CB]-CG--CD-[OE2] |==|  0.55890
USER: genes 11 Torsion [N]-CA--C-[N] |==|  0.44290
USER: genes 12 Torsion [C]-N--CA-[CB] |==|  0.23560
USER: genes 13 Torsion [N]-CA--C-[O] |==|  0.07845
USER: genes 14 Torsion [C]-CA--CB-[CG] |==|  0.34512
USER: genes 15 Torsion [CA]-CB--CG-[CD1] |==|  0.03103
USER: genes 16 Torsion [C]-CA--N-[C] |==|  0.63440
USER: genes 17 Torsion [N]-C--CA-[N] |==|  0.03492
USER: genes 18 Torsion [C]-CA--CB-[CG] |==|  0.85200
USER: genes 19 Torsion [CA]-CB--CG-[CD1] |==|  0.78433
USER: genes 20 Torsion [C]-CA--N-[C] |==|  0.68889
USER: genes 21 Torsion [N]-C--CA-[N] |==|  0.88458
USER: genes 22 Torsion [C]-CA--N-[C] |==|  0.81591
USER: genes 23 Torsion [N]-C--CA-[N] |==|  0.87945
USER: genes 24 Torsion [C]-CA--N-[H3] |==|  0.49854
ROOT
ATOM      1  CA  LEU B   4       2.309 -37.392  -7.836  1.00 25.55 LIG 0.18  C 
ENDROOT
BRANCH 1 2
ATOM      2  C   LEU B   4       3.500 -37.580  -8.782  1.00 26.13 LIG 0.24  C 
ATOM      3 O    LEU B   4       4.566 -37.944  -8.317  1.00 25.31 LIG-0.27  OA
ATOM      4  N   PHE B   5       3.298 -37.340 -10.087  1.00 26.68 LIG-0.35  N 
ATOM      5 H    PHE B   5       2.580 -36.994 -10.410  1.00 26.68 LIG 0.16  HD
BRANCH 4 6
ATOM      6  CA  PHE B   5       4.326 -37.663 -11.088  1.00 28.54 LIG 0.18  C 
BRANCH 6 7
ATOM      7  CB  PHE B   5       5.687 -37.021 -10.742  1.00 28.61 LIG 0.07  C 
BRANCH 7 8
ATOM      8  CG  PHE B   5       5.605 -35.761  -9.957  1.00 26.86 LIG-0.06  A 
ATOM      9  CD1 PHE B   5       6.291 -35.611  -8.774  1.00 26.13 LIG 0.01  A 
ATOM     10  CE1 PHE B   5       6.217 -34.423  -8.052  1.00 23.59 LIG 0.00  A 
ATOM     11  CZ  PHE B   5       5.446 -33.337  -8.536  1.00 25.19 LIG 0.00  A 
ATOM     12  CE2 PHE B   5       4.725 -33.504  -9.698  1.00 26.30 LIG 0.00  A 
ATOM     13  CD2 PHE B   5       4.825 -34.697 -10.414  1.00 27.99 LIG 0.01  A 
ENDBRANCH 7 8
ENDBRANCH 6 7
BRANCH 6 14
ATOM     14  C   PHE B   5       4.539 -39.169 -11.265  1.00 31.71 LIG 0.24  C 
ATOM     15  N   GLU B   6       5.788 -39.621 -11.121  1.00 34.73 LIG-0.35  N 
ATOM     16 H    GLU B   6       6.483 -39.135 -11.260  1.00 34.73 LIG 0.16  HD
ATOM     17 O    PHE B   5       3.586 -39.881 -11.594  1.00 30.66 LIG-0.27  OA
BRANCH 15 18
ATOM     18  CA  GLU B   6       6.108 -41.017 -10.703  1.00 38.89 LIG 0.18  C 
BRANCH 18 19
ATOM     19  CB  GLU B   6       5.976 -42.025 -11.851  1.00 39.10 LIG 0.04  C 
BRANCH 19 20
ATOM     20  CG  GLU B   6       5.611 -43.455 -11.372  1.00 43.96 LIG 0.12  C 
BRANCH 20 21
ATOM     21  CD  GLU B   6       4.137 -43.650 -10.984  1.00 49.39 LIG 0.17  C 
ATOM     22 OE1  GLU B   6       3.269 -42.847 -11.382  1.00 53.88 LIG-0.65  OA
ATOM     23 OE2  GLU B   6       3.837 -44.610 -10.225  1.00 56.34 LIG-0.65  OA
ENDBRANCH 20 21
ENDBRANCH 19 20
ENDBRANCH 18 19
BRANCH 18 24
ATOM     24  C   GLU B   6       7.549 -41.039 -10.104  1.00 41.03 LIG 0.24  C 
ATOM     25 O    GLU B   6       8.372 -40.110 -10.326  1.00 40.13 LIG-0.27  OA
ATOM     26  N   ALA B   7       7.811 -42.086  -9.311  1.00 43.76 LIG-0.35  N 
ATOM     27 H    ALA B   7       7.259 -42.739  -9.215  1.00 43.76 LIG 0.16  HD
BRANCH 26 28
ATOM     28  CA  ALA B   7       9.069 -42.258  -8.503  1.00 45.80 LIG 0.16  C 
ATOM     29  CB  ALA B   7       8.945 -41.510  -7.131  1.00 46.43 LIG 0.04  C 
BRANCH 28 30
ATOM     30  C   ALA B   7       9.406 -43.716  -8.227  1.00 46.67 LIG 0.22  C 
ATOM     31 O    ALA B   7       9.042 -44.596  -9.026  1.00 48.32 LIG-0.29  OA
ENDBRANCH 28 30
ENDBRANCH 26 28
ENDBRANCH 18 24
ENDBRANCH 15 18
ENDBRANCH 6 14
ENDBRANCH 4 6
ENDBRANCH 1 2
BRANCH 1 32
ATOM     32  CB  LEU B   4       2.174 -35.915  -7.531  1.00 24.11 LIG 0.04  C 
BRANCH 32 33
ATOM     33  CG  LEU B   4       0.781 -35.330  -7.859  1.00 25.40 LIG-0.02  C 
ATOM     34  CD2 LEU B   4       0.395 -34.435  -6.702  1.00 26.98 LIG 0.01  C 
ATOM     35  CD1 LEU B   4      -0.341 -36.354  -8.186  1.00 25.06 LIG 0.01  C 
ENDBRANCH 32 33
ENDBRANCH 1 32
BRANCH 1 36
ATOM     36  N   LEU B   4       2.392 -38.191  -6.630  1.00 24.30 LIG-0.35  N 
ATOM     37  C   TRP B   3       1.362 -38.922  -6.210  1.00 25.24 LIG 0.24  C 
ATOM     38 O    TRP B   3       0.311 -38.996  -6.824  1.00 25.23 LIG-0.27  OA
ATOM     39 H    LEU B   4       3.149 -38.147  -6.224  1.00 24.30 LIG 0.16  HD
BRANCH 37 40
ATOM     40  CA  TRP B   3       1.533 -39.660  -4.867  1.00 26.39 LIG 0.18  C 
BRANCH 40 41
ATOM     41  CB  TRP B   3       0.268 -39.491  -4.024  1.00 26.78 LIG 0.07  C 
BRANCH 41 42
ATOM     42  CG  TRP B   3      -0.076 -38.113  -3.887  1.00 25.50 LIG-0.03  A 
ATOM     43  CD1 TRP B   3       0.507 -37.211  -3.060  1.00 28.00 LIG 0.10  A 
ATOM     44  NE1 TRP B   3      -0.106 -36.002  -3.181  1.00 26.39 LIG-0.36  N 
ATOM     45 HE1  TRP B   3       0.106 -35.289  -2.748  1.00 26.39 LIG 0.17  HD
ATOM     46  CE2 TRP B   3      -1.108 -36.101  -4.098  1.00 23.90 LIG 0.04  A 
ATOM     47  CZ2 TRP B   3      -2.011 -35.134  -4.544  1.00 23.10 LIG 0.03  A 
ATOM     48  CD2 TRP B   3      -1.109 -37.424  -4.569  1.00 23.76 LIG-0.00  A 
ATOM     49  CH2 TRP B   3      -2.908 -35.498  -5.492  1.00 22.34 LIG 0.00  A 
ATOM     50  CZ3 TRP B   3      -2.956 -36.815  -5.981  1.00 25.34 LIG 0.00  A 
ATOM     51  CE3 TRP B   3      -2.049 -37.797  -5.509  1.00 25.10 LIG 0.01  A 
ENDBRANCH 41 42
ENDBRANCH 40 41
BRANCH 40 52
ATOM     52  N   TRP B   3       2.722 -39.156  -4.168  1.00 27.54 LIG-0.35  N 
ATOM     53  C   ALA B   2       3.768 -39.978  -4.028  1.00 31.13 LIG 0.24  C 
ATOM     54 O    ALA B   2       3.734 -41.127  -4.456  1.00 30.30 LIG-0.27  OA
ATOM     55 H    TRP B   3       2.678 -38.346  -3.882  1.00 27.54 LIG 0.16  HD
BRANCH 53 56
ATOM     56  CA  ALA B   2       5.026 -39.445  -3.325  1.00 33.66 LIG 0.17  C 
ATOM     57  CB  ALA B   2       4.892 -39.514  -1.782  1.00 33.40 LIG 0.04  C 
BRANCH 56 58
ATOM     58  N   ALA B   2       5.394 -38.074  -3.700  1.00 35.64 LIG-0.35  N 
ATOM     59 H    ALA B   2       5.326 -37.495  -3.068  1.00 35.64 LIG 0.16  HD
ATOM     60  C   ALA B   1       5.795 -37.799  -4.938  1.00 39.08 LIG 0.25  C 
ATOM     61 O    ALA B   1       5.532 -38.532  -5.867  1.00 40.54 LIG-0.27  OA
BRANCH 60 62
ATOM     62  CA  ALA B   1       6.561 -36.478  -5.203  1.00 41.05 LIG 0.27  C 
ATOM     63  CB  ALA B   1       8.047 -36.613  -4.798  1.00 41.95 LIG 0.05  C 
BRANCH 62 64
ATOM     64  N   ALA B   1       5.956 -35.316  -4.500  1.00 41.48 LIG-0.07  N 
ATOM     65 H3   ALA B   1       6.431 -34.584  -4.674  1.00 41.48 LIG 0.28  HD
ATOM     66 H2   ALA B   1       5.954 -35.467  -3.623  1.00 41.48 LIG 0.28  HD
ATOM     67 H1   ALA B   1       5.120 -35.200  -4.782  1.00 41.48 LIG 0.28  HD
ENDBRANCH 62 64
ENDBRANCH 60 62
ENDBRANCH 56 58
ENDBRANCH 53 56
ENDBRANCH 40 52
ENDBRANCH 37 40
ENDBRANCH 1 36
TORSDOF 23
ENDMDL
MODEL 35
USER: ADFR SOLUTION from run 60
USER: SCORE 22.680962 LL:  -7.294 LR: -17.164 RR:   0.000 FEB: -10.303
USER: RMSD 7.113983
USER: SEED 59
USER: STATUS no improvement in best in 2 clusters for 5 generations
USER: GENES 25
USER: genes 0 Translation |==|  0.42939 0.37622 0.60644
USER: genes 1 Rotation |==|  0.51125 0.25105 0.21456 0.82623
USER: genes 2 Torsion [N]-CA--C-[N] |==|  0.40000
USER: genes 3 Torsion [C]-N--CA-[CB] |==|  0.38523
USER: genes 4 Torsion [N]-CA--CB-[CG] |==|  0.65959
USER: genes 5 Torsion [CA]-CB--CG-[CD1] |==|  0.90687
USER: genes 6 Torsion [N]-CA--C-[N] |==|  0.92784
USER: genes 7 Torsion [C]-N--CA-[C] |==|  0.84883
USER: genes 8 Torsion [N]-CA--CB-[CG] |==|  0.81385
USER: genes 9 Torsion [CA]-CB--CG-[CD] |==|  0.36773
USER: genes 10 Torsion [CB]-CG--CD-[OE2] |==|  0.50047
USER: genes 11 Torsion [N]-CA--C-[N] |==|  0.88371
USER: genes 12 Torsion [C]-N--CA-[CB] |==|  0.36441
USER: genes 13 Torsion [N]-CA--C-[O] |==|  0.12539
USER: genes 14 Torsion [C]-CA--CB-[CG] |==|  0.25030
USER: genes 15 Torsion [CA]-CB--CG-[CD1] |==|  0.17258
USER: genes 16 Torsion [C]-CA--N-[C] |==|  0.63315
USER: genes 17 Torsion [N]-C--CA-[N] |==|  0.94773
USER: genes 18 Torsion [C]-CA--CB-[CG] |==|  0.88416
USER: genes 19 Torsion [CA]-CB--CG-[CD1] |==|  0.77738
USER: genes 20 Torsion [C]-CA--N-[C] |==|  0.67784
USER: genes 21 Torsion [N]-C--CA-[N] |==|  0.98570
USER: genes 22 Torsion [C]-CA--N-[C] |==|  0.76384
USER: genes 23 Torsion [N]-C--CA-[N] |==|  0.79239
USER: genes 24 Torsion [C]-CA--N-[H3] |==|  0.87407
ROOT
ATOM      1  CA  LEU B   4       1.567 -37.540  -7.455  1.00 25.55 LIG 0.18  C 
ENDROOT
BRANCH 1 2
ATOM      2  C   LEU B   4       2.799 -37.563  -8.366  1.00 26.13 LIG 0.24  C 
ATOM      3 O    LEU B   4       3.902 -37.439  -7.862  1.00 25.31 LIG-0.27  OA
ATOM      4  N   PHE B   5       2.594 -37.728  -9.682  1.00 26.68 LIG-0.35  N 
ATOM      5 H    PHE B   5       1.819 -37.721 -10.055  1.00 26.68 LIG 0.16  HD
BRANCH 4 6
ATOM      6  CA  PHE B   5       3.717 -37.940 -10.606  1.00 28.54 LIG 0.18  C 
BRANCH 6 7
ATOM      7  CB  PHE B   5       3.397 -39.019 -11.664  1.00 28.61 LIG 0.07  C 
BRANCH 7 8
ATOM      8  CG  PHE B   5       4.341 -40.167 -11.695  1.00 26.86 LIG-0.06  A 
ATOM      9  CD1 PHE B   5       5.677 -39.998 -11.412  1.00 26.13 LIG 0.01  A 
ATOM     10  CE1 PHE B   5       6.552 -41.082 -11.432  1.00 23.59 LIG 0.00  A 
ATOM     11  CZ  PHE B   5       6.074 -42.383 -11.725  1.00 25.19 LIG 0.00  A 
ATOM     12  CE2 PHE B   5       4.745 -42.542 -12.051  1.00 26.30 LIG 0.00  A 
ATOM     13  CD2 PHE B   5       3.882 -41.447 -12.010  1.00 27.99 LIG 0.01  A 
ENDBRANCH 7 8
ENDBRANCH 6 7
BRANCH 6 14
ATOM     14  C   PHE B   5       4.141 -36.664 -11.338  1.00 31.71 LIG 0.24  C 
ATOM     15  N   GLU B   6       3.206 -35.722 -11.496  1.00 34.73 LIG-0.35  N 
ATOM     16 H    GLU B   6       2.364 -35.895 -11.520  1.00 34.73 LIG 0.16  HD
ATOM     17 O    PHE B   5       5.281 -36.582 -11.804  1.00 30.66 LIG-0.27  OA
BRANCH 15 18
ATOM     18  CA  GLU B   6       3.524 -34.273 -11.648  1.00 38.89 LIG 0.18  C 
BRANCH 18 19
ATOM     19  CB  GLU B   6       2.268 -33.399 -11.760  1.00 39.10 LIG 0.04  C 
BRANCH 19 20
ATOM     20  CG  GLU B   6       1.466 -33.644 -13.066  1.00 43.96 LIG 0.12  C 
BRANCH 20 21
ATOM     21  CD  GLU B   6      -0.047 -33.829 -12.869  1.00 49.39 LIG 0.17  C 
ATOM     22 OE1  GLU B   6      -0.539 -33.816 -11.722  1.00 53.88 LIG-0.65  OA
ATOM     23 OE2  GLU B   6      -0.765 -34.036 -13.883  1.00 56.34 LIG-0.65  OA
ENDBRANCH 20 21
ENDBRANCH 19 20
ENDBRANCH 18 19
BRANCH 18 24
ATOM     24  C   GLU B   6       4.407 -33.828 -10.441  1.00 41.03 LIG 0.24  C 
ATOM     25 O    GLU B   6       5.374 -33.032 -10.586  1.00 40.13 LIG-0.27  OA
ATOM     26  N   ALA B   7       4.025 -34.320  -9.255  1.00 43.76 LIG-0.35  N 
ATOM     27 H    ALA B   7       3.400 -34.905  -9.179  1.00 43.76 LIG 0.16  HD
BRANCH 26 28
ATOM     28  CA  ALA B   7       4.620 -33.926  -7.930  1.00 45.80 LIG 0.16  C 
ATOM     29  CB  ALA B   7       3.488 -33.581  -6.901  1.00 46.43 LIG 0.04  C 
BRANCH 28 30
ATOM     30  C   ALA B   7       5.503 -35.008  -7.327  1.00 46.67 LIG 0.22  C 
ATOM     31 O    ALA B   7       6.329 -35.600  -8.042  1.00 48.32 LIG-0.29  OA
ENDBRANCH 28 30
ENDBRANCH 26 28
ENDBRANCH 18 24
ENDBRANCH 15 18
ENDBRANCH 6 14
ENDBRANCH 4 6
ENDBRANCH 1 2
BRANCH 1 32
ATOM     32  CB  LEU B   4       1.101 -36.105  -7.321  1.00 24.11 LIG 0.04  C 
BRANCH 32 33
ATOM     33  CG  LEU B   4       0.070 -35.676  -8.390  1.00 25.40 LIG-0.02  C 
ATOM     34  CD2 LEU B   4      -0.138 -34.187  -8.230  1.00 26.98 LIG 0.01  C 
ATOM     35  CD1 LEU B   4      -1.281 -36.444  -8.397  1.00 25.06 LIG 0.01  C 
ENDBRANCH 32 33
ENDBRANCH 1 32
BRANCH 1 36
ATOM     36  N   LEU B   4       1.785 -38.164  -6.165  1.00 24.30 LIG-0.35  N 
ATOM     37  C   TRP B   3       0.924 -39.048  -5.668  1.00 25.24 LIG 0.24  C 
ATOM     38 O    TRP B   3      -0.071 -39.413  -6.272  1.00 25.23 LIG-0.27  OA
ATOM     39 H    LEU B   4       2.504 -37.914  -5.765  1.00 24.30 LIG 0.16  HD
BRANCH 37 40
ATOM     40  CA  TRP B   3       1.210 -39.577  -4.248  1.00 26.39 LIG 0.18  C 
BRANCH 40 41
ATOM     41  CB  TRP B   3       0.259 -38.916  -3.250  1.00 26.78 LIG 0.07  C 
BRANCH 41 42
ATOM     42  CG  TRP B   3       0.108 -37.525  -3.531  1.00 25.50 LIG-0.03  A 
ATOM     43  CD1 TRP B   3       0.966 -36.533  -3.192  1.00 28.00 LIG 0.10  A 
ATOM     44  NE1 TRP B   3       0.476 -35.331  -3.600  1.00 26.39 LIG-0.36  N 
ATOM     45 HE1  TRP B   3       0.861 -34.570  -3.486  1.00 26.39 LIG 0.17  HD
ATOM     46  CE2 TRP B   3      -0.721 -35.526  -4.218  1.00 23.90 LIG 0.04  A 
ATOM     47  CZ2 TRP B   3      -1.595 -34.597  -4.788  1.00 23.10 LIG 0.03  A 
ATOM     48  CD2 TRP B   3      -0.979 -36.906  -4.198  1.00 23.76 LIG-0.00  A 
ATOM     49  CH2 TRP B   3      -2.728 -35.068  -5.364  1.00 22.34 LIG 0.00  A 
ATOM     50  CZ3 TRP B   3      -3.034 -36.440  -5.353  1.00 25.34 LIG 0.00  A 
ATOM     51  CE3 TRP B   3      -2.151 -37.375  -4.756  1.00 25.10 LIG 0.01  A 
ENDBRANCH 41 42
ENDBRANCH 40 41
BRANCH 40 52
ATOM     52  N   TRP B   3       2.615 -39.335  -3.899  1.00 27.54 LIG-0.35  N 
ATOM     53  C   ALA B   2       3.407 -40.394  -3.693  1.00 31.13 LIG 0.24  C 
ATOM     54 O    ALA B   2       2.971 -41.537  -3.775  1.00 30.30 LIG-0.27  OA
ATOM     55 H    TRP B   3       2.855 -38.511  -3.846  1.00 27.54 LIG 0.16  HD
BRANCH 53 56
ATOM     56  CA  ALA B   2       4.886 -40.145  -3.358  1.00 33.66 LIG 0.17  C 
ATOM     57  CB  ALA B   2       5.258 -40.704  -1.961  1.00 33.40 LIG 0.04  C 
BRANCH 56 58
ATOM     58  N   ALA B   2       5.291 -38.736  -3.419  1.00 35.64 LIG-0.35  N 
ATOM     59 H    ALA B   2       5.270 -38.319  -2.667  1.00 35.64 LIG 0.16  HD
ATOM     60  C   ALA B   1       5.656 -38.189  -4.577  1.00 39.08 LIG 0.25  C 
ATOM     61 O    ALA B   1       5.331 -38.677  -5.638  1.00 40.54 LIG-0.27  OA
BRANCH 60 62
ATOM     62  CA  ALA B   1       6.461 -36.866  -4.561  1.00 41.05 LIG 0.27  C 
ATOM     63  CB  ALA B   1       7.647 -36.955  -3.573  1.00 41.95 LIG 0.05  C 
BRANCH 62 64
ATOM     64  N   ALA B   1       5.619 -35.688  -4.225  1.00 41.48 LIG-0.07  N 
ATOM     65 H3   ALA B   1       4.860 -35.724  -4.688  1.00 41.48 LIG 0.28  HD
ATOM     66 H2   ALA B   1       6.057 -34.941  -4.431  1.00 41.48 LIG 0.28  HD
ATOM     67 H1   ALA B   1       5.435 -35.693  -3.354  1.00 41.48 LIG 0.28  HD
ENDBRANCH 62 64
ENDBRANCH 60 62
ENDBRANCH 56 58
ENDBRANCH 53 56
ENDBRANCH 40 52
ENDBRANCH 37 40
ENDBRANCH 1 36
TORSDOF 23
ENDMDL
MODEL 36
USER: ADFR SOLUTION from run 163
USER: SCORE 22.613966 LL:  -6.447 LR: -17.150 RR:   0.000 FEB: -10.289
USER: RMSD 6.236975
USER: SEED 162
USER: STATUS no improvement in best in 5 clusters for 5 generations
USER: GENES 25
USER: genes 0 Translation |==|  0.41496 0.39275 0.60813
USER: genes 1 Rotation |==|  0.62440 0.24999 0.30170 0.86427
USER: genes 2 Torsion [N]-CA--C-[N] |==|  0.43892
USER: genes 3 Torsion [C]-N--CA-[CB] |==|  0.19111
USER: genes 4 Torsion [N]-CA--CB-[CG] |==|  0.16593
USER: genes 5 Torsion [CA]-CB--CG-[CD1] |==|  0.99710
USER: genes 6 Torsion [N]-CA--C-[N] |==|  0.05348
USER: genes 7 Torsion [C]-N--CA-[C] |==|  0.60059
USER: genes 8 Torsion [N]-CA--CB-[CG] |==|  0.41788
USER: genes 9 Torsion [CA]-CB--CG-[CD] |==|  0.21144
USER: genes 10 Torsion [CB]-CG--CD-[OE2] |==|  0.86943
USER: genes 11 Torsion [N]-CA--C-[N] |==|  0.34536
USER: genes 12 Torsion [C]-N--CA-[CB] |==|  0.76632
USER: genes 13 Torsion [N]-CA--C-[O] |==|  0.53642
USER: genes 14 Torsion [C]-CA--CB-[CG] |==|  0.25074
USER: genes 15 Torsion [CA]-CB--CG-[CD1] |==|  0.34680
USER: genes 16 Torsion [C]-CA--N-[C] |==|  0.54624
USER: genes 17 Torsion [N]-C--CA-[N] |==|  0.93902
USER: genes 18 Torsion [C]-CA--CB-[CG] |==|  0.01559
USER: genes 19 Torsion [CA]-CB--CG-[CD1] |==|  0.25002
USER: genes 20 Torsion [C]-CA--N-[C] |==|  0.71475
USER: genes 21 Torsion [N]-C--CA-[N] |==|  0.94584
USER: genes 22 Torsion [C]-CA--N-[C] |==|  0.76709
USER: genes 23 Torsion [N]-C--CA-[N] |==|  0.93267
USER: genes 24 Torsion [C]-CA--N-[H3] |==|  0.14560
ROOT
ATOM      1  CA  LEU B   4       1.286 -37.193  -7.417  1.00 25.55 LIG 0.18  C 
ENDROOT
BRANCH 1 2
ATOM      2  C   LEU B   4       2.467 -36.442  -8.040  1.00 26.13 LIG 0.24  C 
ATOM      3 O    LEU B   4       3.381 -36.085  -7.317  1.00 25.31 LIG-0.27  OA
ATOM      4  N   PHE B   5       2.434 -36.223  -9.364  1.00 26.68 LIG-0.35  N 
ATOM      5 H    PHE B   5       1.753 -36.387  -9.864  1.00 26.68 LIG 0.16  HD
BRANCH 4 6
ATOM      6  CA  PHE B   5       3.597 -35.672 -10.073  1.00 28.54 LIG 0.18  C 
BRANCH 6 7
ATOM      7  CB  PHE B   5       4.771 -36.675 -10.120  1.00 28.61 LIG 0.07  C 
BRANCH 7 8
ATOM      8  CG  PHE B   5       4.468 -37.964 -10.796  1.00 26.86 LIG-0.06  A 
ATOM      9  CD1 PHE B   5       3.218 -38.222 -11.311  1.00 26.13 LIG 0.01  A 
ATOM     10  CE1 PHE B   5       2.947 -39.428 -11.954  1.00 23.59 LIG 0.00  A 
ATOM     11  CZ  PHE B   5       3.963 -40.403 -12.106  1.00 25.19 LIG 0.00  A 
ATOM     12  CE2 PHE B   5       5.201 -40.161 -11.551  1.00 26.30 LIG 0.00  A 
ATOM     13  CD2 PHE B   5       5.457 -38.941 -10.924  1.00 27.99 LIG 0.01  A 
ENDBRANCH 7 8
ENDBRANCH 6 7
BRANCH 6 14
ATOM     14  C   PHE B   5       3.278 -35.242 -11.507  1.00 31.71 LIG 0.24  C 
ATOM     15  N   GLU B   6       1.991 -35.038 -11.802  1.00 34.73 LIG-0.35  N 
ATOM     16 H    GLU B   6       1.346 -35.423 -11.383  1.00 34.73 LIG 0.16  HD
ATOM     17 O    PHE B   5       4.190 -35.169 -12.335  1.00 30.66 LIG-0.27  OA
BRANCH 15 18
ATOM     18  CA  GLU B   6       1.536 -34.120 -12.886  1.00 38.89 LIG 0.18  C 
BRANCH 18 19
ATOM     19  CB  GLU B   6       1.330 -34.841 -14.225  1.00 39.10 LIG 0.04  C 
BRANCH 19 20
ATOM     20  CG  GLU B   6       0.238 -34.186 -15.112  1.00 43.96 LIG 0.12  C 
BRANCH 20 21
ATOM     21  CD  GLU B   6       0.670 -32.890 -15.816  1.00 49.39 LIG 0.17  C 
ATOM     22 OE1  GLU B   6       0.470 -32.741 -17.038  1.00 53.88 LIG-0.65  OA
ATOM     23 OE2  GLU B   6       1.265 -32.008 -15.141  1.00 56.34 LIG-0.65  OA
ENDBRANCH 20 21
ENDBRANCH 19 20
ENDBRANCH 18 19
BRANCH 18 24
ATOM     24  C   GLU B   6       0.223 -33.415 -12.424  1.00 41.03 LIG 0.24  C 
ATOM     25 O    GLU B   6      -0.774 -34.071 -12.019  1.00 40.13 LIG-0.27  OA
ATOM     26  N   ALA B   7       0.267 -32.076 -12.450  1.00 43.76 LIG-0.35  N 
ATOM     27 H    ALA B   7       0.933 -31.644 -12.782  1.00 43.76 LIG 0.16  HD
BRANCH 26 28
ATOM     28  CA  ALA B   7      -0.811 -31.172 -11.918  1.00 45.80 LIG 0.16  C 
ATOM     29  CB  ALA B   7      -1.934 -30.967 -12.993  1.00 46.43 LIG 0.04  C 
BRANCH 28 30
ATOM     30  C   ALA B   7      -1.456 -31.697 -10.644  1.00 46.67 LIG 0.22  C 
ATOM     31 O    ALA B   7      -2.512 -31.189 -10.232  1.00 48.32 LIG-0.29  OA
ENDBRANCH 28 30
ENDBRANCH 26 28
ENDBRANCH 18 24
ENDBRANCH 15 18
ENDBRANCH 6 14
ENDBRANCH 4 6
ENDBRANCH 1 2
BRANCH 1 32
ATOM     32  CB  LEU B   4       0.119 -36.233  -7.303  1.00 24.11 LIG 0.04  C 
BRANCH 32 33
ATOM     33  CG  LEU B   4      -0.807 -36.219  -8.541  1.00 25.40 LIG-0.02  C 
ATOM     34  CD2 LEU B   4      -0.594 -34.892  -9.235  1.00 26.98 LIG 0.01  C 
ATOM     35  CD1 LEU B   4      -2.315 -36.491  -8.281  1.00 25.06 LIG 0.01  C 
ENDBRANCH 32 33
ENDBRANCH 1 32
BRANCH 1 36
ATOM     36  N   LEU B   4       1.598 -37.822  -6.150  1.00 24.30 LIG-0.35  N 
ATOM     37  C   TRP B   3       0.819 -38.769  -5.634  1.00 25.24 LIG 0.24  C 
ATOM     38 O    TRP B   3      -0.175 -39.190  -6.204  1.00 25.23 LIG-0.27  OA
ATOM     39 H    LEU B   4       2.315 -37.531  -5.774  1.00 24.30 LIG 0.16  HD
BRANCH 37 40
ATOM     40  CA  TRP B   3       1.199 -39.302  -4.238  1.00 26.39 LIG 0.18  C 
BRANCH 40 41
ATOM     41  CB  TRP B   3       0.300 -38.662  -3.180  1.00 26.78 LIG 0.07  C 
BRANCH 41 42
ATOM     42  CG  TRP B   3      -0.713 -37.861  -3.787  1.00 25.50 LIG-0.03  A 
ATOM     43  CD1 TRP B   3      -1.947 -38.269  -4.170  1.00 28.00 LIG 0.10  A 
ATOM     44  NE1 TRP B   3      -2.626 -37.235  -4.739  1.00 26.39 LIG-0.36  N 
ATOM     45 HE1  TRP B   3      -3.427 -37.275  -5.051  1.00 26.39 LIG 0.17  HD
ATOM     46  CE2 TRP B   3      -1.834 -36.127  -4.734  1.00 23.90 LIG 0.04  A 
ATOM     47  CZ2 TRP B   3      -2.091 -34.842  -5.215  1.00 23.10 LIG 0.03  A 
ATOM     48  CD2 TRP B   3      -0.619 -36.489  -4.131  1.00 23.76 LIG-0.00  A 
ATOM     49  CH2 TRP B   3      -1.123 -33.906  -5.065  1.00 22.34 LIG 0.00  A 
ATOM     50  CZ3 TRP B   3       0.114 -34.227  -4.481  1.00 25.34 LIG 0.00  A 
ATOM     51  CE3 TRP B   3       0.376 -35.540  -4.012  1.00 25.10 LIG 0.01  A 
ENDBRANCH 41 42
ENDBRANCH 40 41
BRANCH 40 52
ATOM     52  N   TRP B   3       2.619 -39.039  -3.973  1.00 27.54 LIG-0.35  N 
ATOM     53  C   ALA B   2       3.482 -40.055  -4.089  1.00 31.13 LIG 0.24  C 
ATOM     54 O    ALA B   2       3.101 -41.180  -4.392  1.00 30.30 LIG-0.27  OA
ATOM     55 H    TRP B   3       2.820 -38.232  -3.754  1.00 27.54 LIG 0.16  HD
BRANCH 53 56
ATOM     56  CA  ALA B   2       4.974 -39.777  -3.843  1.00 33.66 LIG 0.17  C 
ATOM     57  CB  ALA B   2       5.435 -40.311  -2.464  1.00 33.40 LIG 0.04  C 
BRANCH 56 58
ATOM     58  N   ALA B   2       5.350 -38.362  -3.945  1.00 35.64 LIG-0.35  N 
ATOM     59 H    ALA B   2       5.380 -37.939  -3.197  1.00 35.64 LIG 0.16  HD
ATOM     60  C   ALA B   1       5.615 -37.819  -5.131  1.00 39.08 LIG 0.25  C 
ATOM     61 O    ALA B   1       5.217 -38.319  -6.161  1.00 40.54 LIG-0.27  OA
BRANCH 60 62
ATOM     62  CA  ALA B   1       6.398 -36.483  -5.186  1.00 41.05 LIG 0.27  C 
ATOM     63  CB  ALA B   1       7.893 -36.733  -5.487  1.00 41.95 LIG 0.05  C 
BRANCH 62 64
ATOM     64  N   ALA B   1       6.266 -35.691  -3.935  1.00 41.48 LIG-0.07  N 
ATOM     65 H3   ALA B   1       6.477 -36.201  -3.237  1.00 41.48 LIG 0.28  HD
ATOM     66 H2   ALA B   1       5.427 -35.406  -3.851  1.00 41.48 LIG 0.28  HD
ATOM     67 H1   ALA B   1       6.815 -34.992  -3.966  1.00 41.48 LIG 0.28  HD
ENDBRANCH 62 64
ENDBRANCH 60 62
ENDBRANCH 56 58
ENDBRANCH 53 56
ENDBRANCH 40 52
ENDBRANCH 37 40
ENDBRANCH 1 36
TORSDOF 23
ENDMDL
MODEL 37
USER: ADFR SOLUTION from run 174
USER: SCORE 23.042844 LL:  -7.236 LR: -17.126 RR:   0.000 FEB: -10.265
USER: RMSD 2.894046
USER: SEED 173
USER: STATUS searching
USER: GENES 25
USER: genes 0 Translation |==|  0.50999 0.34462 0.69669
USER: genes 1 Rotation |==|  0.53426 0.49579 0.56801 0.99415
USER: genes 2 Torsion [N]-CA--C-[N] |==|  0.99688
USER: genes 3 Torsion [C]-N--CA-[CB] |==|  0.24865
USER: genes 4 Torsion [N]-CA--CB-[CG] |==|  0.74350
USER: genes 5 Torsion [CA]-CB--CG-[CD1] |==|  0.23998
USER: genes 6 Torsion [N]-CA--C-[N] |==|  0.33765
USER: genes 7 Torsion [C]-N--CA-[C] |==|  0.82805
USER: genes 8 Torsion [N]-CA--CB-[CG] |==|  0.96352
USER: genes 9 Torsion [CA]-CB--CG-[CD] |==|  0.83138
USER: genes 10 Torsion [CB]-CG--CD-[OE2] |==|  0.86350
USER: genes 11 Torsion [N]-CA--C-[N] |==|  0.93459
USER: genes 12 Torsion [C]-N--CA-[CB] |==|  0.76777
USER: genes 13 Torsion [N]-CA--C-[O] |==|  0.14453
USER: genes 14 Torsion [C]-CA--CB-[CG] |==|  0.32253
USER: genes 15 Torsion [CA]-CB--CG-[CD1] |==|  0.64720
USER: genes 16 Torsion [C]-CA--N-[C] |==|  0.75502
USER: genes 17 Torsion [N]-C--CA-[N] |==|  0.89917
USER: genes 18 Torsion [C]-CA--CB-[CG] |==|  0.09601
USER: genes 19 Torsion [CA]-CB--CG-[CD1] |==|  0.20945
USER: genes 20 Torsion [C]-CA--N-[C] |==|  0.82953
USER: genes 21 Torsion [N]-C--CA-[N] |==|  0.86239
USER: genes 22 Torsion [C]-CA--N-[C] |==|  0.81252
USER: genes 23 Torsion [N]-C--CA-[N] |==|  0.23589
USER: genes 24 Torsion [C]-CA--N-[H3] |==|  0.24000
ROOT
ATOM      1  CA  LEU B   4       3.139 -38.204  -5.424  1.00 25.55 LIG 0.18  C 
ENDROOT
BRANCH 1 2
ATOM      2  C   LEU B   4       2.339 -37.899  -6.695  1.00 26.13 LIG 0.24  C 
ATOM      3 O    LEU B   4       1.471 -38.680  -7.043  1.00 25.31 LIG-0.27  OA
ATOM      4  N   PHE B   5       2.636 -36.770  -7.358  1.00 26.68 LIG-0.35  N 
ATOM      5 H    PHE B   5       3.306 -36.263  -7.174  1.00 26.68 LIG 0.16  HD
BRANCH 4 6
ATOM      6  CA  PHE B   5       1.807 -36.306  -8.480  1.00 28.54 LIG 0.18  C 
BRANCH 6 7
ATOM      7  CB  PHE B   5       0.661 -35.385  -8.007  1.00 28.61 LIG 0.07  C 
BRANCH 7 8
ATOM      8  CG  PHE B   5      -0.622 -36.079  -7.719  1.00 26.86 LIG-0.06  A 
ATOM      9  CD1 PHE B   5      -0.872 -36.633  -6.484  1.00 26.13 LIG 0.01  A 
ATOM     10  CE1 PHE B   5      -2.082 -37.271  -6.220  1.00 23.59 LIG 0.00  A 
ATOM     11  CZ  PHE B   5      -3.087 -37.341  -7.216  1.00 25.19 LIG 0.00  A 
ATOM     12  CE2 PHE B   5      -2.818 -36.824  -8.464  1.00 26.30 LIG 0.00  A 
ATOM     13  CD2 PHE B   5      -1.606 -36.176  -8.704  1.00 27.99 LIG 0.01  A 
ENDBRANCH 7 8
ENDBRANCH 6 7
BRANCH 6 14
ATOM     14  C   PHE B   5       2.608 -35.561  -9.550  1.00 31.71 LIG 0.24  C 
ATOM     15  N   GLU B   6       2.569 -36.060 -10.789  1.00 34.73 LIG-0.35  N 
ATOM     16 H    GLU B   6       2.419 -36.891 -10.957  1.00 34.73 LIG 0.16  HD
ATOM     17 O    PHE B   5       3.299 -34.591  -9.224  1.00 30.66 LIG-0.27  OA
BRANCH 15 18
ATOM     18  CA  GLU B   6       2.781 -35.232 -12.011  1.00 38.89 LIG 0.18  C 
BRANCH 18 19
ATOM     19  CB  GLU B   6       2.812 -36.069 -13.296  1.00 39.10 LIG 0.04  C 
BRANCH 19 20
ATOM     20  CG  GLU B   6       2.944 -37.593 -13.032  1.00 43.96 LIG 0.12  C 
BRANCH 20 21
ATOM     21  CD  GLU B   6       4.220 -38.011 -12.285  1.00 49.39 LIG 0.17  C 
ATOM     22 OE1  GLU B   6       4.147 -38.732 -11.269  1.00 53.88 LIG-0.65  OA
ATOM     23 OE2  GLU B   6       5.328 -37.575 -12.695  1.00 56.34 LIG-0.65  OA
ENDBRANCH 20 21
ENDBRANCH 19 20
ENDBRANCH 18 19
BRANCH 18 24
ATOM     24  C   GLU B   6       1.660 -34.148 -12.078  1.00 41.03 LIG 0.24  C 
ATOM     25 O    GLU B   6       1.800 -33.092 -12.752  1.00 40.13 LIG-0.27  OA
ATOM     26  N   ALA B   7       0.541 -34.457 -11.409  1.00 43.76 LIG-0.35  N 
ATOM     27 H    ALA B   7       0.481 -35.154 -10.909  1.00 43.76 LIG 0.16  HD
BRANCH 26 28
ATOM     28  CA  ALA B   7      -0.728 -33.649 -11.441  1.00 45.80 LIG 0.16  C 
ATOM     29  CB  ALA B   7      -0.652 -32.468 -10.412  1.00 46.43 LIG 0.04  C 
BRANCH 28 30
ATOM     30  C   ALA B   7      -1.034 -33.071 -12.814  1.00 46.67 LIG 0.22  C 
ATOM     31 O    ALA B   7      -1.046 -33.816 -13.809  1.00 48.32 LIG-0.29  OA
ENDBRANCH 28 30
ENDBRANCH 26 28
ENDBRANCH 18 24
ENDBRANCH 15 18
ENDBRANCH 6 14
ENDBRANCH 4 6
ENDBRANCH 1 2
BRANCH 1 32
ATOM     32  CB  LEU B   4       2.162 -38.386  -4.281  1.00 24.11 LIG 0.04  C 
BRANCH 32 33
ATOM     33  CG  LEU B   4       2.163 -39.808  -3.674  1.00 25.40 LIG-0.02  C 
ATOM     34  CD2 LEU B   4       3.157 -40.626  -4.468  1.00 26.98 LIG 0.01  C 
ATOM     35  CD1 LEU B   4       0.786 -40.521  -3.577  1.00 25.06 LIG 0.01  C 
ENDBRANCH 32 33
ENDBRANCH 1 32
BRANCH 1 36
ATOM     36  N   LEU B   4       4.151 -37.213  -5.121  1.00 24.30 LIG-0.35  N 
ATOM     37  C   TRP B   3       5.382 -37.303  -5.620  1.00 25.24 LIG 0.24  C 
ATOM     38 O    TRP B   3       5.721 -38.192  -6.384  1.00 25.23 LIG-0.27  OA
ATOM     39 H    LEU B   4       3.887 -36.580  -4.602  1.00 24.30 LIG 0.16  HD
BRANCH 37 40
ATOM     40  CA  TRP B   3       6.401 -36.242  -5.157  1.00 26.39 LIG 0.18  C 
BRANCH 40 41
ATOM     41  CB  TRP B   3       7.068 -36.702  -3.860  1.00 26.78 LIG 0.07  C 
BRANCH 41 42
ATOM     42  CG  TRP B   3       7.233 -38.119  -3.844  1.00 25.50 LIG-0.03  A 
ATOM     43  CD1 TRP B   3       8.155 -38.835  -4.531  1.00 28.00 LIG 0.10  A 
ATOM     44  NE1 TRP B   3       7.990 -40.165  -4.291  1.00 26.39 LIG-0.36  N 
ATOM     45 HE1  TRP B   3       8.468 -40.796  -4.626  1.00 26.39 LIG 0.17  HD
ATOM     46  CE2 TRP B   3       6.945 -40.335  -3.435  1.00 23.90 LIG 0.04  A 
ATOM     47  CZ2 TRP B   3       6.398 -41.509  -2.912  1.00 23.10 LIG 0.03  A 
ATOM     48  CD2 TRP B   3       6.449 -39.057  -3.126  1.00 23.76 LIG-0.00  A 
ATOM     49  CH2 TRP B   3       5.357 -41.393  -2.053  1.00 22.34 LIG 0.00  A 
ATOM     50  CZ3 TRP B   3       4.819 -40.135  -1.728  1.00 25.34 LIG 0.00  A 
ATOM     51  CE3 TRP B   3       5.366 -38.948  -2.278  1.00 25.10 LIG 0.01  A 
ENDBRANCH 41 42
ENDBRANCH 40 41
BRANCH 40 52
ATOM     52  N   TRP B   3       5.733 -34.945  -4.993  1.00 27.54 LIG-0.35  N 
ATOM     53  C   ALA B   2       5.163 -34.388  -6.068  1.00 31.13 LIG 0.24  C 
ATOM     54 O    ALA B   2       5.209 -34.933  -7.164  1.00 30.30 LIG-0.27  OA
ATOM     55 H    TRP B   3       5.747 -34.610  -4.201  1.00 27.54 LIG 0.16  HD
BRANCH 53 56
ATOM     56  CA  ALA B   2       4.436 -33.045  -5.894  1.00 33.66 LIG 0.17  C 
ATOM     57  CB  ALA B   2       5.434 -31.872  -5.723  1.00 33.40 LIG 0.04  C 
BRANCH 56 58
ATOM     58  N   ALA B   2       3.483 -33.013  -4.778  1.00 35.64 LIG-0.35  N 
ATOM     59 H    ALA B   2       3.703 -32.496  -4.127  1.00 35.64 LIG 0.16  HD
ATOM     60  C   ALA B   1       2.374 -33.749  -4.817  1.00 39.08 LIG 0.25  C 
ATOM     61 O    ALA B   1       2.279 -34.712  -5.546  1.00 40.54 LIG-0.27  OA
BRANCH 60 62
ATOM     62  CA  ALA B   1       1.207 -33.397  -3.861  1.00 41.05 LIG 0.27  C 
ATOM     63  CB  ALA B   1       0.371 -34.654  -3.528  1.00 41.95 LIG 0.05  C 
BRANCH 62 64
ATOM     64  N   ALA B   1       0.319 -32.338  -4.408  1.00 41.48 LIG-0.07  N 
ATOM     65 H3   ALA B   1      -0.303 -32.710  -4.925  1.00 41.48 LIG 0.28  HD
ATOM     66 H2   ALA B   1       0.802 -31.766  -4.890  1.00 41.48 LIG 0.28  HD
ATOM     67 H1   ALA B   1      -0.074 -31.904  -3.739  1.00 41.48 LIG 0.28  HD
ENDBRANCH 62 64
ENDBRANCH 60 62
ENDBRANCH 56 58
ENDBRANCH 53 56
ENDBRANCH 40 52
ENDBRANCH 37 40
ENDBRANCH 1 36
TORSDOF 23
ENDMDL
MODEL 38
USER: ADFR SOLUTION from run 197
USER: SCORE 20.811734 LL:  -5.608 LR: -17.129 RR:   0.000 FEB: -10.268
USER: RMSD 9.688646
USER: SEED 196
USER: STATUS no improvement in best in 8 clusters for 5 generations
USER: GENES 25
USER: genes 0 Translation |==|  0.31567 0.47784 0.56753
USER: genes 1 Rotation |==|  0.92332 0.67401 0.30029 0.52529
USER: genes 2 Torsion [N]-CA--C-[N] |==|  0.79449
USER: genes 3 Torsion [C]-N--CA-[CB] |==|  0.22273
USER: genes 4 Torsion [N]-CA--CB-[CG] |==|  0.73050
USER: genes 5 Torsion [CA]-CB--CG-[CD1] |==|  0.76398
USER: genes 6 Torsion [N]-CA--C-[N] |==|  0.42564
USER: genes 7 Torsion [C]-N--CA-[C] |==|  0.78231
USER: genes 8 Torsion [N]-CA--CB-[CG] |==|  0.62836
USER: genes 9 Torsion [CA]-CB--CG-[CD] |==|  0.84150
USER: genes 10 Torsion [CB]-CG--CD-[OE2] |==|  0.38190
USER: genes 11 Torsion [N]-CA--C-[N] |==|  0.19517
USER: genes 12 Torsion [C]-N--CA-[CB] |==|  0.26380
USER: genes 13 Torsion [N]-CA--C-[O] |==|  0.02636
USER: genes 14 Torsion [C]-CA--CB-[CG] |==|  0.17928
USER: genes 15 Torsion [CA]-CB--CG-[CD1] |==|  0.71211
USER: genes 16 Torsion [C]-CA--N-[C] |==|  0.70330
USER: genes 17 Torsion [N]-C--CA-[N] |==|  0.43631
USER: genes 18 Torsion [C]-CA--CB-[CG] |==|  0.22372
USER: genes 19 Torsion [CA]-CB--CG-[CD1] |==|  0.68371
USER: genes 20 Torsion [C]-CA--N-[C] |==|  0.82017
USER: genes 21 Torsion [N]-C--CA-[N] |==|  0.45298
USER: genes 22 Torsion [C]-CA--N-[C] |==|  0.77778
USER: genes 23 Torsion [N]-C--CA-[N] |==|  0.98023
USER: genes 24 Torsion [C]-CA--N-[H3] |==|  0.74438
ROOT
ATOM      1  CA  LEU B   4      -0.650 -35.406  -8.331  1.00 25.55 LIG 0.18  C 
ENDROOT
BRANCH 1 2
ATOM      2  C   LEU B   4       0.076 -35.590  -6.994  1.00 26.13 LIG 0.24  C 
ATOM      3 O    LEU B   4       0.131 -34.647  -6.223  1.00 25.31 LIG-0.27  OA
ATOM      4  N   PHE B   5       0.609 -36.795  -6.738  1.00 26.68 LIG-0.35  N 
ATOM      5 H    PHE B   5       0.657 -37.434  -7.312  1.00 26.68 LIG 0.16  HD
BRANCH 4 6
ATOM      6  CA  PHE B   5       1.165 -37.115  -5.416  1.00 28.54 LIG 0.18  C 
BRANCH 6 7
ATOM      7  CB  PHE B   5       0.061 -37.487  -4.402  1.00 28.61 LIG 0.07  C 
BRANCH 7 8
ATOM      8  CG  PHE B   5      -0.379 -36.376  -3.518  1.00 26.86 LIG-0.06  A 
ATOM      9  CD1 PHE B   5       0.297 -36.079  -2.357  1.00 26.13 LIG 0.01  A 
ATOM     10  CE1 PHE B   5      -0.116 -35.028  -1.541  1.00 23.59 LIG 0.00  A 
ATOM     11  CZ  PHE B   5      -1.230 -34.233  -1.906  1.00 25.19 LIG 0.00  A 
ATOM     12  CE2 PHE B   5      -1.931 -34.559  -3.046  1.00 26.30 LIG 0.00  A 
ATOM     13  CD2 PHE B   5      -1.493 -35.606  -3.858  1.00 27.99 LIG 0.01  A 
ENDBRANCH 7 8
ENDBRANCH 6 7
BRANCH 6 14
ATOM     14  C   PHE B   5       2.184 -38.257  -5.454  1.00 31.71 LIG 0.24  C 
ATOM     15  N   GLU B   6       3.116 -38.265  -4.497  1.00 34.73 LIG-0.35  N 
ATOM     16 H    GLU B   6       3.379 -37.554  -4.091  1.00 34.73 LIG 0.16  HD
ATOM     17 O    PHE B   5       2.150 -39.069  -6.384  1.00 30.66 LIG-0.27  OA
BRANCH 15 18
ATOM     18  CA  GLU B   6       3.798 -39.507  -4.030  1.00 38.89 LIG 0.18  C 
BRANCH 18 19
ATOM     19  CB  GLU B   6       5.144 -39.224  -3.351  1.00 39.10 LIG 0.04  C 
BRANCH 19 20
ATOM     20  CG  GLU B   6       6.284 -40.158  -3.837  1.00 43.96 LIG 0.12  C 
BRANCH 20 21
ATOM     21  CD  GLU B   6       6.008 -41.660  -3.663  1.00 49.39 LIG 0.17  C 
ATOM     22 OE1  GLU B   6       5.525 -42.091  -2.596  1.00 53.88 LIG-0.65  OA
ATOM     23 OE2  GLU B   6       6.319 -42.442  -4.600  1.00 56.34 LIG-0.65  OA
ENDBRANCH 20 21
ENDBRANCH 19 20
ENDBRANCH 18 19
BRANCH 18 24
ATOM     24  C   GLU B   6       2.837 -40.271  -3.068  1.00 41.03 LIG 0.24  C 
ATOM     25 O    GLU B   6       3.040 -40.314  -1.825  1.00 40.13 LIG-0.27  OA
ATOM     26  N   ALA B   7       1.773 -40.826  -3.664  1.00 43.76 LIG-0.35  N 
ATOM     27 H    ALA B   7       1.677 -40.838  -4.518  1.00 43.76 LIG 0.16  HD
BRANCH 26 28
ATOM     28  CA  ALA B   7       0.631 -41.487  -2.939  1.00 45.80 LIG 0.16  C 
ATOM     29  CB  ALA B   7      -0.544 -40.471  -2.725  1.00 46.43 LIG 0.04  C 
BRANCH 28 30
ATOM     30  C   ALA B   7       0.086 -42.705  -3.670  1.00 46.67 LIG 0.22  C 
ATOM     31 O    ALA B   7       0.694 -43.158  -4.654  1.00 48.32 LIG-0.29  OA
ENDBRANCH 28 30
ENDBRANCH 26 28
ENDBRANCH 18 24
ENDBRANCH 15 18
ENDBRANCH 6 14
ENDBRANCH 4 6
ENDBRANCH 1 2
BRANCH 1 32
ATOM     32  CB  LEU B   4      -1.656 -36.530  -8.483  1.00 24.11 LIG 0.04  C 
BRANCH 32 33
ATOM     33  CG  LEU B   4      -2.788 -36.508  -7.430  1.00 25.40 LIG-0.02  C 
ATOM     34  CD2 LEU B   4      -2.870 -35.094  -6.901  1.00 26.98 LIG 0.01  C 
ATOM     35  CD1 LEU B   4      -2.681 -37.544  -6.277  1.00 25.06 LIG 0.01  C 
ENDBRANCH 32 33
ENDBRANCH 1 32
BRANCH 1 36
ATOM     36  N   LEU B   4       0.240 -35.316  -9.470  1.00 24.30 LIG-0.35  N 
ATOM     37  C   TRP B   3       0.455 -34.160 -10.093  1.00 25.24 LIG 0.24  C 
ATOM     38 O    TRP B   3      -0.047 -33.110  -9.727  1.00 25.23 LIG-0.27  OA
ATOM     39 H    LEU B   4       0.605 -36.061  -9.697  1.00 24.30 LIG 0.16  HD
BRANCH 37 40
ATOM     40  CA  TRP B   3       1.351 -34.200 -11.348  1.00 26.39 LIG 0.18  C 
BRANCH 40 41
ATOM     41  CB  TRP B   3       2.821 -34.242 -10.929  1.00 26.78 LIG 0.07  C 
BRANCH 41 42
ATOM     42  CG  TRP B   3       3.212 -35.565 -10.566  1.00 25.50 LIG-0.03  A 
ATOM     43  CD1 TRP B   3       3.578 -35.992  -9.333  1.00 28.00 LIG 0.10  A 
ATOM     44  NE1 TRP B   3       3.913 -37.310  -9.375  1.00 26.39 LIG-0.36  N 
ATOM     45 HE1  TRP B   3       4.174 -37.781  -8.703  1.00 26.39 LIG 0.17  HD
ATOM     46  CE2 TRP B   3       3.769 -37.765 -10.650  1.00 23.90 LIG 0.04  A 
ATOM     47  CZ2 TRP B   3       4.003 -39.037 -11.178  1.00 23.10 LIG 0.03  A 
ATOM     48  CD2 TRP B   3       3.319 -36.686 -11.427  1.00 23.76 LIG-0.00  A 
ATOM     49  CH2 TRP B   3       3.757 -39.228 -12.497  1.00 22.34 LIG 0.00  A 
ATOM     50  CZ3 TRP B   3       3.320 -38.172 -13.316  1.00 25.34 LIG 0.00  A 
ATOM     51  CE3 TRP B   3       3.104 -36.879 -12.777  1.00 25.10 LIG 0.01  A 
ENDBRANCH 41 42
ENDBRANCH 40 41
BRANCH 40 52
ATOM     52  N   TRP B   3       1.063 -33.042 -12.203  1.00 27.54 LIG-0.35  N 
ATOM     53  C   ALA B   2      -0.151 -32.951 -12.756  1.00 31.13 LIG 0.24  C 
ATOM     54 O    ALA B   2      -0.999 -33.816 -12.569  1.00 30.30 LIG-0.27  OA
ATOM     55 H    TRP B   3       1.704 -32.477 -12.303  1.00 27.54 LIG 0.16  HD
BRANCH 53 56
ATOM     56  CA  ALA B   2      -0.467 -31.724 -13.627  1.00 33.66 LIG 0.17  C 
ATOM     57  CB  ALA B   2      -0.656 -30.447 -12.771  1.00 33.40 LIG 0.04  C 
BRANCH 56 58
ATOM     58  N   ALA B   2      -1.640 -31.884 -14.493  1.00 35.64 LIG-0.35  N 
ATOM     59 H    ALA B   2      -2.361 -31.518 -14.199  1.00 35.64 LIG 0.16  HD
ATOM     60  C   ALA B   1      -1.547 -32.554 -15.640  1.00 39.08 LIG 0.25  C 
ATOM     61 O    ALA B   1      -0.650 -33.345 -15.840  1.00 40.54 LIG-0.27  OA
BRANCH 60 62
ATOM     62  CA  ALA B   1      -2.646 -32.360 -16.714  1.00 41.05 LIG 0.27  C 
ATOM     63  CB  ALA B   1      -2.058 -31.722 -17.994  1.00 41.95 LIG 0.05  C 
BRANCH 62 64
ATOM     64  N   ALA B   1      -3.785 -31.539 -16.225  1.00 41.48 LIG-0.07  N 
ATOM     65 H3   ALA B   1      -4.411 -32.072 -15.885  1.00 41.48 LIG 0.28  HD
ATOM     66 H2   ALA B   1      -4.128 -31.073 -16.902  1.00 41.48 LIG 0.28  HD
ATOM     67 H1   ALA B   1      -3.499 -30.979 -15.595  1.00 41.48 LIG 0.28  HD
ENDBRANCH 62 64
ENDBRANCH 60 62
ENDBRANCH 56 58
ENDBRANCH 53 56
ENDBRANCH 40 52
ENDBRANCH 37 40
ENDBRANCH 1 36
TORSDOF 23
ENDMDL
MODEL 39
USER: ADFR SOLUTION from run 112
USER: SCORE 22.259046 LL:  -6.025 LR: -17.117 RR:   0.000 FEB: -10.256
USER: RMSD 7.183449
USER: SEED 111
USER: STATUS searching
USER: GENES 25
USER: genes 0 Translation |==|  0.54906 0.30746 0.78122
USER: genes 1 Rotation |==|  0.55308 0.27318 0.85668 0.76176
USER: genes 2 Torsion [N]-CA--C-[N] |==|  0.13584
USER: genes 3 Torsion [C]-N--CA-[CB] |==|  0.84030
USER: genes 4 Torsion [N]-CA--CB-[CG] |==|  0.89959
USER: genes 5 Torsion [CA]-CB--CG-[CD1] |==|  0.33650
USER: genes 6 Torsion [N]-CA--C-[N] |==|  0.36667
USER: genes 7 Torsion [C]-N--CA-[C] |==|  0.83037
USER: genes 8 Torsion [N]-CA--CB-[CG] |==|  0.44311
USER: genes 9 Torsion [CA]-CB--CG-[CD] |==|  0.33522
USER: genes 10 Torsion [CB]-CG--CD-[OE2] |==|  0.49338
USER: genes 11 Torsion [N]-CA--C-[N] |==|  0.35133
USER: genes 12 Torsion [C]-N--CA-[CB] |==|  0.42020
USER: genes 13 Torsion [N]-CA--C-[O] |==|  0.52533
USER: genes 14 Torsion [C]-CA--CB-[CG] |==|  0.31091
USER: genes 15 Torsion [CA]-CB--CG-[CD1] |==|  0.74804
USER: genes 16 Torsion [C]-CA--N-[C] |==|  0.16312
USER: genes 17 Torsion [N]-C--CA-[N] |==|  0.14961
USER: genes 18 Torsion [C]-CA--CB-[CG] |==|  0.67150
USER: genes 19 Torsion [CA]-CB--CG-[CD1] |==|  0.81338
USER: genes 20 Torsion [C]-CA--N-[C] |==|  0.11916
USER: genes 21 Torsion [N]-C--CA-[N] |==|  0.17087
USER: genes 22 Torsion [C]-CA--N-[C] |==|  0.72997
USER: genes 23 Torsion [N]-C--CA-[N] |==|  0.88412
USER: genes 24 Torsion [C]-CA--N-[H3] |==|  0.31028
ROOT
ATOM      1  CA  LEU B   4       3.901 -38.984  -3.522  1.00 25.55 LIG 0.18  C 
ENDROOT
BRANCH 1 2
ATOM      2  C   LEU B   4       4.352 -38.487  -4.900  1.00 26.13 LIG 0.24  C 
ATOM      3 O    LEU B   4       4.598 -39.308  -5.767  1.00 25.31 LIG-0.27  OA
ATOM      4  N   PHE B   5       4.442 -37.160  -5.081  1.00 26.68 LIG-0.35  N 
ATOM      5 H    PHE B   5       4.362 -36.580  -4.451  1.00 26.68 LIG 0.16  HD
BRANCH 4 6
ATOM      6  CA  PHE B   5       4.693 -36.590  -6.412  1.00 28.54 LIG 0.18  C 
BRANCH 6 7
ATOM      7  CB  PHE B   5       6.000 -37.129  -7.033  1.00 28.61 LIG 0.07  C 
BRANCH 7 8
ATOM      8  CG  PHE B   5       7.105 -37.358  -6.065  1.00 26.86 LIG-0.06  A 
ATOM      9  CD1 PHE B   5       7.672 -38.603  -5.911  1.00 26.13 LIG 0.01  A 
ATOM     10  CE1 PHE B   5       8.715 -38.805  -5.010  1.00 23.59 LIG 0.00  A 
ATOM     11  CZ  PHE B   5       9.225 -37.723  -4.251  1.00 25.19 LIG 0.00  A 
ATOM     12  CE2 PHE B   5       8.628 -36.488  -4.374  1.00 26.30 LIG 0.00  A 
ATOM     13  CD2 PHE B   5       7.594 -36.303  -5.293  1.00 27.99 LIG 0.01  A 
ENDBRANCH 7 8
ENDBRANCH 6 7
BRANCH 6 14
ATOM     14  C   PHE B   5       3.552 -36.847  -7.400  1.00 31.71 LIG 0.24  C 
ATOM     15  N   GLU B   6       3.116 -35.798  -8.104  1.00 34.73 LIG-0.35  N 
ATOM     16 H    GLU B   6       3.185 -34.986  -7.829  1.00 34.73 LIG 0.16  HD
ATOM     17 O    PHE B   5       3.044 -37.971  -7.459  1.00 30.66 LIG-0.27  OA
BRANCH 15 18
ATOM     18  CA  GLU B   6       2.465 -35.924  -9.440  1.00 38.89 LIG 0.18  C 
BRANCH 18 19
ATOM     19  CB  GLU B   6       1.962 -34.580  -9.982  1.00 39.10 LIG 0.04  C 
BRANCH 19 20
ATOM     20  CG  GLU B   6       1.752 -34.580 -11.520  1.00 43.96 LIG 0.12  C 
BRANCH 20 21
ATOM     21  CD  GLU B   6       0.320 -34.264 -11.977  1.00 49.39 LIG 0.17  C 
ATOM     22 OE1  GLU B   6      -0.591 -34.118 -11.137  1.00 53.88 LIG-0.65  OA
ATOM     23 OE2  GLU B   6       0.082 -34.201 -13.212  1.00 56.34 LIG-0.65  OA
ENDBRANCH 20 21
ENDBRANCH 19 20
ENDBRANCH 18 19
BRANCH 18 24
ATOM     24  C   GLU B   6       3.479 -36.580 -10.428  1.00 41.03 LIG 0.24  C 
ATOM     25 O    GLU B   6       4.651 -36.136 -10.566  1.00 40.13 LIG-0.27  OA
ATOM     26  N   ALA B   7       3.018 -37.664 -11.066  1.00 43.76 LIG-0.35  N 
ATOM     27 H    ALA B   7       2.200 -37.921 -11.004  1.00 43.76 LIG 0.16  HD
BRANCH 26 28
ATOM     28  CA  ALA B   7       3.845 -38.554 -11.954  1.00 45.80 LIG 0.16  C 
ATOM     29  CB  ALA B   7       3.282 -40.018 -11.939  1.00 46.43 LIG 0.04  C 
BRANCH 28 30
ATOM     30  C   ALA B   7       3.899 -38.075 -13.396  1.00 46.67 LIG 0.22  C 
ATOM     31 O    ALA B   7       4.402 -38.801 -14.270  1.00 48.32 LIG-0.29  OA
ENDBRANCH 28 30
ENDBRANCH 26 28
ENDBRANCH 18 24
ENDBRANCH 15 18
ENDBRANCH 6 14
ENDBRANCH 4 6
ENDBRANCH 1 2
BRANCH 1 32
ATOM     32  CB  LEU B   4       3.730 -40.488  -3.593  1.00 24.11 LIG 0.04  C 
BRANCH 32 33
ATOM     33  CG  LEU B   4       4.767 -41.278  -2.761  1.00 25.40 LIG-0.02  C 
ATOM     34  CD2 LEU B   4       5.061 -40.456  -1.527  1.00 26.98 LIG 0.01  C 
ATOM     35  CD1 LEU B   4       6.073 -41.692  -3.496  1.00 25.06 LIG 0.01  C 
ENDBRANCH 32 33
ENDBRANCH 1 32
BRANCH 1 36
ATOM     36  N   LEU B   4       2.710 -38.325  -3.027  1.00 24.30 LIG-0.35  N 
ATOM     37  C   TRP B   3       1.564 -38.359  -3.704  1.00 25.24 LIG 0.24  C 
ATOM     38 O    TRP B   3       1.436 -38.969  -4.752  1.00 25.23 LIG-0.27  OA
ATOM     39 H    LEU B   4       2.812 -37.921  -2.274  1.00 24.30 LIG 0.16  HD
BRANCH 37 40
ATOM     40  CA  TRP B   3       0.388 -37.547  -3.126  1.00 26.39 LIG 0.18  C 
BRANCH 40 41
ATOM     41  CB  TRP B   3      -0.814 -37.641  -4.067  1.00 26.78 LIG 0.07  C 
BRANCH 41 42
ATOM     42  CG  TRP B   3      -1.174 -36.354  -4.566  1.00 25.50 LIG-0.03  A 
ATOM     43  CD1 TRP B   3      -1.684 -35.321  -3.852  1.00 28.00 LIG 0.10  A 
ATOM     44  NE1 TRP B   3      -1.933 -34.263  -4.671  1.00 26.39 LIG-0.36  N 
ATOM     45 HE1  TRP B   3      -2.258 -33.506  -4.423  1.00 26.39 LIG 0.17  HD
ATOM     46  CE2 TRP B   3      -1.586 -34.596  -5.945  1.00 23.90 LIG 0.04  A 
ATOM     47  CZ2 TRP B   3      -1.669 -33.845  -7.119  1.00 23.10 LIG 0.03  A 
ATOM     48  CD2 TRP B   3      -1.094 -35.911  -5.911  1.00 23.76 LIG-0.00  A 
ATOM     49  CH2 TRP B   3      -1.230 -34.418  -8.266  1.00 22.34 LIG 0.00  A 
ATOM     50  CZ3 TRP B   3      -0.745 -35.737  -8.282  1.00 25.34 LIG 0.00  A 
ATOM     51  CE3 TRP B   3      -0.682 -36.500  -7.089  1.00 25.10 LIG 0.01  A 
ENDBRANCH 41 42
ENDBRANCH 40 41
BRANCH 40 52
ATOM     52  N   TRP B   3       0.801 -36.155  -2.910  1.00 27.54 LIG-0.35  N 
ATOM     53  C   ALA B   2       1.529 -35.557  -3.860  1.00 31.13 LIG 0.24  C 
ATOM     54 O    ALA B   2       1.860 -36.157  -4.876  1.00 30.30 LIG-0.27  OA
ATOM     55 H    TRP B   3       0.546 -35.795  -2.172  1.00 27.54 LIG 0.16  HD
BRANCH 53 56
ATOM     56  CA  ALA B   2       1.937 -34.090  -3.652  1.00 33.66 LIG 0.17  C 
ATOM     57  CB  ALA B   2       2.661 -33.515  -4.896  1.00 33.40 LIG 0.04  C 
BRANCH 56 58
ATOM     58  N   ALA B   2       2.779 -33.857  -2.473  1.00 35.64 LIG-0.35  N 
ATOM     59 H    ALA B   2       3.617 -34.010  -2.590  1.00 35.64 LIG 0.16  HD
ATOM     60  C   ALA B   1       2.239 -33.441  -1.330  1.00 39.08 LIG 0.25  C 
ATOM     61 O    ALA B   1       1.059 -33.588  -1.096  1.00 40.54 LIG-0.27  OA
BRANCH 60 62
ATOM     62  CA  ALA B   1       3.157 -32.811  -0.252  1.00 41.05 LIG 0.27  C 
ATOM     63  CB  ALA B   1       3.438 -31.325  -0.569  1.00 41.95 LIG 0.05  C 
BRANCH 62 64
ATOM     64  N   ALA B   1       4.444 -33.541  -0.100  1.00 41.48 LIG-0.07  N 
ATOM     65 H3   ALA B   1       5.111 -33.030  -0.392  1.00 41.48 LIG 0.28  HD
ATOM     66 H2   ALA B   1       4.417 -34.293  -0.576  1.00 41.48 LIG 0.28  HD
ATOM     67 H1   ALA B   1       4.575 -33.737   0.757  1.00 41.48 LIG 0.28  HD
ENDBRANCH 62 64
ENDBRANCH 60 62
ENDBRANCH 56 58
ENDBRANCH 53 56
ENDBRANCH 40 52
ENDBRANCH 37 40
ENDBRANCH 1 36
TORSDOF 23
ENDMDL
MODEL 40
USER: ADFR SOLUTION from run 184
USER: SCORE 21.886134 LL:  -5.859 LR: -17.100 RR:   0.000 FEB: -10.239
USER: RMSD 8.566527
USER: SEED 183
USER: STATUS no improvement in best in 2 clusters for 5 generations
USER: GENES 25
USER: genes 0 Translation |==|  0.57253 0.36752 0.42295
USER: genes 1 Rotation |==|  0.61712 0.45720 0.93284 0.71703
USER: genes 2 Torsion [N]-CA--C-[N] |==|  0.40041
USER: genes 3 Torsion [C]-N--CA-[CB] |==|  0.78755
USER: genes 4 Torsion [N]-CA--CB-[CG] |==|  0.57514
USER: genes 5 Torsion [CA]-CB--CG-[CD1] |==|  0.77236
USER: genes 6 Torsion [N]-CA--C-[N] |==|  0.18077
USER: genes 7 Torsion [C]-N--CA-[C] |==|  0.75370
USER: genes 8 Torsion [N]-CA--CB-[CG] |==|  0.70188
USER: genes 9 Torsion [CA]-CB--CG-[CD] |==|  0.30822
USER: genes 10 Torsion [CB]-CG--CD-[OE2] |==|  0.90104
USER: genes 11 Torsion [N]-CA--C-[N] |==|  0.17402
USER: genes 12 Torsion [C]-N--CA-[CB] |==|  0.21718
USER: genes 13 Torsion [N]-CA--C-[O] |==|  0.14395
USER: genes 14 Torsion [C]-CA--CB-[CG] |==|  0.29777
USER: genes 15 Torsion [CA]-CB--CG-[CD1] |==|  0.82052
USER: genes 16 Torsion [C]-CA--N-[C] |==|  0.61336
USER: genes 17 Torsion [N]-C--CA-[N] |==|  0.34721
USER: genes 18 Torsion [C]-CA--CB-[CG] |==|  0.51980
USER: genes 19 Torsion [CA]-CB--CG-[CD1] |==|  0.36256
USER: genes 20 Torsion [C]-CA--N-[C] |==|  0.73462
USER: genes 21 Torsion [N]-C--CA-[N] |==|  0.88361
USER: genes 22 Torsion [C]-CA--N-[C] |==|  0.78677
USER: genes 23 Torsion [N]-C--CA-[N] |==|  0.92734
USER: genes 24 Torsion [C]-CA--N-[H3] |==|  0.88809
ROOT
ATOM      1  CA  LEU B   4       4.358 -37.723 -11.584  1.00 25.55 LIG 0.18  C 
ENDROOT
BRANCH 1 2
ATOM      2  C   LEU B   4       4.036 -37.992 -13.057  1.00 26.13 LIG 0.24  C 
ATOM      3 O    LEU B   4       2.962 -38.495 -13.339  1.00 25.31 LIG-0.27  OA
ATOM      4  N   PHE B   5       4.961 -37.648 -13.967  1.00 26.68 LIG-0.35  N 
ATOM      5 H    PHE B   5       5.755 -37.382 -13.772  1.00 26.68 LIG 0.16  HD
BRANCH 4 6
ATOM      6  CA  PHE B   5       4.669 -37.704 -15.407  1.00 28.54 LIG 0.18  C 
BRANCH 6 7
ATOM      7  CB  PHE B   5       4.696 -39.152 -15.943  1.00 28.61 LIG 0.07  C 
BRANCH 7 8
ATOM      8  CG  PHE B   5       5.039 -39.280 -17.384  1.00 26.86 LIG-0.06  A 
ATOM      9  CD1 PHE B   5       4.090 -39.097 -18.363  1.00 26.13 LIG 0.01  A 
ATOM     10  CE1 PHE B   5       4.424 -39.208 -19.710  1.00 23.59 LIG 0.00  A 
ATOM     11  CZ  PHE B   5       5.757 -39.492 -20.097  1.00 25.19 LIG 0.00  A 
ATOM     12  CE2 PHE B   5       6.697 -39.719 -19.115  1.00 26.30 LIG 0.00  A 
ATOM     13  CD2 PHE B   5       6.345 -39.588 -17.771  1.00 27.99 LIG 0.01  A 
ENDBRANCH 7 8
ENDBRANCH 6 7
BRANCH 6 14
ATOM     14  C   PHE B   5       3.317 -37.084 -15.770  1.00 31.71 LIG 0.24  C 
ATOM     15  N   GLU B   6       3.182 -35.771 -15.562  1.00 34.73 LIG-0.35  N 
ATOM     16 H    GLU B   6       3.636 -35.339 -14.973  1.00 34.73 LIG 0.16  HD
ATOM     17 O    PHE B   5       2.403 -37.813 -16.166  1.00 30.66 LIG-0.27  OA
BRANCH 15 18
ATOM     18  CA  GLU B   6       2.230 -34.916 -16.328  1.00 38.89 LIG 0.18  C 
BRANCH 18 19
ATOM     19  CB  GLU B   6       1.674 -33.754 -15.496  1.00 39.10 LIG 0.04  C 
BRANCH 19 20
ATOM     20  CG  GLU B   6       0.188 -33.947 -15.089  1.00 43.96 LIG 0.12  C 
BRANCH 20 21
ATOM     21  CD  GLU B   6      -0.045 -34.191 -13.590  1.00 49.39 LIG 0.17  C 
ATOM     22 OE1  GLU B   6      -1.035 -33.693 -13.018  1.00 53.88 LIG-0.65  OA
ATOM     23 OE2  GLU B   6       0.807 -34.865 -12.951  1.00 56.34 LIG-0.65  OA
ENDBRANCH 20 21
ENDBRANCH 19 20
ENDBRANCH 18 19
BRANCH 18 24
ATOM     24  C   GLU B   6       2.952 -34.391 -17.608  1.00 41.03 LIG 0.24  C 
ATOM     25 O    GLU B   6       3.185 -33.163 -17.780  1.00 40.13 LIG-0.27  OA
ATOM     26  N   ALA B   7       3.337 -35.344 -18.466  1.00 43.76 LIG-0.35  N 
ATOM     27 H    ALA B   7       3.121 -36.171 -18.363  1.00 43.76 LIG 0.16  HD
BRANCH 26 28
ATOM     28  CA  ALA B   7       4.175 -35.108 -19.693  1.00 45.80 LIG 0.16  C 
ATOM     29  CB  ALA B   7       5.685 -34.943 -19.302  1.00 46.43 LIG 0.04  C 
BRANCH 28 30
ATOM     30  C   ALA B   7       4.064 -36.227 -20.717  1.00 46.67 LIG 0.22  C 
ATOM     31 O    ALA B   7       2.944 -36.605 -21.100  1.00 48.32 LIG-0.29  OA
ENDBRANCH 28 30
ENDBRANCH 26 28
ENDBRANCH 18 24
ENDBRANCH 15 18
ENDBRANCH 6 14
ENDBRANCH 4 6
ENDBRANCH 1 2
BRANCH 1 32
ATOM     32  CB  LEU B   4       5.037 -38.952 -11.013  1.00 24.11 LIG 0.04  C 
BRANCH 32 33
ATOM     33  CG  LEU B   4       6.552 -38.773 -10.760  1.00 25.40 LIG-0.02  C 
ATOM     34  CD2 LEU B   4       6.702 -37.653  -9.756  1.00 26.98 LIG 0.01  C 
ATOM     35  CD1 LEU B   4       7.440 -38.539 -12.014  1.00 25.06 LIG 0.01  C 
ENDBRANCH 32 33
ENDBRANCH 1 32
BRANCH 1 36
ATOM     36  N   LEU B   4       3.207 -37.325 -10.799  1.00 24.30 LIG-0.35  N 
ATOM     37  C   TRP B   3       3.291 -36.361  -9.885  1.00 25.24 LIG 0.24  C 
ATOM     38 O    TRP B   3       4.317 -35.735  -9.677  1.00 25.23 LIG-0.27  OA
ATOM     39 H    LEU B   4       2.487 -37.759 -10.976  1.00 24.30 LIG 0.16  HD
BRANCH 37 40
ATOM     40  CA  TRP B   3       2.026 -36.084  -9.047  1.00 26.39 LIG 0.18  C 
BRANCH 40 41
ATOM     41  CB  TRP B   3       1.461 -34.710  -9.408  1.00 26.78 LIG 0.07  C 
BRANCH 41 42
ATOM     42  CG  TRP B   3       0.388 -34.352  -8.537  1.00 25.50 LIG-0.03  A 
ATOM     43  CD1 TRP B   3       0.241 -33.181  -7.872  1.00 28.00 LIG 0.10  A 
ATOM     44  NE1 TRP B   3      -0.888 -33.213  -7.113  1.00 26.39 LIG-0.36  N 
ATOM     45 HE1  TRP B   3      -1.171 -32.573  -6.611  1.00 26.39 LIG 0.17  HD
ATOM     46  CE2 TRP B   3      -1.499 -34.419  -7.275  1.00 23.90 LIG 0.04  A 
ATOM     47  CZ2 TRP B   3      -2.671 -34.913  -6.698  1.00 23.10 LIG 0.03  A 
ATOM     48  CD2 TRP B   3      -0.720 -35.160  -8.178  1.00 23.76 LIG-0.00  A 
ATOM     49  CH2 TRP B   3      -3.072 -36.158  -7.052  1.00 22.34 LIG 0.00  A 
ATOM     50  CZ3 TRP B   3      -2.315 -36.942  -7.939  1.00 25.34 LIG 0.00  A 
ATOM     51  CE3 TRP B   3      -1.116 -36.441  -8.507  1.00 25.10 LIG 0.01  A 
ENDBRANCH 41 42
ENDBRANCH 40 41
BRANCH 40 52
ATOM     52  N   TRP B   3       2.343 -36.180  -7.617  1.00 27.54 LIG-0.35  N 
ATOM     53  C   ALA B   2       2.109 -37.341  -6.994  1.00 31.13 LIG 0.24  C 
ATOM     54 O    ALA B   2       1.626 -38.295  -7.593  1.00 30.30 LIG-0.27  OA
ATOM     55 H    TRP B   3       2.668 -35.472  -7.253  1.00 27.54 LIG 0.16  HD
BRANCH 53 56
ATOM     56  CA  ALA B   2       2.468 -37.456  -5.504  1.00 33.66 LIG 0.17  C 
ATOM     57  CB  ALA B   2       1.363 -36.853  -4.601  1.00 33.40 LIG 0.04  C 
BRANCH 56 58
ATOM     58  N   ALA B   2       3.752 -36.843  -5.143  1.00 35.64 LIG-0.35  N 
ATOM     59 H    ALA B   2       3.692 -36.082  -4.748  1.00 35.64 LIG 0.16  HD
ATOM     60  C   ALA B   1       4.897 -37.459  -5.428  1.00 39.08 LIG 0.25  C 
ATOM     61 O    ALA B   1       4.960 -38.316  -6.283  1.00 40.54 LIG-0.27  OA
BRANCH 60 62
ATOM     62  CA  ALA B   1       6.187 -37.023  -4.689  1.00 41.05 LIG 0.27  C 
ATOM     63  CB  ALA B   1       6.476 -37.953  -3.489  1.00 41.95 LIG 0.05  C 
BRANCH 62 64
ATOM     64  N   ALA B   1       6.131 -35.612  -4.225  1.00 41.48 LIG-0.07  N 
ATOM     65 H3   ALA B   1       5.746 -35.109  -4.850  1.00 41.48 LIG 0.28  HD
ATOM     66 H2   ALA B   1       6.957 -35.316  -4.073  1.00 41.48 LIG 0.28  HD
ATOM     67 H1   ALA B   1       5.656 -35.564  -3.474  1.00 41.48 LIG 0.28  HD
ENDBRANCH 62 64
ENDBRANCH 60 62
ENDBRANCH 56 58
ENDBRANCH 53 56
ENDBRANCH 40 52
ENDBRANCH 37 40
ENDBRANCH 1 36
TORSDOF 23
ENDMDL
MODEL 41
USER: ADFR SOLUTION from run 85
USER: SCORE 21.762000 LL:  -6.378 LR: -17.050 RR:   0.000 FEB: -10.189
USER: RMSD 4.865940
USER: SEED 84
USER: STATUS no improvement in best in 3 clusters for 5 generations
USER: GENES 25
USER: genes 0 Translation |==|  0.45827 0.56657 0.65833
USER: genes 1 Rotation |==|  0.14396 0.60238 0.23539 0.70672
USER: genes 2 Torsion [N]-CA--C-[N] |==|  0.93961
USER: genes 3 Torsion [C]-N--CA-[CB] |==|  0.78834
USER: genes 4 Torsion [N]-CA--CB-[CG] |==|  0.90855
USER: genes 5 Torsion [CA]-CB--CG-[CD1] |==|  0.77915
USER: genes 6 Torsion [N]-CA--C-[N] |==|  0.22847
USER: genes 7 Torsion [C]-N--CA-[C] |==|  0.57942
USER: genes 8 Torsion [N]-CA--CB-[CG] |==|  0.72646
USER: genes 9 Torsion [CA]-CB--CG-[CD] |==|  0.81682
USER: genes 10 Torsion [CB]-CG--CD-[OE2] |==|  0.40792
USER: genes 11 Torsion [N]-CA--C-[N] |==|  0.44449
USER: genes 12 Torsion [C]-N--CA-[CB] |==|  0.51372
USER: genes 13 Torsion [N]-CA--C-[O] |==|  0.94374
USER: genes 14 Torsion [C]-CA--CB-[CG] |==|  0.93641
USER: genes 15 Torsion [CA]-CB--CG-[CD1] |==|  0.40266
USER: genes 16 Torsion [C]-CA--N-[C] |==|  0.74283
USER: genes 17 Torsion [N]-C--CA-[N] |==|  0.20000
USER: genes 18 Torsion [C]-CA--CB-[CG] |==|  0.28751
USER: genes 19 Torsion [CA]-CB--CG-[CD1] |==|  0.00980
USER: genes 20 Torsion [C]-CA--N-[C] |==|  0.58167
USER: genes 21 Torsion [N]-C--CA-[N] |==|  0.90038
USER: genes 22 Torsion [C]-CA--N-[C] |==|  0.66319
USER: genes 23 Torsion [N]-C--CA-[N] |==|  0.90888
USER: genes 24 Torsion [C]-CA--N-[H3] |==|  0.30315
ROOT
ATOM      1  CA  LEU B   4       2.130 -33.543  -6.288  1.00 25.55 LIG 0.18  C 
ENDROOT
BRANCH 1 2
ATOM      2  C   LEU B   4       0.717 -33.687  -6.861  1.00 26.13 LIG 0.24  C 
ATOM      3 O    LEU B   4      -0.089 -32.794  -6.663  1.00 25.31 LIG-0.27  OA
ATOM      4  N   PHE B   5       0.443 -34.797  -7.565  1.00 26.68 LIG-0.35  N 
ATOM      5 H    PHE B   5       0.973 -35.471  -7.629  1.00 26.68 LIG 0.16  HD
BRANCH 4 6
ATOM      6  CA  PHE B   5      -0.822 -34.940  -8.299  1.00 28.54 LIG 0.18  C 
BRANCH 6 7
ATOM      7  CB  PHE B   5      -2.003 -35.254  -7.354  1.00 28.61 LIG 0.07  C 
BRANCH 7 8
ATOM      8  CG  PHE B   5      -1.652 -36.073  -6.164  1.00 26.86 LIG-0.06  A 
ATOM      9  CD1 PHE B   5      -1.501 -37.438  -6.256  1.00 26.13 LIG 0.01  A 
ATOM     10  CE1 PHE B   5      -1.161 -38.195  -5.137  1.00 23.59 LIG 0.00  A 
ATOM     11  CZ  PHE B   5      -0.943 -37.567  -3.886  1.00 25.19 LIG 0.00  A 
ATOM     12  CE2 PHE B   5      -1.137 -36.207  -3.786  1.00 26.30 LIG 0.00  A 
ATOM     13  CD2 PHE B   5      -1.463 -35.464  -4.922  1.00 27.99 LIG 0.01  A 
ENDBRANCH 7 8
ENDBRANCH 6 7
BRANCH 6 14
ATOM     14  C   PHE B   5      -1.184 -33.699  -9.119  1.00 31.71 LIG 0.24  C 
ATOM     15  N   GLU B   6      -0.604 -33.580 -10.318  1.00 34.73 LIG-0.35  N 
ATOM     16 H    GLU B   6       0.153 -33.939 -10.512  1.00 34.73 LIG 0.16  HD
ATOM     17 O    PHE B   5      -1.924 -32.843  -8.628  1.00 30.66 LIG-0.27  OA
BRANCH 15 18
ATOM     18  CA  GLU B   6      -1.209 -32.813 -11.445  1.00 38.89 LIG 0.18  C 
BRANCH 18 19
ATOM     19  CB  GLU B   6      -0.879 -31.316 -11.388  1.00 39.10 LIG 0.04  C 
BRANCH 19 20
ATOM     20  CG  GLU B   6      -2.015 -30.461 -10.767  1.00 43.96 LIG 0.12  C 
BRANCH 20 21
ATOM     21  CD  GLU B   6      -3.313 -30.418 -11.588  1.00 49.39 LIG 0.17  C 
ATOM     22 OE1  GLU B   6      -3.270 -30.420 -12.835  1.00 53.88 LIG-0.65  OA
ATOM     23 OE2  GLU B   6      -4.410 -30.337 -10.975  1.00 56.34 LIG-0.65  OA
ENDBRANCH 20 21
ENDBRANCH 19 20
ENDBRANCH 18 19
BRANCH 18 24
ATOM     24  C   GLU B   6      -0.726 -33.441 -12.790  1.00 41.03 LIG 0.24  C 
ATOM     25 O    GLU B   6       0.281 -34.199 -12.843  1.00 40.13 LIG-0.27  OA
ATOM     26  N   ALA B   7      -1.488 -33.148 -13.851  1.00 43.76 LIG-0.35  N 
ATOM     27 H    ALA B   7      -2.137 -32.585 -13.810  1.00 43.76 LIG 0.16  HD
BRANCH 26 28
ATOM     28  CA  ALA B   7      -1.318 -33.745 -15.222  1.00 45.80 LIG 0.16  C 
ATOM     29  CB  ALA B   7      -2.306 -33.075 -16.238  1.00 46.43 LIG 0.04  C 
BRANCH 28 30
ATOM     30  C   ALA B   7       0.097 -33.604 -15.763  1.00 46.67 LIG 0.22  C 
ATOM     31 O    ALA B   7       0.856 -32.742 -15.289  1.00 48.32 LIG-0.29  OA
ENDBRANCH 28 30
ENDBRANCH 26 28
ENDBRANCH 18 24
ENDBRANCH 15 18
ENDBRANCH 6 14
ENDBRANCH 4 6
ENDBRANCH 1 2
BRANCH 1 32
ATOM     32  CB  LEU B   4       2.895 -32.560  -7.150  1.00 24.11 LIG 0.04  C 
BRANCH 32 33
ATOM     33  CG  LEU B   4       2.336 -32.415  -8.585  1.00 25.40 LIG-0.02  C 
ATOM     34  CD2 LEU B   4       3.037 -33.448  -9.437  1.00 26.98 LIG 0.01  C 
ATOM     35  CD1 LEU B   4       2.418 -30.999  -9.220  1.00 25.06 LIG 0.01  C 
ENDBRANCH 32 33
ENDBRANCH 1 32
BRANCH 1 36
ATOM     36  N   LEU B   4       2.833 -34.802  -6.146  1.00 24.30 LIG-0.35  N 
ATOM     37  C   TRP B   3       2.796 -35.494  -5.010  1.00 25.24 LIG 0.24  C 
ATOM     38 O    TRP B   3       2.148 -35.137  -4.040  1.00 25.23 LIG-0.27  OA
ATOM     39 H    LEU B   4       3.263 -35.052  -6.848  1.00 24.30 LIG 0.16  HD
BRANCH 37 40
ATOM     40  CA  TRP B   3       3.654 -36.774  -4.944  1.00 26.39 LIG 0.18  C 
BRANCH 40 41
ATOM     41  CB  TRP B   3       3.215 -37.626  -3.753  1.00 26.78 LIG 0.07  C 
BRANCH 41 42
ATOM     42  CG  TRP B   3       2.428 -38.737  -4.181  1.00 25.50 LIG-0.03  A 
ATOM     43  CD1 TRP B   3       2.140 -39.081  -5.460  1.00 28.00 LIG 0.10  A 
ATOM     44  NE1 TRP B   3       1.338 -40.180  -5.480  1.00 26.39 LIG-0.36  N 
ATOM     45 HE1  TRP B   3       1.037 -40.566  -6.187  1.00 26.39 LIG 0.17  HD
ATOM     46  CE2 TRP B   3       1.090 -40.572  -4.199  1.00 23.90 LIG 0.04  A 
ATOM     47  CZ2 TRP B   3       0.319 -41.634  -3.723  1.00 23.10 LIG 0.03  A 
ATOM     48  CD2 TRP B   3       1.773 -39.683  -3.354  1.00 23.76 LIG-0.00  A 
ATOM     49  CH2 TRP B   3       0.254 -41.815  -2.382  1.00 22.34 LIG 0.00  A 
ATOM     50  CZ3 TRP B   3       0.908 -40.940  -1.497  1.00 25.34 LIG 0.00  A 
ATOM     51  CE3 TRP B   3       1.674 -39.853  -1.987  1.00 25.10 LIG 0.01  A 
ENDBRANCH 41 42
ENDBRANCH 40 41
BRANCH 40 52
ATOM     52  N   TRP B   3       5.076 -36.418  -4.862  1.00 27.54 LIG-0.35  N 
ATOM     53  C   ALA B   2       5.971 -37.267  -5.379  1.00 31.13 LIG 0.24  C 
ATOM     54 O    ALA B   2       5.619 -38.323  -5.893  1.00 30.30 LIG-0.27  OA
ATOM     55 H    TRP B   3       5.257 -35.669  -4.479  1.00 27.54 LIG 0.16  HD
BRANCH 53 56
ATOM     56  CA  ALA B   2       7.458 -36.884  -5.323  1.00 33.66 LIG 0.17  C 
ATOM     57  CB  ALA B   2       8.119 -37.346  -3.999  1.00 33.40 LIG 0.04  C 
BRANCH 56 58
ATOM     58  N   ALA B   2       7.720 -35.451  -5.499  1.00 35.64 LIG-0.35  N 
ATOM     59 H    ALA B   2       7.340 -34.938  -4.923  1.00 35.64 LIG 0.16  HD
ATOM     60  C   ALA B   1       8.495 -35.024  -6.494  1.00 39.08 LIG 0.25  C 
ATOM     61 O    ALA B   1       8.704 -35.708  -7.472  1.00 40.54 LIG-0.27  OA
BRANCH 60 62
ATOM     62  CA  ALA B   1       9.091 -33.596  -6.421  1.00 41.05 LIG 0.27  C 
ATOM     63  CB  ALA B   1      10.469 -33.609  -5.721  1.00 41.95 LIG 0.05  C 
BRANCH 62 64
ATOM     64  N   ALA B   1       8.190 -32.635  -5.731  1.00 41.48 LIG-0.07  N 
ATOM     65 H3   ALA B   1       8.536 -32.420  -4.939  1.00 41.48 LIG 0.28  HD
ATOM     66 H2   ALA B   1       7.391 -33.009  -5.614  1.00 41.48 LIG 0.28  HD
ATOM     67 H1   ALA B   1       8.105 -31.901  -6.225  1.00 41.48 LIG 0.28  HD
ENDBRANCH 62 64
ENDBRANCH 60 62
ENDBRANCH 56 58
ENDBRANCH 53 56
ENDBRANCH 40 52
ENDBRANCH 37 40
ENDBRANCH 1 36
TORSDOF 23
ENDMDL
MODEL 42
USER: ADFR SOLUTION from run 37
USER: SCORE 21.844654 LL:  -5.980 LR: -17.044 RR:   0.000 FEB: -10.183
USER: RMSD 5.340621
USER: SEED 36
USER: STATUS no improvement in best in 15 clusters for 5 generations
USER: GENES 25
USER: genes 0 Translation |==|  0.33133 0.45038 0.57445
USER: genes 1 Rotation |==|  0.65264 0.37752 0.43673 0.95574
USER: genes 2 Torsion [N]-CA--C-[N] |==|  0.20213
USER: genes 3 Torsion [C]-N--CA-[CB] |==|  0.52812
USER: genes 4 Torsion [N]-CA--CB-[CG] |==|  0.97332
USER: genes 5 Torsion [CA]-CB--CG-[CD1] |==|  0.32916
USER: genes 6 Torsion [N]-CA--C-[N] |==|  0.37961
USER: genes 7 Torsion [C]-N--CA-[C] |==|  0.84943
USER: genes 8 Torsion [N]-CA--CB-[CG] |==|  0.67692
USER: genes 9 Torsion [CA]-CB--CG-[CD] |==|  0.11220
USER: genes 10 Torsion [CB]-CG--CD-[OE2] |==|  0.06286
USER: genes 11 Torsion [N]-CA--C-[N] |==|  0.35556
USER: genes 12 Torsion [C]-N--CA-[CB] |==|  0.21270
USER: genes 13 Torsion [N]-CA--C-[O] |==|  0.56675
USER: genes 14 Torsion [C]-CA--CB-[CG] |==|  0.72470
USER: genes 15 Torsion [CA]-CB--CG-[CD1] |==|  0.37282
USER: genes 16 Torsion [C]-CA--N-[C] |==|  0.67118
USER: genes 17 Torsion [N]-C--CA-[N] |==|  0.87503
USER: genes 18 Torsion [C]-CA--CB-[CG] |==|  0.24551
USER: genes 19 Torsion [CA]-CB--CG-[CD1] |==|  0.08390
USER: genes 20 Torsion [C]-CA--N-[C] |==|  0.84917
USER: genes 21 Torsion [N]-C--CA-[N] |==|  0.89594
USER: genes 22 Torsion [C]-CA--N-[C] |==|  0.83240
USER: genes 23 Torsion [N]-C--CA-[N] |==|  0.58533
USER: genes 24 Torsion [C]-CA--N-[H3] |==|  0.15369
ROOT
ATOM      1  CA  LEU B   4      -0.345 -35.983  -8.175  1.00 25.55 LIG 0.18  C 
ENDROOT
BRANCH 1 2
ATOM      2  C   LEU B   4      -0.257 -34.796  -9.140  1.00 26.13 LIG 0.24  C 
ATOM      3 O    LEU B   4      -1.079 -33.901  -9.043  1.00 25.31 LIG-0.27  OA
ATOM      4  N   PHE B   5       0.736 -34.803 -10.042  1.00 26.68 LIG-0.35  N 
ATOM      5 H    PHE B   5       1.260 -35.471 -10.179  1.00 26.68 LIG 0.16  HD
BRANCH 4 6
ATOM      6  CA  PHE B   5       1.006 -33.630 -10.886  1.00 28.54 LIG 0.18  C 
BRANCH 6 7
ATOM      7  CB  PHE B   5       2.017 -33.950 -12.009  1.00 28.61 LIG 0.07  C 
BRANCH 7 8
ATOM      8  CG  PHE B   5       2.683 -35.274 -11.895  1.00 26.86 LIG-0.06  A 
ATOM      9  CD1 PHE B   5       2.534 -36.234 -12.869  1.00 26.13 LIG 0.01  A 
ATOM     10  CE1 PHE B   5       3.172 -37.467 -12.759  1.00 23.59 LIG 0.00  A 
ATOM     11  CZ  PHE B   5       4.004 -37.746 -11.647  1.00 25.19 LIG 0.00  A 
ATOM     12  CE2 PHE B   5       4.117 -36.801 -10.651  1.00 26.30 LIG 0.00  A 
ATOM     13  CD2 PHE B   5       3.482 -35.566 -10.788  1.00 27.99 LIG 0.01  A 
ENDBRANCH 7 8
ENDBRANCH 6 7
BRANCH 6 14
ATOM     14  C   PHE B   5      -0.256 -33.050 -11.529  1.00 31.71 LIG 0.24  C 
ATOM     15  N   GLU B   6      -0.380 -31.720 -11.521  1.00 34.73 LIG-0.35  N 
ATOM     16 H    GLU B   6      -0.005 -31.217 -10.933  1.00 34.73 LIG 0.16  HD
ATOM     17 O    PHE B   5      -1.123 -33.816 -11.960  1.00 30.66 LIG-0.27  OA
BRANCH 15 18
ATOM     18  CA  GLU B   6      -1.179 -30.967 -12.530  1.00 38.89 LIG 0.18  C 
BRANCH 18 19
ATOM     19  CB  GLU B   6      -1.109 -29.448 -12.329  1.00 39.10 LIG 0.04  C 
BRANCH 19 20
ATOM     20  CG  GLU B   6      -2.481 -28.812 -11.979  1.00 43.96 LIG 0.12  C 
BRANCH 20 21
ATOM     21  CD  GLU B   6      -3.341 -29.629 -11.003  1.00 49.39 LIG 0.17  C 
ATOM     22 OE1  GLU B   6      -4.573 -29.439 -10.938  1.00 53.88 LIG-0.65  OA
ATOM     23 OE2  GLU B   6      -2.770 -30.458 -10.246  1.00 56.34 LIG-0.65  OA
ENDBRANCH 20 21
ENDBRANCH 19 20
ENDBRANCH 18 19
BRANCH 18 24
ATOM     24  C   GLU B   6      -0.683 -31.365 -13.955  1.00 41.03 LIG 0.24  C 
ATOM     25 O    GLU B   6       0.541 -31.353 -14.258  1.00 40.13 LIG-0.27  OA
ATOM     26  N   ALA B   7      -1.650 -31.757 -14.796  1.00 43.76 LIG-0.35  N 
ATOM     27 H    ALA B   7      -2.484 -31.705 -14.594  1.00 43.76 LIG 0.16  HD
BRANCH 26 28
ATOM     28  CA  ALA B   7      -1.414 -32.325 -16.169  1.00 45.80 LIG 0.16  C 
ATOM     29  CB  ALA B   7      -0.939 -33.816 -16.071  1.00 46.43 LIG 0.04  C 
BRANCH 28 30
ATOM     30  C   ALA B   7      -2.649 -32.272 -17.056  1.00 46.67 LIG 0.22  C 
ATOM     31 O    ALA B   7      -2.762 -33.067 -18.005  1.00 48.32 LIG-0.29  OA
ENDBRANCH 28 30
ENDBRANCH 26 28
ENDBRANCH 18 24
ENDBRANCH 15 18
ENDBRANCH 6 14
ENDBRANCH 4 6
ENDBRANCH 1 2
BRANCH 1 32
ATOM     32  CB  LEU B   4      -1.736 -36.005  -7.574  1.00 24.11 LIG 0.04  C 
BRANCH 32 33
ATOM     33  CG  LEU B   4      -1.821 -35.380  -6.162  1.00 25.40 LIG-0.02  C 
ATOM     34  CD2 LEU B   4      -1.828 -36.523  -5.173  1.00 26.98 LIG 0.01  C 
ATOM     35  CD1 LEU B   4      -2.999 -34.398  -5.909  1.00 25.06 LIG 0.01  C 
ENDBRANCH 32 33
ENDBRANCH 1 32
BRANCH 1 36
ATOM     36  N   LEU B   4       0.686 -35.984  -7.157  1.00 24.30 LIG-0.35  N 
ATOM     37  C   TRP B   3       1.571 -36.974  -7.067  1.00 25.24 LIG 0.24  C 
ATOM     38 O    TRP B   3       1.593 -37.913  -7.846  1.00 25.23 LIG-0.27  OA
ATOM     39 H    LEU B   4       0.671 -35.303  -6.633  1.00 24.30 LIG 0.16  HD
BRANCH 37 40
ATOM     40  CA  TRP B   3       2.566 -36.916  -5.890  1.00 26.39 LIG 0.18  C 
BRANCH 40 41
ATOM     41  CB  TRP B   3       1.872 -37.376  -4.607  1.00 26.78 LIG 0.07  C 
BRANCH 41 42
ATOM     42  CG  TRP B   3       1.978 -38.790  -4.447  1.00 25.50 LIG-0.03  A 
ATOM     43  CD1 TRP B   3       2.989 -39.581  -4.884  1.00 28.00 LIG 0.10  A 
ATOM     44  NE1 TRP B   3       2.731 -40.881  -4.576  1.00 26.39 LIG-0.36  N 
ATOM     45 HE1  TRP B   3       3.241 -41.549  -4.761  1.00 26.39 LIG 0.17  HD
ATOM     46  CE2 TRP B   3       1.536 -40.956  -3.928  1.00 23.90 LIG 0.04  A 
ATOM     47  CZ2 TRP B   3       0.856 -42.070  -3.430  1.00 23.10 LIG 0.03  A 
ATOM     48  CD2 TRP B   3       1.038 -39.647  -3.823  1.00 23.76 LIG-0.00  A 
ATOM     49  CH2 TRP B   3      -0.325 -41.860  -2.801  1.00 22.34 LIG 0.00  A 
ATOM     50  CZ3 TRP B   3      -0.869 -40.569  -2.687  1.00 25.34 LIG 0.00  A 
ATOM     51  CE3 TRP B   3      -0.183 -39.444  -3.212  1.00 25.10 LIG 0.01  A 
ENDBRANCH 41 42
ENDBRANCH 40 41
BRANCH 40 52
ATOM     52  N   TRP B   3       3.104 -35.556  -5.758  1.00 27.54 LIG-0.35  N 
ATOM     53  C   ALA B   2       3.671 -34.994  -6.831  1.00 31.13 LIG 0.24  C 
ATOM     54 O    ALA B   2       3.756 -35.600  -7.894  1.00 30.30 LIG-0.27  OA
ATOM     55 H    TRP B   3       3.023 -35.191  -4.984  1.00 27.54 LIG 0.16  HD
BRANCH 53 56
ATOM     56  CA  ALA B   2       4.207 -33.559  -6.706  1.00 33.66 LIG 0.17  C 
ATOM     57  CB  ALA B   2       5.659 -33.537  -6.163  1.00 33.40 LIG 0.04  C 
BRANCH 56 58
ATOM     58  N   ALA B   2       3.384 -32.676  -5.872  1.00 35.64 LIG-0.35  N 
ATOM     59 H    ALA B   2       3.783 -32.349  -5.185  1.00 35.64 LIG 0.16  HD
ATOM     60  C   ALA B   1       2.116 -32.430  -6.198  1.00 39.08 LIG 0.25  C 
ATOM     61 O    ALA B   1       1.496 -33.170  -6.931  1.00 40.54 LIG-0.27  OA
BRANCH 60 62
ATOM     62  CA  ALA B   1       1.405 -31.205  -5.572  1.00 41.05 LIG 0.27  C 
ATOM     63  CB  ALA B   1       2.040 -30.835  -4.212  1.00 41.95 LIG 0.05  C 
BRANCH 62 64
ATOM     64  N   ALA B   1      -0.056 -31.418  -5.399  1.00 41.48 LIG-0.07  N 
ATOM     65 H3   ALA B   1      -0.194 -32.155  -4.920  1.00 41.48 LIG 0.28  HD
ATOM     66 H2   ALA B   1      -0.440 -31.508  -6.197  1.00 41.48 LIG 0.28  HD
ATOM     67 H1   ALA B   1      -0.411 -30.721  -4.976  1.00 41.48 LIG 0.28  HD
ENDBRANCH 62 64
ENDBRANCH 60 62
ENDBRANCH 56 58
ENDBRANCH 53 56
ENDBRANCH 40 52
ENDBRANCH 37 40
ENDBRANCH 1 36
TORSDOF 23
ENDMDL
MODEL 43
USER: ADFR SOLUTION from run 154
USER: SCORE 21.743602 LL:  -5.791 LR: -17.006 RR:   0.000 FEB: -10.145
USER: RMSD 8.497068
USER: SEED 153
USER: STATUS no improvement in best in 3 clusters for 5 generations
USER: GENES 25
USER: genes 0 Translation |==|  0.46897 0.33823 0.72975
USER: genes 1 Rotation |==|  0.32520 0.19446 0.82188 0.64995
USER: genes 2 Torsion [N]-CA--C-[N] |==|  0.21512
USER: genes 3 Torsion [C]-N--CA-[CB] |==|  0.75108
USER: genes 4 Torsion [N]-CA--CB-[CG] |==|  0.08078
USER: genes 5 Torsion [CA]-CB--CG-[CD1] |==|  0.27443
USER: genes 6 Torsion [N]-CA--C-[N] |==|  0.23626
USER: genes 7 Torsion [C]-N--CA-[C] |==|  0.75379
USER: genes 8 Torsion [N]-CA--CB-[CG] |==|  0.87057
USER: genes 9 Torsion [CA]-CB--CG-[CD] |==|  0.77320
USER: genes 10 Torsion [CB]-CG--CD-[OE2] |==|  0.56652
USER: genes 11 Torsion [N]-CA--C-[N] |==|  0.02138
USER: genes 12 Torsion [C]-N--CA-[CB] |==|  0.27690
USER: genes 13 Torsion [N]-CA--C-[O] |==|  0.63068
USER: genes 14 Torsion [C]-CA--CB-[CG] |==|  0.42761
USER: genes 15 Torsion [CA]-CB--CG-[CD1] |==|  0.58040
USER: genes 16 Torsion [C]-CA--N-[C] |==|  0.15843
USER: genes 17 Torsion [N]-C--CA-[N] |==|  0.99836
USER: genes 18 Torsion [C]-CA--CB-[CG] |==|  0.46973
USER: genes 19 Torsion [CA]-CB--CG-[CD1] |==|  0.09792
USER: genes 20 Torsion [C]-CA--N-[C] |==|  0.74455
USER: genes 21 Torsion [N]-C--CA-[N] |==|  0.94324
USER: genes 22 Torsion [C]-CA--N-[C] |==|  0.79695
USER: genes 23 Torsion [N]-C--CA-[N] |==|  0.98291
USER: genes 24 Torsion [C]-CA--N-[H3] |==|  0.89993
ROOT
ATOM      1  CA  LEU B   4       2.339 -38.338  -4.681  1.00 25.55 LIG 0.18  C 
ENDROOT
BRANCH 1 2
ATOM      2  C   LEU B   4       3.838 -38.208  -4.968  1.00 26.13 LIG 0.24  C 
ATOM      3 O    LEU B   4       4.381 -39.062  -5.648  1.00 25.31 LIG-0.27  OA
ATOM      4  N   PHE B   5       4.477 -37.144  -4.457  1.00 26.68 LIG-0.35  N 
ATOM      5 H    PHE B   5       4.125 -36.590  -3.900  1.00 26.68 LIG 0.16  HD
BRANCH 4 6
ATOM      6  CA  PHE B   5       5.868 -36.842  -4.825  1.00 28.54 LIG 0.18  C 
BRANCH 6 7
ATOM      7  CB  PHE B   5       6.876 -37.535  -3.882  1.00 28.61 LIG 0.07  C 
BRANCH 7 8
ATOM      8  CG  PHE B   5       6.401 -38.812  -3.287  1.00 26.86 LIG-0.06  A 
ATOM      9  CD1 PHE B   5       6.773 -40.026  -3.816  1.00 26.13 LIG 0.01  A 
ATOM     10  CE1 PHE B   5       6.333 -41.218  -3.244  1.00 23.59 LIG 0.00  A 
ATOM     11  CZ  PHE B   5       5.510 -41.198  -2.092  1.00 25.19 LIG 0.00  A 
ATOM     12  CE2 PHE B   5       5.104 -39.982  -1.589  1.00 26.30 LIG 0.00  A 
ATOM     13  CD2 PHE B   5       5.567 -38.799  -2.167  1.00 27.99 LIG 0.01  A 
ENDBRANCH 7 8
ENDBRANCH 6 7
BRANCH 6 14
ATOM     14  C   PHE B   5       6.207 -37.239  -6.263  1.00 31.71 LIG 0.24  C 
ATOM     15  N   GLU B   6       5.912 -36.352  -7.219  1.00 34.73 LIG-0.35  N 
ATOM     16 H    GLU B   6       5.287 -35.766  -7.139  1.00 34.73 LIG 0.16  HD
ATOM     17 O    PHE B   5       6.667 -38.362  -6.490  1.00 30.66 LIG-0.27  OA
BRANCH 15 18
ATOM     18  CA  GLU B   6       6.632 -36.286  -8.523  1.00 38.89 LIG 0.18  C 
BRANCH 18 19
ATOM     19  CB  GLU B   6       5.730 -35.826  -9.676  1.00 39.10 LIG 0.04  C 
BRANCH 19 20
ATOM     20  CG  GLU B   6       4.358 -36.553  -9.707  1.00 43.96 LIG 0.12  C 
BRANCH 20 21
ATOM     21  CD  GLU B   6       4.378 -37.940 -10.367  1.00 49.39 LIG 0.17  C 
ATOM     22 OE1  GLU B   6       5.446 -38.578 -10.461  1.00 53.88 LIG-0.65  OA
ATOM     23 OE2  GLU B   6       3.304 -38.394 -10.845  1.00 56.34 LIG-0.65  OA
ENDBRANCH 20 21
ENDBRANCH 19 20
ENDBRANCH 18 19
BRANCH 18 24
ATOM     24  C   GLU B   6       7.861 -35.338  -8.365  1.00 41.03 LIG 0.24  C 
ATOM     25 O    GLU B   6       8.537 -34.958  -9.359  1.00 40.13 LIG-0.27  OA
ATOM     26  N   ALA B   7       8.101 -34.935  -7.110  1.00 43.76 LIG-0.35  N 
ATOM     27 H    ALA B   7       7.667 -35.247  -6.436  1.00 43.76 LIG 0.16  HD
BRANCH 26 28
ATOM     28  CA  ALA B   7       9.131 -33.910  -6.719  1.00 45.80 LIG 0.16  C 
ATOM     29  CB  ALA B   7       8.455 -32.514  -6.489  1.00 46.43 LIG 0.04  C 
BRANCH 28 30
ATOM     30  C   ALA B   7       9.899 -34.286  -5.461  1.00 46.67 LIG 0.22  C 
ATOM     31 O    ALA B   7      10.061 -33.443  -4.562  1.00 48.32 LIG-0.29  OA
ENDBRANCH 28 30
ENDBRANCH 26 28
ENDBRANCH 18 24
ENDBRANCH 15 18
ENDBRANCH 6 14
ENDBRANCH 4 6
ENDBRANCH 1 2
BRANCH 1 32
ATOM     32  CB  LEU B   4       1.951 -39.795  -4.832  1.00 24.11 LIG 0.04  C 
BRANCH 32 33
ATOM     33  CG  LEU B   4       0.713 -40.206  -4.003  1.00 25.40 LIG-0.02  C 
ATOM     34  CD2 LEU B   4       0.631 -39.253  -2.831  1.00 26.98 LIG 0.01  C 
ATOM     35  CD1 LEU B   4       0.651 -41.687  -3.538  1.00 25.06 LIG 0.01  C 
ENDBRANCH 32 33
ENDBRANCH 1 32
BRANCH 1 36
ATOM     36  N   LEU B   4       1.512 -37.469  -5.493  1.00 24.30 LIG-0.35  N 
ATOM     37  C   TRP B   3       1.555 -37.514  -6.823  1.00 25.24 LIG 0.24  C 
ATOM     38 O    TRP B   3       2.255 -38.304  -7.434  1.00 25.23 LIG-0.27  OA
ATOM     39 H    LEU B   4       1.007 -36.936  -5.046  1.00 24.30 LIG 0.16  HD
BRANCH 37 40
ATOM     40  CA  TRP B   3       0.700 -36.481  -7.583  1.00 26.39 LIG 0.18  C 
BRANCH 40 41
ATOM     41  CB  TRP B   3       1.594 -35.653  -8.507  1.00 26.78 LIG 0.07  C 
BRANCH 41 42
ATOM     42  CG  TRP B   3       0.813 -34.865  -9.404  1.00 25.50 LIG-0.03  A 
ATOM     43  CD1 TRP B   3      -0.377 -34.275  -9.137  1.00 28.00 LIG 0.10  A 
ATOM     44  NE1 TRP B   3      -0.839 -33.631 -10.244  1.00 26.39 LIG-0.36  N 
ATOM     45 HE1  TRP B   3      -1.576 -33.191 -10.295  1.00 26.39 LIG 0.17  HD
ATOM     46  CE2 TRP B   3       0.054 -33.796 -11.259  1.00 23.90 LIG 0.04  A 
ATOM     47  CZ2 TRP B   3       0.009 -33.331 -12.575  1.00 23.10 LIG 0.03  A 
ATOM     48  CD2 TRP B   3       1.116 -34.566 -10.757  1.00 23.76 LIG-0.00  A 
ATOM     49  CH2 TRP B   3       1.054 -33.625 -13.385  1.00 22.34 LIG 0.00  A 
ATOM     50  CZ3 TRP B   3       2.130 -34.407 -12.929  1.00 25.34 LIG 0.00  A 
ATOM     51  CE3 TRP B   3       2.160 -34.892 -11.597  1.00 25.10 LIG 0.01  A 
ENDBRANCH 41 42
ENDBRANCH 40 41
BRANCH 40 52
ATOM     52  N   TRP B   3      -0.026 -35.633  -6.629  1.00 27.54 LIG-0.35  N 
ATOM     53  C   ALA B   2      -1.257 -36.005  -6.263  1.00 31.13 LIG 0.24  C 
ATOM     54 O    ALA B   2      -1.777 -37.016  -6.721  1.00 30.30 LIG-0.27  OA
ATOM     55 H    TRP B   3       0.390 -34.932  -6.354  1.00 27.54 LIG 0.16  HD
BRANCH 53 56
ATOM     56  CA  ALA B   2      -2.008 -35.137  -5.240  1.00 33.66 LIG 0.17  C 
ATOM     57  CB  ALA B   2      -3.088 -34.257  -5.920  1.00 33.40 LIG 0.04  C 
BRANCH 56 58
ATOM     58  N   ALA B   2      -1.142 -34.272  -4.430  1.00 35.64 LIG-0.35  N 
ATOM     59 H    ALA B   2      -1.176 -33.436  -4.629  1.00 35.64 LIG 0.16  HD
ATOM     60  C   ALA B   1      -0.380 -34.790  -3.470  1.00 39.08 LIG 0.25  C 
ATOM     61 O    ALA B   1      -0.083 -35.965  -3.462  1.00 40.54 LIG-0.27  OA
BRANCH 60 62
ATOM     62  CA  ALA B   1       0.189 -33.852  -2.376  1.00 41.05 LIG 0.27  C 
ATOM     63  CB  ALA B   1      -0.358 -34.236  -0.983  1.00 41.95 LIG 0.05  C 
BRANCH 62 64
ATOM     64  N   ALA B   1      -0.097 -32.418  -2.647  1.00 41.48 LIG-0.07  N 
ATOM     65 H3   ALA B   1      -0.056 -32.268  -3.523  1.00 41.48 LIG 0.28  HD
ATOM     66 H2   ALA B   1       0.505 -31.911  -2.230  1.00 41.48 LIG 0.28  HD
ATOM     67 H1   ALA B   1      -0.911 -32.216  -2.350  1.00 41.48 LIG 0.28  HD
ENDBRANCH 62 64
ENDBRANCH 60 62
ENDBRANCH 56 58
ENDBRANCH 53 56
ENDBRANCH 40 52
ENDBRANCH 37 40
ENDBRANCH 1 36
TORSDOF 23
ENDMDL
MODEL 44
USER: ADFR SOLUTION from run 88
USER: SCORE 21.070939 LL:  -5.574 LR: -16.978 RR:   0.000 FEB: -10.117
USER: RMSD 8.922759
USER: SEED 87
USER: STATUS 1 or 2 clusters left
USER: GENES 25
USER: genes 0 Translation |==|  0.52531 0.42706 0.52920
USER: genes 1 Rotation |==|  0.14609 0.74894 0.63399 0.71171
USER: genes 2 Torsion [N]-CA--C-[N] |==|  0.41491
USER: genes 3 Torsion [C]-N--CA-[CB] |==|  0.52823
USER: genes 4 Torsion [N]-CA--CB-[CG] |==|  0.63899
USER: genes 5 Torsion [CA]-CB--CG-[CD1] |==|  0.01731
USER: genes 6 Torsion [N]-CA--C-[N] |==|  0.45576
USER: genes 7 Torsion [C]-N--CA-[C] |==|  0.90421
USER: genes 8 Torsion [N]-CA--CB-[CG] |==|  0.07073
USER: genes 9 Torsion [CA]-CB--CG-[CD] |==|  0.72865
USER: genes 10 Torsion [CB]-CG--CD-[OE2] |==|  0.52558
USER: genes 11 Torsion [N]-CA--C-[N] |==|  0.30556
USER: genes 12 Torsion [C]-N--CA-[CB] |==|  0.14589
USER: genes 13 Torsion [N]-CA--C-[O] |==|  0.83293
USER: genes 14 Torsion [C]-CA--CB-[CG] |==|  0.77867
USER: genes 15 Torsion [CA]-CB--CG-[CD1] |==|  0.25161
USER: genes 16 Torsion [C]-CA--N-[C] |==|  0.55821
USER: genes 17 Torsion [N]-C--CA-[N] |==|  0.36606
USER: genes 18 Torsion [C]-CA--CB-[CG] |==|  0.23154
USER: genes 19 Torsion [CA]-CB--CG-[CD1] |==|  0.06753
USER: genes 20 Torsion [C]-CA--N-[C] |==|  0.79291
USER: genes 21 Torsion [N]-C--CA-[N] |==|  0.91524
USER: genes 22 Torsion [C]-CA--N-[C] |==|  0.75556
USER: genes 23 Torsion [N]-C--CA-[N] |==|  0.14438
USER: genes 24 Torsion [C]-CA--N-[H3] |==|  0.98761
ROOT
ATOM      1  CA  LEU B   4       3.437 -36.473  -9.193  1.00 25.55 LIG 0.18  C 
ENDROOT
BRANCH 1 2
ATOM      2  C   LEU B   4       2.803 -37.299  -8.070  1.00 26.13 LIG 0.24  C 
ATOM      3 O    LEU B   4       1.795 -37.941  -8.312  1.00 25.31 LIG-0.27  OA
ATOM      4  N   PHE B   5       3.404 -37.280  -6.870  1.00 26.68 LIG-0.35  N 
ATOM      5 H    PHE B   5       4.058 -36.759  -6.665  1.00 26.68 LIG 0.16  HD
BRANCH 4 6
ATOM      6  CA  PHE B   5       2.973 -38.176  -5.788  1.00 28.54 LIG 0.18  C 
BRANCH 6 7
ATOM      7  CB  PHE B   5       3.629 -37.807  -4.439  1.00 28.61 LIG 0.07  C 
BRANCH 7 8
ATOM      8  CG  PHE B   5       4.263 -38.942  -3.719  1.00 26.86 LIG-0.06  A 
ATOM      9  CD1 PHE B   5       4.362 -40.187  -4.296  1.00 26.13 LIG 0.01  A 
ATOM     10  CE1 PHE B   5       4.968 -41.242  -3.617  1.00 23.59 LIG 0.00  A 
ATOM     11  CZ  PHE B   5       5.514 -41.042  -2.325  1.00 25.19 LIG 0.00  A 
ATOM     12  CE2 PHE B   5       5.376 -39.807  -1.731  1.00 26.30 LIG 0.00  A 
ATOM     13  CD2 PHE B   5       4.778 -38.760  -2.434  1.00 27.99 LIG 0.01  A 
ENDBRANCH 7 8
ENDBRANCH 6 7
BRANCH 6 14
ATOM     14  C   PHE B   5       1.455 -38.195  -5.593  1.00 31.71 LIG 0.24  C 
ATOM     15  N   GLU B   6       0.953 -39.204  -4.874  1.00 34.73 LIG-0.35  N 
ATOM     16 H    GLU B   6       1.340 -39.968  -4.802  1.00 34.73 LIG 0.16  HD
ATOM     17 O    PHE B   5       0.762 -37.338  -6.149  1.00 30.66 LIG-0.27  OA
BRANCH 15 18
ATOM     18  CA  GLU B   6      -0.331 -39.110  -4.121  1.00 38.89 LIG 0.18  C 
BRANCH 18 19
ATOM     19  CB  GLU B   6      -0.428 -40.135  -2.984  1.00 39.10 LIG 0.04  C 
BRANCH 19 20
ATOM     20  CG  GLU B   6       0.957 -40.590  -2.450  1.00 43.96 LIG 0.12  C 
BRANCH 20 21
ATOM     21  CD  GLU B   6       1.469 -41.918  -3.028  1.00 49.39 LIG 0.17  C 
ATOM     22 OE1  GLU B   6       0.851 -42.481  -3.955  1.00 53.88 LIG-0.65  OA
ATOM     23 OE2  GLU B   6       2.495 -42.441  -2.518  1.00 56.34 LIG-0.65  OA
ENDBRANCH 20 21
ENDBRANCH 19 20
ENDBRANCH 18 19
BRANCH 18 24
ATOM     24  C   GLU B   6      -0.484 -37.656  -3.576  1.00 41.03 LIG 0.24  C 
ATOM     25 O    GLU B   6       0.276 -37.202  -2.679  1.00 40.13 LIG-0.27  OA
ATOM     26  N   ALA B   7      -1.445 -36.934  -4.168  1.00 43.76 LIG-0.35  N 
ATOM     27 H    ALA B   7      -1.992 -37.274  -4.738  1.00 43.76 LIG 0.16  HD
BRANCH 26 28
ATOM     28  CA  ALA B   7      -1.691 -35.469  -3.925  1.00 45.80 LIG 0.16  C 
ATOM     29  CB  ALA B   7      -0.367 -34.652  -4.120  1.00 46.43 LIG 0.04  C 
BRANCH 28 30
ATOM     30  C   ALA B   7      -2.756 -34.883  -4.838  1.00 46.67 LIG 0.22  C 
ATOM     31 O    ALA B   7      -2.596 -34.910  -6.070  1.00 48.32 LIG-0.29  OA
ENDBRANCH 28 30
ENDBRANCH 26 28
ENDBRANCH 18 24
ENDBRANCH 15 18
ENDBRANCH 6 14
ENDBRANCH 4 6
ENDBRANCH 1 2
BRANCH 1 32
ATOM     32  CB  LEU B   4       2.919 -35.053  -9.089  1.00 24.11 LIG 0.04  C 
BRANCH 32 33
ATOM     33  CG  LEU B   4       1.505 -34.855  -9.683  1.00 25.40 LIG-0.02  C 
ATOM     34  CD2 LEU B   4       1.483 -33.485 -10.322  1.00 26.98 LIG 0.01  C 
ATOM     35  CD1 LEU B   4       0.311 -35.049  -8.707  1.00 25.06 LIG 0.01  C 
ENDBRANCH 32 33
ENDBRANCH 1 32
BRANCH 1 36
ATOM     36  N   LEU B   4       3.232 -37.030 -10.514  1.00 24.30 LIG-0.35  N 
ATOM     37  C   TRP B   3       4.023 -36.707 -11.535  1.00 25.24 LIG 0.24  C 
ATOM     38 O    TRP B   3       4.980 -35.959 -11.417  1.00 25.23 LIG-0.27  OA
ATOM     39 H    LEU B   4       2.569 -37.575 -10.573  1.00 24.30 LIG 0.16  HD
BRANCH 37 40
ATOM     40  CA  TRP B   3       3.655 -37.290 -12.914  1.00 26.39 LIG 0.18  C 
BRANCH 40 41
ATOM     41  CB  TRP B   3       4.619 -38.424 -13.267  1.00 26.78 LIG 0.07  C 
BRANCH 41 42
ATOM     42  CG  TRP B   3       4.206 -39.651 -12.667  1.00 25.50 LIG-0.03  A 
ATOM     43  CD1 TRP B   3       2.949 -39.984 -12.286  1.00 28.00 LIG 0.10  A 
ATOM     44  NE1 TRP B   3       2.942 -41.224 -11.725  1.00 26.39 LIG-0.36  N 
ATOM     45 HE1  TRP B   3       2.249 -41.628 -11.415  1.00 26.39 LIG 0.17  HD
ATOM     46  CE2 TRP B   3       4.210 -41.722 -11.733  1.00 23.90 LIG 0.04  A 
ATOM     47  CZ2 TRP B   3       4.694 -42.943 -11.260  1.00 23.10 LIG 0.03  A 
ATOM     48  CD2 TRP B   3       5.032 -40.753 -12.331  1.00 23.76 LIG-0.00  A 
ATOM     49  CH2 TRP B   3       6.016 -43.200 -11.413  1.00 22.34 LIG 0.00  A 
ATOM     50  CZ3 TRP B   3       6.878 -42.253 -11.991  1.00 25.34 LIG 0.00  A 
ATOM     51  CE3 TRP B   3       6.383 -41.007 -12.451  1.00 25.10 LIG 0.01  A 
ENDBRANCH 41 42
ENDBRANCH 40 41
BRANCH 40 52
ATOM     52  N   TRP B   3       3.674 -36.228 -13.927  1.00 27.54 LIG-0.35  N 
ATOM     53  C   ALA B   2       2.666 -35.349 -13.940  1.00 31.13 LIG 0.24  C 
ATOM     54 O    ALA B   2       1.740 -35.434 -13.141  1.00 30.30 LIG-0.27  OA
ATOM     55 H    TRP B   3       4.345 -36.231 -14.465  1.00 27.54 LIG 0.16  HD
BRANCH 53 56
ATOM     56  CA  ALA B   2       2.698 -34.217 -14.979  1.00 33.66 LIG 0.17  C 
ATOM     57  CB  ALA B   2       1.926 -34.600 -16.267  1.00 33.40 LIG 0.04  C 
BRANCH 56 58
ATOM     58  N   ALA B   2       4.047 -33.780 -15.356  1.00 35.64 LIG-0.35  N 
ATOM     59 H    ALA B   2       4.380 -34.181 -16.041  1.00 35.64 LIG 0.16  HD
ATOM     60  C   ALA B   1       4.668 -32.831 -14.660  1.00 39.08 LIG 0.25  C 
ATOM     61 O    ALA B   1       4.340 -32.561 -13.525  1.00 40.54 LIG-0.27  OA
BRANCH 60 62
ATOM     62  CA  ALA B   1       5.876 -32.102 -15.298  1.00 41.05 LIG 0.27  C 
ATOM     63  CB  ALA B   1       6.377 -30.961 -14.382  1.00 41.95 LIG 0.05  C 
BRANCH 62 64
ATOM     64  N   ALA B   1       5.569 -31.559 -16.648  1.00 41.48 LIG-0.07  N 
ATOM     65 H3   ALA B   1       4.749 -31.806 -16.887  1.00 41.48 LIG 0.28  HD
ATOM     66 H2   ALA B   1       6.158 -31.875 -17.236  1.00 41.48 LIG 0.28  HD
ATOM     67 H1   ALA B   1       5.616 -30.671 -16.629  1.00 41.48 LIG 0.28  HD
ENDBRANCH 62 64
ENDBRANCH 60 62
ENDBRANCH 56 58
ENDBRANCH 53 56
ENDBRANCH 40 52
ENDBRANCH 37 40
ENDBRANCH 1 36
TORSDOF 23
ENDMDL
MODEL 45
USER: ADFR SOLUTION from run 90
USER: SCORE 22.753400 LL:  -6.059 LR: -16.936 RR:   0.000 FEB: -10.075
USER: RMSD 7.316495
USER: SEED 89
USER: STATUS no improvement in best in 11 clusters for 5 generations
USER: GENES 25
USER: genes 0 Translation |==|  0.47698 0.41690 0.55388
USER: genes 1 Rotation |==|  0.41589 0.25432 0.25457 0.84976
USER: genes 2 Torsion [N]-CA--C-[N] |==|  0.34138
USER: genes 3 Torsion [C]-N--CA-[CB] |==|  0.83539
USER: genes 4 Torsion [N]-CA--CB-[CG] |==|  0.69421
USER: genes 5 Torsion [CA]-CB--CG-[CD1] |==|  0.87568
USER: genes 6 Torsion [N]-CA--C-[N] |==|  0.36111
USER: genes 7 Torsion [C]-N--CA-[C] |==|  0.82241
USER: genes 8 Torsion [N]-CA--CB-[CG] |==|  0.80202
USER: genes 9 Torsion [CA]-CB--CG-[CD] |==|  0.24128
USER: genes 10 Torsion [CB]-CG--CD-[OE2] |==|  0.45333
USER: genes 11 Torsion [N]-CA--C-[N] |==|  0.91422
USER: genes 12 Torsion [C]-N--CA-[CB] |==|  0.42324
USER: genes 13 Torsion [N]-CA--C-[O] |==|  0.69729
USER: genes 14 Torsion [C]-CA--CB-[CG] |==|  0.37389
USER: genes 15 Torsion [CA]-CB--CG-[CD1] |==|  0.02699
USER: genes 16 Torsion [C]-CA--N-[C] |==|  0.69823
USER: genes 17 Torsion [N]-C--CA-[N] |==|  0.95777
USER: genes 18 Torsion [C]-CA--CB-[CG] |==|  0.19732
USER: genes 19 Torsion [CA]-CB--CG-[CD1] |==|  0.66678
USER: genes 20 Torsion [C]-CA--N-[C] |==|  0.79092
USER: genes 21 Torsion [N]-C--CA-[N] |==|  0.90613
USER: genes 22 Torsion [C]-CA--N-[C] |==|  0.83125
USER: genes 23 Torsion [N]-C--CA-[N] |==|  0.02728
USER: genes 24 Torsion [C]-CA--N-[H3] |==|  0.71701
ROOT
ATOM      1  CA  LEU B   4       2.495 -36.686  -8.638  1.00 25.55 LIG 0.18  C 
ENDROOT
BRANCH 1 2
ATOM      2  C   LEU B   4       3.437 -37.082  -9.779  1.00 26.13 LIG 0.24  C 
ATOM      3 O    LEU B   4       4.539 -36.563  -9.837  1.00 25.31 LIG-0.27  OA
ATOM      4  N   PHE B   5       2.997 -37.997 -10.657  1.00 26.68 LIG-0.35  N 
ATOM      5 H    PHE B   5       2.192 -38.298 -10.679  1.00 26.68 LIG 0.16  HD
BRANCH 4 6
ATOM      6  CA  PHE B   5       3.892 -38.568 -11.674  1.00 28.54 LIG 0.18  C 
BRANCH 6 7
ATOM      7  CB  PHE B   5       4.478 -37.479 -12.600  1.00 28.61 LIG 0.07  C 
BRANCH 7 8
ATOM      8  CG  PHE B   5       3.967 -37.500 -13.995  1.00 26.86 LIG-0.06  A 
ATOM      9  CD1 PHE B   5       3.850 -38.679 -14.694  1.00 26.13 LIG 0.01  A 
ATOM     10  CE1 PHE B   5       3.359 -38.690 -15.998  1.00 23.59 LIG 0.00  A 
ATOM     11  CZ  PHE B   5       2.950 -37.484 -16.619  1.00 25.19 LIG 0.00  A 
ATOM     12  CE2 PHE B   5       3.108 -36.300 -15.934  1.00 26.30 LIG 0.00  A 
ATOM     13  CD2 PHE B   5       3.588 -36.312 -14.623  1.00 27.99 LIG 0.01  A 
ENDBRANCH 7 8
ENDBRANCH 6 7
BRANCH 6 14
ATOM     14  C   PHE B   5       5.054 -39.362 -11.074  1.00 31.71 LIG 0.24  C 
ATOM     15  N   GLU B   6       5.262 -40.588 -11.565  1.00 34.73 LIG-0.35  N 
ATOM     16 H    GLU B   6       4.641 -41.063 -11.923  1.00 34.73 LIG 0.16  HD
ATOM     17 O    PHE B   5       5.697 -38.882 -10.137  1.00 30.66 LIG-0.27  OA
BRANCH 15 18
ATOM     18  CA  GLU B   6       6.593 -41.262 -11.544  1.00 38.89 LIG 0.18  C 
BRANCH 18 19
ATOM     19  CB  GLU B   6       6.524 -42.724 -12.003  1.00 39.10 LIG 0.04  C 
BRANCH 19 20
ATOM     20  CG  GLU B   6       5.828 -43.657 -10.976  1.00 43.96 LIG 0.12  C 
BRANCH 20 21
ATOM     21  CD  GLU B   6       4.299 -43.737 -11.110  1.00 49.39 LIG 0.17  C 
ATOM     22 OE1  GLU B   6       3.673 -42.850 -11.725  1.00 53.88 LIG-0.65  OA
ATOM     23 OE2  GLU B   6       3.696 -44.691 -10.550  1.00 56.34 LIG-0.65  OA
ENDBRANCH 20 21
ENDBRANCH 19 20
ENDBRANCH 18 19
BRANCH 18 24
ATOM     24  C   GLU B   6       7.580 -40.443 -12.433  1.00 41.03 LIG 0.24  C 
ATOM     25 O    GLU B   6       8.820 -40.430 -12.206  1.00 40.13 LIG-0.27  OA
ATOM     26  N   ALA B   7       7.009 -39.808 -13.465  1.00 43.76 LIG-0.35  N 
ATOM     27 H    ALA B   7       6.156 -39.780 -13.573  1.00 43.76 LIG 0.16  HD
BRANCH 26 28
ATOM     28  CA  ALA B   7       7.760 -39.077 -14.545  1.00 45.80 LIG 0.16  C 
ATOM     29  CB  ALA B   7       6.935 -39.071 -15.878  1.00 46.43 LIG 0.04  C 
BRANCH 28 30
ATOM     30  C   ALA B   7       8.086 -37.638 -14.176  1.00 46.67 LIG 0.22  C 
ATOM     31 O    ALA B   7       7.494 -36.705 -14.744  1.00 48.32 LIG-0.29  OA
ENDBRANCH 28 30
ENDBRANCH 26 28
ENDBRANCH 18 24
ENDBRANCH 15 18
ENDBRANCH 6 14
ENDBRANCH 4 6
ENDBRANCH 1 2
BRANCH 1 32
ATOM     32  CB  LEU B   4       2.064 -35.250  -8.855  1.00 24.11 LIG 0.04  C 
BRANCH 32 33
ATOM     33  CG  LEU B   4       0.549 -35.012  -8.659  1.00 25.40 LIG-0.02  C 
ATOM     34  CD2 LEU B   4       0.403 -33.753  -7.835  1.00 26.98 LIG 0.01  C 
ATOM     35  CD1 LEU B   4      -0.264 -36.189  -8.052  1.00 25.06 LIG 0.01  C 
ENDBRANCH 32 33
ENDBRANCH 1 32
BRANCH 1 36
ATOM     36  N   LEU B   4       3.059 -36.891  -7.319  1.00 24.30 LIG-0.35  N 
ATOM     37  C   TRP B   3       2.623 -37.862  -6.521  1.00 25.24 LIG 0.24  C 
ATOM     38 O    TRP B   3       1.759 -38.655  -6.857  1.00 25.23 LIG-0.27  OA
ATOM     39 H    LEU B   4       3.685 -36.339  -7.109  1.00 24.30 LIG 0.16  HD
BRANCH 37 40
ATOM     40  CA  TRP B   3       3.233 -37.929  -5.106  1.00 26.39 LIG 0.18  C 
BRANCH 40 41
ATOM     41  CB  TRP B   3       2.196 -37.478  -4.077  1.00 26.78 LIG 0.07  C 
BRANCH 41 42
ATOM     42  CG  TRP B   3       1.161 -38.450  -3.933  1.00 25.50 LIG-0.03  A 
ATOM     43  CD1 TRP B   3      -0.161 -38.265  -4.163  1.00 28.00 LIG 0.10  A 
ATOM     44  NE1 TRP B   3      -0.847 -39.409  -3.891  1.00 26.39 LIG-0.36  N 
ATOM     45 HE1  TRP B   3      -1.698 -39.511  -3.970  1.00 26.39 LIG 0.17  HD
ATOM     46  CE2 TRP B   3       0.029 -40.365  -3.475  1.00 23.90 LIG 0.04  A 
ATOM     47  CZ2 TRP B   3      -0.208 -41.683  -3.079  1.00 23.10 LIG 0.03  A 
ATOM     48  CD2 TRP B   3       1.310 -39.791  -3.498  1.00 23.76 LIG-0.00  A 
ATOM     49  CH2 TRP B   3       0.861 -42.437  -2.725  1.00 22.34 LIG 0.00  A 
ATOM     50  CZ3 TRP B   3       2.160 -41.899  -2.719  1.00 25.34 LIG 0.00  A 
ATOM     51  CE3 TRP B   3       2.390 -40.554  -3.104  1.00 25.10 LIG 0.01  A 
ENDBRANCH 41 42
ENDBRANCH 40 41
BRANCH 40 52
ATOM     52  N   TRP B   3       4.448 -37.107  -5.047  1.00 27.54 LIG-0.35  N 
ATOM     53  C   ALA B   2       5.560 -37.581  -5.621  1.00 31.13 LIG 0.24  C 
ATOM     54 O    ALA B   2       5.573 -38.677  -6.168  1.00 30.30 LIG-0.27  OA
ATOM     55 H    TRP B   3       4.376 -36.354  -4.638  1.00 27.54 LIG 0.16  HD
BRANCH 53 56
ATOM     56  CA  ALA B   2       6.826 -36.710  -5.588  1.00 33.66 LIG 0.17  C 
ATOM     57  CB  ALA B   2       7.682 -36.992  -4.328  1.00 33.40 LIG 0.04  C 
BRANCH 56 58
ATOM     58  N   ALA B   2       6.570 -35.267  -5.665  1.00 35.64 LIG-0.35  N 
ATOM     59 H    ALA B   2       6.843 -34.813  -4.987  1.00 35.64 LIG 0.16  HD
ATOM     60  C   ALA B   1       5.956 -34.746  -6.725  1.00 39.08 LIG 0.25  C 
ATOM     61 O    ALA B   1       5.276 -35.428  -7.461  1.00 40.54 LIG-0.27  OA
BRANCH 60 62
ATOM     62  CA  ALA B   1       6.066 -33.223  -6.982  1.00 41.05 LIG 0.27  C 
ATOM     63  CB  ALA B   1       6.414 -32.938  -8.461  1.00 41.95 LIG 0.05  C 
BRANCH 62 64
ATOM     64  N   ALA B   1       7.065 -32.564  -6.099  1.00 41.48 LIG-0.07  N 
ATOM     65 H3   ALA B   1       6.645 -32.144  -5.437  1.00 41.48 LIG 0.28  HD
ATOM     66 H2   ALA B   1       7.537 -31.976  -6.571  1.00 41.48 LIG 0.28  HD
ATOM     67 H1   ALA B   1       7.612 -33.178  -5.759  1.00 41.48 LIG 0.28  HD
ENDBRANCH 62 64
ENDBRANCH 60 62
ENDBRANCH 56 58
ENDBRANCH 53 56
ENDBRANCH 40 52
ENDBRANCH 37 40
ENDBRANCH 1 36
TORSDOF 23
ENDMDL
MODEL 46
USER: ADFR SOLUTION from run 138
USER: SCORE 23.024245 LL:  -6.758 LR: -16.874 RR:   0.000 FEB: -10.013
USER: RMSD 7.437576
USER: SEED 137
USER: STATUS 1 or 2 clusters left
USER: GENES 25
USER: genes 0 Translation |==|  0.44213 0.28990 0.77958
USER: genes 1 Rotation |==|  0.49465 0.22097 0.80565 0.78052
USER: genes 2 Torsion [N]-CA--C-[N] |==|  0.09856
USER: genes 3 Torsion [C]-N--CA-[CB] |==|  0.84365
USER: genes 4 Torsion [N]-CA--CB-[CG] |==|  0.79952
USER: genes 5 Torsion [CA]-CB--CG-[CD1] |==|  0.60265
USER: genes 6 Torsion [N]-CA--C-[N] |==|  0.38218
USER: genes 7 Torsion [C]-N--CA-[C] |==|  0.82489
USER: genes 8 Torsion [N]-CA--CB-[CG] |==|  0.48425
USER: genes 9 Torsion [CA]-CB--CG-[CD] |==|  0.31165
USER: genes 10 Torsion [CB]-CG--CD-[OE2] |==|  0.50125
USER: genes 11 Torsion [N]-CA--C-[N] |==|  0.41897
USER: genes 12 Torsion [C]-N--CA-[CB] |==|  0.33278
USER: genes 13 Torsion [N]-CA--C-[O] |==|  0.87955
USER: genes 14 Torsion [C]-CA--CB-[CG] |==|  0.42259
USER: genes 15 Torsion [CA]-CB--CG-[CD1] |==|  0.11054
USER: genes 16 Torsion [C]-CA--N-[C] |==|  0.18333
USER: genes 17 Torsion [N]-C--CA-[N] |==|  0.18230
USER: genes 18 Torsion [C]-CA--CB-[CG] |==|  0.69363
USER: genes 19 Torsion [CA]-CB--CG-[CD1] |==|  0.74808
USER: genes 20 Torsion [C]-CA--N-[C] |==|  0.76425
USER: genes 21 Torsion [N]-C--CA-[N] |==|  0.04398
USER: genes 22 Torsion [C]-CA--N-[C] |==|  0.74847
USER: genes 23 Torsion [N]-C--CA-[N] |==|  0.78461
USER: genes 24 Torsion [C]-CA--N-[H3] |==|  0.08736
ROOT
ATOM      1  CA  LEU B   4       1.816 -39.353  -3.559  1.00 25.55 LIG 0.18  C 
ENDROOT
BRANCH 1 2
ATOM      2  C   LEU B   4       2.692 -38.907  -4.734  1.00 26.13 LIG 0.24  C 
ATOM      3 O    LEU B   4       3.106 -39.751  -5.510  1.00 25.31 LIG-0.27  OA
ATOM      4  N   PHE B   5       2.950 -37.595  -4.852  1.00 26.68 LIG-0.35  N 
ATOM      5 H    PHE B   5       2.742 -37.006  -4.260  1.00 26.68 LIG 0.16  HD
BRANCH 4 6
ATOM      6  CA  PHE B   5       3.628 -37.056  -6.039  1.00 28.54 LIG 0.18  C 
BRANCH 6 7
ATOM      7  CB  PHE B   5       4.992 -37.738  -6.281  1.00 28.61 LIG 0.07  C 
BRANCH 7 8
ATOM      8  CG  PHE B   5       6.060 -37.364  -5.317  1.00 26.86 LIG-0.06  A 
ATOM      9  CD1 PHE B   5       7.367 -37.218  -5.721  1.00 26.13 LIG 0.01  A 
ATOM     10  CE1 PHE B   5       8.359 -36.856  -4.812  1.00 23.59 LIG 0.00  A 
ATOM     11  CZ  PHE B   5       8.032 -36.611  -3.456  1.00 25.19 LIG 0.00  A 
ATOM     12  CE2 PHE B   5       6.731 -36.800  -3.044  1.00 26.30 LIG 0.00  A 
ATOM     13  CD2 PHE B   5       5.750 -37.149  -3.973  1.00 27.99 LIG 0.01  A 
ENDBRANCH 7 8
ENDBRANCH 6 7
BRANCH 6 14
ATOM     14  C   PHE B   5       2.795 -37.185  -7.317  1.00 31.71 LIG 0.24  C 
ATOM     15  N   GLU B   6       2.786 -36.132  -8.139  1.00 34.73 LIG-0.35  N 
ATOM     16 H    GLU B   6       2.923 -35.326  -7.872  1.00 34.73 LIG 0.16  HD
ATOM     17 O    PHE B   5       2.125 -38.205  -7.502  1.00 30.66 LIG-0.27  OA
BRANCH 15 18
ATOM     18  CA  GLU B   6       2.537 -36.242  -9.606  1.00 38.89 LIG 0.18  C 
BRANCH 18 19
ATOM     19  CB  GLU B   6       2.425 -34.875 -10.292  1.00 39.10 LIG 0.04  C 
BRANCH 19 20
ATOM     20  CG  GLU B   6       2.306 -34.973 -11.837  1.00 43.96 LIG 0.12  C 
BRANCH 20 21
ATOM     21  CD  GLU B   6       0.947 -34.543 -12.409  1.00 49.39 LIG 0.17  C 
ATOM     22 OE1  GLU B   6       0.027 -34.185 -11.645  1.00 53.88 LIG-0.65  OA
ATOM     23 OE2  GLU B   6       0.772 -34.604 -13.655  1.00 56.34 LIG-0.65  OA
ENDBRANCH 20 21
ENDBRANCH 19 20
ENDBRANCH 18 19
BRANCH 18 24
ATOM     24  C   GLU B   6       3.680 -37.094 -10.241  1.00 41.03 LIG 0.24  C 
ATOM     25 O    GLU B   6       4.828 -37.153  -9.724  1.00 40.13 LIG-0.27  OA
ATOM     26  N   ALA B   7       3.325 -37.781 -11.335  1.00 43.76 LIG-0.35  N 
ATOM     27 H    ALA B   7       2.556 -37.687 -11.708  1.00 43.76 LIG 0.16  HD
BRANCH 26 28
ATOM     28  CA  ALA B   7       4.199 -38.782 -12.041  1.00 45.80 LIG 0.16  C 
ATOM     29  CB  ALA B   7       3.516 -40.194 -12.051  1.00 46.43 LIG 0.04  C 
BRANCH 28 30
ATOM     30  C   ALA B   7       4.514 -38.392 -13.477  1.00 46.67 LIG 0.22  C 
ATOM     31 O    ALA B   7       3.613 -37.943 -14.207  1.00 48.32 LIG-0.29  OA
ENDBRANCH 28 30
ENDBRANCH 26 28
ENDBRANCH 18 24
ENDBRANCH 15 18
ENDBRANCH 6 14
ENDBRANCH 4 6
ENDBRANCH 1 2
BRANCH 1 32
ATOM     32  CB  LEU B   4       1.265 -40.729  -3.874  1.00 24.11 LIG 0.04  C 
BRANCH 32 33
ATOM     33  CG  LEU B   4       0.961 -41.585  -2.623  1.00 25.40 LIG-0.02  C 
ATOM     34  CD2 LEU B   4       0.098 -42.741  -3.078  1.00 26.98 LIG 0.01  C 
ATOM     35  CD1 LEU B   4       0.328 -40.843  -1.413  1.00 25.06 LIG 0.01  C 
ENDBRANCH 32 33
ENDBRANCH 1 32
BRANCH 1 36
ATOM     36  N   LEU B   4       0.766 -38.412  -3.224  1.00 24.30 LIG-0.35  N 
ATOM     37  C   TRP B   3      -0.235 -38.161  -4.064  1.00 25.24 LIG 0.24  C 
ATOM     38 O    TRP B   3      -0.354 -38.727  -5.138  1.00 25.23 LIG-0.27  OA
ATOM     39 H    LEU B   4       0.852 -38.042  -2.453  1.00 24.30 LIG 0.16  HD
BRANCH 37 40
ATOM     40  CA  TRP B   3      -1.245 -37.075  -3.640  1.00 26.39 LIG 0.18  C 
BRANCH 40 41
ATOM     41  CB  TRP B   3      -2.432 -37.072  -4.604  1.00 26.78 LIG 0.07  C 
BRANCH 41 42
ATOM     42  CG  TRP B   3      -2.433 -35.897  -5.412  1.00 25.50 LIG-0.03  A 
ATOM     43  CD1 TRP B   3      -3.048 -34.722  -5.132  1.00 28.00 LIG 0.10  A 
ATOM     44  NE1 TRP B   3      -2.855 -33.839  -6.149  1.00 26.39 LIG-0.36  N 
ATOM     45 HE1  TRP B   3      -3.158 -33.034  -6.177  1.00 26.39 LIG 0.17  HD
ATOM     46  CE2 TRP B   3      -2.103 -34.433  -7.117  1.00 23.90 LIG 0.04  A 
ATOM     47  CZ2 TRP B   3      -1.661 -33.929  -8.342  1.00 23.10 LIG 0.03  A 
ATOM     48  CD2 TRP B   3      -1.814 -35.734  -6.676  1.00 23.76 LIG-0.00  A 
ATOM     49  CH2 TRP B   3      -0.900 -34.736  -9.119  1.00 22.34 LIG 0.00  A 
ATOM     50  CZ3 TRP B   3      -0.598 -36.051  -8.725  1.00 25.34 LIG 0.00  A 
ATOM     51  CE3 TRP B   3      -1.067 -36.564  -7.489  1.00 25.10 LIG 0.01  A 
ENDBRANCH 41 42
ENDBRANCH 40 41
BRANCH 40 52
ATOM     52  N   TRP B   3      -0.580 -35.766  -3.595  1.00 27.54 LIG-0.35  N 
ATOM     53  C   ALA B   2       0.075 -35.428  -2.479  1.00 31.13 LIG 0.24  C 
ATOM     54 O    ALA B   2       0.108 -36.180  -1.511  1.00 30.30 LIG-0.27  OA
ATOM     55 H    TRP B   3      -0.652 -35.282  -4.302  1.00 27.54 LIG 0.16  HD
BRANCH 53 56
ATOM     56  CA  ALA B   2       0.797 -34.072  -2.439  1.00 33.66 LIG 0.17  C 
ATOM     57  CB  ALA B   2       0.624 -33.371  -1.068  1.00 33.40 LIG 0.04  C 
BRANCH 56 58
ATOM     58  N   ALA B   2       0.390 -33.139  -3.496  1.00 35.64 LIG-0.35  N 
ATOM     59 H    ALA B   2      -0.273 -32.629  -3.294  1.00 35.64 LIG 0.16  HD
ATOM     60  C   ALA B   1       1.030 -33.119  -4.662  1.00 39.08 LIG 0.25  C 
ATOM     61 O    ALA B   1       1.689 -34.064  -5.039  1.00 40.54 LIG-0.27  OA
BRANCH 60 62
ATOM     62  CA  ALA B   1       0.875 -31.883  -5.583  1.00 41.05 LIG 0.27  C 
ATOM     63  CB  ALA B   1       1.025 -30.573  -4.776  1.00 41.95 LIG 0.05  C 
BRANCH 62 64
ATOM     64  N   ALA B   1      -0.420 -31.874  -6.314  1.00 41.48 LIG-0.07  N 
ATOM     65 H3   ALA B   1      -1.045 -32.267  -5.816  1.00 41.48 LIG 0.28  HD
ATOM     66 H2   ALA B   1      -0.331 -32.316  -7.081  1.00 41.48 LIG 0.28  HD
ATOM     67 H1   ALA B   1      -0.661 -31.034  -6.481  1.00 41.48 LIG 0.28  HD
ENDBRANCH 62 64
ENDBRANCH 60 62
ENDBRANCH 56 58
ENDBRANCH 53 56
ENDBRANCH 40 52
ENDBRANCH 37 40
ENDBRANCH 1 36
TORSDOF 23
ENDMDL
MODEL 47
USER: ADFR SOLUTION from run 170
USER: SCORE 21.356523 LL:  -6.349 LR: -16.845 RR:   0.000 FEB:  -9.984
USER: RMSD 6.134168
USER: SEED 169
USER: STATUS searching
USER: GENES 25
USER: genes 0 Translation |==|  0.32954 0.45251 0.56015
USER: genes 1 Rotation |==|  0.67279 0.40133 0.44206 0.95503
USER: genes 2 Torsion [N]-CA--C-[N] |==|  0.17542
USER: genes 3 Torsion [C]-N--CA-[CB] |==|  0.49707
USER: genes 4 Torsion [N]-CA--CB-[CG] |==|  0.14654
USER: genes 5 Torsion [CA]-CB--CG-[CD1] |==|  0.26717
USER: genes 6 Torsion [N]-CA--C-[N] |==|  0.37374
USER: genes 7 Torsion [C]-N--CA-[C] |==|  0.88889
USER: genes 8 Torsion [N]-CA--CB-[CG] |==|  0.87304
USER: genes 9 Torsion [CA]-CB--CG-[CD] |==|  0.79523
USER: genes 10 Torsion [CB]-CG--CD-[OE2] |==|  0.13768
USER: genes 11 Torsion [N]-CA--C-[N] |==|  0.35326
USER: genes 12 Torsion [C]-N--CA-[CB] |==|  0.25908
USER: genes 13 Torsion [N]-CA--C-[O] |==|  0.11666
USER: genes 14 Torsion [C]-CA--CB-[CG] |==|  0.49271
USER: genes 15 Torsion [CA]-CB--CG-[CD1] |==|  0.25928
USER: genes 16 Torsion [C]-CA--N-[C] |==|  0.69099
USER: genes 17 Torsion [N]-C--CA-[N] |==|  0.04430
USER: genes 18 Torsion [C]-CA--CB-[CG] |==|  0.80223
USER: genes 19 Torsion [CA]-CB--CG-[CD1] |==|  0.15780
USER: genes 20 Torsion [C]-CA--N-[C] |==|  0.73767
USER: genes 21 Torsion [N]-C--CA-[N] |==|  0.90451
USER: genes 22 Torsion [C]-CA--N-[C] |==|  0.81214
USER: genes 23 Torsion [N]-C--CA-[N] |==|  0.17241
USER: genes 24 Torsion [C]-CA--N-[H3] |==|  0.70017
ROOT
ATOM      1  CA  LEU B   4      -0.380 -35.938  -8.497  1.00 25.55 LIG 0.18  C 
ENDROOT
BRANCH 1 2
ATOM      2  C   LEU B   4      -0.439 -34.676  -9.363  1.00 26.13 LIG 0.24  C 
ATOM      3 O    LEU B   4      -1.405 -33.939  -9.260  1.00 25.31 LIG-0.27  OA
ATOM      4  N   PHE B   5       0.592 -34.443 -10.190  1.00 26.68 LIG-0.35  N 
ATOM      5 H    PHE B   5       1.229 -35.002 -10.338  1.00 26.68 LIG 0.16  HD
BRANCH 4 6
ATOM      6  CA  PHE B   5       0.707 -33.175 -10.924  1.00 28.54 LIG 0.18  C 
BRANCH 6 7
ATOM      7  CB  PHE B   5       1.985 -33.126 -11.791  1.00 28.61 LIG 0.07  C 
BRANCH 7 8
ATOM      8  CG  PHE B   5       2.164 -34.281 -12.709  1.00 26.86 LIG-0.06  A 
ATOM      9  CD1 PHE B   5       1.771 -34.212 -14.026  1.00 26.13 LIG 0.01  A 
ATOM     10  CE1 PHE B   5       1.954 -35.296 -14.882  1.00 23.59 LIG 0.00  A 
ATOM     11  CZ  PHE B   5       2.569 -36.483 -14.414  1.00 25.19 LIG 0.00  A 
ATOM     12  CE2 PHE B   5       2.922 -36.565 -13.085  1.00 26.30 LIG 0.00  A 
ATOM     13  CD2 PHE B   5       2.744 -35.463 -12.247  1.00 27.99 LIG 0.01  A 
ENDBRANCH 7 8
ENDBRANCH 6 7
BRANCH 6 14
ATOM     14  C   PHE B   5      -0.495 -32.893 -11.829  1.00 31.71 LIG 0.24  C 
ATOM     15  N   GLU B   6      -1.003 -31.658 -11.788  1.00 34.73 LIG-0.35  N 
ATOM     16 H    GLU B   6      -0.932 -31.143 -11.103  1.00 34.73 LIG 0.16  HD
ATOM     17 O    PHE B   5      -0.982 -33.812 -12.493  1.00 30.66 LIG-0.27  OA
BRANCH 15 18
ATOM     18  CA  GLU B   6      -1.746 -31.042 -12.925  1.00 38.89 LIG 0.18  C 
BRANCH 18 19
ATOM     19  CB  GLU B   6      -1.868 -29.518 -12.798  1.00 39.10 LIG 0.04  C 
BRANCH 19 20
ATOM     20  CG  GLU B   6      -2.289 -29.054 -11.378  1.00 43.96 LIG 0.12  C 
BRANCH 20 21
ATOM     21  CD  GLU B   6      -3.763 -29.306 -11.026  1.00 49.39 LIG 0.17  C 
ATOM     22 OE1  GLU B   6      -4.452 -28.401 -10.512  1.00 53.88 LIG-0.65  OA
ATOM     23 OE2  GLU B   6      -4.242 -30.454 -11.229  1.00 56.34 LIG-0.65  OA
ENDBRANCH 20 21
ENDBRANCH 19 20
ENDBRANCH 18 19
BRANCH 18 24
ATOM     24  C   GLU B   6      -1.032 -31.435 -14.257  1.00 41.03 LIG 0.24  C 
ATOM     25 O    GLU B   6       0.209 -31.280 -14.413  1.00 40.13 LIG-0.27  OA
ATOM     26  N   ALA B   7      -1.833 -31.984 -15.180  1.00 43.76 LIG-0.35  N 
ATOM     27 H    ALA B   7      -2.686 -32.031 -15.081  1.00 43.76 LIG 0.16  HD
BRANCH 26 28
ATOM     28  CA  ALA B   7      -1.362 -32.577 -16.480  1.00 45.80 LIG 0.16  C 
ATOM     29  CB  ALA B   7      -1.122 -34.119 -16.324  1.00 46.43 LIG 0.04  C 
BRANCH 28 30
ATOM     30  C   ALA B   7      -2.339 -32.357 -17.625  1.00 46.67 LIG 0.22  C 
ATOM     31 O    ALA B   7      -2.896 -31.254 -17.757  1.00 48.32 LIG-0.29  OA
ENDBRANCH 28 30
ENDBRANCH 26 28
ENDBRANCH 18 24
ENDBRANCH 15 18
ENDBRANCH 6 14
ENDBRANCH 4 6
ENDBRANCH 1 2
BRANCH 1 32
ATOM     32  CB  LEU B   4      -1.719 -36.105  -7.808  1.00 24.11 LIG 0.04  C 
BRANCH 32 33
ATOM     33  CG  LEU B   4      -1.827 -37.383  -6.944  1.00 25.40 LIG-0.02  C 
ATOM     34  CD2 LEU B   4      -3.225 -37.927  -7.135  1.00 26.98 LIG 0.01  C 
ATOM     35  CD1 LEU B   4      -1.475 -37.232  -5.438  1.00 25.06 LIG 0.01  C 
ENDBRANCH 32 33
ENDBRANCH 1 32
BRANCH 1 36
ATOM     36  N   LEU B   4       0.720 -35.947  -7.554  1.00 24.30 LIG-0.35  N 
ATOM     37  C   TRP B   3       1.743 -36.787  -7.688  1.00 25.24 LIG 0.24  C 
ATOM     38 O    TRP B   3       1.838 -37.568  -8.621  1.00 25.23 LIG-0.27  OA
ATOM     39 H    LEU B   4       0.649 -35.373  -6.917  1.00 24.30 LIG 0.16  HD
BRANCH 37 40
ATOM     40  CA  TRP B   3       2.811 -36.769  -6.576  1.00 26.39 LIG 0.18  C 
BRANCH 40 41
ATOM     41  CB  TRP B   3       3.243 -38.201  -6.254  1.00 26.78 LIG 0.07  C 
BRANCH 41 42
ATOM     42  CG  TRP B   3       2.207 -38.906  -5.571  1.00 25.50 LIG-0.03  A 
ATOM     43  CD1 TRP B   3       0.939 -39.103  -6.005  1.00 28.00 LIG 0.10  A 
ATOM     44  NE1 TRP B   3       0.227 -39.794  -5.073  1.00 26.39 LIG-0.36  N 
ATOM     45 HE1  TRP B   3      -0.598 -40.026  -5.146  1.00 26.39 LIG 0.17  HD
ATOM     46  CE2 TRP B   3       1.032 -40.059  -4.007  1.00 23.90 LIG 0.04  A 
ATOM     47  CZ2 TRP B   3       0.745 -40.728  -2.815  1.00 23.10 LIG 0.03  A 
ATOM     48  CD2 TRP B   3       2.294 -39.516  -4.295  1.00 23.76 LIG-0.00  A 
ATOM     49  CH2 TRP B   3       1.748 -40.873  -1.916  1.00 22.34 LIG 0.00  A 
ATOM     50  CZ3 TRP B   3       3.024 -40.333  -2.155  1.00 25.34 LIG 0.00  A 
ATOM     51  CE3 TRP B   3       3.302 -39.637  -3.359  1.00 25.10 LIG 0.01  A 
ENDBRANCH 41 42
ENDBRANCH 40 41
BRANCH 40 52
ATOM     52  N   TRP B   3       2.286 -36.082  -5.390  1.00 27.54 LIG-0.35  N 
ATOM     53  C   ALA B   2       2.549 -34.778  -5.247  1.00 31.13 LIG 0.24  C 
ATOM     54 O    ALA B   2       3.225 -34.174  -6.072  1.00 30.30 LIG-0.27  OA
ATOM     55 H    TRP B   3       1.830 -36.565  -4.844  1.00 27.54 LIG 0.16  HD
BRANCH 53 56
ATOM     56  CA  ALA B   2       1.975 -34.048  -4.023  1.00 33.66 LIG 0.17  C 
ATOM     57  CB  ALA B   2       2.941 -34.112  -2.813  1.00 33.40 LIG 0.04  C 
BRANCH 56 58
ATOM     58  N   ALA B   2       0.657 -34.531  -3.593  1.00 35.64 LIG-0.35  N 
ATOM     59 H    ALA B   2       0.648 -34.931  -2.832  1.00 35.64 LIG 0.16  HD
ATOM     60  C   ALA B   1      -0.413 -34.339  -4.361  1.00 39.08 LIG 0.25  C 
ATOM     61 O    ALA B   1      -0.311 -34.115  -5.547  1.00 40.54 LIG-0.27  OA
BRANCH 60 62
ATOM     62  CA  ALA B   1      -1.822 -34.470  -3.729  1.00 41.05 LIG 0.27  C 
ATOM     63  CB  ALA B   1      -2.923 -34.342  -4.806  1.00 41.95 LIG 0.05  C 
BRANCH 62 64
ATOM     64  N   ALA B   1      -2.060 -33.472  -2.652  1.00 41.48 LIG-0.07  N 
ATOM     65 H3   ALA B   1      -2.055 -33.881  -1.862  1.00 41.48 LIG 0.28  HD
ATOM     66 H2   ALA B   1      -2.849 -33.081  -2.779  1.00 41.48 LIG 0.28  HD
ATOM     67 H1   ALA B   1      -1.418 -32.857  -2.670  1.00 41.48 LIG 0.28  HD
ENDBRANCH 62 64
ENDBRANCH 60 62
ENDBRANCH 56 58
ENDBRANCH 53 56
ENDBRANCH 40 52
ENDBRANCH 37 40
ENDBRANCH 1 36
TORSDOF 23
ENDMDL
MODEL 48
USER: ADFR SOLUTION from run 135
USER: SCORE 21.410235 LL:  -5.418 LR: -16.772 RR:   0.000 FEB:  -9.911
USER: RMSD 8.228296
USER: SEED 134
USER: STATUS no improvement in best in 7 clusters for 5 generations
USER: GENES 25
USER: genes 0 Translation |==|  0.46061 0.31604 0.79844
USER: genes 1 Rotation |==|  0.42454 0.14547 0.69419 0.78443
USER: genes 2 Torsion [N]-CA--C-[N] |==|  0.10080
USER: genes 3 Torsion [C]-N--CA-[CB] |==|  0.76103
USER: genes 4 Torsion [N]-CA--CB-[CG] |==|  0.09657
USER: genes 5 Torsion [CA]-CB--CG-[CD1] |==|  0.78614
USER: genes 6 Torsion [N]-CA--C-[N] |==|  0.23679
USER: genes 7 Torsion [C]-N--CA-[C] |==|  0.80561
USER: genes 8 Torsion [N]-CA--CB-[CG] |==|  0.79434
USER: genes 9 Torsion [CA]-CB--CG-[CD] |==|  0.96448
USER: genes 10 Torsion [CB]-CG--CD-[OE2] |==|  0.35149
USER: genes 11 Torsion [N]-CA--C-[N] |==|  0.93650
USER: genes 12 Torsion [C]-N--CA-[CB] |==|  0.27688
USER: genes 13 Torsion [N]-CA--C-[O] |==|  0.54697
USER: genes 14 Torsion [C]-CA--CB-[CG] |==|  0.36939
USER: genes 15 Torsion [CA]-CB--CG-[CD1] |==|  0.25327
USER: genes 16 Torsion [C]-CA--N-[C] |==|  0.15199
USER: genes 17 Torsion [N]-C--CA-[N] |==|  0.08333
USER: genes 18 Torsion [C]-CA--CB-[CG] |==|  0.18835
USER: genes 19 Torsion [CA]-CB--CG-[CD1] |==|  0.56955
USER: genes 20 Torsion [C]-CA--N-[C] |==|  0.65258
USER: genes 21 Torsion [N]-C--CA-[N] |==|  0.07991
USER: genes 22 Torsion [C]-CA--N-[C] |==|  0.14573
USER: genes 23 Torsion [N]-C--CA-[N] |==|  0.03187
USER: genes 24 Torsion [C]-CA--N-[H3] |==|  0.60477
ROOT
ATOM      1  CA  LEU B   4       2.176 -38.804  -3.135  1.00 25.55 LIG 0.18  C 
ENDROOT
BRANCH 1 2
ATOM      2  C   LEU B   4       3.527 -38.571  -3.818  1.00 26.13 LIG 0.24  C 
ATOM      3 O    LEU B   4       3.877 -39.334  -4.702  1.00 25.31 LIG-0.27  OA
ATOM      4  N   PHE B   5       4.256 -37.521  -3.408  1.00 26.68 LIG-0.35  N 
ATOM      5 H    PHE B   5       4.063 -37.036  -2.724  1.00 26.68 LIG 0.16  HD
BRANCH 4 6
ATOM      6  CA  PHE B   5       5.476 -37.116  -4.121  1.00 28.54 LIG 0.18  C 
BRANCH 6 7
ATOM      7  CB  PHE B   5       6.715 -37.897  -3.631  1.00 28.61 LIG 0.07  C 
BRANCH 7 8
ATOM      8  CG  PHE B   5       6.454 -39.308  -3.243  1.00 26.86 LIG-0.06  A 
ATOM      9  CD1 PHE B   5       5.859 -39.618  -2.042  1.00 26.13 LIG 0.01  A 
ATOM     10  CE1 PHE B   5       5.608 -40.942  -1.691  1.00 23.59 LIG 0.00  A 
ATOM     11  CZ  PHE B   5       5.943 -41.994  -2.579  1.00 25.19 LIG 0.00  A 
ATOM     12  CE2 PHE B   5       6.578 -41.684  -3.762  1.00 26.30 LIG 0.00  A 
ATOM     13  CD2 PHE B   5       6.808 -40.350  -4.101  1.00 27.99 LIG 0.01  A 
ENDBRANCH 7 8
ENDBRANCH 6 7
BRANCH 6 14
ATOM     14  C   PHE B   5       5.370 -37.290  -5.638  1.00 31.71 LIG 0.24  C 
ATOM     15  N   GLU B   6       4.811 -36.287  -6.322  1.00 34.73 LIG-0.35  N 
ATOM     16 H    GLU B   6       4.244 -35.741  -5.976  1.00 34.73 LIG 0.16  HD
ATOM     17 O    PHE B   5       5.732 -38.352  -6.153  1.00 30.66 LIG-0.27  OA
BRANCH 15 18
ATOM     18  CA  GLU B   6       5.112 -36.008  -7.756  1.00 38.89 LIG 0.18  C 
BRANCH 18 19
ATOM     19  CB  GLU B   6       4.117 -35.028  -8.391  1.00 39.10 LIG 0.04  C 
BRANCH 19 20
ATOM     20  CG  GLU B   6       2.729 -35.662  -8.675  1.00 43.96 LIG 0.12  C 
BRANCH 20 21
ATOM     21  CD  GLU B   6       2.685 -37.194  -8.569  1.00 49.39 LIG 0.17  C 
ATOM     22 OE1  GLU B   6       3.463 -37.895  -9.247  1.00 53.88 LIG-0.65  OA
ATOM     23 OE2  GLU B   6       1.820 -37.721  -7.820  1.00 56.34 LIG-0.65  OA
ENDBRANCH 20 21
ENDBRANCH 19 20
ENDBRANCH 18 19
BRANCH 18 24
ATOM     24  C   GLU B   6       6.572 -35.468  -7.862  1.00 41.03 LIG 0.24  C 
ATOM     25 O    GLU B   6       7.217 -35.512  -8.945  1.00 40.13 LIG-0.27  OA
ATOM     26  N   ALA B   7       7.052 -34.923  -6.737  1.00 43.76 LIG-0.35  N 
ATOM     27 H    ALA B   7       6.622 -34.952  -5.992  1.00 43.76 LIG 0.16  HD
BRANCH 26 28
ATOM     28  CA  ALA B   7       8.370 -34.207  -6.624  1.00 45.80 LIG 0.16  C 
ATOM     29  CB  ALA B   7       8.155 -32.654  -6.671  1.00 46.43 LIG 0.04  C 
BRANCH 28 30
ATOM     30  C   ALA B   7       9.128 -34.548  -5.350  1.00 46.67 LIG 0.22  C 
ATOM     31 O    ALA B   7      10.057 -33.816  -4.970  1.00 48.32 LIG-0.29  OA
ENDBRANCH 28 30
ENDBRANCH 26 28
ENDBRANCH 18 24
ENDBRANCH 15 18
ENDBRANCH 6 14
ENDBRANCH 4 6
ENDBRANCH 1 2
BRANCH 1 32
ATOM     32  CB  LEU B   4       1.344 -39.707  -4.023  1.00 24.11 LIG 0.04  C 
BRANCH 32 33
ATOM     33  CG  LEU B   4       0.666 -40.876  -3.273  1.00 25.40 LIG-0.02  C 
ATOM     34  CD2 LEU B   4       0.694 -42.070  -4.199  1.00 26.98 LIG 0.01  C 
ATOM     35  CD1 LEU B   4      -0.765 -40.610  -2.727  1.00 25.06 LIG 0.01  C 
ENDBRANCH 32 33
ENDBRANCH 1 32
BRANCH 1 36
ATOM     36  N   LEU B   4       1.476 -37.582  -2.795  1.00 24.30 LIG-0.35  N 
ATOM     37  C   TRP B   3       1.216 -36.653  -3.712  1.00 25.24 LIG 0.24  C 
ATOM     38 O    TRP B   3       1.514 -36.785  -4.888  1.00 25.23 LIG-0.27  OA
ATOM     39 H    LEU B   4       1.252 -37.517  -1.968  1.00 24.30 LIG 0.16  HD
BRANCH 37 40
ATOM     40  CA  TRP B   3       0.547 -35.354  -3.219  1.00 26.39 LIG 0.18  C 
BRANCH 40 41
ATOM     41  CB  TRP B   3       0.913 -34.200  -4.154  1.00 26.78 LIG 0.07  C 
BRANCH 41 42
ATOM     42  CG  TRP B   3       0.319 -34.376  -5.440  1.00 25.50 LIG-0.03  A 
ATOM     43  CD1 TRP B   3       0.763 -33.865  -6.614  1.00 28.00 LIG 0.10  A 
ATOM     44  NE1 TRP B   3      -0.076 -34.219  -7.625  1.00 26.39 LIG-0.36  N 
ATOM     45 HE1  TRP B   3       0.019 -34.001  -8.452  1.00 26.39 LIG 0.17  HD
ATOM     46  CE2 TRP B   3      -1.090 -34.973  -7.118  1.00 23.90 LIG 0.04  A 
ATOM     47  CZ2 TRP B   3      -2.184 -35.551  -7.765  1.00 23.10 LIG 0.03  A 
ATOM     48  CD2 TRP B   3      -0.864 -35.098  -5.738  1.00 23.76 LIG-0.00  A 
ATOM     49  CH2 TRP B   3      -3.047 -36.280  -7.017  1.00 22.34 LIG 0.00  A 
ATOM     50  CZ3 TRP B   3      -2.869 -36.418  -5.629  1.00 25.34 LIG 0.00  A 
ATOM     51  CE3 TRP B   3      -1.766 -35.813  -4.976  1.00 25.10 LIG 0.01  A 
ENDBRANCH 41 42
ENDBRANCH 40 41
BRANCH 40 52
ATOM     52  N   TRP B   3       0.951 -35.079  -1.835  1.00 27.54 LIG-0.35  N 
ATOM     53  C   ALA B   2      -0.009 -34.909  -0.919  1.00 31.13 LIG 0.24  C 
ATOM     54 O    ALA B   2      -1.194 -34.965  -1.225  1.00 30.30 LIG-0.27  OA
ATOM     55 H    TRP B   3       1.798 -35.041  -1.688  1.00 27.54 LIG 0.16  HD
BRANCH 53 56
ATOM     56  CA  ALA B   2       0.410 -34.652   0.538  1.00 33.66 LIG 0.17  C 
ATOM     57  CB  ALA B   2      -0.659 -33.833   1.304  1.00 33.40 LIG 0.04  C 
BRANCH 56 58
ATOM     58  N   ALA B   2       1.706 -33.979   0.684  1.00 35.64 LIG-0.35  N 
ATOM     59 H    ALA B   2       2.262 -34.374   1.209  1.00 35.64 LIG 0.16  HD
ATOM     60  C   ALA B   1       1.955 -32.846   0.033  1.00 39.08 LIG 0.25  C 
ATOM     61 O    ALA B   1       1.059 -32.146  -0.386  1.00 40.54 LIG-0.27  OA
BRANCH 60 62
ATOM     62  CA  ALA B   1       3.425 -32.384  -0.135  1.00 41.05 LIG 0.27  C 
ATOM     63  CB  ALA B   1       3.693 -31.920  -1.585  1.00 41.95 LIG 0.05  C 
BRANCH 62 64
ATOM     64  N   ALA B   1       4.402 -33.441   0.240  1.00 41.48 LIG-0.07  N 
ATOM     65 H3   ALA B   1       5.098 -33.069   0.650  1.00 41.48 LIG 0.28  HD
ATOM     66 H2   ALA B   1       4.680 -33.862  -0.494  1.00 41.48 LIG 0.28  HD
ATOM     67 H1   ALA B   1       4.013 -34.024   0.787  1.00 41.48 LIG 0.28  HD
ENDBRANCH 62 64
ENDBRANCH 60 62
ENDBRANCH 56 58
ENDBRANCH 53 56
ENDBRANCH 40 52
ENDBRANCH 37 40
ENDBRANCH 1 36
TORSDOF 23
ENDMDL
MODEL 49
USER: ADFR SOLUTION from run 73
USER: SCORE 22.923097 LL:  -7.028 LR: -16.755 RR:   0.000 FEB:  -9.895
USER: RMSD 7.345836
USER: SEED 72
USER: STATUS no improvement in best in 3 clusters for 5 generations
USER: GENES 25
USER: genes 0 Translation |==|  0.40262 0.38037 0.62149
USER: genes 1 Rotation |==|  0.61008 0.22675 0.28583 0.84256
USER: genes 2 Torsion [N]-CA--C-[N] |==|  0.36838
USER: genes 3 Torsion [C]-N--CA-[CB] |==|  0.15557
USER: genes 4 Torsion [N]-CA--CB-[CG] |==|  0.62536
USER: genes 5 Torsion [CA]-CB--CG-[CD1] |==|  0.11894
USER: genes 6 Torsion [N]-CA--C-[N] |==|  0.06778
USER: genes 7 Torsion [C]-N--CA-[C] |==|  0.15786
USER: genes 8 Torsion [N]-CA--CB-[CG] |==|  0.74231
USER: genes 9 Torsion [CA]-CB--CG-[CD] |==|  0.20597
USER: genes 10 Torsion [CB]-CG--CD-[OE2] |==|  0.60292
USER: genes 11 Torsion [N]-CA--C-[N] |==|  0.09592
USER: genes 12 Torsion [C]-N--CA-[CB] |==|  0.14753
USER: genes 13 Torsion [N]-CA--C-[O] |==|  0.07186
USER: genes 14 Torsion [C]-CA--CB-[CG] |==|  0.23173
USER: genes 15 Torsion [CA]-CB--CG-[CD1] |==|  0.28994
USER: genes 16 Torsion [C]-CA--N-[C] |==|  0.64815
USER: genes 17 Torsion [N]-C--CA-[N] |==|  0.88295
USER: genes 18 Torsion [C]-CA--CB-[CG] |==|  0.84181
USER: genes 19 Torsion [CA]-CB--CG-[CD1] |==|  0.78670
USER: genes 20 Torsion [C]-CA--N-[C] |==|  0.75963
USER: genes 21 Torsion [N]-C--CA-[N] |==|  0.86774
USER: genes 22 Torsion [C]-CA--N-[C] |==|  0.78202
USER: genes 23 Torsion [N]-C--CA-[N] |==|  0.85299
USER: genes 24 Torsion [C]-CA--N-[H3] |==|  0.83372
ROOT
ATOM      1  CA  LEU B   4       1.045 -37.453  -7.116  1.00 25.55 LIG 0.18  C 
ENDROOT
BRANCH 1 2
ATOM      2  C   LEU B   4       2.357 -36.882  -7.665  1.00 26.13 LIG 0.24  C 
ATOM      3 O    LEU B   4       3.054 -36.205  -6.929  1.00 25.31 LIG-0.27  OA
ATOM      4  N   PHE B   5       2.674 -37.170  -8.937  1.00 26.68 LIG-0.35  N 
ATOM      5 H    PHE B   5       2.146 -37.565  -9.490  1.00 26.68 LIG 0.16  HD
BRANCH 4 6
ATOM      6  CA  PHE B   5       3.989 -36.817  -9.492  1.00 28.54 LIG 0.18  C 
BRANCH 6 7
ATOM      7  CB  PHE B   5       5.143 -37.416  -8.659  1.00 28.61 LIG 0.07  C 
BRANCH 7 8
ATOM      8  CG  PHE B   5       6.261 -36.479  -8.371  1.00 26.86 LIG-0.06  A 
ATOM      9  CD1 PHE B   5       6.022 -35.177  -7.996  1.00 26.13 LIG 0.01  A 
ATOM     10  CE1 PHE B   5       7.076 -34.310  -7.717  1.00 23.59 LIG 0.00  A 
ATOM     11  CZ  PHE B   5       8.416 -34.763  -7.796  1.00 25.19 LIG 0.00  A 
ATOM     12  CE2 PHE B   5       8.654 -36.054  -8.214  1.00 26.30 LIG 0.00  A 
ATOM     13  CD2 PHE B   5       7.585 -36.911  -8.474  1.00 27.99 LIG 0.01  A 
ENDBRANCH 7 8
ENDBRANCH 6 7
BRANCH 6 14
ATOM     14  C   PHE B   5       4.166 -37.262 -10.945  1.00 31.71 LIG 0.24  C 
ATOM     15  N   GLU B   6       3.052 -37.424 -11.666  1.00 34.73 LIG-0.35  N 
ATOM     16 H    GLU B   6       2.289 -37.612 -11.316  1.00 34.73 LIG 0.16  HD
ATOM     17 O    PHE B   5       5.298 -37.516 -11.368  1.00 30.66 LIG-0.27  OA
BRANCH 15 18
ATOM     18  CA  GLU B   6       3.014 -37.294 -13.151  1.00 38.89 LIG 0.18  C 
BRANCH 18 19
ATOM     19  CB  GLU B   6       3.290 -35.863 -13.629  1.00 39.10 LIG 0.04  C 
BRANCH 19 20
ATOM     20  CG  GLU B   6       2.000 -35.022 -13.824  1.00 43.96 LIG 0.12  C 
BRANCH 20 21
ATOM     21  CD  GLU B   6       1.328 -34.559 -12.522  1.00 49.39 LIG 0.17  C 
ATOM     22 OE1  GLU B   6       2.021 -34.260 -11.528  1.00 53.88 LIG-0.65  OA
ATOM     23 OE2  GLU B   6       0.070 -34.531 -12.471  1.00 56.34 LIG-0.65  OA
ENDBRANCH 20 21
ENDBRANCH 19 20
ENDBRANCH 18 19
BRANCH 18 24
ATOM     24  C   GLU B   6       4.041 -38.296 -13.765  1.00 41.03 LIG 0.24  C 
ATOM     25 O    GLU B   6       4.719 -38.006 -14.787  1.00 40.13 LIG-0.27  OA
ATOM     26  N   ALA B   7       4.169 -39.449 -13.094  1.00 43.76 LIG-0.35  N 
ATOM     27 H    ALA B   7       3.660 -39.655 -12.433  1.00 43.76 LIG 0.16  HD
BRANCH 26 28
ATOM     28  CA  ALA B   7       5.192 -40.509 -13.398  1.00 45.80 LIG 0.16  C 
ATOM     29  CB  ALA B   7       6.632 -39.888 -13.429  1.00 46.43 LIG 0.04  C 
BRANCH 28 30
ATOM     30  C   ALA B   7       5.184 -41.652 -12.394  1.00 46.67 LIG 0.22  C 
ATOM     31 O    ALA B   7       4.145 -41.912 -11.764  1.00 48.32 LIG-0.29  OA
ENDBRANCH 28 30
ENDBRANCH 26 28
ENDBRANCH 18 24
ENDBRANCH 15 18
ENDBRANCH 6 14
ENDBRANCH 4 6
ENDBRANCH 1 2
BRANCH 1 32
ATOM     32  CB  LEU B   4       0.011 -36.346  -7.108  1.00 24.11 LIG 0.04  C 
BRANCH 32 33
ATOM     33  CG  LEU B   4      -0.698 -36.138  -8.466  1.00 25.40 LIG-0.02  C 
ATOM     34  CD2 LEU B   4      -0.628 -34.660  -8.778  1.00 26.98 LIG 0.01  C 
ATOM     35  CD1 LEU B   4      -2.151 -36.676  -8.578  1.00 25.06 LIG 0.01  C 
ENDBRANCH 32 33
ENDBRANCH 1 32
BRANCH 1 36
ATOM     36  N   LEU B   4       1.181 -38.079  -5.817  1.00 24.30 LIG-0.35  N 
ATOM     37  C   TRP B   3       0.763 -39.324  -5.599  1.00 25.24 LIG 0.24  C 
ATOM     38 O    TRP B   3       0.279 -40.021  -6.475  1.00 25.23 LIG-0.27  OA
ATOM     39 H    LEU B   4       1.547 -37.582  -5.218  1.00 24.30 LIG 0.16  HD
BRANCH 37 40
ATOM     40  CA  TRP B   3       0.875 -39.854  -4.155  1.00 26.39 LIG 0.18  C 
BRANCH 40 41
ATOM     41  CB  TRP B   3      -0.306 -39.346  -3.327  1.00 26.78 LIG 0.07  C 
BRANCH 41 42
ATOM     42  CG  TRP B   3      -0.368 -37.920  -3.346  1.00 25.50 LIG-0.03  A 
ATOM     43  CD1 TRP B   3       0.416 -37.066  -2.643  1.00 28.00 LIG 0.10  A 
ATOM     44  NE1 TRP B   3       0.046 -35.780  -2.892  1.00 26.39 LIG-0.36  N 
ATOM     45 HE1  TRP B   3       0.412 -35.081  -2.550  1.00 26.39 LIG 0.17  HD
ATOM     46  CE2 TRP B   3      -0.996 -35.779  -3.769  1.00 23.90 LIG 0.04  A 
ATOM     47  CZ2 TRP B   3      -1.711 -34.706  -4.306  1.00 23.10 LIG 0.03  A 
ATOM     48  CD2 TRP B   3      -1.276 -37.119  -4.081  1.00 23.76 LIG-0.00  A 
ATOM     49  CH2 TRP B   3      -2.704 -34.987  -5.184  1.00 22.34 LIG 0.00  A 
ATOM     50  CZ3 TRP B   3      -3.029 -36.313  -5.514  1.00 25.34 LIG 0.00  A 
ATOM     51  CE3 TRP B   3      -2.312 -37.398  -4.950  1.00 25.10 LIG 0.01  A 
ENDBRANCH 41 42
ENDBRANCH 40 41
BRANCH 40 52
ATOM     52  N   TRP B   3       2.160 -39.449  -3.573  1.00 27.54 LIG-0.35  N 
ATOM     53  C   ALA B   2       3.224 -40.231  -3.784  1.00 31.13 LIG 0.24  C 
ATOM     54 O    ALA B   2       3.131 -41.267  -4.433  1.00 30.30 LIG-0.27  OA
ATOM     55 H    TRP B   3       2.156 -38.718  -3.119  1.00 27.54 LIG 0.16  HD
BRANCH 53 56
ATOM     56  CA  ALA B   2       4.578 -39.794  -3.202  1.00 33.66 LIG 0.17  C 
ATOM     57  CB  ALA B   2       4.654 -40.049  -1.676  1.00 33.40 LIG 0.04  C 
BRANCH 56 58
ATOM     58  N   ALA B   2       4.922 -38.391  -3.458  1.00 35.64 LIG-0.35  N 
ATOM     59 H    ALA B   2       4.796 -37.859  -2.794  1.00 35.64 LIG 0.16  HD
ATOM     60  C   ALA B   1       5.391 -38.017  -4.647  1.00 39.08 LIG 0.25  C 
ATOM     61 O    ALA B   1       5.212 -38.691  -5.638  1.00 40.54 LIG-0.27  OA
BRANCH 60 62
ATOM     62  CA  ALA B   1       6.127 -36.660  -4.770  1.00 41.05 LIG 0.27  C 
ATOM     63  CB  ALA B   1       7.502 -36.713  -4.066  1.00 41.95 LIG 0.05  C 
BRANCH 62 64
ATOM     64  N   ALA B   1       5.332 -35.527  -4.227  1.00 41.48 LIG-0.07  N 
ATOM     65 H3   ALA B   1       4.563 -35.464  -4.671  1.00 41.48 LIG 0.28  HD
ATOM     66 H2   ALA B   1       5.791 -34.770  -4.320  1.00 41.48 LIG 0.28  HD
ATOM     67 H1   ALA B   1       5.164 -35.667  -3.365  1.00 41.48 LIG 0.28  HD
ENDBRANCH 62 64
ENDBRANCH 60 62
ENDBRANCH 56 58
ENDBRANCH 53 56
ENDBRANCH 40 52
ENDBRANCH 37 40
ENDBRANCH 1 36
TORSDOF 23
ENDMDL
MODEL 50
USER: ADFR SOLUTION from run 181
USER: SCORE 20.522918 LL:  -5.394 LR: -16.748 RR:   0.000 FEB:  -9.887
USER: RMSD 9.002995
USER: SEED 180
USER: STATUS no improvement in best in 13 clusters for 5 generations
USER: GENES 25
USER: genes 0 Translation |==|  0.35002 0.46709 0.62239
USER: genes 1 Rotation |==|  0.94515 0.65792 0.38662 0.61853
USER: genes 2 Torsion [N]-CA--C-[N] |==|  0.00336
USER: genes 3 Torsion [C]-N--CA-[CB] |==|  0.78994
USER: genes 4 Torsion [N]-CA--CB-[CG] |==|  0.57657
USER: genes 5 Torsion [CA]-CB--CG-[CD1] |==|  0.72176
USER: genes 6 Torsion [N]-CA--C-[N] |==|  0.11667
USER: genes 7 Torsion [C]-N--CA-[C] |==|  0.72548
USER: genes 8 Torsion [N]-CA--CB-[CG] |==|  0.51265
USER: genes 9 Torsion [CA]-CB--CG-[CD] |==|  0.70641
USER: genes 10 Torsion [CB]-CG--CD-[OE2] |==|  0.95538
USER: genes 11 Torsion [N]-CA--C-[N] |==|  0.95847
USER: genes 12 Torsion [C]-N--CA-[CB] |==|  0.88048
USER: genes 13 Torsion [N]-CA--C-[O] |==|  0.06370
USER: genes 14 Torsion [C]-CA--CB-[CG] |==|  0.22575
USER: genes 15 Torsion [CA]-CB--CG-[CD1] |==|  0.32740
USER: genes 16 Torsion [C]-CA--N-[C] |==|  0.22710
USER: genes 17 Torsion [N]-C--CA-[N] |==|  0.32428
USER: genes 18 Torsion [C]-CA--CB-[CG] |==|  0.26814
USER: genes 19 Torsion [CA]-CB--CG-[CD1] |==|  0.98338
USER: genes 20 Torsion [C]-CA--N-[C] |==|  0.79922
USER: genes 21 Torsion [N]-C--CA-[N] |==|  0.33602
USER: genes 22 Torsion [C]-CA--N-[C] |==|  0.76646
USER: genes 23 Torsion [N]-C--CA-[N] |==|  0.85399
USER: genes 24 Torsion [C]-CA--N-[H3] |==|  0.97671
ROOT
ATOM      1  CA  LEU B   4       0.019 -35.632  -7.096  1.00 25.55 LIG 0.18  C 
ENDROOT
BRANCH 1 2
ATOM      2  C   LEU B   4       0.065 -35.462  -5.574  1.00 26.13 LIG 0.24  C 
ATOM      3 O    LEU B   4      -0.983 -35.468  -4.952  1.00 25.31 LIG-0.27  OA
ATOM      4  N   PHE B   5       1.271 -35.323  -5.002  1.00 26.68 LIG-0.35  N 
ATOM      5 H    PHE B   5       2.005 -35.224  -5.439  1.00 26.68 LIG 0.16  HD
BRANCH 4 6
ATOM      6  CA  PHE B   5       1.426 -35.333  -3.540  1.00 28.54 LIG 0.18  C 
BRANCH 6 7
ATOM      7  CB  PHE B   5       0.964 -34.004  -2.904  1.00 28.61 LIG 0.07  C 
BRANCH 7 8
ATOM      8  CG  PHE B   5       1.632 -33.656  -1.622  1.00 26.86 LIG-0.06  A 
ATOM      9  CD1 PHE B   5       1.015 -33.881  -0.413  1.00 26.13 LIG 0.01  A 
ATOM     10  CE1 PHE B   5       1.654 -33.563   0.783  1.00 23.59 LIG 0.00  A 
ATOM     11  CZ  PHE B   5       2.962 -33.020   0.774  1.00 25.19 LIG 0.00  A 
ATOM     12  CE2 PHE B   5       3.560 -32.755  -0.438  1.00 26.30 LIG 0.00  A 
ATOM     13  CD2 PHE B   5       2.910 -33.095  -1.625  1.00 27.99 LIG 0.01  A 
ENDBRANCH 7 8
ENDBRANCH 6 7
BRANCH 6 14
ATOM     14  C   PHE B   5       0.666 -36.477  -2.864  1.00 31.71 LIG 0.24  C 
ATOM     15  N   GLU B   6       0.720 -37.672  -3.461  1.00 34.73 LIG-0.35  N 
ATOM     16 H    GLU B   6       0.854 -37.770  -4.305  1.00 34.73 LIG 0.16  HD
ATOM     17 O    PHE B   5      -0.008 -36.245  -1.856  1.00 30.66 LIG-0.27  OA
BRANCH 15 18
ATOM     18  CA  GLU B   6       0.555 -38.960  -2.727  1.00 38.89 LIG 0.18  C 
BRANCH 18 19
ATOM     19  CB  GLU B   6      -0.322 -39.965  -3.485  1.00 39.10 LIG 0.04  C 
BRANCH 19 20
ATOM     20  CG  GLU B   6      -0.594 -41.266  -2.684  1.00 43.96 LIG 0.12  C 
BRANCH 20 21
ATOM     21  CD  GLU B   6       0.185 -42.498  -3.168  1.00 49.39 LIG 0.17  C 
ATOM     22 OE1  GLU B   6       0.320 -43.491  -2.424  1.00 53.88 LIG-0.65  OA
ATOM     23 OE2  GLU B   6       0.717 -42.463  -4.309  1.00 56.34 LIG-0.65  OA
ENDBRANCH 20 21
ENDBRANCH 19 20
ENDBRANCH 18 19
BRANCH 18 24
ATOM     24  C   GLU B   6       1.969 -39.555  -2.442  1.00 41.03 LIG 0.24  C 
ATOM     25 O    GLU B   6       2.135 -40.511  -1.637  1.00 40.13 LIG-0.27  OA
ATOM     26  N   ALA B   7       2.963 -39.003  -3.151  1.00 43.76 LIG-0.35  N 
ATOM     27 H    ALA B   7       2.843 -38.316  -3.653  1.00 43.76 LIG 0.16  HD
BRANCH 26 28
ATOM     28  CA  ALA B   7       4.384 -39.497  -3.165  1.00 45.80 LIG 0.16  C 
ATOM     29  CB  ALA B   7       4.852 -39.859  -1.713  1.00 46.43 LIG 0.04  C 
BRANCH 28 30
ATOM     30  C   ALA B   7       4.583 -40.717  -4.051  1.00 46.67 LIG 0.22  C 
ATOM     31 O    ALA B   7       3.784 -40.947  -4.974  1.00 48.32 LIG-0.29  OA
ENDBRANCH 28 30
ENDBRANCH 26 28
ENDBRANCH 18 24
ENDBRANCH 15 18
ENDBRANCH 6 14
ENDBRANCH 4 6
ENDBRANCH 1 2
BRANCH 1 32
ATOM     32  CB  LEU B   4      -0.774 -36.884  -7.411  1.00 24.11 LIG 0.04  C 
BRANCH 32 33
ATOM     33  CG  LEU B   4      -2.307 -36.681  -7.381  1.00 25.40 LIG-0.02  C 
ATOM     34  CD2 LEU B   4      -2.845 -37.553  -6.269  1.00 26.98 LIG 0.01  C 
ATOM     35  CD1 LEU B   4      -3.064 -36.926  -8.716  1.00 25.06 LIG 0.01  C 
ENDBRANCH 32 33
ENDBRANCH 1 32
BRANCH 1 36
ATOM     36  N   LEU B   4       1.327 -35.647  -7.720  1.00 24.30 LIG-0.35  N 
ATOM     37  C   TRP B   3       2.069 -36.751  -7.750  1.00 25.24 LIG 0.24  C 
ATOM     38 O    TRP B   3       1.688 -37.816  -7.293  1.00 25.23 LIG-0.27  OA
ATOM     39 H    LEU B   4       1.569 -34.895  -8.059  1.00 24.30 LIG 0.16  HD
BRANCH 37 40
ATOM     40  CA  TRP B   3       3.480 -36.626  -8.360  1.00 26.39 LIG 0.18  C 
BRANCH 40 41
ATOM     41  CB  TRP B   3       3.608 -37.566  -9.559  1.00 26.78 LIG 0.07  C 
BRANCH 41 42
ATOM     42  CG  TRP B   3       3.362 -36.872 -10.782  1.00 25.50 LIG-0.03  A 
ATOM     43  CD1 TRP B   3       2.945 -35.589 -10.915  1.00 28.00 LIG 0.10  A 
ATOM     44  NE1 TRP B   3       2.790 -35.282 -12.232  1.00 26.39 LIG-0.36  N 
ATOM     45 HE1  TRP B   3       2.534 -34.521 -12.540  1.00 26.39 LIG 0.17  HD
ATOM     46  CE2 TRP B   3       3.108 -36.373 -12.983  1.00 23.90 LIG 0.04  A 
ATOM     47  CZ2 TRP B   3       3.092 -36.540 -14.369  1.00 23.10 LIG 0.03  A 
ATOM     48  CD2 TRP B   3       3.482 -37.394 -12.094  1.00 23.76 LIG-0.00  A 
ATOM     49  CH2 TRP B   3       3.479 -37.740 -14.865  1.00 22.34 LIG 0.00  A 
ATOM     50  CZ3 TRP B   3       3.846 -38.795 -14.012  1.00 25.34 LIG 0.00  A 
ATOM     51  CE3 TRP B   3       3.841 -38.625 -12.604  1.00 25.10 LIG 0.01  A 
ENDBRANCH 41 42
ENDBRANCH 40 41
BRANCH 40 52
ATOM     52  N   TRP B   3       4.494 -36.912  -7.337  1.00 27.54 LIG-0.35  N 
ATOM     53  C   ALA B   2       4.695 -36.004  -6.375  1.00 31.13 LIG 0.24  C 
ATOM     54 O    ALA B   2       4.065 -34.953  -6.354  1.00 30.30 LIG-0.27  OA
ATOM     55 H    TRP B   3       4.909 -37.662  -7.415  1.00 27.54 LIG 0.16  HD
BRANCH 53 56
ATOM     56  CA  ALA B   2       5.733 -36.314  -5.285  1.00 33.66 LIG 0.17  C 
ATOM     57  CB  ALA B   2       5.074 -36.448  -3.889  1.00 33.40 LIG 0.04  C 
BRANCH 56 58
ATOM     58  N   ALA B   2       6.824 -35.337  -5.194  1.00 35.64 LIG-0.35  N 
ATOM     59 H    ALA B   2       6.714 -34.724  -4.601  1.00 35.64 LIG 0.16  HD
ATOM     60  C   ALA B   1       7.885 -35.435  -5.992  1.00 39.08 LIG 0.25  C 
ATOM     61 O    ALA B   1       7.842 -36.061  -7.029  1.00 40.54 LIG-0.27  OA
BRANCH 60 62
ATOM     62  CA  ALA B   1       9.182 -34.677  -5.612  1.00 41.05 LIG 0.27  C 
ATOM     63  CB  ALA B   1       9.857 -35.324  -4.381  1.00 41.95 LIG 0.05  C 
BRANCH 62 64
ATOM     64  N   ALA B   1       8.944 -33.233  -5.349  1.00 41.48 LIG-0.07  N 
ATOM     65 H3   ALA B   1       8.109 -33.024  -5.574  1.00 41.48 LIG 0.28  HD
ATOM     66 H2   ALA B   1       9.512 -32.746  -5.832  1.00 41.48 LIG 0.28  HD
ATOM     67 H1   ALA B   1       9.069 -33.064  -4.485  1.00 41.48 LIG 0.28  HD
ENDBRANCH 62 64
ENDBRANCH 60 62
ENDBRANCH 56 58
ENDBRANCH 53 56
ENDBRANCH 40 52
ENDBRANCH 37 40
ENDBRANCH 1 36
TORSDOF 23
ENDMDL
MODEL 51
USER: ADFR SOLUTION from run 187
USER: SCORE 21.408187 LL:  -6.372 LR: -16.742 RR:   0.000 FEB:  -9.881
USER: RMSD 6.213111
USER: SEED 186
USER: STATUS no improvement in best in 4 clusters for 5 generations
USER: GENES 25
USER: genes 0 Translation |==|  0.34724 0.47042 0.54312
USER: genes 1 Rotation |==|  0.63382 0.31484 0.38297 0.92908
USER: genes 2 Torsion [N]-CA--C-[N] |==|  0.39960
USER: genes 3 Torsion [C]-N--CA-[CB] |==|  0.20556
USER: genes 4 Torsion [N]-CA--CB-[CG] |==|  0.11060
USER: genes 5 Torsion [CA]-CB--CG-[CD1] |==|  0.23190
USER: genes 6 Torsion [N]-CA--C-[N] |==|  0.61875
USER: genes 7 Torsion [C]-N--CA-[C] |==|  0.54113
USER: genes 8 Torsion [N]-CA--CB-[CG] |==|  0.60820
USER: genes 9 Torsion [CA]-CB--CG-[CD] |==|  0.68071
USER: genes 10 Torsion [CB]-CG--CD-[OE2] |==|  0.63050
USER: genes 11 Torsion [N]-CA--C-[N] |==|  0.48026
USER: genes 12 Torsion [C]-N--CA-[CB] |==|  0.29385
USER: genes 13 Torsion [N]-CA--C-[O] |==|  0.61382
USER: genes 14 Torsion [C]-CA--CB-[CG] |==|  0.55825
USER: genes 15 Torsion [CA]-CB--CG-[CD1] |==|  0.35237
USER: genes 16 Torsion [C]-CA--N-[C] |==|  0.73162
USER: genes 17 Torsion [N]-C--CA-[N] |==|  0.10246
USER: genes 18 Torsion [C]-CA--CB-[CG] |==|  0.56939
USER: genes 19 Torsion [CA]-CB--CG-[CD1] |==|  0.79416
USER: genes 20 Torsion [C]-CA--N-[C] |==|  0.15239
USER: genes 21 Torsion [N]-C--CA-[N] |==|  0.12784
USER: genes 22 Torsion [C]-CA--N-[C] |==|  0.77670
USER: genes 23 Torsion [N]-C--CA-[N] |==|  0.75099
USER: genes 24 Torsion [C]-CA--N-[H3] |==|  0.80219
ROOT
ATOM      1  CA  LEU B   4      -0.035 -35.562  -8.880  1.00 25.55 LIG 0.18  C 
ENDROOT
BRANCH 1 2
ATOM      2  C   LEU B   4       0.573 -34.498  -9.798  1.00 26.13 LIG 0.24  C 
ATOM      3 O    LEU B   4       1.161 -33.556  -9.295  1.00 25.31 LIG-0.27  OA
ATOM      4  N   PHE B   5       0.431 -34.667 -11.123  1.00 26.68 LIG-0.35  N 
ATOM      5 H    PHE B   5      -0.061 -35.274 -11.482  1.00 26.68 LIG 0.16  HD
BRANCH 4 6
ATOM      6  CA  PHE B   5       1.130 -33.797 -12.080  1.00 28.54 LIG 0.18  C 
BRANCH 6 7
ATOM      7  CB  PHE B   5       2.637 -34.123 -12.159  1.00 28.61 LIG 0.07  C 
BRANCH 7 8
ATOM      8  CG  PHE B   5       2.968 -35.572 -12.116  1.00 26.86 LIG-0.06  A 
ATOM      9  CD1 PHE B   5       2.925 -36.347 -13.252  1.00 26.13 LIG 0.01  A 
ATOM     10  CE1 PHE B   5       3.249 -37.701 -13.203  1.00 23.59 LIG 0.00  A 
ATOM     11  CZ  PHE B   5       3.649 -38.299 -11.983  1.00 25.19 LIG 0.00  A 
ATOM     12  CE2 PHE B   5       3.650 -37.531 -10.839  1.00 26.30 LIG 0.00  A 
ATOM     13  CD2 PHE B   5       3.337 -36.173 -10.911  1.00 27.99 LIG 0.01  A 
ENDBRANCH 7 8
ENDBRANCH 6 7
BRANCH 6 14
ATOM     14  C   PHE B   5       0.549 -33.873 -13.494  1.00 31.71 LIG 0.24  C 
ATOM     15  N   GLU B   6       1.424 -33.925 -14.503  1.00 34.73 LIG-0.35  N 
ATOM     16 H    GLU B   6       2.221 -33.604 -14.451  1.00 34.73 LIG 0.16  HD
ATOM     17 O    PHE B   5      -0.674 -33.816 -13.651  1.00 30.66 LIG-0.27  OA
BRANCH 15 18
ATOM     18  CA  GLU B   6       1.114 -34.545 -15.823  1.00 38.89 LIG 0.18  C 
BRANCH 18 19
ATOM     19  CB  GLU B   6       0.129 -33.713 -16.652  1.00 39.10 LIG 0.04  C 
BRANCH 19 20
ATOM     20  CG  GLU B   6      -0.902 -34.576 -17.427  1.00 43.96 LIG 0.12  C 
BRANCH 20 21
ATOM     21  CD  GLU B   6      -0.788 -34.500 -18.958  1.00 49.39 LIG 0.17  C 
ATOM     22 OE1  GLU B   6       0.329 -34.565 -19.510  1.00 53.88 LIG-0.65  OA
ATOM     23 OE2  GLU B   6      -1.838 -34.327 -19.632  1.00 56.34 LIG-0.65  OA
ENDBRANCH 20 21
ENDBRANCH 19 20
ENDBRANCH 18 19
BRANCH 18 24
ATOM     24  C   GLU B   6       2.452 -34.762 -16.598  1.00 41.03 LIG 0.24  C 
ATOM     25 O    GLU B   6       3.554 -34.352 -16.143  1.00 40.13 LIG-0.27  OA
ATOM     26  N   ALA B   7       2.332 -35.451 -17.741  1.00 43.76 LIG-0.35  N 
ATOM     27 H    ALA B   7       1.568 -35.674 -18.066  1.00 43.76 LIG 0.16  HD
BRANCH 26 28
ATOM     28  CA  ALA B   7       3.486 -35.914 -18.588  1.00 45.80 LIG 0.16  C 
ATOM     29  CB  ALA B   7       3.695 -37.460 -18.431  1.00 46.43 LIG 0.04  C 
BRANCH 28 30
ATOM     30  C   ALA B   7       3.303 -35.602 -20.066  1.00 46.67 LIG 0.22  C 
ATOM     31 O    ALA B   7       3.631 -36.444 -20.919  1.00 48.32 LIG-0.29  OA
ENDBRANCH 28 30
ENDBRANCH 26 28
ENDBRANCH 18 24
ENDBRANCH 15 18
ENDBRANCH 6 14
ENDBRANCH 4 6
ENDBRANCH 1 2
BRANCH 1 32
ATOM     32  CB  LEU B   4      -1.450 -35.143  -8.538  1.00 24.11 LIG 0.04  C 
BRANCH 32 33
ATOM     33  CG  LEU B   4      -2.010 -35.804  -7.257  1.00 25.40 LIG-0.02  C 
ATOM     34  CD2 LEU B   4      -3.039 -36.820  -7.699  1.00 26.98 LIG 0.01  C 
ATOM     35  CD1 LEU B   4      -2.582 -34.846  -6.176  1.00 25.06 LIG 0.01  C 
ENDBRANCH 32 33
ENDBRANCH 1 32
BRANCH 1 36
ATOM     36  N   LEU B   4       0.755 -35.828  -7.694  1.00 24.30 LIG-0.35  N 
ATOM     37  C   TRP B   3       1.610 -36.847  -7.644  1.00 25.24 LIG 0.24  C 
ATOM     38 O    TRP B   3       1.808 -37.589  -8.591  1.00 25.23 LIG-0.27  OA
ATOM     39 H    LEU B   4       0.620 -35.280  -7.046  1.00 24.30 LIG 0.16  HD
BRANCH 37 40
ATOM     40  CA  TRP B   3       2.328 -37.088  -6.301  1.00 26.39 LIG 0.18  C 
BRANCH 40 41
ATOM     41  CB  TRP B   3       2.858 -38.522  -6.252  1.00 26.78 LIG 0.07  C 
BRANCH 41 42
ATOM     42  CG  TRP B   3       2.999 -38.969  -4.904  1.00 25.50 LIG-0.03  A 
ATOM     43  CD1 TRP B   3       3.959 -38.597  -4.024  1.00 28.00 LIG 0.10  A 
ATOM     44  NE1 TRP B   3       3.791 -39.254  -2.843  1.00 26.39 LIG-0.36  N 
ATOM     45 HE1  TRP B   3       4.290 -39.166  -2.147  1.00 26.39 LIG 0.17  HD
ATOM     46  CE2 TRP B   3       2.707 -40.072  -2.940  1.00 23.90 LIG 0.04  A 
ATOM     47  CZ2 TRP B   3       2.155 -40.941  -1.996  1.00 23.10 LIG 0.03  A 
ATOM     48  CD2 TRP B   3       2.178 -39.908  -4.231  1.00 23.76 LIG-0.00  A 
ATOM     49  CH2 TRP B   3       1.046 -41.634  -2.350  1.00 22.34 LIG 0.00  A 
ATOM     50  CZ3 TRP B   3       0.492 -41.514  -3.636  1.00 25.34 LIG 0.00  A 
ATOM     51  CE3 TRP B   3       1.069 -40.644  -4.596  1.00 25.10 LIG 0.01  A 
ENDBRANCH 41 42
ENDBRANCH 40 41
BRANCH 40 52
ATOM     52  N   TRP B   3       1.413 -36.810  -5.188  1.00 27.54 LIG-0.35  N 
ATOM     53  C   ALA B   2       0.239 -37.450  -5.160  1.00 31.13 LIG 0.24  C 
ATOM     54 O    ALA B   2      -0.077 -38.235  -6.047  1.00 30.30 LIG-0.27  OA
ATOM     55 H    TRP B   3       1.688 -36.240  -4.605  1.00 27.54 LIG 0.16  HD
BRANCH 53 56
ATOM     56  CA  ALA B   2      -0.710 -37.184  -3.980  1.00 33.66 LIG 0.17  C 
ATOM     57  CB  ALA B   2      -2.113 -37.795  -4.224  1.00 33.40 LIG 0.04  C 
BRANCH 56 58
ATOM     58  N   ALA B   2      -0.871 -35.766  -3.641  1.00 35.64 LIG-0.35  N 
ATOM     59 H    ALA B   2      -1.585 -35.398  -3.948  1.00 35.64 LIG 0.16  HD
ATOM     60  C   ALA B   1       0.048 -35.139  -2.909  1.00 39.08 LIG 0.25  C 
ATOM     61 O    ALA B   1       1.178 -35.564  -2.812  1.00 40.54 LIG-0.27  OA
BRANCH 60 62
ATOM     62  CA  ALA B   1      -0.326 -33.802  -2.221  1.00 41.05 LIG 0.27  C 
ATOM     63  CB  ALA B   1      -1.810 -33.801  -1.789  1.00 41.95 LIG 0.05  C 
BRANCH 62 64
ATOM     64  N   ALA B   1      -0.056 -32.620  -3.083  1.00 41.48 LIG-0.07  N 
ATOM     65 H3   ALA B   1       0.823 -32.497  -3.151  1.00 41.48 LIG 0.28  HD
ATOM     66 H2   ALA B   1      -0.430 -31.898  -2.722  1.00 41.48 LIG 0.28  HD
ATOM     67 H1   ALA B   1      -0.398 -32.758  -3.893  1.00 41.48 LIG 0.28  HD
ENDBRANCH 62 64
ENDBRANCH 60 62
ENDBRANCH 56 58
ENDBRANCH 53 56
ENDBRANCH 40 52
ENDBRANCH 37 40
ENDBRANCH 1 36
TORSDOF 23
ENDMDL
MODEL 52
USER: ADFR SOLUTION from run 2
USER: SCORE 22.981780 LL:  -7.026 LR: -16.728 RR:   0.000 FEB:  -9.867
USER: RMSD 7.787679
USER: SEED 718316
USER: STATUS searching
USER: GENES 25
USER: genes 0 Translation |==|  0.53415 0.32569 0.43208
USER: genes 1 Rotation |==|  0.65942 0.22761 0.77678 0.77163
USER: genes 2 Torsion [N]-CA--C-[N] |==|  0.95582
USER: genes 3 Torsion [C]-N--CA-[CB] |==|  0.21335
USER: genes 4 Torsion [N]-CA--CB-[CG] |==|  0.77831
USER: genes 5 Torsion [CA]-CB--CG-[CD1] |==|  0.82958
USER: genes 6 Torsion [N]-CA--C-[N] |==|  0.98006
USER: genes 7 Torsion [C]-N--CA-[C] |==|  0.72781
USER: genes 8 Torsion [N]-CA--CB-[CG] |==|  0.68373
USER: genes 9 Torsion [CA]-CB--CG-[CD] |==|  0.68258
USER: genes 10 Torsion [CB]-CG--CD-[OE2] |==|  0.06687
USER: genes 11 Torsion [N]-CA--C-[N] |==|  0.99549
USER: genes 12 Torsion [C]-N--CA-[CB] |==|  0.78954
USER: genes 13 Torsion [N]-CA--C-[O] |==|  0.36796
USER: genes 14 Torsion [C]-CA--CB-[CG] |==|  0.30300
USER: genes 15 Torsion [CA]-CB--CG-[CD1] |==|  0.40910
USER: genes 16 Torsion [C]-CA--N-[C] |==|  0.77432
USER: genes 17 Torsion [N]-C--CA-[N] |==|  0.38559
USER: genes 18 Torsion [C]-CA--CB-[CG] |==|  0.40311
USER: genes 19 Torsion [CA]-CB--CG-[CD1] |==|  0.68082
USER: genes 20 Torsion [C]-CA--N-[C] |==|  0.69101
USER: genes 21 Torsion [N]-C--CA-[N] |==|  0.97684
USER: genes 22 Torsion [C]-CA--N-[C] |==|  0.78867
USER: genes 23 Torsion [N]-C--CA-[N] |==|  0.82736
USER: genes 24 Torsion [C]-CA--N-[H3] |==|  0.57810
ROOT
ATOM      1  CA  LEU B   4       3.610 -38.602 -11.378  1.00 25.55 LIG 0.18  C 
ENDROOT
BRANCH 1 2
ATOM      2  C   LEU B   4       3.752 -37.489 -12.422  1.00 26.13 LIG 0.24  C 
ATOM      3 O    LEU B   4       4.723 -37.496 -13.158  1.00 25.31 LIG-0.27  OA
ATOM      4  N   PHE B   5       2.782 -36.562 -12.476  1.00 26.68 LIG-0.35  N 
ATOM      5 H    PHE B   5       2.145 -36.496 -11.902  1.00 26.68 LIG 0.16  HD
BRANCH 4 6
ATOM      6  CA  PHE B   5       2.741 -35.566 -13.556  1.00 28.54 LIG 0.18  C 
BRANCH 6 7
ATOM      7  CB  PHE B   5       2.214 -36.169 -14.876  1.00 28.61 LIG 0.07  C 
BRANCH 7 8
ATOM      8  CG  PHE B   5       3.212 -36.951 -15.651  1.00 26.86 LIG-0.06  A 
ATOM      9  CD1 PHE B   5       4.360 -36.363 -16.132  1.00 26.13 LIG 0.01  A 
ATOM     10  CE1 PHE B   5       5.296 -37.107 -16.848  1.00 23.59 LIG 0.00  A 
ATOM     11  CZ  PHE B   5       5.089 -38.490 -17.075  1.00 25.19 LIG 0.00  A 
ATOM     12  CE2 PHE B   5       3.919 -39.066 -16.631  1.00 26.30 LIG 0.00  A 
ATOM     13  CD2 PHE B   5       3.002 -38.307 -15.903  1.00 27.99 LIG 0.01  A 
ENDBRANCH 7 8
ENDBRANCH 6 7
BRANCH 6 14
ATOM     14  C   PHE B   5       1.886 -34.344 -13.212  1.00 31.71 LIG 0.24  C 
ATOM     15  N   GLU B   6       1.183 -34.400 -12.077  1.00 34.73 LIG-0.35  N 
ATOM     16 H    GLU B   6       0.926 -35.139 -11.720  1.00 34.73 LIG 0.16  HD
ATOM     17 O    PHE B   5       1.825 -33.403 -14.010  1.00 30.66 LIG-0.27  OA
BRANCH 15 18
ATOM     18  CA  GLU B   6       0.772 -33.189 -11.309  1.00 38.89 LIG 0.18  C 
BRANCH 18 19
ATOM     19  CB  GLU B   6      -0.662 -33.285 -10.774  1.00 39.10 LIG 0.04  C 
BRANCH 19 20
ATOM     20  CG  GLU B   6      -1.627 -32.256 -11.420  1.00 43.96 LIG 0.12  C 
BRANCH 20 21
ATOM     21  CD  GLU B   6      -2.175 -31.191 -10.457  1.00 49.39 LIG 0.17  C 
ATOM     22 OE1  GLU B   6      -3.230 -30.583 -10.726  1.00 53.88 LIG-0.65  OA
ATOM     23 OE2  GLU B   6      -1.513 -30.921  -9.420  1.00 56.34 LIG-0.65  OA
ENDBRANCH 20 21
ENDBRANCH 19 20
ENDBRANCH 18 19
BRANCH 18 24
ATOM     24  C   GLU B   6       1.789 -32.969 -10.146  1.00 41.03 LIG 0.24  C 
ATOM     25 O    GLU B   6       1.667 -32.014  -9.332  1.00 40.13 LIG-0.27  OA
ATOM     26  N   ALA B   7       2.755 -33.894 -10.063  1.00 43.76 LIG-0.35  N 
ATOM     27 H    ALA B   7       2.858 -34.506 -10.658  1.00 43.76 LIG 0.16  HD
BRANCH 26 28
ATOM     28  CA  ALA B   7       3.762 -33.985  -8.948  1.00 45.80 LIG 0.16  C 
ATOM     29  CB  ALA B   7       4.859 -32.876  -9.109  1.00 46.43 LIG 0.04  C 
BRANCH 28 30
ATOM     30  C   ALA B   7       3.139 -33.847  -7.568  1.00 46.67 LIG 0.22  C 
ATOM     31 O    ALA B   7       3.437 -34.655  -6.672  1.00 48.32 LIG-0.29  OA
ENDBRANCH 28 30
ENDBRANCH 26 28
ENDBRANCH 18 24
ENDBRANCH 15 18
ENDBRANCH 6 14
ENDBRANCH 4 6
ENDBRANCH 1 2
BRANCH 1 32
ATOM     32  CB  LEU B   4       3.300 -39.896 -12.102  1.00 24.11 LIG 0.04  C 
BRANCH 32 33
ATOM     33  CG  LEU B   4       4.464 -40.914 -12.096  1.00 25.40 LIG-0.02  C 
ATOM     34  CD2 LEU B   4       5.337 -40.592 -13.288  1.00 26.98 LIG 0.01  C 
ATOM     35  CD1 LEU B   4       4.069 -42.417 -12.068  1.00 25.06 LIG 0.01  C 
ENDBRANCH 32 33
ENDBRANCH 1 32
BRANCH 1 36
ATOM     36  N   LEU B   4       2.636 -38.310 -10.345  1.00 24.30 LIG-0.35  N 
ATOM     37  C   TRP B   3       2.939 -37.538  -9.304  1.00 25.24 LIG 0.24  C 
ATOM     38 O    TRP B   3       4.028 -37.004  -9.173  1.00 25.23 LIG-0.27  OA
ATOM     39 H    LEU B   4       1.867 -38.675 -10.467  1.00 24.30 LIG 0.16  HD
BRANCH 37 40
ATOM     40  CA  TRP B   3       1.854 -37.372  -8.221  1.00 26.39 LIG 0.18  C 
BRANCH 40 41
ATOM     41  CB  TRP B   3       1.099 -36.061  -8.447  1.00 26.78 LIG 0.07  C 
BRANCH 41 42
ATOM     42  CG  TRP B   3      -0.277 -36.195  -8.095  1.00 25.50 LIG-0.03  A 
ATOM     43  CD1 TRP B   3      -1.339 -36.113  -8.932  1.00 28.00 LIG 0.10  A 
ATOM     44  NE1 TRP B   3      -2.498 -36.262  -8.234  1.00 26.39 LIG-0.36  N 
ATOM     45 HE1  TRP B   3      -3.289 -36.244  -8.571  1.00 26.39 LIG 0.17  HD
ATOM     46  CE2 TRP B   3      -2.203 -36.445  -6.917  1.00 23.90 LIG 0.04  A 
ATOM     47  CZ2 TRP B   3      -3.056 -36.629  -5.827  1.00 23.10 LIG 0.03  A 
ATOM     48  CD2 TRP B   3      -0.804 -36.415  -6.797  1.00 23.76 LIG-0.00  A 
ATOM     49  CH2 TRP B   3      -2.493 -36.810  -4.608  1.00 22.34 LIG 0.00  A 
ATOM     50  CZ3 TRP B   3      -1.098 -36.772  -4.439  1.00 25.34 LIG 0.00  A 
ATOM     51  CE3 TRP B   3      -0.238 -36.565  -5.548  1.00 25.10 LIG 0.01  A 
ENDBRANCH 41 42
ENDBRANCH 40 41
BRANCH 40 52
ATOM     52  N   TRP B   3       2.466 -37.422  -6.888  1.00 27.54 LIG-0.35  N 
ATOM     53  C   ALA B   2       2.203 -38.479  -6.112  1.00 31.13 LIG 0.24  C 
ATOM     54 O    ALA B   2       1.457 -39.375  -6.491  1.00 30.30 LIG-0.27  OA
ATOM     55 H    TRP B   3       2.970 -36.757  -6.678  1.00 27.54 LIG 0.16  HD
BRANCH 53 56
ATOM     56  CA  ALA B   2       2.867 -38.551  -4.727  1.00 33.66 LIG 0.17  C 
ATOM     57  CB  ALA B   2       1.821 -38.483  -3.586  1.00 33.40 LIG 0.04  C 
BRANCH 56 58
ATOM     58  N   ALA B   2       3.884 -37.520  -4.490  1.00 35.64 LIG-0.35  N 
ATOM     59 H    ALA B   2       3.633 -36.874  -3.981  1.00 35.64 LIG 0.16  HD
ATOM     60  C   ALA B   1       5.090 -37.621  -5.045  1.00 39.08 LIG 0.25  C 
ATOM     61 O    ALA B   1       5.283 -38.318  -6.018  1.00 40.54 LIG-0.27  OA
BRANCH 60 62
ATOM     62  CA  ALA B   1       6.254 -36.779  -4.467  1.00 41.05 LIG 0.27  C 
ATOM     63  CB  ALA B   1       6.522 -37.149  -2.990  1.00 41.95 LIG 0.05  C 
BRANCH 62 64
ATOM     64  N   ALA B   1       6.012 -35.316  -4.579  1.00 41.48 LIG-0.07  N 
ATOM     65 H3   ALA B   1       6.791 -34.890  -4.634  1.00 41.48 LIG 0.28  HD
ATOM     66 H2   ALA B   1       5.569 -35.033  -3.861  1.00 41.48 LIG 0.28  HD
ATOM     67 H1   ALA B   1       5.532 -35.149  -5.309  1.00 41.48 LIG 0.28  HD
ENDBRANCH 62 64
ENDBRANCH 60 62
ENDBRANCH 56 58
ENDBRANCH 53 56
ENDBRANCH 40 52
ENDBRANCH 37 40
ENDBRANCH 1 36
TORSDOF 23
ENDMDL
MODEL 53
USER: ADFR SOLUTION from run 49
USER: SCORE 20.660926 LL:  -6.473 LR: -16.693 RR:   0.000 FEB:  -9.832
USER: RMSD 5.830891
USER: SEED 48
USER: STATUS no improvement in best in 9 clusters for 5 generations
USER: GENES 25
USER: genes 0 Translation |==|  0.32390 0.46501 0.55511
USER: genes 1 Rotation |==|  0.59439 0.51984 0.27163 0.93422
USER: genes 2 Torsion [N]-CA--C-[N] |==|  0.05862
USER: genes 3 Torsion [C]-N--CA-[CB] |==|  0.47560
USER: genes 4 Torsion [N]-CA--CB-[CG] |==|  0.04996
USER: genes 5 Torsion [CA]-CB--CG-[CD1] |==|  0.28145
USER: genes 6 Torsion [N]-CA--C-[N] |==|  0.34911
USER: genes 7 Torsion [C]-N--CA-[C] |==|  0.89939
USER: genes 8 Torsion [N]-CA--CB-[CG] |==|  0.68910
USER: genes 9 Torsion [CA]-CB--CG-[CD] |==|  0.20672
USER: genes 10 Torsion [CB]-CG--CD-[OE2] |==|  0.34549
USER: genes 11 Torsion [N]-CA--C-[N] |==|  0.33470
USER: genes 12 Torsion [C]-N--CA-[CB] |==|  0.25747
USER: genes 13 Torsion [N]-CA--C-[O] |==|  0.49785
USER: genes 14 Torsion [C]-CA--CB-[CG] |==|  0.28635
USER: genes 15 Torsion [CA]-CB--CG-[CD1] |==|  0.05954
USER: genes 16 Torsion [C]-CA--N-[C] |==|  0.17446
USER: genes 17 Torsion [N]-C--CA-[N] |==|  0.52010
USER: genes 18 Torsion [C]-CA--CB-[CG] |==|  0.82809
USER: genes 19 Torsion [CA]-CB--CG-[CD1] |==|  0.79508
USER: genes 20 Torsion [C]-CA--N-[C] |==|  0.61193
USER: genes 21 Torsion [N]-C--CA-[N] |==|  0.14444
USER: genes 22 Torsion [C]-CA--N-[C] |==|  0.14975
USER: genes 23 Torsion [N]-C--CA-[N] |==|  0.08186
USER: genes 24 Torsion [C]-CA--N-[H3] |==|  0.89936
ROOT
ATOM      1  CA  LEU B   4      -0.490 -35.676  -8.610  1.00 25.55 LIG 0.18  C 
ENDROOT
BRANCH 1 2
ATOM      2  C   LEU B   4      -0.507 -34.458  -9.540  1.00 26.13 LIG 0.24  C 
ATOM      3 O    LEU B   4      -1.364 -33.607  -9.375  1.00 25.31 LIG-0.27  OA
ATOM      4  N   PHE B   5       0.439 -34.390 -10.489  1.00 26.68 LIG-0.35  N 
ATOM      5 H    PHE B   5       0.987 -35.028 -10.673  1.00 26.68 LIG 0.16  HD
BRANCH 4 6
ATOM      6  CA  PHE B   5       0.611 -33.181 -11.308  1.00 28.54 LIG 0.18  C 
BRANCH 6 7
ATOM      7  CB  PHE B   5       1.887 -33.250 -12.175  1.00 28.61 LIG 0.07  C 
BRANCH 7 8
ATOM      8  CG  PHE B   5       2.450 -34.614 -12.354  1.00 26.86 LIG-0.06  A 
ATOM      9  CD1 PHE B   5       2.241 -35.325 -13.513  1.00 26.13 LIG 0.01  A 
ATOM     10  CE1 PHE B   5       2.783 -36.598 -13.677  1.00 23.59 LIG 0.00  A 
ATOM     11  CZ  PHE B   5       3.579 -37.174 -12.656  1.00 25.19 LIG 0.00  A 
ATOM     12  CE2 PHE B   5       3.751 -36.479 -11.479  1.00 26.30 LIG 0.00  A 
ATOM     13  CD2 PHE B   5       3.212 -35.199 -11.341  1.00 27.99 LIG 0.01  A 
ENDBRANCH 7 8
ENDBRANCH 6 7
BRANCH 6 14
ATOM     14  C   PHE B   5      -0.580 -32.906 -12.229  1.00 31.71 LIG 0.24  C 
ATOM     15  N   GLU B   6      -1.146 -31.699 -12.138  1.00 34.73 LIG-0.35  N 
ATOM     16 H    GLU B   6      -1.117 -31.219 -11.425  1.00 34.73 LIG 0.16  HD
ATOM     17 O    PHE B   5      -1.006 -33.810 -12.955  1.00 30.66 LIG-0.27  OA
BRANCH 15 18
ATOM     18  CA  GLU B   6      -1.888 -31.057 -13.262  1.00 38.89 LIG 0.18  C 
BRANCH 18 19
ATOM     19  CB  GLU B   6      -2.004 -29.536 -13.103  1.00 39.10 LIG 0.04  C 
BRANCH 19 20
ATOM     20  CG  GLU B   6      -3.456 -29.056 -12.837  1.00 43.96 LIG 0.12  C 
BRANCH 20 21
ATOM     21  CD  GLU B   6      -3.978 -29.334 -11.419  1.00 49.39 LIG 0.17  C 
ATOM     22 OE1  GLU B   6      -4.010 -30.500 -10.977  1.00 53.88 LIG-0.65  OA
ATOM     23 OE2  GLU B   6      -4.410 -28.367 -10.738  1.00 56.34 LIG-0.65  OA
ENDBRANCH 20 21
ENDBRANCH 19 20
ENDBRANCH 18 19
BRANCH 18 24
ATOM     24  C   GLU B   6      -1.177 -31.426 -14.602  1.00 41.03 LIG 0.24  C 
ATOM     25 O    GLU B   6       0.038 -31.159 -14.802  1.00 40.13 LIG-0.27  OA
ATOM     26  N   ALA B   7      -1.946 -32.080 -15.482  1.00 43.76 LIG-0.35  N 
ATOM     27 H    ALA B   7      -2.788 -32.205 -15.355  1.00 43.76 LIG 0.16  HD
BRANCH 26 28
ATOM     28  CA  ALA B   7      -1.457 -32.670 -16.777  1.00 45.80 LIG 0.16  C 
ATOM     29  CB  ALA B   7      -1.052 -34.172 -16.576  1.00 46.43 LIG 0.04  C 
BRANCH 28 30
ATOM     30  C   ALA B   7      -2.488 -32.596 -17.893  1.00 46.67 LIG 0.22  C 
ATOM     31 O    ALA B   7      -2.208 -33.035 -19.022  1.00 48.32 LIG-0.29  OA
ENDBRANCH 28 30
ENDBRANCH 26 28
ENDBRANCH 18 24
ENDBRANCH 15 18
ENDBRANCH 6 14
ENDBRANCH 4 6
ENDBRANCH 1 2
BRANCH 1 32
ATOM     32  CB  LEU B   4      -0.964 -35.234  -7.240  1.00 24.11 LIG 0.04  C 
BRANCH 32 33
ATOM     33  CG  LEU B   4      -2.421 -35.639  -6.919  1.00 25.40 LIG-0.02  C 
ATOM     34  CD2 LEU B   4      -2.486 -35.907  -5.432  1.00 26.98 LIG 0.01  C 
ATOM     35  CD1 LEU B   4      -3.008 -36.822  -7.738  1.00 25.06 LIG 0.01  C 
ENDBRANCH 32 33
ENDBRANCH 1 32
BRANCH 1 36
ATOM     36  N   LEU B   4       0.794 -36.346  -8.551  1.00 24.30 LIG-0.35  N 
ATOM     37  C   TRP B   3       1.877 -35.729  -8.086  1.00 25.24 LIG 0.24  C 
ATOM     38 O    TRP B   3       1.853 -34.589  -7.652  1.00 25.23 LIG-0.27  OA
ATOM     39 H    LEU B   4       0.786 -37.157  -8.837  1.00 24.30 LIG 0.16  HD
BRANCH 37 40
ATOM     40  CA  TRP B   3       3.206 -36.509  -8.154  1.00 26.39 LIG 0.18  C 
BRANCH 40 41
ATOM     41  CB  TRP B   3       3.013 -37.907  -7.565  1.00 26.78 LIG 0.07  C 
BRANCH 41 42
ATOM     42  CG  TRP B   3       2.640 -37.835  -6.190  1.00 25.50 LIG-0.03  A 
ATOM     43  CD1 TRP B   3       3.444 -37.515  -5.148  1.00 28.00 LIG 0.10  A 
ATOM     44  NE1 TRP B   3       2.747 -37.580  -3.981  1.00 26.39 LIG-0.36  N 
ATOM     45 HE1  TRP B   3       3.065 -37.415  -3.199  1.00 26.39 LIG 0.17  HD
ATOM     46  CE2 TRP B   3       1.464 -37.948  -4.250  1.00 23.90 LIG 0.04  A 
ATOM     47  CZ2 TRP B   3       0.391 -38.154  -3.380  1.00 23.10 LIG 0.03  A 
ATOM     48  CD2 TRP B   3       1.362 -38.110  -5.642  1.00 23.76 LIG-0.00  A 
ATOM     49  CH2 TRP B   3      -0.802 -38.502  -3.921  1.00 22.34 LIG 0.00  A 
ATOM     50  CZ3 TRP B   3      -0.946 -38.690  -5.306  1.00 25.34 LIG 0.00  A 
ATOM     51  CE3 TRP B   3       0.153 -38.499  -6.182  1.00 25.10 LIG 0.01  A 
ENDBRANCH 41 42
ENDBRANCH 40 41
BRANCH 40 52
ATOM     52  N   TRP B   3       4.259 -35.765  -7.452  1.00 27.54 LIG-0.35  N 
ATOM     53  C   ALA B   2       5.480 -35.732  -7.995  1.00 31.13 LIG 0.24  C 
ATOM     54 O    ALA B   2       5.724 -36.320  -9.043  1.00 30.30 LIG-0.27  OA
ATOM     55 H    TRP B   3       4.026 -35.384  -6.716  1.00 27.54 LIG 0.16  HD
BRANCH 53 56
ATOM     56  CA  ALA B   2       6.577 -34.928  -7.278  1.00 33.66 LIG 0.17  C 
ATOM     57  CB  ALA B   2       7.950 -35.082  -7.980  1.00 33.40 LIG 0.04  C 
BRANCH 56 58
ATOM     58  N   ALA B   2       6.739 -35.260  -5.858  1.00 35.64 LIG-0.35  N 
ATOM     59 H    ALA B   2       6.693 -34.589  -5.321  1.00 35.64 LIG 0.16  HD
ATOM     60  C   ALA B   1       6.940 -36.519  -5.478  1.00 39.08 LIG 0.25  C 
ATOM     61 O    ALA B   1       7.357 -37.355  -6.250  1.00 40.54 LIG-0.27  OA
BRANCH 60 62
ATOM     62  CA  ALA B   1       6.693 -36.905  -3.998  1.00 41.05 LIG 0.27  C 
ATOM     63  CB  ALA B   1       6.309 -38.397  -3.875  1.00 41.95 LIG 0.05  C 
BRANCH 62 64
ATOM     64  N   ALA B   1       5.647 -36.066  -3.355  1.00 41.48 LIG-0.07  N 
ATOM     65 H3   ALA B   1       5.704 -35.233  -3.663  1.00 41.48 LIG 0.28  HD
ATOM     66 H2   ALA B   1       5.768 -36.065  -2.473  1.00 41.48 LIG 0.28  HD
ATOM     67 H1   ALA B   1       4.843 -36.396  -3.544  1.00 41.48 LIG 0.28  HD
ENDBRANCH 62 64
ENDBRANCH 60 62
ENDBRANCH 56 58
ENDBRANCH 53 56
ENDBRANCH 40 52
ENDBRANCH 37 40
ENDBRANCH 1 36
TORSDOF 23
ENDMDL
MODEL 54
USER: ADFR SOLUTION from run 195
USER: SCORE 21.878089 LL:  -6.674 LR: -16.670 RR:   0.000 FEB:  -9.809
USER: RMSD 6.396314
USER: SEED 194
USER: STATUS no improvement in best in 4 clusters for 5 generations
USER: GENES 25
USER: genes 0 Translation |==|  0.41730 0.39100 0.61212
USER: genes 1 Rotation |==|  0.61131 0.24030 0.30969 0.86599
USER: genes 2 Torsion [N]-CA--C-[N] |==|  0.43552
USER: genes 3 Torsion [C]-N--CA-[CB] |==|  0.20293
USER: genes 4 Torsion [N]-CA--CB-[CG] |==|  0.18866
USER: genes 5 Torsion [CA]-CB--CG-[CD1] |==|  0.93639
USER: genes 6 Torsion [N]-CA--C-[N] |==|  0.48131
USER: genes 7 Torsion [C]-N--CA-[C] |==|  0.15022
USER: genes 8 Torsion [N]-CA--CB-[CG] |==|  0.22049
USER: genes 9 Torsion [CA]-CB--CG-[CD] |==|  0.39443
USER: genes 10 Torsion [CB]-CG--CD-[OE2] |==|  0.16484
USER: genes 11 Torsion [N]-CA--C-[N] |==|  0.10040
USER: genes 12 Torsion [C]-N--CA-[CB] |==|  0.84904
USER: genes 13 Torsion [N]-CA--C-[O] |==|  0.20143
USER: genes 14 Torsion [C]-CA--CB-[CG] |==|  0.25264
USER: genes 15 Torsion [CA]-CB--CG-[CD1] |==|  0.32412
USER: genes 16 Torsion [C]-CA--N-[C] |==|  0.56262
USER: genes 17 Torsion [N]-C--CA-[N] |==|  0.91250
USER: genes 18 Torsion [C]-CA--CB-[CG] |==|  0.04268
USER: genes 19 Torsion [CA]-CB--CG-[CD1] |==|  0.22967
USER: genes 20 Torsion [C]-CA--N-[C] |==|  0.75701
USER: genes 21 Torsion [N]-C--CA-[N] |==|  0.93132
USER: genes 22 Torsion [C]-CA--N-[C] |==|  0.74454
USER: genes 23 Torsion [N]-C--CA-[N] |==|  0.79045
USER: genes 24 Torsion [C]-CA--N-[H3] |==|  0.86231
ROOT
ATOM      1  CA  LEU B   4       1.331 -37.230  -7.327  1.00 25.55 LIG 0.18  C 
ENDROOT
BRANCH 1 2
ATOM      2  C   LEU B   4       2.527 -36.536  -7.987  1.00 26.13 LIG 0.24  C 
ATOM      3 O    LEU B   4       3.426 -36.117  -7.278  1.00 25.31 LIG-0.27  OA
ATOM      4  N   PHE B   5       2.524 -36.434  -9.326  1.00 26.68 LIG-0.35  N 
ATOM      5 H    PHE B   5       1.854 -36.641  -9.824  1.00 26.68 LIG 0.16  HD
BRANCH 4 6
ATOM      6  CA  PHE B   5       3.704 -35.947 -10.055  1.00 28.54 LIG 0.18  C 
BRANCH 6 7
ATOM      7  CB  PHE B   5       4.839 -36.994 -10.077  1.00 28.61 LIG 0.07  C 
BRANCH 7 8
ATOM      8  CG  PHE B   5       4.552 -38.213 -10.878  1.00 26.86 LIG-0.06  A 
ATOM      9  CD1 PHE B   5       3.260 -38.602 -11.147  1.00 26.13 LIG 0.01  A 
ATOM     10  CE1 PHE B   5       3.001 -39.740 -11.908  1.00 23.59 LIG 0.00  A 
ATOM     11  CZ  PHE B   5       4.069 -40.505 -12.438  1.00 25.19 LIG 0.00  A 
ATOM     12  CE2 PHE B   5       5.361 -40.139 -12.131  1.00 26.30 LIG 0.00  A 
ATOM     13  CD2 PHE B   5       5.600 -38.988 -11.379  1.00 27.99 LIG 0.01  A 
ENDBRANCH 7 8
ENDBRANCH 6 7
BRANCH 6 14
ATOM     14  C   PHE B   5       3.394 -35.547 -11.499  1.00 31.71 LIG 0.24  C 
ATOM     15  N   GLU B   6       4.380 -34.964 -12.187  1.00 34.73 LIG-0.35  N 
ATOM     16 H    GLU B   6       5.017 -34.523 -11.814  1.00 34.73 LIG 0.16  HD
ATOM     17 O    PHE B   5       2.253 -35.711 -11.942  1.00 30.66 LIG-0.27  OA
BRANCH 15 18
ATOM     18  CA  GLU B   6       4.482 -35.019 -13.674  1.00 38.89 LIG 0.18  C 
BRANCH 18 19
ATOM     19  CB  GLU B   6       4.822 -36.421 -14.194  1.00 39.10 LIG 0.04  C 
BRANCH 19 20
ATOM     20  CG  GLU B   6       3.596 -37.372 -14.238  1.00 43.96 LIG 0.12  C 
BRANCH 20 21
ATOM     21  CD  GLU B   6       3.553 -38.316 -15.450  1.00 49.39 LIG 0.17  C 
ATOM     22 OE1  GLU B   6       2.569 -38.311 -16.217  1.00 53.88 LIG-0.65  OA
ATOM     23 OE2  GLU B   6       4.509 -39.118 -15.622  1.00 56.34 LIG-0.65  OA
ENDBRANCH 20 21
ENDBRANCH 19 20
ENDBRANCH 18 19
BRANCH 18 24
ATOM     24  C   GLU B   6       3.140 -34.507 -14.284  1.00 41.03 LIG 0.24  C 
ATOM     25 O    GLU B   6       2.635 -35.036 -15.311  1.00 40.13 LIG-0.27  OA
ATOM     26  N   ALA B   7       2.561 -33.507 -13.606  1.00 43.76 LIG-0.35  N 
ATOM     27 H    ALA B   7       2.945 -33.119 -12.941  1.00 43.76 LIG 0.16  HD
BRANCH 26 28
ATOM     28  CA  ALA B   7       1.199 -32.942 -13.905  1.00 45.80 LIG 0.16  C 
ATOM     29  CB  ALA B   7       1.107 -32.500 -15.407  1.00 46.43 LIG 0.04  C 
BRANCH 28 30
ATOM     30  C   ALA B   7       0.071 -33.924 -13.624  1.00 46.67 LIG 0.22  C 
ATOM     31 O    ALA B   7      -0.236 -34.191 -12.450  1.00 48.32 LIG-0.29  OA
ENDBRANCH 28 30
ENDBRANCH 26 28
ENDBRANCH 18 24
ENDBRANCH 15 18
ENDBRANCH 6 14
ENDBRANCH 4 6
ENDBRANCH 1 2
BRANCH 1 32
ATOM     32  CB  LEU B   4       0.173 -36.254  -7.296  1.00 24.11 LIG 0.04  C 
BRANCH 32 33
ATOM     33  CG  LEU B   4      -0.747 -36.330  -8.536  1.00 25.40 LIG-0.02  C 
ATOM     34  CD2 LEU B   4      -0.674 -34.985  -9.223  1.00 26.98 LIG 0.01  C 
ATOM     35  CD1 LEU B   4      -2.219 -36.760  -8.280  1.00 25.06 LIG 0.01  C 
ENDBRANCH 32 33
ENDBRANCH 1 32
BRANCH 1 36
ATOM     36  N   LEU B   4       1.623 -37.770  -6.015  1.00 24.30 LIG-0.35  N 
ATOM     37  C   TRP B   3       0.894 -38.753  -5.491  1.00 25.24 LIG 0.24  C 
ATOM     38 O    TRP B   3      -0.029 -39.281  -6.089  1.00 25.23 LIG-0.27  OA
ATOM     39 H    LEU B   4       2.292 -37.403  -5.619  1.00 24.30 LIG 0.16  HD
BRANCH 37 40
ATOM     40  CA  TRP B   3       1.239 -39.186  -4.052  1.00 26.39 LIG 0.18  C 
BRANCH 40 41
ATOM     41  CB  TRP B   3       0.389 -38.392  -3.059  1.00 26.78 LIG 0.07  C 
BRANCH 41 42
ATOM     42  CG  TRP B   3      -0.705 -37.754  -3.717  1.00 25.50 LIG-0.03  A 
ATOM     43  CD1 TRP B   3      -1.896 -38.316  -4.039  1.00 28.00 LIG 0.10  A 
ATOM     44  NE1 TRP B   3      -2.680 -37.412  -4.686  1.00 26.39 LIG-0.36  N 
ATOM     45 HE1  TRP B   3      -3.476 -37.560  -4.979  1.00 26.39 LIG 0.17  HD
ATOM     46  CE2 TRP B   3      -2.003 -36.235  -4.797  1.00 23.90 LIG 0.04  A 
ATOM     47  CZ2 TRP B   3      -2.393 -35.031  -5.388  1.00 23.10 LIG 0.03  A 
ATOM     48  CD2 TRP B   3      -0.752 -36.417  -4.186  1.00 23.76 LIG-0.00  A 
ATOM     49  CH2 TRP B   3      -1.522 -33.994  -5.341  1.00 22.34 LIG 0.00  A 
ATOM     50  CZ3 TRP B   3      -0.253 -34.136  -4.754  1.00 25.34 LIG 0.00  A 
ATOM     51  CE3 TRP B   3       0.143 -35.367  -4.173  1.00 25.10 LIG 0.01  A 
ENDBRANCH 41 42
ENDBRANCH 40 41
BRANCH 40 52
ATOM     52  N   TRP B   3       2.674 -39.002  -3.805  1.00 27.54 LIG-0.35  N 
ATOM     53  C   ALA B   2       3.503 -40.002  -4.125  1.00 31.13 LIG 0.24  C 
ATOM     54 O    ALA B   2       3.079 -41.051  -4.597  1.00 30.30 LIG-0.27  OA
ATOM     55 H    TRP B   3       2.905 -38.248  -3.461  1.00 27.54 LIG 0.16  HD
BRANCH 53 56
ATOM     56  CA  ALA B   2       5.010 -39.801  -3.897  1.00 33.66 LIG 0.17  C 
ATOM     57  CB  ALA B   2       5.482 -40.463  -2.577  1.00 33.40 LIG 0.04  C 
BRANCH 56 58
ATOM     58  N   ALA B   2       5.440 -38.399  -3.896  1.00 35.64 LIG-0.35  N 
ATOM     59 H    ALA B   2       5.400 -38.007  -3.131  1.00 35.64 LIG 0.16  HD
ATOM     60  C   ALA B   1       5.854 -37.819  -5.021  1.00 39.08 LIG 0.25  C 
ATOM     61 O    ALA B   1       5.557 -38.264  -6.109  1.00 40.54 LIG-0.27  OA
BRANCH 60 62
ATOM     62  CA  ALA B   1       6.680 -36.512  -4.932  1.00 41.05 LIG 0.27  C 
ATOM     63  CB  ALA B   1       7.818 -36.649  -3.895  1.00 41.95 LIG 0.05  C 
BRANCH 62 64
ATOM     64  N   ALA B   1       5.843 -35.328  -4.600  1.00 41.48 LIG-0.07  N 
ATOM     65 H3   ALA B   1       5.136 -35.304  -5.139  1.00 41.48 LIG 0.28  HD
ATOM     66 H2   ALA B   1       6.323 -34.586  -4.707  1.00 41.48 LIG 0.28  HD
ATOM     67 H1   ALA B   1       5.569 -35.385  -3.756  1.00 41.48 LIG 0.28  HD
ENDBRANCH 62 64
ENDBRANCH 60 62
ENDBRANCH 56 58
ENDBRANCH 53 56
ENDBRANCH 40 52
ENDBRANCH 37 40
ENDBRANCH 1 36
TORSDOF 23
ENDMDL
MODEL 55
USER: ADFR SOLUTION from run 110
USER: SCORE 20.524548 LL:  -6.100 LR: -16.612 RR:   0.000 FEB:  -9.751
USER: RMSD 5.956568
USER: SEED 109
USER: STATUS no improvement in best in 4 clusters for 5 generations
USER: GENES 25
USER: genes 0 Translation |==|  0.32126 0.45050 0.57224
USER: genes 1 Rotation |==|  0.63589 0.35928 0.40141 0.94946
USER: genes 2 Torsion [N]-CA--C-[N] |==|  0.16731
USER: genes 3 Torsion [C]-N--CA-[CB] |==|  0.49445
USER: genes 4 Torsion [N]-CA--CB-[CG] |==|  0.07331
USER: genes 5 Torsion [CA]-CB--CG-[CD1] |==|  0.27718
USER: genes 6 Torsion [N]-CA--C-[N] |==|  0.34310
USER: genes 7 Torsion [C]-N--CA-[C] |==|  0.80031
USER: genes 8 Torsion [N]-CA--CB-[CG] |==|  0.73644
USER: genes 9 Torsion [CA]-CB--CG-[CD] |==|  0.28676
USER: genes 10 Torsion [CB]-CG--CD-[OE2] |==|  0.44587
USER: genes 11 Torsion [N]-CA--C-[N] |==|  0.97177
USER: genes 12 Torsion [C]-N--CA-[CB] |==|  0.34480
USER: genes 13 Torsion [N]-CA--C-[O] |==|  0.12358
USER: genes 14 Torsion [C]-CA--CB-[CG] |==|  0.60885
USER: genes 15 Torsion [CA]-CB--CG-[CD1] |==|  0.40933
USER: genes 16 Torsion [C]-CA--N-[C] |==|  0.73402
USER: genes 17 Torsion [N]-C--CA-[N] |==|  0.11884
USER: genes 18 Torsion [C]-CA--CB-[CG] |==|  0.60476
USER: genes 19 Torsion [CA]-CB--CG-[CD1] |==|  0.72655
USER: genes 20 Torsion [C]-CA--N-[C] |==|  0.75087
USER: genes 21 Torsion [N]-C--CA-[N] |==|  0.50957
USER: genes 22 Torsion [C]-CA--N-[C] |==|  0.54261
USER: genes 23 Torsion [N]-C--CA-[N] |==|  0.04515
USER: genes 24 Torsion [C]-CA--N-[H3] |==|  0.66121
ROOT
ATOM      1  CA  LEU B   4      -0.542 -35.980  -8.225  1.00 25.55 LIG 0.18  C 
ENDROOT
BRANCH 1 2
ATOM      2  C   LEU B   4      -0.235 -34.855  -9.218  1.00 26.13 LIG 0.24  C 
ATOM      3 O    LEU B   4      -1.028 -33.935  -9.324  1.00 25.31 LIG-0.27  OA
ATOM      4  N   PHE B   5       0.907 -34.940  -9.917  1.00 26.68 LIG-0.35  N 
ATOM      5 H    PHE B   5       1.424 -35.628  -9.919  1.00 26.68 LIG 0.16  HD
BRANCH 4 6
ATOM      6  CA  PHE B   5       1.370 -33.825 -10.757  1.00 28.54 LIG 0.18  C 
BRANCH 6 7
ATOM      7  CB  PHE B   5       2.728 -34.134 -11.425  1.00 28.61 LIG 0.07  C 
BRANCH 7 8
ATOM      8  CG  PHE B   5       3.011 -35.578 -11.632  1.00 26.86 LIG-0.06  A 
ATOM      9  CD1 PHE B   5       2.822 -36.173 -12.859  1.00 26.13 LIG 0.01  A 
ATOM     10  CE1 PHE B   5       3.102 -37.525 -13.046  1.00 23.59 LIG 0.00  A 
ATOM     11  CZ  PHE B   5       3.607 -38.307 -11.979  1.00 25.19 LIG 0.00  A 
ATOM     12  CE2 PHE B   5       3.754 -37.720 -10.741  1.00 26.30 LIG 0.00  A 
ATOM     13  CD2 PHE B   5       3.483 -36.361 -10.577  1.00 27.99 LIG 0.01  A 
ENDBRANCH 7 8
ENDBRANCH 6 7
BRANCH 6 14
ATOM     14  C   PHE B   5       0.372 -33.447 -11.855  1.00 31.71 LIG 0.24  C 
ATOM     15  N   GLU B   6      -0.047 -32.178 -11.877  1.00 34.73 LIG-0.35  N 
ATOM     16 H    GLU B   6      -0.064 -31.677 -11.178  1.00 34.73 LIG 0.16  HD
ATOM     17 O    PHE B   5      -0.050 -34.321 -12.618  1.00 30.66 LIG-0.27  OA
BRANCH 15 18
ATOM     18  CA  GLU B   6      -0.527 -31.497 -13.113  1.00 38.89 LIG 0.18  C 
BRANCH 18 19
ATOM     19  CB  GLU B   6      -1.290 -30.200 -12.817  1.00 39.10 LIG 0.04  C 
BRANCH 19 20
ATOM     20  CG  GLU B   6      -2.828 -30.395 -12.748  1.00 43.96 LIG 0.12  C 
BRANCH 20 21
ATOM     21  CD  GLU B   6      -3.413 -30.414 -11.327  1.00 49.39 LIG 0.17  C 
ATOM     22 OE1  GLU B   6      -2.685 -30.685 -10.350  1.00 53.88 LIG-0.65  OA
ATOM     23 OE2  GLU B   6      -4.644 -30.194 -11.180  1.00 56.34 LIG-0.65  OA
ENDBRANCH 20 21
ENDBRANCH 19 20
ENDBRANCH 18 19
BRANCH 18 24
ATOM     24  C   GLU B   6       0.698 -31.226 -14.040  1.00 41.03 LIG 0.24  C 
ATOM     25 O    GLU B   6       0.556 -30.793 -15.216  1.00 40.13 LIG-0.27  OA
ATOM     26  N   ALA B   7       1.891 -31.444 -13.471  1.00 43.76 LIG-0.35  N 
ATOM     27 H    ALA B   7       1.971 -31.793 -12.689  1.00 43.76 LIG 0.16  HD
BRANCH 26 28
ATOM     28  CA  ALA B   7       3.217 -31.118 -14.104  1.00 45.80 LIG 0.16  C 
ATOM     29  CB  ALA B   7       4.054 -30.178 -13.169  1.00 46.43 LIG 0.04  C 
BRANCH 28 30
ATOM     30  C   ALA B   7       4.050 -32.353 -14.414  1.00 46.67 LIG 0.22  C 
ATOM     31 O    ALA B   7       3.514 -33.343 -14.940  1.00 48.32 LIG-0.29  OA
ENDBRANCH 28 30
ENDBRANCH 26 28
ENDBRANCH 18 24
ENDBRANCH 15 18
ENDBRANCH 6 14
ENDBRANCH 4 6
ENDBRANCH 1 2
BRANCH 1 32
ATOM     32  CB  LEU B   4      -1.926 -35.748  -7.656  1.00 24.11 LIG 0.04  C 
BRANCH 32 33
ATOM     33  CG  LEU B   4      -2.049 -36.068  -6.148  1.00 25.40 LIG-0.02  C 
ATOM     34  CD2 LEU B   4      -2.374 -37.540  -6.035  1.00 26.98 LIG 0.01  C 
ATOM     35  CD1 LEU B   4      -3.048 -35.199  -5.335  1.00 25.06 LIG 0.01  C 
ENDBRANCH 32 33
ENDBRANCH 1 32
BRANCH 1 36
ATOM     36  N   LEU B   4       0.456 -36.127  -7.184  1.00 24.30 LIG-0.35  N 
ATOM     37  C   TRP B   3       1.445 -37.011  -7.289  1.00 25.24 LIG 0.24  C 
ATOM     38 O    TRP B   3       1.595 -37.719  -8.271  1.00 25.23 LIG-0.27  OA
ATOM     39 H    LEU B   4       0.349 -35.602  -6.511  1.00 24.30 LIG 0.16  HD
BRANCH 37 40
ATOM     40  CA  TRP B   3       2.394 -37.142  -6.081  1.00 26.39 LIG 0.18  C 
BRANCH 40 41
ATOM     41  CB  TRP B   3       3.231 -38.414  -6.221  1.00 26.78 LIG 0.07  C 
BRANCH 41 42
ATOM     42  CG  TRP B   3       3.424 -39.042  -4.954  1.00 25.50 LIG-0.03  A 
ATOM     43  CD1 TRP B   3       4.515 -38.940  -4.157  1.00 28.00 LIG 0.10  A 
ATOM     44  NE1 TRP B   3       4.352 -39.702  -3.041  1.00 26.39 LIG-0.36  N 
ATOM     45 HE1  TRP B   3       4.924 -39.782  -2.403  1.00 26.39 LIG 0.17  HD
ATOM     46  CE2 TRP B   3       3.139 -40.319  -3.097  1.00 23.90 LIG 0.04  A 
ATOM     47  CZ2 TRP B   3       2.541 -41.199  -2.193  1.00 23.10 LIG 0.03  A 
ATOM     48  CD2 TRP B   3       2.524 -39.915  -4.293  1.00 23.76 LIG-0.00  A 
ATOM     49  CH2 TRP B   3       1.300 -41.658  -2.487  1.00 22.34 LIG 0.00  A 
ATOM     50  CZ3 TRP B   3       0.653 -41.293  -3.679  1.00 25.34 LIG 0.00  A 
ATOM     51  CE3 TRP B   3       1.274 -40.414  -4.602  1.00 25.10 LIG 0.01  A 
ENDBRANCH 41 42
ENDBRANCH 40 41
BRANCH 40 52
ATOM     52  N   TRP B   3       1.620 -37.137  -4.834  1.00 27.54 LIG-0.35  N 
ATOM     53  C   ALA B   2       1.375 -35.961  -4.247  1.00 31.13 LIG 0.24  C 
ATOM     54 O    ALA B   2       1.798 -34.914  -4.724  1.00 30.30 LIG-0.27  OA
ATOM     55 H    TRP B   3       1.362 -37.906  -4.546  1.00 27.54 LIG 0.16  HD
BRANCH 53 56
ATOM     56  CA  ALA B   2       0.538 -35.949  -2.958  1.00 33.66 LIG 0.17  C 
ATOM     57  CB  ALA B   2      -0.806 -36.698  -3.141  1.00 33.40 LIG 0.04  C 
BRANCH 56 58
ATOM     58  N   ALA B   2       0.256 -34.608  -2.432  1.00 35.64 LIG-0.35  N 
ATOM     59 H    ALA B   2       0.398 -33.964  -2.985  1.00 35.64 LIG 0.16  HD
ATOM     60  C   ALA B   1      -0.184 -34.450  -1.186  1.00 39.08 LIG 0.25  C 
ATOM     61 O    ALA B   1      -0.023 -35.308  -0.345  1.00 40.54 LIG-0.27  OA
BRANCH 60 62
ATOM     62  CA  ALA B   1      -0.861 -33.114  -0.793  1.00 41.05 LIG 0.27  C 
ATOM     63  CB  ALA B   1      -2.086 -33.363   0.117  1.00 41.95 LIG 0.05  C 
BRANCH 62 64
ATOM     64  N   ALA B   1      -1.272 -32.311  -1.975  1.00 41.48 LIG-0.07  N 
ATOM     65 H3   ALA B   1      -0.879 -31.514  -1.944  1.00 41.48 LIG 0.28  HD
ATOM     66 H2   ALA B   1      -2.156 -32.206  -1.969  1.00 41.48 LIG 0.28  HD
ATOM     67 H1   ALA B   1      -1.029 -32.733  -2.720  1.00 41.48 LIG 0.28  HD
ENDBRANCH 62 64
ENDBRANCH 60 62
ENDBRANCH 56 58
ENDBRANCH 53 56
ENDBRANCH 40 52
ENDBRANCH 37 40
ENDBRANCH 1 36
TORSDOF 23
ENDMDL
MODEL 56
USER: ADFR SOLUTION from run 54
USER: SCORE 21.321087 LL:  -6.417 LR: -16.609 RR:   0.000 FEB:  -9.748
USER: RMSD 8.359452
USER: SEED 53
USER: STATUS no improvement in best in 1 clusters for 5 generations
USER: GENES 25
USER: genes 0 Translation |==|  0.57582 0.38585 0.42134
USER: genes 1 Rotation |==|  0.61896 0.44072 0.93554 0.70649
USER: genes 2 Torsion [N]-CA--C-[N] |==|  0.46219
USER: genes 3 Torsion [C]-N--CA-[CB] |==|  0.81448
USER: genes 4 Torsion [N]-CA--CB-[CG] |==|  0.56317
USER: genes 5 Torsion [CA]-CB--CG-[CD1] |==|  0.74078
USER: genes 6 Torsion [N]-CA--C-[N] |==|  0.77810
USER: genes 7 Torsion [C]-N--CA-[C] |==|  0.21111
USER: genes 8 Torsion [N]-CA--CB-[CG] |==|  0.74215
USER: genes 9 Torsion [CA]-CB--CG-[CD] |==|  0.81562
USER: genes 10 Torsion [CB]-CG--CD-[OE2] |==|  0.04294
USER: genes 11 Torsion [N]-CA--C-[N] |==|  0.04347
USER: genes 12 Torsion [C]-N--CA-[CB] |==|  0.05200
USER: genes 13 Torsion [N]-CA--C-[O] |==|  0.28499
USER: genes 14 Torsion [C]-CA--CB-[CG] |==|  0.87089
USER: genes 15 Torsion [CA]-CB--CG-[CD1] |==|  0.91990
USER: genes 16 Torsion [C]-CA--N-[C] |==|  0.63515
USER: genes 17 Torsion [N]-C--CA-[N] |==|  0.35124
USER: genes 18 Torsion [C]-CA--CB-[CG] |==|  0.53185
USER: genes 19 Torsion [CA]-CB--CG-[CD1] |==|  0.35997
USER: genes 20 Torsion [C]-CA--N-[C] |==|  0.73444
USER: genes 21 Torsion [N]-C--CA-[N] |==|  0.08192
USER: genes 22 Torsion [C]-CA--N-[C] |==|  0.14108
USER: genes 23 Torsion [N]-C--CA-[N] |==|  0.55811
USER: genes 24 Torsion [C]-CA--N-[H3] |==|  0.81124
ROOT
ATOM      1  CA  LEU B   4       4.423 -37.338 -11.620  1.00 25.55 LIG 0.18  C 
ENDROOT
BRANCH 1 2
ATOM      2  C   LEU B   4       4.148 -37.513 -13.117  1.00 26.13 LIG 0.24  C 
ATOM      3 O    LEU B   4       2.993 -37.623 -13.492  1.00 25.31 LIG-0.27  OA
ATOM      4  N   PHE B   5       5.205 -37.525 -13.944  1.00 26.68 LIG-0.35  N 
ATOM      5 H    PHE B   5       6.024 -37.543 -13.681  1.00 26.68 LIG 0.16  HD
BRANCH 4 6
ATOM      6  CA  PHE B   5       5.031 -37.509 -15.403  1.00 28.54 LIG 0.18  C 
BRANCH 6 7
ATOM      7  CB  PHE B   5       4.376 -38.809 -15.919  1.00 28.61 LIG 0.07  C 
BRANCH 7 8
ATOM      8  CG  PHE B   5       4.634 -39.116 -17.350  1.00 26.86 LIG-0.06  A 
ATOM      9  CD1 PHE B   5       3.758 -38.717 -18.334  1.00 26.13 LIG 0.01  A 
ATOM     10  CE1 PHE B   5       4.014 -38.999 -19.674  1.00 23.59 LIG 0.00  A 
ATOM     11  CZ  PHE B   5       5.195 -39.687 -20.048  1.00 25.19 LIG 0.00  A 
ATOM     12  CE2 PHE B   5       6.048 -40.124 -19.059  1.00 26.30 LIG 0.00  A 
ATOM     13  CD2 PHE B   5       5.781 -39.818 -17.723  1.00 27.99 LIG 0.01  A 
ENDBRANCH 7 8
ENDBRANCH 6 7
BRANCH 6 14
ATOM     14  C   PHE B   5       4.194 -36.325 -15.894  1.00 31.71 LIG 0.24  C 
ATOM     15  N   GLU B   6       2.867 -36.437 -15.780  1.00 34.73 LIG-0.35  N 
ATOM     16 H    GLU B   6       2.458 -37.194 -15.768  1.00 34.73 LIG 0.16  HD
ATOM     17 O    PHE B   5       4.757 -35.364 -16.426  1.00 30.66 LIG-0.27  OA
BRANCH 15 18
ATOM     18  CA  GLU B   6       1.955 -35.263 -15.661  1.00 38.89 LIG 0.18  C 
BRANCH 18 19
ATOM     19  CB  GLU B   6       2.437 -34.240 -14.624  1.00 39.10 LIG 0.04  C 
BRANCH 19 20
ATOM     20  CG  GLU B   6       1.835 -34.468 -13.212  1.00 43.96 LIG 0.12  C 
BRANCH 20 21
ATOM     21  CD  GLU B   6       0.319 -34.242 -13.112  1.00 49.39 LIG 0.17  C 
ATOM     22 OE1  GLU B   6      -0.233 -34.154 -11.996  1.00 53.88 LIG-0.65  OA
ATOM     23 OE2  GLU B   6      -0.353 -34.191 -14.176  1.00 56.34 LIG-0.65  OA
ENDBRANCH 20 21
ENDBRANCH 19 20
ENDBRANCH 18 19
BRANCH 18 24
ATOM     24  C   GLU B   6       1.805 -34.604 -17.067  1.00 41.03 LIG 0.24  C 
ATOM     25 O    GLU B   6       1.374 -33.427 -17.205  1.00 40.13 LIG-0.27  OA
ATOM     26  N   ALA B   7       2.212 -35.368 -18.090  1.00 43.76 LIG-0.35  N 
ATOM     27 H    ALA B   7       2.450 -36.187 -17.986  1.00 43.76 LIG 0.16  HD
BRANCH 26 28
ATOM     28  CA  ALA B   7       2.305 -34.908 -19.520  1.00 45.80 LIG 0.16  C 
ATOM     29  CB  ALA B   7       2.330 -33.342 -19.592  1.00 46.43 LIG 0.04  C 
BRANCH 28 30
ATOM     30  C   ALA B   7       3.536 -35.441 -20.239  1.00 46.67 LIG 0.22  C 
ATOM     31 O    ALA B   7       3.424 -36.389 -21.033  1.00 48.32 LIG-0.29  OA
ENDBRANCH 28 30
ENDBRANCH 26 28
ENDBRANCH 18 24
ENDBRANCH 15 18
ENDBRANCH 6 14
ENDBRANCH 4 6
ENDBRANCH 1 2
BRANCH 1 32
ATOM     32  CB  LEU B   4       5.119 -38.586 -11.116  1.00 24.11 LIG 0.04  C 
BRANCH 32 33
ATOM     33  CG  LEU B   4       4.463 -39.905 -11.585  1.00 25.40 LIG-0.02  C 
ATOM     34  CD2 LEU B   4       5.231 -40.371 -12.801  1.00 26.98 LIG 0.01  C 
ATOM     35  CD1 LEU B   4       2.934 -39.859 -11.860  1.00 25.06 LIG 0.01  C 
ENDBRANCH 32 33
ENDBRANCH 1 32
BRANCH 1 36
ATOM     36  N   LEU B   4       3.240 -37.025 -10.844  1.00 24.30 LIG-0.35  N 
ATOM     37  C   TRP B   3       3.229 -36.021  -9.970  1.00 25.24 LIG 0.24  C 
ATOM     38 O    TRP B   3       4.188 -35.287  -9.796  1.00 25.23 LIG-0.27  OA
ATOM     39 H    LEU B   4       2.566 -37.536 -10.998  1.00 24.30 LIG 0.16  HD
BRANCH 37 40
ATOM     40  CA  TRP B   3       1.946 -35.837  -9.135  1.00 26.39 LIG 0.18  C 
BRANCH 40 41
ATOM     41  CB  TRP B   3       1.226 -34.561  -9.573  1.00 26.78 LIG 0.07  C 
BRANCH 41 42
ATOM     42  CG  TRP B   3       0.187 -34.219  -8.656  1.00 25.50 LIG-0.03  A 
ATOM     43  CD1 TRP B   3      -0.015 -33.011  -8.075  1.00 28.00 LIG 0.10  A 
ATOM     44  NE1 TRP B   3      -1.084 -33.070  -7.235  1.00 26.39 LIG-0.36  N 
ATOM     45 HE1  TRP B   3      -1.387 -32.415  -6.766  1.00 26.39 LIG 0.17  HD
ATOM     46  CE2 TRP B   3      -1.598 -34.330  -7.256  1.00 23.90 LIG 0.04  A 
ATOM     47  CZ2 TRP B   3      -2.681 -34.867  -6.557  1.00 23.10 LIG 0.03  A 
ATOM     48  CD2 TRP B   3      -0.820 -35.080  -8.153  1.00 23.76 LIG-0.00  A 
ATOM     49  CH2 TRP B   3      -2.997 -36.165  -6.781  1.00 22.34 LIG 0.00  A 
ATOM     50  CZ3 TRP B   3      -2.236 -36.958  -7.658  1.00 25.34 LIG 0.00  A 
ATOM     51  CE3 TRP B   3      -1.125 -36.412  -8.350  1.00 25.10 LIG 0.01  A 
ENDBRANCH 41 42
ENDBRANCH 40 41
BRANCH 40 52
ATOM     52  N   TRP B   3       2.280 -35.808  -7.706  1.00 27.54 LIG-0.35  N 
ATOM     53  C   ALA B   2       2.181 -36.946  -7.010  1.00 31.13 LIG 0.24  C 
ATOM     54 O    ALA B   2       1.806 -37.984  -7.543  1.00 30.30 LIG-0.27  OA
ATOM     55 H    TRP B   3       2.525 -35.046  -7.390  1.00 27.54 LIG 0.16  HD
BRANCH 53 56
ATOM     56  CA  ALA B   2       2.560 -36.926  -5.521  1.00 33.66 LIG 0.17  C 
ATOM     57  CB  ALA B   2       1.809 -38.024  -4.725  1.00 33.40 LIG 0.04  C 
BRANCH 56 58
ATOM     58  N   ALA B   2       2.339 -35.636  -4.858  1.00 35.64 LIG-0.35  N 
ATOM     59 H    ALA B   2       3.013 -35.335  -4.415  1.00 35.64 LIG 0.16  HD
ATOM     60  C   ALA B   1       1.167 -35.015  -4.963  1.00 39.08 LIG 0.25  C 
ATOM     61 O    ALA B   1       0.158 -35.614  -5.268  1.00 40.54 LIG-0.27  OA
BRANCH 60 62
ATOM     62  CA  ALA B   1       1.084 -33.505  -4.627  1.00 41.05 LIG 0.27  C 
ATOM     63  CB  ALA B   1       2.026 -33.150  -3.454  1.00 41.95 LIG 0.05  C 
BRANCH 62 64
ATOM     64  N   ALA B   1      -0.300 -33.066  -4.306  1.00 41.48 LIG-0.07  N 
ATOM     65 H3   ALA B   1      -0.803 -33.111  -5.038  1.00 41.48 LIG 0.28  HD
ATOM     66 H2   ALA B   1      -0.284 -32.227  -4.008  1.00 41.48 LIG 0.28  HD
ATOM     67 H1   ALA B   1      -0.642 -33.596  -3.679  1.00 41.48 LIG 0.28  HD
ENDBRANCH 62 64
ENDBRANCH 60 62
ENDBRANCH 56 58
ENDBRANCH 53 56
ENDBRANCH 40 52
ENDBRANCH 37 40
ENDBRANCH 1 36
TORSDOF 23
ENDMDL
MODEL 57
USER: ADFR SOLUTION from run 185
USER: SCORE 21.280617 LL:  -6.818 LR: -16.603 RR:   0.000 FEB:  -9.743
USER: RMSD 4.932122
USER: SEED 184
USER: STATUS no improvement in best in 4 clusters for 5 generations
USER: GENES 25
USER: genes 0 Translation |==|  0.32761 0.43481 0.57731
USER: genes 1 Rotation |==|  0.71324 0.44635 0.48958 0.94893
USER: genes 2 Torsion [N]-CA--C-[N] |==|  0.28291
USER: genes 3 Torsion [C]-N--CA-[CB] |==|  0.18988
USER: genes 4 Torsion [N]-CA--CB-[CG] |==|  0.60636
USER: genes 5 Torsion [CA]-CB--CG-[CD1] |==|  0.73592
USER: genes 6 Torsion [N]-CA--C-[N] |==|  0.37602
USER: genes 7 Torsion [C]-N--CA-[C] |==|  0.63869
USER: genes 8 Torsion [N]-CA--CB-[CG] |==|  0.47372
USER: genes 9 Torsion [CA]-CB--CG-[CD] |==|  0.68721
USER: genes 10 Torsion [CB]-CG--CD-[OE2] |==|  0.64778
USER: genes 11 Torsion [N]-CA--C-[N] |==|  0.93564
USER: genes 12 Torsion [C]-N--CA-[CB] |==|  0.21387
USER: genes 13 Torsion [N]-CA--C-[O] |==|  0.98032
USER: genes 14 Torsion [C]-CA--CB-[CG] |==|  0.73755
USER: genes 15 Torsion [CA]-CB--CG-[CD1] |==|  0.28264
USER: genes 16 Torsion [C]-CA--N-[C] |==|  0.55245
USER: genes 17 Torsion [N]-C--CA-[N] |==|  0.93889
USER: genes 18 Torsion [C]-CA--CB-[CG] |==|  0.20259
USER: genes 19 Torsion [CA]-CB--CG-[CD1] |==|  0.11457
USER: genes 20 Torsion [C]-CA--N-[C] |==|  0.77355
USER: genes 21 Torsion [N]-C--CA-[N] |==|  0.95122
USER: genes 22 Torsion [C]-CA--N-[C] |==|  0.80542
USER: genes 23 Torsion [N]-C--CA-[N] |==|  0.66085
USER: genes 24 Torsion [C]-CA--N-[H3] |==|  0.07485
ROOT
ATOM      1  CA  LEU B   4      -0.418 -36.310  -8.111  1.00 25.55 LIG 0.18  C 
ENDROOT
BRANCH 1 2
ATOM      2  C   LEU B   4      -0.877 -35.009  -8.777  1.00 26.13 LIG 0.24  C 
ATOM      3 O    LEU B   4      -1.523 -34.211  -8.120  1.00 25.31 LIG-0.27  OA
ATOM      4  N   PHE B   5      -0.532 -34.814 -10.059  1.00 26.68 LIG-0.35  N 
ATOM      5 H    PHE B   5      -0.160 -35.410 -10.556  1.00 26.68 LIG 0.16  HD
BRANCH 4 6
ATOM      6  CA  PHE B   5      -0.773 -33.525 -10.724  1.00 28.54 LIG 0.18  C 
BRANCH 6 7
ATOM      7  CB  PHE B   5       0.122 -32.405 -10.150  1.00 28.61 LIG 0.07  C 
BRANCH 7 8
ATOM      8  CG  PHE B   5      -0.536 -31.078 -10.026  1.00 26.86 LIG-0.06  A 
ATOM      9  CD1 PHE B   5      -0.413 -30.126 -11.012  1.00 26.13 LIG 0.01  A 
ATOM     10  CE1 PHE B   5      -1.043 -28.889 -10.892  1.00 23.59 LIG 0.00  A 
ATOM     11  CZ  PHE B   5      -1.841 -28.599  -9.758  1.00 25.19 LIG 0.00  A 
ATOM     12  CE2 PHE B   5      -1.928 -29.537  -8.752  1.00 26.30 LIG 0.00  A 
ATOM     13  CD2 PHE B   5      -1.301 -30.775  -8.898  1.00 27.99 LIG 0.01  A 
ENDBRANCH 7 8
ENDBRANCH 6 7
BRANCH 6 14
ATOM     14  C   PHE B   5      -0.557 -33.582 -12.238  1.00 31.71 LIG 0.24  C 
ATOM     15  N   GLU B   6      -1.480 -32.988 -13.001  1.00 34.73 LIG-0.35  N 
ATOM     16 H    GLU B   6      -2.296 -32.878 -12.752  1.00 34.73 LIG 0.16  HD
ATOM     17 O    PHE B   5       0.400 -34.216 -12.691  1.00 30.66 LIG-0.27  OA
BRANCH 15 18
ATOM     18  CA  GLU B   6      -1.194 -32.453 -14.363  1.00 38.89 LIG 0.18  C 
BRANCH 18 19
ATOM     19  CB  GLU B   6      -1.789 -33.321 -15.479  1.00 39.10 LIG 0.04  C 
BRANCH 19 20
ATOM     20  CG  GLU B   6      -1.703 -32.661 -16.881  1.00 43.96 LIG 0.12  C 
BRANCH 20 21
ATOM     21  CD  GLU B   6      -3.056 -32.267 -17.494  1.00 49.39 LIG 0.17  C 
ATOM     22 OE1  GLU B   6      -3.871 -31.589 -16.836  1.00 53.88 LIG-0.65  OA
ATOM     23 OE2  GLU B   6      -3.335 -32.680 -18.651  1.00 56.34 LIG-0.65  OA
ENDBRANCH 20 21
ENDBRANCH 19 20
ENDBRANCH 18 19
BRANCH 18 24
ATOM     24  C   GLU B   6      -1.732 -30.990 -14.447  1.00 41.03 LIG 0.24  C 
ATOM     25 O    GLU B   6      -1.302 -30.175 -15.307  1.00 40.13 LIG-0.27  OA
ATOM     26  N   ALA B   7      -2.704 -30.700 -13.573  1.00 43.76 LIG-0.35  N 
ATOM     27 H    ALA B   7      -2.947 -31.248 -12.955  1.00 43.76 LIG 0.16  HD
BRANCH 26 28
ATOM     28  CA  ALA B   7      -3.483 -29.412 -13.551  1.00 45.80 LIG 0.16  C 
ATOM     29  CB  ALA B   7      -4.561 -29.406 -14.690  1.00 46.43 LIG 0.04  C 
BRANCH 28 30
ATOM     30  C   ALA B   7      -4.184 -29.161 -12.225  1.00 46.67 LIG 0.22  C 
ATOM     31 O    ALA B   7      -4.185 -30.044 -11.350  1.00 48.32 LIG-0.29  OA
ENDBRANCH 28 30
ENDBRANCH 26 28
ENDBRANCH 18 24
ENDBRANCH 15 18
ENDBRANCH 6 14
ENDBRANCH 4 6
ENDBRANCH 1 2
BRANCH 1 32
ATOM     32  CB  LEU B   4      -1.600 -36.914  -7.381  1.00 24.11 LIG 0.04  C 
BRANCH 32 33
ATOM     33  CG  LEU B   4      -1.679 -36.531  -5.885  1.00 25.40 LIG-0.02  C 
ATOM     34  CD2 LEU B   4      -1.931 -37.808  -5.116  1.00 26.98 LIG 0.01  C 
ATOM     35  CD1 LEU B   4      -2.703 -35.425  -5.506  1.00 25.06 LIG 0.01  C 
ENDBRANCH 32 33
ENDBRANCH 1 32
BRANCH 1 36
ATOM     36  N   LEU B   4       0.730 -36.145  -7.242  1.00 24.30 LIG-0.35  N 
ATOM     37  C   TRP B   3       1.482 -37.182  -6.881  1.00 25.24 LIG 0.24  C 
ATOM     38 O    TRP B   3       1.280 -38.316  -7.283  1.00 25.23 LIG-0.27  OA
ATOM     39 H    LEU B   4       0.873 -35.336  -6.989  1.00 24.30 LIG 0.16  HD
BRANCH 37 40
ATOM     40  CA  TRP B   3       2.623 -36.903  -5.882  1.00 26.39 LIG 0.18  C 
BRANCH 40 41
ATOM     41  CB  TRP B   3       2.197 -37.342  -4.480  1.00 26.78 LIG 0.07  C 
BRANCH 41 42
ATOM     42  CG  TRP B   3       2.185 -38.764  -4.371  1.00 25.50 LIG-0.03  A 
ATOM     43  CD1 TRP B   3       3.103 -39.623  -4.876  1.00 28.00 LIG 0.10  A 
ATOM     44  NE1 TRP B   3       2.745 -40.907  -4.600  1.00 26.39 LIG-0.36  N 
ATOM     45 HE1  TRP B   3       3.187 -41.609  -4.828  1.00 26.39 LIG 0.17  HD
ATOM     46  CE2 TRP B   3       1.575 -40.902  -3.904  1.00 23.90 LIG 0.04  A 
ATOM     47  CZ2 TRP B   3       0.821 -41.970  -3.414  1.00 23.10 LIG 0.03  A 
ATOM     48  CD2 TRP B   3       1.198 -39.559  -3.736  1.00 23.76 LIG-0.00  A 
ATOM     49  CH2 TRP B   3      -0.312 -41.682  -2.728  1.00 22.34 LIG 0.00  A 
ATOM     50  CZ3 TRP B   3      -0.735 -40.353  -2.549  1.00 25.34 LIG 0.00  A 
ATOM     51  CE3 TRP B   3       0.025 -39.274  -3.066  1.00 25.10 LIG 0.01  A 
ENDBRANCH 41 42
ENDBRANCH 40 41
BRANCH 40 52
ATOM     52  N   TRP B   3       2.982 -35.480  -5.919  1.00 27.54 LIG-0.35  N 
ATOM     53  C   ALA B   2       3.800 -35.060  -6.890  1.00 31.13 LIG 0.24  C 
ATOM     54 O    ALA B   2       4.254 -35.841  -7.719  1.00 30.30 LIG-0.27  OA
ATOM     55 H    TRP B   3       2.639 -34.987  -5.302  1.00 27.54 LIG 0.16  HD
BRANCH 53 56
ATOM     56  CA  ALA B   2       4.154 -33.565  -6.950  1.00 33.66 LIG 0.17  C 
ATOM     57  CB  ALA B   2       5.604 -33.300  -6.474  1.00 33.40 LIG 0.04  C 
BRANCH 56 58
ATOM     58  N   ALA B   2       3.247 -32.698  -6.189  1.00 35.64 LIG-0.35  N 
ATOM     59 H    ALA B   2       3.589 -32.347  -5.482  1.00 35.64 LIG 0.16  HD
ATOM     60  C   ALA B   1       1.997 -32.500  -6.603  1.00 39.08 LIG 0.25  C 
ATOM     61 O    ALA B   1       1.452 -33.271  -7.363  1.00 40.54 LIG-0.27  OA
BRANCH 60 62
ATOM     62  CA  ALA B   1       1.206 -31.290  -6.048  1.00 41.05 LIG 0.27  C 
ATOM     63  CB  ALA B   1       2.075 -30.464  -5.072  1.00 41.95 LIG 0.05  C 
BRANCH 62 64
ATOM     64  N   ALA B   1      -0.056 -31.693  -5.373  1.00 41.48 LIG-0.07  N 
ATOM     65 H3   ALA B   1       0.028 -32.520  -5.057  1.00 41.48 LIG 0.28  HD
ATOM     66 H2   ALA B   1      -0.727 -31.665  -5.957  1.00 41.48 LIG 0.28  HD
ATOM     67 H1   ALA B   1      -0.225 -31.135  -4.700  1.00 41.48 LIG 0.28  HD
ENDBRANCH 62 64
ENDBRANCH 60 62
ENDBRANCH 56 58
ENDBRANCH 53 56
ENDBRANCH 40 52
ENDBRANCH 37 40
ENDBRANCH 1 36
TORSDOF 23
ENDMDL
MODEL 58
USER: ADFR SOLUTION from run 39
USER: SCORE 21.017939 LL:  -5.386 LR: -16.581 RR:   0.000 FEB:  -9.720
USER: RMSD 9.512301
USER: SEED 38
USER: STATUS no improvement in best in 3 clusters for 5 generations
USER: GENES 25
USER: genes 0 Translation |==|  0.58514 0.37256 0.53365
USER: genes 1 Rotation |==|  0.40888 0.86849 0.47088 0.82414
USER: genes 2 Torsion [N]-CA--C-[N] |==|  0.49601
USER: genes 3 Torsion [C]-N--CA-[CB] |==|  0.16033
USER: genes 4 Torsion [N]-CA--CB-[CG] |==|  0.60380
USER: genes 5 Torsion [CA]-CB--CG-[CD1] |==|  0.74179
USER: genes 6 Torsion [N]-CA--C-[N] |==|  0.64535
USER: genes 7 Torsion [C]-N--CA-[C] |==|  0.82036
USER: genes 8 Torsion [N]-CA--CB-[CG] |==|  0.15801
USER: genes 9 Torsion [CA]-CB--CG-[CD] |==|  0.23493
USER: genes 10 Torsion [CB]-CG--CD-[OE2] |==|  0.04307
USER: genes 11 Torsion [N]-CA--C-[N] |==|  0.37692
USER: genes 12 Torsion [C]-N--CA-[CB] |==|  0.16404
USER: genes 13 Torsion [N]-CA--C-[O] |==|  0.36903
USER: genes 14 Torsion [C]-CA--CB-[CG] |==|  0.39841
USER: genes 15 Torsion [CA]-CB--CG-[CD1] |==|  0.68927
USER: genes 16 Torsion [C]-CA--N-[C] |==|  0.78229
USER: genes 17 Torsion [N]-C--CA-[N] |==|  0.03501
USER: genes 18 Torsion [C]-CA--CB-[CG] |==|  0.87142
USER: genes 19 Torsion [CA]-CB--CG-[CD1] |==|  0.80531
USER: genes 20 Torsion [C]-CA--N-[C] |==|  0.68336
USER: genes 21 Torsion [N]-C--CA-[N] |==|  0.36965
USER: genes 22 Torsion [C]-CA--N-[C] |==|  0.81938
USER: genes 23 Torsion [N]-C--CA-[N] |==|  0.04816
USER: genes 24 Torsion [C]-CA--N-[H3] |==|  0.96205
ROOT
ATOM      1  CA  LEU B   4       4.604 -37.617  -9.093  1.00 25.55 LIG 0.18  C 
ENDROOT
BRANCH 1 2
ATOM      2  C   LEU B   4       3.335 -37.248  -8.318  1.00 26.13 LIG 0.24  C 
ATOM      3 O    LEU B   4       2.394 -36.771  -8.929  1.00 25.31 LIG-0.27  OA
ATOM      4  N   PHE B   5       3.327 -37.480  -6.996  1.00 26.68 LIG-0.35  N 
ATOM      5 H    PHE B   5       4.016 -37.726  -6.544  1.00 26.68 LIG 0.16  HD
BRANCH 4 6
ATOM      6  CA  PHE B   5       2.098 -37.325  -6.204  1.00 28.54 LIG 0.18  C 
BRANCH 6 7
ATOM      7  CB  PHE B   5       0.956 -38.221  -6.733  1.00 28.61 LIG 0.07  C 
BRANCH 7 8
ATOM      8  CG  PHE B   5      -0.398 -37.611  -6.675  1.00 26.86 LIG-0.06  A 
ATOM      9  CD1 PHE B   5      -1.224 -37.810  -5.593  1.00 26.13 LIG 0.01  A 
ATOM     10  CE1 PHE B   5      -2.488 -37.225  -5.543  1.00 23.59 LIG 0.00  A 
ATOM     11  CZ  PHE B   5      -2.935 -36.395  -6.601  1.00 25.19 LIG 0.00  A 
ATOM     12  CE2 PHE B   5      -2.124 -36.233  -7.702  1.00 26.30 LIG 0.00  A 
ATOM     13  CD2 PHE B   5      -0.856 -36.816  -7.727  1.00 27.99 LIG 0.01  A 
ENDBRANCH 7 8
ENDBRANCH 6 7
BRANCH 6 14
ATOM     14  C   PHE B   5       2.298 -37.631  -4.718  1.00 31.71 LIG 0.24  C 
ATOM     15  N   GLU B   6       1.458 -38.511  -4.166  1.00 34.73 LIG-0.35  N 
ATOM     16 H    GLU B   6       0.664 -38.655  -4.466  1.00 34.73 LIG 0.16  HD
ATOM     17 O    PHE B   5       3.163 -37.019  -4.084  1.00 30.66 LIG-0.27  OA
BRANCH 15 18
ATOM     18  CA  GLU B   6       1.806 -39.337  -2.974  1.00 38.89 LIG 0.18  C 
BRANCH 18 19
ATOM     19  CB  GLU B   6       0.607 -40.118  -2.423  1.00 39.10 LIG 0.04  C 
BRANCH 19 20
ATOM     20  CG  GLU B   6      -0.056 -41.047  -3.475  1.00 43.96 LIG 0.12  C 
BRANCH 20 21
ATOM     21  CD  GLU B   6       0.603 -42.427  -3.624  1.00 49.39 LIG 0.17  C 
ATOM     22 OE1  GLU B   6       0.321 -43.158  -4.596  1.00 53.88 LIG-0.65  OA
ATOM     23 OE2  GLU B   6       1.395 -42.816  -2.725  1.00 56.34 LIG-0.65  OA
ENDBRANCH 20 21
ENDBRANCH 19 20
ENDBRANCH 18 19
BRANCH 18 24
ATOM     24  C   GLU B   6       2.971 -40.302  -3.360  1.00 41.03 LIG 0.24  C 
ATOM     25 O    GLU B   6       2.990 -40.908  -4.465  1.00 40.13 LIG-0.27  OA
ATOM     26  N   ALA B   7       3.951 -40.389  -2.451  1.00 43.76 LIG-0.35  N 
ATOM     27 H    ALA B   7       3.897 -40.015  -1.678  1.00 43.76 LIG 0.16  HD
BRANCH 26 28
ATOM     28  CA  ALA B   7       5.244 -41.132  -2.651  1.00 45.80 LIG 0.16  C 
ATOM     29  CB  ALA B   7       6.020 -40.559  -3.887  1.00 46.43 LIG 0.04  C 
BRANCH 28 30
ATOM     30  C   ALA B   7       6.160 -41.073  -1.439  1.00 46.67 LIG 0.22  C 
ATOM     31 O    ALA B   7       6.694 -42.113  -1.017  1.00 48.32 LIG-0.29  OA
ENDBRANCH 28 30
ENDBRANCH 26 28
ENDBRANCH 18 24
ENDBRANCH 15 18
ENDBRANCH 6 14
ENDBRANCH 4 6
ENDBRANCH 1 2
BRANCH 1 32
ATOM     32  CB  LEU B   4       5.775 -36.893  -8.461  1.00 24.11 LIG 0.04  C 
BRANCH 32 33
ATOM     33  CG  LEU B   4       7.086 -37.712  -8.442  1.00 25.40 LIG-0.02  C 
ATOM     34  CD2 LEU B   4       6.886 -38.884  -9.376  1.00 26.98 LIG 0.01  C 
ATOM     35  CD1 LEU B   4       7.595 -38.172  -7.048  1.00 25.06 LIG 0.01  C 
ENDBRANCH 32 33
ENDBRANCH 1 32
BRANCH 1 36
ATOM     36  N   LEU B   4       4.512 -37.363 -10.516  1.00 24.30 LIG-0.35  N 
ATOM     37  C   TRP B   3       3.859 -38.191 -11.329  1.00 25.24 LIG 0.24  C 
ATOM     38 O    TRP B   3       3.273 -39.183 -10.928  1.00 25.23 LIG-0.27  OA
ATOM     39 H    LEU B   4       4.910 -36.646 -10.777  1.00 24.30 LIG 0.16  HD
BRANCH 37 40
ATOM     40  CA  TRP B   3       3.904 -37.868 -12.836  1.00 26.39 LIG 0.18  C 
BRANCH 40 41
ATOM     41  CB  TRP B   3       4.166 -39.149 -13.629  1.00 26.78 LIG 0.07  C 
BRANCH 41 42
ATOM     42  CG  TRP B   3       5.229 -39.903 -13.047  1.00 25.50 LIG-0.03  A 
ATOM     43  CD1 TRP B   3       6.544 -39.574 -13.038  1.00 28.00 LIG 0.10  A 
ATOM     44  NE1 TRP B   3       7.265 -40.548 -12.419  1.00 26.39 LIG-0.36  N 
ATOM     45 HE1  TRP B   3       8.118 -40.541 -12.303  1.00 26.39 LIG 0.17  HD
ATOM     46  CE2 TRP B   3       6.421 -41.536 -12.012  1.00 23.90 LIG 0.04  A 
ATOM     47  CZ2 TRP B   3       6.698 -42.732 -11.347  1.00 23.10 LIG 0.03  A 
ATOM     48  CD2 TRP B   3       5.123 -41.153 -12.388  1.00 23.76 LIG-0.00  A 
ATOM     49  CH2 TRP B   3       5.655 -43.539 -11.038  1.00 22.34 LIG 0.00  A 
ATOM     50  CZ3 TRP B   3       4.341 -43.203 -11.408  1.00 25.34 LIG 0.00  A 
ATOM     51  CE3 TRP B   3       4.069 -41.996 -12.100  1.00 25.10 LIG 0.01  A 
ENDBRANCH 41 42
ENDBRANCH 40 41
BRANCH 40 52
ATOM     52  N   TRP B   3       4.928 -36.850 -13.098  1.00 27.54 LIG-0.35  N 
ATOM     53  C   ALA B   2       4.529 -35.650 -13.535  1.00 31.13 LIG 0.24  C 
ATOM     54 O    ALA B   2       3.343 -35.408 -13.728  1.00 30.30 LIG-0.27  OA
ATOM     55 H    TRP B   3       5.743 -37.086 -12.954  1.00 27.54 LIG 0.16  HD
BRANCH 53 56
ATOM     56  CA  ALA B   2       5.596 -34.571 -13.781  1.00 33.66 LIG 0.17  C 
ATOM     57  CB  ALA B   2       5.623 -33.522 -12.641  1.00 33.40 LIG 0.04  C 
BRANCH 56 58
ATOM     58  N   ALA B   2       5.458 -33.866 -15.061  1.00 35.64 LIG-0.35  N 
ATOM     59 H    ALA B   2       5.274 -33.028 -14.996  1.00 35.64 LIG 0.16  HD
ATOM     60  C   ALA B   1       5.617 -34.518 -16.211  1.00 39.08 LIG 0.25  C 
ATOM     61 O    ALA B   1       5.509 -35.724 -16.275  1.00 40.54 LIG-0.27  OA
BRANCH 60 62
ATOM     62  CA  ALA B   1       5.882 -33.707 -17.503  1.00 41.05 LIG 0.27  C 
ATOM     63  CB  ALA B   1       6.925 -34.417 -18.395  1.00 41.95 LIG 0.05  C 
BRANCH 62 64
ATOM     64  N   ALA B   1       6.328 -32.316 -17.224  1.00 41.48 LIG-0.07  N 
ATOM     65 H3   ALA B   1       6.180 -32.123 -16.368  1.00 41.48 LIG 0.28  HD
ATOM     66 H2   ALA B   1       5.875 -31.749 -17.739  1.00 41.48 LIG 0.28  HD
ATOM     67 H1   ALA B   1       7.198 -32.242 -17.397  1.00 41.48 LIG 0.28  HD
ENDBRANCH 62 64
ENDBRANCH 60 62
ENDBRANCH 56 58
ENDBRANCH 53 56
ENDBRANCH 40 52
ENDBRANCH 37 40
ENDBRANCH 1 36
TORSDOF 23
ENDMDL
MODEL 59
USER: ADFR SOLUTION from run 83
USER: SCORE 22.297024 LL:  -7.330 LR: -16.559 RR:   0.000 FEB:  -9.698
USER: RMSD 6.008376
USER: SEED 82
USER: STATUS no improvement in best in 6 clusters for 5 generations
USER: GENES 25
USER: genes 0 Translation |==|  0.39360 0.39271 0.61005
USER: genes 1 Rotation |==|  0.55084 0.27773 0.28648 0.89041
USER: genes 2 Torsion [N]-CA--C-[N] |==|  0.28297
USER: genes 3 Torsion [C]-N--CA-[CB] |==|  0.54450
USER: genes 4 Torsion [N]-CA--CB-[CG] |==|  0.72569
USER: genes 5 Torsion [CA]-CB--CG-[CD1] |==|  0.87408
USER: genes 6 Torsion [N]-CA--C-[N] |==|  0.81509
USER: genes 7 Torsion [C]-N--CA-[C] |==|  0.68941
USER: genes 8 Torsion [N]-CA--CB-[CG] |==|  0.10843
USER: genes 9 Torsion [CA]-CB--CG-[CD] |==|  0.27722
USER: genes 10 Torsion [CB]-CG--CD-[OE2] |==|  0.38427
USER: genes 11 Torsion [N]-CA--C-[N] |==|  0.37285
USER: genes 12 Torsion [C]-N--CA-[CB] |==|  0.33074
USER: genes 13 Torsion [N]-CA--C-[O] |==|  0.59275
USER: genes 14 Torsion [C]-CA--CB-[CG] |==|  0.32138
USER: genes 15 Torsion [CA]-CB--CG-[CD1] |==|  0.43639
USER: genes 16 Torsion [C]-CA--N-[C] |==|  0.67222
USER: genes 17 Torsion [N]-C--CA-[N] |==|  0.94418
USER: genes 18 Torsion [C]-CA--CB-[CG] |==|  0.90660
USER: genes 19 Torsion [CA]-CB--CG-[CD1] |==|  0.30318
USER: genes 20 Torsion [C]-CA--N-[C] |==|  0.76842
USER: genes 21 Torsion [N]-C--CA-[N] |==|  0.90344
USER: genes 22 Torsion [C]-CA--N-[C] |==|  0.83826
USER: genes 23 Torsion [N]-C--CA-[N] |==|  0.21641
USER: genes 24 Torsion [C]-CA--N-[H3] |==|  0.96805
ROOT
ATOM      1  CA  LEU B   4       0.869 -37.194  -7.374  1.00 25.55 LIG 0.18  C 
ENDROOT
BRANCH 1 2
ATOM      2  C   LEU B   4       1.905 -36.719  -8.398  1.00 26.13 LIG 0.24  C 
ATOM      3 O    LEU B   4       2.415 -35.622  -8.249  1.00 25.31 LIG-0.27  OA
ATOM      4  N   PHE B   5       2.205 -37.550  -9.408  1.00 26.68 LIG-0.35  N 
ATOM      5 H    PHE B   5       1.783 -38.282  -9.573  1.00 26.68 LIG 0.16  HD
BRANCH 4 6
ATOM      6  CA  PHE B   5       3.309 -37.257 -10.333  1.00 28.54 LIG 0.18  C 
BRANCH 6 7
ATOM      7  CB  PHE B   5       3.225 -38.109 -11.618  1.00 28.61 LIG 0.07  C 
BRANCH 7 8
ATOM      8  CG  PHE B   5       4.097 -39.313 -11.631  1.00 26.86 LIG-0.06  A 
ATOM      9  CD1 PHE B   5       5.409 -39.247 -11.221  1.00 26.13 LIG 0.01  A 
ATOM     10  CE1 PHE B   5       6.215 -40.383 -11.226  1.00 23.59 LIG 0.00  A 
ATOM     11  CZ  PHE B   5       5.689 -41.633 -11.635  1.00 25.19 LIG 0.00  A 
ATOM     12  CE2 PHE B   5       4.388 -41.688 -12.086  1.00 26.30 LIG 0.00  A 
ATOM     13  CD2 PHE B   5       3.593 -40.542 -12.059  1.00 27.99 LIG 0.01  A 
ENDBRANCH 7 8
ENDBRANCH 6 7
BRANCH 6 14
ATOM     14  C   PHE B   5       3.377 -35.783 -10.739  1.00 31.71 LIG 0.24  C 
ATOM     15  N   GLU B   6       2.367 -35.316 -11.479  1.00 34.73 LIG-0.35  N 
ATOM     16 H    GLU B   6       1.889 -35.815 -11.992  1.00 34.73 LIG 0.16  HD
ATOM     17 O    PHE B   5       4.369 -35.115 -10.434  1.00 30.66 LIG-0.27  OA
BRANCH 15 18
ATOM     18  CA  GLU B   6       1.961 -33.881 -11.495  1.00 38.89 LIG 0.18  C 
BRANCH 18 19
ATOM     19  CB  GLU B   6       1.950 -33.284 -12.908  1.00 39.10 LIG 0.04  C 
BRANCH 19 20
ATOM     20  CG  GLU B   6       1.409 -34.264 -13.984  1.00 43.96 LIG 0.12  C 
BRANCH 20 21
ATOM     21  CD  GLU B   6      -0.055 -34.035 -14.388  1.00 49.39 LIG 0.17  C 
ATOM     22 OE1  GLU B   6      -0.922 -33.816 -13.518  1.00 53.88 LIG-0.65  OA
ATOM     23 OE2  GLU B   6      -0.362 -34.117 -15.607  1.00 56.34 LIG-0.65  OA
ENDBRANCH 20 21
ENDBRANCH 19 20
ENDBRANCH 18 19
BRANCH 18 24
ATOM     24  C   GLU B   6       0.559 -33.752 -10.823  1.00 41.03 LIG 0.24  C 
ATOM     25 O    GLU B   6      -0.372 -34.565 -11.074  1.00 40.13 LIG-0.27  OA
ATOM     26  N   ALA B   7       0.450 -32.752  -9.940  1.00 43.76 LIG-0.35  N 
ATOM     27 H    ALA B   7       1.074 -32.172  -9.822  1.00 43.76 LIG 0.16  HD
BRANCH 26 28
ATOM     28  CA  ALA B   7      -0.746 -32.512  -9.058  1.00 45.80 LIG 0.16  C 
ATOM     29  CB  ALA B   7      -0.337 -32.599  -7.546  1.00 46.43 LIG 0.04  C 
BRANCH 28 30
ATOM     30  C   ALA B   7      -1.404 -31.162  -9.300  1.00 46.67 LIG 0.22  C 
ATOM     31 O    ALA B   7      -1.931 -30.554  -8.353  1.00 48.32 LIG-0.29  OA
ENDBRANCH 28 30
ENDBRANCH 26 28
ENDBRANCH 18 24
ENDBRANCH 15 18
ENDBRANCH 6 14
ENDBRANCH 4 6
ENDBRANCH 1 2
BRANCH 1 32
ATOM     32  CB  LEU B   4      -0.122 -36.071  -7.145  1.00 24.11 LIG 0.04  C 
BRANCH 32 33
ATOM     33  CG  LEU B   4      -1.564 -36.404  -7.593  1.00 25.40 LIG-0.02  C 
ATOM     34  CD2 LEU B   4      -1.599 -36.274  -9.099  1.00 26.98 LIG 0.01  C 
ATOM     35  CD1 LEU B   4      -2.703 -35.587  -6.923  1.00 25.06 LIG 0.01  C 
ENDBRANCH 32 33
ENDBRANCH 1 32
BRANCH 1 36
ATOM     36  N   LEU B   4       1.450 -37.667  -6.134  1.00 24.30 LIG-0.35  N 
ATOM     37  C   TRP B   3       1.293 -38.925  -5.729  1.00 25.24 LIG 0.24  C 
ATOM     38 O    TRP B   3       0.689 -39.759  -6.384  1.00 25.23 LIG-0.27  OA
ATOM     39 H    LEU B   4       1.894 -37.073  -5.698  1.00 24.30 LIG 0.16  HD
BRANCH 37 40
ATOM     40  CA  TRP B   3       1.878 -39.293  -4.350  1.00 26.39 LIG 0.18  C 
BRANCH 40 41
ATOM     41  CB  TRP B   3       0.752 -39.372  -3.318  1.00 26.78 LIG 0.07  C 
BRANCH 41 42
ATOM     42  CG  TRP B   3      -0.273 -38.423  -3.606  1.00 25.50 LIG-0.03  A 
ATOM     43  CD1 TRP B   3      -1.520 -38.691  -4.064  1.00 28.00 LIG 0.10  A 
ATOM     44  NE1 TRP B   3      -2.210 -37.533  -4.250  1.00 26.39 LIG-0.36  N 
ATOM     45 HE1  TRP B   3      -3.019 -37.474  -4.535  1.00 26.39 LIG 0.17  HD
ATOM     46  CE2 TRP B   3      -1.412 -36.482  -3.913  1.00 23.90 LIG 0.04  A 
ATOM     47  CZ2 TRP B   3      -1.677 -35.111  -3.948  1.00 23.10 LIG 0.03  A 
ATOM     48  CD2 TRP B   3      -0.182 -37.013  -3.494  1.00 23.76 LIG-0.00  A 
ATOM     49  CH2 TRP B   3      -0.699 -34.269  -3.534  1.00 22.34 LIG 0.00  A 
ATOM     50  CZ3 TRP B   3       0.553 -34.755  -3.121  1.00 25.34 LIG 0.00  A 
ATOM     51  CE3 TRP B   3       0.821 -36.147  -3.106  1.00 25.10 LIG 0.01  A 
ENDBRANCH 41 42
ENDBRANCH 40 41
BRANCH 40 52
ATOM     52  N   TRP B   3       2.900 -38.312  -3.964  1.00 27.54 LIG-0.35  N 
ATOM     53  C   ALA B   2       4.141 -38.473  -4.436  1.00 31.13 LIG 0.24  C 
ATOM     54 O    ALA B   2       4.426 -39.421  -5.159  1.00 30.30 LIG-0.27  OA
ATOM     55 H    TRP B   3       2.638 -37.677  -3.446  1.00 27.54 LIG 0.16  HD
BRANCH 53 56
ATOM     56  CA  ALA B   2       5.206 -37.431  -4.059  1.00 33.66 LIG 0.17  C 
ATOM     57  CB  ALA B   2       5.928 -37.802  -2.739  1.00 33.40 LIG 0.04  C 
BRANCH 56 58
ATOM     58  N   ALA B   2       4.696 -36.060  -3.942  1.00 35.64 LIG-0.35  N 
ATOM     59 H    ALA B   2       4.819 -35.691  -3.175  1.00 35.64 LIG 0.16  HD
ATOM     60  C   ALA B   1       4.094 -35.473  -4.974  1.00 39.08 LIG 0.25  C 
ATOM     61 O    ALA B   1       3.620 -36.121  -5.883  1.00 40.54 LIG-0.27  OA
BRANCH 60 62
ATOM     62  CA  ALA B   1       3.944 -33.932  -4.978  1.00 41.05 LIG 0.27  C 
ATOM     63  CB  ALA B   1       2.808 -33.491  -5.930  1.00 41.95 LIG 0.05  C 
BRANCH 62 64
ATOM     64  N   ALA B   1       5.204 -33.235  -5.350  1.00 41.48 LIG-0.07  N 
ATOM     65 H3   ALA B   1       5.877 -33.818  -5.346  1.00 41.48 LIG 0.28  HD
ATOM     66 H2   ALA B   1       5.370 -32.587  -4.763  1.00 41.48 LIG 0.28  HD
ATOM     67 H1   ALA B   1       5.122 -32.885  -6.163  1.00 41.48 LIG 0.28  HD
ENDBRANCH 62 64
ENDBRANCH 60 62
ENDBRANCH 56 58
ENDBRANCH 53 56
ENDBRANCH 40 52
ENDBRANCH 37 40
ENDBRANCH 1 36
TORSDOF 23
ENDMDL
MODEL 60
USER: ADFR SOLUTION from run 158
USER: SCORE 21.325674 LL:  -5.907 LR: -16.552 RR:   0.000 FEB:  -9.692
USER: RMSD 6.123265
USER: SEED 157
USER: STATUS searching
USER: GENES 25
USER: genes 0 Translation |==|  0.29417 0.45533 0.60369
USER: genes 1 Rotation |==|  0.60578 0.30381 0.38233 0.93183
USER: genes 2 Torsion [N]-CA--C-[N] |==|  0.41667
USER: genes 3 Torsion [C]-N--CA-[CB] |==|  0.76292
USER: genes 4 Torsion [N]-CA--CB-[CG] |==|  0.63649
USER: genes 5 Torsion [CA]-CB--CG-[CD1] |==|  0.00598
USER: genes 6 Torsion [N]-CA--C-[N] |==|  0.13634
USER: genes 7 Torsion [C]-N--CA-[C] |==|  0.72313
USER: genes 8 Torsion [N]-CA--CB-[CG] |==|  0.98961
USER: genes 9 Torsion [CA]-CB--CG-[CD] |==|  0.22182
USER: genes 10 Torsion [CB]-CG--CD-[OE2] |==|  0.31061
USER: genes 11 Torsion [N]-CA--C-[N] |==|  0.00848
USER: genes 12 Torsion [C]-N--CA-[CB] |==|  0.83380
USER: genes 13 Torsion [N]-CA--C-[O] |==|  0.08250
USER: genes 14 Torsion [C]-CA--CB-[CG] |==|  0.44949
USER: genes 15 Torsion [CA]-CB--CG-[CD1] |==|  0.87112
USER: genes 16 Torsion [C]-CA--N-[C] |==|  0.64248
USER: genes 17 Torsion [N]-C--CA-[N] |==|  0.00501
USER: genes 18 Torsion [C]-CA--CB-[CG] |==|  0.29642
USER: genes 19 Torsion [CA]-CB--CG-[CD1] |==|  0.61264
USER: genes 20 Torsion [C]-CA--N-[C] |==|  0.73699
USER: genes 21 Torsion [N]-C--CA-[N] |==|  0.25063
USER: genes 22 Torsion [C]-CA--N-[C] |==|  0.65763
USER: genes 23 Torsion [N]-C--CA-[N] |==|  0.96589
USER: genes 24 Torsion [C]-CA--N-[H3] |==|  0.92637
ROOT
ATOM      1  CA  LEU B   4      -1.070 -35.879  -7.517  1.00 25.55 LIG 0.18  C 
ENDROOT
BRANCH 1 2
ATOM      2  C   LEU B   4      -0.402 -34.954  -8.539  1.00 26.13 LIG 0.24  C 
ATOM      3 O    LEU B   4       0.326 -34.063  -8.136  1.00 25.31 LIG-0.27  OA
ATOM      4  N   PHE B   5      -0.651 -35.183  -9.838  1.00 26.68 LIG-0.35  N 
ATOM      5 H    PHE B   5      -1.234 -35.746 -10.127  1.00 26.68 LIG 0.16  HD
BRANCH 4 6
ATOM      6  CA  PHE B   5       0.080 -34.465 -10.892  1.00 28.54 LIG 0.18  C 
BRANCH 6 7
ATOM      7  CB  PHE B   5      -0.568 -33.100 -11.213  1.00 28.61 LIG 0.07  C 
BRANCH 7 8
ATOM      8  CG  PHE B   5      -0.794 -32.838 -12.659  1.00 26.86 LIG-0.06  A 
ATOM      9  CD1 PHE B   5      -0.480 -33.780 -13.612  1.00 26.13 LIG 0.01  A 
ATOM     10  CE1 PHE B   5      -0.706 -33.530 -14.964  1.00 23.59 LIG 0.00  A 
ATOM     11  CZ  PHE B   5      -1.284 -32.305 -15.379  1.00 25.19 LIG 0.00  A 
ATOM     12  CE2 PHE B   5      -1.556 -31.346 -14.428  1.00 26.30 LIG 0.00  A 
ATOM     13  CD2 PHE B   5      -1.336 -31.622 -13.077  1.00 27.99 LIG 0.01  A 
ENDBRANCH 7 8
ENDBRANCH 6 7
BRANCH 6 14
ATOM     14  C   PHE B   5       1.552 -34.225 -10.545  1.00 31.71 LIG 0.24  C 
ATOM     15  N   GLU B   6       2.247 -35.280 -10.108  1.00 34.73 LIG-0.35  N 
ATOM     16 H    GLU B   6       1.882 -35.953  -9.714  1.00 34.73 LIG 0.16  HD
ATOM     17 O    PHE B   5       2.013 -33.082 -10.614  1.00 30.66 LIG-0.27  OA
BRANCH 15 18
ATOM     18  CA  GLU B   6       3.725 -35.403 -10.258  1.00 38.89 LIG 0.18  C 
BRANCH 18 19
ATOM     19  CB  GLU B   6       4.407 -35.937  -8.991  1.00 39.10 LIG 0.04  C 
BRANCH 19 20
ATOM     20  CG  GLU B   6       3.425 -36.144  -7.807  1.00 43.96 LIG 0.12  C 
BRANCH 20 21
ATOM     21  CD  GLU B   6       2.598 -37.437  -7.872  1.00 49.39 LIG 0.17  C 
ATOM     22 OE1  GLU B   6       1.696 -37.566  -8.725  1.00 53.88 LIG-0.65  OA
ATOM     23 OE2  GLU B   6       2.824 -38.338  -7.022  1.00 56.34 LIG-0.65  OA
ENDBRANCH 20 21
ENDBRANCH 19 20
ENDBRANCH 18 19
BRANCH 18 24
ATOM     24  C   GLU B   6       4.027 -36.321 -11.483  1.00 41.03 LIG 0.24  C 
ATOM     25 O    GLU B   6       5.203 -36.671 -11.775  1.00 40.13 LIG-0.27  OA
ATOM     26  N   ALA B   7       2.944 -36.733 -12.155  1.00 43.76 LIG-0.35  N 
ATOM     27 H    ALA B   7       2.154 -36.441 -11.979  1.00 43.76 LIG 0.16  HD
BRANCH 26 28
ATOM     28  CA  ALA B   7       2.960 -37.735 -13.277  1.00 45.80 LIG 0.16  C 
ATOM     29  CB  ALA B   7       3.860 -37.224 -14.455  1.00 46.43 LIG 0.04  C 
BRANCH 28 30
ATOM     30  C   ALA B   7       3.464 -39.105 -12.847  1.00 46.67 LIG 0.22  C 
ATOM     31 O    ALA B   7       3.291 -39.487 -11.677  1.00 48.32 LIG-0.29  OA
ENDBRANCH 28 30
ENDBRANCH 26 28
ENDBRANCH 18 24
ENDBRANCH 15 18
ENDBRANCH 6 14
ENDBRANCH 4 6
ENDBRANCH 1 2
BRANCH 1 32
ATOM     32  CB  LEU B   4      -2.462 -35.351  -7.236  1.00 24.11 LIG 0.04  C 
BRANCH 32 33
ATOM     33  CG  LEU B   4      -3.408 -36.387  -6.586  1.00 25.40 LIG-0.02  C 
ATOM     34  CD2 LEU B   4      -3.056 -36.445  -5.117  1.00 26.98 LIG 0.01  C 
ATOM     35  CD1 LEU B   4      -3.427 -37.804  -7.225  1.00 25.06 LIG 0.01  C 
ENDBRANCH 32 33
ENDBRANCH 1 32
BRANCH 1 36
ATOM     36  N   LEU B   4      -0.300 -36.056  -6.302  1.00 24.30 LIG-0.35  N 
ATOM     37  C   TRP B   3      -0.024 -37.267  -5.826  1.00 25.24 LIG 0.24  C 
ATOM     38 O    TRP B   3      -0.364 -38.293  -6.393  1.00 25.23 LIG-0.27  OA
ATOM     39 H    LEU B   4      -0.047 -35.323  -5.930  1.00 24.30 LIG 0.16  HD
BRANCH 37 40
ATOM     40  CA  TRP B   3       0.723 -37.333  -4.478  1.00 26.39 LIG 0.18  C 
BRANCH 40 41
ATOM     41  CB  TRP B   3      -0.071 -38.190  -3.491  1.00 26.78 LIG 0.07  C 
BRANCH 41 42
ATOM     42  CG  TRP B   3       0.557 -39.455  -3.291  1.00 25.50 LIG-0.03  A 
ATOM     43  CD1 TRP B   3      -0.059 -40.658  -3.187  1.00 28.00 LIG 0.10  A 
ATOM     44  NE1 TRP B   3       0.861 -41.637  -2.970  1.00 26.39 LIG-0.36  N 
ATOM     45 HE1  TRP B   3       0.685 -42.474  -2.874  1.00 26.39 LIG 0.17  HD
ATOM     46  CE2 TRP B   3       2.103 -41.080  -2.930  1.00 23.90 LIG 0.04  A 
ATOM     47  CZ2 TRP B   3       3.346 -41.681  -2.725  1.00 23.10 LIG 0.03  A 
ATOM     48  CD2 TRP B   3       1.945 -39.700  -3.138  1.00 23.76 LIG-0.00  A 
ATOM     49  CH2 TRP B   3       4.443 -40.887  -2.753  1.00 22.34 LIG 0.00  A 
ATOM     50  CZ3 TRP B   3       4.331 -39.498  -2.943  1.00 25.34 LIG 0.00  A 
ATOM     51  CE3 TRP B   3       3.064 -38.892  -3.131  1.00 25.10 LIG 0.01  A 
ENDBRANCH 41 42
ENDBRANCH 40 41
BRANCH 40 52
ATOM     52  N   TRP B   3       0.945 -35.977  -3.963  1.00 27.54 LIG-0.35  N 
ATOM     53  C   ALA B   2       2.112 -35.381  -4.232  1.00 31.13 LIG 0.24  C 
ATOM     54 O    ALA B   2       2.983 -35.955  -4.876  1.00 30.30 LIG-0.27  OA
ATOM     55 H    TRP B   3       0.299 -35.634  -3.509  1.00 27.54 LIG 0.16  HD
BRANCH 53 56
ATOM     56  CA  ALA B   2       2.336 -33.949  -3.721  1.00 33.66 LIG 0.17  C 
ATOM     57  CB  ALA B   2       3.204 -33.120  -4.701  1.00 33.40 LIG 0.04  C 
BRANCH 56 58
ATOM     58  N   ALA B   2       2.938 -33.871  -2.385  1.00 35.64 LIG-0.35  N 
ATOM     59 H    ALA B   2       3.692 -34.276  -2.302  1.00 35.64 LIG 0.16  HD
ATOM     60  C   ALA B   1       2.323 -33.211  -1.406  1.00 39.08 LIG 0.25  C 
ATOM     61 O    ALA B   1       1.134 -32.979  -1.447  1.00 40.54 LIG-0.27  OA
BRANCH 60 62
ATOM     62  CA  ALA B   1       3.139 -32.787  -0.159  1.00 41.05 LIG 0.27  C 
ATOM     63  CB  ALA B   1       3.312 -31.252  -0.110  1.00 41.95 LIG 0.05  C 
BRANCH 62 64
ATOM     64  N   ALA B   1       4.473 -33.441  -0.100  1.00 41.48 LIG-0.07  N 
ATOM     65 H3   ALA B   1       4.444 -34.216  -0.536  1.00 41.48 LIG 0.28  HD
ATOM     66 H2   ALA B   1       4.695 -33.587   0.750  1.00 41.48 LIG 0.28  HD
ATOM     67 H1   ALA B   1       5.081 -32.912  -0.477  1.00 41.48 LIG 0.28  HD
ENDBRANCH 62 64
ENDBRANCH 60 62
ENDBRANCH 56 58
ENDBRANCH 53 56
ENDBRANCH 40 52
ENDBRANCH 37 40
ENDBRANCH 1 36
TORSDOF 23
ENDMDL
MODEL 61
USER: ADFR SOLUTION from run 98
USER: SCORE 20.127364 LL:  -6.078 LR: -16.554 RR:   0.000 FEB:  -9.693
USER: RMSD 9.040179
USER: SEED 97
USER: STATUS no improvement in best in 22 clusters for 5 generations
USER: GENES 25
USER: genes 0 Translation |==|  0.62435 0.27646 0.41139
USER: genes 1 Rotation |==|  0.57033 0.30734 0.77252 0.86561
USER: genes 2 Torsion [N]-CA--C-[N] |==|  0.85776
USER: genes 3 Torsion [C]-N--CA-[CB] |==|  0.15810
USER: genes 4 Torsion [N]-CA--CB-[CG] |==|  0.61259
USER: genes 5 Torsion [CA]-CB--CG-[CD1] |==|  0.17341
USER: genes 6 Torsion [N]-CA--C-[N] |==|  0.24299
USER: genes 7 Torsion [C]-N--CA-[C] |==|  0.79235
USER: genes 8 Torsion [N]-CA--CB-[CG] |==|  0.55247
USER: genes 9 Torsion [CA]-CB--CG-[CD] |==|  0.27573
USER: genes 10 Torsion [CB]-CG--CD-[OE2] |==|  0.59079
USER: genes 11 Torsion [N]-CA--C-[N] |==|  0.94166
USER: genes 12 Torsion [C]-N--CA-[CB] |==|  0.47321
USER: genes 13 Torsion [N]-CA--C-[O] |==|  0.20431
USER: genes 14 Torsion [C]-CA--CB-[CG] |==|  0.24247
USER: genes 15 Torsion [CA]-CB--CG-[CD1] |==|  0.07162
USER: genes 16 Torsion [C]-CA--N-[C] |==|  0.20877
USER: genes 17 Torsion [N]-C--CA-[N] |==|  0.85260
USER: genes 18 Torsion [C]-CA--CB-[CG] |==|  0.27943
USER: genes 19 Torsion [CA]-CB--CG-[CD1] |==|  0.72374
USER: genes 20 Torsion [C]-CA--N-[C] |==|  0.68016
USER: genes 21 Torsion [N]-C--CA-[N] |==|  0.12564
USER: genes 22 Torsion [C]-CA--N-[C] |==|  0.69387
USER: genes 23 Torsion [N]-C--CA-[N] |==|  0.94337
USER: genes 24 Torsion [C]-CA--N-[H3] |==|  0.96790
ROOT
ATOM      1  CA  LEU B   4       5.369 -39.635 -11.844  1.00 25.55 LIG 0.18  C 
ENDROOT
BRANCH 1 2
ATOM      2  C   LEU B   4       5.517 -39.202 -13.305  1.00 26.13 LIG 0.24  C 
ATOM      3 O    LEU B   4       6.596 -39.347 -13.854  1.00 25.31 LIG-0.27  OA
ATOM      4  N   PHE B   5       4.436 -38.688 -13.912  1.00 26.68 LIG-0.35  N 
ATOM      5 H    PHE B   5       3.701 -38.494 -13.509  1.00 26.68 LIG 0.16  HD
BRANCH 4 6
ATOM      6  CA  PHE B   5       4.433 -38.411 -15.356  1.00 28.54 LIG 0.18  C 
BRANCH 6 7
ATOM      7  CB  PHE B   5       4.759 -39.673 -16.184  1.00 28.61 LIG 0.07  C 
BRANCH 7 8
ATOM      8  CG  PHE B   5       5.655 -39.446 -17.348  1.00 26.86 LIG-0.06  A 
ATOM      9  CD1 PHE B   5       6.942 -38.988 -17.179  1.00 26.13 LIG 0.01  A 
ATOM     10  CE1 PHE B   5       7.778 -38.789 -18.275  1.00 23.59 LIG 0.00  A 
ATOM     11  CZ  PHE B   5       7.322 -39.075 -19.585  1.00 25.19 LIG 0.00  A 
ATOM     12  CE2 PHE B   5       6.020 -39.492 -19.756  1.00 26.30 LIG 0.00  A 
ATOM     13  CD2 PHE B   5       5.203 -39.699 -18.644  1.00 27.99 LIG 0.01  A 
ENDBRANCH 7 8
ENDBRANCH 6 7
BRANCH 6 14
ATOM     14  C   PHE B   5       3.102 -37.842 -15.856  1.00 31.71 LIG 0.24  C 
ATOM     15  N   GLU B   6       2.953 -36.515 -15.792  1.00 34.73 LIG-0.35  N 
ATOM     16 H    GLU B   6       3.373 -36.022 -15.227  1.00 34.73 LIG 0.16  HD
ATOM     17 O    PHE B   5       2.213 -38.614 -16.225  1.00 30.66 LIG-0.27  OA
BRANCH 15 18
ATOM     18  CA  GLU B   6       2.045 -35.751 -16.695  1.00 38.89 LIG 0.18  C 
BRANCH 18 19
ATOM     19  CB  GLU B   6       1.711 -34.354 -16.156  1.00 39.10 LIG 0.04  C 
BRANCH 19 20
ATOM     20  CG  GLU B   6       0.444 -33.734 -16.802  1.00 43.96 LIG 0.12  C 
BRANCH 20 21
ATOM     21  CD  GLU B   6      -0.836 -33.857 -15.961  1.00 49.39 LIG 0.17  C 
ATOM     22 OE1  GLU B   6      -0.772 -33.874 -14.715  1.00 53.88 LIG-0.65  OA
ATOM     23 OE2  GLU B   6      -1.938 -33.984 -16.558  1.00 56.34 LIG-0.65  OA
ENDBRANCH 20 21
ENDBRANCH 19 20
ENDBRANCH 18 19
BRANCH 18 24
ATOM     24  C   GLU B   6       2.704 -35.663 -18.107  1.00 41.03 LIG 0.24  C 
ATOM     25 O    GLU B   6       2.029 -35.389 -19.136  1.00 40.13 LIG-0.27  OA
ATOM     26  N   ALA B   7       4.030 -35.852 -18.119  1.00 43.76 LIG-0.35  N 
ATOM     27 H    ALA B   7       4.467 -36.093 -17.418  1.00 43.76 LIG 0.16  HD
BRANCH 26 28
ATOM     28  CA  ALA B   7       4.911 -35.674 -19.325  1.00 45.80 LIG 0.16  C 
ATOM     29  CB  ALA B   7       6.423 -35.741 -18.914  1.00 46.43 LIG 0.04  C 
BRANCH 28 30
ATOM     30  C   ALA B   7       4.661 -36.714 -20.406  1.00 46.67 LIG 0.22  C 
ATOM     31 O    ALA B   7       3.632 -36.648 -21.100  1.00 48.32 LIG-0.29  OA
ENDBRANCH 28 30
ENDBRANCH 26 28
ENDBRANCH 18 24
ENDBRANCH 15 18
ENDBRANCH 6 14
ENDBRANCH 4 6
ENDBRANCH 1 2
BRANCH 1 32
ATOM     32  CB  LEU B   4       4.572 -40.924 -11.809  1.00 24.11 LIG 0.04  C 
BRANCH 32 33
ATOM     33  CG  LEU B   4       5.433 -42.199 -11.960  1.00 25.40 LIG-0.02  C 
ATOM     34  CD2 LEU B   4       4.711 -43.307 -11.226  1.00 26.98 LIG 0.01  C 
ATOM     35  CD1 LEU B   4       6.917 -42.090 -11.513  1.00 25.06 LIG 0.01  C 
ENDBRANCH 32 33
ENDBRANCH 1 32
BRANCH 1 36
ATOM     36  N   LEU B   4       4.792 -38.617 -10.989  1.00 24.30 LIG-0.35  N 
ATOM     37  C   TRP B   3       3.492 -38.336 -11.025  1.00 25.24 LIG 0.24  C 
ATOM     38 O    TRP B   3       2.707 -38.934 -11.741  1.00 25.23 LIG-0.27  OA
ATOM     39 H    LEU B   4       5.356 -38.223 -10.473  1.00 24.30 LIG 0.16  HD
BRANCH 37 40
ATOM     40  CA  TRP B   3       3.006 -37.172 -10.138  1.00 26.39 LIG 0.18  C 
BRANCH 40 41
ATOM     41  CB  TRP B   3       3.518 -35.846 -10.702  1.00 26.78 LIG 0.07  C 
BRANCH 41 42
ATOM     42  CG  TRP B   3       2.497 -35.177 -11.441  1.00 25.50 LIG-0.03  A 
ATOM     43  CD1 TRP B   3       2.347 -35.165 -12.787  1.00 28.00 LIG 0.10  A 
ATOM     44  NE1 TRP B   3       1.278 -34.396 -13.132  1.00 26.39 LIG-0.36  N 
ATOM     45 HE1  TRP B   3       1.004 -34.252 -13.935  1.00 26.39 LIG 0.17  HD
ATOM     46  CE2 TRP B   3       0.712 -33.890 -12.002  1.00 23.90 LIG 0.04  A 
ATOM     47  CZ2 TRP B   3      -0.391 -33.046 -11.856  1.00 23.10 LIG 0.03  A 
ATOM     48  CD2 TRP B   3       1.456 -34.372 -10.913  1.00 23.76 LIG-0.00  A 
ATOM     49  CH2 TRP B   3      -0.762 -32.704 -10.598  1.00 22.34 LIG 0.00  A 
ATOM     50  CZ3 TRP B   3      -0.037 -33.151  -9.479  1.00 25.34 LIG 0.00  A 
ATOM     51  CE3 TRP B   3       1.094 -33.992  -9.637  1.00 25.10 LIG 0.01  A 
ENDBRANCH 41 42
ENDBRANCH 40 41
BRANCH 40 52
ATOM     52  N   TRP B   3       3.449 -37.380  -8.754  1.00 27.54 LIG-0.35  N 
ATOM     53  C   ALA B   2       2.518 -37.576  -7.814  1.00 31.13 LIG 0.24  C 
ATOM     54 O    ALA B   2       1.324 -37.567  -8.093  1.00 30.30 LIG-0.27  OA
ATOM     55 H    TRP B   3       4.300 -37.362  -8.623  1.00 27.54 LIG 0.16  HD
BRANCH 53 56
ATOM     56  CA  ALA B   2       2.980 -37.824  -6.369  1.00 33.66 LIG 0.17  C 
ATOM     57  CB  ALA B   2       1.796 -37.758  -5.371  1.00 33.40 LIG 0.04  C 
BRANCH 56 58
ATOM     58  N   ALA B   2       4.033 -36.913  -5.906  1.00 35.64 LIG-0.35  N 
ATOM     59 H    ALA B   2       3.782 -36.099  -5.788  1.00 35.64 LIG 0.16  HD
ATOM     60  C   ALA B   1       5.269 -37.361  -5.698  1.00 39.08 LIG 0.25  C 
ATOM     61 O    ALA B   1       5.666 -38.386  -6.210  1.00 40.54 LIG-0.27  OA
BRANCH 60 62
ATOM     62  CA  ALA B   1       6.237 -36.517  -4.833  1.00 41.05 LIG 0.27  C 
ATOM     63  CB  ALA B   1       6.371 -37.116  -3.414  1.00 41.95 LIG 0.05  C 
BRANCH 62 64
ATOM     64  N   ALA B   1       5.824 -35.092  -4.736  1.00 41.48 LIG-0.07  N 
ATOM     65 H3   ALA B   1       5.180 -34.929  -5.329  1.00 41.48 LIG 0.28  HD
ATOM     66 H2   ALA B   1       6.523 -34.568  -4.906  1.00 41.48 LIG 0.28  HD
ATOM     67 H1   ALA B   1       5.520 -34.926  -3.917  1.00 41.48 LIG 0.28  HD
ENDBRANCH 62 64
ENDBRANCH 60 62
ENDBRANCH 56 58
ENDBRANCH 53 56
ENDBRANCH 40 52
ENDBRANCH 37 40
ENDBRANCH 1 36
TORSDOF 23
ENDMDL
MODEL 62
USER: ADFR SOLUTION from run 181
USER: SCORE 20.614848 LL:  -5.510 LR: -16.553 RR:   0.000 FEB:  -9.692
USER: RMSD 9.711997
USER: SEED 180
USER: STATUS no improvement in best in 13 clusters for 5 generations
USER: GENES 25
USER: genes 0 Translation |==|  0.29899 0.50662 0.64499
USER: genes 1 Rotation |==|  0.89381 0.76918 0.37811 0.58717
USER: genes 2 Torsion [N]-CA--C-[N] |==|  0.92684
USER: genes 3 Torsion [C]-N--CA-[CB] |==|  0.80973
USER: genes 4 Torsion [N]-CA--CB-[CG] |==|  0.56819
USER: genes 5 Torsion [CA]-CB--CG-[CD1] |==|  0.20551
USER: genes 6 Torsion [N]-CA--C-[N] |==|  0.12997
USER: genes 7 Torsion [C]-N--CA-[C] |==|  0.73801
USER: genes 8 Torsion [N]-CA--CB-[CG] |==|  0.49189
USER: genes 9 Torsion [CA]-CB--CG-[CD] |==|  0.68669
USER: genes 10 Torsion [CB]-CG--CD-[OE2] |==|  0.17372
USER: genes 11 Torsion [N]-CA--C-[N] |==|  0.97778
USER: genes 12 Torsion [C]-N--CA-[CB] |==|  0.88862
USER: genes 13 Torsion [N]-CA--C-[O] |==|  0.33942
USER: genes 14 Torsion [C]-CA--CB-[CG] |==|  0.19714
USER: genes 15 Torsion [CA]-CB--CG-[CD1] |==|  0.36894
USER: genes 16 Torsion [C]-CA--N-[C] |==|  0.61700
USER: genes 17 Torsion [N]-C--CA-[N] |==|  0.91447
USER: genes 18 Torsion [C]-CA--CB-[CG] |==|  0.23887
USER: genes 19 Torsion [CA]-CB--CG-[CD1] |==|  0.93160
USER: genes 20 Torsion [C]-CA--N-[C] |==|  0.80703
USER: genes 21 Torsion [N]-C--CA-[N] |==|  0.95504
USER: genes 22 Torsion [C]-CA--N-[C] |==|  0.82263
USER: genes 23 Torsion [N]-C--CA-[N] |==|  0.23400
USER: genes 24 Torsion [C]-CA--N-[H3] |==|  0.99065
ROOT
ATOM      1  CA  LEU B   4      -0.976 -34.802  -6.588  1.00 25.55 LIG 0.18  C 
ENDROOT
BRANCH 1 2
ATOM      2  C   LEU B   4      -0.626 -34.783  -5.096  1.00 26.13 LIG 0.24  C 
ATOM      3 O    LEU B   4      -1.532 -34.810  -4.281  1.00 25.31 LIG-0.27  OA
ATOM      4  N   PHE B   5       0.675 -34.748  -4.765  1.00 26.68 LIG-0.35  N 
ATOM      5 H    PHE B   5       1.314 -34.634  -5.329  1.00 26.68 LIG 0.16  HD
BRANCH 4 6
ATOM      6  CA  PHE B   5       1.109 -34.907  -3.370  1.00 28.54 LIG 0.18  C 
BRANCH 6 7
ATOM      7  CB  PHE B   5       0.697 -33.700  -2.498  1.00 28.61 LIG 0.07  C 
BRANCH 7 8
ATOM      8  CG  PHE B   5       1.536 -33.483  -1.290  1.00 26.86 LIG-0.06  A 
ATOM      9  CD1 PHE B   5       2.808 -32.970  -1.388  1.00 26.13 LIG 0.01  A 
ATOM     10  CE1 PHE B   5       3.582 -32.760  -0.249  1.00 23.59 LIG 0.00  A 
ATOM     11  CZ  PHE B   5       3.061 -33.053   1.035  1.00 25.19 LIG 0.00  A 
ATOM     12  CE2 PHE B   5       1.803 -33.607   1.128  1.00 26.30 LIG 0.00  A 
ATOM     13  CD2 PHE B   5       1.038 -33.797  -0.024  1.00 27.99 LIG 0.01  A 
ENDBRANCH 7 8
ENDBRANCH 6 7
BRANCH 6 14
ATOM     14  C   PHE B   5       0.566 -36.178  -2.713  1.00 31.71 LIG 0.24  C 
ATOM     15  N   GLU B   6       0.668 -37.310  -3.417  1.00 34.73 LIG-0.35  N 
ATOM     16 H    GLU B   6       0.702 -37.328  -4.276  1.00 34.73 LIG 0.16  HD
ATOM     17 O    PHE B   5       0.007 -36.102  -1.616  1.00 30.66 LIG-0.27  OA
BRANCH 15 18
ATOM     18  CA  GLU B   6       0.735 -38.660  -2.787  1.00 38.89 LIG 0.18  C 
BRANCH 18 19
ATOM     19  CB  GLU B   6      -0.032 -39.724  -3.583  1.00 39.10 LIG 0.04  C 
BRANCH 19 20
ATOM     20  CG  GLU B   6       0.088 -41.148  -2.978  1.00 43.96 LIG 0.12  C 
BRANCH 20 21
ATOM     21  CD  GLU B   6       0.871 -42.151  -3.839  1.00 49.39 LIG 0.17  C 
ATOM     22 OE1  GLU B   6       0.319 -43.191  -4.253  1.00 53.88 LIG-0.65  OA
ATOM     23 OE2  GLU B   6       2.087 -41.920  -4.077  1.00 56.34 LIG-0.65  OA
ENDBRANCH 20 21
ENDBRANCH 19 20
ENDBRANCH 18 19
BRANCH 18 24
ATOM     24  C   GLU B   6       2.234 -39.060  -2.622  1.00 41.03 LIG 0.24  C 
ATOM     25 O    GLU B   6       2.577 -40.111  -2.017  1.00 40.13 LIG-0.27  OA
ATOM     26  N   ALA B   7       3.104 -38.227  -3.210  1.00 43.76 LIG-0.35  N 
ATOM     27 H    ALA B   7       2.859 -37.485  -3.570  1.00 43.76 LIG 0.16  HD
BRANCH 26 28
ATOM     28  CA  ALA B   7       4.585 -38.470  -3.319  1.00 45.80 LIG 0.16  C 
ATOM     29  CB  ALA B   7       5.137 -39.091  -1.989  1.00 46.43 LIG 0.04  C 
BRANCH 28 30
ATOM     30  C   ALA B   7       4.956 -39.393  -4.469  1.00 46.67 LIG 0.22  C 
ATOM     31 O    ALA B   7       5.739 -38.999  -5.350  1.00 48.32 LIG-0.29  OA
ENDBRANCH 28 30
ENDBRANCH 26 28
ENDBRANCH 18 24
ENDBRANCH 15 18
ENDBRANCH 6 14
ENDBRANCH 4 6
ENDBRANCH 1 2
BRANCH 1 32
ATOM     32  CB  LEU B   4      -1.263 -36.234  -6.991  1.00 24.11 LIG 0.04  C 
BRANCH 32 33
ATOM     33  CG  LEU B   4      -2.590 -36.792  -6.426  1.00 25.40 LIG-0.02  C 
ATOM     34  CD2 LEU B   4      -2.233 -37.668  -5.246  1.00 26.98 LIG 0.01  C 
ATOM     35  CD1 LEU B   4      -3.512 -37.536  -7.431  1.00 25.06 LIG 0.01  C 
ENDBRANCH 32 33
ENDBRANCH 1 32
BRANCH 1 36
ATOM     36  N   LEU B   4       0.033 -34.193  -7.430  1.00 24.30 LIG-0.35  N 
ATOM     37  C   TRP B   3      -0.298 -33.393  -8.442  1.00 25.24 LIG 0.24  C 
ATOM     38 O    TRP B   3      -1.453 -33.096  -8.698  1.00 25.23 LIG-0.27  OA
ATOM     39 H    LEU B   4       0.843 -34.392  -7.220  1.00 24.30 LIG 0.16  HD
BRANCH 37 40
ATOM     40  CA  TRP B   3       0.854 -32.874  -9.326  1.00 26.39 LIG 0.18  C 
BRANCH 40 41
ATOM     41  CB  TRP B   3       1.056 -33.817 -10.513  1.00 26.78 LIG 0.07  C 
BRANCH 41 42
ATOM     42  CG  TRP B   3       0.187 -33.476 -11.592  1.00 25.50 LIG-0.03  A 
ATOM     43  CD1 TRP B   3      -0.993 -32.816 -11.503  1.00 28.00 LIG 0.10  A 
ATOM     44  NE1 TRP B   3      -1.557 -32.697 -12.736  1.00 26.39 LIG-0.36  N 
ATOM     45 HE1  TRP B   3      -2.307 -32.313 -12.907  1.00 26.39 LIG 0.17  HD
ATOM     46  CE2 TRP B   3      -0.742 -33.285 -13.655  1.00 23.90 LIG 0.04  A 
ATOM     47  CZ2 TRP B   3      -0.903 -33.421 -15.036  1.00 23.10 LIG 0.03  A 
ATOM     48  CD2 TRP B   3       0.375 -33.780 -12.963  1.00 23.76 LIG-0.00  A 
ATOM     49  CH2 TRP B   3       0.083 -34.041 -15.728  1.00 22.34 LIG 0.00  A 
ATOM     50  CZ3 TRP B   3       1.211 -34.566 -15.074  1.00 25.34 LIG 0.00  A 
ATOM     51  CE3 TRP B   3       1.359 -34.442 -13.670  1.00 25.10 LIG 0.01  A 
ENDBRANCH 41 42
ENDBRANCH 40 41
BRANCH 40 52
ATOM     52  N   TRP B   3       2.077 -32.740  -8.525  1.00 27.54 LIG-0.35  N 
ATOM     53  C   ALA B   2       2.123 -31.777  -7.598  1.00 31.13 LIG 0.24  C 
ATOM     54 O    ALA B   2       1.179 -31.014  -7.429  1.00 30.30 LIG-0.27  OA
ATOM     55 H    TRP B   3       2.708 -33.299  -8.701  1.00 27.54 LIG 0.16  HD
BRANCH 53 56
ATOM     56  CA  ALA B   2       3.390 -31.654  -6.736  1.00 33.66 LIG 0.17  C 
ATOM     57  CB  ALA B   2       4.228 -30.410  -7.126  1.00 33.40 LIG 0.04  C 
BRANCH 56 58
ATOM     58  N   ALA B   2       4.262 -32.833  -6.771  1.00 35.64 LIG-0.35  N 
ATOM     59 H    ALA B   2       5.041 -32.699  -7.110  1.00 35.64 LIG 0.16  HD
ATOM     60  C   ALA B   1       3.834 -34.002  -6.300  1.00 39.08 LIG 0.25  C 
ATOM     61 O    ALA B   1       2.652 -34.242  -6.177  1.00 40.54 LIG-0.27  OA
BRANCH 60 62
ATOM     62  CA  ALA B   1       4.873 -35.100  -5.961  1.00 41.05 LIG 0.27  C 
ATOM     63  CB  ALA B   1       4.251 -36.509  -6.099  1.00 41.95 LIG 0.05  C 
BRANCH 62 64
ATOM     64  N   ALA B   1       5.450 -34.941  -4.600  1.00 41.48 LIG-0.07  N 
ATOM     65 H3   ALA B   1       5.128 -34.201  -4.226  1.00 41.48 LIG 0.28  HD
ATOM     66 H2   ALA B   1       6.337 -34.883  -4.658  1.00 41.48 LIG 0.28  HD
ATOM     67 H1   ALA B   1       5.232 -35.644  -4.100  1.00 41.48 LIG 0.28  HD
ENDBRANCH 62 64
ENDBRANCH 60 62
ENDBRANCH 56 58
ENDBRANCH 53 56
ENDBRANCH 40 52
ENDBRANCH 37 40
ENDBRANCH 1 36
TORSDOF 23
ENDMDL
MODEL 63
USER: ADFR SOLUTION from run 37
USER: SCORE 21.103875 LL:  -6.251 LR: -16.536 RR:   0.000 FEB:  -9.675
USER: RMSD 5.380296
USER: SEED 36
USER: STATUS no improvement in best in 15 clusters for 5 generations
USER: GENES 25
USER: genes 0 Translation |==|  0.37826 0.44931 0.58612
USER: genes 1 Rotation |==|  0.62995 0.30610 0.37226 0.92332
USER: genes 2 Torsion [N]-CA--C-[N] |==|  0.44423
USER: genes 3 Torsion [C]-N--CA-[CB] |==|  0.16203
USER: genes 4 Torsion [N]-CA--CB-[CG] |==|  0.12343
USER: genes 5 Torsion [CA]-CB--CG-[CD1] |==|  0.20751
USER: genes 6 Torsion [N]-CA--C-[N] |==|  0.60676
USER: genes 7 Torsion [C]-N--CA-[C] |==|  0.59333
USER: genes 8 Torsion [N]-CA--CB-[CG] |==|  0.54297
USER: genes 9 Torsion [CA]-CB--CG-[CD] |==|  0.34768
USER: genes 10 Torsion [CB]-CG--CD-[OE2] |==|  0.41861
USER: genes 11 Torsion [N]-CA--C-[N] |==|  0.43736
USER: genes 12 Torsion [C]-N--CA-[CB] |==|  0.32083
USER: genes 13 Torsion [N]-CA--C-[O] |==|  0.98694
USER: genes 14 Torsion [C]-CA--CB-[CG] |==|  0.43070
USER: genes 15 Torsion [CA]-CB--CG-[CD1] |==|  0.36081
USER: genes 16 Torsion [C]-CA--N-[C] |==|  0.73413
USER: genes 17 Torsion [N]-C--CA-[N] |==|  0.75641
USER: genes 18 Torsion [C]-CA--CB-[CG] |==|  0.22541
USER: genes 19 Torsion [CA]-CB--CG-[CD1] |==|  0.67018
USER: genes 20 Torsion [C]-CA--N-[C] |==|  0.73889
USER: genes 21 Torsion [N]-C--CA-[N] |==|  0.93043
USER: genes 22 Torsion [C]-CA--N-[C] |==|  0.82735
USER: genes 23 Torsion [N]-C--CA-[N] |==|  0.04520
USER: genes 24 Torsion [C]-CA--N-[H3] |==|  0.36942
ROOT
ATOM      1  CA  LEU B   4       0.570 -36.005  -7.912  1.00 25.55 LIG 0.18  C 
ENDROOT
BRANCH 1 2
ATOM      2  C   LEU B   4       1.259 -34.977  -8.815  1.00 26.13 LIG 0.24  C 
ATOM      3 O    LEU B   4       2.118 -34.258  -8.335  1.00 25.31 LIG-0.27  OA
ATOM      4  N   PHE B   5       0.882 -34.931 -10.102  1.00 26.68 LIG-0.35  N 
ATOM      5 H    PHE B   5       0.214 -35.366 -10.426  1.00 26.68 LIG 0.16  HD
BRANCH 4 6
ATOM      6  CA  PHE B   5       1.607 -34.106 -11.079  1.00 28.54 LIG 0.18  C 
BRANCH 6 7
ATOM      7  CB  PHE B   5       3.098 -34.499 -11.169  1.00 28.61 LIG 0.07  C 
BRANCH 7 8
ATOM      8  CG  PHE B   5       3.359 -35.962 -11.218  1.00 26.86 LIG-0.06  A 
ATOM      9  CD1 PHE B   5       3.118 -36.691 -12.359  1.00 26.13 LIG 0.01  A 
ATOM     10  CE1 PHE B   5       3.376 -38.059 -12.400  1.00 23.59 LIG 0.00  A 
ATOM     11  CZ  PHE B   5       3.914 -38.720 -11.267  1.00 25.19 LIG 0.00  A 
ATOM     12  CE2 PHE B   5       4.114 -37.997 -10.112  1.00 26.30 LIG 0.00  A 
ATOM     13  CD2 PHE B   5       3.862 -36.624 -10.097  1.00 27.99 LIG 0.01  A 
ENDBRANCH 7 8
ENDBRANCH 6 7
BRANCH 6 14
ATOM     14  C   PHE B   5       1.008 -34.174 -12.486  1.00 31.71 LIG 0.24  C 
ATOM     15  N   GLU B   6       1.870 -34.188 -13.507  1.00 34.73 LIG-0.35  N 
ATOM     16 H    GLU B   6       2.659 -33.848 -13.461  1.00 34.73 LIG 0.16  HD
ATOM     17 O    PHE B   5      -0.218 -34.146 -12.624  1.00 30.66 LIG-0.27  OA
BRANCH 15 18
ATOM     18  CA  GLU B   6       1.557 -34.796 -14.833  1.00 38.89 LIG 0.18  C 
BRANCH 18 19
ATOM     19  CB  GLU B   6       0.926 -33.795 -15.809  1.00 39.10 LIG 0.04  C 
BRANCH 19 20
ATOM     20  CG  GLU B   6       0.252 -34.473 -17.031  1.00 43.96 LIG 0.12  C 
BRANCH 20 21
ATOM     21  CD  GLU B   6      -1.221 -34.093 -17.250  1.00 49.39 LIG 0.17  C 
ATOM     22 OE1  GLU B   6      -1.952 -33.820 -16.277  1.00 53.88 LIG-0.65  OA
ATOM     23 OE2  GLU B   6      -1.677 -34.106 -18.424  1.00 56.34 LIG-0.65  OA
ENDBRANCH 20 21
ENDBRANCH 19 20
ENDBRANCH 18 19
BRANCH 18 24
ATOM     24  C   GLU B   6       2.867 -35.403 -15.424  1.00 41.03 LIG 0.24  C 
ATOM     25 O    GLU B   6       4.005 -35.036 -15.026  1.00 40.13 LIG-0.27  OA
ATOM     26  N   ALA B   7       2.676 -36.364 -16.338  1.00 43.76 LIG-0.35  N 
ATOM     27 H    ALA B   7       1.896 -36.563 -16.640  1.00 43.76 LIG 0.16  HD
BRANCH 26 28
ATOM     28  CA  ALA B   7       3.770 -37.200 -16.945  1.00 45.80 LIG 0.16  C 
ATOM     29  CB  ALA B   7       3.593 -38.706 -16.545  1.00 46.43 LIG 0.04  C 
BRANCH 28 30
ATOM     30  C   ALA B   7       3.820 -37.109 -18.462  1.00 46.67 LIG 0.22  C 
ATOM     31 O    ALA B   7       2.950 -36.463 -19.071  1.00 48.32 LIG-0.29  OA
ENDBRANCH 28 30
ENDBRANCH 26 28
ENDBRANCH 18 24
ENDBRANCH 15 18
ENDBRANCH 6 14
ENDBRANCH 4 6
ENDBRANCH 1 2
BRANCH 1 32
ATOM     32  CB  LEU B   4      -0.826 -35.506  -7.603  1.00 24.11 LIG 0.04  C 
BRANCH 32 33
ATOM     33  CG  LEU B   4      -1.831 -36.626  -7.247  1.00 25.40 LIG-0.02  C 
ATOM     34  CD2 LEU B   4      -2.723 -36.817  -8.453  1.00 26.98 LIG 0.01  C 
ATOM     35  CD1 LEU B   4      -2.661 -36.425  -5.949  1.00 25.06 LIG 0.01  C 
ENDBRANCH 32 33
ENDBRANCH 1 32
BRANCH 1 36
ATOM     36  N   LEU B   4       1.315 -36.316  -6.709  1.00 24.30 LIG-0.35  N 
ATOM     37  C   TRP B   3       2.123 -37.372  -6.646  1.00 25.24 LIG 0.24  C 
ATOM     38 O    TRP B   3       2.314 -38.115  -7.594  1.00 25.23 LIG-0.27  OA
ATOM     39 H    LEU B   4       1.188 -35.768  -6.059  1.00 24.30 LIG 0.16  HD
BRANCH 37 40
ATOM     40  CA  TRP B   3       2.793 -37.656  -5.287  1.00 26.39 LIG 0.18  C 
BRANCH 40 41
ATOM     41  CB  TRP B   3       1.831 -37.298  -4.153  1.00 26.78 LIG 0.07  C 
BRANCH 41 42
ATOM     42  CG  TRP B   3       0.889 -38.347  -3.931  1.00 25.50 LIG-0.03  A 
ATOM     43  CD1 TRP B   3      -0.458 -38.264  -4.051  1.00 28.00 LIG 0.10  A 
ATOM     44  NE1 TRP B   3      -1.030 -39.456  -3.730  1.00 26.39 LIG-0.36  N 
ATOM     45 HE1  TRP B   3      -1.874 -39.624  -3.740  1.00 26.39 LIG 0.17  HD
ATOM     46  CE2 TRP B   3      -0.053 -40.342  -3.393  1.00 23.90 LIG 0.04  A 
ATOM     47  CZ2 TRP B   3      -0.154 -41.674  -2.986  1.00 23.10 LIG 0.03  A 
ATOM     48  CD2 TRP B   3       1.175 -39.672  -3.518  1.00 23.76 LIG-0.00  A 
ATOM     49  CH2 TRP B   3       0.994 -42.344  -2.726  1.00 22.34 LIG 0.00  A 
ATOM     50  CZ3 TRP B   3       2.245 -41.709  -2.822  1.00 25.34 LIG 0.00  A 
ATOM     51  CE3 TRP B   3       2.339 -40.350  -3.217  1.00 25.10 LIG 0.01  A 
ENDBRANCH 41 42
ENDBRANCH 40 41
BRANCH 40 52
ATOM     52  N   TRP B   3       4.053 -36.909  -5.185  1.00 27.54 LIG-0.35  N 
ATOM     53  C   ALA B   2       5.185 -37.527  -5.541  1.00 31.13 LIG 0.24  C 
ATOM     54 O    ALA B   2       5.178 -38.690  -5.927  1.00 30.30 LIG-0.27  OA
ATOM     55 H    TRP B   3       3.991 -36.101  -4.897  1.00 27.54 LIG 0.16  HD
BRANCH 53 56
ATOM     56  CA  ALA B   2       6.502 -36.738  -5.466  1.00 33.66 LIG 0.17  C 
ATOM     57  CB  ALA B   2       7.285 -37.054  -4.167  1.00 33.40 LIG 0.04  C 
BRANCH 56 58
ATOM     58  N   ALA B   2       6.342 -35.283  -5.572  1.00 35.64 LIG-0.35  N 
ATOM     59 H    ALA B   2       6.598 -34.838  -4.882  1.00 35.64 LIG 0.16  HD
ATOM     60  C   ALA B   1       5.833 -34.739  -6.675  1.00 39.08 LIG 0.25  C 
ATOM     61 O    ALA B   1       5.162 -35.386  -7.449  1.00 40.54 LIG-0.27  OA
BRANCH 60 62
ATOM     62  CA  ALA B   1       6.055 -33.228  -6.938  1.00 41.05 LIG 0.27  C 
ATOM     63  CB  ALA B   1       6.359 -32.968  -8.431  1.00 41.95 LIG 0.05  C 
BRANCH 62 64
ATOM     64  N   ALA B   1       7.142 -32.656  -6.100  1.00 41.48 LIG-0.07  N 
ATOM     65 H3   ALA B   1       7.682 -32.165  -6.609  1.00 41.48 LIG 0.28  HD
ATOM     66 H2   ALA B   1       7.607 -33.316  -5.725  1.00 41.48 LIG 0.28  HD
ATOM     67 H1   ALA B   1       6.789 -32.144  -5.464  1.00 41.48 LIG 0.28  HD
ENDBRANCH 62 64
ENDBRANCH 60 62
ENDBRANCH 56 58
ENDBRANCH 53 56
ENDBRANCH 40 52
ENDBRANCH 37 40
ENDBRANCH 1 36
TORSDOF 23
ENDMDL
