MODEL 1
USER: ADFR SOLUTION from run 62
USER: SCORE 21.828440 LL:  -5.747 LR: -18.576 RR:   0.000 FEB: -12.014
USER: RMSD 7.539500
USER: SEED 61
USER: STATUS no improvement in best in 13 clusters for 5 generations
USER: GENES 24
USER: genes 0 Translation |==|  0.60624 0.46821 0.56124
USER: genes 1 Rotation |==|  0.75748 0.28527 0.23377 0.75829
USER: genes 2 Torsion [C]-CA--CB-[CG] |==|  0.31353
USER: genes 3 Torsion [CA]-CB--CG-[CD1] |==|  0.05018
USER: genes 4 Torsion [N]-CA--C-[N] |==|  0.86083
USER: genes 5 Torsion [C]-N--CA-[CB] |==|  0.23201
USER: genes 6 Torsion [N]-CA--CB-[CG] |==|  0.86004
USER: genes 7 Torsion [CA]-CB--CG-[CD2] |==|  0.78723
USER: genes 8 Torsion [N]-CA--C-[N] |==|  0.46937
USER: genes 9 Torsion [C]-N--CA-[C] |==|  0.61929
USER: genes 10 Torsion [N]-CA--CB-[CG] |==|  0.50729
USER: genes 11 Torsion [CA]-CB--CG-[CD] |==|  0.36564
USER: genes 12 Torsion [CB]-CG--CD-[OE2] |==|  0.61352
USER: genes 13 Torsion [N]-CA--C-[N] |==|  0.43803
USER: genes 14 Torsion [C]-N--CA-[CB] |==|  0.19637
USER: genes 15 Torsion [N]-CA--C-[O] |==|  0.99852
USER: genes 16 Torsion [CB]-CA--N-[C] |==|  0.39486
USER: genes 17 Torsion [N]-C--CA-[N] |==|  0.40197
USER: genes 18 Torsion [C]-CA--N-[C] |==|  0.73056
USER: genes 19 Torsion [N]-C--CA-[N] |==|  0.91885
USER: genes 20 Torsion [C]-CA--N-[C] |==|  0.80557
USER: genes 21 Torsion [N]-C--CA-[N] |==|  0.97426
USER: genes 22 Torsion [C]-CA--CB-[CG] |==|  0.26324
USER: genes 23 Torsion [CA]-CB--CG-[CD1] |==|  0.70089
ROOT
ATOM      1  CA  LEU B   4      37.066  -3.622  11.037  1.00 36.98 LIG 0.18  C 
ENDROOT
BRANCH 1 2
ATOM      2  CB  LEU B   4      38.270  -3.329  11.932  1.00 35.91 LIG 0.04  C 
BRANCH 2 3
ATOM      3  CG  LEU B   4      39.184  -4.526  12.246  1.00 35.93 LIG-0.02  C 
ATOM      4  CD2 LEU B   4      40.660  -4.144  12.269  1.00 33.66 LIG 0.01  C 
ATOM      5  CD1 LEU B   4      38.956  -5.697  11.227  1.00 37.78 LIG 0.01  C 
ENDBRANCH 2 3
ENDBRANCH 1 2
BRANCH 1 6
ATOM      6  C   LEU B   4      35.813  -3.448  11.881  1.00 38.06 LIG 0.24  C 
ATOM      7  N   PHE B   5      35.459  -2.190  12.155  1.00 38.73 LIG-0.35  N 
ATOM      8 H    PHE B   5      35.827  -1.504  11.791  1.00 38.73 LIG 0.16  HD
ATOM      9 O    LEU B   4      35.233  -4.444  12.328  1.00 36.58 LIG-0.27  OA
BRANCH 7 10
ATOM     10  CA  PHE B   5      34.404  -1.858  13.108  1.00 41.04 LIG 0.18  C 
BRANCH 10 11
ATOM     11  CB  PHE B   5      34.901  -1.837  14.565  1.00 39.67 LIG 0.07  C 
BRANCH 11 12
ATOM     12  CG  PHE B   5      35.654  -3.052  14.952  1.00 38.07 LIG-0.06  A 
ATOM     13  CD2 PHE B   5      34.998  -4.224  15.224  1.00 33.96 LIG 0.01  A 
ATOM     14  CE2 PHE B   5      35.708  -5.391  15.618  1.00 35.53 LIG 0.00  A 
ATOM     15  CZ  PHE B   5      37.078  -5.347  15.790  1.00 34.38 LIG 0.00  A 
ATOM     16  CE1 PHE B   5      37.739  -4.141  15.522  1.00 35.56 LIG 0.00  A 
ATOM     17  CD1 PHE B   5      37.024  -3.007  15.106  1.00 35.27 LIG 0.01  A 
ENDBRANCH 11 12
ENDBRANCH 10 11
BRANCH 10 18
ATOM     18  C   PHE B   5      33.778  -0.527  12.824  1.00 43.64 LIG 0.24  C 
ATOM     19 O    PHE B   5      34.284   0.217  11.973  1.00 43.27 LIG-0.27  OA
ATOM     20  N   GLU B   6      32.662  -0.261  13.507  1.00 47.41 LIG-0.35  N 
ATOM     21 H    GLU B   6      32.180  -0.872  13.876  1.00 47.41 LIG 0.16  HD
BRANCH 20 22
ATOM     22  CA  GLU B   6      32.133   1.108  13.704  1.00 51.55 LIG 0.18  C 
BRANCH 22 23
ATOM     23  CB  GLU B   6      30.976   1.423  12.739  1.00 52.47 LIG 0.04  C 
BRANCH 23 24
ATOM     24  CG  GLU B   6      30.446   2.894  12.889  1.00 56.11 LIG 0.12  C 
BRANCH 24 25
ATOM     25  CD  GLU B   6      30.288   3.669  11.556  1.00 59.86 LIG 0.17  C 
ATOM     26 OE2  GLU B   6      30.629   4.865  11.513  1.00 64.67 LIG-0.65  OA
ATOM     27 OE1  GLU B   6      29.865   3.101  10.530  1.00 64.70 LIG-0.65  OA
ENDBRANCH 24 25
ENDBRANCH 23 24
ENDBRANCH 22 23
BRANCH 22 28
ATOM     28  C   GLU B   6      31.669   1.243  15.182  1.00 53.54 LIG 0.24  C 
ATOM     29 O    GLU B   6      31.414   0.244  15.881  1.00 53.95 LIG-0.27  OA
ATOM     30  N   ALA B   7      31.598   2.478  15.676  1.00 56.31 LIG-0.35  N 
ATOM     31 H    ALA B   7      31.753   3.190  15.220  1.00 56.31 LIG 0.16  HD
BRANCH 30 32
ATOM     32  CA  ALA B   7      31.233   2.724  17.098  1.00 57.55 LIG 0.16  C 
ATOM     33  CB  ALA B   7      32.358   2.287  18.050  1.00 58.11 LIG 0.04  C 
BRANCH 32 34
ATOM     34  C   ALA B   7      30.900   4.189  17.322  1.00 58.67 LIG 0.22  C 
ATOM     35 O    ALA B   7      30.966   4.984  16.389  1.00 60.59 LIG-0.29  OA
ENDBRANCH 32 34
ENDBRANCH 30 32
ENDBRANCH 22 28
ENDBRANCH 20 22
ENDBRANCH 10 18
ENDBRANCH 7 10
ENDBRANCH 1 6
BRANCH 1 36
ATOM     36  N   LEU B   4      37.091  -2.821   9.818  1.00 37.09 LIG-0.35  N 
ATOM     37 H    LEU B   4      37.378  -2.018   9.933  1.00 37.09 LIG 0.16  HD
ATOM     38  C   TRP B   3      36.700  -3.305   8.633  1.00 37.19 LIG 0.24  C 
ATOM     39 O    TRP B   3      36.311  -4.420   8.486  1.00 36.60 LIG-0.27  OA
BRANCH 38 40
ATOM     40  CA  TRP B   3      36.826  -2.394   7.418  1.00 38.87 LIG 0.18  C 
BRANCH 40 41
ATOM     41  N   TRP B   3      37.183  -3.202   6.248  1.00 40.30 LIG-0.35  N 
ATOM     42  C   ALA B   2      38.465  -3.303   5.858  1.00 43.05 LIG 0.24  C 
ATOM     43 O    ALA B   2      39.366  -2.604   6.328  1.00 42.86 LIG-0.27  OA
ATOM     44 H    TRP B   3      36.521  -3.586   5.855  1.00 40.30 LIG 0.16  HD
BRANCH 42 45
ATOM     45  CA  ALA B   2      38.781  -4.279   4.738  1.00 44.71 LIG 0.17  C 
ATOM     46  CB  ALA B   2      38.702  -3.579   3.355  1.00 44.36 LIG 0.04  C 
BRANCH 45 47
ATOM     47  N   ALA B   2      37.808  -5.370   4.781  1.00 46.59 LIG-0.35  N 
ATOM     48 H    ALA B   2      37.249  -5.371   4.128  1.00 46.59 LIG 0.16  HD
ATOM     49  C   PRO B   1      37.807  -6.264   5.749  1.00 48.49 LIG 0.25  C 
ATOM     50 O    PRO B   1      38.510  -6.140   6.739  1.00 48.43 LIG-0.27  OA
BRANCH 49 51
ATOM     51  CA  PRO B   1      36.839  -7.501   5.547  1.00 50.22 LIG 0.28  C 
ATOM     52  N   PRO B   1      35.904  -7.376   4.392  1.00 50.48 LIG-0.06  N 
ATOM     53 H3   PRO B   1      35.106  -7.560   4.654  1.00 50.48 LIG 0.28  HD
ATOM     54 H2   PRO B   1      35.898  -6.558   4.122  1.00 50.48 LIG 0.28  HD
ATOM     55  CD  PRO B   1      36.255  -8.254   3.260  1.00 50.94 LIG 0.23  C 
ATOM     56  CG  PRO B   1      37.454  -9.060   3.754  1.00 51.81 LIG 0.03  C 
ATOM     57  CB  PRO B   1      37.608  -8.806   5.258  1.00 50.52 LIG 0.04  C 
ENDBRANCH 49 51
ENDBRANCH 45 47
ENDBRANCH 42 45
ENDBRANCH 40 41
BRANCH 40 58
ATOM     58  CB  TRP B   3      35.510  -1.603   7.231  1.00 38.41 LIG 0.07  C 
BRANCH 58 59
ATOM     59  CG  TRP B   3      35.617  -0.298   7.878  1.00 37.10 LIG-0.03  A 
ATOM     60  CD1 TRP B   3      35.002   0.086   9.010  1.00 36.42 LIG 0.10  A 
ATOM     61  NE1 TRP B   3      35.308   1.382   9.292  1.00 36.34 LIG-0.36  N 
ATOM     62 HE1  TRP B   3      35.023   1.827   9.971  1.00 36.34 LIG 0.17  HD
ATOM     63  CE2 TRP B   3      36.143   1.860   8.318  1.00 35.80 LIG 0.04  A 
ATOM     64  CD2 TRP B   3      36.339   0.838   7.403  1.00 33.30 LIG-0.00  A 
ATOM     65  CZ2 TRP B   3      36.699   3.133   8.157  1.00 36.94 LIG 0.03  A 
ATOM     66  CE3 TRP B   3      37.159   1.067   6.309  1.00 37.18 LIG 0.01  A 
ATOM     67  CZ3 TRP B   3      37.742   2.324   6.158  1.00 37.29 LIG 0.00  A 
ATOM     68  CH2 TRP B   3      37.498   3.343   7.087  1.00 32.87 LIG 0.00  A 
ENDBRANCH 58 59
ENDBRANCH 40 58
ENDBRANCH 38 40
ENDBRANCH 1 36
TORSDOF 22
ENDMDL
MODEL 2
USER: ADFR SOLUTION from run 14
USER: SCORE 22.388624 LL:  -7.866 LR: -17.719 RR:   0.000 FEB: -11.157
USER: RMSD 3.608659
USER: SEED 765849
USER: STATUS no improvement in best in 6 clusters for 5 generations
USER: GENES 24
USER: genes 0 Translation |==|  0.65661 0.51672 0.30422
USER: genes 1 Rotation |==|  0.52341 0.50653 0.45218 0.99711
USER: genes 2 Torsion [C]-CA--CB-[CG] |==|  0.29693
USER: genes 3 Torsion [CA]-CB--CG-[CD1] |==|  0.64564
USER: genes 4 Torsion [N]-CA--C-[N] |==|  0.97408
USER: genes 5 Torsion [C]-N--CA-[CB] |==|  0.26982
USER: genes 6 Torsion [N]-CA--CB-[CG] |==|  0.77559
USER: genes 7 Torsion [CA]-CB--CG-[CD2] |==|  0.23328
USER: genes 8 Torsion [N]-CA--C-[N] |==|  0.31282
USER: genes 9 Torsion [C]-N--CA-[C] |==|  0.86111
USER: genes 10 Torsion [N]-CA--CB-[CG] |==|  0.96774
USER: genes 11 Torsion [CA]-CB--CG-[CD] |==|  0.79474
USER: genes 12 Torsion [CB]-CG--CD-[OE2] |==|  0.10827
USER: genes 13 Torsion [N]-CA--C-[N] |==|  0.89230
USER: genes 14 Torsion [C]-N--CA-[CB] |==|  0.28089
USER: genes 15 Torsion [N]-CA--C-[O] |==|  0.85075
USER: genes 16 Torsion [CB]-CA--N-[C] |==|  0.43293
USER: genes 17 Torsion [N]-C--CA-[N] |==|  0.91345
USER: genes 18 Torsion [C]-CA--N-[C] |==|  0.82521
USER: genes 19 Torsion [N]-C--CA-[N] |==|  0.85683
USER: genes 20 Torsion [C]-CA--N-[C] |==|  0.69822
USER: genes 21 Torsion [N]-C--CA-[N] |==|  0.46215
USER: genes 22 Torsion [C]-CA--CB-[CG] |==|  0.12444
USER: genes 23 Torsion [CA]-CB--CG-[CD1] |==|  0.22117
ROOT
ATOM      1  CA  LEU B   4      38.161  -2.676   5.254  1.00 36.98 LIG 0.18  C 
ENDROOT
BRANCH 1 2
ATOM      2  CB  LEU B   4      38.030  -1.546   4.233  1.00 35.91 LIG 0.04  C 
BRANCH 2 3
ATOM      3  CG  LEU B   4      39.336  -1.089   3.559  1.00 35.93 LIG-0.02  C 
ATOM      4  CD2 LEU B   4      40.562  -1.802   4.117  1.00 33.66 LIG 0.01  C 
ATOM      5  CD1 LEU B   4      39.525   0.464   3.681  1.00 37.78 LIG 0.01  C 
ENDBRANCH 2 3
ENDBRANCH 1 2
BRANCH 1 6
ATOM      6  C   LEU B   4      37.980  -2.070   6.636  1.00 38.06 LIG 0.24  C 
ATOM      7  N   PHE B   5      36.911  -2.481   7.323  1.00 38.73 LIG-0.35  N 
ATOM      8 H    PHE B   5      36.409  -3.133   7.073  1.00 38.73 LIG 0.16  HD
ATOM      9 O    LEU B   4      38.759  -1.195   7.028  1.00 36.58 LIG-0.27  OA
BRANCH 7 10
ATOM     10  CA  PHE B   5      36.487  -1.856   8.572  1.00 41.04 LIG 0.18  C 
BRANCH 10 11
ATOM     11  CB  PHE B   5      35.371  -0.816   8.372  1.00 39.67 LIG 0.07  C 
BRANCH 11 12
ATOM     12  CG  PHE B   5      35.864   0.503   7.914  1.00 38.07 LIG-0.06  A 
ATOM     13  CD2 PHE B   5      36.095   0.740   6.584  1.00 33.96 LIG 0.01  A 
ATOM     14  CE2 PHE B   5      36.590   1.995   6.134  1.00 35.53 LIG 0.00  A 
ATOM     15  CZ  PHE B   5      36.903   2.985   7.044  1.00 34.38 LIG 0.00  A 
ATOM     16  CE1 PHE B   5      36.678   2.730   8.404  1.00 35.56 LIG 0.00  A 
ATOM     17  CD1 PHE B   5      36.160   1.494   8.825  1.00 35.27 LIG 0.01  A 
ENDBRANCH 11 12
ENDBRANCH 10 11
BRANCH 10 18
ATOM     18  C   PHE B   5      35.998  -2.858   9.574  1.00 43.64 LIG 0.24  C 
ATOM     19 O    PHE B   5      34.971  -3.507   9.336  1.00 43.27 LIG-0.27  OA
ATOM     20  N   GLU B   6      36.761  -3.002  10.660  1.00 47.41 LIG-0.35  N 
ATOM     21 H    GLU B   6      37.587  -2.761  10.689  1.00 47.41 LIG 0.16  HD
BRANCH 20 22
ATOM     22  CA  GLU B   6      36.271  -3.589  11.928  1.00 51.55 LIG 0.18  C 
BRANCH 22 23
ATOM     23  CB  GLU B   6      37.306  -3.457  13.061  1.00 52.47 LIG 0.04  C 
BRANCH 23 24
ATOM     24  CG  GLU B   6      38.718  -3.007  12.541  1.00 56.11 LIG 0.12  C 
BRANCH 24 25
ATOM     25  CD  GLU B   6      39.517  -4.103  11.791  1.00 59.86 LIG 0.17  C 
ATOM     26 OE2  GLU B   6      38.907  -4.873  11.027  1.00 64.67 LIG-0.65  OA
ATOM     27 OE1  GLU B   6      40.755  -4.191  11.913  1.00 64.70 LIG-0.65  OA
ENDBRANCH 24 25
ENDBRANCH 23 24
ENDBRANCH 22 23
BRANCH 22 28
ATOM     28  C   GLU B   6      34.942  -2.881  12.312  1.00 53.54 LIG 0.24  C 
ATOM     29 O    GLU B   6      34.000  -3.500  12.843  1.00 53.95 LIG-0.27  OA
ATOM     30  N   ALA B   7      34.875  -1.570  12.083  1.00 56.31 LIG-0.35  N 
ATOM     31 H    ALA B   7      35.499  -1.114  11.707  1.00 56.31 LIG 0.16  HD
BRANCH 30 32
ATOM     32  CA  ALA B   7      33.679  -0.777  12.474  1.00 57.55 LIG 0.16  C 
ATOM     33  CB  ALA B   7      33.921   0.000  13.778  1.00 58.11 LIG 0.04  C 
BRANCH 32 34
ATOM     34  C   ALA B   7      33.283   0.182  11.363  1.00 58.67 LIG 0.22  C 
ATOM     35 O    ALA B   7      34.111   0.962  10.900  1.00 60.59 LIG-0.29  OA
ENDBRANCH 32 34
ENDBRANCH 30 32
ENDBRANCH 22 28
ENDBRANCH 20 22
ENDBRANCH 10 18
ENDBRANCH 7 10
ENDBRANCH 1 6
BRANCH 1 36
ATOM     36  N   LEU B   4      37.259  -3.782   4.954  1.00 37.09 LIG-0.35  N 
ATOM     37 H    LEU B   4      36.571  -3.557   4.489  1.00 37.09 LIG 0.16  HD
ATOM     38  C   TRP B   3      37.493  -5.032   5.373  1.00 37.19 LIG 0.24  C 
ATOM     39 O    TRP B   3      38.451  -5.332   6.012  1.00 36.60 LIG-0.27  OA
BRANCH 38 40
ATOM     40  CA  TRP B   3      36.510  -6.117   4.950  1.00 38.87 LIG 0.18  C 
BRANCH 40 41
ATOM     41  N   TRP B   3      35.175  -5.528   4.814  1.00 40.30 LIG-0.35  N 
ATOM     42  C   ALA B   2      34.555  -4.994   5.881  1.00 43.05 LIG 0.24  C 
ATOM     43 O    ALA B   2      34.974  -5.124   7.034  1.00 42.86 LIG-0.27  OA
ATOM     44 H    TRP B   3      34.844  -5.557   4.020  1.00 40.30 LIG 0.16  HD
BRANCH 42 45
ATOM     45  CA  ALA B   2      33.247  -4.263   5.637  1.00 44.71 LIG 0.17  C 
ATOM     46  CB  ALA B   2      32.130  -5.252   5.211  1.00 44.36 LIG 0.04  C 
BRANCH 45 47
ATOM     47  N   ALA B   2      33.453  -3.281   4.572  1.00 46.59 LIG-0.35  N 
ATOM     48 H    ALA B   2      33.552  -3.624   3.790  1.00 46.59 LIG 0.16  HD
ATOM     49  C   PRO B   1      33.480  -1.986   4.815  1.00 48.49 LIG 0.25  C 
ATOM     50 O    PRO B   1      33.494  -1.546   5.953  1.00 48.43 LIG-0.27  OA
BRANCH 49 51
ATOM     51  CA  PRO B   1      33.494  -1.044   3.541  1.00 50.22 LIG 0.28  C 
ATOM     52  N   PRO B   1      33.205   0.391   3.828  1.00 50.48 LIG-0.06  N 
ATOM     53 H3   PRO B   1      32.600   0.670   3.284  1.00 50.48 LIG 0.28  HD
ATOM     54 H2   PRO B   1      32.880   0.459   4.622  1.00 50.48 LIG 0.28  HD
ATOM     55  CD  PRO B   1      34.393   1.258   3.716  1.00 50.94 LIG 0.23  C 
ATOM     56  CG  PRO B   1      35.507   0.327   3.246  1.00 51.81 LIG 0.03  C 
ATOM     57  CB  PRO B   1      34.873  -1.011   2.851  1.00 50.52 LIG 0.04  C 
ENDBRANCH 49 51
ENDBRANCH 45 47
ENDBRANCH 42 45
ENDBRANCH 40 41
BRANCH 40 58
ATOM     58  CB  TRP B   3      37.012  -6.788   3.651  1.00 38.41 LIG 0.07  C 
BRANCH 58 59
ATOM     59  CG  TRP B   3      38.443  -7.067   3.753  1.00 37.10 LIG-0.03  A 
ATOM     60  CD1 TRP B   3      39.012  -8.099   4.399  1.00 36.42 LIG 0.10  A 
ATOM     61  NE1 TRP B   3      40.368  -8.016   4.312  1.00 36.34 LIG-0.36  N 
ATOM     62 HE1  TRP B   3      40.927  -8.573   4.653  1.00 36.34 LIG 0.17  HD
ATOM     63  CE2 TRP B   3      40.695  -6.899   3.591  1.00 35.80 LIG 0.04  A 
ATOM     64  CD2 TRP B   3      39.510  -6.268   3.245  1.00 33.30 LIG-0.00  A 
ATOM     65  CZ2 TRP B   3      41.951  -6.377   3.263  1.00 36.94 LIG 0.03  A 
ATOM     66  CE3 TRP B   3      39.567  -5.100   2.500  1.00 37.18 LIG 0.01  A 
ATOM     67  CZ3 TRP B   3      40.814  -4.592   2.142  1.00 37.29 LIG 0.00  A 
ATOM     68  CH2 TRP B   3      41.991  -5.239   2.534  1.00 32.87 LIG 0.00  A 
ENDBRANCH 58 59
ENDBRANCH 40 58
ENDBRANCH 38 40
ENDBRANCH 1 36
TORSDOF 22
ENDMDL
MODEL 3
USER: ADFR SOLUTION from run 62
USER: SCORE 20.603638 LL:  -5.813 LR: -17.645 RR:   0.000 FEB: -11.083
USER: RMSD 7.034388
USER: SEED 61
USER: STATUS no improvement in best in 13 clusters for 5 generations
USER: GENES 24
USER: genes 0 Translation |==|  0.59385 0.47264 0.58284
USER: genes 1 Rotation |==|  0.73644 0.27470 0.26648 0.79800
USER: genes 2 Torsion [C]-CA--CB-[CG] |==|  0.32546
USER: genes 3 Torsion [CA]-CB--CG-[CD1] |==|  0.97236
USER: genes 4 Torsion [N]-CA--C-[N] |==|  0.82631
USER: genes 5 Torsion [C]-N--CA-[CB] |==|  0.24395
USER: genes 6 Torsion [N]-CA--CB-[CG] |==|  0.85351
USER: genes 7 Torsion [CA]-CB--CG-[CD2] |==|  0.79182
USER: genes 8 Torsion [N]-CA--C-[N] |==|  0.46252
USER: genes 9 Torsion [C]-N--CA-[C] |==|  0.63573
USER: genes 10 Torsion [N]-CA--CB-[CG] |==|  0.52405
USER: genes 11 Torsion [CA]-CB--CG-[CD] |==|  0.30535
USER: genes 12 Torsion [CB]-CG--CD-[OE2] |==|  0.03010
USER: genes 13 Torsion [N]-CA--C-[N] |==|  0.43142
USER: genes 14 Torsion [C]-N--CA-[CB] |==|  0.21138
USER: genes 15 Torsion [N]-CA--C-[O] |==|  0.99720
USER: genes 16 Torsion [CB]-CA--N-[C] |==|  0.26110
USER: genes 17 Torsion [N]-C--CA-[N] |==|  0.68333
USER: genes 18 Torsion [C]-CA--N-[C] |==|  0.15900
USER: genes 19 Torsion [N]-C--CA-[N] |==|  0.88939
USER: genes 20 Torsion [C]-CA--N-[C] |==|  0.83179
USER: genes 21 Torsion [N]-C--CA-[N] |==|  0.12301
USER: genes 22 Torsion [C]-CA--CB-[CG] |==|  0.40571
USER: genes 23 Torsion [CA]-CB--CG-[CD1] |==|  0.87683
ROOT
ATOM      1  CA  LEU B   4      36.796  -3.535  11.523  1.00 36.98 LIG 0.18  C 
ENDROOT
BRANCH 1 2
ATOM      2  CB  LEU B   4      37.979  -2.958  12.300  1.00 35.91 LIG 0.04  C 
BRANCH 2 3
ATOM      3  CG  LEU B   4      39.061  -3.964  12.730  1.00 35.93 LIG-0.02  C 
ATOM      4  CD2 LEU B   4      40.393  -3.726  12.028  1.00 33.66 LIG 0.01  C 
ATOM      5  CD1 LEU B   4      38.591  -5.442  12.486  1.00 37.78 LIG 0.01  C 
ENDBRANCH 2 3
ENDBRANCH 1 2
BRANCH 1 6
ATOM      6  C   LEU B   4      35.545  -3.308  12.356  1.00 38.06 LIG 0.24  C 
ATOM      7  N   PHE B   5      35.221  -2.035  12.596  1.00 38.73 LIG-0.35  N 
ATOM      8 H    PHE B   5      35.609  -1.368  12.216  1.00 38.73 LIG 0.16  HD
ATOM      9 O    LEU B   4      34.938  -4.277  12.825  1.00 36.58 LIG-0.27  OA
BRANCH 7 10
ATOM     10  CA  PHE B   5      34.171  -1.652  13.535  1.00 41.04 LIG 0.18  C 
BRANCH 10 11
ATOM     11  CB  PHE B   5      34.686  -1.503  14.978  1.00 39.67 LIG 0.07  C 
BRANCH 11 12
ATOM     12  CG  PHE B   5      35.426  -2.688  15.468  1.00 38.07 LIG-0.06  A 
ATOM     13  CD2 PHE B   5      34.758  -3.831  15.824  1.00 33.96 LIG 0.01  A 
ATOM     14  CE2 PHE B   5      35.455  -4.969  16.318  1.00 35.53 LIG 0.00  A 
ATOM     15  CZ  PHE B   5      36.823  -4.920  16.501  1.00 34.38 LIG 0.00  A 
ATOM     16  CE1 PHE B   5      37.496  -3.742  16.148  1.00 35.56 LIG 0.00  A 
ATOM     17  CD1 PHE B   5      36.794  -2.640  15.635  1.00 35.27 LIG 0.01  A 
ENDBRANCH 11 12
ENDBRANCH 10 11
BRANCH 10 18
ATOM     18  C   PHE B   5      33.510  -0.362  13.155  1.00 43.64 LIG 0.24  C 
ATOM     19 O    PHE B   5      34.013   0.345  12.271  1.00 43.27 LIG-0.27  OA
ATOM     20  N   GLU B   6      32.369  -0.093  13.794  1.00 47.41 LIG-0.35  N 
ATOM     21 H    GLU B   6      31.898  -0.696  14.189  1.00 47.41 LIG 0.16  HD
BRANCH 20 22
ATOM     22  CA  GLU B   6      31.792   1.267  13.894  1.00 51.55 LIG 0.18  C 
BRANCH 22 23
ATOM     23  CB  GLU B   6      30.557   1.437  12.990  1.00 52.47 LIG 0.04  C 
BRANCH 23 24
ATOM     24  CG  GLU B   6      30.062   2.925  12.916  1.00 56.11 LIG 0.12  C 
BRANCH 24 25
ATOM     25  CD  GLU B   6      30.293   3.621  11.550  1.00 59.86 LIG 0.17  C 
ATOM     26 OE2  GLU B   6      30.645   2.931  10.576  1.00 64.67 LIG-0.65  OA
ATOM     27 OE1  GLU B   6      30.092   4.844  11.412  1.00 64.70 LIG-0.65  OA
ENDBRANCH 24 25
ENDBRANCH 23 24
ENDBRANCH 22 23
BRANCH 22 28
ATOM     28  C   GLU B   6      31.425   1.533  15.382  1.00 53.54 LIG 0.24  C 
ATOM     29 O    GLU B   6      31.223   0.599  16.182  1.00 53.95 LIG-0.27  OA
ATOM     30  N   ALA B   7      31.379   2.807  15.768  1.00 56.31 LIG-0.35  N 
ATOM     31 H    ALA B   7      31.499   3.475  15.241  1.00 56.31 LIG 0.16  HD
BRANCH 30 32
ATOM     32  CA  ALA B   7      31.106   3.177  17.184  1.00 57.55 LIG 0.16  C 
ATOM     33  CB  ALA B   7      32.341   2.951  18.071  1.00 58.11 LIG 0.04  C 
BRANCH 32 34
ATOM     34  C   ALA B   7      30.651   4.623  17.283  1.00 58.67 LIG 0.22  C 
ATOM     35 O    ALA B   7      30.572   5.313  16.271  1.00 60.59 LIG-0.29  OA
ENDBRANCH 32 34
ENDBRANCH 30 32
ENDBRANCH 22 28
ENDBRANCH 20 22
ENDBRANCH 10 18
ENDBRANCH 7 10
ENDBRANCH 1 6
BRANCH 1 36
ATOM     36  N   LEU B   4      36.728  -3.000  10.168  1.00 37.09 LIG-0.35  N 
ATOM     37 H    LEU B   4      36.302  -2.255  10.106  1.00 37.09 LIG 0.16  HD
ATOM     38  C   TRP B   3      37.282  -3.625   9.121  1.00 37.19 LIG 0.24  C 
ATOM     39 O    TRP B   3      37.873  -4.653   9.220  1.00 36.60 LIG-0.27  OA
BRANCH 38 40
ATOM     40  CA  TRP B   3      37.197  -2.943   7.762  1.00 38.87 LIG 0.18  C 
BRANCH 40 41
ATOM     41  N   TRP B   3      36.355  -3.749   6.872  1.00 40.30 LIG-0.35  N 
ATOM     42  C   ALA B   2      35.091  -4.046   7.218  1.00 43.05 LIG 0.24  C 
ATOM     43 O    ALA B   2      34.633  -3.825   8.342  1.00 42.86 LIG-0.27  OA
ATOM     44 H    TRP B   3      36.734  -4.000   6.142  1.00 40.30 LIG 0.16  HD
BRANCH 42 45
ATOM     45  CA  ALA B   2      34.228  -4.747   6.183  1.00 44.71 LIG 0.17  C 
ATOM     46  CB  ALA B   2      34.536  -6.267   6.145  1.00 44.36 LIG 0.04  C 
BRANCH 45 47
ATOM     47  N   ALA B   2      34.508  -4.166   4.871  1.00 46.59 LIG-0.35  N 
ATOM     48 H    ALA B   2      34.814  -4.725   4.294  1.00 46.59 LIG 0.16  HD
ATOM     49  C   PRO B   1      34.302  -2.890   4.616  1.00 48.49 LIG 0.25  C 
ATOM     50 O    PRO B   1      34.018  -2.095   5.499  1.00 48.43 LIG-0.27  OA
BRANCH 49 51
ATOM     51  CA  PRO B   1      34.446  -2.455   3.099  1.00 50.22 LIG 0.28  C 
ATOM     52  N   PRO B   1      33.793  -3.377   2.125  1.00 50.48 LIG-0.06  N 
ATOM     53 H3   PRO B   1      34.352  -3.566   1.499  1.00 50.48 LIG 0.28  HD
ATOM     54 H2   PRO B   1      33.601  -4.116   2.523  1.00 50.48 LIG 0.28  HD
ATOM     55  CD  PRO B   1      32.567  -2.818   1.525  1.00 50.94 LIG 0.23  C 
ATOM     56  CG  PRO B   1      32.469  -1.405   2.094  1.00 51.81 LIG 0.03  C 
ATOM     57  CB  PRO B   1      33.785  -1.091   2.815  1.00 50.52 LIG 0.04  C 
ENDBRANCH 49 51
ENDBRANCH 45 47
ENDBRANCH 42 45
ENDBRANCH 40 41
BRANCH 40 58
ATOM     58  CB  TRP B   3      36.678  -1.497   7.943  1.00 38.41 LIG 0.07  C 
BRANCH 58 59
ATOM     59  CG  TRP B   3      37.298  -0.617   6.956  1.00 37.10 LIG-0.03  A 
ATOM     60  CD1 TRP B   3      38.597  -0.592   6.611  1.00 36.42 LIG 0.10  A 
ATOM     61  NE1 TRP B   3      38.817   0.382   5.686  1.00 36.34 LIG-0.36  N 
ATOM     62 HE1  TRP B   3      39.576   0.571   5.328  1.00 36.34 LIG 0.17  HD
ATOM     63  CE2 TRP B   3      37.631   1.012   5.419  1.00 35.80 LIG 0.04  A 
ATOM     64  CD2 TRP B   3      36.661   0.425   6.216  1.00 33.30 LIG-0.00  A 
ATOM     65  CZ2 TRP B   3      37.357   2.088   4.568  1.00 36.94 LIG 0.03  A 
ATOM     66  CE3 TRP B   3      35.356   0.885   6.132  1.00 37.18 LIG 0.01  A 
ATOM     67  CZ3 TRP B   3      35.069   1.935   5.262  1.00 37.29 LIG 0.00  A 
ATOM     68  CH2 TRP B   3      36.079   2.525   4.494  1.00 32.87 LIG 0.00  A 
ENDBRANCH 58 59
ENDBRANCH 40 58
ENDBRANCH 38 40
ENDBRANCH 1 36
TORSDOF 22
ENDMDL
MODEL 4
USER: ADFR SOLUTION from run 1
USER: SCORE 21.462484 LL:  -5.621 LR: -17.559 RR:   0.000 FEB: -10.996
USER: RMSD 6.936445
USER: SEED 481703
USER: STATUS searching
USER: GENES 24
USER: genes 0 Translation |==|  0.52239 0.68011 0.47099
USER: genes 1 Rotation |==|  0.58534 0.40486 0.57125 0.97811
USER: genes 2 Torsion [C]-CA--CB-[CG] |==|  0.42497
USER: genes 3 Torsion [CA]-CB--CG-[CD1] |==|  0.39051
USER: genes 4 Torsion [N]-CA--C-[N] |==|  0.17999
USER: genes 5 Torsion [C]-N--CA-[CB] |==|  0.56136
USER: genes 6 Torsion [N]-CA--CB-[CG] |==|  0.51211
USER: genes 7 Torsion [CA]-CB--CG-[CD2] |==|  0.13831
USER: genes 8 Torsion [N]-CA--C-[N] |==|  0.28675
USER: genes 9 Torsion [C]-N--CA-[C] |==|  0.87704
USER: genes 10 Torsion [N]-CA--CB-[CG] |==|  0.76571
USER: genes 11 Torsion [CA]-CB--CG-[CD] |==|  0.83435
USER: genes 12 Torsion [CB]-CG--CD-[OE2] |==|  0.72823
USER: genes 13 Torsion [N]-CA--C-[N] |==|  0.35603
USER: genes 14 Torsion [C]-N--CA-[CB] |==|  0.20295
USER: genes 15 Torsion [N]-CA--C-[O] |==|  0.97992
USER: genes 16 Torsion [CB]-CA--N-[C] |==|  0.18789
USER: genes 17 Torsion [N]-C--CA-[N] |==|  0.34069
USER: genes 18 Torsion [C]-CA--N-[C] |==|  0.84124
USER: genes 19 Torsion [N]-C--CA-[N] |==|  0.45556
USER: genes 20 Torsion [C]-CA--N-[C] |==|  0.52243
USER: genes 21 Torsion [N]-C--CA-[N] |==|  0.15320
USER: genes 22 Torsion [C]-CA--CB-[CG] |==|  0.77196
USER: genes 23 Torsion [CA]-CB--CG-[CD1] |==|  0.23076
ROOT
ATOM      1  CA  LEU B   4      35.242   0.510   9.006  1.00 36.98 LIG 0.18  C 
ENDROOT
BRANCH 1 2
ATOM      2  CB  LEU B   4      34.992   1.764   8.170  1.00 35.91 LIG 0.04  C 
BRANCH 2 3
ATOM      3  CG  LEU B   4      36.183   2.270   7.337  1.00 35.93 LIG-0.02  C 
ATOM      4  CD2 LEU B   4      36.967   3.368   8.046  1.00 33.66 LIG 0.01  C 
ATOM      5  CD1 LEU B   4      35.716   2.777   5.928  1.00 37.78 LIG 0.01  C 
ENDBRANCH 2 3
ENDBRANCH 1 2
BRANCH 1 6
ATOM      6  C   LEU B   4      34.294   0.554  10.195  1.00 38.06 LIG 0.24  C 
ATOM      7  N   PHE B   5      34.503  -0.358  11.148  1.00 38.73 LIG-0.35  N 
ATOM      8 H    PHE B   5      35.195  -0.869  11.170  1.00 38.73 LIG 0.16  HD
ATOM      9 O    LEU B   4      33.354   1.356  10.198  1.00 36.58 LIG-0.27  OA
BRANCH 7 10
ATOM     10  CA  PHE B   5      33.571  -0.576  12.249  1.00 41.04 LIG 0.18  C 
BRANCH 10 11
ATOM     11  CB  PHE B   5      34.232  -1.242  13.468  1.00 39.67 LIG 0.07  C 
BRANCH 11 12
ATOM     12  CG  PHE B   5      33.281  -1.564  14.556  1.00 38.07 LIG-0.06  A 
ATOM     13  CD2 PHE B   5      32.118  -2.239  14.291  1.00 33.96 LIG 0.01  A 
ATOM     14  CE2 PHE B   5      31.185  -2.534  15.323  1.00 35.53 LIG 0.00  A 
ATOM     15  CZ  PHE B   5      31.412  -2.093  16.612  1.00 34.38 LIG 0.00  A 
ATOM     16  CE1 PHE B   5      32.597  -1.391  16.872  1.00 35.56 LIG 0.00  A 
ATOM     17  CD1 PHE B   5      33.519  -1.135  15.845  1.00 35.27 LIG 0.01  A 
ENDBRANCH 11 12
ENDBRANCH 10 11
BRANCH 10 18
ATOM     18  C   PHE B   5      32.935   0.697  12.718  1.00 43.64 LIG 0.24  C 
ATOM     19 O    PHE B   5      33.596   1.496  13.396  1.00 43.27 LIG-0.27  OA
ATOM     20  N   GLU B   6      31.676   0.892  12.318  1.00 47.41 LIG-0.35  N 
ATOM     21 H    GLU B   6      31.330   0.483  11.644  1.00 47.41 LIG 0.16  HD
BRANCH 20 22
ATOM     22  CA  GLU B   6      30.743   1.827  12.987  1.00 51.55 LIG 0.18  C 
BRANCH 22 23
ATOM     23  CB  GLU B   6      29.288   1.610  12.534  1.00 52.47 LIG 0.04  C 
BRANCH 23 24
ATOM     24  CG  GLU B   6      28.949   2.371  11.202  1.00 56.11 LIG 0.12  C 
BRANCH 24 25
ATOM     25  CD  GLU B   6      29.127   3.909  11.268  1.00 59.86 LIG 0.17  C 
ATOM     26 OE2  GLU B   6      28.127   4.621  11.473  1.00 64.67 LIG-0.65  OA
ATOM     27 OE1  GLU B   6      30.255   4.429  11.159  1.00 64.70 LIG-0.65  OA
ENDBRANCH 24 25
ENDBRANCH 23 24
ENDBRANCH 22 23
BRANCH 22 28
ATOM     28  C   GLU B   6      30.876   1.632  14.523  1.00 53.54 LIG 0.24  C 
ATOM     29 O    GLU B   6      30.824   0.502  15.046  1.00 53.95 LIG-0.27  OA
ATOM     30  N   ALA B   7      31.089   2.728  15.249  1.00 56.31 LIG-0.35  N 
ATOM     31 H    ALA B   7      31.117   3.524  14.924  1.00 56.31 LIG 0.16  HD
BRANCH 30 32
ATOM     32  CA  ALA B   7      31.300   2.654  16.720  1.00 57.55 LIG 0.16  C 
ATOM     33  CB  ALA B   7      32.686   2.082  17.060  1.00 58.11 LIG 0.04  C 
BRANCH 32 34
ATOM     34  C   ALA B   7      31.132   4.023  17.357  1.00 58.67 LIG 0.22  C 
ATOM     35 O    ALA B   7      30.989   5.017  16.651  1.00 60.59 LIG-0.29  OA
ENDBRANCH 32 34
ENDBRANCH 30 32
ENDBRANCH 22 28
ENDBRANCH 20 22
ENDBRANCH 10 18
ENDBRANCH 7 10
ENDBRANCH 1 6
BRANCH 1 36
ATOM     36  N   LEU B   4      35.149  -0.703   8.202  1.00 37.09 LIG-0.35  N 
ATOM     37 H    LEU B   4      34.477  -1.203   8.398  1.00 37.09 LIG 0.16  HD
ATOM     38  C   TRP B   3      36.039  -1.000   7.246  1.00 37.19 LIG 0.24  C 
ATOM     39 O    TRP B   3      36.962  -0.298   6.981  1.00 36.60 LIG-0.27  OA
BRANCH 38 40
ATOM     40  CA  TRP B   3      35.808  -2.266   6.432  1.00 38.87 LIG 0.18  C 
BRANCH 40 41
ATOM     41  N   TRP B   3      35.730  -1.915   5.010  1.00 40.30 LIG-0.35  N 
ATOM     42  C   ALA B   2      34.820  -1.024   4.579  1.00 43.05 LIG 0.24  C 
ATOM     43 O    ALA B   2      33.908  -0.599   5.292  1.00 42.86 LIG-0.27  OA
ATOM     44 H    TRP B   3      36.298  -2.317   4.504  1.00 40.30 LIG 0.16  HD
BRANCH 42 45
ATOM     45  CA  ALA B   2      34.900  -0.590   3.127  1.00 44.71 LIG 0.17  C 
ATOM     46  CB  ALA B   2      36.066   0.411   2.911  1.00 44.36 LIG 0.04  C 
BRANCH 45 47
ATOM     47  N   ALA B   2      33.639   0.055   2.762  1.00 46.59 LIG-0.35  N 
ATOM     48 H    ALA B   2      33.106   0.189   3.423  1.00 46.59 LIG 0.16  HD
ATOM     49  C   PRO B   1      33.364   0.393   1.518  1.00 48.49 LIG 0.25  C 
ATOM     50 O    PRO B   1      34.072   0.046   0.586  1.00 48.43 LIG-0.27  OA
BRANCH 49 51
ATOM     51  CA  PRO B   1      32.062   1.272   1.312  1.00 50.22 LIG 0.28  C 
ATOM     52  N   PRO B   1      32.030   2.530   2.113  1.00 50.48 LIG-0.06  N 
ATOM     53 H3   PRO B   1      31.274   2.585   2.520  1.00 50.48 LIG 0.28  HD
ATOM     54 H2   PRO B   1      32.640   2.494   2.718  1.00 50.48 LIG 0.28  HD
ATOM     55  CD  PRO B   1      32.228   3.744   1.298  1.00 50.94 LIG 0.23  C 
ATOM     56  CG  PRO B   1      32.314   3.234  -0.138  1.00 51.81 LIG 0.03  C 
ATOM     57  CB  PRO B   1      31.907   1.757  -0.143  1.00 50.52 LIG 0.04  C 
ENDBRANCH 49 51
ENDBRANCH 45 47
ENDBRANCH 42 45
ENDBRANCH 40 41
BRANCH 40 58
ATOM     58  CB  TRP B   3      36.925  -3.290   6.743  1.00 38.41 LIG 0.07  C 
BRANCH 58 59
ATOM     59  CG  TRP B   3      38.115  -2.984   5.953  1.00 37.10 LIG-0.03  A 
ATOM     60  CD1 TRP B   3      39.065  -2.083   6.255  1.00 36.42 LIG 0.10  A 
ATOM     61  NE1 TRP B   3      40.005  -2.045   5.271  1.00 36.34 LIG-0.36  N 
ATOM     62 HE1  TRP B   3      40.701  -1.540   5.262  1.00 36.34 LIG 0.17  HD
ATOM     63  CE2 TRP B   3      39.660  -2.945   4.298  1.00 35.80 LIG 0.04  A 
ATOM     64  CD2 TRP B   3      38.467  -3.535   4.684  1.00 33.30 LIG-0.00  A 
ATOM     65  CZ2 TRP B   3      40.290  -3.243   3.086  1.00 36.94 LIG 0.03  A 
ATOM     66  CE3 TRP B   3      37.899  -4.496   3.863  1.00 37.18 LIG 0.01  A 
ATOM     67  CZ3 TRP B   3      38.538  -4.822   2.668  1.00 37.29 LIG 0.00  A 
ATOM     68  CH2 TRP B   3      39.727  -4.184   2.295  1.00 32.87 LIG 0.00  A 
ENDBRANCH 58 59
ENDBRANCH 40 58
ENDBRANCH 38 40
ENDBRANCH 1 36
TORSDOF 22
ENDMDL
MODEL 5
USER: ADFR SOLUTION from run 123
USER: SCORE 22.688359 LL:  -6.618 LR: -17.551 RR:   0.000 FEB: -10.988
USER: RMSD 7.938753
USER: SEED 122
USER: STATUS no improvement in best in 4 clusters for 5 generations
USER: GENES 24
USER: genes 0 Translation |==|  0.68691 0.55132 0.21267
USER: genes 1 Rotation |==|  0.84361 0.59662 0.29197 0.78164
USER: genes 2 Torsion [C]-CA--CB-[CG] |==|  0.21309
USER: genes 3 Torsion [CA]-CB--CG-[CD1] |==|  0.07299
USER: genes 4 Torsion [N]-CA--C-[N] |==|  0.12779
USER: genes 5 Torsion [C]-N--CA-[CB] |==|  0.74824
USER: genes 6 Torsion [N]-CA--CB-[CG] |==|  0.09383
USER: genes 7 Torsion [CA]-CB--CG-[CD2] |==|  0.79096
USER: genes 8 Torsion [N]-CA--C-[N] |==|  0.25312
USER: genes 9 Torsion [C]-N--CA-[C] |==|  0.73859
USER: genes 10 Torsion [N]-CA--CB-[CG] |==|  0.90118
USER: genes 11 Torsion [CA]-CB--CG-[CD] |==|  0.83919
USER: genes 12 Torsion [CB]-CG--CD-[OE2] |==|  0.52734
USER: genes 13 Torsion [N]-CA--C-[N] |==|  0.00015
USER: genes 14 Torsion [C]-N--CA-[CB] |==|  0.25918
USER: genes 15 Torsion [N]-CA--C-[O] |==|  0.60314
USER: genes 16 Torsion [CB]-CA--N-[C] |==|  0.76459
USER: genes 17 Torsion [N]-C--CA-[N] |==|  0.25794
USER: genes 18 Torsion [C]-CA--N-[C] |==|  0.64038
USER: genes 19 Torsion [N]-C--CA-[N] |==|  0.05014
USER: genes 20 Torsion [C]-CA--N-[C] |==|  0.18197
USER: genes 21 Torsion [N]-C--CA-[N] |==|  0.14160
USER: genes 22 Torsion [C]-CA--CB-[CG] |==|  0.18697
USER: genes 23 Torsion [CA]-CB--CG-[CD1] |==|  0.10573
ROOT
ATOM      1  CA  LEU B   4      38.820  -2.001   3.194  1.00 36.98 LIG 0.18  C 
ENDROOT
BRANCH 1 2
ATOM      2  CB  LEU B   4      39.766  -1.173   4.064  1.00 35.91 LIG 0.04  C 
BRANCH 2 3
ATOM      3  CG  LEU B   4      41.262  -1.517   3.951  1.00 35.93 LIG-0.02  C 
ATOM      4  CD2 LEU B   4      42.159  -0.310   4.200  1.00 33.66 LIG 0.01  C 
ATOM      5  CD1 LEU B   4      41.596  -2.147   2.553  1.00 37.78 LIG 0.01  C 
ENDBRANCH 2 3
ENDBRANCH 1 2
BRANCH 1 6
ATOM      6  C   LEU B   4      38.659  -3.360   3.857  1.00 38.06 LIG 0.24  C 
ATOM      7  N   PHE B   5      37.719  -4.157   3.342  1.00 38.73 LIG-0.35  N 
ATOM      8 H    PHE B   5      37.303  -3.987   2.609  1.00 38.73 LIG 0.16  HD
ATOM      9 O    LEU B   4      39.327  -3.636   4.859  1.00 36.58 LIG-0.27  OA
BRANCH 7 10
ATOM     10  CA  PHE B   5      37.306  -5.404   3.980  1.00 41.04 LIG 0.18  C 
BRANCH 10 11
ATOM     11  CB  PHE B   5      38.122  -6.618   3.501  1.00 39.67 LIG 0.07  C 
BRANCH 11 12
ATOM     12  CG  PHE B   5      39.533  -6.297   3.188  1.00 38.07 LIG-0.06  A 
ATOM     13  CD2 PHE B   5      39.859  -5.630   2.036  1.00 33.96 LIG 0.01  A 
ATOM     14  CE2 PHE B   5      41.213  -5.336   1.712  1.00 35.53 LIG 0.00  A 
ATOM     15  CZ  PHE B   5      42.234  -5.772   2.534  1.00 34.38 LIG 0.00  A 
ATOM     16  CE1 PHE B   5      41.892  -6.465   3.703  1.00 35.56 LIG 0.00  A 
ATOM     17  CD1 PHE B   5      40.548  -6.720   4.019  1.00 35.27 LIG 0.01  A 
ENDBRANCH 11 12
ENDBRANCH 10 11
BRANCH 10 18
ATOM     18  C   PHE B   5      37.417  -5.344   5.473  1.00 43.64 LIG 0.24  C 
ATOM     19 O    PHE B   5      38.493  -5.630   6.017  1.00 43.27 LIG-0.27  OA
ATOM     20  N   GLU B   6      36.320  -4.934   6.114  1.00 47.41 LIG-0.35  N 
ATOM     21 H    GLU B   6      35.692  -4.488   5.730  1.00 47.41 LIG 0.16  HD
BRANCH 20 22
ATOM     22  CA  GLU B   6      36.066  -5.200   7.548  1.00 51.55 LIG 0.18  C 
BRANCH 22 23
ATOM     23  CB  GLU B   6      35.357  -4.019   8.236  1.00 52.47 LIG 0.04  C 
BRANCH 23 24
ATOM     24  CG  GLU B   6      35.825  -2.626   7.681  1.00 56.11 LIG 0.12  C 
BRANCH 24 25
ATOM     25  CD  GLU B   6      37.346  -2.355   7.802  1.00 59.86 LIG 0.17  C 
ATOM     26 OE2  GLU B   6      37.773  -1.211   7.561  1.00 64.67 LIG-0.65  OA
ATOM     27 OE1  GLU B   6      38.130  -3.250   8.175  1.00 64.70 LIG-0.65  OA
ENDBRANCH 24 25
ENDBRANCH 23 24
ENDBRANCH 22 23
BRANCH 22 28
ATOM     28  C   GLU B   6      35.213  -6.495   7.660  1.00 53.54 LIG 0.24  C 
ATOM     29 O    GLU B   6      34.823  -6.928   8.761  1.00 53.95 LIG-0.27  OA
ATOM     30  N   ALA B   7      34.885  -7.096   6.517  1.00 56.31 LIG-0.35  N 
ATOM     31 H    ALA B   7      35.148  -6.833   5.742  1.00 56.31 LIG 0.16  HD
BRANCH 30 32
ATOM     32  CA  ALA B   7      34.015  -8.302   6.499  1.00 57.55 LIG 0.16  C 
ATOM     33  CB  ALA B   7      32.537  -7.926   6.302  1.00 58.11 LIG 0.04  C 
BRANCH 32 34
ATOM     34  C   ALA B   7      34.456  -9.267   5.411  1.00 58.67 LIG 0.22  C 
ATOM     35 O    ALA B   7      33.619  -9.898   4.773  1.00 60.59 LIG-0.29  OA
ENDBRANCH 32 34
ENDBRANCH 30 32
ENDBRANCH 22 28
ENDBRANCH 20 22
ENDBRANCH 10 18
ENDBRANCH 7 10
ENDBRANCH 1 6
BRANCH 1 36
ATOM     36  N   LEU B   4      37.568  -1.299   2.938  1.00 37.09 LIG-0.35  N 
ATOM     37 H    LEU B   4      37.554  -0.866   2.195  1.00 37.09 LIG 0.16  HD
ATOM     38  C   TRP B   3      36.538  -1.334   3.793  1.00 37.19 LIG 0.24  C 
ATOM     39 O    TRP B   3      36.567  -1.941   4.817  1.00 36.60 LIG-0.27  OA
BRANCH 38 40
ATOM     40  CA  TRP B   3      35.259  -0.610   3.393  1.00 38.87 LIG 0.18  C 
BRANCH 40 41
ATOM     41  N   TRP B   3      34.363  -1.555   2.721  1.00 40.30 LIG-0.35  N 
ATOM     42  C   ALA B   2      33.815  -1.245   1.533  1.00 43.05 LIG 0.24  C 
ATOM     43 O    ALA B   2      33.882  -0.117   1.038  1.00 42.86 LIG-0.27  OA
ATOM     44 H    TRP B   3      34.229  -2.293   3.143  1.00 40.30 LIG 0.16  HD
BRANCH 42 45
ATOM     45  CA  ALA B   2      33.027  -2.330   0.822  1.00 44.71 LIG 0.17  C 
ATOM     46  CB  ALA B   2      31.728  -1.753   0.198  1.00 44.36 LIG 0.04  C 
BRANCH 45 47
ATOM     47  N   ALA B   2      32.675  -3.366   1.793  1.00 46.59 LIG-0.35  N 
ATOM     48 H    ALA B   2      33.045  -4.128   1.647  1.00 46.59 LIG 0.16  HD
ATOM     49  C   PRO B   1      31.859  -3.128   2.799  1.00 48.49 LIG 0.25  C 
ATOM     50 O    PRO B   1      31.231  -2.084   2.885  1.00 48.43 LIG-0.27  OA
BRANCH 49 51
ATOM     51  CA  PRO B   1      31.744  -4.278   3.883  1.00 50.22 LIG 0.28  C 
ATOM     52  N   PRO B   1      33.051  -4.767   4.409  1.00 50.48 LIG-0.06  N 
ATOM     53 H3   PRO B   1      33.065  -5.627   4.373  1.00 50.48 LIG 0.28  HD
ATOM     54 H2   PRO B   1      33.683  -4.484   3.898  1.00 50.48 LIG 0.28  HD
ATOM     55  CD  PRO B   1      33.320  -4.337   5.794  1.00 50.94 LIG 0.23  C 
ATOM     56  CG  PRO B   1      32.060  -3.585   6.216  1.00 51.81 LIG 0.03  C 
ATOM     57  CB  PRO B   1      30.988  -3.819   5.147  1.00 50.52 LIG 0.04  C 
ENDBRANCH 49 51
ENDBRANCH 45 47
ENDBRANCH 42 45
ENDBRANCH 40 41
BRANCH 40 58
ATOM     58  CB  TRP B   3      34.625   0.043   4.643  1.00 38.41 LIG 0.07  C 
BRANCH 58 59
ATOM     59  CG  TRP B   3      35.480   1.122   5.131  1.00 37.10 LIG-0.03  A 
ATOM     60  CD1 TRP B   3      36.177   1.991   4.380  1.00 36.42 LIG 0.10  A 
ATOM     61  NE1 TRP B   3      36.889   2.834   5.178  1.00 36.34 LIG-0.36  N 
ATOM     62 HE1  TRP B   3      37.403   3.468   4.905  1.00 36.34 LIG 0.17  HD
ATOM     63  CE2 TRP B   3      36.653   2.507   6.486  1.00 35.80 LIG 0.04  A 
ATOM     64  CD2 TRP B   3      35.790   1.421   6.492  1.00 33.30 LIG-0.00  A 
ATOM     65  CZ2 TRP B   3      37.176   3.060   7.660  1.00 36.94 LIG 0.03  A 
ATOM     66  CE3 TRP B   3      35.387   0.893   7.709  1.00 37.18 LIG 0.01  A 
ATOM     67  CZ3 TRP B   3      35.879   1.460   8.883  1.00 37.29 LIG 0.00  A 
ATOM     68  CH2 TRP B   3      36.772   2.536   8.839  1.00 32.87 LIG 0.00  A 
ENDBRANCH 58 59
ENDBRANCH 40 58
ENDBRANCH 38 40
ENDBRANCH 1 36
TORSDOF 22
ENDMDL
MODEL 6
USER: ADFR SOLUTION from run 49
USER: SCORE 19.518196 LL:  -5.416 LR: -17.502 RR:   0.000 FEB: -10.939
USER: RMSD 6.993749
USER: SEED 48
USER: STATUS no improvement in best in 6 clusters for 5 generations
USER: GENES 24
USER: genes 0 Translation |==|  0.61381 0.46376 0.58195
USER: genes 1 Rotation |==|  0.76300 0.25940 0.27639 0.77008
USER: genes 2 Torsion [C]-CA--CB-[CG] |==|  0.35192
USER: genes 3 Torsion [CA]-CB--CG-[CD1] |==|  0.92938
USER: genes 4 Torsion [N]-CA--C-[N] |==|  0.82343
USER: genes 5 Torsion [C]-N--CA-[CB] |==|  0.24793
USER: genes 6 Torsion [N]-CA--CB-[CG] |==|  0.88773
USER: genes 7 Torsion [CA]-CB--CG-[CD2] |==|  0.79579
USER: genes 8 Torsion [N]-CA--C-[N] |==|  0.49402
USER: genes 9 Torsion [C]-N--CA-[C] |==|  0.66113
USER: genes 10 Torsion [N]-CA--CB-[CG] |==|  0.52134
USER: genes 11 Torsion [CA]-CB--CG-[CD] |==|  0.32034
USER: genes 12 Torsion [CB]-CG--CD-[OE2] |==|  0.06774
USER: genes 13 Torsion [N]-CA--C-[N] |==|  0.03174
USER: genes 14 Torsion [C]-N--CA-[CB] |==|  0.49249
USER: genes 15 Torsion [N]-CA--C-[O] |==|  0.32727
USER: genes 16 Torsion [CB]-CA--N-[C] |==|  0.39122
USER: genes 17 Torsion [N]-C--CA-[N] |==|  0.54020
USER: genes 18 Torsion [C]-CA--N-[C] |==|  0.75947
USER: genes 19 Torsion [N]-C--CA-[N] |==|  0.86018
USER: genes 20 Torsion [C]-CA--N-[C] |==|  0.83161
USER: genes 21 Torsion [N]-C--CA-[N] |==|  0.11298
USER: genes 22 Torsion [C]-CA--CB-[CG] |==|  0.43283
USER: genes 23 Torsion [CA]-CB--CG-[CD1] |==|  0.91262
ROOT
ATOM      1  CA  LEU B   4      37.230  -3.709  11.503  1.00 36.98 LIG 0.18  C 
ENDROOT
BRANCH 1 2
ATOM      2  CB  LEU B   4      38.281  -3.204  12.492  1.00 35.91 LIG 0.04  C 
BRANCH 2 3
ATOM      3  CG  LEU B   4      39.412  -4.188  12.836  1.00 35.93 LIG-0.02  C 
ATOM      4  CD2 LEU B   4      40.680  -3.927  12.031  1.00 33.66 LIG 0.01  C 
ATOM      5  CD1 LEU B   4      38.953  -5.675  12.633  1.00 37.78 LIG 0.01  C 
ENDBRANCH 2 3
ENDBRANCH 1 2
BRANCH 1 6
ATOM      6  C   LEU B   4      35.866  -3.521  12.146  1.00 38.06 LIG 0.24  C 
ATOM      7  N   PHE B   5      35.523  -2.264  12.442  1.00 38.73 LIG-0.35  N 
ATOM      8 H    PHE B   5      35.974  -1.578  12.186  1.00 38.73 LIG 0.16  HD
ATOM      9 O    LEU B   4      35.182  -4.510  12.430  1.00 36.58 LIG-0.27  OA
BRANCH 7 10
ATOM     10  CA  PHE B   5      34.343  -1.935  13.235  1.00 41.04 LIG 0.18  C 
BRANCH 10 11
ATOM     11  CB  PHE B   5      34.634  -1.885  14.746  1.00 39.67 LIG 0.07  C 
BRANCH 11 12
ATOM     12  CG  PHE B   5      35.539  -2.961  15.211  1.00 38.07 LIG-0.06  A 
ATOM     13  CD2 PHE B   5      35.095  -4.253  15.311  1.00 33.96 LIG 0.01  A 
ATOM     14  CE2 PHE B   5      35.948  -5.291  15.778  1.00 35.53 LIG 0.00  A 
ATOM     15  CZ  PHE B   5      37.233  -5.001  16.194  1.00 34.38 LIG 0.00  A 
ATOM     16  CE1 PHE B   5      37.674  -3.674  16.101  1.00 35.56 LIG 0.00  A 
ATOM     17  CD1 PHE B   5      36.826  -2.668  15.610  1.00 35.27 LIG 0.01  A 
ENDBRANCH 11 12
ENDBRANCH 10 11
BRANCH 10 18
ATOM     18  C   PHE B   5      33.745  -0.617  12.846  1.00 43.64 LIG 0.24  C 
ATOM     19 O    PHE B   5      34.267   0.047  11.940  1.00 43.27 LIG-0.27  OA
ATOM     20  N   GLU B   6      32.634  -0.275  13.503  1.00 47.41 LIG-0.35  N 
ATOM     21 H    GLU B   6      32.139  -0.845  13.917  1.00 47.41 LIG 0.16  HD
BRANCH 20 22
ATOM     22  CA  GLU B   6      32.133   1.116  13.591  1.00 51.55 LIG 0.18  C 
BRANCH 22 23
ATOM     23  CB  GLU B   6      30.771   1.282  12.894  1.00 52.47 LIG 0.04  C 
BRANCH 23 24
ATOM     24  CG  GLU B   6      30.315   2.783  12.808  1.00 56.11 LIG 0.12  C 
BRANCH 24 25
ATOM     25  CD  GLU B   6      30.209   3.351  11.370  1.00 59.86 LIG 0.17  C 
ATOM     26 OE2  GLU B   6      30.025   2.562  10.425  1.00 64.67 LIG-0.65  OA
ATOM     27 OE1  GLU B   6      30.265   4.578  11.159  1.00 64.70 LIG-0.65  OA
ENDBRANCH 24 25
ENDBRANCH 23 24
ENDBRANCH 22 23
BRANCH 22 28
ATOM     28  C   GLU B   6      32.034   1.504  15.093  1.00 53.54 LIG 0.24  C 
ATOM     29 O    GLU B   6      31.415   2.519  15.467  1.00 53.95 LIG-0.27  OA
ATOM     30  N   ALA B   7      32.608   0.676  15.964  1.00 56.31 LIG-0.35  N 
ATOM     31 H    ALA B   7      33.054  -0.025  15.742  1.00 56.31 LIG 0.16  HD
BRANCH 30 32
ATOM     32  CA  ALA B   7      32.517   0.910  17.431  1.00 57.55 LIG 0.16  C 
ATOM     33  CB  ALA B   7      33.201  -0.217  18.222  1.00 58.11 LIG 0.04  C 
BRANCH 32 34
ATOM     34  C   ALA B   7      33.129   2.251  17.800  1.00 58.67 LIG 0.22  C 
ATOM     35 O    ALA B   7      32.432   3.125  18.308  1.00 60.59 LIG-0.29  OA
ENDBRANCH 32 34
ENDBRANCH 30 32
ENDBRANCH 22 28
ENDBRANCH 20 22
ENDBRANCH 10 18
ENDBRANCH 7 10
ENDBRANCH 1 6
BRANCH 1 36
ATOM     36  N   LEU B   4      37.375  -3.081  10.194  1.00 37.09 LIG-0.35  N 
ATOM     37 H    LEU B   4      37.577  -2.246  10.227  1.00 37.09 LIG 0.16  HD
ATOM     38  C   TRP B   3      37.205  -3.758   9.051  1.00 37.19 LIG 0.24  C 
ATOM     39 O    TRP B   3      36.930  -4.915   9.019  1.00 36.60 LIG-0.27  OA
BRANCH 38 40
ATOM     40  CA  TRP B   3      37.438  -3.011   7.744  1.00 38.87 LIG 0.18  C 
BRANCH 40 41
ATOM     41  N   TRP B   3      36.877  -3.794   6.638  1.00 40.30 LIG-0.35  N 
ATOM     42  C   ALA B   2      37.611  -4.748   6.041  1.00 43.05 LIG 0.24  C 
ATOM     43 O    ALA B   2      38.817  -4.898   6.252  1.00 42.86 LIG-0.27  OA
ATOM     44 H    TRP B   3      36.070  -3.590   6.421  1.00 40.30 LIG 0.16  HD
BRANCH 42 45
ATOM     45  CA  ALA B   2      36.917  -5.624   5.013  1.00 44.71 LIG 0.17  C 
ATOM     46  CB  ALA B   2      36.579  -4.814   3.733  1.00 44.36 LIG 0.04  C 
BRANCH 45 47
ATOM     47  N   ALA B   2      35.679  -6.139   5.597  1.00 46.59 LIG-0.35  N 
ATOM     48 H    ALA B   2      34.966  -5.907   5.177  1.00 46.59 LIG 0.16  HD
ATOM     49  C   PRO B   1      35.680  -6.893   6.678  1.00 48.49 LIG 0.25  C 
ATOM     50 O    PRO B   1      36.693  -7.071   7.337  1.00 48.43 LIG-0.27  OA
BRANCH 49 51
ATOM     51  CA  PRO B   1      34.291  -7.549   7.065  1.00 50.22 LIG 0.28  C 
ATOM     52  N   PRO B   1      33.505  -8.065   5.908  1.00 50.48 LIG-0.06  N 
ATOM     53 H3   PRO B   1      32.698  -7.771   5.961  1.00 50.48 LIG 0.28  HD
ATOM     54 H2   PRO B   1      33.839  -7.753   5.179  1.00 50.48 LIG 0.28  HD
ATOM     55  CD  PRO B   1      33.477  -9.538   5.833  1.00 50.94 LIG 0.23  C 
ATOM     56  CG  PRO B   1      34.232 -10.002   7.077  1.00 51.81 LIG 0.03  C 
ATOM     57  CB  PRO B   1      34.459  -8.782   7.976  1.00 50.52 LIG 0.04  C 
ENDBRANCH 49 51
ENDBRANCH 45 47
ENDBRANCH 42 45
ENDBRANCH 40 41
BRANCH 40 58
ATOM     58  CB  TRP B   3      36.836  -1.591   7.848  1.00 38.41 LIG 0.07  C 
BRANCH 58 59
ATOM     59  CG  TRP B   3      37.507  -0.695   6.909  1.00 37.10 LIG-0.03  A 
ATOM     60  CD1 TRP B   3      38.788  -0.768   6.511  1.00 36.42 LIG 0.10  A 
ATOM     61  NE1 TRP B   3      39.073   0.255   5.659  1.00 36.34 LIG-0.36  N 
ATOM     62 HE1  TRP B   3      39.834   0.398   5.285  1.00 36.34 LIG 0.17  HD
ATOM     63  CE2 TRP B   3      37.949   1.019   5.496  1.00 35.80 LIG 0.04  A 
ATOM     64  CD2 TRP B   3      36.953   0.464   6.285  1.00 33.30 LIG-0.00  A 
ATOM     65  CZ2 TRP B   3      37.755   2.185   4.748  1.00 36.94 LIG 0.03  A 
ATOM     66  CE3 TRP B   3      35.699   1.055   6.296  1.00 37.18 LIG 0.01  A 
ATOM     67  CZ3 TRP B   3      35.490   2.199   5.528  1.00 37.29 LIG 0.00  A 
ATOM     68  CH2 TRP B   3      36.526   2.750   4.766  1.00 32.87 LIG 0.00  A 
ENDBRANCH 58 59
ENDBRANCH 40 58
ENDBRANCH 38 40
ENDBRANCH 1 36
TORSDOF 22
ENDMDL
MODEL 7
USER: ADFR SOLUTION from run 137
USER: SCORE 21.129747 LL:  -6.994 LR: -17.459 RR:   0.000 FEB: -10.896
USER: RMSD 5.507915
USER: SEED 136
USER: STATUS searching
USER: GENES 24
USER: genes 0 Translation |==|  0.59137 0.68675 0.41784
USER: genes 1 Rotation |==|  0.62867 0.32410 0.60723 0.93704
USER: genes 2 Torsion [C]-CA--CB-[CG] |==|  0.74324
USER: genes 3 Torsion [CA]-CB--CG-[CD1] |==|  0.31836
USER: genes 4 Torsion [N]-CA--C-[N] |==|  0.93421
USER: genes 5 Torsion [C]-N--CA-[CB] |==|  0.74433
USER: genes 6 Torsion [N]-CA--CB-[CG] |==|  0.03624
USER: genes 7 Torsion [CA]-CB--CG-[CD2] |==|  0.82830
USER: genes 8 Torsion [N]-CA--C-[N] |==|  0.65265
USER: genes 9 Torsion [C]-N--CA-[C] |==|  0.66154
USER: genes 10 Torsion [N]-CA--CB-[CG] |==|  0.57688
USER: genes 11 Torsion [CA]-CB--CG-[CD] |==|  0.24488
USER: genes 12 Torsion [CB]-CG--CD-[OE2] |==|  0.66382
USER: genes 13 Torsion [N]-CA--C-[N] |==|  0.54444
USER: genes 14 Torsion [C]-N--CA-[CB] |==|  0.47535
USER: genes 15 Torsion [N]-CA--C-[O] |==|  0.00305
USER: genes 16 Torsion [CB]-CA--N-[C] |==|  0.15180
USER: genes 17 Torsion [N]-C--CA-[N] |==|  0.08119
USER: genes 18 Torsion [C]-CA--N-[C] |==|  0.19844
USER: genes 19 Torsion [N]-C--CA-[N] |==|  0.02142
USER: genes 20 Torsion [C]-CA--N-[C] |==|  0.17973
USER: genes 21 Torsion [N]-C--CA-[N] |==|  0.96357
USER: genes 22 Torsion [C]-CA--CB-[CG] |==|  0.40298
USER: genes 23 Torsion [CA]-CB--CG-[CD1] |==|  0.63206
ROOT
ATOM      1  CA  LEU B   4      36.742   0.640   7.810  1.00 36.98 LIG 0.18  C 
ENDROOT
BRANCH 1 2
ATOM      2  CB  LEU B   4      36.559   2.022   7.185  1.00 35.91 LIG 0.04  C 
BRANCH 2 3
ATOM      3  CG  LEU B   4      35.993   2.046   5.754  1.00 35.93 LIG-0.02  C 
ATOM      4  CD2 LEU B   4      36.924   2.744   4.769  1.00 33.66 LIG 0.01  C 
ATOM      5  CD1 LEU B   4      34.577   2.721   5.714  1.00 37.78 LIG 0.01  C 
ENDBRANCH 2 3
ENDBRANCH 1 2
BRANCH 1 6
ATOM      6  C   LEU B   4      35.474   0.313   8.582  1.00 38.06 LIG 0.24  C 
ATOM      7  N   PHE B   5      34.616  -0.514   7.981  1.00 38.73 LIG-0.35  N 
ATOM      8 H    PHE B   5      34.799  -0.943   7.258  1.00 38.73 LIG 0.16  HD
ATOM      9 O    LEU B   4      35.258   0.866   9.666  1.00 36.58 LIG-0.27  OA
BRANCH 7 10
ATOM     10  CA  PHE B   5      33.274  -0.770   8.496  1.00 41.04 LIG 0.18  C 
BRANCH 10 11
ATOM     11  CB  PHE B   5      33.218  -1.986   9.437  1.00 39.67 LIG 0.07  C 
BRANCH 11 12
ATOM     12  CG  PHE B   5      34.552  -2.460   9.874  1.00 38.07 LIG-0.06  A 
ATOM     13  CD2 PHE B   5      35.465  -2.918   8.960  1.00 33.96 LIG 0.01  A 
ATOM     14  CE2 PHE B   5      36.740  -3.396   9.368  1.00 35.53 LIG 0.00  A 
ATOM     15  CZ  PHE B   5      37.062  -3.459  10.710  1.00 34.38 LIG 0.00  A 
ATOM     16  CE1 PHE B   5      36.117  -3.001  11.639  1.00 35.56 LIG 0.00  A 
ATOM     17  CD1 PHE B   5      34.875  -2.506  11.214  1.00 35.27 LIG 0.01  A 
ENDBRANCH 11 12
ENDBRANCH 10 11
BRANCH 10 18
ATOM     18  C   PHE B   5      32.715   0.404   9.239  1.00 43.64 LIG 0.24  C 
ATOM     19 O    PHE B   5      32.625   1.501   8.670  1.00 43.27 LIG-0.27  OA
ATOM     20  N   GLU B   6      32.307   0.153  10.486  1.00 47.41 LIG-0.35  N 
ATOM     21 H    GLU B   6      32.122  -0.639  10.768  1.00 47.41 LIG 0.16  HD
BRANCH 20 22
ATOM     22  CA  GLU B   6      32.131   1.204  11.514  1.00 51.55 LIG 0.18  C 
BRANCH 22 23
ATOM     23  CB  GLU B   6      30.662   1.336  11.956  1.00 52.47 LIG 0.04  C 
BRANCH 23 24
ATOM     24  CG  GLU B   6      30.309   2.782  12.458  1.00 56.11 LIG 0.12  C 
BRANCH 24 25
ATOM     25  CD  GLU B   6      29.845   3.761  11.350  1.00 59.86 LIG 0.17  C 
ATOM     26 OE2  GLU B   6      30.489   4.810  11.167  1.00 64.67 LIG-0.65  OA
ATOM     27 OE1  GLU B   6      28.868   3.491  10.623  1.00 64.70 LIG-0.65  OA
ENDBRANCH 24 25
ENDBRANCH 23 24
ENDBRANCH 22 23
BRANCH 22 28
ATOM     28  C   GLU B   6      33.041   0.857  12.726  1.00 53.54 LIG 0.24  C 
ATOM     29 O    GLU B   6      33.990   0.056  12.623  1.00 53.95 LIG-0.27  OA
ATOM     30  N   ALA B   7      32.782   1.490  13.869  1.00 56.31 LIG-0.35  N 
ATOM     31 H    ALA B   7      32.129   2.039  13.979  1.00 56.31 LIG 0.16  HD
BRANCH 30 32
ATOM     32  CA  ALA B   7      33.631   1.290  15.074  1.00 57.55 LIG 0.16  C 
ATOM     33  CB  ALA B   7      33.267   2.285  16.189  1.00 58.11 LIG 0.04  C 
BRANCH 32 34
ATOM     34  C   ALA B   7      33.506  -0.135  15.588  1.00 58.67 LIG 0.22  C 
ATOM     35 O    ALA B   7      32.791  -0.941  14.999  1.00 60.59 LIG-0.29  OA
ENDBRANCH 32 34
ENDBRANCH 30 32
ENDBRANCH 22 28
ENDBRANCH 20 22
ENDBRANCH 10 18
ENDBRANCH 7 10
ENDBRANCH 1 6
BRANCH 1 36
ATOM     36  N   LEU B   4      37.120  -0.358   6.815  1.00 37.09 LIG-0.35  N 
ATOM     37 H    LEU B   4      36.603  -1.046   6.795  1.00 37.09 LIG 0.16  HD
ATOM     38  C   TRP B   3      38.179  -0.204   6.010  1.00 37.19 LIG 0.24  C 
ATOM     39 O    TRP B   3      38.883   0.755   6.044  1.00 36.60 LIG-0.27  OA
BRANCH 38 40
ATOM     40  CA  TRP B   3      38.442  -1.285   4.970  1.00 38.87 LIG 0.18  C 
BRANCH 40 41
ATOM     41  N   TRP B   3      37.168  -1.901   4.585  1.00 40.30 LIG-0.35  N 
ATOM     42  C   ALA B   2      36.283  -1.220   3.838  1.00 43.05 LIG 0.24  C 
ATOM     43 O    ALA B   2      36.398  -0.016   3.592  1.00 42.86 LIG-0.27  OA
ATOM     44 H    TRP B   3      37.051  -2.703   4.872  1.00 40.30 LIG 0.16  HD
BRANCH 42 45
ATOM     45  CA  ALA B   2      35.059  -1.971   3.345  1.00 44.71 LIG 0.17  C 
ATOM     46  CB  ALA B   2      33.757  -1.209   3.707  1.00 44.36 LIG 0.04  C 
BRANCH 45 47
ATOM     47  N   ALA B   2      35.036  -3.291   3.976  1.00 46.59 LIG-0.35  N 
ATOM     48 H    ALA B   2      35.125  -3.946   3.427  1.00 46.59 LIG 0.16  HD
ATOM     49  C   PRO B   1      34.888  -3.439   5.277  1.00 48.49 LIG 0.25  C 
ATOM     50 O    PRO B   1      34.606  -2.498   6.002  1.00 48.43 LIG-0.27  OA
BRANCH 49 51
ATOM     51  CA  PRO B   1      35.098  -4.906   5.835  1.00 50.22 LIG 0.28  C 
ATOM     52  N   PRO B   1      35.131  -5.969   4.789  1.00 50.48 LIG-0.06  N 
ATOM     53 H3   PRO B   1      34.597  -6.605   5.016  1.00 50.48 LIG 0.28  HD
ATOM     54 H2   PRO B   1      34.834  -5.645   4.049  1.00 50.48 LIG 0.28  HD
ATOM     55  CD  PRO B   1      36.478  -6.526   4.566  1.00 50.94 LIG 0.23  C 
ATOM     56  CG  PRO B   1      37.359  -5.828   5.599  1.00 51.81 LIG 0.03  C 
ATOM     57  CB  PRO B   1      36.446  -5.068   6.566  1.00 50.52 LIG 0.04  C 
ENDBRANCH 49 51
ENDBRANCH 45 47
ENDBRANCH 42 45
ENDBRANCH 40 41
BRANCH 40 58
ATOM     58  CB  TRP B   3      39.206  -0.672   3.773  1.00 38.41 LIG 0.07  C 
BRANCH 58 59
ATOM     59  CG  TRP B   3      40.146  -1.649   3.229  1.00 37.10 LIG-0.03  A 
ATOM     60  CD1 TRP B   3      41.437  -1.432   2.925  1.00 36.42 LIG 0.10  A 
ATOM     61  NE1 TRP B   3      41.992  -2.562   2.407  1.00 36.34 LIG-0.36  N 
ATOM     62 HE1  TRP B   3      42.808  -2.646   2.146  1.00 36.34 LIG 0.17  HD
ATOM     63  CE2 TRP B   3      41.038  -3.544   2.369  1.00 35.80 LIG 0.04  A 
ATOM     64  CD2 TRP B   3      39.862  -2.997   2.856  1.00 33.30 LIG-0.00  A 
ATOM     65  CZ2 TRP B   3      41.119  -4.857   1.895  1.00 36.94 LIG 0.03  A 
ATOM     66  CE3 TRP B   3      38.731  -3.796   2.926  1.00 37.18 LIG 0.01  A 
ATOM     67  CZ3 TRP B   3      38.812  -5.116   2.485  1.00 37.29 LIG 0.00  A 
ATOM     68  CH2 TRP B   3      40.009  -5.626   1.971  1.00 32.87 LIG 0.00  A 
ENDBRANCH 58 59
ENDBRANCH 40 58
ENDBRANCH 38 40
ENDBRANCH 1 36
TORSDOF 22
ENDMDL
MODEL 8
USER: ADFR SOLUTION from run 198
USER: SCORE 21.818675 LL:  -5.646 LR: -17.431 RR:   0.000 FEB: -10.869
USER: RMSD 8.340073
USER: SEED 197
USER: STATUS no improvement in best in 7 clusters for 5 generations
USER: GENES 24
USER: genes 0 Translation |==|  0.56035 0.60868 0.41845
USER: genes 1 Rotation |==|  0.59337 0.95943 0.32955 0.53393
USER: genes 2 Torsion [C]-CA--CB-[CG] |==|  0.33721
USER: genes 3 Torsion [CA]-CB--CG-[CD1] |==|  0.58240
USER: genes 4 Torsion [N]-CA--C-[N] |==|  0.24449
USER: genes 5 Torsion [C]-N--CA-[CB] |==|  0.78857
USER: genes 6 Torsion [N]-CA--CB-[CG] |==|  0.05554
USER: genes 7 Torsion [CA]-CB--CG-[CD2] |==|  0.27253
USER: genes 8 Torsion [N]-CA--C-[N] |==|  0.50305
USER: genes 9 Torsion [C]-N--CA-[C] |==|  0.73889
USER: genes 10 Torsion [N]-CA--CB-[CG] |==|  0.62558
USER: genes 11 Torsion [CA]-CB--CG-[CD] |==|  0.84785
USER: genes 12 Torsion [CB]-CG--CD-[OE2] |==|  0.92605
USER: genes 13 Torsion [N]-CA--C-[N] |==|  0.23691
USER: genes 14 Torsion [C]-N--CA-[CB] |==|  0.15064
USER: genes 15 Torsion [N]-CA--C-[O] |==|  0.29685
USER: genes 16 Torsion [CB]-CA--N-[C] |==|  0.75379
USER: genes 17 Torsion [N]-C--CA-[N] |==|  0.34451
USER: genes 18 Torsion [C]-CA--N-[C] |==|  0.86467
USER: genes 19 Torsion [N]-C--CA-[N] |==|  0.44024
USER: genes 20 Torsion [C]-CA--N-[C] |==|  0.66547
USER: genes 21 Torsion [N]-C--CA-[N] |==|  0.10738
USER: genes 22 Torsion [C]-CA--CB-[CG] |==|  0.54076
USER: genes 23 Torsion [CA]-CB--CG-[CD1] |==|  0.76793
ROOT
ATOM      1  CA  LEU B   4      36.068  -0.883   7.824  1.00 36.98 LIG 0.18  C 
ENDROOT
BRANCH 1 2
ATOM      2  CB  LEU B   4      36.738   0.449   8.162  1.00 35.91 LIG 0.04  C 
BRANCH 2 3
ATOM      3  CG  LEU B   4      35.796   1.653   8.337  1.00 35.93 LIG-0.02  C 
ATOM      4  CD2 LEU B   4      34.502   1.503   7.546  1.00 33.66 LIG 0.01  C 
ATOM      5  CD1 LEU B   4      36.509   2.993   7.938  1.00 37.78 LIG 0.01  C 
ENDBRANCH 2 3
ENDBRANCH 1 2
BRANCH 1 6
ATOM      6  C   LEU B   4      36.644  -1.365   6.502  1.00 38.06 LIG 0.24  C 
ATOM      7  N   PHE B   5      35.814  -2.052   5.714  1.00 38.73 LIG-0.35  N 
ATOM      8 H    PHE B   5      34.971  -2.128   5.866  1.00 38.73 LIG 0.16  HD
ATOM      9 O    LEU B   4      37.839  -1.173   6.250  1.00 36.58 LIG-0.27  OA
BRANCH 7 10
ATOM     10  CA  PHE B   5      36.262  -2.748   4.512  1.00 41.04 LIG 0.18  C 
BRANCH 10 11
ATOM     11  CB  PHE B   5      36.530  -1.793   3.335  1.00 39.67 LIG 0.07  C 
BRANCH 11 12
ATOM     12  CG  PHE B   5      36.742  -0.387   3.749  1.00 38.07 LIG-0.06  A 
ATOM     13  CD2 PHE B   5      38.009   0.118   3.883  1.00 33.96 LIG 0.01  A 
ATOM     14  CE2 PHE B   5      38.226   1.460   4.301  1.00 35.53 LIG 0.00  A 
ATOM     15  CZ  PHE B   5      37.155   2.266   4.636  1.00 34.38 LIG 0.00  A 
ATOM     16  CE1 PHE B   5      35.864   1.736   4.510  1.00 35.56 LIG 0.00  A 
ATOM     17  CD1 PHE B   5      35.669   0.418   4.067  1.00 35.27 LIG 0.01  A 
ENDBRANCH 11 12
ENDBRANCH 10 11
BRANCH 10 18
ATOM     18  C   PHE B   5      37.512  -3.541   4.745  1.00 43.64 LIG 0.24  C 
ATOM     19 O    PHE B   5      38.001  -3.591   5.882  1.00 43.27 LIG-0.27  OA
ATOM     20  N   GLU B   6      37.990  -4.185   3.678  1.00 47.41 LIG-0.35  N 
ATOM     21 H    GLU B   6      37.512  -4.365   2.985  1.00 47.41 LIG 0.16  HD
BRANCH 20 22
ATOM     22  CA  GLU B   6      39.390  -4.657   3.569  1.00 51.55 LIG 0.18  C 
BRANCH 22 23
ATOM     23  CB  GLU B   6      39.487  -6.002   2.827  1.00 52.47 LIG 0.04  C 
BRANCH 23 24
ATOM     24  CG  GLU B   6      40.441  -7.022   3.546  1.00 56.11 LIG 0.12  C 
BRANCH 24 25
ATOM     25  CD  GLU B   6      41.874  -6.496   3.814  1.00 59.86 LIG 0.17  C 
ATOM     26 OE2  GLU B   6      42.339  -5.614   3.069  1.00 64.67 LIG-0.65  OA
ATOM     27 OE1  GLU B   6      42.541  -6.916   4.781  1.00 64.70 LIG-0.65  OA
ENDBRANCH 24 25
ENDBRANCH 23 24
ENDBRANCH 22 23
BRANCH 22 28
ATOM     28  C   GLU B   6      40.217  -3.563   2.836  1.00 53.54 LIG 0.24  C 
ATOM     29 O    GLU B   6      40.380  -3.584   1.601  1.00 53.95 LIG-0.27  OA
ATOM     30  N   ALA B   7      40.707  -2.579   3.589  1.00 56.31 LIG-0.35  N 
ATOM     31 H    ALA B   7      40.625  -2.539   4.444  1.00 56.31 LIG 0.16  HD
BRANCH 30 32
ATOM     32  CA  ALA B   7      41.455  -1.443   2.986  1.00 57.55 LIG 0.16  C 
ATOM     33  CB  ALA B   7      40.639  -0.759   1.877  1.00 58.11 LIG 0.04  C 
BRANCH 32 34
ATOM     34  C   ALA B   7      41.839  -0.428   4.050  1.00 58.67 LIG 0.22  C 
ATOM     35 O    ALA B   7      43.006  -0.338   4.421  1.00 60.59 LIG-0.29  OA
ENDBRANCH 32 34
ENDBRANCH 30 32
ENDBRANCH 22 28
ENDBRANCH 20 22
ENDBRANCH 10 18
ENDBRANCH 7 10
ENDBRANCH 1 6
BRANCH 1 36
ATOM     36  N   LEU B   4      36.183  -1.839   8.920  1.00 37.09 LIG-0.35  N 
ATOM     37 H    LEU B   4      35.525  -1.818   9.474  1.00 37.09 LIG 0.16  HD
ATOM     38  C   TRP B   3      37.226  -2.670   9.040  1.00 37.19 LIG 0.24  C 
ATOM     39 O    TRP B   3      38.127  -2.694   8.263  1.00 36.60 LIG-0.27  OA
BRANCH 38 40
ATOM     40  CA  TRP B   3      37.210  -3.665  10.193  1.00 38.87 LIG 0.18  C 
BRANCH 40 41
ATOM     41  N   TRP B   3      37.357  -5.022   9.658  1.00 40.30 LIG-0.35  N 
ATOM     42  C   ALA B   2      36.595  -5.434   8.631  1.00 43.05 LIG 0.24  C 
ATOM     43 O    ALA B   2      35.633  -4.788   8.208  1.00 42.86 LIG-0.27  OA
ATOM     44 H    TRP B   3      37.953  -5.505  10.049  1.00 40.30 LIG 0.16  HD
BRANCH 42 45
ATOM     45  CA  ALA B   2      36.909  -6.791   8.026  1.00 44.71 LIG 0.17  C 
ATOM     46  CB  ALA B   2      38.090  -6.692   7.025  1.00 44.36 LIG 0.04  C 
BRANCH 45 47
ATOM     47  N   ALA B   2      35.722  -7.276   7.323  1.00 46.59 LIG-0.35  N 
ATOM     48 H    ALA B   2      35.451  -6.761   6.689  1.00 46.59 LIG 0.16  HD
ATOM     49  C   PRO B   1      35.132  -8.408   7.650  1.00 48.49 LIG 0.25  C 
ATOM     50 O    PRO B   1      35.447  -9.031   8.652  1.00 48.43 LIG-0.27  OA
BRANCH 49 51
ATOM     51  CA  PRO B   1      33.995  -8.906   6.666  1.00 50.22 LIG 0.28  C 
ATOM     52  N   PRO B   1      34.283  -8.680   5.220  1.00 50.48 LIG-0.06  N 
ATOM     53 H3   PRO B   1      33.603  -8.303   4.852  1.00 50.48 LIG 0.28  HD
ATOM     54 H2   PRO B   1      34.944  -8.133   5.147  1.00 50.48 LIG 0.28  HD
ATOM     55  CD  PRO B   1      34.601  -9.921   4.488  1.00 50.94 LIG 0.23  C 
ATOM     56  CG  PRO B   1      34.425 -11.033   5.520  1.00 51.81 LIG 0.03  C 
ATOM     57  CB  PRO B   1      33.761 -10.427   6.762  1.00 50.52 LIG 0.04  C 
ENDBRANCH 49 51
ENDBRANCH 45 47
ENDBRANCH 42 45
ENDBRANCH 40 41
BRANCH 40 58
ATOM     58  CB  TRP B   3      38.313  -3.292  11.210  1.00 38.41 LIG 0.07  C 
BRANCH 58 59
ATOM     59  CG  TRP B   3      38.545  -4.406  12.126  1.00 37.10 LIG-0.03  A 
ATOM     60  CD1 TRP B   3      37.841  -4.690  13.235  1.00 36.42 LIG 0.10  A 
ATOM     61  NE1 TRP B   3      38.367  -5.781  13.856  1.00 36.34 LIG-0.36  N 
ATOM     62 HE1  TRP B   3      38.071  -6.136  14.582  1.00 36.34 LIG 0.17  HD
ATOM     63  CE2 TRP B   3      39.445  -6.222  13.136  1.00 35.80 LIG 0.04  A 
ATOM     64  CD2 TRP B   3      39.598  -5.367  12.056  1.00 33.30 LIG-0.00  A 
ATOM     65  CZ2 TRP B   3      40.321  -7.283  13.388  1.00 36.94 LIG 0.03  A 
ATOM     66  CE3 TRP B   3      40.629  -5.600  11.159  1.00 37.18 LIG 0.01  A 
ATOM     67  CZ3 TRP B   3      41.487  -6.675  11.386  1.00 37.29 LIG 0.00  A 
ATOM     68  CH2 TRP B   3      41.321  -7.500  12.504  1.00 32.87 LIG 0.00  A 
ENDBRANCH 58 59
ENDBRANCH 40 58
ENDBRANCH 38 40
ENDBRANCH 1 36
TORSDOF 22
ENDMDL
MODEL 9
USER: ADFR SOLUTION from run 122
USER: SCORE 21.216290 LL:  -5.277 LR: -17.419 RR:   0.000 FEB: -10.856
USER: RMSD 8.115821
USER: SEED 121
USER: STATUS searching
USER: GENES 24
USER: genes 0 Translation |==|  0.48096 0.48612 0.66098
USER: genes 1 Rotation |==|  0.41224 0.91047 0.77123 0.51575
USER: genes 2 Torsion [C]-CA--CB-[CG] |==|  0.94804
USER: genes 3 Torsion [CA]-CB--CG-[CD1] |==|  0.32065
USER: genes 4 Torsion [N]-CA--C-[N] |==|  0.47169
USER: genes 5 Torsion [C]-N--CA-[CB] |==|  0.82908
USER: genes 6 Torsion [N]-CA--CB-[CG] |==|  0.71681
USER: genes 7 Torsion [CA]-CB--CG-[CD2] |==|  0.27904
USER: genes 8 Torsion [N]-CA--C-[N] |==|  0.32462
USER: genes 9 Torsion [C]-N--CA-[C] |==|  0.67348
USER: genes 10 Torsion [N]-CA--CB-[CG] |==|  0.28662
USER: genes 11 Torsion [CA]-CB--CG-[CD] |==|  0.28329
USER: genes 12 Torsion [CB]-CG--CD-[OE2] |==|  0.63461
USER: genes 13 Torsion [N]-CA--C-[N] |==|  0.96544
USER: genes 14 Torsion [C]-N--CA-[CB] |==|  0.22303
USER: genes 15 Torsion [N]-CA--C-[O] |==|  0.30530
USER: genes 16 Torsion [CB]-CA--N-[C] |==|  0.83889
USER: genes 17 Torsion [N]-C--CA-[N] |==|  0.15814
USER: genes 18 Torsion [C]-CA--N-[C] |==|  0.73095
USER: genes 19 Torsion [N]-C--CA-[N] |==|  0.45535
USER: genes 20 Torsion [C]-CA--N-[C] |==|  0.78139
USER: genes 21 Torsion [N]-C--CA-[N] |==|  0.23684
USER: genes 22 Torsion [C]-CA--CB-[CG] |==|  0.39070
USER: genes 23 Torsion [CA]-CB--CG-[CD1] |==|  0.91672
ROOT
ATOM      1  CA  LEU B   4      34.341  -3.273  13.281  1.00 36.98 LIG 0.18  C 
ENDROOT
BRANCH 1 2
ATOM      2  CB  LEU B   4      34.466  -3.865  14.685  1.00 35.91 LIG 0.04  C 
BRANCH 2 3
ATOM      3  CG  LEU B   4      34.922  -2.894  15.789  1.00 35.93 LIG-0.02  C 
ATOM      4  CD2 LEU B   4      36.208  -3.348  16.471  1.00 33.66 LIG 0.01  C 
ATOM      5  CD1 LEU B   4      33.797  -2.687  16.863  1.00 37.78 LIG 0.01  C 
ENDBRANCH 2 3
ENDBRANCH 1 2
BRANCH 1 6
ATOM      6  C   LEU B   4      34.258  -1.761  13.426  1.00 38.06 LIG 0.24  C 
ATOM      7  N   PHE B   5      33.174  -1.289  14.048  1.00 38.73 LIG-0.35  N 
ATOM      8 H    PHE B   5      32.607  -1.790  14.456  1.00 38.73 LIG 0.16  HD
ATOM      9 O    LEU B   4      35.127  -1.049  12.914  1.00 36.58 LIG-0.27  OA
BRANCH 7 10
ATOM     10  CA  PHE B   5      32.849   0.133  14.095  1.00 41.04 LIG 0.18  C 
BRANCH 10 11
ATOM     11  CB  PHE B   5      33.927   0.969  14.807  1.00 39.67 LIG 0.07  C 
BRANCH 11 12
ATOM     12  CG  PHE B   5      33.566   1.343  16.194  1.00 38.07 LIG-0.06  A 
ATOM     13  CD2 PHE B   5      34.078   0.651  17.260  1.00 33.96 LIG 0.01  A 
ATOM     14  CE2 PHE B   5      33.721   0.986  18.596  1.00 35.53 LIG 0.00  A 
ATOM     15  CZ  PHE B   5      32.802   1.987  18.840  1.00 34.38 LIG 0.00  A 
ATOM     16  CE1 PHE B   5      32.273   2.681  17.743  1.00 35.56 LIG 0.00  A 
ATOM     17  CD1 PHE B   5      32.659   2.354  16.433  1.00 35.27 LIG 0.01  A 
ENDBRANCH 11 12
ENDBRANCH 10 11
BRANCH 10 18
ATOM     18  C   PHE B   5      32.651   0.717  12.729  1.00 43.64 LIG 0.24  C 
ATOM     19 O    PHE B   5      33.587   0.702  11.917  1.00 43.27 LIG-0.27  OA
ATOM     20  N   GLU B   6      31.427   1.186  12.478  1.00 47.41 LIG-0.35  N 
ATOM     21 H    GLU B   6      30.732   0.951  12.929  1.00 47.41 LIG 0.16  HD
BRANCH 20 22
ATOM     22  CA  GLU B   6      31.131   2.158  11.400  1.00 51.55 LIG 0.18  C 
BRANCH 22 23
ATOM     23  CB  GLU B   6      30.128   1.596  10.377  1.00 52.47 LIG 0.04  C 
BRANCH 23 24
ATOM     24  CG  GLU B   6      28.681   2.176  10.566  1.00 56.11 LIG 0.12  C 
BRANCH 24 25
ATOM     25  CD  GLU B   6      28.287   3.286   9.559  1.00 59.86 LIG 0.17  C 
ATOM     26 OE2  GLU B   6      27.779   4.337   9.991  1.00 64.67 LIG-0.65  OA
ATOM     27 OE1  GLU B   6      28.510   3.154   8.339  1.00 64.70 LIG-0.65  OA
ENDBRANCH 24 25
ENDBRANCH 23 24
ENDBRANCH 22 23
BRANCH 22 28
ATOM     28  C   GLU B   6      30.580   3.457  12.054  1.00 53.54 LIG 0.24  C 
ATOM     29 O    GLU B   6      30.429   4.506  11.398  1.00 53.95 LIG-0.27  OA
ATOM     30  N   ALA B   7      30.238   3.382  13.339  1.00 56.31 LIG-0.35  N 
ATOM     31 H    ALA B   7      30.340   2.680  13.825  1.00 56.31 LIG 0.16  HD
BRANCH 30 32
ATOM     32  CA  ALA B   7      29.636   4.542  14.049  1.00 57.55 LIG 0.16  C 
ATOM     33  CB  ALA B   7      28.134   4.668  13.746  1.00 58.11 LIG 0.04  C 
BRANCH 32 34
ATOM     34  C   ALA B   7      29.856   4.428  15.548  1.00 58.67 LIG 0.22  C 
ATOM     35 O    ALA B   7      30.629   5.195  16.116  1.00 60.59 LIG-0.29  OA
ENDBRANCH 32 34
ENDBRANCH 30 32
ENDBRANCH 22 28
ENDBRANCH 20 22
ENDBRANCH 10 18
ENDBRANCH 7 10
ENDBRANCH 1 6
BRANCH 1 36
ATOM     36  N   LEU B   4      35.406  -3.739  12.401  1.00 37.09 LIG-0.35  N 
ATOM     37 H    LEU B   4      35.126  -4.141  11.694  1.00 37.09 LIG 0.16  HD
ATOM     38  C   TRP B   3      36.702  -3.551  12.681  1.00 37.19 LIG 0.24  C 
ATOM     39 O    TRP B   3      37.078  -2.989  13.660  1.00 36.60 LIG-0.27  OA
BRANCH 38 40
ATOM     40  CA  TRP B   3      37.725  -4.031  11.659  1.00 38.87 LIG 0.18  C 
BRANCH 40 41
ATOM     41  N   TRP B   3      37.451  -3.391  10.369  1.00 40.30 LIG-0.35  N 
ATOM     42  C   ALA B   2      36.737  -4.035   9.430  1.00 43.05 LIG 0.24  C 
ATOM     43 O    ALA B   2      36.434  -5.228   9.517  1.00 42.86 LIG-0.27  OA
ATOM     44 H    TRP B   3      37.777  -2.600  10.278  1.00 40.30 LIG 0.16  HD
BRANCH 42 45
ATOM     45  CA  ALA B   2      36.357  -3.255   8.183  1.00 44.71 LIG 0.17  C 
ATOM     46  CB  ALA B   2      35.190  -2.275   8.477  1.00 44.36 LIG 0.04  C 
BRANCH 45 47
ATOM     47  N   ALA B   2      35.941  -4.202   7.149  1.00 46.59 LIG-0.35  N 
ATOM     48 H    ALA B   2      35.089  -4.268   7.052  1.00 46.59 LIG 0.16  HD
ATOM     49  C   PRO B   1      36.814  -4.884   6.437  1.00 48.49 LIG 0.25  C 
ATOM     50 O    PRO B   1      38.005  -4.882   6.707  1.00 48.43 LIG-0.27  OA
BRANCH 49 51
ATOM     51  CA  PRO B   1      36.224  -5.702   5.216  1.00 50.22 LIG 0.28  C 
ATOM     52  N   PRO B   1      36.071  -4.915   3.958  1.00 50.48 LIG-0.06  N 
ATOM     53 H3   PRO B   1      35.278  -5.035   3.645  1.00 50.48 LIG 0.28  HD
ATOM     54 H2   PRO B   1      36.146  -4.078   4.139  1.00 50.48 LIG 0.28  HD
ATOM     55  CD  PRO B   1      37.058  -5.275   2.922  1.00 50.94 LIG 0.23  C 
ATOM     56  CG  PRO B   1      37.850  -6.431   3.529  1.00 51.81 LIG 0.03  C 
ATOM     57  CB  PRO B   1      37.131  -6.880   4.806  1.00 50.52 LIG 0.04  C 
ENDBRANCH 49 51
ENDBRANCH 45 47
ENDBRANCH 42 45
ENDBRANCH 40 41
BRANCH 40 58
ATOM     58  CB  TRP B   3      39.151  -3.747  12.186  1.00 38.41 LIG 0.07  C 
BRANCH 58 59
ATOM     59  CG  TRP B   3      40.036  -4.860  11.855  1.00 37.10 LIG-0.03  A 
ATOM     60  CD1 TRP B   3      39.684  -6.151  11.726  1.00 36.42 LIG 0.10  A 
ATOM     61  NE1 TRP B   3      40.779  -6.910  11.447  1.00 36.34 LIG-0.36  N 
ATOM     62 HE1  TRP B   3      40.780  -7.761  11.324  1.00 36.34 LIG 0.17  HD
ATOM     63  CE2 TRP B   3      41.878  -6.095  11.394  1.00 35.80 LIG 0.04  A 
ATOM     64  CD2 TRP B   3      41.450  -4.805  11.668  1.00 33.30 LIG-0.00  A 
ATOM     65  CZ2 TRP B   3      43.222  -6.412  11.172  1.00 36.94 LIG 0.03  A 
ATOM     66  CE3 TRP B   3      42.381  -3.778  11.673  1.00 37.18 LIG 0.01  A 
ATOM     67  CZ3 TRP B   3      43.718  -4.082  11.420  1.00 37.29 LIG 0.00  A 
ATOM     68  CH2 TRP B   3      44.119  -5.400  11.177  1.00 32.87 LIG 0.00  A 
ENDBRANCH 58 59
ENDBRANCH 40 58
ENDBRANCH 38 40
ENDBRANCH 1 36
TORSDOF 22
ENDMDL
MODEL 10
USER: ADFR SOLUTION from run 191
USER: SCORE 21.976751 LL:  -6.243 LR: -17.348 RR:   0.000 FEB: -10.786
USER: RMSD 8.348057
USER: SEED 190
USER: STATUS no improvement in best in 5 clusters for 5 generations
USER: GENES 24
USER: genes 0 Translation |==|  0.44977 0.58163 0.58347
USER: genes 1 Rotation |==|  0.59012 0.20019 0.11064 0.51975
USER: genes 2 Torsion [C]-CA--CB-[CG] |==|  0.85986
USER: genes 3 Torsion [CA]-CB--CG-[CD1] |==|  0.31378
USER: genes 4 Torsion [N]-CA--C-[N] |==|  0.48849
USER: genes 5 Torsion [C]-N--CA-[CB] |==|  0.82997
USER: genes 6 Torsion [N]-CA--CB-[CG] |==|  0.70046
USER: genes 7 Torsion [CA]-CB--CG-[CD2] |==|  0.46712
USER: genes 8 Torsion [N]-CA--C-[N] |==|  0.41968
USER: genes 9 Torsion [C]-N--CA-[C] |==|  0.66802
USER: genes 10 Torsion [N]-CA--CB-[CG] |==|  0.76377
USER: genes 11 Torsion [CA]-CB--CG-[CD] |==|  0.84400
USER: genes 12 Torsion [CB]-CG--CD-[OE2] |==|  0.11973
USER: genes 13 Torsion [N]-CA--C-[N] |==|  0.01281
USER: genes 14 Torsion [C]-N--CA-[CB] |==|  0.17584
USER: genes 15 Torsion [N]-CA--C-[O] |==|  0.84106
USER: genes 16 Torsion [CB]-CA--N-[C] |==|  0.47781
USER: genes 17 Torsion [N]-C--CA-[N] |==|  0.28704
USER: genes 18 Torsion [C]-CA--N-[C] |==|  0.76079
USER: genes 19 Torsion [N]-C--CA-[N] |==|  0.09990
USER: genes 20 Torsion [C]-CA--N-[C] |==|  0.61198
USER: genes 21 Torsion [N]-C--CA-[N] |==|  0.80061
USER: genes 22 Torsion [C]-CA--CB-[CG] |==|  0.52481
USER: genes 23 Torsion [CA]-CB--CG-[CD1] |==|  0.40177
ROOT
ATOM      1  CA  LEU B   4      33.663  -1.410  11.537  1.00 36.98 LIG 0.18  C 
ENDROOT
BRANCH 1 2
ATOM      2  CB  LEU B   4      34.165  -2.635  12.301  1.00 35.91 LIG 0.04  C 
BRANCH 2 3
ATOM      3  CG  LEU B   4      35.352  -2.397  13.252  1.00 35.93 LIG-0.02  C 
ATOM      4  CD2 LEU B   4      36.542  -3.295  12.937  1.00 33.66 LIG 0.01  C 
ATOM      5  CD1 LEU B   4      34.926  -2.588  14.750  1.00 37.78 LIG 0.01  C 
ENDBRANCH 2 3
ENDBRANCH 1 2
BRANCH 1 6
ATOM      6  C   LEU B   4      33.443  -0.296  12.548  1.00 38.06 LIG 0.24  C 
ATOM      7  N   PHE B   5      32.570  -0.552  13.525  1.00 38.73 LIG-0.35  N 
ATOM      8 H    PHE B   5      32.231  -1.330  13.666  1.00 38.73 LIG 0.16  HD
ATOM      9 O    LEU B   4      34.005   0.793  12.390  1.00 36.58 LIG-0.27  OA
BRANCH 7 10
ATOM     10  CA  PHE B   5      32.102   0.472  14.454  1.00 41.04 LIG 0.18  C 
BRANCH 10 11
ATOM     11  CB  PHE B   5      33.241   1.086  15.288  1.00 39.67 LIG 0.07  C 
BRANCH 11 12
ATOM     12  CG  PHE B   5      33.228   0.666  16.708  1.00 38.07 LIG-0.06  A 
ATOM     13  CD2 PHE B   5      34.299   0.925  17.523  1.00 33.96 LIG 0.01  A 
ATOM     14  CE2 PHE B   5      34.308   0.507  18.883  1.00 35.53 LIG 0.00  A 
ATOM     15  CZ  PHE B   5      33.251  -0.222  19.393  1.00 34.38 LIG 0.00  A 
ATOM     16  CE1 PHE B   5      32.166  -0.494  18.549  1.00 35.56 LIG 0.00  A 
ATOM     17  CD1 PHE B   5      32.164  -0.047  17.217  1.00 35.27 LIG 0.01  A 
ENDBRANCH 11 12
ENDBRANCH 10 11
BRANCH 10 18
ATOM     18  C   PHE B   5      31.396   1.595  13.757  1.00 43.64 LIG 0.24  C 
ATOM     19 O    PHE B   5      31.678   1.855  12.579  1.00 43.27 LIG-0.27  OA
ATOM     20  N   GLU B   6      30.459   2.217  14.475  1.00 47.41 LIG-0.35  N 
ATOM     21 H    GLU B   6      30.088   1.866  15.168  1.00 47.41 LIG 0.16  HD
BRANCH 20 22
ATOM     22  CA  GLU B   6      29.956   3.574  14.160  1.00 51.55 LIG 0.18  C 
BRANCH 22 23
ATOM     23  CB  GLU B   6      28.452   3.569  13.835  1.00 52.47 LIG 0.04  C 
BRANCH 23 24
ATOM     24  CG  GLU B   6      28.159   3.231  12.329  1.00 56.11 LIG 0.12  C 
BRANCH 24 25
ATOM     25  CD  GLU B   6      28.860   4.159  11.304  1.00 59.86 LIG 0.17  C 
ATOM     26 OE2  GLU B   6      30.050   4.471  11.493  1.00 64.67 LIG-0.65  OA
ATOM     27 OE1  GLU B   6      28.263   4.556  10.285  1.00 64.70 LIG-0.65  OA
ENDBRANCH 24 25
ENDBRANCH 23 24
ENDBRANCH 22 23
BRANCH 22 28
ATOM     28  C   GLU B   6      30.254   4.498  15.374  1.00 53.54 LIG 0.24  C 
ATOM     29 O    GLU B   6      29.827   5.668  15.426  1.00 53.95 LIG-0.27  OA
ATOM     30  N   ALA B   7      30.952   3.964  16.375  1.00 56.31 LIG-0.35  N 
ATOM     31 H    ALA B   7      31.272   3.166  16.368  1.00 56.31 LIG 0.16  HD
BRANCH 30 32
ATOM     32  CA  ALA B   7      31.236   4.732  17.617  1.00 57.55 LIG 0.16  C 
ATOM     33  CB  ALA B   7      29.941   5.087  18.367  1.00 58.11 LIG 0.04  C 
BRANCH 32 34
ATOM     34  C   ALA B   7      32.169   3.954  18.529  1.00 58.67 LIG 0.22  C 
ATOM     35 O    ALA B   7      31.859   2.830  18.912  1.00 60.59 LIG-0.29  OA
ENDBRANCH 32 34
ENDBRANCH 30 32
ENDBRANCH 22 28
ENDBRANCH 20 22
ENDBRANCH 10 18
ENDBRANCH 7 10
ENDBRANCH 1 6
BRANCH 1 36
ATOM     36  N   LEU B   4      34.549  -1.061  10.433  1.00 37.09 LIG-0.35  N 
ATOM     37 H    LEU B   4      35.284  -1.508  10.418  1.00 37.09 LIG 0.16  HD
ATOM     38  C   TRP B   3      34.235  -0.124   9.529  1.00 37.19 LIG 0.24  C 
ATOM     39 O    TRP B   3      33.213   0.486   9.557  1.00 36.60 LIG-0.27  OA
BRANCH 38 40
ATOM     40  CA  TRP B   3      35.214   0.116   8.387  1.00 38.87 LIG 0.18  C 
BRANCH 40 41
ATOM     41  N   TRP B   3      34.692  -0.511   7.169  1.00 40.30 LIG-0.35  N 
ATOM     42  C   ALA B   2      34.939  -1.807   6.911  1.00 43.05 LIG 0.24  C 
ATOM     43 O    ALA B   2      35.742  -2.479   7.563  1.00 42.86 LIG-0.27  OA
ATOM     44 H    TRP B   3      34.233   0.010   6.660  1.00 40.30 LIG 0.16  HD
BRANCH 42 45
ATOM     45  CA  ALA B   2      34.238  -2.429   5.717  1.00 44.71 LIG 0.17  C 
ATOM     46  CB  ALA B   2      35.026  -3.658   5.190  1.00 44.36 LIG 0.04  C 
BRANCH 45 47
ATOM     47  N   ALA B   2      34.144  -1.427   4.656  1.00 46.59 LIG-0.35  N 
ATOM     48 H    ALA B   2      34.847  -0.940   4.566  1.00 46.59 LIG 0.16  HD
ATOM     49  C   PRO B   1      33.064  -1.298   3.913  1.00 48.49 LIG 0.25  C 
ATOM     50 O    PRO B   1      32.031  -1.896   4.171  1.00 48.43 LIG-0.27  OA
BRANCH 49 51
ATOM     51  CA  PRO B   1      33.190  -0.322   2.671  1.00 50.22 LIG 0.28  C 
ATOM     52  N   PRO B   1      33.255   1.126   3.024  1.00 50.48 LIG-0.06  N 
ATOM     53 H3   PRO B   1      32.688   1.558   2.543  1.00 50.48 LIG 0.28  HD
ATOM     54 H2   PRO B   1      33.017   1.226   3.845  1.00 50.48 LIG 0.28  HD
ATOM     55  CD  PRO B   1      34.595   1.712   2.835  1.00 50.94 LIG 0.23  C 
ATOM     56  CG  PRO B   1      35.431   0.580   2.242  1.00 51.81 LIG 0.03  C 
ATOM     57  CB  PRO B   1      34.482  -0.563   1.865  1.00 50.52 LIG 0.04  C 
ENDBRANCH 49 51
ENDBRANCH 45 47
ENDBRANCH 42 45
ENDBRANCH 40 41
BRANCH 40 58
ATOM     58  CB  TRP B   3      35.460   1.634   8.230  1.00 38.41 LIG 0.07  C 
BRANCH 58 59
ATOM     59  CG  TRP B   3      36.225   1.893   7.013  1.00 37.10 LIG-0.03  A 
ATOM     60  CD1 TRP B   3      36.092   2.951   6.195  1.00 36.42 LIG 0.10  A 
ATOM     61  NE1 TRP B   3      36.946   2.838   5.141  1.00 36.34 LIG-0.36  N 
ATOM     62 HE1  TRP B   3      37.027   3.405   4.498  1.00 36.34 LIG 0.17  HD
ATOM     63  CE2 TRP B   3      37.656   1.674   5.271  1.00 35.80 LIG 0.04  A 
ATOM     64  CD2 TRP B   3      37.211   1.045   6.423  1.00 33.30 LIG-0.00  A 
ATOM     65  CZ2 TRP B   3      38.621   1.111   4.430  1.00 36.94 LIG 0.03  A 
ATOM     66  CE3 TRP B   3      37.780  -0.165   6.788  1.00 37.18 LIG 0.01  A 
ATOM     67  CZ3 TRP B   3      38.765  -0.717   5.971  1.00 37.29 LIG 0.00  A 
ATOM     68  CH2 TRP B   3      39.169  -0.069   4.798  1.00 32.87 LIG 0.00  A 
ENDBRANCH 58 59
ENDBRANCH 40 58
ENDBRANCH 38 40
ENDBRANCH 1 36
TORSDOF 22
ENDMDL
MODEL 11
USER: ADFR SOLUTION from run 55
USER: SCORE 22.130843 LL:  -6.232 LR: -17.318 RR:   0.000 FEB: -10.755
USER: RMSD 7.919768
USER: SEED 54
USER: STATUS searching
USER: GENES 24
USER: genes 0 Translation |==|  0.55793 0.51070 0.42332
USER: genes 1 Rotation |==|  0.53869 0.94906 0.36880 0.67215
USER: genes 2 Torsion [C]-CA--CB-[CG] |==|  0.28520
USER: genes 3 Torsion [CA]-CB--CG-[CD1] |==|  0.02438
USER: genes 4 Torsion [N]-CA--C-[N] |==|  0.22778
USER: genes 5 Torsion [C]-N--CA-[CB] |==|  0.56132
USER: genes 6 Torsion [N]-CA--CB-[CG] |==|  0.49935
USER: genes 7 Torsion [CA]-CB--CG-[CD2] |==|  0.63654
USER: genes 8 Torsion [N]-CA--C-[N] |==|  0.86025
USER: genes 9 Torsion [C]-N--CA-[C] |==|  0.63980
USER: genes 10 Torsion [N]-CA--CB-[CG] |==|  0.88339
USER: genes 11 Torsion [CA]-CB--CG-[CD] |==|  0.81374
USER: genes 12 Torsion [CB]-CG--CD-[OE2] |==|  0.45255
USER: genes 13 Torsion [N]-CA--C-[N] |==|  0.44234
USER: genes 14 Torsion [C]-N--CA-[CB] |==|  0.85301
USER: genes 15 Torsion [N]-CA--C-[O] |==|  0.41433
USER: genes 16 Torsion [CB]-CA--N-[C] |==|  0.77543
USER: genes 17 Torsion [N]-C--CA-[N] |==|  0.04135
USER: genes 18 Torsion [C]-CA--N-[C] |==|  0.74903
USER: genes 19 Torsion [N]-C--CA-[N] |==|  0.93934
USER: genes 20 Torsion [C]-CA--N-[C] |==|  0.78922
USER: genes 21 Torsion [N]-C--CA-[N] |==|  0.57881
USER: genes 22 Torsion [C]-CA--CB-[CG] |==|  0.19674
USER: genes 23 Torsion [CA]-CB--CG-[CD1] |==|  0.03322
ROOT
ATOM      1  CA  LEU B   4      36.015  -2.793   7.934  1.00 36.98 LIG 0.18  C 
ENDROOT
BRANCH 1 2
ATOM      2  CB  LEU B   4      35.911  -1.351   8.428  1.00 35.91 LIG 0.04  C 
BRANCH 2 3
ATOM      3  CG  LEU B   4      34.865  -0.469   7.721  1.00 35.93 LIG-0.02  C 
ATOM      4  CD2 LEU B   4      33.995   0.307   8.703  1.00 33.66 LIG 0.01  C 
ATOM      5  CD1 LEU B   4      33.957  -1.321   6.766  1.00 37.78 LIG 0.01  C 
ENDBRANCH 2 3
ENDBRANCH 1 2
BRANCH 1 6
ATOM      6  C   LEU B   4      37.249  -2.888   7.051  1.00 38.06 LIG 0.24  C 
ATOM      7  N   PHE B   5      37.228  -3.836   6.111  1.00 38.73 LIG-0.35  N 
ATOM      8 H    PHE B   5      36.527  -4.296   5.917  1.00 38.73 LIG 0.16  HD
ATOM      9 O    LEU B   4      38.221  -2.160   7.278  1.00 36.58 LIG-0.27  OA
BRANCH 7 10
ATOM     10  CA  PHE B   5      38.402  -4.186   5.317  1.00 41.04 LIG 0.18  C 
BRANCH 10 11
ATOM     11  CB  PHE B   5      38.040  -4.872   3.987  1.00 39.67 LIG 0.07  C 
BRANCH 11 12
ATOM     12  CG  PHE B   5      39.219  -5.229   3.165  1.00 38.07 LIG-0.06  A 
ATOM     13  CD2 PHE B   5      39.273  -4.895   1.837  1.00 33.96 LIG 0.01  A 
ATOM     14  CE2 PHE B   5      40.390  -5.252   1.032  1.00 35.53 LIG 0.00  A 
ATOM     15  CZ  PHE B   5      41.423  -5.997   1.567  1.00 34.38 LIG 0.00  A 
ATOM     16  CE1 PHE B   5      41.354  -6.345   2.923  1.00 35.56 LIG 0.00  A 
ATOM     17  CD1 PHE B   5      40.256  -5.958   3.708  1.00 35.27 LIG 0.01  A 
ENDBRANCH 11 12
ENDBRANCH 10 11
BRANCH 10 18
ATOM     18  C   PHE B   5      39.249  -2.992   4.995  1.00 43.64 LIG 0.24  C 
ATOM     19 O    PHE B   5      40.472  -3.044   5.179  1.00 43.27 LIG-0.27  OA
ATOM     20  N   GLU B   6      38.596  -1.949   4.478  1.00 47.41 LIG-0.35  N 
ATOM     21 H    GLU B   6      37.822  -2.016   4.107  1.00 47.41 LIG 0.16  HD
BRANCH 20 22
ATOM     22  CA  GLU B   6      39.130  -0.567   4.486  1.00 51.55 LIG 0.18  C 
BRANCH 22 23
ATOM     23  CB  GLU B   6      39.569  -0.111   3.083  1.00 52.47 LIG 0.04  C 
BRANCH 23 24
ATOM     24  CG  GLU B   6      40.337  -1.232   2.296  1.00 56.11 LIG 0.12  C 
BRANCH 24 25
ATOM     25  CD  GLU B   6      41.719  -1.612   2.884  1.00 59.86 LIG 0.17  C 
ATOM     26 OE2  GLU B   6      42.246  -2.684   2.535  1.00 64.67 LIG-0.65  OA
ATOM     27 OE1  GLU B   6      42.318  -0.843   3.662  1.00 64.70 LIG-0.65  OA
ENDBRANCH 24 25
ENDBRANCH 23 24
ENDBRANCH 22 23
BRANCH 22 28
ATOM     28  C   GLU B   6      38.031   0.376   5.053  1.00 53.54 LIG 0.24  C 
ATOM     29 O    GLU B   6      36.833   0.036   5.091  1.00 53.95 LIG-0.27  OA
ATOM     30  N   ALA B   7      38.440   1.549   5.534  1.00 56.31 LIG-0.35  N 
ATOM     31 H    ALA B   7      39.255   1.822   5.512  1.00 56.31 LIG 0.16  HD
BRANCH 30 32
ATOM     32  CA  ALA B   7      37.486   2.502   6.164  1.00 57.55 LIG 0.16  C 
ATOM     33  CB  ALA B   7      36.291   2.792   5.242  1.00 58.11 LIG 0.04  C 
BRANCH 32 34
ATOM     34  C   ALA B   7      36.997   1.969   7.500  1.00 58.67 LIG 0.22  C 
ATOM     35 O    ALA B   7      36.699   2.748   8.401  1.00 60.59 LIG-0.29  OA
ENDBRANCH 32 34
ENDBRANCH 30 32
ENDBRANCH 22 28
ENDBRANCH 20 22
ENDBRANCH 10 18
ENDBRANCH 7 10
ENDBRANCH 1 6
BRANCH 1 36
ATOM     36  N   LEU B   4      35.986  -3.746   9.038  1.00 37.09 LIG-0.35  N 
ATOM     37 H    LEU B   4      35.216  -4.107   9.169  1.00 37.09 LIG 0.16  HD
ATOM     38  C   TRP B   3      37.069  -4.024   9.775  1.00 37.19 LIG 0.24  C 
ATOM     39 O    TRP B   3      38.130  -3.521   9.581  1.00 36.60 LIG-0.27  OA
BRANCH 38 40
ATOM     40  CA  TRP B   3      36.932  -5.078  10.866  1.00 38.87 LIG 0.18  C 
BRANCH 40 41
ATOM     41  N   TRP B   3      35.696  -5.836  10.649  1.00 40.30 LIG-0.35  N 
ATOM     42  C   ALA B   2      34.545  -5.434  11.213  1.00 43.05 LIG 0.24  C 
ATOM     43 O    ALA B   2      34.490  -4.544  12.065  1.00 42.86 LIG-0.27  OA
ATOM     44 H    TRP B   3      35.779  -6.531  10.147  1.00 40.30 LIG 0.16  HD
BRANCH 42 45
ATOM     45  CA  ALA B   2      33.278  -6.173  10.819  1.00 44.71 LIG 0.17  C 
ATOM     46  CB  ALA B   2      32.910  -7.246  11.878  1.00 44.36 LIG 0.04  C 
BRANCH 45 47
ATOM     47  N   ALA B   2      33.499  -6.825   9.529  1.00 46.59 LIG-0.35  N 
ATOM     48 H    ALA B   2      33.626  -7.674   9.579  1.00 46.59 LIG 0.16  HD
ATOM     49  C   PRO B   1      33.500  -6.149   8.398  1.00 48.49 LIG 0.25  C 
ATOM     50 O    PRO B   1      33.475  -4.929   8.378  1.00 48.43 LIG-0.27  OA
BRANCH 49 51
ATOM     51  CA  PRO B   1      33.537  -7.017   7.073  1.00 50.22 LIG 0.28  C 
ATOM     52  N   PRO B   1      34.184  -6.345   5.909  1.00 50.48 LIG-0.06  N 
ATOM     53 H3   PRO B   1      33.669  -6.413   5.223  1.00 50.48 LIG 0.28  HD
ATOM     54 H2   PRO B   1      34.268  -5.506   6.079  1.00 50.48 LIG 0.28  HD
ATOM     55  CD  PRO B   1      35.507  -6.904   5.575  1.00 50.94 LIG 0.23  C 
ATOM     56  CG  PRO B   1      35.689  -8.071   6.543  1.00 51.81 LIG 0.03  C 
ATOM     57  CB  PRO B   1      34.349  -8.317   7.246  1.00 50.52 LIG 0.04  C 
ENDBRANCH 49 51
ENDBRANCH 45 47
ENDBRANCH 42 45
ENDBRANCH 40 41
BRANCH 40 58
ATOM     58  CB  TRP B   3      38.196  -5.970  10.881  1.00 38.41 LIG 0.07  C 
BRANCH 58 59
ATOM     59  CG  TRP B   3      39.335  -5.212  11.393  1.00 37.10 LIG-0.03  A 
ATOM     60  CD1 TRP B   3      39.290  -4.017  12.006  1.00 36.42 LIG 0.10  A 
ATOM     61  NE1 TRP B   3      40.549  -3.600  12.314  1.00 36.34 LIG-0.36  N 
ATOM     62 HE1  TRP B   3      40.750  -2.863  12.709  1.00 36.34 LIG 0.17  HD
ATOM     63  CE2 TRP B   3      41.442  -4.548  11.890  1.00 35.80 LIG 0.04  A 
ATOM     64  CD2 TRP B   3      40.715  -5.562  11.287  1.00 33.30 LIG-0.00  A 
ATOM     65  CZ2 TRP B   3      42.839  -4.558  11.954  1.00 36.94 LIG 0.03  A 
ATOM     66  CE3 TRP B   3      41.392  -6.656  10.771  1.00 37.18 LIG 0.01  A 
ATOM     67  CZ3 TRP B   3      42.783  -6.688  10.860  1.00 37.29 LIG 0.00  A 
ATOM     68  CH2 TRP B   3      43.487  -5.632  11.449  1.00 32.87 LIG 0.00  A 
ENDBRANCH 58 59
ENDBRANCH 40 58
ENDBRANCH 38 40
ENDBRANCH 1 36
TORSDOF 22
ENDMDL
MODEL 12
USER: ADFR SOLUTION from run 55
USER: SCORE 21.275005 LL:  -5.751 LR: -17.276 RR:   0.000 FEB: -10.713
USER: RMSD 8.884233
USER: SEED 54
USER: STATUS searching
USER: GENES 24
USER: genes 0 Translation |==|  0.55421 0.51753 0.43933
USER: genes 1 Rotation |==|  0.48890 0.93511 0.32629 0.67430
USER: genes 2 Torsion [C]-CA--CB-[CG] |==|  0.25780
USER: genes 3 Torsion [CA]-CB--CG-[CD1] |==|  0.04693
USER: genes 4 Torsion [N]-CA--C-[N] |==|  0.25991
USER: genes 5 Torsion [C]-N--CA-[CB] |==|  0.56721
USER: genes 6 Torsion [N]-CA--CB-[CG] |==|  0.46965
USER: genes 7 Torsion [CA]-CB--CG-[CD2] |==|  0.67382
USER: genes 8 Torsion [N]-CA--C-[N] |==|  0.86327
USER: genes 9 Torsion [C]-N--CA-[C] |==|  0.64020
USER: genes 10 Torsion [N]-CA--CB-[CG] |==|  0.87326
USER: genes 11 Torsion [CA]-CB--CG-[CD] |==|  0.80483
USER: genes 12 Torsion [CB]-CG--CD-[OE2] |==|  0.43981
USER: genes 13 Torsion [N]-CA--C-[N] |==|  0.45297
USER: genes 14 Torsion [C]-N--CA-[CB] |==|  0.82756
USER: genes 15 Torsion [N]-CA--C-[O] |==|  0.34741
USER: genes 16 Torsion [CB]-CA--N-[C] |==|  0.78012
USER: genes 17 Torsion [N]-C--CA-[N] |==|  0.95294
USER: genes 18 Torsion [C]-CA--N-[C] |==|  0.78518
USER: genes 19 Torsion [N]-C--CA-[N] |==|  0.30811
USER: genes 20 Torsion [C]-CA--N-[C] |==|  0.61939
USER: genes 21 Torsion [N]-C--CA-[N] |==|  0.58629
USER: genes 22 Torsion [C]-CA--CB-[CG] |==|  0.23345
USER: genes 23 Torsion [CA]-CB--CG-[CD1] |==|  0.03405
ROOT
ATOM      1  CA  LEU B   4      35.934  -2.660   8.294  1.00 36.98 LIG 0.18  C 
ENDROOT
BRANCH 1 2
ATOM      2  CB  LEU B   4      35.667  -1.163   8.444  1.00 35.91 LIG 0.04  C 
BRANCH 2 3
ATOM      3  CG  LEU B   4      34.670  -0.551   7.443  1.00 35.93 LIG-0.02  C 
ATOM      4  CD2 LEU B   4      33.750   0.478   8.089  1.00 33.66 LIG 0.01  C 
ATOM      5  CD1 LEU B   4      33.813  -1.664   6.744  1.00 37.78 LIG 0.01  C 
ENDBRANCH 2 3
ENDBRANCH 1 2
BRANCH 1 6
ATOM      6  C   LEU B   4      37.149  -2.822   7.394  1.00 38.06 LIG 0.24  C 
ATOM      7  N   PHE B   5      37.108  -3.837   6.528  1.00 38.73 LIG-0.35  N 
ATOM      8 H    PHE B   5      36.404  -4.309   6.385  1.00 38.73 LIG 0.16  HD
ATOM      9 O    LEU B   4      38.125  -2.079   7.545  1.00 36.58 LIG-0.27  OA
BRANCH 7 10
ATOM     10  CA  PHE B   5      38.265  -4.246   5.737  1.00 41.04 LIG 0.18  C 
BRANCH 10 11
ATOM     11  CB  PHE B   5      37.873  -4.984   4.444  1.00 39.67 LIG 0.07  C 
BRANCH 11 12
ATOM     12  CG  PHE B   5      39.004  -5.180   3.508  1.00 38.07 LIG-0.06  A 
ATOM     13  CD2 PHE B   5      38.988  -4.609   2.263  1.00 33.96 LIG 0.01  A 
ATOM     14  CE2 PHE B   5      40.057  -4.808   1.346  1.00 35.53 LIG 0.00  A 
ATOM     15  CZ  PHE B   5      41.114  -5.633   1.680  1.00 34.38 LIG 0.00  A 
ATOM     16  CE1 PHE B   5      41.116  -6.224   2.951  1.00 35.56 LIG 0.00  A 
ATOM     17  CD1 PHE B   5      40.065  -5.992   3.852  1.00 35.27 LIG 0.01  A 
ENDBRANCH 11 12
ENDBRANCH 10 11
BRANCH 10 18
ATOM     18  C   PHE B   5      39.131  -3.086   5.351  1.00 43.64 LIG 0.24  C 
ATOM     19 O    PHE B   5      40.358  -3.162   5.505  1.00 43.27 LIG-0.27  OA
ATOM     20  N   GLU B   6      38.490  -2.044   4.816  1.00 47.41 LIG-0.35  N 
ATOM     21 H    GLU B   6      37.705  -2.105   4.469  1.00 47.41 LIG 0.16  HD
BRANCH 20 22
ATOM     22  CA  GLU B   6      39.057  -0.677   4.763  1.00 51.55 LIG 0.18  C 
BRANCH 22 23
ATOM     23  CB  GLU B   6      39.465  -0.279   3.333  1.00 52.47 LIG 0.04  C 
BRANCH 23 24
ATOM     24  CG  GLU B   6      40.262  -1.413   2.594  1.00 56.11 LIG 0.12  C 
BRANCH 24 25
ATOM     25  CD  GLU B   6      41.693  -1.662   3.134  1.00 59.86 LIG 0.17  C 
ATOM     26 OE2  GLU B   6      42.236  -2.760   2.913  1.00 64.67 LIG-0.65  OA
ATOM     27 OE1  GLU B   6      42.313  -0.768   3.744  1.00 64.70 LIG-0.65  OA
ENDBRANCH 24 25
ENDBRANCH 23 24
ENDBRANCH 22 23
BRANCH 22 28
ATOM     28  C   GLU B   6      37.999   0.311   5.329  1.00 53.54 LIG 0.24  C 
ATOM     29 O    GLU B   6      36.807  -0.021   5.478  1.00 53.95 LIG-0.27  OA
ATOM     30  N   ALA B   7      38.437   1.518   5.684  1.00 56.31 LIG-0.35  N 
ATOM     31 H    ALA B   7      39.248   1.786   5.584  1.00 56.31 LIG 0.16  HD
BRANCH 30 32
ATOM     32  CA  ALA B   7      37.528   2.521   6.302  1.00 57.55 LIG 0.16  C 
ATOM     33  CB  ALA B   7      36.387   2.908   5.347  1.00 58.11 LIG 0.04  C 
BRANCH 32 34
ATOM     34  C   ALA B   7      36.957   1.997   7.609  1.00 58.67 LIG 0.22  C 
ATOM     35 O    ALA B   7      37.086   2.648   8.641  1.00 60.59 LIG-0.29  OA
ENDBRANCH 32 34
ENDBRANCH 30 32
ENDBRANCH 22 28
ENDBRANCH 20 22
ENDBRANCH 10 18
ENDBRANCH 7 10
ENDBRANCH 1 6
BRANCH 1 36
ATOM     36  N   LEU B   4      36.047  -3.321   9.589  1.00 37.09 LIG-0.35  N 
ATOM     37 H    LEU B   4      35.338  -3.744   9.830  1.00 37.09 LIG 0.16  HD
ATOM     38  C   TRP B   3      37.163  -3.265  10.328  1.00 37.19 LIG 0.24  C 
ATOM     39 O    TRP B   3      38.140  -2.680   9.982  1.00 36.60 LIG-0.27  OA
BRANCH 38 40
ATOM     40  CA  TRP B   3      37.185  -4.042  11.638  1.00 38.87 LIG 0.18  C 
BRANCH 40 41
ATOM     41  N   TRP B   3      35.811  -4.382  12.018  1.00 40.30 LIG-0.35  N 
ATOM     42  C   ALA B   2      35.007  -3.452  12.562  1.00 43.05 LIG 0.24  C 
ATOM     43 O    ALA B   2      35.412  -2.348  12.933  1.00 42.86 LIG-0.27  OA
ATOM     44 H    TRP B   3      35.581  -5.197  11.864  1.00 40.30 LIG 0.16  HD
BRANCH 42 45
ATOM     45  CA  ALA B   2      33.552  -3.829  12.784  1.00 44.71 LIG 0.17  C 
ATOM     46  CB  ALA B   2      32.605  -2.756  12.184  1.00 44.36 LIG 0.04  C 
BRANCH 45 47
ATOM     47  N   ALA B   2      33.311  -3.933  14.223  1.00 46.59 LIG-0.35  N 
ATOM     48 H    ALA B   2      33.669  -3.305  14.688  1.00 46.59 LIG 0.16  HD
ATOM     49  C   PRO B   1      32.602  -4.916  14.741  1.00 48.49 LIG 0.25  C 
ATOM     50 O    PRO B   1      32.244  -5.872  14.071  1.00 48.43 LIG-0.27  OA
BRANCH 49 51
ATOM     51  CA  PRO B   1      32.247  -4.778  16.278  1.00 50.22 LIG 0.28  C 
ATOM     52  N   PRO B   1      32.130  -6.074  17.007  1.00 50.48 LIG-0.06  N 
ATOM     53 H3   PRO B   1      31.395  -6.081  17.454  1.00 50.48 LIG 0.28  HD
ATOM     54 H2   PRO B   1      32.082  -6.715  16.434  1.00 50.48 LIG 0.28  HD
ATOM     55  CD  PRO B   1      33.256  -6.331  17.925  1.00 50.94 LIG 0.23  C 
ATOM     56  CG  PRO B   1      34.117  -5.073  17.840  1.00 51.81 LIG 0.03  C 
ATOM     57  CB  PRO B   1      33.330  -4.011  17.063  1.00 50.52 LIG 0.04  C 
ENDBRANCH 49 51
ENDBRANCH 45 47
ENDBRANCH 42 45
ENDBRANCH 40 41
BRANCH 40 58
ATOM     58  CB  TRP B   3      38.096  -5.282  11.485  1.00 38.41 LIG 0.07  C 
BRANCH 58 59
ATOM     59  CG  TRP B   3      39.489  -4.910  11.719  1.00 37.10 LIG-0.03  A 
ATOM     60  CD1 TRP B   3      39.931  -3.754  12.243  1.00 36.42 LIG 0.10  A 
ATOM     61  NE1 TRP B   3      41.291  -3.745  12.278  1.00 36.34 LIG-0.36  N 
ATOM     62 HE1  TRP B   3      41.781  -3.103  12.575  1.00 36.34 LIG 0.17  HD
ATOM     63  CE2 TRP B   3      41.753  -4.926  11.762  1.00 35.80 LIG 0.04  A 
ATOM     64  CD2 TRP B   3      40.648  -5.671  11.381  1.00 33.30 LIG-0.00  A 
ATOM     65  CZ2 TRP B   3      43.065  -5.367  11.562  1.00 36.94 LIG 0.03  A 
ATOM     66  CE3 TRP B   3      40.846  -6.926  10.825  1.00 37.18 LIG 0.01  A 
ATOM     67  CZ3 TRP B   3      42.151  -7.386  10.653  1.00 37.29 LIG 0.00  A 
ATOM     68  CH2 TRP B   3      43.244  -6.594  11.022  1.00 32.87 LIG 0.00  A 
ENDBRANCH 58 59
ENDBRANCH 40 58
ENDBRANCH 38 40
ENDBRANCH 1 36
TORSDOF 22
ENDMDL
MODEL 13
USER: ADFR SOLUTION from run 108
USER: SCORE 22.731136 LL:  -6.599 LR: -17.284 RR:   0.000 FEB: -10.722
USER: RMSD 7.782565
USER: SEED 107
USER: STATUS no improvement in best in 2 clusters for 5 generations
USER: GENES 24
USER: genes 0 Translation |==|  0.61048 0.45848 0.51378
USER: genes 1 Rotation |==|  0.30331 0.05883 0.47496 0.62670
USER: genes 2 Torsion [C]-CA--CB-[CG] |==|  0.39673
USER: genes 3 Torsion [CA]-CB--CG-[CD1] |==|  0.04326
USER: genes 4 Torsion [N]-CA--C-[N] |==|  0.42467
USER: genes 5 Torsion [C]-N--CA-[CB] |==|  0.54673
USER: genes 6 Torsion [N]-CA--CB-[CG] |==|  0.60666
USER: genes 7 Torsion [CA]-CB--CG-[CD2] |==|  0.23720
USER: genes 8 Torsion [N]-CA--C-[N] |==|  0.40384
USER: genes 9 Torsion [C]-N--CA-[C] |==|  0.17222
USER: genes 10 Torsion [N]-CA--CB-[CG] |==|  0.21670
USER: genes 11 Torsion [CA]-CB--CG-[CD] |==|  0.33634
USER: genes 12 Torsion [CB]-CG--CD-[OE2] |==|  0.91308
USER: genes 13 Torsion [N]-CA--C-[N] |==|  0.07779
USER: genes 14 Torsion [C]-N--CA-[CB] |==|  0.49077
USER: genes 15 Torsion [N]-CA--C-[O] |==|  0.42936
USER: genes 16 Torsion [CB]-CA--N-[C] |==|  0.84196
USER: genes 17 Torsion [N]-C--CA-[N] |==|  0.22808
USER: genes 18 Torsion [C]-CA--N-[C] |==|  0.66803
USER: genes 19 Torsion [N]-C--CA-[N] |==|  0.91013
USER: genes 20 Torsion [C]-CA--N-[C] |==|  0.85363
USER: genes 21 Torsion [N]-C--CA-[N] |==|  0.14826
USER: genes 22 Torsion [C]-CA--CB-[CG] |==|  0.16076
USER: genes 23 Torsion [CA]-CB--CG-[CD1] |==|  0.16880
ROOT
ATOM      1  CA  LEU B   4      37.158  -3.812   9.969  1.00 36.98 LIG 0.18  C 
ENDROOT
BRANCH 1 2
ATOM      2  CB  LEU B   4      38.500  -3.664  10.686  1.00 35.91 LIG 0.04  C 
BRANCH 2 3
ATOM      3  CG  LEU B   4      38.431  -3.364  12.194  1.00 35.93 LIG-0.02  C 
ATOM      4  CD2 LEU B   4      39.471  -4.140  12.992  1.00 33.66 LIG 0.01  C 
ATOM      5  CD1 LEU B   4      36.999  -3.656  12.765  1.00 37.78 LIG 0.01  C 
ENDBRANCH 2 3
ENDBRANCH 1 2
BRANCH 1 6
ATOM      6  C   LEU B   4      37.305  -3.193   8.588  1.00 38.06 LIG 0.24  C 
ATOM      7  N   PHE B   5      37.169  -1.866   8.520  1.00 38.73 LIG-0.35  N 
ATOM      8 H    PHE B   5      37.122  -1.359   9.213  1.00 38.73 LIG 0.16  HD
ATOM      9 O    LEU B   4      37.464  -3.924   7.604  1.00 36.58 LIG-0.27  OA
BRANCH 7 10
ATOM     10  CA  PHE B   5      37.086  -1.146   7.254  1.00 41.04 LIG 0.18  C 
BRANCH 10 11
ATOM     11  CB  PHE B   5      37.346   0.364   7.408  1.00 39.67 LIG 0.07  C 
BRANCH 11 12
ATOM     12  CG  PHE B   5      36.481   1.204   6.548  1.00 38.07 LIG-0.06  A 
ATOM     13  CD2 PHE B   5      35.229   1.574   6.964  1.00 33.96 LIG 0.01  A 
ATOM     14  CE2 PHE B   5      34.380   2.362   6.138  1.00 35.53 LIG 0.00  A 
ATOM     15  CZ  PHE B   5      34.787   2.724   4.869  1.00 34.38 LIG 0.00  A 
ATOM     16  CE1 PHE B   5      36.064   2.330   4.446  1.00 35.56 LIG 0.00  A 
ATOM     17  CD1 PHE B   5      36.898   1.577   5.287  1.00 35.27 LIG 0.01  A 
ENDBRANCH 11 12
ENDBRANCH 10 11
BRANCH 10 18
ATOM     18  C   PHE B   5      38.052  -1.669   6.235  1.00 43.64 LIG 0.24  C 
ATOM     19 O    PHE B   5      39.144  -2.123   6.606  1.00 43.27 LIG-0.27  OA
ATOM     20  N   GLU B   6      37.625  -1.640   4.971  1.00 47.41 LIG-0.35  N 
ATOM     21 H    GLU B   6      36.793  -1.585   4.758  1.00 47.41 LIG 0.16  HD
BRANCH 20 22
ATOM     22  CA  GLU B   6      38.532  -1.699   3.802  1.00 51.55 LIG 0.18  C 
BRANCH 22 23
ATOM     23  CB  GLU B   6      39.522  -0.520   3.782  1.00 52.47 LIG 0.04  C 
BRANCH 23 24
ATOM     24  CG  GLU B   6      40.715  -0.716   4.785  1.00 56.11 LIG 0.12  C 
BRANCH 24 25
ATOM     25  CD  GLU B   6      42.122  -0.706   4.135  1.00 59.86 LIG 0.17  C 
ATOM     26 OE2  GLU B   6      42.249  -1.132   2.972  1.00 64.67 LIG-0.65  OA
ATOM     27 OE1  GLU B   6      43.106  -0.243   4.743  1.00 64.70 LIG-0.65  OA
ENDBRANCH 24 25
ENDBRANCH 23 24
ENDBRANCH 22 23
BRANCH 22 28
ATOM     28  C   GLU B   6      39.291  -3.055   3.841  1.00 53.54 LIG 0.24  C 
ATOM     29 O    GLU B   6      40.440  -3.175   3.375  1.00 53.95 LIG-0.27  OA
ATOM     30  N   ALA B   7      38.669  -4.072   4.436  1.00 56.31 LIG-0.35  N 
ATOM     31 H    ALA B   7      37.872  -4.029   4.757  1.00 56.31 LIG 0.16  HD
BRANCH 30 32
ATOM     32  CA  ALA B   7      39.327  -5.397   4.594  1.00 57.55 LIG 0.16  C 
ATOM     33  CB  ALA B   7      38.439  -6.374   5.381  1.00 58.11 LIG 0.04  C 
BRANCH 32 34
ATOM     34  C   ALA B   7      39.677  -5.988   3.238  1.00 58.67 LIG 0.22  C 
ATOM     35 O    ALA B   7      40.597  -6.795   3.139  1.00 60.59 LIG-0.29  OA
ENDBRANCH 32 34
ENDBRANCH 30 32
ENDBRANCH 22 28
ENDBRANCH 20 22
ENDBRANCH 10 18
ENDBRANCH 7 10
ENDBRANCH 1 6
BRANCH 1 36
ATOM     36  N   LEU B   4      36.695  -5.195   9.967  1.00 37.09 LIG-0.35  N 
ATOM     37 H    LEU B   4      35.918  -5.305  10.319  1.00 37.09 LIG 0.16  HD
ATOM     38  C   TRP B   3      37.427  -6.196   9.460  1.00 37.19 LIG 0.24  C 
ATOM     39 O    TRP B   3      38.500  -6.030   8.972  1.00 36.60 LIG-0.27  OA
BRANCH 38 40
ATOM     40  CA  TRP B   3      36.817  -7.591   9.461  1.00 38.87 LIG 0.18  C 
BRANCH 40 41
ATOM     41  N   TRP B   3      35.928  -7.727   8.303  1.00 40.30 LIG-0.35  N 
ATOM     42  C   ALA B   2      34.621  -7.987   8.476  1.00 43.05 LIG 0.24  C 
ATOM     43 O    ALA B   2      34.137  -8.298   9.568  1.00 42.86 LIG-0.27  OA
ATOM     44 H    TRP B   3      36.310  -7.628   7.538  1.00 40.30 LIG 0.16  HD
BRANCH 42 45
ATOM     45  CA  ALA B   2      33.733  -7.958   7.245  1.00 44.71 LIG 0.17  C 
ATOM     46  CB  ALA B   2      33.707  -9.344   6.547  1.00 44.36 LIG 0.04  C 
BRANCH 45 47
ATOM     47  N   ALA B   2      34.258  -6.960   6.314  1.00 46.59 LIG-0.35  N 
ATOM     48 H    ALA B   2      34.391  -7.255   5.517  1.00 46.59 LIG 0.16  HD
ATOM     49  C   PRO B   1      34.501  -5.719   6.686  1.00 48.49 LIG 0.25  C 
ATOM     50 O    PRO B   1      34.451  -5.378   7.857  1.00 48.43 LIG-0.27  OA
BRANCH 49 51
ATOM     51  CA  PRO B   1      34.860  -4.706   5.523  1.00 50.22 LIG 0.28  C 
ATOM     52  N   PRO B   1      33.868  -4.663   4.409  1.00 50.48 LIG-0.06  N 
ATOM     53 H3   PRO B   1      34.284  -4.735   3.659  1.00 50.48 LIG 0.28  HD
ATOM     54 H2   PRO B   1      33.344  -5.342   4.473  1.00 50.48 LIG 0.28  HD
ATOM     55  CD  PRO B   1      33.060  -3.429   4.396  1.00 50.94 LIG 0.23  C 
ATOM     56  CG  PRO B   1      33.628  -2.584   5.533  1.00 51.81 LIG 0.03  C 
ATOM     57  CB  PRO B   1      34.923  -3.246   6.016  1.00 50.52 LIG 0.04  C 
ENDBRANCH 49 51
ENDBRANCH 45 47
ENDBRANCH 42 45
ENDBRANCH 40 41
BRANCH 40 58
ATOM     58  CB  TRP B   3      37.946  -8.647   9.486  1.00 38.41 LIG 0.07  C 
BRANCH 58 59
ATOM     59  CG  TRP B   3      38.791  -8.445  10.661  1.00 37.10 LIG-0.03  A 
ATOM     60  CD1 TRP B   3      38.402  -8.505  11.946  1.00 36.42 LIG 0.10  A 
ATOM     61  NE1 TRP B   3      39.452  -8.229  12.767  1.00 36.34 LIG-0.36  N 
ATOM     62 HE1  TRP B   3      39.426  -8.213  13.626  1.00 36.34 LIG 0.17  HD
ATOM     63  CE2 TRP B   3      40.559  -7.981  11.998  1.00 35.80 LIG 0.04  A 
ATOM     64  CD2 TRP B   3      40.173  -8.086  10.671  1.00 33.30 LIG-0.00  A 
ATOM     65  CZ2 TRP B   3      41.856  -7.625  12.380  1.00 36.94 LIG 0.03  A 
ATOM     66  CE3 TRP B   3      41.120  -7.881   9.680  1.00 37.18 LIG 0.01  A 
ATOM     67  CZ3 TRP B   3      42.423  -7.557  10.054  1.00 37.29 LIG 0.00  A 
ATOM     68  CH2 TRP B   3      42.771  -7.430  11.403  1.00 32.87 LIG 0.00  A 
ENDBRANCH 58 59
ENDBRANCH 40 58
ENDBRANCH 38 40
ENDBRANCH 1 36
TORSDOF 22
ENDMDL
MODEL 14
USER: ADFR SOLUTION from run 74
USER: SCORE 20.917702 LL:  -6.480 LR: -17.241 RR:   0.000 FEB: -10.679
USER: RMSD 5.950620
USER: SEED 73
USER: STATUS no improvement in best in 7 clusters for 5 generations
USER: GENES 24
USER: genes 0 Translation |==|  0.55709 0.71363 0.45659
USER: genes 1 Rotation |==|  0.61073 0.29150 0.68003 0.90232
USER: genes 2 Torsion [C]-CA--CB-[CG] |==|  0.73534
USER: genes 3 Torsion [CA]-CB--CG-[CD1] |==|  0.37907
USER: genes 4 Torsion [N]-CA--C-[N] |==|  0.16115
USER: genes 5 Torsion [C]-N--CA-[CB] |==|  0.42600
USER: genes 6 Torsion [N]-CA--CB-[CG] |==|  0.14620
USER: genes 7 Torsion [CA]-CB--CG-[CD2] |==|  0.69851
USER: genes 8 Torsion [N]-CA--C-[N] |==|  0.03231
USER: genes 9 Torsion [C]-N--CA-[C] |==|  0.21652
USER: genes 10 Torsion [N]-CA--CB-[CG] |==|  0.56812
USER: genes 11 Torsion [CA]-CB--CG-[CD] |==|  0.29450
USER: genes 12 Torsion [CB]-CG--CD-[OE2] |==|  0.20807
USER: genes 13 Torsion [N]-CA--C-[N] |==|  0.05610
USER: genes 14 Torsion [C]-N--CA-[CB] |==|  0.83933
USER: genes 15 Torsion [N]-CA--C-[O] |==|  0.40386
USER: genes 16 Torsion [CB]-CA--N-[C] |==|  0.76597
USER: genes 17 Torsion [N]-C--CA-[N] |==|  0.32965
USER: genes 18 Torsion [C]-CA--N-[C] |==|  0.78225
USER: genes 19 Torsion [N]-C--CA-[N] |==|  0.07406
USER: genes 20 Torsion [C]-CA--N-[C] |==|  0.15830
USER: genes 21 Torsion [N]-C--CA-[N] |==|  0.22130
USER: genes 22 Torsion [C]-CA--CB-[CG] |==|  0.31985
USER: genes 23 Torsion [CA]-CB--CG-[CD1] |==|  0.77541
ROOT
ATOM      1  CA  LEU B   4      35.997   1.164   8.682  1.00 36.98 LIG 0.18  C 
ENDROOT
BRANCH 1 2
ATOM      2  CB  LEU B   4      35.698   2.416   7.859  1.00 35.91 LIG 0.04  C 
BRANCH 2 3
ATOM      3  CG  LEU B   4      35.600   2.216   6.336  1.00 35.93 LIG-0.02  C 
ATOM      4  CD2 LEU B   4      36.877   2.622   5.610  1.00 33.66 LIG 0.01  C 
ATOM      5  CD1 LEU B   4      34.378   2.998   5.738  1.00 37.78 LIG 0.01  C 
ENDBRANCH 2 3
ENDBRANCH 1 2
BRANCH 1 6
ATOM      6  C   LEU B   4      34.668   0.605   9.166  1.00 38.06 LIG 0.24  C 
ATOM      7  N   PHE B   5      34.735  -0.468   9.959  1.00 38.73 LIG-0.35  N 
ATOM      8 H    PHE B   5      35.471  -0.768  10.287  1.00 38.73 LIG 0.16  HD
ATOM      9 O    LEU B   4      33.612   1.100   8.760  1.00 36.58 LIG-0.27  OA
BRANCH 7 10
ATOM     10  CA  PHE B   5      33.557  -1.238  10.346  1.00 41.04 LIG 0.18  C 
BRANCH 10 11
ATOM     11  CB  PHE B   5      33.884  -2.706  10.673  1.00 39.67 LIG 0.07  C 
BRANCH 11 12
ATOM     12  CG  PHE B   5      34.970  -2.863  11.668  1.00 38.07 LIG-0.06  A 
ATOM     13  CD2 PHE B   5      36.203  -3.326  11.290  1.00 33.96 LIG 0.01  A 
ATOM     14  CE2 PHE B   5      37.247  -3.503  12.240  1.00 35.53 LIG 0.00  A 
ATOM     15  CZ  PHE B   5      37.016  -3.262  13.580  1.00 34.38 LIG 0.00  A 
ATOM     16  CE1 PHE B   5      35.747  -2.801  13.960  1.00 35.56 LIG 0.00  A 
ATOM     17  CD1 PHE B   5      34.739  -2.606  13.003  1.00 35.27 LIG 0.01  A 
ENDBRANCH 11 12
ENDBRANCH 10 11
BRANCH 10 18
ATOM     18  C   PHE B   5      32.860  -0.653  11.536  1.00 43.64 LIG 0.24  C 
ATOM     19 O    PHE B   5      32.006  -1.323  12.134  1.00 43.27 LIG-0.27  OA
ATOM     20  N   GLU B   6      33.260   0.570  11.893  1.00 47.41 LIG-0.35  N 
ATOM     21 H    GLU B   6      34.017   0.904  11.654  1.00 47.41 LIG 0.16  HD
BRANCH 20 22
ATOM     22  CA  GLU B   6      32.449   1.481  12.732  1.00 51.55 LIG 0.18  C 
BRANCH 22 23
ATOM     23  CB  GLU B   6      30.974   1.508  12.294  1.00 52.47 LIG 0.04  C 
BRANCH 23 24
ATOM     24  CG  GLU B   6      30.245   2.838  12.703  1.00 56.11 LIG 0.12  C 
BRANCH 24 25
ATOM     25  CD  GLU B   6      29.975   3.819  11.534  1.00 59.86 LIG 0.17  C 
ATOM     26 OE2  GLU B   6      29.060   3.558  10.731  1.00 64.67 LIG-0.65  OA
ATOM     27 OE1  GLU B   6      30.630   4.873  11.417  1.00 64.70 LIG-0.65  OA
ENDBRANCH 24 25
ENDBRANCH 23 24
ENDBRANCH 22 23
BRANCH 22 28
ATOM     28  C   GLU B   6      32.575   1.021  14.212  1.00 53.54 LIG 0.24  C 
ATOM     29 O    GLU B   6      31.718   1.320  15.065  1.00 53.95 LIG-0.27  OA
ATOM     30  N   ALA B   7      33.623   0.257  14.514  1.00 56.31 LIG-0.35  N 
ATOM     31 H    ALA B   7      34.241   0.042  13.955  1.00 56.31 LIG 0.16  HD
BRANCH 30 32
ATOM     32  CA  ALA B   7      33.809  -0.299  15.882  1.00 57.55 LIG 0.16  C 
ATOM     33  CB  ALA B   7      33.863   0.817  16.938  1.00 58.11 LIG 0.04  C 
BRANCH 32 34
ATOM     34  C   ALA B   7      32.699  -1.280  16.218  1.00 58.67 LIG 0.22  C 
ATOM     35 O    ALA B   7      32.938  -2.264  16.913  1.00 60.59 LIG-0.29  OA
ENDBRANCH 32 34
ENDBRANCH 30 32
ENDBRANCH 22 28
ENDBRANCH 20 22
ENDBRANCH 10 18
ENDBRANCH 7 10
ENDBRANCH 1 6
BRANCH 1 36
ATOM     36  N   LEU B   4      36.820   0.214   7.942  1.00 37.09 LIG-0.35  N 
ATOM     37 H    LEU B   4      37.662   0.276   8.108  1.00 37.09 LIG 0.16  HD
ATOM     38  C   TRP B   3      36.299  -0.671   7.083  1.00 37.19 LIG 0.24  C 
ATOM     39 O    TRP B   3      35.131  -0.751   6.866  1.00 36.60 LIG-0.27  OA
BRANCH 38 40
ATOM     40  CA  TRP B   3      37.250  -1.652   6.410  1.00 38.87 LIG 0.18  C 
BRANCH 40 41
ATOM     41  N   TRP B   3      36.873  -3.019   6.783  1.00 40.30 LIG-0.35  N 
ATOM     42  C   ALA B   2      37.214  -3.514   7.984  1.00 43.05 LIG 0.24  C 
ATOM     43 O    ALA B   2      37.994  -2.942   8.750  1.00 42.86 LIG-0.27  OA
ATOM     44 H    TRP B   3      36.431  -3.450   6.183  1.00 40.30 LIG 0.16  HD
BRANCH 42 45
ATOM     45  CA  ALA B   2      36.656  -4.875   8.364  1.00 44.71 LIG 0.17  C 
ATOM     46  CB  ALA B   2      37.665  -5.663   9.241  1.00 44.36 LIG 0.04  C 
BRANCH 45 47
ATOM     47  N   ALA B   2      36.390  -5.629   7.140  1.00 46.59 LIG-0.35  N 
ATOM     48 H    ALA B   2      35.577  -5.896   7.059  1.00 46.59 LIG 0.16  HD
ATOM     49  C   PRO B   1      37.332  -5.868   6.250  1.00 48.49 LIG 0.25  C 
ATOM     50 O    PRO B   1      38.505  -5.612   6.472  1.00 48.43 LIG-0.27  OA
BRANCH 49 51
ATOM     51  CA  PRO B   1      36.847  -6.505   4.883  1.00 50.22 LIG 0.28  C 
ATOM     52  N   PRO B   1      36.257  -5.532   3.920  1.00 50.48 LIG-0.06  N 
ATOM     53 H3   PRO B   1      35.505  -5.837   3.635  1.00 50.48 LIG 0.28  HD
ATOM     54 H2   PRO B   1      36.090  -4.795   4.331  1.00 50.48 LIG 0.28  HD
ATOM     55  CD  PRO B   1      37.132  -5.252   2.765  1.00 50.94 LIG 0.23  C 
ATOM     56  CG  PRO B   1      38.334  -6.172   2.960  1.00 51.81 LIG 0.03  C 
ATOM     57  CB  PRO B   1      38.005  -7.149   4.094  1.00 50.52 LIG 0.04  C 
ENDBRANCH 49 51
ENDBRANCH 45 47
ENDBRANCH 42 45
ENDBRANCH 40 41
BRANCH 40 58
ATOM     58  CB  TRP B   3      37.239  -1.414   4.882  1.00 38.41 LIG 0.07  C 
BRANCH 58 59
ATOM     59  CG  TRP B   3      38.551  -0.950   4.440  1.00 37.10 LIG-0.03  A 
ATOM     60  CD1 TRP B   3      39.023   0.306   4.518  1.00 36.42 LIG 0.10  A 
ATOM     61  NE1 TRP B   3      40.269   0.373   3.976  1.00 36.34 LIG-0.36  N 
ATOM     62 HE1  TRP B   3      40.755   1.081   3.922  1.00 36.34 LIG 0.17  HD
ATOM     63  CE2 TRP B   3      40.623  -0.872   3.529  1.00 35.80 LIG 0.04  A 
ATOM     64  CD2 TRP B   3      39.557  -1.721   3.784  1.00 33.30 LIG-0.00  A 
ATOM     65  CZ2 TRP B   3      41.785  -1.296   2.876  1.00 36.94 LIG 0.03  A 
ATOM     66  CE3 TRP B   3      39.664  -3.056   3.425  1.00 37.18 LIG 0.01  A 
ATOM     67  CZ3 TRP B   3      40.832  -3.493   2.803  1.00 37.29 LIG 0.00  A 
ATOM     68  CH2 TRP B   3      41.876  -2.602   2.534  1.00 32.87 LIG 0.00  A 
ENDBRANCH 58 59
ENDBRANCH 40 58
ENDBRANCH 38 40
ENDBRANCH 1 36
TORSDOF 22
ENDMDL
MODEL 15
USER: ADFR SOLUTION from run 63
USER: SCORE 23.087555 LL:  -7.489 LR: -17.213 RR:   0.000 FEB: -10.651
USER: RMSD 7.440819
USER: SEED 62
USER: STATUS no improvement in best in 2 clusters for 5 generations
USER: GENES 24
USER: genes 0 Translation |==|  0.59897 0.43049 0.51884
USER: genes 1 Rotation |==|  0.21782 0.14153 0.43859 0.69520
USER: genes 2 Torsion [C]-CA--CB-[CG] |==|  0.33368
USER: genes 3 Torsion [CA]-CB--CG-[CD1] |==|  0.51317
USER: genes 4 Torsion [N]-CA--C-[N] |==|  0.34444
USER: genes 5 Torsion [C]-N--CA-[CB] |==|  0.52225
USER: genes 6 Torsion [N]-CA--CB-[CG] |==|  0.54902
USER: genes 7 Torsion [CA]-CB--CG-[CD2] |==|  0.71368
USER: genes 8 Torsion [N]-CA--C-[N] |==|  0.43181
USER: genes 9 Torsion [C]-N--CA-[C] |==|  0.23969
USER: genes 10 Torsion [N]-CA--CB-[CG] |==|  0.51626
USER: genes 11 Torsion [CA]-CB--CG-[CD] |==|  0.67791
USER: genes 12 Torsion [CB]-CG--CD-[OE2] |==|  0.77072
USER: genes 13 Torsion [N]-CA--C-[N] |==|  0.86847
USER: genes 14 Torsion [C]-N--CA-[CB] |==|  0.24670
USER: genes 15 Torsion [N]-CA--C-[O] |==|  0.95471
USER: genes 16 Torsion [CB]-CA--N-[C] |==|  0.83861
USER: genes 17 Torsion [N]-C--CA-[N] |==|  0.28360
USER: genes 18 Torsion [C]-CA--N-[C] |==|  0.69916
USER: genes 19 Torsion [N]-C--CA-[N] |==|  0.91561
USER: genes 20 Torsion [C]-CA--N-[C] |==|  0.80897
USER: genes 21 Torsion [N]-C--CA-[N] |==|  0.20451
USER: genes 22 Torsion [C]-CA--CB-[CG] |==|  0.66035
USER: genes 23 Torsion [CA]-CB--CG-[CD1] |==|  0.68159
ROOT
ATOM      1  CA  LEU B   4      36.908  -4.357  10.083  1.00 36.98 LIG 0.18  C 
ENDROOT
BRANCH 1 2
ATOM      2  CB  LEU B   4      38.293  -4.942  10.356  1.00 35.91 LIG 0.04  C 
BRANCH 2 3
ATOM      3  CG  LEU B   4      38.957  -4.518  11.678  1.00 35.93 LIG-0.02  C 
ATOM      4  CD2 LEU B   4      38.977  -3.005  11.863  1.00 33.66 LIG 0.01  C 
ATOM      5  CD1 LEU B   4      40.416  -5.084  11.788  1.00 37.78 LIG 0.01  C 
ENDBRANCH 2 3
ENDBRANCH 1 2
BRANCH 1 6
ATOM      6  C   LEU B   4      36.992  -3.562   8.790  1.00 38.06 LIG 0.24  C 
ATOM      7  N   PHE B   5      36.878  -2.237   8.906  1.00 38.73 LIG-0.35  N 
ATOM      8 H    PHE B   5      36.878  -1.826   9.662  1.00 38.73 LIG 0.16  HD
ATOM      9 O    LEU B   4      37.083  -4.157   7.711  1.00 36.58 LIG-0.27  OA
BRANCH 7 10
ATOM     10  CA  PHE B   5      36.741  -1.353   7.753  1.00 41.04 LIG 0.18  C 
BRANCH 10 11
ATOM     11  CB  PHE B   5      36.824   0.137   8.129  1.00 39.67 LIG 0.07  C 
BRANCH 11 12
ATOM     12  CG  PHE B   5      36.287   1.042   7.087  1.00 38.07 LIG-0.06  A 
ATOM     13  CD2 PHE B   5      37.133   1.744   6.268  1.00 33.96 LIG 0.01  A 
ATOM     14  CE2 PHE B   5      36.630   2.633   5.278  1.00 35.53 LIG 0.00  A 
ATOM     15  CZ  PHE B   5      35.270   2.849   5.163  1.00 34.38 LIG 0.00  A 
ATOM     16  CE1 PHE B   5      34.414   2.138   6.015  1.00 35.56 LIG 0.00  A 
ATOM     17  CD1 PHE B   5      34.928   1.242   6.966  1.00 35.27 LIG 0.01  A 
ENDBRANCH 11 12
ENDBRANCH 10 11
BRANCH 10 18
ATOM     18  C   PHE B   5      37.782  -1.614   6.707  1.00 43.64 LIG 0.24  C 
ATOM     19 O    PHE B   5      38.842  -2.170   7.026  1.00 43.27 LIG-0.27  OA
ATOM     20  N   GLU B   6      37.452  -1.250   5.466  1.00 47.41 LIG-0.35  N 
ATOM     21 H    GLU B   6      36.639  -1.125   5.214  1.00 47.41 LIG 0.16  HD
BRANCH 20 22
ATOM     22  CA  GLU B   6      38.446  -1.022   4.391  1.00 51.55 LIG 0.18  C 
BRANCH 22 23
ATOM     23  CB  GLU B   6      39.739  -0.385   4.930  1.00 52.47 LIG 0.04  C 
BRANCH 23 24
ATOM     24  CG  GLU B   6      40.746  -0.000   3.787  1.00 56.11 LIG 0.12  C 
BRANCH 24 25
ATOM     25  CD  GLU B   6      42.090  -0.773   3.815  1.00 59.86 LIG 0.17  C 
ATOM     26 OE2  GLU B   6      42.994  -0.377   4.574  1.00 64.67 LIG-0.65  OA
ATOM     27 OE1  GLU B   6      42.255  -1.797   3.124  1.00 64.70 LIG-0.65  OA
ENDBRANCH 24 25
ENDBRANCH 23 24
ENDBRANCH 22 23
BRANCH 22 28
ATOM     28  C   GLU B   6      38.747  -2.386   3.709  1.00 53.54 LIG 0.24  C 
ATOM     29 O    GLU B   6      38.794  -2.500   2.469  1.00 53.95 LIG-0.27  OA
ATOM     30  N   ALA B   7      38.994  -3.417   4.515  1.00 56.31 LIG-0.35  N 
ATOM     31 H    ALA B   7      38.958  -3.377   5.373  1.00 56.31 LIG 0.16  HD
BRANCH 30 32
ATOM     32  CA  ALA B   7      39.362  -4.753   3.973  1.00 57.55 LIG 0.16  C 
ATOM     33  CB  ALA B   7      40.882  -4.882   3.783  1.00 58.11 LIG 0.04  C 
BRANCH 32 34
ATOM     34  C   ALA B   7      38.855  -5.860   4.882  1.00 58.67 LIG 0.22  C 
ATOM     35 O    ALA B   7      38.507  -5.601   6.030  1.00 60.59 LIG-0.29  OA
ENDBRANCH 32 34
ENDBRANCH 30 32
ENDBRANCH 22 28
ENDBRANCH 20 22
ENDBRANCH 10 18
ENDBRANCH 7 10
ENDBRANCH 1 6
BRANCH 1 36
ATOM     36  N   LEU B   4      35.874  -5.387  10.095  1.00 37.09 LIG-0.35  N 
ATOM     37 H    LEU B   4      35.250  -5.250  10.670  1.00 37.09 LIG 0.16  HD
ATOM     38  C   TRP B   3      35.908  -6.447   9.277  1.00 37.19 LIG 0.24  C 
ATOM     39 O    TRP B   3      36.775  -6.622   8.480  1.00 36.60 LIG-0.27  OA
BRANCH 38 40
ATOM     40  CA  TRP B   3      34.744  -7.427   9.339  1.00 38.87 LIG 0.18  C 
BRANCH 40 41
ATOM     41  N   TRP B   3      33.851  -7.184   8.202  1.00 40.30 LIG-0.35  N 
ATOM     42  C   ALA B   2      32.645  -6.622   8.393  1.00 43.05 LIG 0.24  C 
ATOM     43 O    ALA B   2      32.156  -6.448   9.512  1.00 42.86 LIG-0.27  OA
ATOM     44 H    TRP B   3      34.161  -7.426   7.437  1.00 40.30 LIG 0.16  HD
BRANCH 42 45
ATOM     45  CA  ALA B   2      31.840  -6.255   7.159  1.00 44.71 LIG 0.17  C 
ATOM     46  CB  ALA B   2      30.941  -7.438   6.712  1.00 44.36 LIG 0.04  C 
BRANCH 45 47
ATOM     47  N   ALA B   2      32.768  -5.921   6.079  1.00 46.59 LIG-0.35  N 
ATOM     48 H    ALA B   2      32.779  -6.489   5.434  1.00 46.59 LIG 0.16  HD
ATOM     49  C   PRO B   1      33.515  -4.836   6.112  1.00 48.49 LIG 0.25  C 
ATOM     50 O    PRO B   1      33.589  -4.138   7.111  1.00 48.43 LIG-0.27  OA
BRANCH 49 51
ATOM     51  CA  PRO B   1      34.305  -4.498   4.781  1.00 50.22 LIG 0.28  C 
ATOM     52  N   PRO B   1      33.457  -3.969   3.674  1.00 50.48 LIG-0.06  N 
ATOM     53 H3   PRO B   1      33.630  -4.406   2.953  1.00 50.48 LIG 0.28  HD
ATOM     54 H2   PRO B   1      32.629  -4.110   3.861  1.00 50.48 LIG 0.28  HD
ATOM     55  CD  PRO B   1      33.657  -2.529   3.425  1.00 50.94 LIG 0.23  C 
ATOM     56  CG  PRO B   1      34.771  -2.122   4.386  1.00 51.81 LIG 0.03  C 
ATOM     57  CB  PRO B   1      35.365  -3.398   4.992  1.00 50.52 LIG 0.04  C 
ENDBRANCH 49 51
ENDBRANCH 45 47
ENDBRANCH 42 45
ENDBRANCH 40 41
BRANCH 40 58
ATOM     58  CB  TRP B   3      35.291  -8.873   9.382  1.00 38.41 LIG 0.07  C 
BRANCH 58 59
ATOM     59  CG  TRP B   3      34.757  -9.642   8.261  1.00 37.10 LIG-0.03  A 
ATOM     60  CD1 TRP B   3      33.929 -10.698   8.338  1.00 36.42 LIG 0.10  A 
ATOM     61  NE1 TRP B   3      33.671 -11.182   7.092  1.00 36.34 LIG-0.36  N 
ATOM     62 HE1  TRP B   3      33.165 -11.854   6.910  1.00 36.34 LIG 0.17  HD
ATOM     63  CE2 TRP B   3      34.349 -10.424   6.175  1.00 35.80 LIG 0.04  A 
ATOM     64  CD2 TRP B   3      35.059  -9.463   6.877  1.00 33.30 LIG-0.00  A 
ATOM     65  CZ2 TRP B   3      34.423 -10.550   4.784  1.00 36.94 LIG 0.03  A 
ATOM     66  CE3 TRP B   3      35.835  -8.556   6.172  1.00 37.18 LIG 0.01  A 
ATOM     67  CZ3 TRP B   3      35.888  -8.655   4.783  1.00 37.29 LIG 0.00  A 
ATOM     68  CH2 TRP B   3      35.181  -9.657   4.109  1.00 32.87 LIG 0.00  A 
ENDBRANCH 58 59
ENDBRANCH 40 58
ENDBRANCH 38 40
ENDBRANCH 1 36
TORSDOF 22
ENDMDL
MODEL 16
USER: ADFR SOLUTION from run 97
USER: SCORE 22.381878 LL:  -7.673 LR: -17.200 RR:   0.000 FEB: -10.638
USER: RMSD 5.005017
USER: SEED 96
USER: STATUS no improvement in best in 3 clusters for 5 generations
USER: GENES 24
USER: genes 0 Translation |==|  0.74052 0.56217 0.28852
USER: genes 1 Rotation |==|  0.40511 0.44959 0.51778 0.98799
USER: genes 2 Torsion [C]-CA--CB-[CG] |==|  0.29542
USER: genes 3 Torsion [CA]-CB--CG-[CD1] |==|  0.93596
USER: genes 4 Torsion [N]-CA--C-[N] |==|  0.68964
USER: genes 5 Torsion [C]-N--CA-[CB] |==|  0.49444
USER: genes 6 Torsion [N]-CA--CB-[CG] |==|  0.14225
USER: genes 7 Torsion [CA]-CB--CG-[CD2] |==|  0.33783
USER: genes 8 Torsion [N]-CA--C-[N] |==|  0.97174
USER: genes 9 Torsion [C]-N--CA-[C] |==|  0.64642
USER: genes 10 Torsion [N]-CA--CB-[CG] |==|  0.56730
USER: genes 11 Torsion [CA]-CB--CG-[CD] |==|  0.15311
USER: genes 12 Torsion [CB]-CG--CD-[OE2] |==|  0.56237
USER: genes 13 Torsion [N]-CA--C-[N] |==|  0.46808
USER: genes 14 Torsion [C]-N--CA-[CB] |==|  0.30932
USER: genes 15 Torsion [N]-CA--C-[O] |==|  0.81247
USER: genes 16 Torsion [CB]-CA--N-[C] |==|  0.18538
USER: genes 17 Torsion [N]-C--CA-[N] |==|  0.03478
USER: genes 18 Torsion [C]-CA--N-[C] |==|  0.72097
USER: genes 19 Torsion [N]-C--CA-[N] |==|  0.00904
USER: genes 20 Torsion [C]-CA--N-[C] |==|  0.78990
USER: genes 21 Torsion [N]-C--CA-[N] |==|  0.95611
USER: genes 22 Torsion [C]-CA--CB-[CG] |==|  0.43225
USER: genes 23 Torsion [CA]-CB--CG-[CD1] |==|  0.74501
ROOT
ATOM      1  CA  LEU B   4      39.986  -1.790   4.901  1.00 36.98 LIG 0.18  C 
ENDROOT
BRANCH 1 2
ATOM      2  CB  LEU B   4      39.892  -1.318   3.450  1.00 35.91 LIG 0.04  C 
BRANCH 2 3
ATOM      3  CG  LEU B   4      41.207  -0.839   2.809  1.00 35.93 LIG-0.02  C 
ATOM      4  CD2 LEU B   4      41.839  -1.896   1.911  1.00 33.66 LIG 0.01  C 
ATOM      5  CD1 LEU B   4      42.238  -0.386   3.901  1.00 37.78 LIG 0.01  C 
ENDBRANCH 2 3
ENDBRANCH 1 2
BRANCH 1 6
ATOM      6  C   LEU B   4      39.355  -0.717   5.774  1.00 38.06 LIG 0.24  C 
ATOM      7  N   PHE B   5      38.640   0.214   5.137  1.00 38.73 LIG-0.35  N 
ATOM      8 H    PHE B   5      38.434   0.165   4.303  1.00 38.73 LIG 0.16  HD
ATOM      9 O    LEU B   4      39.583  -0.704   6.988  1.00 36.58 LIG-0.27  OA
BRANCH 7 10
ATOM     10  CA  PHE B   5      38.138   1.413   5.800  1.00 41.04 LIG 0.18  C 
BRANCH 10 11
ATOM     11  CB  PHE B   5      37.385   2.354   4.842  1.00 39.67 LIG 0.07  C 
BRANCH 11 12
ATOM     12  CG  PHE B   5      36.333   1.677   4.051  1.00 38.07 LIG-0.06  A 
ATOM     13  CD2 PHE B   5      35.028   2.091   4.123  1.00 33.96 LIG 0.01  A 
ATOM     14  CE2 PHE B   5      34.005   1.434   3.386  1.00 35.53 LIG 0.00  A 
ATOM     15  CZ  PHE B   5      34.303   0.322   2.621  1.00 34.38 LIG 0.00  A 
ATOM     16  CE1 PHE B   5      35.637  -0.102   2.564  1.00 35.56 LIG 0.00  A 
ATOM     17  CD1 PHE B   5      36.638   0.577   3.277  1.00 35.27 LIG 0.01  A 
ENDBRANCH 11 12
ENDBRANCH 10 11
BRANCH 10 18
ATOM     18  C   PHE B   5      37.215   1.092   6.936  1.00 43.64 LIG 0.24  C 
ATOM     19 O    PHE B   5      36.831   2.000   7.686  1.00 43.27 LIG-0.27  OA
ATOM     20  N   GLU B   6      36.838  -0.185   7.025  1.00 47.41 LIG-0.35  N 
ATOM     21 H    GLU B   6      36.883  -0.735   6.365  1.00 47.41 LIG 0.16  HD
BRANCH 20 22
ATOM     22  CA  GLU B   6      36.302  -0.793   8.265  1.00 51.55 LIG 0.18  C 
BRANCH 22 23
ATOM     23  CB  GLU B   6      34.804  -1.123   8.143  1.00 52.47 LIG 0.04  C 
BRANCH 23 24
ATOM     24  CG  GLU B   6      34.082  -1.183   9.537  1.00 56.11 LIG 0.12  C 
BRANCH 24 25
ATOM     25  CD  GLU B   6      34.235   0.092  10.405  1.00 59.86 LIG 0.17  C 
ATOM     26 OE2  GLU B   6      34.082   0.001  11.637  1.00 64.67 LIG-0.65  OA
ATOM     27 OE1  GLU B   6      34.545   1.185   9.891  1.00 64.70 LIG-0.65  OA
ENDBRANCH 24 25
ENDBRANCH 23 24
ENDBRANCH 22 23
BRANCH 22 28
ATOM     28  C   GLU B   6      37.125  -2.075   8.574  1.00 53.54 LIG 0.24  C 
ATOM     29 O    GLU B   6      37.940  -2.542   7.755  1.00 53.95 LIG-0.27  OA
ATOM     30  N   ALA B   7      36.946  -2.627   9.773  1.00 56.31 LIG-0.35  N 
ATOM     31 H    ALA B   7      36.383  -2.340  10.357  1.00 56.31 LIG 0.16  HD
BRANCH 30 32
ATOM     32  CA  ALA B   7      37.730  -3.816  10.203  1.00 57.55 LIG 0.16  C 
ATOM     33  CB  ALA B   7      38.713  -3.462  11.331  1.00 58.11 LIG 0.04  C 
BRANCH 32 34
ATOM     34  C   ALA B   7      36.806  -4.937  10.650  1.00 58.67 LIG 0.22  C 
ATOM     35 O    ALA B   7      36.133  -4.809  11.668  1.00 60.59 LIG-0.29  OA
ENDBRANCH 32 34
ENDBRANCH 30 32
ENDBRANCH 22 28
ENDBRANCH 20 22
ENDBRANCH 10 18
ENDBRANCH 7 10
ENDBRANCH 1 6
BRANCH 1 36
ATOM     36  N   LEU B   4      39.419  -3.122   5.074  1.00 37.09 LIG-0.35  N 
ATOM     37 H    LEU B   4      38.706  -3.140   5.554  1.00 37.09 LIG 0.16  HD
ATOM     38  C   TRP B   3      39.971  -4.213   4.527  1.00 37.19 LIG 0.24  C 
ATOM     39 O    TRP B   3      40.955  -4.175   3.859  1.00 36.60 LIG-0.27  OA
BRANCH 38 40
ATOM     40  CA  TRP B   3      39.258  -5.544   4.727  1.00 38.87 LIG 0.18  C 
BRANCH 40 41
ATOM     41  N   TRP B   3      37.914  -5.294   5.257  1.00 40.30 LIG-0.35  N 
ATOM     42  C   ALA B   2      37.662  -5.443   6.568  1.00 43.05 LIG 0.24  C 
ATOM     43 O    ALA B   2      38.464  -5.957   7.352  1.00 42.86 LIG-0.27  OA
ATOM     44 H    TRP B   3      37.331  -5.053   4.671  1.00 40.30 LIG 0.16  HD
BRANCH 42 45
ATOM     45  CA  ALA B   2      36.294  -5.016   7.071  1.00 44.71 LIG 0.17  C 
ATOM     46  CB  ALA B   2      35.574  -6.190   7.784  1.00 44.36 LIG 0.04  C 
BRANCH 45 47
ATOM     47  N   ALA B   2      35.491  -4.581   5.928  1.00 46.59 LIG-0.35  N 
ATOM     48 H    ALA B   2      34.894  -5.147   5.680  1.00 46.59 LIG 0.16  HD
ATOM     49  C   PRO B   1      35.685  -3.417   5.343  1.00 48.49 LIG 0.25  C 
ATOM     50 O    PRO B   1      36.642  -2.710   5.620  1.00 48.43 LIG-0.27  OA
BRANCH 49 51
ATOM     51  CA  PRO B   1      34.604  -2.996   4.265  1.00 50.22 LIG 0.28  C 
ATOM     52  N   PRO B   1      33.733  -4.110   3.791  1.00 50.48 LIG-0.06  N 
ATOM     53 H3   PRO B   1      33.715  -4.108   2.931  1.00 50.48 LIG 0.28  HD
ATOM     54 H2   PRO B   1      34.079  -4.860   4.034  1.00 50.48 LIG 0.28  HD
ATOM     55  CD  PRO B   1      32.352  -4.028   4.303  1.00 50.94 LIG 0.23  C 
ATOM     56  CG  PRO B   1      32.312  -2.724   5.096  1.00 51.81 LIG 0.03  C 
ATOM     57  CB  PRO B   1      33.606  -1.954   4.810  1.00 50.52 LIG 0.04  C 
ENDBRANCH 49 51
ENDBRANCH 45 47
ENDBRANCH 42 45
ENDBRANCH 40 41
BRANCH 40 58
ATOM     58  CB  TRP B   3      39.248  -6.329   3.395  1.00 38.41 LIG 0.07  C 
BRANCH 58 59
ATOM     59  CG  TRP B   3      39.120  -7.760   3.659  1.00 37.10 LIG-0.03  A 
ATOM     60  CD1 TRP B   3      40.127  -8.637   3.814  1.00 36.42 LIG 0.10  A 
ATOM     61  NE1 TRP B   3      39.630  -9.889   4.011  1.00 36.34 LIG-0.36  N 
ATOM     62 HE1  TRP B   3      40.098 -10.601   4.133  1.00 36.34 LIG 0.17  HD
ATOM     63  CE2 TRP B   3      38.262  -9.830   3.982  1.00 35.80 LIG 0.04  A 
ATOM     64  CD2 TRP B   3      37.910  -8.512   3.740  1.00 33.30 LIG-0.00  A 
ATOM     65  CZ2 TRP B   3      37.316 -10.853   4.104  1.00 36.94 LIG 0.03  A 
ATOM     66  CE3 TRP B   3      36.566  -8.181   3.667  1.00 37.18 LIG 0.01  A 
ATOM     67  CZ3 TRP B   3      35.616  -9.190   3.820  1.00 37.29 LIG 0.00  A 
ATOM     68  CH2 TRP B   3      36.008 -10.516   4.033  1.00 32.87 LIG 0.00  A 
ENDBRANCH 58 59
ENDBRANCH 40 58
ENDBRANCH 38 40
ENDBRANCH 1 36
TORSDOF 22
ENDMDL
MODEL 17
USER: ADFR SOLUTION from run 14
USER: SCORE 21.222627 LL:  -7.279 LR: -17.170 RR:   0.000 FEB: -10.608
USER: RMSD 4.373127
USER: SEED 765849
USER: STATUS no improvement in best in 6 clusters for 5 generations
USER: GENES 24
USER: genes 0 Translation |==|  0.65446 0.51289 0.30523
USER: genes 1 Rotation |==|  0.51849 0.51409 0.45148 0.99710
USER: genes 2 Torsion [C]-CA--CB-[CG] |==|  0.29505
USER: genes 3 Torsion [CA]-CB--CG-[CD1] |==|  0.64656
USER: genes 4 Torsion [N]-CA--C-[N] |==|  0.97607
USER: genes 5 Torsion [C]-N--CA-[CB] |==|  0.26534
USER: genes 6 Torsion [N]-CA--CB-[CG] |==|  0.77259
USER: genes 7 Torsion [CA]-CB--CG-[CD2] |==|  0.23054
USER: genes 8 Torsion [N]-CA--C-[N] |==|  0.31317
USER: genes 9 Torsion [C]-N--CA-[C] |==|  0.86663
USER: genes 10 Torsion [N]-CA--CB-[CG] |==|  0.96096
USER: genes 11 Torsion [CA]-CB--CG-[CD] |==|  0.79518
USER: genes 12 Torsion [CB]-CG--CD-[OE2] |==|  0.10840
USER: genes 13 Torsion [N]-CA--C-[N] |==|  0.89313
USER: genes 14 Torsion [C]-N--CA-[CB] |==|  0.28037
USER: genes 15 Torsion [N]-CA--C-[O] |==|  0.79759
USER: genes 16 Torsion [CB]-CA--N-[C] |==|  0.42388
USER: genes 17 Torsion [N]-C--CA-[N] |==|  0.93008
USER: genes 18 Torsion [C]-CA--N-[C] |==|  0.82078
USER: genes 19 Torsion [N]-C--CA-[N] |==|  0.85034
USER: genes 20 Torsion [C]-CA--N-[C] |==|  0.70000
USER: genes 21 Torsion [N]-C--CA-[N] |==|  0.45683
USER: genes 22 Torsion [C]-CA--CB-[CG] |==|  0.38356
USER: genes 23 Torsion [CA]-CB--CG-[CD1] |==|  0.56886
ROOT
ATOM      1  CA  LEU B   4      38.114  -2.751   5.277  1.00 36.98 LIG 0.18  C 
ENDROOT
BRANCH 1 2
ATOM      2  CB  LEU B   4      37.951  -1.637   4.242  1.00 35.91 LIG 0.04  C 
BRANCH 2 3
ATOM      3  CG  LEU B   4      39.238  -1.183   3.531  1.00 35.93 LIG-0.02  C 
ATOM      4  CD2 LEU B   4      40.481  -1.885   4.065  1.00 33.66 LIG 0.01  C 
ATOM      5  CD1 LEU B   4      39.423   0.372   3.631  1.00 37.78 LIG 0.01  C 
ENDBRANCH 2 3
ENDBRANCH 1 2
BRANCH 1 6
ATOM      6  C   LEU B   4      37.978  -2.121   6.654  1.00 38.06 LIG 0.24  C 
ATOM      7  N   PHE B   5      36.939  -2.530   7.387  1.00 38.73 LIG-0.35  N 
ATOM      8 H    PHE B   5      36.436  -3.192   7.167  1.00 38.73 LIG 0.16  HD
ATOM      9 O    LEU B   4      38.762  -1.231   7.001  1.00 36.58 LIG-0.27  OA
BRANCH 7 10
ATOM     10  CA  PHE B   5      36.556  -1.887   8.640  1.00 41.04 LIG 0.18  C 
BRANCH 10 11
ATOM     11  CB  PHE B   5      35.449  -0.834   8.456  1.00 39.67 LIG 0.07  C 
BRANCH 11 12
ATOM     12  CG  PHE B   5      35.953   0.481   7.997  1.00 38.07 LIG-0.06  A 
ATOM     13  CD2 PHE B   5      36.189   0.713   6.667  1.00 33.96 LIG 0.01  A 
ATOM     14  CE2 PHE B   5      36.694   1.964   6.216  1.00 35.53 LIG 0.00  A 
ATOM     15  CZ  PHE B   5      37.010   2.955   7.125  1.00 34.38 LIG 0.00  A 
ATOM     16  CE1 PHE B   5      36.778   2.704   8.484  1.00 35.56 LIG 0.00  A 
ATOM     17  CD1 PHE B   5      36.252   1.473   8.907  1.00 35.27 LIG 0.01  A 
ENDBRANCH 11 12
ENDBRANCH 10 11
BRANCH 10 18
ATOM     18  C   PHE B   5      36.079  -2.872   9.664  1.00 43.64 LIG 0.24  C 
ATOM     19 O    PHE B   5      35.038  -3.511   9.457  1.00 43.27 LIG-0.27  OA
ATOM     20  N   GLU B   6      36.865  -3.014  10.734  1.00 47.41 LIG-0.35  N 
ATOM     21 H    GLU B   6      37.694  -2.783  10.740  1.00 47.41 LIG 0.16  HD
BRANCH 20 22
ATOM     22  CA  GLU B   6      36.398  -3.581  12.019  1.00 51.55 LIG 0.18  C 
BRANCH 22 23
ATOM     23  CB  GLU B   6      37.441  -3.406  13.138  1.00 52.47 LIG 0.04  C 
BRANCH 23 24
ATOM     24  CG  GLU B   6      38.856  -3.002  12.588  1.00 56.11 LIG 0.12  C 
BRANCH 24 25
ATOM     25  CD  GLU B   6      39.633  -4.145  11.887  1.00 59.86 LIG 0.17  C 
ATOM     26 OE2  GLU B   6      39.007  -4.942  11.165  1.00 64.67 LIG-0.65  OA
ATOM     27 OE1  GLU B   6      40.871  -4.246  12.007  1.00 64.70 LIG-0.65  OA
ENDBRANCH 24 25
ENDBRANCH 23 24
ENDBRANCH 22 23
BRANCH 22 28
ATOM     28  C   GLU B   6      35.060  -2.888  12.401  1.00 53.54 LIG 0.24  C 
ATOM     29 O    GLU B   6      34.137  -3.510  12.960  1.00 53.95 LIG-0.27  OA
ATOM     30  N   ALA B   7      34.965  -1.585  12.138  1.00 56.31 LIG-0.35  N 
ATOM     31 H    ALA B   7      35.576  -1.127  11.742  1.00 56.31 LIG 0.16  HD
BRANCH 30 32
ATOM     32  CA  ALA B   7      33.759  -0.803  12.522  1.00 57.55 LIG 0.16  C 
ATOM     33  CB  ALA B   7      34.001   0.009  13.805  1.00 58.11 LIG 0.04  C 
BRANCH 32 34
ATOM     34  C   ALA B   7      33.335   0.121  11.393  1.00 58.67 LIG 0.22  C 
ATOM     35 O    ALA B   7      33.996   1.123  11.138  1.00 60.59 LIG-0.29  OA
ENDBRANCH 32 34
ENDBRANCH 30 32
ENDBRANCH 22 28
ENDBRANCH 20 22
ENDBRANCH 10 18
ENDBRANCH 7 10
ENDBRANCH 1 6
BRANCH 1 36
ATOM     36  N   LEU B   4      37.202  -3.860   5.025  1.00 37.09 LIG-0.35  N 
ATOM     37 H    LEU B   4      36.479  -3.634   4.617  1.00 37.09 LIG 0.16  HD
ATOM     38  C   TRP B   3      37.478  -5.116   5.400  1.00 37.19 LIG 0.24  C 
ATOM     39 O    TRP B   3      38.484  -5.417   5.960  1.00 36.60 LIG-0.27  OA
BRANCH 38 40
ATOM     40  CA  TRP B   3      36.476  -6.203   5.032  1.00 38.87 LIG 0.18  C 
BRANCH 40 41
ATOM     41  N   TRP B   3      35.151  -5.598   4.868  1.00 40.30 LIG-0.35  N 
ATOM     42  C   ALA B   2      34.529  -5.029   5.915  1.00 43.05 LIG 0.24  C 
ATOM     43 O    ALA B   2      34.933  -5.137   7.075  1.00 42.86 LIG-0.27  OA
ATOM     44 H    TRP B   3      34.828  -5.641   4.072  1.00 40.30 LIG 0.16  HD
BRANCH 42 45
ATOM     45  CA  ALA B   2      33.234  -4.285   5.639  1.00 44.71 LIG 0.17  C 
ATOM     46  CB  ALA B   2      32.123  -5.261   5.169  1.00 44.36 LIG 0.04  C 
BRANCH 45 47
ATOM     47  N   ALA B   2      33.479  -3.293   4.592  1.00 46.59 LIG-0.35  N 
ATOM     48 H    ALA B   2      33.591  -3.628   3.808  1.00 46.59 LIG 0.16  HD
ATOM     49  C   PRO B   1      33.521  -2.002   4.852  1.00 48.49 LIG 0.25  C 
ATOM     50 O    PRO B   1      33.516  -1.576   5.996  1.00 48.43 LIG-0.27  OA
BRANCH 49 51
ATOM     51  CA  PRO B   1      33.579  -1.045   3.591  1.00 50.22 LIG 0.28  C 
ATOM     52  N   PRO B   1      33.262   0.383   3.882  1.00 50.48 LIG-0.06  N 
ATOM     53 H3   PRO B   1      32.677   0.663   3.315  1.00 50.48 LIG 0.28  HD
ATOM     54 H2   PRO B   1      32.902   0.439   4.662  1.00 50.48 LIG 0.28  HD
ATOM     55  CD  PRO B   1      34.443   1.265   3.831  1.00 50.94 LIG 0.23  C 
ATOM     56  CG  PRO B   1      35.587   0.351   3.398  1.00 51.81 LIG 0.03  C 
ATOM     57  CB  PRO B   1      34.985  -0.989   2.961  1.00 50.52 LIG 0.04  C 
ENDBRANCH 49 51
ENDBRANCH 45 47
ENDBRANCH 42 45
ENDBRANCH 40 41
BRANCH 40 58
ATOM     58  CB  TRP B   3      36.965  -6.946   3.767  1.00 38.41 LIG 0.07  C 
BRANCH 58 59
ATOM     59  CG  TRP B   3      36.751  -8.383   3.919  1.00 37.10 LIG-0.03  A 
ATOM     60  CD1 TRP B   3      37.427  -9.362   3.295  1.00 36.42 LIG 0.10  A 
ATOM     61  NE1 TRP B   3      36.930 -10.577   3.655  1.00 36.34 LIG-0.36  N 
ATOM     62 HE1  TRP B   3      37.216 -11.339   3.374  1.00 36.34 LIG 0.17  HD
ATOM     63  CE2 TRP B   3      35.899 -10.389   4.536  1.00 35.80 LIG 0.04  A 
ATOM     64  CD2 TRP B   3      35.745  -9.021   4.706  1.00 33.30 LIG-0.00  A 
ATOM     65  CZ2 TRP B   3      35.064 -11.324   5.156  1.00 36.94 LIG 0.03  A 
ATOM     66  CE3 TRP B   3      34.759  -8.560   5.564  1.00 37.18 LIG 0.01  A 
ATOM     67  CZ3 TRP B   3      33.943  -9.488   6.209  1.00 37.29 LIG 0.00  A 
ATOM     68  CH2 TRP B   3      34.107 -10.860   5.991  1.00 32.87 LIG 0.00  A 
ENDBRANCH 58 59
ENDBRANCH 40 58
ENDBRANCH 38 40
ENDBRANCH 1 36
TORSDOF 22
ENDMDL
MODEL 18
USER: ADFR SOLUTION from run 137
USER: SCORE 21.472481 LL:  -7.002 LR: -17.122 RR:   0.000 FEB: -10.560
USER: RMSD 4.942658
USER: SEED 136
USER: STATUS searching
USER: GENES 24
USER: genes 0 Translation |==|  0.60211 0.67149 0.40476
USER: genes 1 Rotation |==|  0.60615 0.30829 0.59742 0.93873
USER: genes 2 Torsion [C]-CA--CB-[CG] |==|  0.74811
USER: genes 3 Torsion [CA]-CB--CG-[CD1] |==|  0.32351
USER: genes 4 Torsion [N]-CA--C-[N] |==|  0.89837
USER: genes 5 Torsion [C]-N--CA-[CB] |==|  0.75524
USER: genes 6 Torsion [N]-CA--CB-[CG] |==|  0.04621
USER: genes 7 Torsion [CA]-CB--CG-[CD2] |==|  0.79115
USER: genes 8 Torsion [N]-CA--C-[N] |==|  0.60091
USER: genes 9 Torsion [C]-N--CA-[C] |==|  0.74972
USER: genes 10 Torsion [N]-CA--CB-[CG] |==|  0.56118
USER: genes 11 Torsion [CA]-CB--CG-[CD] |==|  0.20723
USER: genes 12 Torsion [CB]-CG--CD-[OE2] |==|  0.69226
USER: genes 13 Torsion [N]-CA--C-[N] |==|  0.55486
USER: genes 14 Torsion [C]-N--CA-[CB] |==|  0.47963
USER: genes 15 Torsion [N]-CA--C-[O] |==|  0.64010
USER: genes 16 Torsion [CB]-CA--N-[C] |==|  0.22222
USER: genes 17 Torsion [N]-C--CA-[N] |==|  0.96342
USER: genes 18 Torsion [C]-CA--N-[C] |==|  0.72460
USER: genes 19 Torsion [N]-C--CA-[N] |==|  0.04598
USER: genes 20 Torsion [C]-CA--N-[C] |==|  0.77642
USER: genes 21 Torsion [N]-C--CA-[N] |==|  0.11654
USER: genes 22 Torsion [C]-CA--CB-[CG] |==|  0.39045
USER: genes 23 Torsion [CA]-CB--CG-[CD1] |==|  0.62877
ROOT
ATOM      1  CA  LEU B   4      36.976   0.342   7.516  1.00 36.98 LIG 0.18  C 
ENDROOT
BRANCH 1 2
ATOM      2  CB  LEU B   4      36.949   1.698   6.811  1.00 35.91 LIG 0.04  C 
BRANCH 2 3
ATOM      3  CG  LEU B   4      36.434   1.695   5.361  1.00 35.93 LIG-0.02  C 
ATOM      4  CD2 LEU B   4      37.476   2.201   4.370  1.00 33.66 LIG 0.01  C 
ATOM      5  CD1 LEU B   4      35.118   2.538   5.224  1.00 37.78 LIG 0.01  C 
ENDBRANCH 2 3
ENDBRANCH 1 2
BRANCH 1 6
ATOM      6  C   LEU B   4      35.640   0.164   8.221  1.00 38.06 LIG 0.24  C 
ATOM      7  N   PHE B   5      34.664  -0.392   7.499  1.00 38.73 LIG-0.35  N 
ATOM      8 H    PHE B   5      34.790  -0.746   6.725  1.00 38.73 LIG 0.16  HD
ATOM      9 O    LEU B   4      35.492   0.595   9.369  1.00 36.58 LIG-0.27  OA
BRANCH 7 10
ATOM     10  CA  PHE B   5      33.280  -0.453   7.958  1.00 41.04 LIG 0.18  C 
BRANCH 10 11
ATOM     11  CB  PHE B   5      32.985  -1.707   8.800  1.00 39.67 LIG 0.07  C 
BRANCH 11 12
ATOM     12  CG  PHE B   5      34.202  -2.384   9.302  1.00 38.07 LIG-0.06  A 
ATOM     13  CD2 PHE B   5      34.981  -3.136   8.462  1.00 33.96 LIG 0.01  A 
ATOM     14  CE2 PHE B   5      36.140  -3.809   8.937  1.00 35.53 LIG 0.00  A 
ATOM     15  CZ  PHE B   5      36.472  -3.761  10.277  1.00 34.38 LIG 0.00  A 
ATOM     16  CE1 PHE B   5      35.662  -3.000  11.132  1.00 35.56 LIG 0.00  A 
ATOM     17  CD1 PHE B   5      34.538  -2.319  10.638  1.00 35.27 LIG 0.01  A 
ENDBRANCH 11 12
ENDBRANCH 10 11
BRANCH 10 18
ATOM     18  C   PHE B   5      32.898   0.743   8.777  1.00 43.64 LIG 0.24  C 
ATOM     19 O    PHE B   5      33.323   1.862   8.458  1.00 43.27 LIG-0.27  OA
ATOM     20  N   GLU B   6      32.069   0.499   9.795  1.00 47.41 LIG-0.35  N 
ATOM     21 H    GLU B   6      31.577  -0.205   9.841  1.00 47.41 LIG 0.16  HD
BRANCH 20 22
ATOM     22  CA  GLU B   6      31.907   1.411  10.950  1.00 51.55 LIG 0.18  C 
BRANCH 22 23
ATOM     23  CB  GLU B   6      30.474   1.381  11.511  1.00 52.47 LIG 0.04  C 
BRANCH 23 24
ATOM     24  CG  GLU B   6      30.116   2.674  12.327  1.00 56.11 LIG 0.12  C 
BRANCH 24 25
ATOM     25  CD  GLU B   6      29.854   3.937  11.468  1.00 59.86 LIG 0.17  C 
ATOM     26 OE2  GLU B   6      30.675   4.871  11.508  1.00 64.67 LIG-0.65  OA
ATOM     27 OE1  GLU B   6      28.863   4.006  10.715  1.00 64.70 LIG-0.65  OA
ENDBRANCH 24 25
ENDBRANCH 23 24
ENDBRANCH 22 23
BRANCH 22 28
ATOM     28  C   GLU B   6      32.934   0.999  12.043  1.00 53.54 LIG 0.24  C 
ATOM     29 O    GLU B   6      33.958   0.347  11.765  1.00 53.95 LIG-0.27  OA
ATOM     30  N   ALA B   7      32.685   1.414  13.284  1.00 56.31 LIG-0.35  N 
ATOM     31 H    ALA B   7      31.983   1.854  13.514  1.00 56.31 LIG 0.16  HD
BRANCH 30 32
ATOM     32  CA  ALA B   7      33.634   1.138  14.397  1.00 57.55 LIG 0.16  C 
ATOM     33  CB  ALA B   7      33.217   1.868  15.684  1.00 58.11 LIG 0.04  C 
BRANCH 32 34
ATOM     34  C   ALA B   7      33.738  -0.356  14.657  1.00 58.67 LIG 0.22  C 
ATOM     35 O    ALA B   7      33.607  -0.792  15.797  1.00 60.59 LIG-0.29  OA
ENDBRANCH 32 34
ENDBRANCH 30 32
ENDBRANCH 22 28
ENDBRANCH 20 22
ENDBRANCH 10 18
ENDBRANCH 7 10
ENDBRANCH 1 6
BRANCH 1 36
ATOM     36  N   LEU B   4      37.326  -0.737   6.599  1.00 37.09 LIG-0.35  N 
ATOM     37 H    LEU B   4      36.651  -1.188   6.314  1.00 37.09 LIG 0.16  HD
ATOM     38  C   TRP B   3      38.590  -0.992   6.240  1.00 37.19 LIG 0.24  C 
ATOM     39 O    TRP B   3      39.516  -0.358   6.637  1.00 36.60 LIG-0.27  OA
BRANCH 38 40
ATOM     40  CA  TRP B   3      38.830  -2.108   5.231  1.00 38.87 LIG 0.18  C 
BRANCH 40 41
ATOM     41  N   TRP B   3      37.602  -2.896   5.087  1.00 40.30 LIG-0.35  N 
ATOM     42  C   ALA B   2      37.462  -4.061   5.743  1.00 43.05 LIG 0.24  C 
ATOM     43 O    ALA B   2      38.391  -4.611   6.339  1.00 42.86 LIG-0.27  OA
ATOM     44 H    TRP B   3      37.009  -2.554   4.566  1.00 40.30 LIG 0.16  HD
BRANCH 42 45
ATOM     45  CA  ALA B   2      36.108  -4.744   5.674  1.00 44.71 LIG 0.17  C 
ATOM     46  CB  ALA B   2      36.268  -6.270   5.438  1.00 44.36 LIG 0.04  C 
BRANCH 45 47
ATOM     47  N   ALA B   2      35.347  -4.163   4.568  1.00 46.59 LIG-0.35  N 
ATOM     48 H    ALA B   2      35.357  -4.632   3.847  1.00 46.59 LIG 0.16  HD
ATOM     49  C   PRO B   1      34.710  -3.017   4.687  1.00 48.49 LIG 0.25  C 
ATOM     50 O    PRO B   1      34.847  -2.304   5.669  1.00 48.43 LIG-0.27  OA
BRANCH 49 51
ATOM     51  CA  PRO B   1      33.759  -2.625   3.483  1.00 50.22 LIG 0.28  C 
ATOM     52  N   PRO B   1      32.945  -3.752   2.942  1.00 50.48 LIG-0.06  N 
ATOM     53 H3   PRO B   1      33.025  -3.772   2.086  1.00 50.48 LIG 0.28  HD
ATOM     54 H2   PRO B   1      33.260  -4.495   3.242  1.00 50.48 LIG 0.28  HD
ATOM     55  CD  PRO B   1      31.515  -3.658   3.291  1.00 50.94 LIG 0.23  C 
ATOM     56  CG  PRO B   1      31.387  -2.334   4.040  1.00 51.81 LIG 0.03  C 
ATOM     57  CB  PRO B   1      32.707  -1.571   3.884  1.00 50.52 LIG 0.04  C 
ENDBRANCH 49 51
ENDBRANCH 45 47
ENDBRANCH 42 45
ENDBRANCH 40 41
BRANCH 40 58
ATOM     58  CB  TRP B   3      39.319  -1.498   3.897  1.00 38.41 LIG 0.07  C 
BRANCH 58 59
ATOM     59  CG  TRP B   3      40.361  -2.341   3.316  1.00 37.10 LIG-0.03  A 
ATOM     60  CD1 TRP B   3      41.533  -1.926   2.806  1.00 36.42 LIG 0.10  A 
ATOM     61  NE1 TRP B   3      42.236  -2.986   2.322  1.00 36.34 LIG-0.36  N 
ATOM     62 HE1  TRP B   3      43.012  -2.947   1.954  1.00 36.34 LIG 0.17  HD
ATOM     63  CE2 TRP B   3      41.503  -4.127   2.518  1.00 35.80 LIG 0.04  A 
ATOM     64  CD2 TRP B   3      40.311  -3.754   3.119  1.00 33.30 LIG-0.00  A 
ATOM     65  CZ2 TRP B   3      41.788  -5.450   2.165  1.00 36.94 LIG 0.03  A 
ATOM     66  CE3 TRP B   3      39.382  -4.735   3.430  1.00 37.18 LIG 0.01  A 
ATOM     67  CZ3 TRP B   3      39.673  -6.060   3.110  1.00 37.29 LIG 0.00  A 
ATOM     68  CH2 TRP B   3      40.874  -6.397   2.476  1.00 32.87 LIG 0.00  A 
ENDBRANCH 58 59
ENDBRANCH 40 58
ENDBRANCH 38 40
ENDBRANCH 1 36
TORSDOF 22
ENDMDL
MODEL 19
USER: ADFR SOLUTION from run 123
USER: SCORE 21.203744 LL:  -5.923 LR: -17.114 RR:   0.000 FEB: -10.552
USER: RMSD 8.541746
USER: SEED 122
USER: STATUS no improvement in best in 4 clusters for 5 generations
USER: GENES 24
USER: genes 0 Translation |==|  0.68715 0.55109 0.21234
USER: genes 1 Rotation |==|  0.84561 0.59590 0.29292 0.78014
USER: genes 2 Torsion [C]-CA--CB-[CG] |==|  0.21315
USER: genes 3 Torsion [CA]-CB--CG-[CD1] |==|  0.07313
USER: genes 4 Torsion [N]-CA--C-[N] |==|  0.12108
USER: genes 5 Torsion [C]-N--CA-[CB] |==|  0.75754
USER: genes 6 Torsion [N]-CA--CB-[CG] |==|  0.08991
USER: genes 7 Torsion [CA]-CB--CG-[CD2] |==|  0.79255
USER: genes 8 Torsion [N]-CA--C-[N] |==|  0.25742
USER: genes 9 Torsion [C]-N--CA-[C] |==|  0.73592
USER: genes 10 Torsion [N]-CA--CB-[CG] |==|  0.86784
USER: genes 11 Torsion [CA]-CB--CG-[CD] |==|  0.86210
USER: genes 12 Torsion [CB]-CG--CD-[OE2] |==|  0.91267
USER: genes 13 Torsion [N]-CA--C-[N] |==|  0.01465
USER: genes 14 Torsion [C]-N--CA-[CB] |==|  0.23350
USER: genes 15 Torsion [N]-CA--C-[O] |==|  0.58320
USER: genes 16 Torsion [CB]-CA--N-[C] |==|  0.77167
USER: genes 17 Torsion [N]-C--CA-[N] |==|  0.66025
USER: genes 18 Torsion [C]-CA--N-[C] |==|  0.18246
USER: genes 19 Torsion [N]-C--CA-[N] |==|  0.02940
USER: genes 20 Torsion [C]-CA--N-[C] |==|  0.19404
USER: genes 21 Torsion [N]-C--CA-[N] |==|  0.12749
USER: genes 22 Torsion [C]-CA--CB-[CG] |==|  0.42046
USER: genes 23 Torsion [CA]-CB--CG-[CD1] |==|  0.76280
ROOT
ATOM      1  CA  LEU B   4      38.825  -2.006   3.187  1.00 36.98 LIG 0.18  C 
ENDROOT
BRANCH 1 2
ATOM      2  CB  LEU B   4      39.769  -1.188   4.069  1.00 35.91 LIG 0.04  C 
BRANCH 2 3
ATOM      3  CG  LEU B   4      41.264  -1.537   3.963  1.00 35.93 LIG-0.02  C 
ATOM      4  CD2 LEU B   4      42.164  -0.336   4.228  1.00 33.66 LIG 0.01  C 
ATOM      5  CD1 LEU B   4      41.604  -2.155   2.561  1.00 37.78 LIG 0.01  C 
ENDBRANCH 2 3
ENDBRANCH 1 2
BRANCH 1 6
ATOM      6  C   LEU B   4      38.654  -3.369   3.837  1.00 38.06 LIG 0.24  C 
ATOM      7  N   PHE B   5      37.682  -4.139   3.343  1.00 38.73 LIG-0.35  N 
ATOM      8 H    PHE B   5      37.246  -3.949   2.625  1.00 38.73 LIG 0.16  HD
ATOM      9 O    LEU B   4      39.348  -3.672   4.814  1.00 36.58 LIG-0.27  OA
BRANCH 7 10
ATOM     10  CA  PHE B   5      37.261  -5.384   3.977  1.00 41.04 LIG 0.18  C 
BRANCH 10 11
ATOM     11  CB  PHE B   5      38.089  -6.598   3.519  1.00 39.67 LIG 0.07  C 
BRANCH 11 12
ATOM     12  CG  PHE B   5      39.497  -6.267   3.198  1.00 38.07 LIG-0.06  A 
ATOM     13  CD2 PHE B   5      39.814  -5.606   2.041  1.00 33.96 LIG 0.01  A 
ATOM     14  CE2 PHE B   5      41.164  -5.303   1.711  1.00 35.53 LIG 0.00  A 
ATOM     15  CZ  PHE B   5      42.191  -5.723   2.533  1.00 34.38 LIG 0.00  A 
ATOM     16  CE1 PHE B   5      41.859  -6.410   3.708  1.00 35.56 LIG 0.00  A 
ATOM     17  CD1 PHE B   5      40.519  -6.675   4.030  1.00 35.27 LIG 0.01  A 
ENDBRANCH 11 12
ENDBRANCH 10 11
BRANCH 10 18
ATOM     18  C   PHE B   5      37.344  -5.318   5.472  1.00 43.64 LIG 0.24  C 
ATOM     19 O    PHE B   5      38.418  -5.570   6.036  1.00 43.27 LIG-0.27  OA
ATOM     20  N   GLU B   6      36.224  -4.940   6.093  1.00 47.41 LIG-0.35  N 
ATOM     21 H    GLU B   6      35.589  -4.515   5.697  1.00 47.41 LIG 0.16  HD
BRANCH 20 22
ATOM     22  CA  GLU B   6      35.953  -5.211   7.524  1.00 51.55 LIG 0.18  C 
BRANCH 22 23
ATOM     23  CB  GLU B   6      35.217  -4.041   8.201  1.00 52.47 LIG 0.04  C 
BRANCH 23 24
ATOM     24  CG  GLU B   6      35.873  -2.649   7.884  1.00 56.11 LIG 0.12  C 
BRANCH 24 25
ATOM     25  CD  GLU B   6      37.406  -2.586   8.101  1.00 59.86 LIG 0.17  C 
ATOM     26 OE2  GLU B   6      37.916  -3.291   8.991  1.00 64.67 LIG-0.65  OA
ATOM     27 OE1  GLU B   6      38.128  -1.876   7.373  1.00 64.70 LIG-0.65  OA
ENDBRANCH 24 25
ENDBRANCH 23 24
ENDBRANCH 22 23
BRANCH 22 28
ATOM     28  C   GLU B   6      35.117  -6.518   7.622  1.00 53.54 LIG 0.24  C 
ATOM     29 O    GLU B   6      34.636  -6.907   8.704  1.00 53.95 LIG-0.27  OA
ATOM     30  N   ALA B   7      34.906  -7.180   6.486  1.00 56.31 LIG-0.35  N 
ATOM     31 H    ALA B   7      35.232  -6.949   5.725  1.00 56.31 LIG 0.16  HD
BRANCH 30 32
ATOM     32  CA  ALA B   7      34.062  -8.405   6.449  1.00 57.55 LIG 0.16  C 
ATOM     33  CB  ALA B   7      32.570  -8.056   6.329  1.00 58.11 LIG 0.04  C 
BRANCH 32 34
ATOM     34  C   ALA B   7      34.479  -9.310   5.301  1.00 58.67 LIG 0.22  C 
ATOM     35 O    ALA B   7      33.650 -10.033   4.756  1.00 60.59 LIG-0.29  OA
ENDBRANCH 32 34
ENDBRANCH 30 32
ENDBRANCH 22 28
ENDBRANCH 20 22
ENDBRANCH 10 18
ENDBRANCH 7 10
ENDBRANCH 1 6
BRANCH 1 36
ATOM     36  N   LEU B   4      37.577  -1.297   2.929  1.00 37.09 LIG-0.35  N 
ATOM     37 H    LEU B   4      37.557  -0.886   2.173  1.00 37.09 LIG 0.16  HD
ATOM     38  C   TRP B   3      36.560  -1.294   3.800  1.00 37.19 LIG 0.24  C 
ATOM     39 O    TRP B   3      36.598  -1.870   4.840  1.00 36.60 LIG-0.27  OA
BRANCH 38 40
ATOM     40  CA  TRP B   3      35.284  -0.566   3.397  1.00 38.87 LIG 0.18  C 
BRANCH 40 41
ATOM     41  N   TRP B   3      34.985   0.466   4.395  1.00 40.30 LIG-0.35  N 
ATOM     42  C   ALA B   2      35.807   1.517   4.553  1.00 43.05 LIG 0.24  C 
ATOM     43 O    ALA B   2      36.917   1.586   4.020  1.00 42.86 LIG-0.27  OA
ATOM     44 H    TRP B   3      34.264   0.336   4.847  1.00 40.30 LIG 0.16  HD
BRANCH 42 45
ATOM     45  CA  ALA B   2      35.355   2.624   5.489  1.00 44.71 LIG 0.17  C 
ATOM     46  CB  ALA B   2      36.478   2.992   6.495  1.00 44.36 LIG 0.04  C 
BRANCH 45 47
ATOM     47  N   ALA B   2      34.181   2.161   6.228  1.00 46.59 LIG-0.35  N 
ATOM     48 H    ALA B   2      33.448   2.554   6.008  1.00 46.59 LIG 0.16  HD
ATOM     49  C   PRO B   1      34.262   1.221   7.147  1.00 48.49 LIG 0.25  C 
ATOM     50 O    PRO B   1      35.337   0.799   7.542  1.00 48.43 LIG-0.27  OA
BRANCH 49 51
ATOM     51  CA  PRO B   1      32.882   0.676   7.704  1.00 50.22 LIG 0.28  C 
ATOM     52  N   PRO B   1      31.866   0.373   6.654  1.00 50.48 LIG-0.06  N 
ATOM     53 H3   PRO B   1      31.120   0.743   6.869  1.00 50.48 LIG 0.28  HD
ATOM     54 H2   PRO B   1      32.116   0.725   5.910  1.00 50.48 LIG 0.28  HD
ATOM     55  CD  PRO B   1      31.648  -1.072   6.455  1.00 50.94 LIG 0.23  C 
ATOM     56  CG  PRO B   1      32.528  -1.744   7.507  1.00 51.81 LIG 0.03  C 
ATOM     57  CB  PRO B   1      33.040  -0.658   8.460  1.00 50.52 LIG 0.04  C 
ENDBRANCH 49 51
ENDBRANCH 45 47
ENDBRANCH 42 45
ENDBRANCH 40 41
BRANCH 40 58
ATOM     58  CB  TRP B   3      35.444   0.001   1.968  1.00 38.41 LIG 0.07  C 
BRANCH 58 59
ATOM     59  CG  TRP B   3      34.140   0.078   1.313  1.00 37.10 LIG-0.03  A 
ATOM     60  CD1 TRP B   3      33.521  -0.910   0.645  1.00 36.42 LIG 0.10  A 
ATOM     61  NE1 TRP B   3      32.338  -0.464   0.139  1.00 36.34 LIG-0.36  N 
ATOM     62 HE1  TRP B   3      31.782  -0.931  -0.322  1.00 36.34 LIG 0.17  HD
ATOM     63  CE2 TRP B   3      32.180   0.852   0.484  1.00 35.80 LIG 0.04  A 
ATOM     64  CD2 TRP B   3      33.304   1.230   1.202  1.00 33.30 LIG-0.00  A 
ATOM     65  CZ2 TRP B   3      31.149   1.745   0.173  1.00 36.94 LIG 0.03  A 
ATOM     66  CE3 TRP B   3      33.390   2.530   1.676  1.00 37.18 LIG 0.01  A 
ATOM     67  CZ3 TRP B   3      32.351   3.416   1.397  1.00 37.29 LIG 0.00  A 
ATOM     68  CH2 TRP B   3      31.245   3.009   0.643  1.00 32.87 LIG 0.00  A 
ENDBRANCH 58 59
ENDBRANCH 40 58
ENDBRANCH 38 40
ENDBRANCH 1 36
TORSDOF 22
ENDMDL
MODEL 20
USER: ADFR SOLUTION from run 123
USER: SCORE 22.172349 LL:  -6.485 LR: -17.044 RR:   0.000 FEB: -10.481
USER: RMSD 8.226281
USER: SEED 122
USER: STATUS no improvement in best in 4 clusters for 5 generations
USER: GENES 24
USER: genes 0 Translation |==|  0.69155 0.53952 0.20981
USER: genes 1 Rotation |==|  0.84370 0.59080 0.28829 0.78072
USER: genes 2 Torsion [C]-CA--CB-[CG] |==|  0.24684
USER: genes 3 Torsion [CA]-CB--CG-[CD1] |==|  0.08658
USER: genes 4 Torsion [N]-CA--C-[N] |==|  0.12222
USER: genes 5 Torsion [C]-N--CA-[CB] |==|  0.76084
USER: genes 6 Torsion [N]-CA--CB-[CG] |==|  0.09147
USER: genes 7 Torsion [CA]-CB--CG-[CD2] |==|  0.79362
USER: genes 8 Torsion [N]-CA--C-[N] |==|  0.25739
USER: genes 9 Torsion [C]-N--CA-[C] |==|  0.73417
USER: genes 10 Torsion [N]-CA--CB-[CG] |==|  0.86784
USER: genes 11 Torsion [CA]-CB--CG-[CD] |==|  0.86262
USER: genes 12 Torsion [CB]-CG--CD-[OE2] |==|  0.91227
USER: genes 13 Torsion [N]-CA--C-[N] |==|  0.96118
USER: genes 14 Torsion [C]-N--CA-[CB] |==|  0.32302
USER: genes 15 Torsion [N]-CA--C-[O] |==|  0.63875
USER: genes 16 Torsion [CB]-CA--N-[C] |==|  0.77443
USER: genes 17 Torsion [N]-C--CA-[N] |==|  0.48934
USER: genes 18 Torsion [C]-CA--N-[C] |==|  0.57871
USER: genes 19 Torsion [N]-C--CA-[N] |==|  0.18975
USER: genes 20 Torsion [C]-CA--N-[C] |==|  0.76297
USER: genes 21 Torsion [N]-C--CA-[N] |==|  0.09096
USER: genes 22 Torsion [C]-CA--CB-[CG] |==|  0.87563
USER: genes 23 Torsion [CA]-CB--CG-[CD1] |==|  0.24301
ROOT
ATOM      1  CA  LEU B   4      38.921  -2.231   3.130  1.00 36.98 LIG 0.18  C 
ENDROOT
BRANCH 1 2
ATOM      2  CB  LEU B   4      39.886  -1.419   3.993  1.00 35.91 LIG 0.04  C 
BRANCH 2 3
ATOM      3  CG  LEU B   4      41.383  -1.595   3.682  1.00 35.93 LIG-0.02  C 
ATOM      4  CD2 LEU B   4      42.212  -0.386   4.097  1.00 33.66 LIG 0.01  C 
ATOM      5  CD1 LEU B   4      41.614  -1.899   2.160  1.00 37.78 LIG 0.01  C 
ENDBRANCH 2 3
ENDBRANCH 1 2
BRANCH 1 6
ATOM      6  C   LEU B   4      38.723  -3.579   3.805  1.00 38.06 LIG 0.24  C 
ATOM      7  N   PHE B   5      37.737  -4.339   3.323  1.00 38.73 LIG-0.35  N 
ATOM      8 H    PHE B   5      37.307  -4.155   2.601  1.00 38.73 LIG 0.16  HD
ATOM      9 O    LEU B   4      39.408  -3.877   4.789  1.00 36.58 LIG-0.27  OA
BRANCH 7 10
ATOM     10  CA  PHE B   5      37.292  -5.564   3.980  1.00 41.04 LIG 0.18  C 
BRANCH 10 11
ATOM     11  CB  PHE B   5      38.116  -6.796   3.568  1.00 39.67 LIG 0.07  C 
BRANCH 11 12
ATOM     12  CG  PHE B   5      39.536  -6.490   3.280  1.00 38.07 LIG-0.06  A 
ATOM     13  CD2 PHE B   5      39.893  -5.849   2.123  1.00 33.96 LIG 0.01  A 
ATOM     14  CE2 PHE B   5      41.255  -5.568   1.824  1.00 35.53 LIG 0.00  A 
ATOM     15  CZ  PHE B   5      42.255  -5.991   2.679  1.00 34.38 LIG 0.00  A 
ATOM     16  CE1 PHE B   5      41.882  -6.659   3.854  1.00 35.56 LIG 0.00  A 
ATOM     17  CD1 PHE B   5      40.530  -6.900   4.144  1.00 35.27 LIG 0.01  A 
ENDBRANCH 11 12
ENDBRANCH 10 11
BRANCH 10 18
ATOM     18  C   PHE B   5      37.346  -5.462   5.474  1.00 43.64 LIG 0.24  C 
ATOM     19 O    PHE B   5      38.406  -5.710   6.065  1.00 43.27 LIG-0.27  OA
ATOM     20  N   GLU B   6      36.218  -5.058   6.062  1.00 47.41 LIG-0.35  N 
ATOM     21 H    GLU B   6      35.595  -4.636   5.644  1.00 47.41 LIG 0.16  HD
BRANCH 20 22
ATOM     22  CA  GLU B   6      35.916  -5.290   7.494  1.00 51.55 LIG 0.18  C 
BRANCH 22 23
ATOM     23  CB  GLU B   6      35.193  -4.090   8.131  1.00 52.47 LIG 0.04  C 
BRANCH 23 24
ATOM     24  CG  GLU B   6      35.882  -2.719   7.794  1.00 56.11 LIG 0.12  C 
BRANCH 24 25
ATOM     25  CD  GLU B   6      37.413  -2.684   8.033  1.00 59.86 LIG 0.17  C 
ATOM     26 OE2  GLU B   6      37.894  -3.377   8.948  1.00 64.67 LIG-0.65  OA
ATOM     27 OE1  GLU B   6      38.161  -2.007   7.301  1.00 64.70 LIG-0.65  OA
ENDBRANCH 24 25
ENDBRANCH 23 24
ENDBRANCH 22 23
BRANCH 22 28
ATOM     28  C   GLU B   6      35.051  -6.577   7.606  1.00 53.54 LIG 0.24  C 
ATOM     29 O    GLU B   6      34.838  -7.128   8.704  1.00 53.95 LIG-0.27  OA
ATOM     30  N   ALA B   7      34.516  -7.039   6.477  1.00 56.31 LIG-0.35  N 
ATOM     31 H    ALA B   7      34.652  -6.693   5.702  1.00 56.31 LIG 0.16  HD
BRANCH 30 32
ATOM     32  CA  ALA B   7      33.615  -8.223   6.476  1.00 57.55 LIG 0.16  C 
ATOM     33  CB  ALA B   7      32.197  -7.849   6.012  1.00 58.11 LIG 0.04  C 
BRANCH 32 34
ATOM     34  C   ALA B   7      34.177  -9.325   5.594  1.00 58.67 LIG 0.22  C 
ATOM     35 O    ALA B   7      33.466  -9.860   4.748  1.00 60.59 LIG-0.29  OA
ENDBRANCH 32 34
ENDBRANCH 30 32
ENDBRANCH 22 28
ENDBRANCH 20 22
ENDBRANCH 10 18
ENDBRANCH 7 10
ENDBRANCH 1 6
BRANCH 1 36
ATOM     36  N   LEU B   4      37.688  -1.500   2.864  1.00 37.09 LIG-0.35  N 
ATOM     37 H    LEU B   4      37.668  -1.113   2.095  1.00 37.09 LIG 0.16  HD
ATOM     38  C   TRP B   3      36.683  -1.442   3.747  1.00 37.19 LIG 0.24  C 
ATOM     39 O    TRP B   3      36.720  -1.986   4.805  1.00 36.60 LIG-0.27  OA
BRANCH 38 40
ATOM     40  CA  TRP B   3      35.420  -0.696   3.336  1.00 38.87 LIG 0.18  C 
BRANCH 40 41
ATOM     41  N   TRP B   3      34.417  -0.830   4.398  1.00 40.30 LIG-0.35  N 
ATOM     42  C   ALA B   2      33.107  -0.787   4.104  1.00 43.05 LIG 0.24  C 
ATOM     43 O    ALA B   2      32.678  -0.463   2.994  1.00 42.86 LIG-0.27  OA
ATOM     44 H    TRP B   3      34.738  -0.933   5.190  1.00 40.30 LIG 0.16  HD
BRANCH 42 45
ATOM     45  CA  ALA B   2      32.128  -1.089   5.226  1.00 44.71 LIG 0.17  C 
ATOM     46  CB  ALA B   2      30.680  -1.205   4.681  1.00 44.36 LIG 0.04  C 
BRANCH 45 47
ATOM     47  N   ALA B   2      32.190  -0.004   6.204  1.00 46.59 LIG-0.35  N 
ATOM     48 H    ALA B   2      31.599   0.610   6.088  1.00 46.59 LIG 0.16  HD
ATOM     49  C   PRO B   1      33.083   0.012   7.172  1.00 48.49 LIG 0.25  C 
ATOM     50 O    PRO B   1      34.002  -0.791   7.212  1.00 48.43 LIG-0.27  OA
BRANCH 49 51
ATOM     51  CA  PRO B   1      32.889   1.133   8.275  1.00 50.22 LIG 0.28  C 
ATOM     52  N   PRO B   1      31.468   1.490   8.553  1.00 50.48 LIG-0.06  N 
ATOM     53 H3   PRO B   1      31.383   2.346   8.528  1.00 50.48 LIG 0.28  HD
ATOM     54 H2   PRO B   1      30.970   1.169   7.929  1.00 50.48 LIG 0.28  HD
ATOM     55  CD  PRO B   1      30.987   0.995   9.857  1.00 50.94 LIG 0.23  C 
ATOM     56  CG  PRO B   1      32.211   0.343  10.497  1.00 51.81 LIG 0.03  C 
ATOM     57  CB  PRO B   1      33.437   0.702   9.651  1.00 50.52 LIG 0.04  C 
ENDBRANCH 49 51
ENDBRANCH 45 47
ENDBRANCH 42 45
ENDBRANCH 40 41
BRANCH 40 58
ATOM     58  CB  TRP B   3      35.772   0.775   3.016  1.00 38.41 LIG 0.07  C 
BRANCH 58 59
ATOM     59  CG  TRP B   3      36.662   1.310   4.043  1.00 37.10 LIG-0.03  A 
ATOM     60  CD1 TRP B   3      38.004   1.232   4.058  1.00 36.42 LIG 0.10  A 
ATOM     61  NE1 TRP B   3      38.494   1.810   5.188  1.00 36.34 LIG-0.36  N 
ATOM     62 HE1  TRP B   3      39.326   1.872   5.399  1.00 36.34 LIG 0.17  HD
ATOM     63  CE2 TRP B   3      37.446   2.278   5.934  1.00 35.80 LIG 0.04  A 
ATOM     64  CD2 TRP B   3      36.280   1.959   5.255  1.00 33.30 LIG-0.00  A 
ATOM     65  CZ2 TRP B   3      37.442   2.914   7.180  1.00 36.94 LIG 0.03  A 
ATOM     66  CE3 TRP B   3      35.062   2.331   5.804  1.00 37.18 LIG 0.01  A 
ATOM     67  CZ3 TRP B   3      35.053   2.994   7.030  1.00 37.29 LIG 0.00  A 
ATOM     68  CH2 TRP B   3      36.248   3.273   7.703  1.00 32.87 LIG 0.00  A 
ENDBRANCH 58 59
ENDBRANCH 40 58
ENDBRANCH 38 40
ENDBRANCH 1 36
TORSDOF 22
ENDMDL
MODEL 21
USER: ADFR SOLUTION from run 179
USER: SCORE 22.220329 LL:  -7.334 LR: -17.033 RR:   0.000 FEB: -10.471
USER: RMSD 4.774384
USER: SEED 178
USER: STATUS no improvement in best in 4 clusters for 5 generations
USER: GENES 24
USER: genes 0 Translation |==|  0.62906 0.68262 0.34919
USER: genes 1 Rotation |==|  0.58795 0.31140 0.66852 0.92225
USER: genes 2 Torsion [C]-CA--CB-[CG] |==|  0.16402
USER: genes 3 Torsion [CA]-CB--CG-[CD1] |==|  0.76283
USER: genes 4 Torsion [N]-CA--C-[N] |==|  0.37008
USER: genes 5 Torsion [C]-N--CA-[CB] |==|  0.80426
USER: genes 6 Torsion [N]-CA--CB-[CG] |==|  0.60488
USER: genes 7 Torsion [CA]-CB--CG-[CD2] |==|  0.53640
USER: genes 8 Torsion [N]-CA--C-[N] |==|  0.13428
USER: genes 9 Torsion [C]-N--CA-[C] |==|  0.83373
USER: genes 10 Torsion [N]-CA--CB-[CG] |==|  0.52619
USER: genes 11 Torsion [CA]-CB--CG-[CD] |==|  0.21315
USER: genes 12 Torsion [CB]-CG--CD-[OE2] |==|  0.89377
USER: genes 13 Torsion [N]-CA--C-[N] |==|  0.88516
USER: genes 14 Torsion [C]-N--CA-[CB] |==|  0.31756
USER: genes 15 Torsion [N]-CA--C-[O] |==|  0.88146
USER: genes 16 Torsion [CB]-CA--N-[C] |==|  0.50959
USER: genes 17 Torsion [N]-C--CA-[N] |==|  0.73740
USER: genes 18 Torsion [C]-CA--N-[C] |==|  0.70836
USER: genes 19 Torsion [N]-C--CA-[N] |==|  0.91689
USER: genes 20 Torsion [C]-CA--N-[C] |==|  0.84007
USER: genes 21 Torsion [N]-C--CA-[N] |==|  0.13050
USER: genes 22 Torsion [C]-CA--CB-[CG] |==|  0.58623
USER: genes 23 Torsion [CA]-CB--CG-[CD1] |==|  0.34412
ROOT
ATOM      1  CA  LEU B   4      37.562   0.559   6.266  1.00 36.98 LIG 0.18  C 
ENDROOT
BRANCH 1 2
ATOM      2  CB  LEU B   4      37.303   1.748   5.340  1.00 35.91 LIG 0.04  C 
BRANCH 2 3
ATOM      3  CG  LEU B   4      36.708   3.002   6.003  1.00 35.93 LIG-0.02  C 
ATOM      4  CD2 LEU B   4      37.285   3.260   7.390  1.00 33.66 LIG 0.01  C 
ATOM      5  CD1 LEU B   4      35.144   2.912   6.088  1.00 37.78 LIG 0.01  C 
ENDBRANCH 2 3
ENDBRANCH 1 2
BRANCH 1 6
ATOM      6  C   LEU B   4      36.234   0.171   6.897  1.00 38.06 LIG 0.24  C 
ATOM      7  N   PHE B   5      36.040   0.576   8.154  1.00 38.73 LIG-0.35  N 
ATOM      8 H    PHE B   5      36.563   1.125   8.561  1.00 38.73 LIG 0.16  HD
ATOM      9 O    LEU B   4      35.445  -0.544   6.270  1.00 36.58 LIG-0.27  OA
BRANCH 7 10
ATOM     10  CA  PHE B   5      34.913   0.123   8.964  1.00 41.04 LIG 0.18  C 
BRANCH 10 11
ATOM     11  CB  PHE B   5      33.567   0.699   8.489  1.00 39.67 LIG 0.07  C 
BRANCH 11 12
ATOM     12  CG  PHE B   5      32.646   1.043   9.596  1.00 38.07 LIG-0.06  A 
ATOM     13  CD2 PHE B   5      31.325   1.310   9.349  1.00 33.96 LIG 0.01  A 
ATOM     14  CE2 PHE B   5      30.435   1.663  10.401  1.00 35.53 LIG 0.00  A 
ATOM     15  CZ  PHE B   5      30.905   1.798  11.694  1.00 34.38 LIG 0.00  A 
ATOM     16  CE1 PHE B   5      32.261   1.535  11.935  1.00 35.56 LIG 0.00  A 
ATOM     17  CD1 PHE B   5      33.116   1.160  10.887  1.00 35.27 LIG 0.01  A 
ENDBRANCH 11 12
ENDBRANCH 10 11
BRANCH 10 18
ATOM     18  C   PHE B   5      34.786  -1.370   8.980  1.00 43.64 LIG 0.24  C 
ATOM     19 O    PHE B   5      33.692  -1.892   8.728  1.00 43.27 LIG-0.27  OA
ATOM     20  N   GLU B   6      35.914  -2.039   9.232  1.00 47.41 LIG-0.35  N 
ATOM     21 H    GLU B   6      36.696  -1.694   9.134  1.00 47.41 LIG 0.16  HD
BRANCH 20 22
ATOM     22  CA  GLU B   6      35.941  -3.441   9.707  1.00 51.55 LIG 0.18  C 
BRANCH 22 23
ATOM     23  CB  GLU B   6      37.379  -3.968   9.862  1.00 52.47 LIG 0.04  C 
BRANCH 23 24
ATOM     24  CG  GLU B   6      37.431  -5.514  10.134  1.00 56.11 LIG 0.12  C 
BRANCH 24 25
ATOM     25  CD  GLU B   6      37.188  -6.404   8.889  1.00 59.86 LIG 0.17  C 
ATOM     26 OE2  GLU B   6      36.339  -6.047   8.053  1.00 64.67 LIG-0.65  OA
ATOM     27 OE1  GLU B   6      37.858  -7.439   8.700  1.00 64.70 LIG-0.65  OA
ENDBRANCH 24 25
ENDBRANCH 23 24
ENDBRANCH 22 23
BRANCH 22 28
ATOM     28  C   GLU B   6      35.181  -3.512  11.062  1.00 53.54 LIG 0.24  C 
ATOM     29 O    GLU B   6      34.436  -4.470  11.344  1.00 53.95 LIG-0.27  OA
ATOM     30  N   ALA B   7      35.397  -2.518  11.922  1.00 56.31 LIG-0.35  N 
ATOM     31 H    ALA B   7      35.894  -1.836  11.756  1.00 56.31 LIG 0.16  HD
BRANCH 30 32
ATOM     32  CA  ALA B   7      34.778  -2.516  13.275  1.00 57.55 LIG 0.16  C 
ATOM     33  CB  ALA B   7      35.840  -2.637  14.379  1.00 58.11 LIG 0.04  C 
BRANCH 32 34
ATOM     34  C   ALA B   7      33.950  -1.260  13.485  1.00 58.67 LIG 0.22  C 
ATOM     35 O    ALA B   7      34.380  -0.171  13.116  1.00 60.59 LIG-0.29  OA
ENDBRANCH 32 34
ENDBRANCH 30 32
ENDBRANCH 22 28
ENDBRANCH 20 22
ENDBRANCH 10 18
ENDBRANCH 7 10
ENDBRANCH 1 6
BRANCH 1 36
ATOM     36  N   LEU B   4      38.244  -0.528   5.572  1.00 37.09 LIG-0.35  N 
ATOM     37 H    LEU B   4      38.453  -0.347   4.757  1.00 37.09 LIG 0.16  HD
ATOM     38  C   TRP B   3      38.515  -1.698   6.163  1.00 37.19 LIG 0.24  C 
ATOM     39 O    TRP B   3      38.225  -1.935   7.293  1.00 36.60 LIG-0.27  OA
BRANCH 38 40
ATOM     40  CA  TRP B   3      39.282  -2.739   5.357  1.00 38.87 LIG 0.18  C 
BRANCH 40 41
ATOM     41  N   TRP B   3      38.328  -3.649   4.717  1.00 40.30 LIG-0.35  N 
ATOM     42  C   ALA B   2      38.149  -4.892   5.195  1.00 43.05 LIG 0.24  C 
ATOM     43 O    ALA B   2      38.878  -5.392   6.055  1.00 42.86 LIG-0.27  OA
ATOM     44 H    TRP B   3      37.915  -3.323   4.036  1.00 40.30 LIG 0.16  HD
BRANCH 42 45
ATOM     45  CA  ALA B   2      37.035  -5.723   4.583  1.00 44.71 LIG 0.17  C 
ATOM     46  CB  ALA B   2      37.557  -6.543   3.373  1.00 44.36 LIG 0.04  C 
BRANCH 45 47
ATOM     47  N   ALA B   2      35.974  -4.823   4.133  1.00 46.59 LIG-0.35  N 
ATOM     48 H    ALA B   2      35.786  -4.889   3.297  1.00 46.59 LIG 0.16  HD
ATOM     49  C   PRO B   1      35.371  -3.991   4.958  1.00 48.49 LIG 0.25  C 
ATOM     50 O    PRO B   1      35.770  -3.814   6.098  1.00 48.43 LIG-0.27  OA
BRANCH 49 51
ATOM     51  CA  PRO B   1      34.103  -3.239   4.377  1.00 50.22 LIG 0.28  C 
ATOM     52  N   PRO B   1      33.135  -4.119   3.660  1.00 50.48 LIG-0.06  N 
ATOM     53 H3   PRO B   1      32.945  -3.766   2.899  1.00 50.48 LIG 0.28  HD
ATOM     54 H2   PRO B   1      33.509  -4.877   3.500  1.00 50.48 LIG 0.28  HD
ATOM     55  CD  PRO B   1      31.886  -4.346   4.412  1.00 50.94 LIG 0.23  C 
ATOM     56  CG  PRO B   1      32.029  -3.486   5.665  1.00 51.81 LIG 0.03  C 
ATOM     57  CB  PRO B   1      33.254  -2.582   5.484  1.00 50.52 LIG 0.04  C 
ENDBRANCH 49 51
ENDBRANCH 45 47
ENDBRANCH 42 45
ENDBRANCH 40 41
BRANCH 40 58
ATOM     58  CB  TRP B   3      40.211  -2.025   4.348  1.00 38.41 LIG 0.07  C 
BRANCH 58 59
ATOM     59  CG  TRP B   3      40.373  -2.847   3.151  1.00 37.10 LIG-0.03  A 
ATOM     60  CD1 TRP B   3      40.111  -2.477   1.886  1.00 36.42 LIG 0.10  A 
ATOM     61  NE1 TRP B   3      40.345  -3.514   1.036  1.00 36.34 LIG-0.36  N 
ATOM     62 HE1  TRP B   3      40.243  -3.495   0.183  1.00 36.34 LIG 0.17  HD
ATOM     63  CE2 TRP B   3      40.770  -4.593   1.765  1.00 35.80 LIG 0.04  A 
ATOM     64  CD2 TRP B   3      40.777  -4.215   3.099  1.00 33.30 LIG-0.00  A 
ATOM     65  CZ2 TRP B   3      41.102  -5.885   1.346  1.00 36.94 LIG 0.03  A 
ATOM     66  CE3 TRP B   3      41.177  -5.136   4.054  1.00 37.18 LIG 0.01  A 
ATOM     67  CZ3 TRP B   3      41.540  -6.417   3.640  1.00 37.29 LIG 0.00  A 
ATOM     68  CH2 TRP B   3      41.493  -6.773   2.288  1.00 32.87 LIG 0.00  A 
ENDBRANCH 58 59
ENDBRANCH 40 58
ENDBRANCH 38 40
ENDBRANCH 1 36
TORSDOF 22
ENDMDL
MODEL 22
USER: ADFR SOLUTION from run 188
USER: SCORE 23.313172 LL:  -7.216 LR: -17.025 RR:   0.000 FEB: -10.462
USER: RMSD 8.377624
USER: SEED 187
USER: STATUS no improvement in best in 2 clusters for 5 generations
USER: GENES 24
USER: genes 0 Translation |==|  0.68016 0.56965 0.24740
USER: genes 1 Rotation |==|  0.86158 0.59491 0.23232 0.69646
USER: genes 2 Torsion [C]-CA--CB-[CG] |==|  0.28107
USER: genes 3 Torsion [CA]-CB--CG-[CD1] |==|  0.03743
USER: genes 4 Torsion [N]-CA--C-[N] |==|  0.17583
USER: genes 5 Torsion [C]-N--CA-[CB] |==|  0.84988
USER: genes 6 Torsion [N]-CA--CB-[CG] |==|  0.92342
USER: genes 7 Torsion [CA]-CB--CG-[CD2] |==|  0.38099
USER: genes 8 Torsion [N]-CA--C-[N] |==|  0.41109
USER: genes 9 Torsion [C]-N--CA-[C] |==|  0.71571
USER: genes 10 Torsion [N]-CA--CB-[CG] |==|  0.24239
USER: genes 11 Torsion [CA]-CB--CG-[CD] |==|  0.37865
USER: genes 12 Torsion [CB]-CG--CD-[OE2] |==|  0.44780
USER: genes 13 Torsion [N]-CA--C-[N] |==|  0.86788
USER: genes 14 Torsion [C]-N--CA-[CB] |==|  0.15458
USER: genes 15 Torsion [N]-CA--C-[O] |==|  0.97216
USER: genes 16 Torsion [CB]-CA--N-[C] |==|  0.13925
USER: genes 17 Torsion [N]-C--CA-[N] |==|  0.92973
USER: genes 18 Torsion [C]-CA--N-[C] |==|  0.82920
USER: genes 19 Torsion [N]-C--CA-[N] |==|  0.01635
USER: genes 20 Torsion [C]-CA--N-[C] |==|  0.75854
USER: genes 21 Torsion [N]-C--CA-[N] |==|  0.01964
USER: genes 22 Torsion [C]-CA--CB-[CG] |==|  0.80756
USER: genes 23 Torsion [CA]-CB--CG-[CD1] |==|  0.21176
ROOT
ATOM      1  CA  LEU B   4      38.674  -1.644   3.975  1.00 36.98 LIG 0.18  C 
ENDROOT
BRANCH 1 2
ATOM      2  CB  LEU B   4      39.955  -1.341   4.752  1.00 35.91 LIG 0.04  C 
BRANCH 2 3
ATOM      3  CG  LEU B   4      41.272  -1.511   3.975  1.00 35.93 LIG-0.02  C 
ATOM      4  CD2 LEU B   4      42.256  -0.377   4.237  1.00 33.66 LIG 0.01  C 
ATOM      5  CD1 LEU B   4      41.008  -1.638   2.433  1.00 37.78 LIG 0.01  C 
ENDBRANCH 2 3
ENDBRANCH 1 2
BRANCH 1 6
ATOM      6  C   LEU B   4      38.205  -3.031   4.384  1.00 38.06 LIG 0.24  C 
ATOM      7  N   PHE B   5      37.189  -3.540   3.683  1.00 38.73 LIG-0.35  N 
ATOM      8 H    PHE B   5      36.881  -3.178   2.966  1.00 38.73 LIG 0.16  HD
ATOM      9 O    LEU B   4      38.716  -3.585   5.364  1.00 36.58 LIG-0.27  OA
BRANCH 7 10
ATOM     10  CA  PHE B   5      36.498  -4.765   4.071  1.00 41.04 LIG 0.18  C 
BRANCH 10 11
ATOM     11  CB  PHE B   5      37.455  -5.955   4.265  1.00 39.67 LIG 0.07  C 
BRANCH 11 12
ATOM     12  CG  PHE B   5      38.689  -5.861   3.452  1.00 38.07 LIG-0.06  A 
ATOM     13  CD2 PHE B   5      39.908  -6.178   3.992  1.00 33.96 LIG 0.01  A 
ATOM     14  CE2 PHE B   5      41.103  -6.071   3.228  1.00 35.53 LIG 0.00  A 
ATOM     15  CZ  PHE B   5      41.060  -5.587   1.934  1.00 34.38 LIG 0.00  A 
ATOM     16  CE1 PHE B   5      39.811  -5.252   1.395  1.00 35.56 LIG 0.00  A 
ATOM     17  CD1 PHE B   5      38.639  -5.392   2.156  1.00 35.27 LIG 0.01  A 
ENDBRANCH 11 12
ENDBRANCH 10 11
BRANCH 10 18
ATOM     18  C   PHE B   5      35.716  -4.602   5.339  1.00 43.64 LIG 0.24  C 
ATOM     19 O    PHE B   5      36.105  -3.798   6.197  1.00 43.27 LIG-0.27  OA
ATOM     20  N   GLU B   6      34.601  -5.333   5.423  1.00 47.41 LIG-0.35  N 
ATOM     21 H    GLU B   6      34.205  -5.665   4.735  1.00 47.41 LIG 0.16  HD
BRANCH 20 22
ATOM     22  CA  GLU B   6      33.929  -5.650   6.704  1.00 51.55 LIG 0.18  C 
BRANCH 22 23
ATOM     23  CB  GLU B   6      32.404  -5.461   6.615  1.00 52.47 LIG 0.04  C 
BRANCH 23 24
ATOM     24  CG  GLU B   6      31.665  -6.747   6.096  1.00 56.11 LIG 0.12  C 
BRANCH 24 25
ATOM     25  CD  GLU B   6      30.374  -7.114   6.871  1.00 59.86 LIG 0.17  C 
ATOM     26 OE2  GLU B   6      29.549  -7.877   6.336  1.00 64.67 LIG-0.65  OA
ATOM     27 OE1  GLU B   6      30.178  -6.691   8.028  1.00 64.70 LIG-0.65  OA
ENDBRANCH 24 25
ENDBRANCH 23 24
ENDBRANCH 22 23
BRANCH 22 28
ATOM     28  C   GLU B   6      34.281  -7.114   7.090  1.00 53.54 LIG 0.24  C 
ATOM     29 O    GLU B   6      34.626  -7.420   8.248  1.00 53.95 LIG-0.27  OA
ATOM     30  N   ALA B   7      34.157  -8.031   6.133  1.00 56.31 LIG-0.35  N 
ATOM     31 H    ALA B   7      33.934  -7.855   5.321  1.00 56.31 LIG 0.16  HD
BRANCH 30 32
ATOM     32  CA  ALA B   7      34.400  -9.474   6.406  1.00 57.55 LIG 0.16  C 
ATOM     33  CB  ALA B   7      33.522  -9.982   7.561  1.00 58.11 LIG 0.04  C 
BRANCH 32 34
ATOM     34  C   ALA B   7      34.154 -10.306   5.159  1.00 58.67 LIG 0.22  C 
ATOM     35 O    ALA B   7      33.630  -9.796   4.173  1.00 60.59 LIG-0.29  OA
ENDBRANCH 32 34
ENDBRANCH 30 32
ENDBRANCH 22 28
ENDBRANCH 20 22
ENDBRANCH 10 18
ENDBRANCH 7 10
ENDBRANCH 1 6
BRANCH 1 36
ATOM     36  N   LEU B   4      37.677  -0.593   4.147  1.00 37.09 LIG-0.35  N 
ATOM     37 H    LEU B   4      36.898  -0.882   4.369  1.00 37.09 LIG 0.16  HD
ATOM     38  C   TRP B   3      37.963   0.703   3.972  1.00 37.19 LIG 0.24  C 
ATOM     39 O    TRP B   3      39.047   1.092   3.670  1.00 36.60 LIG-0.27  OA
BRANCH 38 40
ATOM     40  CA  TRP B   3      36.856   1.716   4.236  1.00 38.87 LIG 0.18  C 
BRANCH 40 41
ATOM     41  N   TRP B   3      35.556   1.064   4.052  1.00 40.30 LIG-0.35  N 
ATOM     42  C   ALA B   2      35.216   0.551   2.858  1.00 43.05 LIG 0.24  C 
ATOM     43 O    ALA B   2      35.870   0.748   1.831  1.00 42.86 LIG-0.27  OA
ATOM     44 H    TRP B   3      35.057   1.044   4.753  1.00 40.30 LIG 0.16  HD
BRANCH 42 45
ATOM     45  CA  ALA B   2      33.926  -0.247   2.781  1.00 44.71 LIG 0.17  C 
ATOM     46  CB  ALA B   2      32.995   0.309   1.671  1.00 44.36 LIG 0.04  C 
BRANCH 45 47
ATOM     47  N   ALA B   2      33.243  -0.156   4.071  1.00 46.59 LIG-0.35  N 
ATOM     48 H    ALA B   2      32.667   0.480   4.122  1.00 46.59 LIG 0.16  HD
ATOM     49  C   PRO B   1      33.504  -0.989   5.058  1.00 48.49 LIG 0.25  C 
ATOM     50 O    PRO B   1      34.436  -1.777   5.005  1.00 48.43 LIG-0.27  OA
BRANCH 49 51
ATOM     51  CA  PRO B   1      32.538  -0.903   6.310  1.00 50.22 LIG 0.28  C 
ATOM     52  N   PRO B   1      31.363  -0.002   6.127  1.00 50.48 LIG-0.06  N 
ATOM     53 H3   PRO B   1      31.306   0.527   6.804  1.00 50.48 LIG 0.28  HD
ATOM     54 H2   PRO B   1      31.492   0.490   5.433  1.00 50.48 LIG 0.28  HD
ATOM     55  CD  PRO B   1      30.089  -0.729   5.974  1.00 50.94 LIG 0.23  C 
ATOM     56  CG  PRO B   1      30.461  -2.199   6.151  1.00 51.81 LIG 0.03  C 
ATOM     57  CB  PRO B   1      31.906  -2.266   6.658  1.00 50.52 LIG 0.04  C 
ENDBRANCH 49 51
ENDBRANCH 45 47
ENDBRANCH 42 45
ENDBRANCH 40 41
BRANCH 40 58
ATOM     58  CB  TRP B   3      37.038   2.321   5.647  1.00 38.41 LIG 0.07  C 
BRANCH 58 59
ATOM     59  CG  TRP B   3      36.757   1.310   6.663  1.00 37.10 LIG-0.03  A 
ATOM     60  CD1 TRP B   3      37.562   0.298   7.028  1.00 36.42 LIG 0.10  A 
ATOM     61  NE1 TRP B   3      36.955  -0.464   7.979  1.00 36.34 LIG-0.36  N 
ATOM     62 HE1  TRP B   3      37.292  -1.161   8.353  1.00 36.34 LIG 0.17  HD
ATOM     63  CE2 TRP B   3      35.719   0.063   8.243  1.00 35.80 LIG 0.04  A 
ATOM     64  CD2 TRP B   3      35.554   1.164   7.417  1.00 33.30 LIG-0.00  A 
ATOM     65  CZ2 TRP B   3      34.720  -0.383   9.114  1.00 36.94 LIG 0.03  A 
ATOM     66  CE3 TRP B   3      34.372   1.886   7.492  1.00 37.18 LIG 0.01  A 
ATOM     67  CZ3 TRP B   3      33.384   1.466   8.381  1.00 37.29 LIG 0.00  A 
ATOM     68  CH2 TRP B   3      33.573   0.332   9.179  1.00 32.87 LIG 0.00  A 
ENDBRANCH 58 59
ENDBRANCH 40 58
ENDBRANCH 38 40
ENDBRANCH 1 36
TORSDOF 22
ENDMDL
MODEL 23
USER: ADFR SOLUTION from run 198
USER: SCORE 21.652144 LL:  -6.275 LR: -16.964 RR:   0.000 FEB: -10.402
USER: RMSD 9.789167
USER: SEED 197
USER: STATUS no improvement in best in 7 clusters for 5 generations
USER: GENES 24
USER: genes 0 Translation |==|  0.55936 0.60744 0.41853
USER: genes 1 Rotation |==|  0.60230 0.95919 0.33472 0.53694
USER: genes 2 Torsion [C]-CA--CB-[CG] |==|  0.33738
USER: genes 3 Torsion [CA]-CB--CG-[CD1] |==|  0.58251
USER: genes 4 Torsion [N]-CA--C-[N] |==|  0.24117
USER: genes 5 Torsion [C]-N--CA-[CB] |==|  0.78602
USER: genes 6 Torsion [N]-CA--CB-[CG] |==|  0.05499
USER: genes 7 Torsion [CA]-CB--CG-[CD2] |==|  0.27252
USER: genes 8 Torsion [N]-CA--C-[N] |==|  0.50395
USER: genes 9 Torsion [C]-N--CA-[C] |==|  0.73610
USER: genes 10 Torsion [N]-CA--CB-[CG] |==|  0.62581
USER: genes 11 Torsion [CA]-CB--CG-[CD] |==|  0.84012
USER: genes 12 Torsion [CB]-CG--CD-[OE2] |==|  0.92457
USER: genes 13 Torsion [N]-CA--C-[N] |==|  0.24024
USER: genes 14 Torsion [C]-N--CA-[CB] |==|  0.14518
USER: genes 15 Torsion [N]-CA--C-[O] |==|  0.28167
USER: genes 16 Torsion [CB]-CA--N-[C] |==|  0.75997
USER: genes 17 Torsion [N]-C--CA-[N] |==|  0.45852
USER: genes 18 Torsion [C]-CA--N-[C] |==|  0.63571
USER: genes 19 Torsion [N]-C--CA-[N] |==|  0.14072
USER: genes 20 Torsion [C]-CA--N-[C] |==|  0.54099
USER: genes 21 Torsion [N]-C--CA-[N] |==|  0.64798
USER: genes 22 Torsion [C]-CA--CB-[CG] |==|  0.62557
USER: genes 23 Torsion [CA]-CB--CG-[CD1] |==|  0.26624
ROOT
ATOM      1  CA  LEU B   4      36.046  -0.907   7.826  1.00 36.98 LIG 0.18  C 
ENDROOT
BRANCH 1 2
ATOM      2  CB  LEU B   4      36.743   0.399   8.207  1.00 35.91 LIG 0.04  C 
BRANCH 2 3
ATOM      3  CG  LEU B   4      35.830   1.626   8.381  1.00 35.93 LIG-0.02  C 
ATOM      4  CD2 LEU B   4      34.553   1.526   7.555  1.00 33.66 LIG 0.01  C 
ATOM      5  CD1 LEU B   4      36.588   2.953   8.026  1.00 37.78 LIG 0.01  C 
ENDBRANCH 2 3
ENDBRANCH 1 2
BRANCH 1 6
ATOM      6  C   LEU B   4      36.645  -1.380   6.511  1.00 38.06 LIG 0.24  C 
ATOM      7  N   PHE B   5      35.825  -2.051   5.699  1.00 38.73 LIG-0.35  N 
ATOM      8 H    PHE B   5      34.978  -2.120   5.832  1.00 38.73 LIG 0.16  HD
ATOM      9 O    LEU B   4      37.846  -1.197   6.285  1.00 36.58 LIG-0.27  OA
BRANCH 7 10
ATOM     10  CA  PHE B   5      36.292  -2.738   4.499  1.00 41.04 LIG 0.18  C 
BRANCH 10 11
ATOM     11  CB  PHE B   5      36.572  -1.776   3.330  1.00 39.67 LIG 0.07  C 
BRANCH 11 12
ATOM     12  CG  PHE B   5      36.768  -0.371   3.755  1.00 38.07 LIG-0.06  A 
ATOM     13  CD2 PHE B   5      38.030   0.142   3.910  1.00 33.96 LIG 0.01  A 
ATOM     14  CE2 PHE B   5      38.232   1.484   4.339  1.00 35.53 LIG 0.00  A 
ATOM     15  CZ  PHE B   5      37.151   2.281   4.662  1.00 34.38 LIG 0.00  A 
ATOM     16  CE1 PHE B   5      35.865   1.743   4.513  1.00 35.56 LIG 0.00  A 
ATOM     17  CD1 PHE B   5      35.685   0.427   4.061  1.00 35.27 LIG 0.01  A 
ENDBRANCH 11 12
ENDBRANCH 10 11
BRANCH 10 18
ATOM     18  C   PHE B   5      37.541  -3.528   4.743  1.00 43.64 LIG 0.24  C 
ATOM     19 O    PHE B   5      38.012  -3.588   5.888  1.00 43.27 LIG-0.27  OA
ATOM     20  N   GLU B   6      38.039  -4.159   3.677  1.00 47.41 LIG-0.35  N 
ATOM     21 H    GLU B   6      37.573  -4.334   2.975  1.00 47.41 LIG 0.16  HD
BRANCH 20 22
ATOM     22  CA  GLU B   6      39.443  -4.623   3.585  1.00 51.55 LIG 0.18  C 
BRANCH 22 23
ATOM     23  CB  GLU B   6      39.556  -5.972   2.853  1.00 52.47 LIG 0.04  C 
BRANCH 23 24
ATOM     24  CG  GLU B   6      40.507  -6.982   3.589  1.00 56.11 LIG 0.12  C 
BRANCH 24 25
ATOM     25  CD  GLU B   6      41.953  -6.473   3.810  1.00 59.86 LIG 0.17  C 
ATOM     26 OE2  GLU B   6      42.422  -5.633   3.020  1.00 64.67 LIG-0.65  OA
ATOM     27 OE1  GLU B   6      42.628  -6.862   4.784  1.00 64.70 LIG-0.65  OA
ENDBRANCH 24 25
ENDBRANCH 23 24
ENDBRANCH 22 23
BRANCH 22 28
ATOM     28  C   GLU B   6      40.271  -3.529   2.855  1.00 53.54 LIG 0.24  C 
ATOM     29 O    GLU B   6      40.429  -3.544   1.619  1.00 53.95 LIG-0.27  OA
ATOM     30  N   ALA B   7      40.768  -2.551   3.610  1.00 56.31 LIG-0.35  N 
ATOM     31 H    ALA B   7      40.690  -2.515   4.466  1.00 56.31 LIG 0.16  HD
BRANCH 30 32
ATOM     32  CA  ALA B   7      41.518  -1.414   3.010  1.00 57.55 LIG 0.16  C 
ATOM     33  CB  ALA B   7      40.721  -0.752   1.875  1.00 58.11 LIG 0.04  C 
BRANCH 32 34
ATOM     34  C   ALA B   7      41.869  -0.383   4.070  1.00 58.67 LIG 0.22  C 
ATOM     35 O    ALA B   7      43.004  -0.343   4.537  1.00 60.59 LIG-0.29  OA
ENDBRANCH 32 34
ENDBRANCH 30 32
ENDBRANCH 22 28
ENDBRANCH 20 22
ENDBRANCH 10 18
ENDBRANCH 7 10
ENDBRANCH 1 6
BRANCH 1 36
ATOM     36  N   LEU B   4      36.105  -1.886   8.906  1.00 37.09 LIG-0.35  N 
ATOM     37 H    LEU B   4      35.419  -1.877   9.425  1.00 37.09 LIG 0.16  HD
ATOM     38  C   TRP B   3      37.142  -2.719   9.063  1.00 37.19 LIG 0.24  C 
ATOM     39 O    TRP B   3      38.083  -2.725   8.335  1.00 36.60 LIG-0.27  OA
BRANCH 38 40
ATOM     40  CA  TRP B   3      37.067  -3.738  10.193  1.00 38.87 LIG 0.18  C 
BRANCH 40 41
ATOM     41  N   TRP B   3      38.095  -4.763   9.983  1.00 40.30 LIG-0.35  N 
ATOM     42  C   ALA B   2      37.779  -6.067  10.057  1.00 43.05 LIG 0.24  C 
ATOM     43 O    ALA B   2      36.689  -6.471  10.471  1.00 42.86 LIG-0.27  OA
ATOM     44 H    TRP B   3      38.882  -4.459   9.815  1.00 40.30 LIG 0.16  HD
BRANCH 42 45
ATOM     45  CA  ALA B   2      38.853  -7.070   9.674  1.00 44.71 LIG 0.17  C 
ATOM     46  CB  ALA B   2      38.415  -8.515  10.032  1.00 44.36 LIG 0.04  C 
BRANCH 45 47
ATOM     47  N   ALA B   2      40.078  -6.743  10.403  1.00 46.59 LIG-0.35  N 
ATOM     48 H    ALA B   2      39.965  -6.197  11.058  1.00 46.59 LIG 0.16  HD
ATOM     49  C   PRO B   1      41.246  -7.253  10.067  1.00 48.49 LIG 0.25  C 
ATOM     50 O    PRO B   1      41.394  -7.896   9.040  1.00 48.43 LIG-0.27  OA
BRANCH 49 51
ATOM     51  CA  PRO B   1      42.437  -6.979  11.075  1.00 50.22 LIG 0.28  C 
ATOM     52  N   PRO B   1      43.650  -6.375  10.452  1.00 50.48 LIG-0.06  N 
ATOM     53 H3   PRO B   1      44.344  -6.823  10.694  1.00 50.48 LIG 0.28  HD
ATOM     54 H2   PRO B   1      43.592  -6.446   9.596  1.00 50.48 LIG 0.28  HD
ATOM     55  CD  PRO B   1      43.843  -4.957  10.806  1.00 50.94 LIG 0.23  C 
ATOM     56  CG  PRO B   1      42.718  -4.649  11.792  1.00 51.81 LIG 0.03  C 
ATOM     57  CB  PRO B   1      42.051  -5.974  12.179  1.00 50.52 LIG 0.04  C 
ENDBRANCH 49 51
ENDBRANCH 45 47
ENDBRANCH 42 45
ENDBRANCH 40 41
BRANCH 40 58
ATOM     58  CB  TRP B   3      37.203  -3.012  11.551  1.00 38.41 LIG 0.07  C 
BRANCH 58 59
ATOM     59  CG  TRP B   3      38.133  -3.736  12.413  1.00 37.10 LIG-0.03  A 
ATOM     60  CD1 TRP B   3      39.443  -3.477  12.572  1.00 36.42 LIG 0.10  A 
ATOM     61  NE1 TRP B   3      39.998  -4.380  13.426  1.00 36.34 LIG-0.36  N 
ATOM     62 HE1  TRP B   3      40.823  -4.399  13.669  1.00 36.34 LIG 0.17  HD
ATOM     63  CE2 TRP B   3      39.027  -5.255  13.836  1.00 35.80 LIG 0.04  A 
ATOM     64  CD2 TRP B   3      37.850  -4.893  13.201  1.00 33.30 LIG-0.00  A 
ATOM     65  CZ2 TRP B   3      39.117  -6.365  14.682  1.00 36.94 LIG 0.03  A 
ATOM     66  CE3 TRP B   3      36.701  -5.627  13.451  1.00 37.18 LIG 0.01  A 
ATOM     67  CZ3 TRP B   3      36.775  -6.715  14.319  1.00 37.29 LIG 0.00  A 
ATOM     68  CH2 TRP B   3      37.988  -7.070  14.920  1.00 32.87 LIG 0.00  A 
ENDBRANCH 58 59
ENDBRANCH 40 58
ENDBRANCH 38 40
ENDBRANCH 1 36
TORSDOF 22
ENDMDL
MODEL 24
USER: ADFR SOLUTION from run 194
USER: SCORE 21.366073 LL:  -5.826 LR: -16.961 RR:   0.000 FEB: -10.399
USER: RMSD 7.663812
USER: SEED 193
USER: STATUS no improvement in best in 22 clusters for 5 generations
USER: GENES 24
USER: genes 0 Translation |==|  0.60639 0.26616 0.34545
USER: genes 1 Rotation |==|  0.46532 0.45022 0.03223 0.66586
USER: genes 2 Torsion [C]-CA--CB-[CG] |==|  0.41086
USER: genes 3 Torsion [CA]-CB--CG-[CD1] |==|  0.60991
USER: genes 4 Torsion [N]-CA--C-[N] |==|  0.24000
USER: genes 5 Torsion [C]-N--CA-[CB] |==|  0.86667
USER: genes 6 Torsion [N]-CA--CB-[CG] |==|  0.55793
USER: genes 7 Torsion [CA]-CB--CG-[CD2] |==|  0.09456
USER: genes 8 Torsion [N]-CA--C-[N] |==|  0.45322
USER: genes 9 Torsion [C]-N--CA-[C] |==|  0.72084
USER: genes 10 Torsion [N]-CA--CB-[CG] |==|  0.11667
USER: genes 11 Torsion [CA]-CB--CG-[CD] |==|  0.46310
USER: genes 12 Torsion [CB]-CG--CD-[OE2] |==|  0.84099
USER: genes 13 Torsion [N]-CA--C-[N] |==|  0.33394
USER: genes 14 Torsion [C]-N--CA-[CB] |==|  0.21374
USER: genes 15 Torsion [N]-CA--C-[O] |==|  0.03303
USER: genes 16 Torsion [CB]-CA--N-[C] |==|  0.76294
USER: genes 17 Torsion [N]-C--CA-[N] |==|  0.03977
USER: genes 18 Torsion [C]-CA--N-[C] |==|  0.19753
USER: genes 19 Torsion [N]-C--CA-[N] |==|  0.92297
USER: genes 20 Torsion [C]-CA--N-[C] |==|  0.79886
USER: genes 21 Torsion [N]-C--CA-[N] |==|  0.45554
USER: genes 22 Torsion [C]-CA--CB-[CG] |==|  0.31702
USER: genes 23 Torsion [CA]-CB--CG-[CD1] |==|  0.40838
ROOT
ATOM      1  CA  LEU B   4      37.069  -7.562   6.182  1.00 36.98 LIG 0.18  C 
ENDROOT
BRANCH 1 2
ATOM      2  CB  LEU B   4      37.860  -8.387   5.167  1.00 35.91 LIG 0.04  C 
BRANCH 2 3
ATOM      3  CG  LEU B   4      37.027  -9.151   4.122  1.00 35.93 LIG-0.02  C 
ATOM      4  CD2 LEU B   4      35.562  -9.280   4.523  1.00 33.66 LIG 0.01  C 
ATOM      5  CD1 LEU B   4      37.629 -10.574   3.847  1.00 37.78 LIG 0.01  C 
ENDBRANCH 2 3
ENDBRANCH 1 2
BRANCH 1 6
ATOM      6  C   LEU B   4      37.849  -7.569   7.487  1.00 38.06 LIG 0.24  C 
ATOM      7  N   PHE B   5      37.123  -7.501   8.606  1.00 38.73 LIG-0.35  N 
ATOM      8 H    PHE B   5      36.266  -7.571   8.619  1.00 38.73 LIG 0.16  HD
ATOM      9 O    LEU B   4      39.084  -7.560   7.462  1.00 36.58 LIG-0.27  OA
BRANCH 7 10
ATOM     10  CA  PHE B   5      37.720  -7.301   9.922  1.00 41.04 LIG 0.18  C 
BRANCH 10 11
ATOM     11  CB  PHE B   5      38.914  -8.236  10.185  1.00 39.67 LIG 0.07  C 
BRANCH 11 12
ATOM     12  CG  PHE B   5      39.223  -8.413  11.622  1.00 38.07 LIG-0.06  A 
ATOM     13  CD2 PHE B   5      38.221  -8.416  12.558  1.00 33.96 LIG 0.01  A 
ATOM     14  CE2 PHE B   5      38.507  -8.563  13.943  1.00 35.53 LIG 0.00  A 
ATOM     15  CZ  PHE B   5      39.815  -8.649  14.378  1.00 34.38 LIG 0.00  A 
ATOM     16  CE1 PHE B   5      40.835  -8.630  13.416  1.00 35.56 LIG 0.00  A 
ATOM     17  CD1 PHE B   5      40.530  -8.514  12.050  1.00 35.27 LIG 0.01  A 
ENDBRANCH 11 12
ENDBRANCH 10 11
BRANCH 10 18
ATOM     18  C   PHE B   5      38.194  -5.894  10.126  1.00 43.64 LIG 0.24  C 
ATOM     19 O    PHE B   5      38.308  -5.141   9.149  1.00 43.27 LIG-0.27  OA
ATOM     20  N   GLU B   6      38.422  -5.543  11.393  1.00 47.41 LIG-0.35  N 
ATOM     21 H    GLU B   6      38.088  -5.965  12.065  1.00 47.41 LIG 0.16  HD
BRANCH 20 22
ATOM     22  CA  GLU B   6      39.273  -4.394  11.781  1.00 51.55 LIG 0.18  C 
BRANCH 22 23
ATOM     23  CB  GLU B   6      38.645  -3.572  12.921  1.00 52.47 LIG 0.04  C 
BRANCH 23 24
ATOM     24  CG  GLU B   6      38.009  -4.475  14.038  1.00 56.11 LIG 0.12  C 
BRANCH 24 25
ATOM     25  CD  GLU B   6      37.653  -3.734  15.352  1.00 59.86 LIG 0.17  C 
ATOM     26 OE2  GLU B   6      38.552  -3.124  15.959  1.00 64.67 LIG-0.65  OA
ATOM     27 OE1  GLU B   6      36.481  -3.709  15.777  1.00 64.70 LIG-0.65  OA
ENDBRANCH 24 25
ENDBRANCH 23 24
ENDBRANCH 22 23
BRANCH 22 28
ATOM     28  C   GLU B   6      40.667  -4.940  12.199  1.00 53.54 LIG 0.24  C 
ATOM     29 O    GLU B   6      40.796  -5.773  13.117  1.00 53.95 LIG-0.27  OA
ATOM     30  N   ALA B   7      41.714  -4.504  11.500  1.00 56.31 LIG-0.35  N 
ATOM     31 H    ALA B   7      41.665  -3.921  10.870  1.00 56.31 LIG 0.16  HD
BRANCH 30 32
ATOM     32  CA  ALA B   7      43.088  -5.010  11.766  1.00 57.55 LIG 0.16  C 
ATOM     33  CB  ALA B   7      43.294  -6.413  11.171  1.00 58.11 LIG 0.04  C 
BRANCH 32 34
ATOM     34  C   ALA B   7      44.130  -4.052  11.215  1.00 58.67 LIG 0.22  C 
ATOM     35 O    ALA B   7      43.798  -2.931  10.842  1.00 60.59 LIG-0.29  OA
ENDBRANCH 32 34
ENDBRANCH 30 32
ENDBRANCH 22 28
ENDBRANCH 20 22
ENDBRANCH 10 18
ENDBRANCH 7 10
ENDBRANCH 1 6
BRANCH 1 36
ATOM     36  N   LEU B   4      36.756  -6.232   5.670  1.00 37.09 LIG-0.35  N 
ATOM     37 H    LEU B   4      35.981  -6.172   5.301  1.00 37.09 LIG 0.16  HD
ATOM     38  C   TRP B   3      37.609  -5.205   5.771  1.00 37.19 LIG 0.24  C 
ATOM     39 O    TRP B   3      38.677  -5.300   6.288  1.00 36.60 LIG-0.27  OA
BRANCH 38 40
ATOM     40  CA  TRP B   3      37.151  -3.849   5.252  1.00 38.87 LIG 0.18  C 
BRANCH 40 41
ATOM     41  N   TRP B   3      35.700  -3.881   5.042  1.00 40.30 LIG-0.35  N 
ATOM     42  C   ALA B   2      34.862  -3.911   6.092  1.00 43.05 LIG 0.24  C 
ATOM     43 O    ALA B   2      35.244  -4.092   7.251  1.00 42.86 LIG-0.27  OA
ATOM     44 H    TRP B   3      35.452  -3.878   4.218  1.00 40.30 LIG 0.16  HD
BRANCH 42 45
ATOM     45  CA  ALA B   2      33.376  -3.783   5.805  1.00 44.71 LIG 0.17  C 
ATOM     46  CB  ALA B   2      32.722  -5.180   5.637  1.00 44.36 LIG 0.04  C 
BRANCH 45 47
ATOM     47  N   ALA B   2      33.203  -3.018   4.571  1.00 46.59 LIG-0.35  N 
ATOM     48 H    ALA B   2      32.948  -3.488   3.897  1.00 46.59 LIG 0.16  HD
ATOM     49  C   PRO B   1      33.424  -1.720   4.518  1.00 48.49 LIG 0.25  C 
ATOM     50 O    PRO B   1      33.935  -1.117   5.449  1.00 48.43 LIG-0.27  OA
BRANCH 49 51
ATOM     51  CA  PRO B   1      32.989  -0.998   3.177  1.00 50.22 LIG 0.28  C 
ATOM     52  N   PRO B   1      32.897   0.488   3.275  1.00 50.48 LIG-0.06  N 
ATOM     53 H3   PRO B   1      32.142   0.745   2.952  1.00 50.48 LIG 0.28  HD
ATOM     54 H2   PRO B   1      32.907   0.716   4.104  1.00 50.48 LIG 0.28  HD
ATOM     55  CD  PRO B   1      33.988   1.187   2.569  1.00 50.94 LIG 0.23  C 
ATOM     56  CG  PRO B   1      34.792   0.072   1.903  1.00 51.81 LIG 0.03  C 
ATOM     57  CB  PRO B   1      33.995  -1.230   2.032  1.00 50.52 LIG 0.04  C 
ENDBRANCH 49 51
ENDBRANCH 45 47
ENDBRANCH 42 45
ENDBRANCH 40 41
BRANCH 40 58
ATOM     58  CB  TRP B   3      37.597  -2.743   6.236  1.00 38.41 LIG 0.07  C 
BRANCH 58 59
ATOM     59  CG  TRP B   3      38.582  -1.874   5.598  1.00 37.10 LIG-0.03  A 
ATOM     60  CD1 TRP B   3      38.744  -0.557   5.812  1.00 36.42 LIG 0.10  A 
ATOM     61  NE1 TRP B   3      39.735  -0.072   5.015  1.00 36.34 LIG-0.36  N 
ATOM     62 HE1  TRP B   3      40.004   0.745   4.991  1.00 36.34 LIG 0.17  HD
ATOM     63  CE2 TRP B   3      40.233  -1.098   4.257  1.00 35.80 LIG 0.04  A 
ATOM     64  CD2 TRP B   3      39.516  -2.238   4.582  1.00 33.30 LIG-0.00  A 
ATOM     65  CZ2 TRP B   3      41.231  -1.088   3.277  1.00 36.94 LIG 0.03  A 
ATOM     66  CE3 TRP B   3      39.832  -3.431   3.949  1.00 37.18 LIG 0.01  A 
ATOM     67  CZ3 TRP B   3      40.847  -3.436   2.994  1.00 37.29 LIG 0.00  A 
ATOM     68  CH2 TRP B   3      41.530  -2.259   2.669  1.00 32.87 LIG 0.00  A 
ENDBRANCH 58 59
ENDBRANCH 40 58
ENDBRANCH 38 40
ENDBRANCH 1 36
TORSDOF 22
ENDMDL
MODEL 25
USER: ADFR SOLUTION from run 103
USER: SCORE 21.577249 LL:  -6.334 LR: -16.871 RR:   0.000 FEB: -10.309
USER: RMSD 8.815916
USER: SEED 102
USER: STATUS no improvement in best in 7 clusters for 5 generations
USER: GENES 24
USER: genes 0 Translation |==|  0.60111 0.35995 0.31305
USER: genes 1 Rotation |==|  0.45535 0.48675 0.01253 0.60101
USER: genes 2 Torsion [C]-CA--CB-[CG] |==|  0.15626
USER: genes 3 Torsion [CA]-CB--CG-[CD1] |==|  0.30305
USER: genes 4 Torsion [N]-CA--C-[N] |==|  0.21543
USER: genes 5 Torsion [C]-N--CA-[CB] |==|  0.53350
USER: genes 6 Torsion [N]-CA--CB-[CG] |==|  0.58468
USER: genes 7 Torsion [CA]-CB--CG-[CD2] |==|  0.66713
USER: genes 8 Torsion [N]-CA--C-[N] |==|  0.30062
USER: genes 9 Torsion [C]-N--CA-[C] |==|  0.67263
USER: genes 10 Torsion [N]-CA--CB-[CG] |==|  0.29141
USER: genes 11 Torsion [CA]-CB--CG-[CD] |==|  0.58610
USER: genes 12 Torsion [CB]-CG--CD-[OE2] |==|  0.64575
USER: genes 13 Torsion [N]-CA--C-[N] |==|  0.94708
USER: genes 14 Torsion [C]-N--CA-[CB] |==|  0.29912
USER: genes 15 Torsion [N]-CA--C-[O] |==|  0.82990
USER: genes 16 Torsion [CB]-CA--N-[C] |==|  0.77665
USER: genes 17 Torsion [N]-C--CA-[N] |==|  0.99863
USER: genes 18 Torsion [C]-CA--N-[C] |==|  0.64734
USER: genes 19 Torsion [N]-C--CA-[N] |==|  0.09521
USER: genes 20 Torsion [C]-CA--N-[C] |==|  0.18750
USER: genes 21 Torsion [N]-C--CA-[N] |==|  0.80730
USER: genes 22 Torsion [C]-CA--CB-[CG] |==|  0.55080
USER: genes 23 Torsion [CA]-CB--CG-[CD1] |==|  0.81383
ROOT
ATOM      1  CA  LEU B   4      36.954  -5.733   5.453  1.00 36.98 LIG 0.18  C 
ENDROOT
BRANCH 1 2
ATOM      2  CB  LEU B   4      37.441  -6.617   4.305  1.00 35.91 LIG 0.04  C 
BRANCH 2 3
ATOM      3  CG  LEU B   4      37.360  -8.136   4.541  1.00 35.93 LIG-0.02  C 
ATOM      4  CD2 LEU B   4      38.687  -8.839   4.283  1.00 33.66 LIG 0.01  C 
ATOM      5  CD1 LEU B   4      36.235  -8.788   3.663  1.00 37.78 LIG 0.01  C 
ENDBRANCH 2 3
ENDBRANCH 1 2
BRANCH 1 6
ATOM      6  C   LEU B   4      37.749  -6.111   6.692  1.00 38.06 LIG 0.24  C 
ATOM      7  N   PHE B   5      37.187  -5.810   7.866  1.00 38.73 LIG-0.35  N 
ATOM      8 H    PHE B   5      36.377  -5.531   7.945  1.00 38.73 LIG 0.16  HD
ATOM      9 O    LEU B   4      38.878  -6.597   6.570  1.00 36.58 LIG-0.27  OA
BRANCH 7 10
ATOM     10  CA  PHE B   5      37.899  -5.926   9.134  1.00 41.04 LIG 0.18  C 
BRANCH 10 11
ATOM     11  CB  PHE B   5      36.968  -5.811  10.354  1.00 39.67 LIG 0.07  C 
BRANCH 11 12
ATOM     12  CG  PHE B   5      37.622  -5.223  11.545  1.00 38.07 LIG-0.06  A 
ATOM     13  CD2 PHE B   5      37.715  -5.932  12.714  1.00 33.96 LIG 0.01  A 
ATOM     14  CE2 PHE B   5      38.321  -5.370  13.872  1.00 35.53 LIG 0.00  A 
ATOM     15  CZ  PHE B   5      38.780  -4.067  13.853  1.00 34.38 LIG 0.00  A 
ATOM     16  CE1 PHE B   5      38.668  -3.344  12.657  1.00 35.56 LIG 0.00  A 
ATOM     17  CD1 PHE B   5      38.093  -3.927  11.517  1.00 35.27 LIG 0.01  A 
ENDBRANCH 11 12
ENDBRANCH 10 11
BRANCH 10 18
ATOM     18  C   PHE B   5      38.644  -7.221   9.254  1.00 43.64 LIG 0.24  C 
ATOM     19 O    PHE B   5      38.012  -8.279   9.382  1.00 43.27 LIG-0.27  OA
ATOM     20  N   GLU B   6      39.973  -7.128   9.168  1.00 47.41 LIG-0.35  N 
ATOM     21 H    GLU B   6      40.374  -6.454   8.815  1.00 47.41 LIG 0.16  HD
BRANCH 20 22
ATOM     22  CA  GLU B   6      40.897  -8.170   9.671  1.00 51.55 LIG 0.18  C 
BRANCH 22 23
ATOM     23  CB  GLU B   6      41.779  -8.747   8.548  1.00 52.47 LIG 0.04  C 
BRANCH 23 24
ATOM     24  CG  GLU B   6      43.257  -8.219   8.609  1.00 56.11 LIG 0.12  C 
BRANCH 24 25
ATOM     25  CD  GLU B   6      43.965  -8.103   7.235  1.00 59.86 LIG 0.17  C 
ATOM     26 OE2  GLU B   6      45.074  -8.647   7.083  1.00 64.67 LIG-0.65  OA
ATOM     27 OE1  GLU B   6      43.420  -7.512   6.281  1.00 64.70 LIG-0.65  OA
ENDBRANCH 24 25
ENDBRANCH 23 24
ENDBRANCH 22 23
BRANCH 22 28
ATOM     28  C   GLU B   6      41.774  -7.544  10.792  1.00 53.54 LIG 0.24  C 
ATOM     29 O    GLU B   6      42.410  -8.252  11.597  1.00 53.95 LIG-0.27  OA
ATOM     30  N   ALA B   7      41.844  -6.215  10.825  1.00 56.31 LIG-0.35  N 
ATOM     31 H    ALA B   7      41.409  -5.695  10.294  1.00 56.31 LIG 0.16  HD
BRANCH 30 32
ATOM     32  CA  ALA B   7      42.707  -5.509  11.810  1.00 57.55 LIG 0.16  C 
ATOM     33  CB  ALA B   7      43.943  -4.893  11.135  1.00 58.11 LIG 0.04  C 
BRANCH 32 34
ATOM     34  C   ALA B   7      41.921  -4.431  12.538  1.00 58.67 LIG 0.22  C 
ATOM     35 O    ALA B   7      41.427  -3.499  11.909  1.00 60.59 LIG-0.29  OA
ENDBRANCH 32 34
ENDBRANCH 30 32
ENDBRANCH 22 28
ENDBRANCH 20 22
ENDBRANCH 10 18
ENDBRANCH 7 10
ENDBRANCH 1 6
BRANCH 1 36
ATOM     36  N   LEU B   4      37.010  -4.317   5.105  1.00 37.09 LIG-0.35  N 
ATOM     37 H    LEU B   4      36.254  -3.985   4.864  1.00 37.09 LIG 0.16  HD
ATOM     38  C   TRP B   3      38.146  -3.609   5.162  1.00 37.19 LIG 0.24  C 
ATOM     39 O    TRP B   3      39.185  -4.079   5.502  1.00 36.60 LIG-0.27  OA
BRANCH 38 40
ATOM     40  CA  TRP B   3      38.072  -2.124   4.831  1.00 38.87 LIG 0.18  C 
BRANCH 40 41
ATOM     41  N   TRP B   3      36.689  -1.776   4.491  1.00 40.30 LIG-0.35  N 
ATOM     42  C   ALA B   2      36.411  -1.143   3.339  1.00 43.05 LIG 0.24  C 
ATOM     43 O    ALA B   2      37.283  -0.668   2.607  1.00 42.86 LIG-0.27  OA
ATOM     44 H    TRP B   3      36.102  -2.008   5.076  1.00 40.30 LIG 0.16  HD
BRANCH 42 45
ATOM     45  CA  ALA B   2      34.948  -0.955   2.979  1.00 44.71 LIG 0.17  C 
ATOM     46  CB  ALA B   2      34.759   0.273   2.050  1.00 44.36 LIG 0.04  C 
BRANCH 45 47
ATOM     47  N   ALA B   2      34.186  -0.749   4.211  1.00 46.59 LIG-0.35  N 
ATOM     48 H    ALA B   2      33.645  -1.389   4.402  1.00 46.59 LIG 0.16  HD
ATOM     49  C   PRO B   1      34.333   0.333   4.948  1.00 48.49 LIG 0.25  C 
ATOM     50 O    PRO B   1      34.991   1.287   4.564  1.00 48.43 LIG-0.27  OA
BRANCH 49 51
ATOM     51  CA  PRO B   1      33.606   0.316   6.355  1.00 50.22 LIG 0.28  C 
ATOM     52  N   PRO B   1      32.117   0.373   6.284  1.00 50.48 LIG-0.06  N 
ATOM     53 H3   PRO B   1      31.833   0.985   6.818  1.00 50.48 LIG 0.28  HD
ATOM     54 H2   PRO B   1      31.882   0.604   5.489  1.00 50.48 LIG 0.28  HD
ATOM     55  CD  PRO B   1      31.468  -0.906   6.627  1.00 50.94 LIG 0.23  C 
ATOM     56  CG  PRO B   1      32.619  -1.828   7.024  1.00 51.81 LIG 0.03  C 
ATOM     57  CB  PRO B   1      33.888  -0.978   7.145  1.00 50.52 LIG 0.04  C 
ENDBRANCH 49 51
ENDBRANCH 45 47
ENDBRANCH 42 45
ENDBRANCH 40 41
BRANCH 40 58
ATOM     58  CB  TRP B   3      38.630  -1.305   6.018  1.00 38.41 LIG 0.07  C 
BRANCH 58 59
ATOM     59  CG  TRP B   3      38.183   0.082   5.920  1.00 37.10 LIG-0.03  A 
ATOM     60  CD1 TRP B   3      38.538   0.972   4.977  1.00 36.42 LIG 0.10  A 
ATOM     61  NE1 TRP B   3      37.954   2.176   5.226  1.00 36.34 LIG-0.36  N 
ATOM     62 HE1  TRP B   3      38.045   2.886   4.748  1.00 36.34 LIG 0.17  HD
ATOM     63  CE2 TRP B   3      37.197   2.073   6.362  1.00 35.80 LIG 0.04  A 
ATOM     64  CD2 TRP B   3      37.337   0.777   6.836  1.00 33.30 LIG-0.00  A 
ATOM     65  CZ2 TRP B   3      36.440   3.041   7.029  1.00 36.94 LIG 0.03  A 
ATOM     66  CE3 TRP B   3      36.660   0.409   7.988  1.00 37.18 LIG 0.01  A 
ATOM     67  CZ3 TRP B   3      35.877   1.360   8.640  1.00 37.29 LIG 0.00  A 
ATOM     68  CH2 TRP B   3      35.782   2.667   8.151  1.00 32.87 LIG 0.00  A 
ENDBRANCH 58 59
ENDBRANCH 40 58
ENDBRANCH 38 40
ENDBRANCH 1 36
TORSDOF 22
ENDMDL
MODEL 26
USER: ADFR SOLUTION from run 122
USER: SCORE 21.609110 LL:  -6.239 LR: -16.864 RR:   0.000 FEB: -10.302
USER: RMSD 8.554900
USER: SEED 121
USER: STATUS searching
USER: GENES 24
USER: genes 0 Translation |==|  0.47476 0.48957 0.66626
USER: genes 1 Rotation |==|  0.40852 0.90711 0.77470 0.52072
USER: genes 2 Torsion [C]-CA--CB-[CG] |==|  0.94925
USER: genes 3 Torsion [CA]-CB--CG-[CD1] |==|  0.32857
USER: genes 4 Torsion [N]-CA--C-[N] |==|  0.45556
USER: genes 5 Torsion [C]-N--CA-[CB] |==|  0.83238
USER: genes 6 Torsion [N]-CA--CB-[CG] |==|  0.73988
USER: genes 7 Torsion [CA]-CB--CG-[CD2] |==|  0.31967
USER: genes 8 Torsion [N]-CA--C-[N] |==|  0.30755
USER: genes 9 Torsion [C]-N--CA-[C] |==|  0.69676
USER: genes 10 Torsion [N]-CA--CB-[CG] |==|  0.25917
USER: genes 11 Torsion [CA]-CB--CG-[CD] |==|  0.28361
USER: genes 12 Torsion [CB]-CG--CD-[OE2] |==|  0.63449
USER: genes 13 Torsion [N]-CA--C-[N] |==|  0.98466
USER: genes 14 Torsion [C]-N--CA-[CB] |==|  0.20399
USER: genes 15 Torsion [N]-CA--C-[O] |==|  0.36943
USER: genes 16 Torsion [CB]-CA--N-[C] |==|  0.83643
USER: genes 17 Torsion [N]-C--CA-[N] |==|  0.17351
USER: genes 18 Torsion [C]-CA--N-[C] |==|  0.72918
USER: genes 19 Torsion [N]-C--CA-[N] |==|  0.88822
USER: genes 20 Torsion [C]-CA--N-[C] |==|  0.75516
USER: genes 21 Torsion [N]-C--CA-[N] |==|  0.00391
USER: genes 22 Torsion [C]-CA--CB-[CG] |==|  0.39509
USER: genes 23 Torsion [CA]-CB--CG-[CD1] |==|  0.90195
ROOT
ATOM      1  CA  LEU B   4      34.206  -3.205  13.400  1.00 36.98 LIG 0.18  C 
ENDROOT
BRANCH 1 2
ATOM      2  CB  LEU B   4      34.303  -3.827  14.793  1.00 35.91 LIG 0.04  C 
BRANCH 2 3
ATOM      3  CG  LEU B   4      34.720  -2.877  15.929  1.00 35.93 LIG-0.02  C 
ATOM      4  CD2 LEU B   4      36.030  -3.293  16.588  1.00 33.66 LIG 0.01  C 
ATOM      5  CD1 LEU B   4      33.593  -2.763  17.015  1.00 37.78 LIG 0.01  C 
ENDBRANCH 2 3
ENDBRANCH 1 2
BRANCH 1 6
ATOM      6  C   LEU B   4      34.113  -1.698  13.575  1.00 38.06 LIG 0.24  C 
ATOM      7  N   PHE B   5      32.964  -1.234  14.073  1.00 38.73 LIG-0.35  N 
ATOM      8 H    PHE B   5      32.348  -1.741  14.394  1.00 38.73 LIG 0.16  HD
ATOM      9 O    LEU B   4      35.042  -0.979  13.194  1.00 36.58 LIG-0.27  OA
BRANCH 7 10
ATOM     10  CA  PHE B   5      32.642   0.189  14.119  1.00 41.04 LIG 0.18  C 
BRANCH 10 11
ATOM     11  CB  PHE B   5      33.644   1.001  14.958  1.00 39.67 LIG 0.07  C 
BRANCH 11 12
ATOM     12  CG  PHE B   5      33.230   1.179  16.368  1.00 38.07 LIG-0.06  A 
ATOM     13  CD2 PHE B   5      33.960   0.625  17.387  1.00 33.96 LIG 0.01  A 
ATOM     14  CE2 PHE B   5      33.560   0.769  18.744  1.00 35.53 LIG 0.00  A 
ATOM     15  CZ  PHE B   5      32.388   1.430  19.057  1.00 34.38 LIG 0.00  A 
ATOM     16  CE1 PHE B   5      31.640   1.983  18.008  1.00 35.56 LIG 0.00  A 
ATOM     17  CD1 PHE B   5      32.067   1.854  16.676  1.00 35.27 LIG 0.01  A 
ENDBRANCH 11 12
ENDBRANCH 10 11
BRANCH 10 18
ATOM     18  C   PHE B   5      32.588   0.806  12.755  1.00 43.64 LIG 0.24  C 
ATOM     19 O    PHE B   5      33.628   0.905  12.088  1.00 43.27 LIG-0.27  OA
ATOM     20  N   GLU B   6      31.374   1.173  12.338  1.00 47.41 LIG-0.35  N 
ATOM     21 H    GLU B   6      30.647   0.859  12.676  1.00 47.41 LIG 0.16  HD
BRANCH 20 22
ATOM     22  CA  GLU B   6      31.146   2.155  11.254  1.00 51.55 LIG 0.18  C 
BRANCH 22 23
ATOM     23  CB  GLU B   6      30.187   1.613  10.179  1.00 52.47 LIG 0.04  C 
BRANCH 23 24
ATOM     24  CG  GLU B   6      28.692   2.016  10.443  1.00 56.11 LIG 0.12  C 
BRANCH 24 25
ATOM     25  CD  GLU B   6      28.168   3.186   9.572  1.00 59.86 LIG 0.17  C 
ATOM     26 OE2  GLU B   6      27.563   4.122  10.126  1.00 64.67 LIG-0.65  OA
ATOM     27 OE1  GLU B   6      28.380   3.216   8.344  1.00 64.70 LIG-0.65  OA
ENDBRANCH 24 25
ENDBRANCH 23 24
ENDBRANCH 22 23
BRANCH 22 28
ATOM     28  C   GLU B   6      30.583   3.458  11.887  1.00 53.54 LIG 0.24  C 
ATOM     29 O    GLU B   6      30.361   4.475  11.203  1.00 53.95 LIG-0.27  OA
ATOM     30  N   ALA B   7      30.309   3.420  13.191  1.00 56.31 LIG-0.35  N 
ATOM     31 H    ALA B   7      30.462   2.741  13.696  1.00 56.31 LIG 0.16  HD
BRANCH 30 32
ATOM     32  CA  ALA B   7      29.702   4.585  13.889  1.00 57.55 LIG 0.16  C 
ATOM     33  CB  ALA B   7      28.217   4.747  13.525  1.00 58.11 LIG 0.04  C 
BRANCH 32 34
ATOM     34  C   ALA B   7      29.858   4.450  15.394  1.00 58.67 LIG 0.22  C 
ATOM     35 O    ALA B   7      30.256   5.402  16.059  1.00 60.59 LIG-0.29  OA
ENDBRANCH 32 34
ENDBRANCH 30 32
ENDBRANCH 22 28
ENDBRANCH 20 22
ENDBRANCH 10 18
ENDBRANCH 7 10
ENDBRANCH 1 6
BRANCH 1 36
ATOM     36  N   LEU B   4      35.293  -3.648  12.534  1.00 37.09 LIG-0.35  N 
ATOM     37 H    LEU B   4      35.031  -4.047  11.818  1.00 37.09 LIG 0.16  HD
ATOM     38  C   TRP B   3      36.581  -3.446  12.839  1.00 37.19 LIG 0.24  C 
ATOM     39 O    TRP B   3      36.932  -2.889  13.830  1.00 36.60 LIG-0.27  OA
BRANCH 38 40
ATOM     40  CA  TRP B   3      37.628  -3.901  11.830  1.00 38.87 LIG 0.18  C 
BRANCH 40 41
ATOM     41  N   TRP B   3      37.449  -3.154  10.582  1.00 40.30 LIG-0.35  N 
ATOM     42  C   ALA B   2      36.762  -3.692   9.560  1.00 43.05 LIG 0.24  C 
ATOM     43 O    ALA B   2      36.409  -4.874   9.537  1.00 42.86 LIG-0.27  OA
ATOM     44 H    TRP B   3      37.810  -2.373  10.571  1.00 40.30 LIG 0.16  HD
BRANCH 42 45
ATOM     45  CA  ALA B   2      36.481  -2.804   8.361  1.00 44.71 LIG 0.17  C 
ATOM     46  CB  ALA B   2      37.725  -2.708   7.438  1.00 44.36 LIG 0.04  C 
BRANCH 45 47
ATOM     47  N   ALA B   2      36.134  -1.466   8.842  1.00 46.59 LIG-0.35  N 
ATOM     48 H    ALA B   2      36.803  -0.931   8.909  1.00 46.59 LIG 0.16  HD
ATOM     49  C   PRO B   1      34.895  -1.134   9.141  1.00 48.49 LIG 0.25  C 
ATOM     50 O    PRO B   1      33.999  -1.962   9.184  1.00 48.43 LIG-0.27  OA
BRANCH 49 51
ATOM     51  CA  PRO B   1      34.643   0.402   9.439  1.00 50.22 LIG 0.28  C 
ATOM     52  N   PRO B   1      35.852   1.266   9.305  1.00 50.48 LIG-0.06  N 
ATOM     53 H3   PRO B   1      35.925   1.759  10.006  1.00 50.48 LIG 0.28  HD
ATOM     54 H2   PRO B   1      36.552   0.767   9.274  1.00 50.48 LIG 0.28  HD
ATOM     55  CD  PRO B   1      35.822   2.129   8.109  1.00 50.94 LIG 0.23  C 
ATOM     56  CG  PRO B   1      34.460   1.859   7.473  1.00 51.81 LIG 0.03  C 
ATOM     57  CB  PRO B   1      33.631   1.031   8.461  1.00 50.52 LIG 0.04  C 
ENDBRANCH 49 51
ENDBRANCH 45 47
ENDBRANCH 42 45
ENDBRANCH 40 41
BRANCH 40 58
ATOM     58  CB  TRP B   3      39.039  -3.733  12.441  1.00 38.41 LIG 0.07  C 
BRANCH 58 59
ATOM     59  CG  TRP B   3      39.895  -4.845  12.035  1.00 37.10 LIG-0.03  A 
ATOM     60  CD1 TRP B   3      39.516  -6.122  11.857  1.00 36.42 LIG 0.10  A 
ATOM     61  NE1 TRP B   3      40.589  -6.885  11.513  1.00 36.34 LIG-0.36  N 
ATOM     62 HE1  TRP B   3      40.572  -7.730  11.352  1.00 36.34 LIG 0.17  HD
ATOM     63  CE2 TRP B   3      41.701  -6.087  11.467  1.00 35.80 LIG 0.04  A 
ATOM     64  CD2 TRP B   3      41.304  -4.804  11.812  1.00 33.30 LIG-0.00  A 
ATOM     65  CZ2 TRP B   3      43.032  -6.416  11.193  1.00 36.94 LIG 0.03  A 
ATOM     66  CE3 TRP B   3      42.253  -3.794  11.837  1.00 37.18 LIG 0.01  A 
ATOM     67  CZ3 TRP B   3      43.576  -4.108  11.534  1.00 37.29 LIG 0.00  A 
ATOM     68  CH2 TRP B   3      43.947  -5.420  11.219  1.00 32.87 LIG 0.00  A 
ENDBRANCH 58 59
ENDBRANCH 40 58
ENDBRANCH 38 40
ENDBRANCH 1 36
TORSDOF 22
ENDMDL
MODEL 27
USER: ADFR SOLUTION from run 127
USER: SCORE 20.071983 LL:  -5.987 LR: -16.835 RR:   0.000 FEB: -10.272
USER: RMSD 6.056236
USER: SEED 126
USER: STATUS no improvement in best in 7 clusters for 5 generations
USER: GENES 24
USER: genes 0 Translation |==|  0.51847 0.69048 0.46087
USER: genes 1 Rotation |==|  0.54031 0.43694 0.68165 0.95978
USER: genes 2 Torsion [C]-CA--CB-[CG] |==|  0.35278
USER: genes 3 Torsion [CA]-CB--CG-[CD1] |==|  0.95961
USER: genes 4 Torsion [N]-CA--C-[N] |==|  0.11618
USER: genes 5 Torsion [C]-N--CA-[CB] |==|  0.54445
USER: genes 6 Torsion [N]-CA--CB-[CG] |==|  0.50001
USER: genes 7 Torsion [CA]-CB--CG-[CD2] |==|  0.64873
USER: genes 8 Torsion [N]-CA--C-[N] |==|  0.28156
USER: genes 9 Torsion [C]-N--CA-[C] |==|  0.88535
USER: genes 10 Torsion [N]-CA--CB-[CG] |==|  0.77871
USER: genes 11 Torsion [CA]-CB--CG-[CD] |==|  0.84444
USER: genes 12 Torsion [CB]-CG--CD-[OE2] |==|  0.66134
USER: genes 13 Torsion [N]-CA--C-[N] |==|  0.34000
USER: genes 14 Torsion [C]-N--CA-[CB] |==|  0.22366
USER: genes 15 Torsion [N]-CA--C-[O] |==|  0.96081
USER: genes 16 Torsion [CB]-CA--N-[C] |==|  0.20066
USER: genes 17 Torsion [N]-C--CA-[N] |==|  0.21996
USER: genes 18 Torsion [C]-CA--N-[C] |==|  0.17973
USER: genes 19 Torsion [N]-C--CA-[N] |==|  0.02554
USER: genes 20 Torsion [C]-CA--N-[C] |==|  0.18337
USER: genes 21 Torsion [N]-C--CA-[N] |==|  0.03721
USER: genes 22 Torsion [C]-CA--CB-[CG] |==|  0.56522
USER: genes 23 Torsion [CA]-CB--CG-[CD1] |==|  0.86982
ROOT
ATOM      1  CA  LEU B   4      35.157   0.712   8.779  1.00 36.98 LIG 0.18  C 
ENDROOT
BRANCH 1 2
ATOM      2  CB  LEU B   4      34.456   1.497   7.670  1.00 35.91 LIG 0.04  C 
BRANCH 2 3
ATOM      3  CG  LEU B   4      35.251   2.669   7.067  1.00 35.93 LIG-0.02  C 
ATOM      4  CD2 LEU B   4      35.722   2.385   5.645  1.00 33.66 LIG 0.01  C 
ATOM      5  CD1 LEU B   4      36.479   3.045   7.967  1.00 37.78 LIG 0.01  C 
ENDBRANCH 2 3
ENDBRANCH 1 2
BRANCH 1 6
ATOM      6  C   LEU B   4      34.218   0.670   9.974  1.00 38.06 LIG 0.24  C 
ATOM      7  N   PHE B   5      34.534  -0.199  10.938  1.00 38.73 LIG-0.35  N 
ATOM      8 H    PHE B   5      35.277  -0.630  10.963  1.00 38.73 LIG 0.16  HD
ATOM      9 O    LEU B   4      33.195   1.362   9.974  1.00 36.58 LIG-0.27  OA
BRANCH 7 10
ATOM     10  CA  PHE B   5      33.639  -0.501  12.051  1.00 41.04 LIG 0.18  C 
BRANCH 10 11
ATOM     11  CB  PHE B   5      34.353  -1.208  13.217  1.00 39.67 LIG 0.07  C 
BRANCH 11 12
ATOM     12  CG  PHE B   5      33.459  -1.523  14.355  1.00 38.07 LIG-0.06  A 
ATOM     13  CD2 PHE B   5      33.775  -1.116  15.625  1.00 33.96 LIG 0.01  A 
ATOM     14  CE2 PHE B   5      32.937  -1.432  16.730  1.00 35.53 LIG 0.00  A 
ATOM     15  CZ  PHE B   5      31.809  -2.209  16.547  1.00 34.38 LIG 0.00  A 
ATOM     16  CE1 PHE B   5      31.501  -2.632  15.247  1.00 35.56 LIG 0.00  A 
ATOM     17  CD1 PHE B   5      32.326  -2.286  14.165  1.00 35.27 LIG 0.01  A 
ENDBRANCH 11 12
ENDBRANCH 10 11
BRANCH 10 18
ATOM     18  C   PHE B   5      32.979   0.726  12.602  1.00 43.64 LIG 0.24  C 
ATOM     19 O    PHE B   5      33.624   1.491  13.331  1.00 43.27 LIG-0.27  OA
ATOM     20  N   GLU B   6      31.716   0.922  12.214  1.00 47.41 LIG-0.35  N 
ATOM     21 H    GLU B   6      31.377   0.552  11.514  1.00 47.41 LIG 0.16  HD
BRANCH 20 22
ATOM     22  CA  GLU B   6      30.765   1.793  12.941  1.00 51.55 LIG 0.18  C 
BRANCH 22 23
ATOM     23  CB  GLU B   6      29.307   1.526  12.526  1.00 52.47 LIG 0.04  C 
BRANCH 23 24
ATOM     24  CG  GLU B   6      28.928   2.220  11.169  1.00 56.11 LIG 0.12  C 
BRANCH 24 25
ATOM     25  CD  GLU B   6      29.158   3.752  11.133  1.00 59.86 LIG 0.17  C 
ATOM     26 OE2  GLU B   6      28.193   4.498  10.886  1.00 64.67 LIG-0.65  OA
ATOM     27 OE1  GLU B   6      30.278   4.238  11.386  1.00 64.70 LIG-0.65  OA
ENDBRANCH 24 25
ENDBRANCH 23 24
ENDBRANCH 22 23
BRANCH 22 28
ATOM     28  C   GLU B   6      30.955   1.556  14.466  1.00 53.54 LIG 0.24  C 
ATOM     29 O    GLU B   6      30.864   0.418  14.967  1.00 53.95 LIG-0.27  OA
ATOM     30  N   ALA B   7      31.261   2.622  15.204  1.00 56.31 LIG-0.35  N 
ATOM     31 H    ALA B   7      31.319   3.422  14.894  1.00 56.31 LIG 0.16  HD
BRANCH 30 32
ATOM     32  CA  ALA B   7      31.534   2.502  16.661  1.00 57.55 LIG 0.16  C 
ATOM     33  CB  ALA B   7      32.970   2.020  16.926  1.00 58.11 LIG 0.04  C 
BRANCH 32 34
ATOM     34  C   ALA B   7      31.292   3.827  17.364  1.00 58.67 LIG 0.22  C 
ATOM     35 O    ALA B   7      31.177   4.859  16.708  1.00 60.59 LIG-0.29  OA
ENDBRANCH 32 34
ENDBRANCH 30 32
ENDBRANCH 22 28
ENDBRANCH 20 22
ENDBRANCH 10 18
ENDBRANCH 7 10
ENDBRANCH 1 6
BRANCH 1 36
ATOM     36  N   LEU B   4      35.606  -0.595   8.314  1.00 37.09 LIG-0.35  N 
ATOM     37 H    LEU B   4      35.147  -1.254   8.623  1.00 37.09 LIG 0.16  HD
ATOM     38  C   TRP B   3      36.642  -0.743   7.479  1.00 37.19 LIG 0.24  C 
ATOM     39 O    TRP B   3      37.267   0.177   7.053  1.00 36.60 LIG-0.27  OA
BRANCH 38 40
ATOM     40  CA  TRP B   3      36.984  -2.153   7.016  1.00 38.87 LIG 0.18  C 
BRANCH 40 41
ATOM     41  N   TRP B   3      36.060  -2.545   5.948  1.00 40.30 LIG-0.35  N 
ATOM     42  C   ALA B   2      36.063  -1.893   4.773  1.00 43.05 LIG 0.24  C 
ATOM     43 O    ALA B   2      36.690  -0.847   4.588  1.00 42.86 LIG-0.27  OA
ATOM     44 H    TRP B   3      35.540  -3.203   6.140  1.00 40.30 LIG 0.16  HD
BRANCH 42 45
ATOM     45  CA  ALA B   2      35.193  -2.451   3.660  1.00 44.71 LIG 0.17  C 
ATOM     46  CB  ALA B   2      34.295  -1.342   3.050  1.00 44.36 LIG 0.04  C 
BRANCH 45 47
ATOM     47  N   ALA B   2      34.346  -3.506   4.215  1.00 46.59 LIG-0.35  N 
ATOM     48 H    ALA B   2      34.515  -4.292   3.909  1.00 46.59 LIG 0.16  HD
ATOM     49  C   PRO B   1      33.408  -3.251   5.104  1.00 48.49 LIG 0.25  C 
ATOM     50 O    PRO B   1      33.091  -2.108   5.395  1.00 48.43 LIG-0.27  OA
BRANCH 49 51
ATOM     51  CA  PRO B   1      32.722  -4.515   5.768  1.00 50.22 LIG 0.28  C 
ATOM     52  N   PRO B   1      33.437  -5.804   5.534  1.00 50.48 LIG-0.06  N 
ATOM     53 H3   PRO B   1      32.873  -6.392   5.258  1.00 50.48 LIG 0.28  HD
ATOM     54 H2   PRO B   1      34.014  -5.695   4.906  1.00 50.48 LIG 0.28  HD
ATOM     55  CD  PRO B   1      34.122  -6.317   6.735  1.00 50.94 LIG 0.23  C 
ATOM     56  CG  PRO B   1      33.754  -5.329   7.840  1.00 51.81 LIG 0.03  C 
ATOM     57  CB  PRO B   1      32.654  -4.406   7.305  1.00 50.52 LIG 0.04  C 
ENDBRANCH 49 51
ENDBRANCH 45 47
ENDBRANCH 42 45
ENDBRANCH 40 41
BRANCH 40 58
ATOM     58  CB  TRP B   3      38.468  -2.207   6.584  1.00 38.41 LIG 0.07  C 
BRANCH 58 59
ATOM     59  CG  TRP B   3      38.676  -3.313   5.652  1.00 37.10 LIG-0.03  A 
ATOM     60  CD1 TRP B   3      38.233  -4.574   5.795  1.00 36.42 LIG 0.10  A 
ATOM     61  NE1 TRP B   3      38.647  -5.338   4.747  1.00 36.34 LIG-0.36  N 
ATOM     62 HE1  TRP B   3      38.476  -6.173   4.638  1.00 36.34 LIG 0.17  HD
ATOM     63  CE2 TRP B   3      39.383  -4.557   3.896  1.00 35.80 LIG 0.04  A 
ATOM     64  CD2 TRP B   3      39.440  -3.285   4.446  1.00 33.30 LIG-0.00  A 
ATOM     65  CZ2 TRP B   3      40.040  -4.894   2.709  1.00 36.94 LIG 0.03  A 
ATOM     66  CE3 TRP B   3      40.131  -2.293   3.768  1.00 37.18 LIG 0.01  A 
ATOM     67  CZ3 TRP B   3      40.762  -2.615   2.567  1.00 37.29 LIG 0.00  A 
ATOM     68  CH2 TRP B   3      40.709  -3.916   2.057  1.00 32.87 LIG 0.00  A 
ENDBRANCH 58 59
ENDBRANCH 40 58
ENDBRANCH 38 40
ENDBRANCH 1 36
TORSDOF 22
ENDMDL
MODEL 28
USER: ADFR SOLUTION from run 145
USER: SCORE 20.478681 LL:  -6.236 LR: -16.828 RR:   0.000 FEB: -10.266
USER: RMSD 6.661261
USER: SEED 144
USER: STATUS no improvement in best in 11 clusters for 5 generations
USER: GENES 24
USER: genes 0 Translation |==|  0.53275 0.71224 0.46591
USER: genes 1 Rotation |==|  0.56062 0.30298 0.70968 0.90440
USER: genes 2 Torsion [C]-CA--CB-[CG] |==|  0.55231
USER: genes 3 Torsion [CA]-CB--CG-[CD1] |==|  0.43320
USER: genes 4 Torsion [N]-CA--C-[N] |==|  0.36485
USER: genes 5 Torsion [C]-N--CA-[CB] |==|  0.37671
USER: genes 6 Torsion [N]-CA--CB-[CG] |==|  0.79902
USER: genes 7 Torsion [CA]-CB--CG-[CD2] |==|  0.50967
USER: genes 8 Torsion [N]-CA--C-[N] |==|  0.56491
USER: genes 9 Torsion [C]-N--CA-[C] |==|  0.62327
USER: genes 10 Torsion [N]-CA--CB-[CG] |==|  0.54825
USER: genes 11 Torsion [CA]-CB--CG-[CD] |==|  0.19548
USER: genes 12 Torsion [CB]-CG--CD-[OE2] |==|  0.91502
USER: genes 13 Torsion [N]-CA--C-[N] |==|  0.12016
USER: genes 14 Torsion [C]-N--CA-[CB] |==|  0.39554
USER: genes 15 Torsion [N]-CA--C-[O] |==|  0.09785
USER: genes 16 Torsion [CB]-CA--N-[C] |==|  0.87222
USER: genes 17 Torsion [N]-C--CA-[N] |==|  0.48185
USER: genes 18 Torsion [C]-CA--N-[C] |==|  0.76741
USER: genes 19 Torsion [N]-C--CA-[N] |==|  0.85657
USER: genes 20 Torsion [C]-CA--N-[C] |==|  0.82629
USER: genes 21 Torsion [N]-C--CA-[N] |==|  0.62844
USER: genes 22 Torsion [C]-CA--CB-[CG] |==|  0.75828
USER: genes 23 Torsion [CA]-CB--CG-[CD1] |==|  0.21948
ROOT
ATOM      1  CA  LEU B   4      35.467   1.137   8.892  1.00 36.98 LIG 0.18  C 
ENDROOT
BRANCH 1 2
ATOM      2  CB  LEU B   4      35.203   2.162   7.789  1.00 35.91 LIG 0.04  C 
BRANCH 2 3
ATOM      3  CG  LEU B   4      36.371   2.432   6.825  1.00 35.93 LIG-0.02  C 
ATOM      4  CD2 LEU B   4      37.400   3.394   7.407  1.00 33.66 LIG 0.01  C 
ATOM      5  CD1 LEU B   4      35.855   2.979   5.447  1.00 37.78 LIG 0.01  C 
ENDBRANCH 2 3
ENDBRANCH 1 2
BRANCH 1 6
ATOM      6  C   LEU B   4      34.119   0.668   9.416  1.00 38.06 LIG 0.24  C 
ATOM      7  N   PHE B   5      33.741   1.168  10.595  1.00 38.73 LIG-0.35  N 
ATOM      8 H    PHE B   5      34.157   1.806  10.994  1.00 38.73 LIG 0.16  HD
ATOM      9 O    LEU B   4      33.482  -0.185   8.789  1.00 36.58 LIG-0.27  OA
BRANCH 7 10
ATOM     10  CA  PHE B   5      32.577   0.675  11.324  1.00 41.04 LIG 0.18  C 
BRANCH 10 11
ATOM     11  CB  PHE B   5      32.851   0.480  12.826  1.00 39.67 LIG 0.07  C 
BRANCH 11 12
ATOM     12  CG  PHE B   5      33.718  -0.682  13.124  1.00 38.07 LIG-0.06  A 
ATOM     13  CD2 PHE B   5      33.997  -1.032  14.420  1.00 33.96 LIG 0.01  A 
ATOM     14  CE2 PHE B   5      34.847  -2.133  14.719  1.00 35.53 LIG 0.00  A 
ATOM     15  CZ  PHE B   5      35.454  -2.839  13.699  1.00 34.38 LIG 0.00  A 
ATOM     16  CE1 PHE B   5      35.174  -2.467  12.378  1.00 35.56 LIG 0.00  A 
ATOM     17  CD1 PHE B   5      34.309  -1.395  12.103  1.00 35.27 LIG 0.01  A 
ENDBRANCH 11 12
ENDBRANCH 10 11
BRANCH 10 18
ATOM     18  C   PHE B   5      31.394   1.586  11.194  1.00 43.64 LIG 0.24  C 
ATOM     19 O    PHE B   5      31.298   2.325  10.204  1.00 43.27 LIG-0.27  OA
ATOM     20  N   GLU B   6      30.488   1.492  12.170  1.00 47.41 LIG-0.35  N 
ATOM     21 H    GLU B   6      30.424   0.807  12.688  1.00 47.41 LIG 0.16  HD
BRANCH 20 22
ATOM     22  CA  GLU B   6      29.498   2.553  12.468  1.00 51.55 LIG 0.18  C 
BRANCH 22 23
ATOM     23  CB  GLU B   6      28.103   2.209  11.915  1.00 52.47 LIG 0.04  C 
BRANCH 23 24
ATOM     24  CG  GLU B   6      27.162   3.464  11.826  1.00 56.11 LIG 0.12  C 
BRANCH 24 25
ATOM     25  CD  GLU B   6      27.548   4.492  10.732  1.00 59.86 LIG 0.17  C 
ATOM     26 OE2  GLU B   6      28.747   4.619  10.424  1.00 64.67 LIG-0.65  OA
ATOM     27 OE1  GLU B   6      26.674   5.153  10.136  1.00 64.70 LIG-0.65  OA
ENDBRANCH 24 25
ENDBRANCH 23 24
ENDBRANCH 22 23
BRANCH 22 28
ATOM     28  C   GLU B   6      29.445   2.750  14.010  1.00 53.54 LIG 0.24  C 
ATOM     29 O    GLU B   6      28.363   2.844  14.620  1.00 53.95 LIG-0.27  OA
ATOM     30  N   ALA B   7      30.612   2.772  14.650  1.00 56.31 LIG-0.35  N 
ATOM     31 H    ALA B   7      31.378   2.723  14.261  1.00 56.31 LIG 0.16  HD
BRANCH 30 32
ATOM     32  CA  ALA B   7      30.680   2.886  16.132  1.00 57.55 LIG 0.16  C 
ATOM     33  CB  ALA B   7      31.817   2.028  16.710  1.00 58.11 LIG 0.04  C 
BRANCH 32 34
ATOM     34  C   ALA B   7      30.857   4.336  16.552  1.00 58.67 LIG 0.22  C 
ATOM     35 O    ALA B   7      30.316   5.232  15.911  1.00 60.59 LIG-0.29  OA
ENDBRANCH 32 34
ENDBRANCH 30 32
ENDBRANCH 22 28
ENDBRANCH 20 22
ENDBRANCH 10 18
ENDBRANCH 7 10
ENDBRANCH 1 6
BRANCH 1 36
ATOM     36  N   LEU B   4      36.345   0.065   8.435  1.00 37.09 LIG-0.35  N 
ATOM     37 H    LEU B   4      36.977  -0.129   8.985  1.00 37.09 LIG 0.16  HD
ATOM     38  C   TRP B   3      36.171  -0.552   7.259  1.00 37.19 LIG 0.24  C 
ATOM     39 O    TRP B   3      35.290  -0.278   6.508  1.00 36.60 LIG-0.27  OA
BRANCH 38 40
ATOM     40  CA  TRP B   3      37.115  -1.696   6.913  1.00 38.87 LIG 0.18  C 
BRANCH 40 41
ATOM     41  N   TRP B   3      36.663  -2.332   5.672  1.00 40.30 LIG-0.35  N 
ATOM     42  C   ALA B   2      35.702  -3.271   5.700  1.00 43.05 LIG 0.24  C 
ATOM     43 O    ALA B   2      35.284  -3.771   6.748  1.00 42.86 LIG-0.27  OA
ATOM     44 H    TRP B   3      37.056  -2.057   4.957  1.00 40.30 LIG 0.16  HD
BRANCH 42 45
ATOM     45  CA  ALA B   2      35.173  -3.772   4.368  1.00 44.71 LIG 0.17  C 
ATOM     46  CB  ALA B   2      36.255  -4.590   3.614  1.00 44.36 LIG 0.04  C 
BRANCH 45 47
ATOM     47  N   ALA B   2      34.788  -2.618   3.555  1.00 46.59 LIG-0.35  N 
ATOM     48 H    ALA B   2      35.237  -2.534   2.827  1.00 46.59 LIG 0.16  HD
ATOM     49  C   PRO B   1      33.833  -1.791   3.927  1.00 48.49 LIG 0.25  C 
ATOM     50 O    PRO B   1      33.328  -1.851   5.037  1.00 48.43 LIG-0.27  OA
BRANCH 49 51
ATOM     51  CA  PRO B   1      33.384  -0.722   2.848  1.00 50.22 LIG 0.28  C 
ATOM     52  N   PRO B   1      33.255   0.669   3.371  1.00 50.48 LIG-0.06  N 
ATOM     53 H3   PRO B   1      32.495   0.992   3.128  1.00 50.48 LIG 0.28  HD
ATOM     54 H2   PRO B   1      33.255   0.648   4.231  1.00 50.48 LIG 0.28  HD
ATOM     55  CD  PRO B   1      34.330   1.568   2.910  1.00 50.94 LIG 0.23  C 
ATOM     56  CG  PRO B   1      35.165   0.713   1.959  1.00 51.81 LIG 0.03  C 
ATOM     57  CB  PRO B   1      34.401  -0.589   1.696  1.00 50.52 LIG 0.04  C 
ENDBRANCH 49 51
ENDBRANCH 45 47
ENDBRANCH 42 45
ENDBRANCH 40 41
BRANCH 40 58
ATOM     58  CB  TRP B   3      38.563  -1.160   6.827  1.00 38.41 LIG 0.07  C 
BRANCH 58 59
ATOM     59  CG  TRP B   3      38.832  -0.662   5.480  1.00 37.10 LIG-0.03  A 
ATOM     60  CD1 TRP B   3      38.448   0.523   4.975  1.00 36.42 LIG 0.10  A 
ATOM     61  NE1 TRP B   3      38.846   0.629   3.677  1.00 36.34 LIG-0.36  N 
ATOM     62 HE1  TRP B   3      38.705   1.305   3.164  1.00 36.34 LIG 0.17  HD
ATOM     63  CE2 TRP B   3      39.506  -0.517   3.323  1.00 35.80 LIG 0.04  A 
ATOM     64  CD2 TRP B   3      39.495  -1.358   4.425  1.00 33.30 LIG-0.00  A 
ATOM     65  CZ2 TRP B   3      40.067  -0.889   2.097  1.00 36.94 LIG 0.03  A 
ATOM     66  CE3 TRP B   3      40.109  -2.597   4.328  1.00 37.18 LIG 0.01  A 
ATOM     67  CZ3 TRP B   3      40.699  -2.961   3.119  1.00 37.29 LIG 0.00  A 
ATOM     68  CH2 TRP B   3      40.665  -2.099   2.017  1.00 32.87 LIG 0.00  A 
ENDBRANCH 58 59
ENDBRANCH 40 58
ENDBRANCH 38 40
ENDBRANCH 1 36
TORSDOF 22
ENDMDL
MODEL 29
USER: ADFR SOLUTION from run 59
USER: SCORE 21.444193 LL:  -7.040 LR: -16.832 RR:   0.000 FEB: -10.269
USER: RMSD 6.245505
USER: SEED 58
USER: STATUS no improvement in best in 3 clusters for 5 generations
USER: GENES 24
USER: genes 0 Translation |==|  0.61968 0.58329 0.39248
USER: genes 1 Rotation |==|  0.72484 0.33744 0.71341 0.85704
USER: genes 2 Torsion [C]-CA--CB-[CG] |==|  0.30105
USER: genes 3 Torsion [CA]-CB--CG-[CD1] |==|  0.27715
USER: genes 4 Torsion [N]-CA--C-[N] |==|  0.42222
USER: genes 5 Torsion [C]-N--CA-[CB] |==|  0.22350
USER: genes 6 Torsion [N]-CA--CB-[CG] |==|  0.18525
USER: genes 7 Torsion [CA]-CB--CG-[CD2] |==|  0.29157
USER: genes 8 Torsion [N]-CA--C-[N] |==|  0.99122
USER: genes 9 Torsion [C]-N--CA-[C] |==|  0.61859
USER: genes 10 Torsion [N]-CA--CB-[CG] |==|  0.52944
USER: genes 11 Torsion [CA]-CB--CG-[CD] |==|  0.73337
USER: genes 12 Torsion [CB]-CG--CD-[OE2] |==|  0.00280
USER: genes 13 Torsion [N]-CA--C-[N] |==|  0.39862
USER: genes 14 Torsion [C]-N--CA-[CB] |==|  0.29091
USER: genes 15 Torsion [N]-CA--C-[O] |==|  0.52152
USER: genes 16 Torsion [CB]-CA--N-[C] |==|  0.20840
USER: genes 17 Torsion [N]-C--CA-[N] |==|  0.87398
USER: genes 18 Torsion [C]-CA--N-[C] |==|  0.23270
USER: genes 19 Torsion [N]-C--CA-[N] |==|  0.41523
USER: genes 20 Torsion [C]-CA--N-[C] |==|  0.78188
USER: genes 21 Torsion [N]-C--CA-[N] |==|  0.90449
USER: genes 22 Torsion [C]-CA--CB-[CG] |==|  0.06649
USER: genes 23 Torsion [CA]-CB--CG-[CD1] |==|  0.19456
ROOT
ATOM      1  CA  LEU B   4      37.358  -1.378   7.240  1.00 36.98 LIG 0.18  C 
ENDROOT
BRANCH 1 2
ATOM      2  CB  LEU B   4      36.428  -0.211   6.907  1.00 35.91 LIG 0.04  C 
BRANCH 2 3
ATOM      3  CG  LEU B   4      36.455   0.974   7.887  1.00 35.93 LIG-0.02  C 
ATOM      4  CD2 LEU B   4      35.059   1.496   8.211  1.00 33.66 LIG 0.01  C 
ATOM      5  CD1 LEU B   4      37.344   2.145   7.338  1.00 37.78 LIG 0.01  C 
ENDBRANCH 2 3
ENDBRANCH 1 2
BRANCH 1 6
ATOM      6  C   LEU B   4      36.492  -2.538   7.705  1.00 38.06 LIG 0.24  C 
ATOM      7  N   PHE B   5      36.123  -2.519   8.988  1.00 38.73 LIG-0.35  N 
ATOM      8 H    PHE B   5      36.252  -1.845   9.508  1.00 38.73 LIG 0.16  HD
ATOM      9 O    LEU B   4      36.233  -3.460   6.924  1.00 36.58 LIG-0.27  OA
BRANCH 7 10
ATOM     10  CA  PHE B   5      35.462  -3.647   9.636  1.00 41.04 LIG 0.18  C 
BRANCH 10 11
ATOM     11  CB  PHE B   5      36.446  -4.750  10.065  1.00 39.67 LIG 0.07  C 
BRANCH 11 12
ATOM     12  CG  PHE B   5      37.372  -4.331  11.142  1.00 38.07 LIG-0.06  A 
ATOM     13  CD2 PHE B   5      37.193  -4.770  12.428  1.00 33.96 LIG 0.01  A 
ATOM     14  CE2 PHE B   5      38.062  -4.358  13.476  1.00 35.53 LIG 0.00  A 
ATOM     15  CZ  PHE B   5      39.076  -3.455  13.222  1.00 34.38 LIG 0.00  A 
ATOM     16  CE1 PHE B   5      39.244  -3.000  11.907  1.00 35.56 LIG 0.00  A 
ATOM     17  CD1 PHE B   5      38.393  -3.442  10.881  1.00 35.27 LIG 0.01  A 
ENDBRANCH 11 12
ENDBRANCH 10 11
BRANCH 10 18
ATOM     18  C   PHE B   5      34.688  -3.234  10.851  1.00 43.64 LIG 0.24  C 
ATOM     19 O    PHE B   5      34.057  -4.086  11.491  1.00 43.27 LIG-0.27  OA
ATOM     20  N   GLU B   6      34.779  -1.943  11.177  1.00 47.41 LIG-0.35  N 
ATOM     21 H    GLU B   6      35.416  -1.433  10.903  1.00 47.41 LIG 0.16  HD
BRANCH 20 22
ATOM     22  CA  GLU B   6      33.798  -1.249  12.044  1.00 51.55 LIG 0.18  C 
BRANCH 22 23
ATOM     23  CB  GLU B   6      34.310  -1.102  13.488  1.00 52.47 LIG 0.04  C 
BRANCH 23 24
ATOM     24  CG  GLU B   6      33.192  -0.614  14.479  1.00 56.11 LIG 0.12  C 
BRANCH 24 25
ATOM     25  CD  GLU B   6      33.175   0.913  14.741  1.00 59.86 LIG 0.17  C 
ATOM     26 OE2  GLU B   6      34.005   1.632  14.155  1.00 64.67 LIG-0.65  OA
ATOM     27 OE1  GLU B   6      32.321   1.426  15.491  1.00 64.70 LIG-0.65  OA
ENDBRANCH 24 25
ENDBRANCH 23 24
ENDBRANCH 22 23
BRANCH 22 28
ATOM     28  C   GLU B   6      33.498   0.143  11.421  1.00 53.54 LIG 0.24  C 
ATOM     29 O    GLU B   6      34.375   0.795  10.823  1.00 53.95 LIG-0.27  OA
ATOM     30  N   ALA B   7      32.245   0.586  11.523  1.00 56.31 LIG-0.35  N 
ATOM     31 H    ALA B   7      31.619   0.170  11.939  1.00 56.31 LIG 0.16  HD
BRANCH 30 32
ATOM     32  CA  ALA B   7      31.827   1.873  10.905  1.00 57.55 LIG 0.16  C 
ATOM     33  CB  ALA B   7      31.000   1.641   9.630  1.00 58.11 LIG 0.04  C 
BRANCH 32 34
ATOM     34  C   ALA B   7      31.034   2.712  11.893  1.00 58.67 LIG 0.22  C 
ATOM     35 O    ALA B   7      30.483   3.744  11.521  1.00 60.59 LIG-0.29  OA
ENDBRANCH 32 34
ENDBRANCH 30 32
ENDBRANCH 22 28
ENDBRANCH 20 22
ENDBRANCH 10 18
ENDBRANCH 7 10
ENDBRANCH 1 6
BRANCH 1 36
ATOM     36  N   LEU B   4      38.248  -1.694   6.128  1.00 37.09 LIG-0.35  N 
ATOM     37 H    LEU B   4      38.031  -2.406   5.697  1.00 37.09 LIG 0.16  HD
ATOM     38  C   TRP B   3      39.305  -0.933   5.816  1.00 37.19 LIG 0.24  C 
ATOM     39 O    TRP B   3      39.591   0.054   6.416  1.00 36.60 LIG-0.27  OA
BRANCH 38 40
ATOM     40  CA  TRP B   3      40.129  -1.330   4.598  1.00 38.87 LIG 0.18  C 
BRANCH 40 41
ATOM     41  N   TRP B   3      40.371  -2.775   4.633  1.00 40.30 LIG-0.35  N 
ATOM     42  C   ALA B   2      39.450  -3.631   4.158  1.00 43.05 LIG 0.24  C 
ATOM     43 O    ALA B   2      38.309  -3.281   3.844  1.00 42.86 LIG-0.27  OA
ATOM     44 H    TRP B   3      41.127  -3.009   4.972  1.00 40.30 LIG 0.16  HD
BRANCH 42 45
ATOM     45  CA  ALA B   2      39.832  -5.098   4.080  1.00 44.71 LIG 0.17  C 
ATOM     46  CB  ALA B   2      40.464  -5.434   2.704  1.00 44.36 LIG 0.04  C 
BRANCH 45 47
ATOM     47  N   ALA B   2      38.626  -5.905   4.265  1.00 46.59 LIG-0.35  N 
ATOM     48 H    ALA B   2      38.297  -6.221   3.536  1.00 46.59 LIG 0.16  HD
ATOM     49  C   PRO B   1      38.105  -6.116   5.457  1.00 48.49 LIG 0.25  C 
ATOM     50 O    PRO B   1      38.505  -5.524   6.447  1.00 48.43 LIG-0.27  OA
BRANCH 49 51
ATOM     51  CA  PRO B   1      36.933  -7.180   5.521  1.00 50.22 LIG 0.28  C 
ATOM     52  N   PRO B   1      36.052  -7.207   4.318  1.00 50.48 LIG-0.06  N 
ATOM     53 H3   PRO B   1      35.230  -7.177   4.570  1.00 50.48 LIG 0.28  HD
ATOM     54 H2   PRO B   1      36.197  -6.501   3.847  1.00 50.48 LIG 0.28  HD
ATOM     55  CD  PRO B   1      36.255  -8.399   3.473  1.00 50.94 LIG 0.23  C 
ATOM     56  CG  PRO B   1      37.282  -9.237   4.231  1.00 51.81 LIG 0.03  C 
ATOM     57  CB  PRO B   1      37.459  -8.626   5.625  1.00 50.52 LIG 0.04  C 
ENDBRANCH 49 51
ENDBRANCH 45 47
ENDBRANCH 42 45
ENDBRANCH 40 41
BRANCH 40 58
ATOM     58  CB  TRP B   3      39.404  -0.867   3.313  1.00 38.41 LIG 0.07  C 
BRANCH 58 59
ATOM     59  CG  TRP B   3      38.511   0.248   3.618  1.00 37.10 LIG-0.03  A 
ATOM     60  CD1 TRP B   3      38.878   1.498   3.949  1.00 36.42 LIG 0.10  A 
ATOM     61  NE1 TRP B   3      37.777   2.259   4.198  1.00 36.34 LIG-0.36  N 
ATOM     62 HE1  TRP B   3      37.781   3.088   4.426  1.00 36.34 LIG 0.17  HD
ATOM     63  CE2 TRP B   3      36.659   1.486   4.027  1.00 35.80 LIG 0.04  A 
ATOM     64  CD2 TRP B   3      37.086   0.212   3.684  1.00 33.30 LIG-0.00  A 
ATOM     65  CZ2 TRP B   3      35.309   1.808   4.196  1.00 36.94 LIG 0.03  A 
ATOM     66  CE3 TRP B   3      36.137  -0.771   3.449  1.00 37.18 LIG 0.01  A 
ATOM     67  CZ3 TRP B   3      34.788  -0.449   3.585  1.00 37.29 LIG 0.00  A 
ATOM     68  CH2 TRP B   3      34.394   0.840   3.961  1.00 32.87 LIG 0.00  A 
ENDBRANCH 58 59
ENDBRANCH 40 58
ENDBRANCH 38 40
ENDBRANCH 1 36
TORSDOF 22
ENDMDL
MODEL 30
USER: ADFR SOLUTION from run 14
USER: SCORE 22.714631 LL:  -8.846 LR: -16.827 RR:   0.000 FEB: -10.265
USER: RMSD 3.585429
USER: SEED 765849
USER: STATUS no improvement in best in 6 clusters for 5 generations
USER: GENES 24
USER: genes 0 Translation |==|  0.65538 0.51286 0.30671
USER: genes 1 Rotation |==|  0.51095 0.48802 0.44734 0.99695
USER: genes 2 Torsion [C]-CA--CB-[CG] |==|  0.29651
USER: genes 3 Torsion [CA]-CB--CG-[CD1] |==|  0.64669
USER: genes 4 Torsion [N]-CA--C-[N] |==|  0.96667
USER: genes 5 Torsion [C]-N--CA-[CB] |==|  0.24903
USER: genes 6 Torsion [N]-CA--CB-[CG] |==|  0.76311
USER: genes 7 Torsion [CA]-CB--CG-[CD2] |==|  0.72638
USER: genes 8 Torsion [N]-CA--C-[N] |==|  0.47911
USER: genes 9 Torsion [C]-N--CA-[C] |==|  0.77657
USER: genes 10 Torsion [N]-CA--CB-[CG] |==|  0.29541
USER: genes 11 Torsion [CA]-CB--CG-[CD] |==|  0.76595
USER: genes 12 Torsion [CB]-CG--CD-[OE2] |==|  0.14340
USER: genes 13 Torsion [N]-CA--C-[N] |==|  0.94021
USER: genes 14 Torsion [C]-N--CA-[CB] |==|  0.29817
USER: genes 15 Torsion [N]-CA--C-[O] |==|  0.85070
USER: genes 16 Torsion [CB]-CA--N-[C] |==|  0.41998
USER: genes 17 Torsion [N]-C--CA-[N] |==|  0.91154
USER: genes 18 Torsion [C]-CA--N-[C] |==|  0.81707
USER: genes 19 Torsion [N]-C--CA-[N] |==|  0.85663
USER: genes 20 Torsion [C]-CA--N-[C] |==|  0.70425
USER: genes 21 Torsion [N]-C--CA-[N] |==|  0.46293
USER: genes 22 Torsion [C]-CA--CB-[CG] |==|  0.12129
USER: genes 23 Torsion [CA]-CB--CG-[CD1] |==|  0.22090
ROOT
ATOM      1  CA  LEU B   4      38.134  -2.751   5.310  1.00 36.98 LIG 0.18  C 
ENDROOT
BRANCH 1 2
ATOM      2  CB  LEU B   4      38.099  -1.679   4.221  1.00 35.91 LIG 0.04  C 
BRANCH 2 3
ATOM      3  CG  LEU B   4      39.458  -1.286   3.616  1.00 35.93 LIG-0.02  C 
ATOM      4  CD2 LEU B   4      40.626  -1.996   4.292  1.00 33.66 LIG 0.01  C 
ATOM      5  CD1 LEU B   4      39.677   0.267   3.673  1.00 37.78 LIG 0.01  C 
ENDBRANCH 2 3
ENDBRANCH 1 2
BRANCH 1 6
ATOM      6  C   LEU B   4      37.875  -2.063   6.641  1.00 38.06 LIG 0.24  C 
ATOM      7  N   PHE B   5      36.726  -2.371   7.248  1.00 38.73 LIG-0.35  N 
ATOM      8 H    PHE B   5      36.206  -3.004   6.985  1.00 38.73 LIG 0.16  HD
ATOM      9 O    LEU B   4      38.674  -1.218   7.058  1.00 36.58 LIG-0.27  OA
BRANCH 7 10
ATOM     10  CA  PHE B   5      36.239  -1.656   8.423  1.00 41.04 LIG 0.18  C 
BRANCH 10 11
ATOM     11  CB  PHE B   5      35.358  -0.446   8.064  1.00 39.67 LIG 0.07  C 
BRANCH 11 12
ATOM     12  CG  PHE B   5      36.130   0.788   7.792  1.00 38.07 LIG-0.06  A 
ATOM     13  CD2 PHE B   5      36.283   1.745   8.760  1.00 33.96 LIG 0.01  A 
ATOM     14  CE2 PHE B   5      37.003   2.945   8.503  1.00 35.53 LIG 0.00  A 
ATOM     15  CZ  PHE B   5      37.517   3.192   7.245  1.00 34.38 LIG 0.00  A 
ATOM     16  CE1 PHE B   5      37.344   2.213   6.256  1.00 35.56 LIG 0.00  A 
ATOM     17  CD1 PHE B   5      36.655   1.023   6.538  1.00 35.27 LIG 0.01  A 
ENDBRANCH 11 12
ENDBRANCH 10 11
BRANCH 10 18
ATOM     18  C   PHE B   5      35.445  -2.538   9.338  1.00 43.64 LIG 0.24  C 
ATOM     19 O    PHE B   5      35.189  -3.701   8.996  1.00 43.27 LIG-0.27  OA
ATOM     20  N   GLU B   6      35.102  -1.991  10.507  1.00 47.41 LIG-0.35  N 
ATOM     21 H    GLU B   6      35.505  -1.308  10.842  1.00 47.41 LIG 0.16  HD
BRANCH 20 22
ATOM     22  CA  GLU B   6      33.996  -2.498  11.352  1.00 51.55 LIG 0.18  C 
BRANCH 22 23
ATOM     23  CB  GLU B   6      34.164  -2.088  12.826  1.00 52.47 LIG 0.04  C 
BRANCH 23 24
ATOM     24  CG  GLU B   6      33.163  -0.956  13.256  1.00 56.11 LIG 0.12  C 
BRANCH 24 25
ATOM     25  CD  GLU B   6      33.630   0.485  12.929  1.00 59.86 LIG 0.17  C 
ATOM     26 OE2  GLU B   6      33.997   0.748  11.769  1.00 64.67 LIG-0.65  OA
ATOM     27 OE1  GLU B   6      33.602   1.381  13.795  1.00 64.70 LIG-0.65  OA
ENDBRANCH 24 25
ENDBRANCH 23 24
ENDBRANCH 22 23
BRANCH 22 28
ATOM     28  C   GLU B   6      32.657  -1.956  10.778  1.00 53.54 LIG 0.24  C 
ATOM     29 O    GLU B   6      31.565  -2.489  11.052  1.00 53.95 LIG-0.27  OA
ATOM     30  N   ALA B   7      32.731  -0.868  10.013  1.00 56.31 LIG-0.35  N 
ATOM     31 H    ALA B   7      33.468  -0.482   9.793  1.00 56.31 LIG 0.16  HD
BRANCH 30 32
ATOM     32  CA  ALA B   7      31.508  -0.221   9.467  1.00 57.55 LIG 0.16  C 
ATOM     33  CB  ALA B   7      31.207   1.106  10.182  1.00 58.11 LIG 0.04  C 
BRANCH 32 34
ATOM     34  C   ALA B   7      31.645   0.013   7.972  1.00 58.67 LIG 0.22  C 
ATOM     35 O    ALA B   7      32.615   0.624   7.532  1.00 60.59 LIG-0.29  OA
ENDBRANCH 32 34
ENDBRANCH 30 32
ENDBRANCH 22 28
ENDBRANCH 20 22
ENDBRANCH 10 18
ENDBRANCH 7 10
ENDBRANCH 1 6
BRANCH 1 36
ATOM     36  N   LEU B   4      37.228  -3.854   5.012  1.00 37.09 LIG-0.35  N 
ATOM     37 H    LEU B   4      36.545  -3.629   4.540  1.00 37.09 LIG 0.16  HD
ATOM     38  C   TRP B   3      37.452  -5.103   5.439  1.00 37.19 LIG 0.24  C 
ATOM     39 O    TRP B   3      38.405  -5.404   6.087  1.00 36.60 LIG-0.27  OA
BRANCH 38 40
ATOM     40  CA  TRP B   3      36.467  -6.185   5.018  1.00 38.87 LIG 0.18  C 
BRANCH 40 41
ATOM     41  N   TRP B   3      35.132  -5.593   4.885  1.00 40.30 LIG-0.35  N 
ATOM     42  C   ALA B   2      34.492  -5.113   5.965  1.00 43.05 LIG 0.24  C 
ATOM     43 O    ALA B   2      34.889  -5.297   7.118  1.00 42.86 LIG-0.27  OA
ATOM     44 H    TRP B   3      34.816  -5.584   4.085  1.00 40.30 LIG 0.16  HD
BRANCH 42 45
ATOM     45  CA  ALA B   2      33.186  -4.373   5.732  1.00 44.71 LIG 0.17  C 
ATOM     46  CB  ALA B   2      32.080  -5.343   5.237  1.00 44.36 LIG 0.04  C 
BRANCH 45 47
ATOM     47  N   ALA B   2      33.408  -3.340   4.721  1.00 46.59 LIG-0.35  N 
ATOM     48 H    ALA B   2      33.494  -3.641   3.921  1.00 46.59 LIG 0.16  HD
ATOM     49  C   PRO B   1      33.469  -2.061   5.033  1.00 48.49 LIG 0.25  C 
ATOM     50 O    PRO B   1      33.501  -1.684   6.194  1.00 48.43 LIG-0.27  OA
BRANCH 49 51
ATOM     51  CA  PRO B   1      33.498  -1.051   3.813  1.00 50.22 LIG 0.28  C 
ATOM     52  N   PRO B   1      33.252   0.373   4.181  1.00 50.48 LIG-0.06  N 
ATOM     53 H3   PRO B   1      32.650   0.699   3.659  1.00 50.48 LIG 0.28  HD
ATOM     54 H2   PRO B   1      32.937   0.407   4.981  1.00 50.48 LIG 0.28  HD
ATOM     55  CD  PRO B   1      34.463   1.212   4.103  1.00 50.94 LIG 0.23  C 
ATOM     56  CG  PRO B   1      35.546   0.277   3.571  1.00 51.81 LIG 0.03  C 
ATOM     57  CB  PRO B   1      34.870  -1.019   3.111  1.00 50.52 LIG 0.04  C 
ENDBRANCH 49 51
ENDBRANCH 45 47
ENDBRANCH 42 45
ENDBRANCH 40 41
BRANCH 40 58
ATOM     58  CB  TRP B   3      36.964  -6.856   3.716  1.00 38.41 LIG 0.07  C 
BRANCH 58 59
ATOM     59  CG  TRP B   3      38.400  -7.113   3.805  1.00 37.10 LIG-0.03  A 
ATOM     60  CD1 TRP B   3      38.991  -8.133   4.451  1.00 36.42 LIG 0.10  A 
ATOM     61  NE1 TRP B   3      40.344  -8.031   4.348  1.00 36.34 LIG-0.36  N 
ATOM     62 HE1  TRP B   3      40.915  -8.578   4.687  1.00 36.34 LIG 0.17  HD
ATOM     63  CE2 TRP B   3      40.648  -6.914   3.617  1.00 35.80 LIG 0.04  A 
ATOM     64  CD2 TRP B   3      39.450  -6.302   3.279  1.00 33.30 LIG-0.00  A 
ATOM     65  CZ2 TRP B   3      41.892  -6.376   3.271  1.00 36.94 LIG 0.03  A 
ATOM     66  CE3 TRP B   3      39.481  -5.139   2.526  1.00 37.18 LIG 0.01  A 
ATOM     67  CZ3 TRP B   3      40.717  -4.615   2.151  1.00 37.29 LIG 0.00  A 
ATOM     68  CH2 TRP B   3      41.908  -5.243   2.534  1.00 32.87 LIG 0.00  A 
ENDBRANCH 58 59
ENDBRANCH 40 58
ENDBRANCH 38 40
ENDBRANCH 1 36
TORSDOF 22
ENDMDL
MODEL 31
USER: ADFR SOLUTION from run 198
USER: SCORE 21.002248 LL:  -7.173 LR: -16.776 RR:   0.000 FEB: -10.214
USER: RMSD 5.022709
USER: SEED 197
USER: STATUS no improvement in best in 7 clusters for 5 generations
USER: GENES 24
USER: genes 0 Translation |==|  0.56265 0.68706 0.44112
USER: genes 1 Rotation |==|  0.53590 0.33095 0.73016 0.90885
USER: genes 2 Torsion [C]-CA--CB-[CG] |==|  0.47484
USER: genes 3 Torsion [CA]-CB--CG-[CD1] |==|  0.45408
USER: genes 4 Torsion [N]-CA--C-[N] |==|  0.79816
USER: genes 5 Torsion [C]-N--CA-[CB] |==|  0.76388
USER: genes 6 Torsion [N]-CA--CB-[CG] |==|  0.05281
USER: genes 7 Torsion [CA]-CB--CG-[CD2] |==|  0.27644
USER: genes 8 Torsion [N]-CA--C-[N] |==|  0.70731
USER: genes 9 Torsion [C]-N--CA-[C] |==|  0.61471
USER: genes 10 Torsion [N]-CA--CB-[CG] |==|  0.59452
USER: genes 11 Torsion [CA]-CB--CG-[CD] |==|  0.19709
USER: genes 12 Torsion [CB]-CG--CD-[OE2] |==|  0.15435
USER: genes 13 Torsion [N]-CA--C-[N] |==|  0.68559
USER: genes 14 Torsion [C]-N--CA-[CB] |==|  0.84043
USER: genes 15 Torsion [N]-CA--C-[O] |==|  0.14270
USER: genes 16 Torsion [CB]-CA--N-[C] |==|  0.88767
USER: genes 17 Torsion [N]-C--CA-[N] |==|  0.44728
USER: genes 18 Torsion [C]-CA--N-[C] |==|  0.57286
USER: genes 19 Torsion [N]-C--CA-[N] |==|  0.89112
USER: genes 20 Torsion [C]-CA--N-[C] |==|  0.84109
USER: genes 21 Torsion [N]-C--CA-[N] |==|  0.25478
USER: genes 22 Torsion [C]-CA--CB-[CG] |==|  0.73200
USER: genes 23 Torsion [CA]-CB--CG-[CD1] |==|  0.22709
ROOT
ATOM      1  CA  LEU B   4      36.118   0.646   8.334  1.00 36.98 LIG 0.18  C 
ENDROOT
BRANCH 1 2
ATOM      2  CB  LEU B   4      35.768   1.471   7.096  1.00 35.91 LIG 0.04  C 
BRANCH 2 3
ATOM      3  CG  LEU B   4      36.946   2.176   6.400  1.00 35.93 LIG-0.02  C 
ATOM      4  CD2 LEU B   4      37.461   3.372   7.193  1.00 33.66 LIG 0.01  C 
ATOM      5  CD1 LEU B   4      36.558   2.630   4.949  1.00 37.78 LIG 0.01  C 
ENDBRANCH 2 3
ENDBRANCH 1 2
BRANCH 1 6
ATOM      6  C   LEU B   4      34.812   0.228   8.992  1.00 38.06 LIG 0.24  C 
ATOM      7  N   PHE B   5      33.920  -0.371   8.199  1.00 38.73 LIG-0.35  N 
ATOM      8 H    PHE B   5      34.095  -0.625   7.396  1.00 38.73 LIG 0.16  HD
ATOM      9 O    LEU B   4      34.603   0.517  10.175  1.00 36.58 LIG-0.27  OA
BRANCH 7 10
ATOM     10  CA  PHE B   5      32.552  -0.653   8.623  1.00 41.04 LIG 0.18  C 
BRANCH 10 11
ATOM     11  CB  PHE B   5      32.428  -1.979   9.395  1.00 39.67 LIG 0.07  C 
BRANCH 11 12
ATOM     12  CG  PHE B   5      33.715  -2.470   9.939  1.00 38.07 LIG-0.06  A 
ATOM     13  CD2 PHE B   5      34.041  -2.266  11.254  1.00 33.96 LIG 0.01  A 
ATOM     14  CE2 PHE B   5      35.284  -2.713  11.783  1.00 35.53 LIG 0.00  A 
ATOM     15  CZ  PHE B   5      36.214  -3.316  10.958  1.00 34.38 LIG 0.00  A 
ATOM     16  CE1 PHE B   5      35.877  -3.509   9.611  1.00 35.56 LIG 0.00  A 
ATOM     17  CD1 PHE B   5      34.633  -3.086   9.115  1.00 35.27 LIG 0.01  A 
ENDBRANCH 11 12
ENDBRANCH 10 11
BRANCH 10 18
ATOM     18  C   PHE B   5      31.988   0.431   9.490  1.00 43.64 LIG 0.24  C 
ATOM     19 O    PHE B   5      31.606   1.490   8.974  1.00 43.27 LIG-0.27  OA
ATOM     20  N   GLU B   6      31.903   0.139  10.790  1.00 47.41 LIG-0.35  N 
ATOM     21 H    GLU B   6      31.910  -0.667  11.092  1.00 47.41 LIG 0.16  HD
BRANCH 20 22
ATOM     22  CA  GLU B   6      31.790   1.166  11.851  1.00 51.55 LIG 0.18  C 
BRANCH 22 23
ATOM     23  CB  GLU B   6      30.334   1.355  12.315  1.00 52.47 LIG 0.04  C 
BRANCH 23 24
ATOM     24  CG  GLU B   6      30.014   2.841  12.714  1.00 56.11 LIG 0.12  C 
BRANCH 24 25
ATOM     25  CD  GLU B   6      29.948   3.835  11.526  1.00 59.86 LIG 0.17  C 
ATOM     26 OE2  GLU B   6      29.169   3.595  10.586  1.00 64.67 LIG-0.65  OA
ATOM     27 OE1  GLU B   6      30.630   4.879  11.525  1.00 64.70 LIG-0.65  OA
ENDBRANCH 24 25
ENDBRANCH 23 24
ENDBRANCH 22 23
BRANCH 22 28
ATOM     28  C   GLU B   6      32.695   0.740  13.041  1.00 53.54 LIG 0.24  C 
ATOM     29 O    GLU B   6      33.938   0.742  12.951  1.00 53.95 LIG-0.27  OA
ATOM     30  N   ALA B   7      32.078   0.412  14.175  1.00 56.31 LIG-0.35  N 
ATOM     31 H    ALA B   7      31.223   0.387  14.269  1.00 56.31 LIG 0.16  HD
BRANCH 30 32
ATOM     32  CA  ALA B   7      32.845   0.055  15.399  1.00 57.55 LIG 0.16  C 
ATOM     33  CB  ALA B   7      33.792  -1.128  15.143  1.00 58.11 LIG 0.04  C 
BRANCH 32 34
ATOM     34  C   ALA B   7      33.632   1.252  15.907  1.00 58.67 LIG 0.22  C 
ATOM     35 O    ALA B   7      33.069   2.328  16.084  1.00 60.59 LIG-0.29  OA
ENDBRANCH 32 34
ENDBRANCH 30 32
ENDBRANCH 22 28
ENDBRANCH 20 22
ENDBRANCH 10 18
ENDBRANCH 7 10
ENDBRANCH 1 6
BRANCH 1 36
ATOM     36  N   LEU B   4      37.014  -0.459   8.012  1.00 37.09 LIG-0.35  N 
ATOM     37 H    LEU B   4      37.632  -0.591   8.596  1.00 37.09 LIG 0.16  HD
ATOM     38  C   TRP B   3      36.875  -1.195   6.902  1.00 37.19 LIG 0.24  C 
ATOM     39 O    TRP B   3      36.012  -1.007   6.104  1.00 36.60 LIG-0.27  OA
BRANCH 38 40
ATOM     40  CA  TRP B   3      37.835  -2.360   6.699  1.00 38.87 LIG 0.18  C 
BRANCH 40 41
ATOM     41  N   TRP B   3      37.265  -3.287   5.717  1.00 40.30 LIG-0.35  N 
ATOM     42  C   ALA B   2      37.602  -4.588   5.734  1.00 43.05 LIG 0.24  C 
ATOM     43 O    ALA B   2      38.516  -5.035   6.431  1.00 42.86 LIG-0.27  OA
ATOM     44 H    TRP B   3      36.718  -2.931   5.155  1.00 40.30 LIG 0.16  HD
BRANCH 42 45
ATOM     45  CA  ALA B   2      36.855  -5.516   4.792  1.00 44.71 LIG 0.17  C 
ATOM     46  CB  ALA B   2      37.438  -5.436   3.357  1.00 44.36 LIG 0.04  C 
BRANCH 45 47
ATOM     47  N   ALA B   2      35.448  -5.119   4.763  1.00 46.59 LIG-0.35  N 
ATOM     48 H    ALA B   2      35.151  -4.928   3.979  1.00 46.59 LIG 0.16  HD
ATOM     49  C   PRO B   1      34.716  -5.065   5.858  1.00 48.49 LIG 0.25  C 
ATOM     50 O    PRO B   1      35.210  -5.190   6.968  1.00 48.43 LIG-0.27  OA
BRANCH 49 51
ATOM     51  CA  PRO B   1      33.165  -4.830   5.642  1.00 50.22 LIG 0.28  C 
ATOM     52  N   PRO B   1      32.357  -6.079   5.534  1.00 50.48 LIG-0.06  N 
ATOM     53 H3   PRO B   1      31.850  -6.027   4.840  1.00 50.48 LIG 0.28  HD
ATOM     54 H2   PRO B   1      32.886  -6.746   5.410  1.00 50.48 LIG 0.28  HD
ATOM     55  CD  PRO B   1      31.523  -6.339   6.723  1.00 50.94 LIG 0.23  C 
ATOM     56  CG  PRO B   1      31.750  -5.128   7.625  1.00 51.81 LIG 0.03  C 
ATOM     57  CB  PRO B   1      32.517  -4.073   6.820  1.00 50.52 LIG 0.04  C 
ENDBRANCH 49 51
ENDBRANCH 45 47
ENDBRANCH 42 45
ENDBRANCH 40 41
BRANCH 40 58
ATOM     58  CB  TRP B   3      39.223  -1.817   6.286  1.00 38.41 LIG 0.07  C 
BRANCH 58 59
ATOM     59  CG  TRP B   3      39.362  -1.858   4.832  1.00 37.10 LIG-0.03  A 
ATOM     60  CD1 TRP B   3      38.890  -0.953   3.958  1.00 36.42 LIG 0.10  A 
ATOM     61  NE1 TRP B   3      39.178  -1.337   2.685  1.00 36.34 LIG-0.36  N 
ATOM     62 HE1  TRP B   3      38.968  -0.904   1.971  1.00 36.34 LIG 0.17  HD
ATOM     63  CE2 TRP B   3      39.855  -2.526   2.725  1.00 35.80 LIG 0.04  A 
ATOM     64  CD2 TRP B   3      39.967  -2.893   4.057  1.00 33.30 LIG-0.00  A 
ATOM     65  CZ2 TRP B   3      40.332  -3.325   1.681  1.00 36.94 LIG 0.03  A 
ATOM     66  CE3 TRP B   3      40.624  -4.072   4.374  1.00 37.18 LIG 0.01  A 
ATOM     67  CZ3 TRP B   3      41.130  -4.857   3.340  1.00 37.29 LIG 0.00  A 
ATOM     68  CH2 TRP B   3      40.972  -4.471   2.004  1.00 32.87 LIG 0.00  A 
ENDBRANCH 58 59
ENDBRANCH 40 58
ENDBRANCH 38 40
ENDBRANCH 1 36
TORSDOF 22
ENDMDL
MODEL 32
USER: ADFR SOLUTION from run 55
USER: SCORE 21.661317 LL:  -6.524 LR: -16.771 RR:   0.000 FEB: -10.208
USER: RMSD 8.507187
USER: SEED 54
USER: STATUS searching
USER: GENES 24
USER: genes 0 Translation |==|  0.56183 0.51243 0.42389
USER: genes 1 Rotation |==|  0.53906 0.95131 0.37129 0.66802
USER: genes 2 Torsion [C]-CA--CB-[CG] |==|  0.28597
USER: genes 3 Torsion [CA]-CB--CG-[CD1] |==|  0.02387
USER: genes 4 Torsion [N]-CA--C-[N] |==|  0.22711
USER: genes 5 Torsion [C]-N--CA-[CB] |==|  0.56140
USER: genes 6 Torsion [N]-CA--CB-[CG] |==|  0.50473
USER: genes 7 Torsion [CA]-CB--CG-[CD2] |==|  0.63437
USER: genes 8 Torsion [N]-CA--C-[N] |==|  0.85332
USER: genes 9 Torsion [C]-N--CA-[C] |==|  0.64279
USER: genes 10 Torsion [N]-CA--CB-[CG] |==|  0.87863
USER: genes 11 Torsion [CA]-CB--CG-[CD] |==|  0.82462
USER: genes 12 Torsion [CB]-CG--CD-[OE2] |==|  0.43687
USER: genes 13 Torsion [N]-CA--C-[N] |==|  0.43888
USER: genes 14 Torsion [C]-N--CA-[CB] |==|  0.85561
USER: genes 15 Torsion [N]-CA--C-[O] |==|  0.46538
USER: genes 16 Torsion [CB]-CA--N-[C] |==|  0.77540
USER: genes 17 Torsion [N]-C--CA-[N] |==|  0.30593
USER: genes 18 Torsion [C]-CA--N-[C] |==|  0.63850
USER: genes 19 Torsion [N]-C--CA-[N] |==|  0.87893
USER: genes 20 Torsion [C]-CA--N-[C] |==|  0.80987
USER: genes 21 Torsion [N]-C--CA-[N] |==|  0.13528
USER: genes 22 Torsion [C]-CA--CB-[CG] |==|  0.82670
USER: genes 23 Torsion [CA]-CB--CG-[CD1] |==|  0.29518
ROOT
ATOM      1  CA  LEU B   4      36.100  -2.760   7.947  1.00 36.98 LIG 0.18  C 
ENDROOT
BRANCH 1 2
ATOM      2  CB  LEU B   4      36.006  -1.323   8.461  1.00 35.91 LIG 0.04  C 
BRANCH 2 3
ATOM      3  CG  LEU B   4      34.946  -0.433   7.788  1.00 35.93 LIG-0.02  C 
ATOM      4  CD2 LEU B   4      34.094   0.326   8.798  1.00 33.66 LIG 0.01  C 
ATOM      5  CD1 LEU B   4      34.020  -1.272   6.838  1.00 37.78 LIG 0.01  C 
ENDBRANCH 2 3
ENDBRANCH 1 2
BRANCH 1 6
ATOM      6  C   LEU B   4      37.319  -2.845   7.042  1.00 38.06 LIG 0.24  C 
ATOM      7  N   PHE B   5      37.282  -3.784   6.093  1.00 38.73 LIG-0.35  N 
ATOM      8 H    PHE B   5      36.579  -4.242   5.907  1.00 38.73 LIG 0.16  HD
ATOM      9 O    LEU B   4      38.294  -2.118   7.259  1.00 36.58 LIG-0.27  OA
BRANCH 7 10
ATOM     10  CA  PHE B   5      38.443  -4.124   5.276  1.00 41.04 LIG 0.18  C 
BRANCH 10 11
ATOM     11  CB  PHE B   5      38.059  -4.797   3.946  1.00 39.67 LIG 0.07  C 
BRANCH 11 12
ATOM     12  CG  PHE B   5      39.226  -5.186   3.121  1.00 38.07 LIG-0.06  A 
ATOM     13  CD2 PHE B   5      39.279  -4.865   1.789  1.00 33.96 LIG 0.01  A 
ATOM     14  CE2 PHE B   5      40.384  -5.253   0.981  1.00 35.53 LIG 0.00  A 
ATOM     15  CZ  PHE B   5      41.404  -6.014   1.518  1.00 34.38 LIG 0.00  A 
ATOM     16  CE1 PHE B   5      41.335  -6.349   2.877  1.00 35.56 LIG 0.00  A 
ATOM     17  CD1 PHE B   5      40.250  -5.932   3.664  1.00 35.27 LIG 0.01  A 
ENDBRANCH 11 12
ENDBRANCH 10 11
BRANCH 10 18
ATOM     18  C   PHE B   5      39.283  -2.927   4.951  1.00 43.64 LIG 0.24  C 
ATOM     19 O    PHE B   5      40.504  -2.963   5.159  1.00 43.27 LIG-0.27  OA
ATOM     20  N   GLU B   6      38.629  -1.897   4.408  1.00 47.41 LIG-0.35  N 
ATOM     21 H    GLU B   6      37.863  -1.978   4.025  1.00 47.41 LIG 0.16  HD
BRANCH 20 22
ATOM     22  CA  GLU B   6      39.149  -0.511   4.406  1.00 51.55 LIG 0.18  C 
BRANCH 22 23
ATOM     23  CB  GLU B   6      39.584  -0.061   2.999  1.00 52.47 LIG 0.04  C 
BRANCH 23 24
ATOM     24  CG  GLU B   6      40.401  -1.165   2.237  1.00 56.11 LIG 0.12  C 
BRANCH 24 25
ATOM     25  CD  GLU B   6      41.749  -1.551   2.897  1.00 59.86 LIG 0.17  C 
ATOM     26 OE2  GLU B   6      42.246  -2.663   2.640  1.00 64.67 LIG-0.65  OA
ATOM     27 OE1  GLU B   6      42.351  -0.752   3.641  1.00 64.70 LIG-0.65  OA
ENDBRANCH 24 25
ENDBRANCH 23 24
ENDBRANCH 22 23
BRANCH 22 28
ATOM     28  C   GLU B   6      38.041   0.426   4.965  1.00 53.54 LIG 0.24  C 
ATOM     29 O    GLU B   6      36.843   0.083   4.985  1.00 53.95 LIG-0.27  OA
ATOM     30  N   ALA B   7      38.440   1.596   5.461  1.00 56.31 LIG-0.35  N 
ATOM     31 H    ALA B   7      39.255   1.871   5.452  1.00 56.31 LIG 0.16  HD
BRANCH 30 32
ATOM     32  CA  ALA B   7      37.477   2.542   6.085  1.00 57.55 LIG 0.16  C 
ATOM     33  CB  ALA B   7      36.281   2.818   5.158  1.00 58.11 LIG 0.04  C 
BRANCH 32 34
ATOM     34  C   ALA B   7      36.988   2.008   7.420  1.00 58.67 LIG 0.22  C 
ATOM     35 O    ALA B   7      36.371   2.742   8.187  1.00 60.59 LIG-0.29  OA
ENDBRANCH 32 34
ENDBRANCH 30 32
ENDBRANCH 22 28
ENDBRANCH 20 22
ENDBRANCH 10 18
ENDBRANCH 7 10
ENDBRANCH 1 6
BRANCH 1 36
ATOM     36  N   LEU B   4      36.087  -3.726   9.039  1.00 37.09 LIG-0.35  N 
ATOM     37 H    LEU B   4      35.319  -4.088   9.178  1.00 37.09 LIG 0.16  HD
ATOM     38  C   TRP B   3      37.182  -4.016   9.753  1.00 37.19 LIG 0.24  C 
ATOM     39 O    TRP B   3      38.241  -3.512   9.548  1.00 36.60 LIG-0.27  OA
BRANCH 38 40
ATOM     40  CA  TRP B   3      37.062  -5.084  10.833  1.00 38.87 LIG 0.18  C 
BRANCH 40 41
ATOM     41  N   TRP B   3      37.810  -6.274  10.414  1.00 40.30 LIG-0.35  N 
ATOM     42  C   ALA B   2      37.236  -7.488  10.460  1.00 43.05 LIG 0.24  C 
ATOM     43 O    ALA B   2      36.150  -7.697  11.006  1.00 42.86 LIG-0.27  OA
ATOM     44 H    TRP B   3      38.615  -6.123  10.150  1.00 40.30 LIG 0.16  HD
BRANCH 42 45
ATOM     45  CA  ALA B   2      38.010  -8.651   9.865  1.00 44.71 LIG 0.17  C 
ATOM     46  CB  ALA B   2      39.149  -9.104  10.817  1.00 44.36 LIG 0.04  C 
BRANCH 45 47
ATOM     47  N   ALA B   2      38.589  -8.224   8.591  1.00 46.59 LIG-0.35  N 
ATOM     48 H    ALA B   2      39.446  -8.159   8.597  1.00 46.59 LIG 0.16  HD
ATOM     49  C   PRO B   1      37.841  -7.966   7.538  1.00 48.49 LIG 0.25  C 
ATOM     50 O    PRO B   1      36.623  -7.916   7.611  1.00 48.43 LIG-0.27  OA
BRANCH 49 51
ATOM     51  CA  PRO B   1      38.619  -7.726   6.179  1.00 50.22 LIG 0.28  C 
ATOM     52  N   PRO B   1      39.649  -8.757   5.863  1.00 50.48 LIG-0.06  N 
ATOM     53 H3   PRO B   1      40.386  -8.365   5.657  1.00 50.48 LIG 0.28  HD
ATOM     54 H2   PRO B   1      39.802  -9.227   6.567  1.00 50.48 LIG 0.28  HD
ATOM     55  CD  PRO B   1      39.255  -9.655   4.760  1.00 50.94 LIG 0.23  C 
ATOM     56  CG  PRO B   1      37.912  -9.110   4.281  1.00 51.81 LIG 0.03  C 
ATOM     57  CB  PRO B   1      37.682  -7.753   4.954  1.00 50.52 LIG 0.04  C 
ENDBRANCH 49 51
ENDBRANCH 45 47
ENDBRANCH 42 45
ENDBRANCH 40 41
BRANCH 40 58
ATOM     58  CB  TRP B   3      37.546  -4.508  12.183  1.00 38.41 LIG 0.07  C 
BRANCH 58 59
ATOM     59  CG  TRP B   3      38.956  -4.139  12.092  1.00 37.10 LIG-0.03  A 
ATOM     60  CD1 TRP B   3      39.454  -2.892  12.020  1.00 36.42 LIG 0.10  A 
ATOM     61  NE1 TRP B   3      40.810  -2.935  11.911  1.00 36.34 LIG-0.36  N 
ATOM     62 HE1  TRP B   3      41.330  -2.252  11.852  1.00 36.34 LIG 0.17  HD
ATOM     63  CE2 TRP B   3      41.211  -4.244  11.909  1.00 35.80 LIG 0.04  A 
ATOM     64  CD2 TRP B   3      40.070  -5.026  11.998  1.00 33.30 LIG-0.00  A 
ATOM     65  CZ2 TRP B   3      42.493  -4.791  11.786  1.00 36.94 LIG 0.03  A 
ATOM     66  CE3 TRP B   3      40.205  -6.406  12.020  1.00 37.18 LIG 0.01  A 
ATOM     67  CZ3 TRP B   3      41.481  -6.958  11.930  1.00 37.29 LIG 0.00  A 
ATOM     68  CH2 TRP B   3      42.609  -6.138  11.811  1.00 32.87 LIG 0.00  A 
ENDBRANCH 58 59
ENDBRANCH 40 58
ENDBRANCH 38 40
ENDBRANCH 1 36
TORSDOF 22
ENDMDL
MODEL 33
USER: ADFR SOLUTION from run 62
USER: SCORE 20.025677 LL:  -6.116 LR: -16.774 RR:   0.000 FEB: -10.212
USER: RMSD 6.973575
USER: SEED 61
USER: STATUS no improvement in best in 13 clusters for 5 generations
USER: GENES 24
USER: genes 0 Translation |==|  0.58466 0.47565 0.54922
USER: genes 1 Rotation |==|  0.74989 0.28334 0.23749 0.76778
USER: genes 2 Torsion [C]-CA--CB-[CG] |==|  0.28187
USER: genes 3 Torsion [CA]-CB--CG-[CD1] |==|  0.01570
USER: genes 4 Torsion [N]-CA--C-[N] |==|  0.82295
USER: genes 5 Torsion [C]-N--CA-[CB] |==|  0.26604
USER: genes 6 Torsion [N]-CA--CB-[CG] |==|  0.85536
USER: genes 7 Torsion [CA]-CB--CG-[CD2] |==|  0.81714
USER: genes 8 Torsion [N]-CA--C-[N] |==|  0.47357
USER: genes 9 Torsion [C]-N--CA-[C] |==|  0.62761
USER: genes 10 Torsion [N]-CA--CB-[CG] |==|  0.53076
USER: genes 11 Torsion [CA]-CB--CG-[CD] |==|  0.33747
USER: genes 12 Torsion [CB]-CG--CD-[OE2] |==|  0.56516
USER: genes 13 Torsion [N]-CA--C-[N] |==|  0.43953
USER: genes 14 Torsion [C]-N--CA-[CB] |==|  0.20352
USER: genes 15 Torsion [N]-CA--C-[O] |==|  0.01071
USER: genes 16 Torsion [CB]-CA--N-[C] |==|  0.25000
USER: genes 17 Torsion [N]-C--CA-[N] |==|  0.85360
USER: genes 18 Torsion [C]-CA--N-[C] |==|  0.23224
USER: genes 19 Torsion [N]-C--CA-[N] |==|  0.91629
USER: genes 20 Torsion [C]-CA--N-[C] |==|  0.81974
USER: genes 21 Torsion [N]-C--CA-[N] |==|  0.20627
USER: genes 22 Torsion [C]-CA--CB-[CG] |==|  0.43052
USER: genes 23 Torsion [CA]-CB--CG-[CD1] |==|  0.36167
ROOT
ATOM      1  CA  LEU B   4      36.596  -3.477  10.767  1.00 36.98 LIG 0.18  C 
ENDROOT
BRANCH 1 2
ATOM      2  CB  LEU B   4      37.815  -3.131  11.622  1.00 35.91 LIG 0.04  C 
BRANCH 2 3
ATOM      3  CG  LEU B   4      38.597  -4.325  12.198  1.00 35.93 LIG-0.02  C 
ATOM      4  CD2 LEU B   4      40.092  -4.234  11.918  1.00 33.66 LIG 0.01  C 
ATOM      5  CD1 LEU B   4      38.038  -5.686  11.652  1.00 37.78 LIG 0.01  C 
ENDBRANCH 2 3
ENDBRANCH 1 2
BRANCH 1 6
ATOM      6  C   LEU B   4      35.359  -3.278  11.628  1.00 38.06 LIG 0.24  C 
ATOM      7  N   PHE B   5      35.155  -2.040  12.087  1.00 38.73 LIG-0.35  N 
ATOM      8 H    PHE B   5      35.611  -1.358  11.828  1.00 38.73 LIG 0.16  HD
ATOM      9 O    LEU B   4      34.656  -4.250  11.922  1.00 36.58 LIG-0.27  OA
BRANCH 7 10
ATOM     10  CA  PHE B   5      34.133  -1.726  13.079  1.00 41.04 LIG 0.18  C 
BRANCH 10 11
ATOM     11  CB  PHE B   5      34.685  -1.690  14.515  1.00 39.67 LIG 0.07  C 
BRANCH 11 12
ATOM     12  CG  PHE B   5      35.444  -2.905  14.889  1.00 38.07 LIG-0.06  A 
ATOM     13  CD2 PHE B   5      34.815  -4.119  14.988  1.00 33.96 LIG 0.01  A 
ATOM     14  CE2 PHE B   5      35.528  -5.290  15.367  1.00 35.53 LIG 0.00  A 
ATOM     15  CZ  PHE B   5      36.866  -5.212  15.701  1.00 34.38 LIG 0.00  A 
ATOM     16  CE1 PHE B   5      37.498  -3.964  15.610  1.00 35.56 LIG 0.00  A 
ATOM     17  CD1 PHE B   5      36.784  -2.825  15.205  1.00 35.27 LIG 0.01  A 
ENDBRANCH 11 12
ENDBRANCH 10 11
BRANCH 10 18
ATOM     18  C   PHE B   5      33.469  -0.408  12.817  1.00 43.64 LIG 0.24  C 
ATOM     19 O    PHE B   5      33.910   0.330  11.925  1.00 43.27 LIG-0.27  OA
ATOM     20  N   GLU B   6      32.393  -0.149  13.564  1.00 47.41 LIG-0.35  N 
ATOM     21 H    GLU B   6      31.946  -0.761  13.970  1.00 47.41 LIG 0.16  HD
BRANCH 20 22
ATOM     22  CA  GLU B   6      31.857   1.215  13.775  1.00 51.55 LIG 0.18  C 
BRANCH 22 23
ATOM     23  CB  GLU B   6      30.593   1.473  12.934  1.00 52.47 LIG 0.04  C 
BRANCH 23 24
ATOM     24  CG  GLU B   6      30.169   2.985  12.927  1.00 56.11 LIG 0.12  C 
BRANCH 24 25
ATOM     25  CD  GLU B   6      30.105   3.637  11.522  1.00 59.86 LIG 0.17  C 
ATOM     26 OE2  GLU B   6      30.219   4.873  11.428  1.00 64.67 LIG-0.65  OA
ATOM     27 OE1  GLU B   6      29.984   2.939  10.496  1.00 64.70 LIG-0.65  OA
ENDBRANCH 24 25
ENDBRANCH 23 24
ENDBRANCH 22 23
BRANCH 22 28
ATOM     28  C   GLU B   6      31.555   1.391  15.290  1.00 53.54 LIG 0.24  C 
ATOM     29 O    GLU B   6      31.413   0.412  16.047  1.00 53.95 LIG-0.27  OA
ATOM     30  N   ALA B   7      31.498   2.641  15.747  1.00 56.31 LIG-0.35  N 
ATOM     31 H    ALA B   7      31.578   3.340  15.253  1.00 56.31 LIG 0.16  HD
BRANCH 30 32
ATOM     32  CA  ALA B   7      31.284   2.928  17.192  1.00 57.55 LIG 0.16  C 
ATOM     33  CB  ALA B   7      32.544   2.620  18.017  1.00 58.11 LIG 0.04  C 
BRANCH 32 34
ATOM     34  C   ALA B   7      30.869   4.375  17.396  1.00 58.67 LIG 0.22  C 
ATOM     35 O    ALA B   7      30.684   5.105  16.427  1.00 60.59 LIG-0.29  OA
ENDBRANCH 32 34
ENDBRANCH 30 32
ENDBRANCH 22 28
ENDBRANCH 20 22
ENDBRANCH 10 18
ENDBRANCH 7 10
ENDBRANCH 1 6
BRANCH 1 36
ATOM     36  N   LEU B   4      36.588  -2.732   9.512  1.00 37.09 LIG-0.35  N 
ATOM     37 H    LEU B   4      36.180  -1.976   9.556  1.00 37.09 LIG 0.16  HD
ATOM     38  C   TRP B   3      37.168  -3.196   8.398  1.00 37.19 LIG 0.24  C 
ATOM     39 O    TRP B   3      37.735  -4.242   8.351  1.00 36.60 LIG-0.27  OA
BRANCH 38 40
ATOM     40  CA  TRP B   3      37.146  -2.305   7.163  1.00 38.87 LIG 0.18  C 
BRANCH 40 41
ATOM     41  N   TRP B   3      35.765  -1.890   6.896  1.00 40.30 LIG-0.35  N 
ATOM     42  C   ALA B   2      35.235  -0.838   7.541  1.00 43.05 LIG 0.24  C 
ATOM     43 O    ALA B   2      35.789  -0.287   8.496  1.00 42.86 LIG-0.27  OA
ATOM     44 H    TRP B   3      35.349  -2.366   6.312  1.00 40.30 LIG 0.16  HD
BRANCH 42 45
ATOM     45  CA  ALA B   2      33.859  -0.368   7.102  1.00 44.71 LIG 0.17  C 
ATOM     46  CB  ALA B   2      32.744  -1.095   7.900  1.00 44.36 LIG 0.04  C 
BRANCH 45 47
ATOM     47  N   ALA B   2      33.699  -0.658   5.677  1.00 46.59 LIG-0.35  N 
ATOM     48 H    ALA B   2      33.087  -1.235   5.501  1.00 46.59 LIG 0.16  HD
ATOM     49  C   PRO B   1      34.442  -0.074   4.760  1.00 48.49 LIG 0.25  C 
ATOM     50 O    PRO B   1      35.404   0.617   5.056  1.00 48.43 LIG-0.27  OA
BRANCH 49 51
ATOM     51  CA  PRO B   1      34.011  -0.325   3.257  1.00 50.22 LIG 0.28  C 
ATOM     52  N   PRO B   1      32.791   0.419   2.829  1.00 50.48 LIG-0.06  N 
ATOM     53 H3   PRO B   1      32.248  -0.127   2.445  1.00 50.48 LIG 0.28  HD
ATOM     54 H2   PRO B   1      32.390   0.726   3.525  1.00 50.48 LIG 0.28  HD
ATOM     55  CD  PRO B   1      33.082   1.535   1.909  1.00 50.94 LIG 0.23  C 
ATOM     56  CG  PRO B   1      34.587   1.451   1.665  1.00 51.81 LIG 0.03  C 
ATOM     57  CB  PRO B   1      35.090   0.128   2.253  1.00 50.52 LIG 0.04  C 
ENDBRANCH 49 51
ENDBRANCH 45 47
ENDBRANCH 42 45
ENDBRANCH 40 41
BRANCH 40 58
ATOM     58  CB  TRP B   3      38.108  -1.112   7.371  1.00 38.41 LIG 0.07  C 
BRANCH 58 59
ATOM     59  CG  TRP B   3      38.559  -0.604   6.079  1.00 37.10 LIG-0.03  A 
ATOM     60  CD1 TRP B   3      38.548   0.679   5.676  1.00 36.42 LIG 0.10  A 
ATOM     61  NE1 TRP B   3      39.010   0.772   4.399  1.00 36.34 LIG-0.36  N 
ATOM     62 HE1  TRP B   3      39.088   1.500   3.946  1.00 36.34 LIG 0.17  HD
ATOM     63  CE2 TRP B   3      39.329  -0.482   3.952  1.00 35.80 LIG 0.04  A 
ATOM     64  CD2 TRP B   3      39.036  -1.372   4.974  1.00 33.30 LIG-0.00  A 
ATOM     65  CZ2 TRP B   3      39.809  -0.897   2.706  1.00 36.94 LIG 0.03  A 
ATOM     66  CE3 TRP B   3      39.276  -2.723   4.775  1.00 37.18 LIG 0.01  A 
ATOM     67  CZ3 TRP B   3      39.784  -3.140   3.546  1.00 37.29 LIG 0.00  A 
ATOM     68  CH2 TRP B   3      40.040  -2.218   2.526  1.00 32.87 LIG 0.00  A 
ENDBRANCH 58 59
ENDBRANCH 40 58
ENDBRANCH 38 40
ENDBRANCH 1 36
TORSDOF 22
ENDMDL
MODEL 34
USER: ADFR SOLUTION from run 84
USER: SCORE 21.674132 LL:  -7.596 LR: -16.717 RR:   0.000 FEB: -10.155
USER: RMSD 7.625283
USER: SEED 83
USER: STATUS no improvement in best in 12 clusters for 5 generations
USER: GENES 24
USER: genes 0 Translation |==|  0.60784 0.60101 0.39250
USER: genes 1 Rotation |==|  0.74237 0.41741 0.75209 0.84769
USER: genes 2 Torsion [C]-CA--CB-[CG] |==|  0.25396
USER: genes 3 Torsion [CA]-CB--CG-[CD1] |==|  0.78302
USER: genes 4 Torsion [N]-CA--C-[N] |==|  0.32971
USER: genes 5 Torsion [C]-N--CA-[CB] |==|  0.15408
USER: genes 6 Torsion [N]-CA--CB-[CG] |==|  0.65938
USER: genes 7 Torsion [CA]-CB--CG-[CD2] |==|  0.31108
USER: genes 8 Torsion [N]-CA--C-[N] |==|  0.63793
USER: genes 9 Torsion [C]-N--CA-[C] |==|  0.65000
USER: genes 10 Torsion [N]-CA--CB-[CG] |==|  0.80156
USER: genes 11 Torsion [CA]-CB--CG-[CD] |==|  0.74078
USER: genes 12 Torsion [CB]-CG--CD-[OE2] |==|  0.88887
USER: genes 13 Torsion [N]-CA--C-[N] |==|  0.43158
USER: genes 14 Torsion [C]-N--CA-[CB] |==|  0.89127
USER: genes 15 Torsion [N]-CA--C-[O] |==|  0.45773
USER: genes 16 Torsion [CB]-CA--N-[C] |==|  0.32397
USER: genes 17 Torsion [N]-C--CA-[N] |==|  0.90820
USER: genes 18 Torsion [C]-CA--N-[C] |==|  0.75060
USER: genes 19 Torsion [N]-C--CA-[N] |==|  0.94838
USER: genes 20 Torsion [C]-CA--N-[C] |==|  0.78345
USER: genes 21 Torsion [N]-C--CA-[N] |==|  0.39348
USER: genes 22 Torsion [C]-CA--CB-[CG] |==|  0.84028
USER: genes 23 Torsion [CA]-CB--CG-[CD1] |==|  0.77030
ROOT
ATOM      1  CA  LEU B   4      37.101  -1.032   7.240  1.00 36.98 LIG 0.18  C 
ENDROOT
BRANCH 1 2
ATOM      2  CB  LEU B   4      35.825  -0.230   6.985  1.00 35.91 LIG 0.04  C 
BRANCH 2 3
ATOM      3  CG  LEU B   4      35.440   0.790   8.071  1.00 35.93 LIG-0.02  C 
ATOM      4  CD2 LEU B   4      36.628   1.626   8.535  1.00 33.66 LIG 0.01  C 
ATOM      5  CD1 LEU B   4      34.776   0.084   9.304  1.00 37.78 LIG 0.01  C 
ENDBRANCH 2 3
ENDBRANCH 1 2
BRANCH 1 6
ATOM      6  C   LEU B   4      36.704  -2.307   7.967  1.00 38.06 LIG 0.24  C 
ATOM      7  N   PHE B   5      37.187  -2.454   9.204  1.00 38.73 LIG-0.35  N 
ATOM      8 H    PHE B   5      37.597  -1.829   9.629  1.00 38.73 LIG 0.16  HD
ATOM      9 O    LEU B   4      36.035  -3.164   7.379  1.00 36.58 LIG-0.27  OA
BRANCH 7 10
ATOM     10  CA  PHE B   5      37.064  -3.699   9.956  1.00 41.04 LIG 0.18  C 
BRANCH 10 11
ATOM     11  CB  PHE B   5      37.642  -4.911   9.204  1.00 39.67 LIG 0.07  C 
BRANCH 11 12
ATOM     12  CG  PHE B   5      36.662  -6.001   8.994  1.00 38.07 LIG-0.06  A 
ATOM     13  CD2 PHE B   5      36.211  -6.304   7.736  1.00 33.96 LIG 0.01  A 
ATOM     14  CE2 PHE B   5      35.253  -7.333   7.524  1.00 35.53 LIG 0.00  A 
ATOM     15  CZ  PHE B   5      34.714  -8.013   8.599  1.00 34.38 LIG 0.00  A 
ATOM     16  CE1 PHE B   5      35.171  -7.688   9.884  1.00 35.56 LIG 0.00  A 
ATOM     17  CD1 PHE B   5      36.139  -6.688  10.070  1.00 35.27 LIG 0.01  A 
ENDBRANCH 11 12
ENDBRANCH 10 11
BRANCH 10 18
ATOM     18  C   PHE B   5      37.743  -3.628  11.290  1.00 43.64 LIG 0.24  C 
ATOM     19 O    PHE B   5      37.488  -2.688  12.056  1.00 43.27 LIG-0.27  OA
ATOM     20  N   GLU B   6      38.564  -4.642  11.570  1.00 47.41 LIG-0.35  N 
ATOM     21 H    GLU B   6      38.525  -5.402  11.168  1.00 47.41 LIG 0.16  HD
BRANCH 20 22
ATOM     22  CA  GLU B   6      39.629  -4.570  12.597  1.00 51.55 LIG 0.18  C 
BRANCH 22 23
ATOM     23  CB  GLU B   6      39.327  -5.478  13.803  1.00 52.47 LIG 0.04  C 
BRANCH 23 24
ATOM     24  CG  GLU B   6      38.151  -4.933  14.691  1.00 56.11 LIG 0.12  C 
BRANCH 24 25
ATOM     25  CD  GLU B   6      38.592  -4.048  15.885  1.00 59.86 LIG 0.17  C 
ATOM     26 OE2  GLU B   6      39.605  -4.373  16.531  1.00 64.67 LIG-0.65  OA
ATOM     27 OE1  GLU B   6      37.973  -3.005  16.173  1.00 64.70 LIG-0.65  OA
ENDBRANCH 24 25
ENDBRANCH 23 24
ENDBRANCH 22 23
BRANCH 22 28
ATOM     28  C   GLU B   6      40.976  -4.969  11.932  1.00 53.54 LIG 0.24  C 
ATOM     29 O    GLU B   6      41.014  -5.660  10.896  1.00 53.95 LIG-0.27  OA
ATOM     30  N   ALA B   7      42.086  -4.501  12.501  1.00 56.31 LIG-0.35  N 
ATOM     31 H    ALA B   7      42.098  -4.033  13.222  1.00 56.31 LIG 0.16  HD
BRANCH 30 32
ATOM     32  CA  ALA B   7      43.427  -4.761  11.911  1.00 57.55 LIG 0.16  C 
ATOM     33  CB  ALA B   7      43.528  -6.190  11.354  1.00 58.11 LIG 0.04  C 
BRANCH 32 34
ATOM     34  C   ALA B   7      43.737  -3.753  10.817  1.00 58.67 LIG 0.22  C 
ATOM     35 O    ALA B   7      44.888  -3.624  10.408  1.00 60.59 LIG-0.29  OA
ENDBRANCH 32 34
ENDBRANCH 30 32
ENDBRANCH 22 28
ENDBRANCH 20 22
ENDBRANCH 10 18
ENDBRANCH 7 10
ENDBRANCH 1 6
BRANCH 1 36
ATOM     36  N   LEU B   4      37.859  -1.245   6.013  1.00 37.09 LIG-0.35  N 
ATOM     37 H    LEU B   4      37.445  -1.715   5.422  1.00 37.09 LIG 0.16  HD
ATOM     38  C   TRP B   3      39.089  -0.748   5.834  1.00 37.19 LIG 0.24  C 
ATOM     39 O    TRP B   3      39.649  -0.095   6.657  1.00 36.60 LIG-0.27  OA
BRANCH 38 40
ATOM     40  CA  TRP B   3      39.762  -0.987   4.488  1.00 38.87 LIG 0.18  C 
BRANCH 40 41
ATOM     41  N   TRP B   3      39.336  -2.287   3.963  1.00 40.30 LIG-0.35  N 
ATOM     42  C   ALA B   2      40.028  -3.400   4.259  1.00 43.05 LIG 0.24  C 
ATOM     43 O    ALA B   2      41.128  -3.377   4.818  1.00 42.86 LIG-0.27  OA
ATOM     44 H    TRP B   3      38.631  -2.267   3.469  1.00 40.30 LIG 0.16  HD
BRANCH 42 45
ATOM     45  CA  ALA B   2      39.442  -4.728   3.814  1.00 44.71 LIG 0.17  C 
ATOM     46  CB  ALA B   2      40.151  -5.245   2.534  1.00 44.36 LIG 0.04  C 
BRANCH 45 47
ATOM     47  N   ALA B   2      38.019  -4.541   3.534  1.00 46.59 LIG-0.35  N 
ATOM     48 H    ALA B   2      37.828  -4.482   2.697  1.00 46.59 LIG 0.16  HD
ATOM     49  C   PRO B   1      37.123  -4.470   4.497  1.00 48.49 LIG 0.25  C 
ATOM     50 O    PRO B   1      37.447  -4.399   5.672  1.00 48.43 LIG-0.27  OA
BRANCH 49 51
ATOM     51  CA  PRO B   1      35.608  -4.483   4.035  1.00 50.22 LIG 0.28  C 
ATOM     52  N   PRO B   1      34.695  -5.260   4.923  1.00 50.48 LIG-0.06  N 
ATOM     53 H3   PRO B   1      34.221  -5.793   4.442  1.00 50.48 LIG 0.28  HD
ATOM     54 H2   PRO B   1      35.166  -5.750   5.451  1.00 50.48 LIG 0.28  HD
ATOM     55  CD  PRO B   1      33.799  -4.408   5.726  1.00 50.94 LIG 0.23  C 
ATOM     56  CG  PRO B   1      34.101  -2.985   5.262  1.00 51.81 LIG 0.03  C 
ATOM     57  CB  PRO B   1      34.989  -3.071   4.016  1.00 50.52 LIG 0.04  C 
ENDBRANCH 49 51
ENDBRANCH 45 47
ENDBRANCH 42 45
ENDBRANCH 40 41
BRANCH 40 58
ATOM     58  CB  TRP B   3      39.438   0.188   3.536  1.00 38.41 LIG 0.07  C 
BRANCH 58 59
ATOM     59  CG  TRP B   3      37.992   0.326   3.388  1.00 37.10 LIG-0.03  A 
ATOM     60  CD1 TRP B   3      37.202  -0.376   2.557  1.00 36.42 LIG 0.10  A 
ATOM     61  NE1 TRP B   3      35.913   0.049   2.665  1.00 36.34 LIG-0.36  N 
ATOM     62 HE1  TRP B   3      35.244  -0.264   2.224  1.00 36.34 LIG 0.17  HD
ATOM     63  CE2 TRP B   3      35.858   1.057   3.590  1.00 35.80 LIG 0.04  A 
ATOM     64  CD2 TRP B   3      37.149   1.271   4.046  1.00 33.30 LIG-0.00  A 
ATOM     65  CZ2 TRP B   3      34.770   1.824   4.019  1.00 36.94 LIG 0.03  A 
ATOM     66  CE3 TRP B   3      37.366   2.249   5.004  1.00 37.18 LIG 0.01  A 
ATOM     67  CZ3 TRP B   3      36.281   2.996   5.460  1.00 37.29 LIG 0.00  A 
ATOM     68  CH2 TRP B   3      34.996   2.773   4.955  1.00 32.87 LIG 0.00  A 
ENDBRANCH 58 59
ENDBRANCH 40 58
ENDBRANCH 38 40
ENDBRANCH 1 36
TORSDOF 22
ENDMDL
MODEL 35
USER: ADFR SOLUTION from run 62
USER: SCORE 20.230334 LL:  -5.860 LR: -16.715 RR:   0.000 FEB: -10.153
USER: RMSD 7.636148
USER: SEED 61
USER: STATUS no improvement in best in 13 clusters for 5 generations
USER: GENES 24
USER: genes 0 Translation |==|  0.59454 0.46084 0.56803
USER: genes 1 Rotation |==|  0.72642 0.25551 0.30094 0.81517
USER: genes 2 Torsion [C]-CA--CB-[CG] |==|  0.32200
USER: genes 3 Torsion [CA]-CB--CG-[CD1] |==|  0.96827
USER: genes 4 Torsion [N]-CA--C-[N] |==|  0.75453
USER: genes 5 Torsion [C]-N--CA-[CB] |==|  0.27222
USER: genes 6 Torsion [N]-CA--CB-[CG] |==|  0.89403
USER: genes 7 Torsion [CA]-CB--CG-[CD2] |==|  0.80692
USER: genes 8 Torsion [N]-CA--C-[N] |==|  0.46712
USER: genes 9 Torsion [C]-N--CA-[C] |==|  0.64687
USER: genes 10 Torsion [N]-CA--CB-[CG] |==|  0.53017
USER: genes 11 Torsion [CA]-CB--CG-[CD] |==|  0.34496
USER: genes 12 Torsion [CB]-CG--CD-[OE2] |==|  0.02160
USER: genes 13 Torsion [N]-CA--C-[N] |==|  0.45680
USER: genes 14 Torsion [C]-N--CA-[CB] |==|  0.22466
USER: genes 15 Torsion [N]-CA--C-[O] |==|  0.91194
USER: genes 16 Torsion [CB]-CA--N-[C] |==|  0.74281
USER: genes 17 Torsion [N]-C--CA-[N] |==|  0.48278
USER: genes 18 Torsion [C]-CA--N-[C] |==|  0.59611
USER: genes 19 Torsion [N]-C--CA-[N] |==|  0.44187
USER: genes 20 Torsion [C]-CA--N-[C] |==|  0.76314
USER: genes 21 Torsion [N]-C--CA-[N] |==|  0.20630
USER: genes 22 Torsion [C]-CA--CB-[CG] |==|  0.65691
USER: genes 23 Torsion [CA]-CB--CG-[CD1] |==|  0.67080
ROOT
ATOM      1  CA  LEU B   4      36.811  -3.766  11.190  1.00 36.98 LIG 0.18  C 
ENDROOT
BRANCH 1 2
ATOM      2  CB  LEU B   4      37.907  -3.002  11.933  1.00 35.91 LIG 0.04  C 
BRANCH 2 3
ATOM      3  CG  LEU B   4      38.996  -3.861  12.600  1.00 35.93 LIG-0.02  C 
ATOM      4  CD2 LEU B   4      40.357  -3.698  11.934  1.00 33.66 LIG 0.01  C 
ATOM      5  CD1 LEU B   4      38.591  -5.377  12.615  1.00 37.78 LIG 0.01  C 
ENDBRANCH 2 3
ENDBRANCH 1 2
BRANCH 1 6
ATOM      6  C   LEU B   4      35.497  -3.496  11.905  1.00 38.06 LIG 0.24  C 
ATOM      7  N   PHE B   5      35.338  -2.265  12.399  1.00 38.73 LIG-0.35  N 
ATOM      8 H    PHE B   5      35.876  -1.615  12.232  1.00 38.73 LIG 0.16  HD
ATOM      9 O    LEU B   4      34.686  -4.415  12.063  1.00 36.58 LIG-0.27  OA
BRANCH 7 10
ATOM     10  CA  PHE B   5      34.229  -1.904  13.276  1.00 41.04 LIG 0.18  C 
BRANCH 10 11
ATOM     11  CB  PHE B   5      34.616  -1.922  14.766  1.00 39.67 LIG 0.07  C 
BRANCH 11 12
ATOM     12  CG  PHE B   5      35.534  -3.026  15.127  1.00 38.07 LIG-0.06  A 
ATOM     13  CD2 PHE B   5      35.099  -4.326  15.122  1.00 33.96 LIG 0.01  A 
ATOM     14  CE2 PHE B   5      35.965  -5.394  15.488  1.00 35.53 LIG 0.00  A 
ATOM     15  CZ  PHE B   5      37.253  -5.130  15.912  1.00 34.38 LIG 0.00  A 
ATOM     16  CE1 PHE B   5      37.685  -3.797  15.926  1.00 35.56 LIG 0.00  A 
ATOM     17  CD1 PHE B   5      36.824  -2.760  15.534  1.00 35.27 LIG 0.01  A 
ENDBRANCH 11 12
ENDBRANCH 10 11
BRANCH 10 18
ATOM     18  C   PHE B   5      33.677  -0.546  12.968  1.00 43.64 LIG 0.24  C 
ATOM     19 O    PHE B   5      34.281   0.195  12.181  1.00 43.27 LIG-0.27  OA
ATOM     20  N   GLU B   6      32.515  -0.252  13.557  1.00 47.41 LIG-0.35  N 
ATOM     21 H    GLU B   6      31.982  -0.851  13.869  1.00 47.41 LIG 0.16  HD
BRANCH 20 22
ATOM     22  CA  GLU B   6      32.019   1.132  13.737  1.00 51.55 LIG 0.18  C 
BRANCH 22 23
ATOM     23  CB  GLU B   6      30.798   1.426  12.848  1.00 52.47 LIG 0.04  C 
BRANCH 23 24
ATOM     24  CG  GLU B   6      30.425   2.952  12.817  1.00 56.11 LIG 0.12  C 
BRANCH 24 25
ATOM     25  CD  GLU B   6      30.372   3.582  11.402  1.00 59.86 LIG 0.17  C 
ATOM     26 OE2  GLU B   6      30.474   2.838  10.410  1.00 64.67 LIG-0.65  OA
ATOM     27 OE1  GLU B   6      30.190   4.806  11.252  1.00 64.70 LIG-0.65  OA
ENDBRANCH 24 25
ENDBRANCH 23 24
ENDBRANCH 22 23
BRANCH 22 28
ATOM     28  C   GLU B   6      31.668   1.332  15.238  1.00 53.54 LIG 0.24  C 
ATOM     29 O    GLU B   6      31.575   0.367  16.022  1.00 53.95 LIG-0.27  OA
ATOM     30  N   ALA B   7      31.512   2.587  15.655  1.00 56.31 LIG-0.35  N 
ATOM     31 H    ALA B   7      31.556   3.275  15.140  1.00 56.31 LIG 0.16  HD
BRANCH 30 32
ATOM     32  CA  ALA B   7      31.242   2.902  17.084  1.00 57.55 LIG 0.16  C 
ATOM     33  CB  ALA B   7      32.536   2.891  17.915  1.00 58.11 LIG 0.04  C 
BRANCH 32 34
ATOM     34  C   ALA B   7      30.549   4.247  17.217  1.00 58.67 LIG 0.22  C 
ATOM     35 O    ALA B   7      30.784   5.142  16.410  1.00 60.59 LIG-0.29  OA
ENDBRANCH 32 34
ENDBRANCH 30 32
ENDBRANCH 22 28
ENDBRANCH 20 22
ENDBRANCH 10 18
ENDBRANCH 7 10
ENDBRANCH 1 6
BRANCH 1 36
ATOM     36  N   LEU B   4      36.802  -3.448   9.766  1.00 37.09 LIG-0.35  N 
ATOM     37 H    LEU B   4      37.329  -3.938   9.294  1.00 37.09 LIG 0.16  HD
ATOM     38  C   TRP B   3      36.037  -2.477   9.252  1.00 37.19 LIG 0.24  C 
ATOM     39 O    TRP B   3      35.308  -1.808   9.915  1.00 36.60 LIG-0.27  OA
BRANCH 38 40
ATOM     40  CA  TRP B   3      36.067  -2.274   7.743  1.00 38.87 LIG 0.18  C 
BRANCH 40 41
ATOM     41  N   TRP B   3      35.060  -1.275   7.373  1.00 40.30 LIG-0.35  N 
ATOM     42  C   ALA B   2      34.393  -1.380   6.211  1.00 43.05 LIG 0.24  C 
ATOM     43 O    ALA B   2      34.702  -2.188   5.331  1.00 42.86 LIG-0.27  OA
ATOM     44 H    TRP B   3      34.945  -0.645   7.947  1.00 40.30 LIG 0.16  HD
BRANCH 42 45
ATOM     45  CA  ALA B   2      33.257  -0.403   5.965  1.00 44.71 LIG 0.17  C 
ATOM     46  CB  ALA B   2      31.964  -0.864   6.689  1.00 44.36 LIG 0.04  C 
BRANCH 45 47
ATOM     47  N   ALA B   2      33.004  -0.333   4.526  1.00 46.59 LIG-0.35  N 
ATOM     48 H    ALA B   2      32.381  -0.857   4.251  1.00 46.59 LIG 0.16  HD
ATOM     49  C   PRO B   1      33.686   0.472   3.738  1.00 48.49 LIG 0.25  C 
ATOM     50 O    PRO B   1      34.666   1.083   4.135  1.00 48.43 LIG-0.27  OA
BRANCH 49 51
ATOM     51  CA  PRO B   1      33.156   0.596   2.250  1.00 50.22 LIG 0.28  C 
ATOM     52  N   PRO B   1      31.912   1.405   2.099  1.00 50.48 LIG-0.06  N 
ATOM     53 H3   PRO B   1      31.344   0.963   1.628  1.00 50.48 LIG 0.28  HD
ATOM     54 H2   PRO B   1      31.558   1.523   2.874  1.00 50.48 LIG 0.28  HD
ATOM     55  CD  PRO B   1      32.144   2.718   1.470  1.00 50.94 LIG 0.23  C 
ATOM     56  CG  PRO B   1      33.629   2.721   1.117  1.00 51.81 LIG 0.03  C 
ATOM     57  CB  PRO B   1      34.168   1.301   1.324  1.00 50.52 LIG 0.04  C 
ENDBRANCH 49 51
ENDBRANCH 45 47
ENDBRANCH 42 45
ENDBRANCH 40 41
BRANCH 40 58
ATOM     58  CB  TRP B   3      37.498  -1.884   7.305  1.00 38.41 LIG 0.07  C 
BRANCH 58 59
ATOM     59  CG  TRP B   3      37.471  -0.612   6.586  1.00 37.10 LIG-0.03  A 
ATOM     60  CD1 TRP B   3      37.843  -0.406   5.311  1.00 36.42 LIG 0.10  A 
ATOM     61  NE1 TRP B   3      37.715   0.911   4.993  1.00 36.34 LIG-0.36  N 
ATOM     62 HE1  TRP B   3      37.897   1.262   4.229  1.00 36.34 LIG 0.17  HD
ATOM     63  CE2 TRP B   3      37.248   1.586   6.089  1.00 35.80 LIG 0.04  A 
ATOM     64  CD2 TRP B   3      37.105   0.663   7.114  1.00 33.30 LIG-0.00  A 
ATOM     65  CZ2 TRP B   3      36.988   2.949   6.262  1.00 36.94 LIG 0.03  A 
ATOM     66  CE3 TRP B   3      36.638   1.096   8.345  1.00 37.18 LIG 0.01  A 
ATOM     67  CZ3 TRP B   3      36.346   2.448   8.515  1.00 37.29 LIG 0.00  A 
ATOM     68  CH2 TRP B   3      36.530   3.357   7.467  1.00 32.87 LIG 0.00  A 
ENDBRANCH 58 59
ENDBRANCH 40 58
ENDBRANCH 38 40
ENDBRANCH 1 36
TORSDOF 22
ENDMDL
MODEL 36
USER: ADFR SOLUTION from run 194
USER: SCORE 20.835266 LL:  -5.291 LR: -16.708 RR:   0.000 FEB: -10.145
USER: RMSD 7.791218
USER: SEED 193
USER: STATUS no improvement in best in 22 clusters for 5 generations
USER: GENES 24
USER: genes 0 Translation |==|  0.60703 0.28903 0.32998
USER: genes 1 Rotation |==|  0.42090 0.43935 0.03659 0.65909
USER: genes 2 Torsion [C]-CA--CB-[CG] |==|  0.38483
USER: genes 3 Torsion [CA]-CB--CG-[CD1] |==|  0.59161
USER: genes 4 Torsion [N]-CA--C-[N] |==|  0.21596
USER: genes 5 Torsion [C]-N--CA-[CB] |==|  0.55144
USER: genes 6 Torsion [N]-CA--CB-[CG] |==|  0.59773
USER: genes 7 Torsion [CA]-CB--CG-[CD2] |==|  0.13971
USER: genes 8 Torsion [N]-CA--C-[N] |==|  0.43105
USER: genes 9 Torsion [C]-N--CA-[C] |==|  0.78889
USER: genes 10 Torsion [N]-CA--CB-[CG] |==|  0.09429
USER: genes 11 Torsion [CA]-CB--CG-[CD] |==|  0.61377
USER: genes 12 Torsion [CB]-CG--CD-[OE2] |==|  0.50462
USER: genes 13 Torsion [N]-CA--C-[N] |==|  0.19319
USER: genes 14 Torsion [C]-N--CA-[CB] |==|  0.19616
USER: genes 15 Torsion [N]-CA--C-[O] |==|  0.95385
USER: genes 16 Torsion [CB]-CA--N-[C] |==|  0.75656
USER: genes 17 Torsion [N]-C--CA-[N] |==|  0.02165
USER: genes 18 Torsion [C]-CA--N-[C] |==|  0.20496
USER: genes 19 Torsion [N]-C--CA-[N] |==|  0.89410
USER: genes 20 Torsion [C]-CA--N-[C] |==|  0.81205
USER: genes 21 Torsion [N]-C--CA-[N] |==|  0.46718
USER: genes 22 Torsion [C]-CA--CB-[CG] |==|  0.29011
USER: genes 23 Torsion [CA]-CB--CG-[CD1] |==|  0.41428
ROOT
ATOM      1  CA  LEU B   4      37.083  -7.116   5.834  1.00 36.98 LIG 0.18  C 
ENDROOT
BRANCH 1 2
ATOM      2  CB  LEU B   4      37.689  -8.071   4.806  1.00 35.91 LIG 0.04  C 
BRANCH 2 3
ATOM      3  CG  LEU B   4      36.712  -9.058   4.142  1.00 35.93 LIG-0.02  C 
ATOM      4  CD2 LEU B   4      35.471  -9.310   4.990  1.00 33.66 LIG 0.01  C 
ATOM      5  CD1 LEU B   4      37.417 -10.421   3.815  1.00 37.78 LIG 0.01  C 
ENDBRANCH 2 3
ENDBRANCH 1 2
BRANCH 1 6
ATOM      6  C   LEU B   4      38.051  -7.024   7.003  1.00 38.06 LIG 0.24  C 
ATOM      7  N   PHE B   5      37.529  -6.639   8.170  1.00 38.73 LIG-0.35  N 
ATOM      8 H    PHE B   5      36.684  -6.559   8.307  1.00 38.73 LIG 0.16  HD
ATOM      9 O    LEU B   4      39.255  -7.230   6.817  1.00 36.58 LIG-0.27  OA
BRANCH 7 10
ATOM     10  CA  PHE B   5      38.350  -6.313   9.332  1.00 41.04 LIG 0.18  C 
BRANCH 10 11
ATOM     11  CB  PHE B   5      37.556  -6.341  10.650  1.00 39.67 LIG 0.07  C 
BRANCH 11 12
ATOM     12  CG  PHE B   5      37.993  -5.318  11.627  1.00 38.07 LIG-0.06  A 
ATOM     13  CD2 PHE B   5      38.124  -4.006  11.254  1.00 33.96 LIG 0.01  A 
ATOM     14  CE2 PHE B   5      38.565  -3.018  12.177  1.00 35.53 LIG 0.00  A 
ATOM     15  CZ  PHE B   5      38.926  -3.377  13.461  1.00 34.38 LIG 0.00  A 
ATOM     16  CE1 PHE B   5      38.803  -4.724  13.830  1.00 35.56 LIG 0.00  A 
ATOM     17  CD1 PHE B   5      38.338  -5.680  12.913  1.00 35.27 LIG 0.01  A 
ENDBRANCH 11 12
ENDBRANCH 10 11
BRANCH 10 18
ATOM     18  C   PHE B   5      39.515  -7.243   9.486  1.00 43.64 LIG 0.24  C 
ATOM     19 O    PHE B   5      39.470  -8.369   8.970  1.00 43.27 LIG-0.27  OA
ATOM     20  N   GLU B   6      40.559  -6.749  10.155  1.00 47.41 LIG-0.35  N 
ATOM     21 H    GLU B   6      40.689  -5.905  10.265  1.00 47.41 LIG 0.16  HD
BRANCH 20 22
ATOM     22  CA  GLU B   6      41.603  -7.594  10.778  1.00 51.55 LIG 0.18  C 
BRANCH 22 23
ATOM     23  CB  GLU B   6      42.886  -6.798  11.077  1.00 52.47 LIG 0.04  C 
BRANCH 23 24
ATOM     24  CG  GLU B   6      42.593  -5.307  11.476  1.00 56.11 LIG 0.12  C 
BRANCH 24 25
ATOM     25  CD  GLU B   6      43.565  -4.266  10.866  1.00 59.86 LIG 0.17  C 
ATOM     26 OE2  GLU B   6      43.420  -3.065  11.159  1.00 64.67 LIG-0.65  OA
ATOM     27 OE1  GLU B   6      44.505  -4.621  10.127  1.00 64.70 LIG-0.65  OA
ENDBRANCH 24 25
ENDBRANCH 23 24
ENDBRANCH 22 23
BRANCH 22 28
ATOM     28  C   GLU B   6      41.019  -8.206  12.083  1.00 53.54 LIG 0.24  C 
ATOM     29 O    GLU B   6      41.395  -7.827  13.208  1.00 53.95 LIG-0.27  OA
ATOM     30  N   ALA B   7      40.066  -9.126  11.938  1.00 56.31 LIG-0.35  N 
ATOM     31 H    ALA B   7      39.791  -9.420  11.178  1.00 56.31 LIG 0.16  HD
BRANCH 30 32
ATOM     32  CA  ALA B   7      39.387  -9.729  13.116  1.00 57.55 LIG 0.16  C 
ATOM     33  CB  ALA B   7      38.462  -8.717  13.810  1.00 58.11 LIG 0.04  C 
BRANCH 32 34
ATOM     34  C   ALA B   7      38.596 -10.962  12.708  1.00 58.67 LIG 0.22  C 
ATOM     35 O    ALA B   7      38.330 -11.157  11.525  1.00 60.59 LIG-0.29  OA
ENDBRANCH 32 34
ENDBRANCH 30 32
ENDBRANCH 22 28
ENDBRANCH 20 22
ENDBRANCH 10 18
ENDBRANCH 7 10
ENDBRANCH 1 6
BRANCH 1 36
ATOM     36  N   LEU B   4      36.731  -5.832   5.236  1.00 37.09 LIG-0.35  N 
ATOM     37 H    LEU B   4      35.920  -5.788   4.954  1.00 37.09 LIG 0.16  HD
ATOM     38  C   TRP B   3      37.604  -4.821   5.142  1.00 37.19 LIG 0.24  C 
ATOM     39 O    TRP B   3      38.723  -4.893   5.541  1.00 36.60 LIG-0.27  OA
BRANCH 38 40
ATOM     40  CA  TRP B   3      37.107  -3.508   4.552  1.00 38.87 LIG 0.18  C 
BRANCH 40 41
ATOM     41  N   TRP B   3      35.655  -3.585   4.366  1.00 40.30 LIG-0.35  N 
ATOM     42  C   ALA B   2      34.830  -3.517   5.426  1.00 43.05 LIG 0.24  C 
ATOM     43 O    ALA B   2      35.230  -3.570   6.591  1.00 42.86 LIG-0.27  OA
ATOM     44 H    TRP B   3      35.396  -3.672   3.550  1.00 40.30 LIG 0.16  HD
BRANCH 42 45
ATOM     45  CA  ALA B   2      33.339  -3.443   5.148  1.00 44.71 LIG 0.17  C 
ATOM     46  CB  ALA B   2      32.755  -4.856   4.877  1.00 44.36 LIG 0.04  C 
BRANCH 45 47
ATOM     47  N   ALA B   2      33.124  -2.600   3.972  1.00 46.59 LIG-0.35  N 
ATOM     48 H    ALA B   2      32.830  -3.023   3.283  1.00 46.59 LIG 0.16  HD
ATOM     49  C   PRO B   1      33.369  -1.306   3.989  1.00 48.49 LIG 0.25  C 
ATOM     50 O    PRO B   1      33.933  -0.771   4.930  1.00 48.43 LIG-0.27  OA
BRANCH 49 51
ATOM     51  CA  PRO B   1      32.887  -0.494   2.717  1.00 50.22 LIG 0.28  C 
ATOM     52  N   PRO B   1      32.922   0.989   2.878  1.00 50.48 LIG-0.06  N 
ATOM     53 H3   PRO B   1      32.167   1.317   2.629  1.00 50.48 LIG 0.28  HD
ATOM     54 H2   PRO B   1      33.017   1.179   3.711  1.00 50.48 LIG 0.28  HD
ATOM     55  CD  PRO B   1      34.005   1.632   2.110  1.00 50.94 LIG 0.23  C 
ATOM     56  CG  PRO B   1      34.661   0.490   1.338  1.00 51.81 LIG 0.03  C 
ATOM     57  CB  PRO B   1      33.776  -0.753   1.484  1.00 50.52 LIG 0.04  C 
ENDBRANCH 49 51
ENDBRANCH 45 47
ENDBRANCH 42 45
ENDBRANCH 40 41
BRANCH 40 58
ATOM     58  CB  TRP B   3      37.542  -2.337   5.463  1.00 38.41 LIG 0.07  C 
BRANCH 58 59
ATOM     59  CG  TRP B   3      38.660  -1.620   4.856  1.00 37.10 LIG-0.03  A 
ATOM     60  CD1 TRP B   3      38.935  -0.311   4.984  1.00 36.42 LIG 0.10  A 
ATOM     61  NE1 TRP B   3      40.034   0.012   4.249  1.00 36.34 LIG-0.36  N 
ATOM     62 HE1  TRP B   3      40.384   0.795   4.188  1.00 36.34 LIG 0.17  HD
ATOM     63  CE2 TRP B   3      40.490  -1.116   3.620  1.00 35.80 LIG 0.04  A 
ATOM     64  CD2 TRP B   3      39.636  -2.154   3.962  1.00 33.30 LIG-0.00  A 
ATOM     65  CZ2 TRP B   3      41.563  -1.282   2.739  1.00 36.94 LIG 0.03  A 
ATOM     66  CE3 TRP B   3      39.883  -3.419   3.452  1.00 37.18 LIG 0.01  A 
ATOM     67  CZ3 TRP B   3      40.971  -3.599   2.599  1.00 37.29 LIG 0.00  A 
ATOM     68  CH2 TRP B   3      41.794  -2.522   2.251  1.00 32.87 LIG 0.00  A 
ENDBRANCH 58 59
ENDBRANCH 40 58
ENDBRANCH 38 40
ENDBRANCH 1 36
TORSDOF 22
ENDMDL
MODEL 37
USER: ADFR SOLUTION from run 62
USER: SCORE 21.283863 LL:  -6.974 LR: -16.707 RR:   0.000 FEB: -10.144
USER: RMSD 7.037291
USER: SEED 61
USER: STATUS no improvement in best in 13 clusters for 5 generations
USER: GENES 24
USER: genes 0 Translation |==|  0.59305 0.43970 0.58575
USER: genes 1 Rotation |==|  0.67874 0.28109 0.30250 0.86211
USER: genes 2 Torsion [C]-CA--CB-[CG] |==|  0.27330
USER: genes 3 Torsion [CA]-CB--CG-[CD1] |==|  0.99938
USER: genes 4 Torsion [N]-CA--C-[N] |==|  0.79445
USER: genes 5 Torsion [C]-N--CA-[CB] |==|  0.22946
USER: genes 6 Torsion [N]-CA--CB-[CG] |==|  0.55901
USER: genes 7 Torsion [CA]-CB--CG-[CD2] |==|  0.11481
USER: genes 8 Torsion [N]-CA--C-[N] |==|  0.43829
USER: genes 9 Torsion [C]-N--CA-[C] |==|  0.61618
USER: genes 10 Torsion [N]-CA--CB-[CG] |==|  0.49356
USER: genes 11 Torsion [CA]-CB--CG-[CD] |==|  0.36684
USER: genes 12 Torsion [CB]-CG--CD-[OE2] |==|  0.51505
USER: genes 13 Torsion [N]-CA--C-[N] |==|  0.42669
USER: genes 14 Torsion [C]-N--CA-[CB] |==|  0.23988
USER: genes 15 Torsion [N]-CA--C-[O] |==|  0.95058
USER: genes 16 Torsion [CB]-CA--N-[C] |==|  0.19117
USER: genes 17 Torsion [N]-C--CA-[N] |==|  0.08840
USER: genes 18 Torsion [C]-CA--N-[C] |==|  0.16755
USER: genes 19 Torsion [N]-C--CA-[N] |==|  0.89171
USER: genes 20 Torsion [C]-CA--N-[C] |==|  0.66372
USER: genes 21 Torsion [N]-C--CA-[N] |==|  0.33079
USER: genes 22 Torsion [C]-CA--CB-[CG] |==|  0.57794
USER: genes 23 Torsion [CA]-CB--CG-[CD1] |==|  0.79947
ROOT
ATOM      1  CA  LEU B   4      36.779  -4.178  11.588  1.00 36.98 LIG 0.18  C 
ENDROOT
BRANCH 1 2
ATOM      2  CB  LEU B   4      37.973  -3.286  11.926  1.00 35.91 LIG 0.04  C 
BRANCH 2 3
ATOM      3  CG  LEU B   4      39.051  -3.914  12.827  1.00 35.93 LIG-0.02  C 
ATOM      4  CD2 LEU B   4      40.434  -3.891  12.186  1.00 33.66 LIG 0.01  C 
ATOM      5  CD1 LEU B   4      38.674  -5.385  13.222  1.00 37.78 LIG 0.01  C 
ENDBRANCH 2 3
ENDBRANCH 1 2
BRANCH 1 6
ATOM      6  C   LEU B   4      35.647  -3.807  12.533  1.00 38.06 LIG 0.24  C 
ATOM      7  N   PHE B   5      35.349  -2.507  12.613  1.00 38.73 LIG-0.35  N 
ATOM      8 H    PHE B   5      35.679  -1.913  12.086  1.00 38.73 LIG 0.16  HD
ATOM      9 O    LEU B   4      35.114  -4.682  13.223  1.00 36.58 LIG-0.27  OA
BRANCH 7 10
ATOM     10  CA  PHE B   5      34.430  -1.968  13.610  1.00 41.04 LIG 0.18  C 
BRANCH 10 11
ATOM     11  CB  PHE B   5      35.104  -1.724  14.972  1.00 39.67 LIG 0.07  C 
BRANCH 11 12
ATOM     12  CG  PHE B   5      34.149  -1.664  16.103  1.00 38.07 LIG-0.06  A 
ATOM     13  CD2 PHE B   5      33.100  -2.542  16.179  1.00 33.96 LIG 0.01  A 
ATOM     14  CE2 PHE B   5      32.163  -2.481  17.247  1.00 35.53 LIG 0.00  A 
ATOM     15  CZ  PHE B   5      32.265  -1.491  18.205  1.00 34.38 LIG 0.00  A 
ATOM     16  CE1 PHE B   5      33.334  -0.589  18.113  1.00 35.56 LIG 0.00  A 
ATOM     17  CD1 PHE B   5      34.265  -0.684  17.066  1.00 35.27 LIG 0.01  A 
ENDBRANCH 11 12
ENDBRANCH 10 11
BRANCH 10 18
ATOM     18  C   PHE B   5      33.810  -0.676  13.174  1.00 43.64 LIG 0.24  C 
ATOM     19 O    PHE B   5      34.353  -0.007  12.284  1.00 43.27 LIG-0.27  OA
ATOM     20  N   GLU B   6      32.659  -0.361  13.773  1.00 47.41 LIG-0.35  N 
ATOM     21 H    GLU B   6      32.164  -0.941  14.172  1.00 47.41 LIG 0.16  HD
BRANCH 20 22
ATOM     22  CA  GLU B   6      32.111   1.014  13.818  1.00 51.55 LIG 0.18  C 
BRANCH 22 23
ATOM     23  CB  GLU B   6      31.021   1.234  12.753  1.00 52.47 LIG 0.04  C 
BRANCH 23 24
ATOM     24  CG  GLU B   6      30.388   2.670  12.823  1.00 56.11 LIG 0.12  C 
BRANCH 24 25
ATOM     25  CD  GLU B   6      30.283   3.403  11.462  1.00 59.86 LIG 0.17  C 
ATOM     26 OE2  GLU B   6      29.888   4.583  11.444  1.00 64.67 LIG-0.65  OA
ATOM     27 OE1  GLU B   6      30.626   2.841  10.402  1.00 64.70 LIG-0.65  OA
ENDBRANCH 24 25
ENDBRANCH 23 24
ENDBRANCH 22 23
BRANCH 22 28
ATOM     28  C   GLU B   6      31.547   1.268  15.244  1.00 53.54 LIG 0.24  C 
ATOM     29 O    GLU B   6      31.179   0.331  15.978  1.00 53.95 LIG-0.27  OA
ATOM     30  N   ALA B   7      31.514   2.534  15.657  1.00 56.31 LIG-0.35  N 
ATOM     31 H    ALA B   7      31.747   3.206  15.173  1.00 56.31 LIG 0.16  HD
BRANCH 30 32
ATOM     32  CA  ALA B   7      31.059   2.889  17.029  1.00 57.55 LIG 0.16  C 
ATOM     33  CB  ALA B   7      32.214   2.814  18.041  1.00 58.11 LIG 0.04  C 
BRANCH 32 34
ATOM     34  C   ALA B   7      30.440   4.276  17.047  1.00 58.67 LIG 0.22  C 
ATOM     35 O    ALA B   7      30.656   5.058  16.126  1.00 60.59 LIG-0.29  OA
ENDBRANCH 32 34
ENDBRANCH 30 32
ENDBRANCH 22 28
ENDBRANCH 20 22
ENDBRANCH 10 18
ENDBRANCH 7 10
ENDBRANCH 1 6
BRANCH 1 36
ATOM     36  N   LEU B   4      36.435  -4.106  10.173  1.00 37.09 LIG-0.35  N 
ATOM     37 H    LEU B   4      35.685  -3.716  10.013  1.00 37.09 LIG 0.16  HD
ATOM     38  C   TRP B   3      37.226  -4.608   9.216  1.00 37.19 LIG 0.24  C 
ATOM     39 O    TRP B   3      38.264  -5.142   9.448  1.00 36.60 LIG-0.27  OA
BRANCH 38 40
ATOM     40  CA  TRP B   3      36.791  -4.424   7.768  1.00 38.87 LIG 0.18  C 
BRANCH 40 41
ATOM     41  N   TRP B   3      36.057  -3.161   7.644  1.00 40.30 LIG-0.35  N 
ATOM     42  C   ALA B   2      36.653  -1.996   7.950  1.00 43.05 LIG 0.24  C 
ATOM     43 O    ALA B   2      37.751  -1.930   8.507  1.00 42.86 LIG-0.27  OA
ATOM     44 H    TRP B   3      35.245  -3.237   7.369  1.00 40.30 LIG 0.16  HD
BRANCH 42 45
ATOM     45  CA  ALA B   2      35.889  -0.719   7.648  1.00 44.71 LIG 0.17  C 
ATOM     46  CB  ALA B   2      34.852  -0.417   8.763  1.00 44.36 LIG 0.04  C 
BRANCH 45 47
ATOM     47  N   ALA B   2      35.191  -0.882   6.373  1.00 46.59 LIG-0.35  N 
ATOM     48 H    ALA B   2      34.637  -1.539   6.355  1.00 46.59 LIG 0.16  HD
ATOM     49  C   PRO B   1      35.408  -0.078   5.353  1.00 48.49 LIG 0.25  C 
ATOM     50 O    PRO B   1      36.312   0.743   5.362  1.00 48.43 LIG-0.27  OA
BRANCH 49 51
ATOM     51  CA  PRO B   1      34.428  -0.244   4.120  1.00 50.22 LIG 0.28  C 
ATOM     52  N   PRO B   1      33.630   0.973   3.793  1.00 50.48 LIG-0.06  N 
ATOM     53 H3   PRO B   1      32.802   0.754   3.712  1.00 50.48 LIG 0.28  HD
ATOM     54 H2   PRO B   1      33.681   1.527   4.449  1.00 50.48 LIG 0.28  HD
ATOM     55  CD  PRO B   1      34.073   1.647   2.558  1.00 50.94 LIG 0.23  C 
ATOM     56  CG  PRO B   1      35.183   0.753   2.009  1.00 51.81 LIG 0.03  C 
ATOM     57  CB  PRO B   1      35.180  -0.554   2.810  1.00 50.52 LIG 0.04  C 
ENDBRANCH 49 51
ENDBRANCH 45 47
ENDBRANCH 42 45
ENDBRANCH 40 41
BRANCH 40 58
ATOM     58  CB  TRP B   3      38.030  -4.499   6.845  1.00 38.41 LIG 0.07  C 
BRANCH 58 59
ATOM     59  CG  TRP B   3      37.801  -3.709   5.638  1.00 37.10 LIG-0.03  A 
ATOM     60  CD1 TRP B   3      36.978  -4.021   4.622  1.00 36.42 LIG 0.10  A 
ATOM     61  NE1 TRP B   3      37.048  -3.068   3.652  1.00 36.34 LIG-0.36  N 
ATOM     62 HE1  TRP B   3      36.605  -3.069   2.915  1.00 36.34 LIG 0.17  HD
ATOM     63  CE2 TRP B   3      37.942  -2.107   4.043  1.00 35.80 LIG 0.04  A 
ATOM     64  CD2 TRP B   3      38.449  -2.490   5.275  1.00 33.30 LIG-0.00  A 
ATOM     65  CZ2 TRP B   3      38.371  -0.955   3.376  1.00 36.94 LIG 0.03  A 
ATOM     66  CE3 TRP B   3      39.382  -1.675   5.897  1.00 37.18 LIG 0.01  A 
ATOM     67  CZ3 TRP B   3      39.791  -0.509   5.253  1.00 37.29 LIG 0.00  A 
ATOM     68  CH2 TRP B   3      39.280  -0.168   3.996  1.00 32.87 LIG 0.00  A 
ENDBRANCH 58 59
ENDBRANCH 40 58
ENDBRANCH 38 40
ENDBRANCH 1 36
TORSDOF 22
ENDMDL
MODEL 38
USER: ADFR SOLUTION from run 97
USER: SCORE 21.202296 LL:  -7.863 LR: -16.693 RR:   0.000 FEB: -10.130
USER: RMSD 4.116480
USER: SEED 96
USER: STATUS no improvement in best in 3 clusters for 5 generations
USER: GENES 24
USER: genes 0 Translation |==|  0.68084 0.49500 0.30259
USER: genes 1 Rotation |==|  0.41971 0.43416 0.40456 0.97970
USER: genes 2 Torsion [C]-CA--CB-[CG] |==|  0.24510
USER: genes 3 Torsion [CA]-CB--CG-[CD1] |==|  0.42996
USER: genes 4 Torsion [N]-CA--C-[N] |==|  0.70022
USER: genes 5 Torsion [C]-N--CA-[CB] |==|  0.49534
USER: genes 6 Torsion [N]-CA--CB-[CG] |==|  0.14677
USER: genes 7 Torsion [CA]-CB--CG-[CD2] |==|  0.29500
USER: genes 8 Torsion [N]-CA--C-[N] |==|  0.99794
USER: genes 9 Torsion [C]-N--CA-[C] |==|  0.65214
USER: genes 10 Torsion [N]-CA--CB-[CG] |==|  0.55845
USER: genes 11 Torsion [CA]-CB--CG-[CD] |==|  0.14179
USER: genes 12 Torsion [CB]-CG--CD-[OE2] |==|  0.73064
USER: genes 13 Torsion [N]-CA--C-[N] |==|  0.38753
USER: genes 14 Torsion [C]-N--CA-[CB] |==|  0.16478
USER: genes 15 Torsion [N]-CA--C-[O] |==|  0.96383
USER: genes 16 Torsion [CB]-CA--N-[C] |==|  0.36551
USER: genes 17 Torsion [N]-C--CA-[N] |==|  0.90714
USER: genes 18 Torsion [C]-CA--N-[C] |==|  0.76709
USER: genes 19 Torsion [N]-C--CA-[N] |==|  0.97645
USER: genes 20 Torsion [C]-CA--N-[C] |==|  0.77538
USER: genes 21 Torsion [N]-C--CA-[N] |==|  0.87665
USER: genes 22 Torsion [C]-CA--CB-[CG] |==|  0.08714
USER: genes 23 Torsion [CA]-CB--CG-[CD1] |==|  0.21946
ROOT
ATOM      1  CA  LEU B   4      38.688  -3.100   5.217  1.00 36.98 LIG 0.18  C 
ENDROOT
BRANCH 1 2
ATOM      2  CB  LEU B   4      39.033  -2.539   3.837  1.00 35.91 LIG 0.04  C 
BRANCH 2 3
ATOM      3  CG  LEU B   4      40.517  -2.212   3.593  1.00 35.93 LIG-0.02  C 
ATOM      4  CD2 LEU B   4      40.917  -0.856   4.164  1.00 33.66 LIG 0.01  C 
ATOM      5  CD1 LEU B   4      40.866  -2.267   2.064  1.00 37.78 LIG 0.01  C 
ENDBRANCH 2 3
ENDBRANCH 1 2
BRANCH 1 6
ATOM      6  C   LEU B   4      38.411  -1.920   6.136  1.00 38.06 LIG 0.24  C 
ATOM      7  N   PHE B   5      38.171  -0.751   5.535  1.00 38.73 LIG-0.35  N 
ATOM      8 H    PHE B   5      38.056  -0.669   4.687  1.00 38.73 LIG 0.16  HD
ATOM      9 O    LEU B   4      38.490  -2.066   7.360  1.00 36.58 LIG-0.27  OA
BRANCH 7 10
ATOM     10  CA  PHE B   5      38.083   0.508   6.268  1.00 41.04 LIG 0.18  C 
BRANCH 10 11
ATOM     11  CB  PHE B   5      37.840   1.718   5.348  1.00 39.67 LIG 0.07  C 
BRANCH 11 12
ATOM     12  CG  PHE B   5      36.678   1.552   4.446  1.00 38.07 LIG-0.06  A 
ATOM     13  CD2 PHE B   5      35.511   2.233   4.676  1.00 33.96 LIG 0.01  A 
ATOM     14  CE2 PHE B   5      34.380   2.065   3.830  1.00 35.53 LIG 0.00  A 
ATOM     15  CZ  PHE B   5      34.422   1.163   2.784  1.00 34.38 LIG 0.00  A 
ATOM     16  CE1 PHE B   5      35.616   0.461   2.564  1.00 35.56 LIG 0.00  A 
ATOM     17  CD1 PHE B   5      36.730   0.662   3.393  1.00 35.27 LIG 0.01  A 
ENDBRANCH 11 12
ENDBRANCH 10 11
BRANCH 10 18
ATOM     18  C   PHE B   5      36.993   0.495   7.296  1.00 43.64 LIG 0.24  C 
ATOM     19 O    PHE B   5      36.785   1.507   7.978  1.00 43.27 LIG-0.27  OA
ATOM     20  N   GLU B   6      36.283  -0.634   7.364  1.00 47.41 LIG-0.35  N 
ATOM     21 H    GLU B   6      36.252  -1.208   6.724  1.00 47.41 LIG 0.16  HD
BRANCH 20 22
ATOM     22  CA  GLU B   6      35.476  -1.020   8.545  1.00 51.55 LIG 0.18  C 
BRANCH 22 23
ATOM     23  CB  GLU B   6      33.967  -1.002   8.241  1.00 52.47 LIG 0.04  C 
BRANCH 23 24
ATOM     24  CG  GLU B   6      33.090  -0.883   9.539  1.00 56.11 LIG 0.12  C 
BRANCH 24 25
ATOM     25  CD  GLU B   6      33.488   0.274  10.491  1.00 59.86 LIG 0.17  C 
ATOM     26 OE2  GLU B   6      34.225   0.025  11.462  1.00 64.67 LIG-0.65  OA
ATOM     27 OE1  GLU B   6      33.115   1.443  10.270  1.00 64.70 LIG-0.65  OA
ENDBRANCH 24 25
ENDBRANCH 23 24
ENDBRANCH 22 23
BRANCH 22 28
ATOM     28  C   GLU B   6      35.929  -2.435   9.003  1.00 53.54 LIG 0.24  C 
ATOM     29 O    GLU B   6      36.225  -3.324   8.183  1.00 53.95 LIG-0.27  OA
ATOM     30  N   ALA B   7      36.025  -2.636  10.317  1.00 56.31 LIG-0.35  N 
ATOM     31 H    ALA B   7      35.817  -2.050  10.911  1.00 56.31 LIG 0.16  HD
BRANCH 30 32
ATOM     32  CA  ALA B   7      36.515  -3.928  10.868  1.00 57.55 LIG 0.16  C 
ATOM     33  CB  ALA B   7      37.938  -4.244  10.379  1.00 58.11 LIG 0.04  C 
BRANCH 32 34
ATOM     34  C   ALA B   7      36.477  -3.913  12.387  1.00 58.67 LIG 0.22  C 
ATOM     35 O    ALA B   7      36.311  -2.855  12.987  1.00 60.59 LIG-0.29  OA
ENDBRANCH 32 34
ENDBRANCH 30 32
ENDBRANCH 22 28
ENDBRANCH 20 22
ENDBRANCH 10 18
ENDBRANCH 7 10
ENDBRANCH 1 6
BRANCH 1 36
ATOM     36  N   LEU B   4      37.610  -4.080   5.148  1.00 37.09 LIG-0.35  N 
ATOM     37 H    LEU B   4      36.930  -3.821   4.691  1.00 37.09 LIG 0.16  HD
ATOM     38  C   TRP B   3      37.687  -5.274   5.749  1.00 37.19 LIG 0.24  C 
ATOM     39 O    TRP B   3      38.637  -5.623   6.376  1.00 36.60 LIG-0.27  OA
BRANCH 38 40
ATOM     40  CA  TRP B   3      36.524  -6.239   5.560  1.00 38.87 LIG 0.18  C 
BRANCH 40 41
ATOM     41  N   TRP B   3      35.277  -5.474   5.458  1.00 40.30 LIG-0.35  N 
ATOM     42  C   ALA B   2      34.631  -5.077   6.567  1.00 43.05 LIG 0.24  C 
ATOM     43 O    ALA B   2      34.931  -5.471   7.696  1.00 42.86 LIG-0.27  OA
ATOM     44 H    TRP B   3      35.015  -5.312   4.655  1.00 40.30 LIG 0.16  HD
BRANCH 42 45
ATOM     45  CA  ALA B   2      33.436  -4.156   6.389  1.00 44.71 LIG 0.17  C 
ATOM     46  CB  ALA B   2      32.116  -4.882   6.761  1.00 44.36 LIG 0.04  C 
BRANCH 45 47
ATOM     47  N   ALA B   2      33.376  -3.735   4.989  1.00 46.59 LIG-0.35  N 
ATOM     48 H    ALA B   2      32.814  -4.176   4.511  1.00 46.59 LIG 0.16  HD
ATOM     49  C   PRO B   1      34.129  -2.760   4.522  1.00 48.49 LIG 0.25  C 
ATOM     50 O    PRO B   1      35.025  -2.264   5.188  1.00 48.43 LIG-0.27  OA
BRANCH 49 51
ATOM     51  CA  PRO B   1      33.799  -2.275   3.050  1.00 50.22 LIG 0.28  C 
ATOM     52  N   PRO B   1      33.568  -3.377   2.072  1.00 50.48 LIG-0.06  N 
ATOM     53 H3   PRO B   1      34.043  -3.234   1.369  1.00 50.48 LIG 0.28  HD
ATOM     54 H2   PRO B   1      33.841  -4.118   2.413  1.00 50.48 LIG 0.28  HD
ATOM     55  CD  PRO B   1      32.153  -3.519   1.678  1.00 50.94 LIG 0.23  C 
ATOM     56  CG  PRO B   1      31.437  -2.376   2.393  1.00 51.81 LIG 0.03  C 
ATOM     57  CB  PRO B   1      32.502  -1.444   2.983  1.00 50.52 LIG 0.04  C 
ENDBRANCH 49 51
ENDBRANCH 45 47
ENDBRANCH 42 45
ENDBRANCH 40 41
BRANCH 40 58
ATOM     58  CB  TRP B   3      36.791  -7.132   4.326  1.00 38.41 LIG 0.07  C 
BRANCH 58 59
ATOM     59  CG  TRP B   3      38.227  -7.349   4.169  1.00 37.10 LIG-0.03  A 
ATOM     60  CD1 TRP B   3      38.984  -8.217   4.861  1.00 36.42 LIG 0.10  A 
ATOM     61  NE1 TRP B   3      40.284  -8.120   4.469  1.00 36.34 LIG-0.36  N 
ATOM     62 HE1  TRP B   3      40.938  -8.584   4.781  1.00 36.34 LIG 0.17  HD
ATOM     63  CE2 TRP B   3      40.381  -7.162   3.496  1.00 35.80 LIG 0.04  A 
ATOM     64  CD2 TRP B   3      39.111  -6.642   3.300  1.00 33.30 LIG-0.00  A 
ATOM     65  CZ2 TRP B   3      41.504  -6.686   2.811  1.00 36.94 LIG 0.03  A 
ATOM     66  CE3 TRP B   3      38.934  -5.646   2.352  1.00 37.18 LIG 0.01  A 
ATOM     67  CZ3 TRP B   3      40.044  -5.189   1.643  1.00 37.29 LIG 0.00  A 
ATOM     68  CH2 TRP B   3      41.317  -5.716   1.888  1.00 32.87 LIG 0.00  A 
ENDBRANCH 58 59
ENDBRANCH 40 58
ENDBRANCH 38 40
ENDBRANCH 1 36
TORSDOF 22
ENDMDL
MODEL 39
USER: ADFR SOLUTION from run 62
USER: SCORE 20.529277 LL:  -5.927 LR: -16.695 RR:   0.000 FEB: -10.132
USER: RMSD 6.766412
USER: SEED 61
USER: STATUS no improvement in best in 13 clusters for 5 generations
USER: GENES 24
USER: genes 0 Translation |==|  0.58706 0.44169 0.54545
USER: genes 1 Rotation |==|  0.69443 0.28780 0.27792 0.84329
USER: genes 2 Torsion [C]-CA--CB-[CG] |==|  0.25631
USER: genes 3 Torsion [CA]-CB--CG-[CD1] |==|  0.12851
USER: genes 4 Torsion [N]-CA--C-[N] |==|  0.79354
USER: genes 5 Torsion [C]-N--CA-[CB] |==|  0.23970
USER: genes 6 Torsion [N]-CA--CB-[CG] |==|  0.55796
USER: genes 7 Torsion [CA]-CB--CG-[CD2] |==|  0.10917
USER: genes 8 Torsion [N]-CA--C-[N] |==|  0.43886
USER: genes 9 Torsion [C]-N--CA-[C] |==|  0.61256
USER: genes 10 Torsion [N]-CA--CB-[CG] |==|  0.50588
USER: genes 11 Torsion [CA]-CB--CG-[CD] |==|  0.40454
USER: genes 12 Torsion [CB]-CG--CD-[OE2] |==|  0.56958
USER: genes 13 Torsion [N]-CA--C-[N] |==|  0.42260
USER: genes 14 Torsion [C]-N--CA-[CB] |==|  0.24897
USER: genes 15 Torsion [N]-CA--C-[O] |==|  0.90708
USER: genes 16 Torsion [CB]-CA--N-[C] |==|  0.20832
USER: genes 17 Torsion [N]-C--CA-[N] |==|  0.07132
USER: genes 18 Torsion [C]-CA--N-[C] |==|  0.18005
USER: genes 19 Torsion [N]-C--CA-[N] |==|  0.91948
USER: genes 20 Torsion [C]-CA--N-[C] |==|  0.80514
USER: genes 21 Torsion [N]-C--CA-[N] |==|  0.18441
USER: genes 22 Torsion [C]-CA--CB-[CG] |==|  0.34364
USER: genes 23 Torsion [CA]-CB--CG-[CD1] |==|  0.34394
ROOT
ATOM      1  CA  LEU B   4      36.649  -4.139  10.682  1.00 36.98 LIG 0.18  C 
ENDROOT
BRANCH 1 2
ATOM      2  CB  LEU B   4      37.895  -3.375  11.128  1.00 35.91 LIG 0.04  C 
BRANCH 2 3
ATOM      3  CG  LEU B   4      38.853  -4.133  12.063  1.00 35.93 LIG-0.02  C 
ATOM      4  CD2 LEU B   4      40.177  -3.403  12.261  1.00 33.66 LIG 0.01  C 
ATOM      5  CD1 LEU B   4      39.123  -5.587  11.540  1.00 37.78 LIG 0.01  C 
ENDBRANCH 2 3
ENDBRANCH 1 2
BRANCH 1 6
ATOM      6  C   LEU B   4      35.535  -3.818  11.666  1.00 38.06 LIG 0.24  C 
ATOM      7  N   PHE B   5      35.325  -2.523  11.914  1.00 38.73 LIG-0.35  N 
ATOM      8 H    PHE B   5      35.699  -1.889  11.469  1.00 38.73 LIG 0.16  HD
ATOM      9 O    LEU B   4      34.939  -4.738  12.237  1.00 36.58 LIG-0.27  OA
BRANCH 7 10
ATOM     10  CA  PHE B   5      34.436  -2.057  12.973  1.00 41.04 LIG 0.18  C 
BRANCH 10 11
ATOM     11  CB  PHE B   5      35.137  -1.951  14.339  1.00 39.67 LIG 0.07  C 
BRANCH 11 12
ATOM     12  CG  PHE B   5      34.203  -1.965  15.488  1.00 38.07 LIG-0.06  A 
ATOM     13  CD2 PHE B   5      33.107  -2.788  15.488  1.00 33.96 LIG 0.01  A 
ATOM     14  CE2 PHE B   5      32.189  -2.794  16.575  1.00 35.53 LIG 0.00  A 
ATOM     15  CZ  PHE B   5      32.360  -1.923  17.633  1.00 34.38 LIG 0.00  A 
ATOM     16  CE1 PHE B   5      33.476  -1.075  17.619  1.00 35.56 LIG 0.00  A 
ATOM     17  CD1 PHE B   5      34.386  -1.104  16.550  1.00 35.27 LIG 0.01  A 
ENDBRANCH 11 12
ENDBRANCH 10 11
BRANCH 10 18
ATOM     18  C   PHE B   5      33.837  -0.717  12.667  1.00 43.64 LIG 0.24  C 
ATOM     19 O    PHE B   5      34.379   0.016  11.829  1.00 43.27 LIG-0.27  OA
ATOM     20  N   GLU B   6      32.707  -0.432  13.317  1.00 47.41 LIG-0.35  N 
ATOM     21 H    GLU B   6      32.206  -1.034  13.674  1.00 47.41 LIG 0.16  HD
BRANCH 20 22
ATOM     22  CA  GLU B   6      32.193   0.946  13.495  1.00 51.55 LIG 0.18  C 
BRANCH 22 23
ATOM     23  CB  GLU B   6      31.110   1.294  12.458  1.00 52.47 LIG 0.04  C 
BRANCH 23 24
ATOM     24  CG  GLU B   6      30.592   2.771  12.598  1.00 56.11 LIG 0.12  C 
BRANCH 24 25
ATOM     25  CD  GLU B   6      30.214   3.458  11.262  1.00 59.86 LIG 0.17  C 
ATOM     26 OE2  GLU B   6      30.252   4.700  11.194  1.00 64.67 LIG-0.65  OA
ATOM     27 OE1  GLU B   6      29.916   2.785  10.255  1.00 64.70 LIG-0.65  OA
ENDBRANCH 24 25
ENDBRANCH 23 24
ENDBRANCH 22 23
BRANCH 22 28
ATOM     28  C   GLU B   6      31.633   1.074  14.940  1.00 53.54 LIG 0.24  C 
ATOM     29 O    GLU B   6      31.217   0.083  15.570  1.00 53.95 LIG-0.27  OA
ATOM     30  N   ALA B   7      31.659   2.289  15.486  1.00 56.31 LIG-0.35  N 
ATOM     31 H    ALA B   7      31.927   2.996  15.076  1.00 56.31 LIG 0.16  HD
BRANCH 30 32
ATOM     32  CA  ALA B   7      31.213   2.518  16.887  1.00 57.55 LIG 0.16  C 
ATOM     33  CB  ALA B   7      32.377   2.359  17.879  1.00 58.11 LIG 0.04  C 
BRANCH 32 34
ATOM     34  C   ALA B   7      30.588   3.895  17.033  1.00 58.67 LIG 0.22  C 
ATOM     35 O    ALA B   7      31.007   4.835  16.363  1.00 60.59 LIG-0.29  OA
ENDBRANCH 32 34
ENDBRANCH 30 32
ENDBRANCH 22 28
ENDBRANCH 20 22
ENDBRANCH 10 18
ENDBRANCH 7 10
ENDBRANCH 1 6
BRANCH 1 36
ATOM     36  N   LEU B   4      36.320  -3.868   9.286  1.00 37.09 LIG-0.35  N 
ATOM     37 H    LEU B   4      35.646  -3.345   9.180  1.00 37.09 LIG 0.16  HD
ATOM     38  C   TRP B   3      37.015  -4.396   8.270  1.00 37.19 LIG 0.24  C 
ATOM     39 O    TRP B   3      37.950  -5.115   8.430  1.00 36.60 LIG-0.27  OA
BRANCH 38 40
ATOM     40  CA  TRP B   3      36.616  -3.996   6.856  1.00 38.87 LIG 0.18  C 
BRANCH 40 41
ATOM     41  N   TRP B   3      35.968  -2.681   6.893  1.00 40.30 LIG-0.35  N 
ATOM     42  C   ALA B   2      36.662  -1.593   7.267  1.00 43.05 LIG 0.24  C 
ATOM     43 O    ALA B   2      37.791  -1.653   7.760  1.00 42.86 LIG-0.27  OA
ATOM     44 H    TRP B   3      35.139  -2.677   6.662  1.00 40.30 LIG 0.16  HD
BRANCH 42 45
ATOM     45  CA  ALA B   2      35.976  -0.245   7.131  1.00 44.71 LIG 0.17  C 
ATOM     46  CB  ALA B   2      35.226   0.129   8.437  1.00 44.36 LIG 0.04  C 
BRANCH 45 47
ATOM     47  N   ALA B   2      35.017  -0.318   6.029  1.00 46.59 LIG-0.35  N 
ATOM     48 H    ALA B   2      34.194  -0.301   6.275  1.00 46.59 LIG 0.16  HD
ATOM     49  C   PRO B   1      35.405  -0.402   4.773  1.00 48.49 LIG 0.25  C 
ATOM     50 O    PRO B   1      36.575  -0.582   4.472  1.00 48.43 LIG-0.27  OA
BRANCH 49 51
ATOM     51  CA  PRO B   1      34.263  -0.256   3.685  1.00 50.22 LIG 0.28  C 
ATOM     52  N   PRO B   1      33.630   1.094   3.627  1.00 50.48 LIG-0.06  N 
ATOM     53 H3   PRO B   1      32.774   1.004   3.642  1.00 50.48 LIG 0.28  HD
ATOM     54 H2   PRO B   1      33.849   1.537   4.331  1.00 50.48 LIG 0.28  HD
ATOM     55  CD  PRO B   1      34.014   1.867   2.431  1.00 50.94 LIG 0.23  C 
ATOM     56  CG  PRO B   1      34.892   0.915   1.622  1.00 51.81 LIG 0.03  C 
ATOM     57  CB  PRO B   1      34.787  -0.478   2.251  1.00 50.52 LIG 0.04  C 
ENDBRANCH 49 51
ENDBRANCH 45 47
ENDBRANCH 42 45
ENDBRANCH 40 41
BRANCH 40 58
ATOM     58  CB  TRP B   3      37.861  -4.033   5.940  1.00 38.41 LIG 0.07  C 
BRANCH 58 59
ATOM     59  CG  TRP B   3      37.619  -4.921   4.805  1.00 37.10 LIG-0.03  A 
ATOM     60  CD1 TRP B   3      37.712  -4.598   3.504  1.00 36.42 LIG 0.10  A 
ATOM     61  NE1 TRP B   3      37.381  -5.669   2.731  1.00 36.34 LIG-0.36  N 
ATOM     62 HE1  TRP B   3      37.374  -5.683   1.871  1.00 36.34 LIG 0.17  HD
ATOM     63  CE2 TRP B   3      37.061  -6.720   3.548  1.00 35.80 LIG 0.04  A 
ATOM     64  CD2 TRP B   3      37.178  -6.277   4.856  1.00 33.30 LIG-0.00  A 
ATOM     65  CZ2 TRP B   3      36.632  -8.011   3.224  1.00 36.94 LIG 0.03  A 
ATOM     66  CE3 TRP B   3      36.909  -7.162   5.889  1.00 37.18 LIG 0.01  A 
ATOM     67  CZ3 TRP B   3      36.511  -8.461   5.574  1.00 37.29 LIG 0.00  A 
ATOM     68  CH2 TRP B   3      36.375  -8.865   4.241  1.00 32.87 LIG 0.00  A 
ENDBRANCH 58 59
ENDBRANCH 40 58
ENDBRANCH 38 40
ENDBRANCH 1 36
TORSDOF 22
ENDMDL
MODEL 40
USER: ADFR SOLUTION from run 103
USER: SCORE 21.959549 LL:  -6.538 LR: -16.626 RR:   0.000 FEB: -10.063
USER: RMSD 8.693767
USER: SEED 102
USER: STATUS no improvement in best in 7 clusters for 5 generations
USER: GENES 24
USER: genes 0 Translation |==|  0.61307 0.29592 0.32061
USER: genes 1 Rotation |==|  0.43813 0.46175 0.02114 0.62411
USER: genes 2 Torsion [C]-CA--CB-[CG] |==|  0.24054
USER: genes 3 Torsion [CA]-CB--CG-[CD1] |==|  0.12976
USER: genes 4 Torsion [N]-CA--C-[N] |==|  0.20833
USER: genes 5 Torsion [C]-N--CA-[CB] |==|  0.53892
USER: genes 6 Torsion [N]-CA--CB-[CG] |==|  0.62697
USER: genes 7 Torsion [CA]-CB--CG-[CD2] |==|  0.64260
USER: genes 8 Torsion [N]-CA--C-[N] |==|  0.27554
USER: genes 9 Torsion [C]-N--CA-[C] |==|  0.70378
USER: genes 10 Torsion [N]-CA--CB-[CG] |==|  0.27810
USER: genes 11 Torsion [CA]-CB--CG-[CD] |==|  0.62086
USER: genes 12 Torsion [CB]-CG--CD-[OE2] |==|  0.62582
USER: genes 13 Torsion [N]-CA--C-[N] |==|  0.97095
USER: genes 14 Torsion [C]-N--CA-[CB] |==|  0.27030
USER: genes 15 Torsion [N]-CA--C-[O] |==|  0.84812
USER: genes 16 Torsion [CB]-CA--N-[C] |==|  0.76443
USER: genes 17 Torsion [N]-C--CA-[N] |==|  0.07778
USER: genes 18 Torsion [C]-CA--N-[C] |==|  0.17655
USER: genes 19 Torsion [N]-C--CA-[N] |==|  0.98737
USER: genes 20 Torsion [C]-CA--N-[C] |==|  0.73894
USER: genes 21 Torsion [N]-C--CA-[N] |==|  0.46307
USER: genes 22 Torsion [C]-CA--CB-[CG] |==|  0.51521
USER: genes 23 Torsion [CA]-CB--CG-[CD1] |==|  0.77845
ROOT
ATOM      1  CA  LEU B   4      37.214  -6.982   5.623  1.00 36.98 LIG 0.18  C 
ENDROOT
BRANCH 1 2
ATOM      2  CB  LEU B   4      37.738  -7.929   4.544  1.00 35.91 LIG 0.04  C 
BRANCH 2 3
ATOM      3  CG  LEU B   4      37.197  -9.369   4.590  1.00 35.93 LIG-0.02  C 
ATOM      4  CD2 LEU B   4      37.580 -10.177   3.355  1.00 33.66 LIG 0.01  C 
ATOM      5  CD1 LEU B   4      35.639  -9.385   4.771  1.00 37.78 LIG 0.01  C 
ENDBRANCH 2 3
ENDBRANCH 1 2
BRANCH 1 6
ATOM      6  C   LEU B   4      38.102  -7.143   6.847  1.00 38.06 LIG 0.24  C 
ATOM      7  N   PHE B   5      37.586  -6.728   8.006  1.00 38.73 LIG-0.35  N 
ATOM      8 H    PHE B   5      36.764  -6.494   8.102  1.00 38.73 LIG 0.16  HD
ATOM      9 O    LEU B   4      39.255  -7.568   6.714  1.00 36.58 LIG-0.27  OA
BRANCH 7 10
ATOM     10  CA  PHE B   5      38.375  -6.632   9.231  1.00 41.04 LIG 0.18  C 
BRANCH 10 11
ATOM     11  CB  PHE B   5      37.505  -6.466  10.490  1.00 39.67 LIG 0.07  C 
BRANCH 11 12
ATOM     12  CG  PHE B   5      37.990  -5.412  11.410  1.00 38.07 LIG-0.06  A 
ATOM     13  CD2 PHE B   5      38.177  -5.678  12.741  1.00 33.96 LIG 0.01  A 
ATOM     14  CE2 PHE B   5      38.620  -4.669  13.639  1.00 35.53 LIG 0.00  A 
ATOM     15  CZ  PHE B   5      38.818  -3.377  13.191  1.00 34.38 LIG 0.00  A 
ATOM     16  CE1 PHE B   5      38.611  -3.110  11.830  1.00 35.56 LIG 0.00  A 
ATOM     17  CD1 PHE B   5      38.201  -4.128  10.954  1.00 35.27 LIG 0.01  A 
ENDBRANCH 11 12
ENDBRANCH 10 11
BRANCH 10 18
ATOM     18  C   PHE B   5      39.251  -7.829   9.440  1.00 43.64 LIG 0.24  C 
ATOM     19 O    PHE B   5      38.759  -8.876   9.885  1.00 43.27 LIG-0.27  OA
ATOM     20  N   GLU B   6      40.527  -7.677   9.079  1.00 47.41 LIG-0.35  N 
ATOM     21 H    GLU B   6      40.791  -7.065   8.534  1.00 47.41 LIG 0.16  HD
BRANCH 20 22
ATOM     22  CA  GLU B   6      41.624  -8.539   9.575  1.00 51.55 LIG 0.18  C 
BRANCH 22 23
ATOM     23  CB  GLU B   6      42.512  -9.057   8.429  1.00 52.47 LIG 0.04  C 
BRANCH 23 24
ATOM     24  CG  GLU B   6      43.845  -8.241   8.280  1.00 56.11 LIG 0.12  C 
BRANCH 24 25
ATOM     25  CD  GLU B   6      44.235  -7.889   6.822  1.00 59.86 LIG 0.17  C 
ATOM     26 OE2  GLU B   6      45.414  -8.056   6.458  1.00 64.67 LIG-0.65  OA
ATOM     27 OE1  GLU B   6      43.380  -7.485   6.009  1.00 64.70 LIG-0.65  OA
ENDBRANCH 24 25
ENDBRANCH 23 24
ENDBRANCH 22 23
BRANCH 22 28
ATOM     28  C   GLU B   6      42.465  -7.721  10.595  1.00 53.54 LIG 0.24  C 
ATOM     29 O    GLU B   6      43.358  -8.252  11.282  1.00 53.95 LIG-0.27  OA
ATOM     30  N   ALA B   7      42.211  -6.415  10.667  1.00 56.31 LIG-0.35  N 
ATOM     31 H    ALA B   7      41.595  -6.017  10.219  1.00 56.31 LIG 0.16  HD
BRANCH 30 32
ATOM     32  CA  ALA B   7      43.001  -5.521  11.557  1.00 57.55 LIG 0.16  C 
ATOM     33  CB  ALA B   7      44.119  -4.804  10.784  1.00 58.11 LIG 0.04  C 
BRANCH 32 34
ATOM     34  C   ALA B   7      42.099  -4.502  12.233  1.00 58.67 LIG 0.22  C 
ATOM     35 O    ALA B   7      41.372  -3.780  11.556  1.00 60.59 LIG-0.29  OA
ENDBRANCH 32 34
ENDBRANCH 30 32
ENDBRANCH 22 28
ENDBRANCH 20 22
ENDBRANCH 10 18
ENDBRANCH 7 10
ENDBRANCH 1 6
BRANCH 1 36
ATOM     36  N   LEU B   4      37.103  -5.613   5.131  1.00 37.09 LIG-0.35  N 
ATOM     37 H    LEU B   4      36.319  -5.405   4.846  1.00 37.09 LIG 0.16  HD
ATOM     38  C   TRP B   3      38.139  -4.764   5.131  1.00 37.19 LIG 0.24  C 
ATOM     39 O    TRP B   3      39.219  -5.061   5.533  1.00 36.60 LIG-0.27  OA
BRANCH 38 40
ATOM     40  CA  TRP B   3      37.890  -3.341   4.647  1.00 38.87 LIG 0.18  C 
BRANCH 40 41
ATOM     41  N   TRP B   3      36.490  -2.987   4.899  1.00 40.30 LIG-0.35  N 
ATOM     42  C   ALA B   2      36.019  -2.927   6.156  1.00 43.05 LIG 0.24  C 
ATOM     43 O    ALA B   2      36.659  -3.327   7.132  1.00 42.86 LIG-0.27  OA
ATOM     44 H    TRP B   3      36.022  -2.830   4.194  1.00 40.30 LIG 0.16  HD
BRANCH 42 45
ATOM     45  CA  ALA B   2      34.608  -2.402   6.351  1.00 44.71 LIG 0.17  C 
ATOM     46  CB  ALA B   2      33.680  -3.506   6.922  1.00 44.36 LIG 0.04  C 
BRANCH 45 47
ATOM     47  N   ALA B   2      34.091  -1.960   5.056  1.00 46.59 LIG-0.35  N 
ATOM     48 H    ALA B   2      33.729  -2.585   4.588  1.00 46.59 LIG 0.16  HD
ATOM     49  C   PRO B   1      34.184  -0.707   4.659  1.00 48.49 LIG 0.25  C 
ATOM     50 O    PRO B   1      34.842   0.115   5.276  1.00 48.43 LIG-0.27  OA
BRANCH 49 51
ATOM     51  CA  PRO B   1      33.392  -0.340   3.337  1.00 50.22 LIG 0.28  C 
ATOM     52  N   PRO B   1      33.255   1.124   3.083  1.00 50.48 LIG-0.06  N 
ATOM     53 H3   PRO B   1      32.432   1.303   2.909  1.00 50.48 LIG 0.28  HD
ATOM     54 H2   PRO B   1      33.461   1.554   3.799  1.00 50.48 LIG 0.28  HD
ATOM     55  CD  PRO B   1      34.099   1.604   1.972  1.00 50.94 LIG 0.23  C 
ATOM     56  CG  PRO B   1      34.764   0.345   1.422  1.00 51.81 LIG 0.03  C 
ATOM     57  CB  PRO B   1      34.090  -0.870   2.068  1.00 50.52 LIG 0.04  C 
ENDBRANCH 49 51
ENDBRANCH 45 47
ENDBRANCH 42 45
ENDBRANCH 40 41
BRANCH 40 58
ATOM     58  CB  TRP B   3      38.891  -2.382   5.333  1.00 38.41 LIG 0.07  C 
BRANCH 58 59
ATOM     59  CG  TRP B   3      38.580  -1.000   4.978  1.00 37.10 LIG-0.03  A 
ATOM     60  CD1 TRP B   3      38.907  -0.375   3.834  1.00 36.42 LIG 0.10  A 
ATOM     61  NE1 TRP B   3      38.483   0.918   3.869  1.00 36.34 LIG-0.36  N 
ATOM     62 HE1  TRP B   3      38.588   1.497   3.241  1.00 36.34 LIG 0.17  HD
ATOM     63  CE2 TRP B   3      37.863   1.147   5.069  1.00 35.80 LIG 0.04  A 
ATOM     64  CD2 TRP B   3      37.927  -0.031   5.798  1.00 33.30 LIG-0.00  A 
ATOM     65  CZ2 TRP B   3      37.296   2.319   5.578  1.00 36.94 LIG 0.03  A 
ATOM     66  CE3 TRP B   3      37.360  -0.066   7.062  1.00 37.18 LIG 0.01  A 
ATOM     67  CZ3 TRP B   3      36.764   1.090   7.564  1.00 37.29 LIG 0.00  A 
ATOM     68  CH2 TRP B   3      36.745   2.270   6.812  1.00 32.87 LIG 0.00  A 
ENDBRANCH 58 59
ENDBRANCH 40 58
ENDBRANCH 38 40
ENDBRANCH 1 36
TORSDOF 22
ENDMDL
MODEL 41
USER: ADFR SOLUTION from run 76
USER: SCORE 22.361561 LL:  -8.114 LR: -16.586 RR:   0.000 FEB: -10.023
USER: RMSD 6.666471
USER: SEED 75
USER: STATUS no improvement in best in 4 clusters for 5 generations
USER: GENES 24
USER: genes 0 Translation |==|  0.59606 0.57278 0.41201
USER: genes 1 Rotation |==|  0.75724 0.55334 0.79812 0.80350
USER: genes 2 Torsion [C]-CA--CB-[CG] |==|  0.38906
USER: genes 3 Torsion [CA]-CB--CG-[CD1] |==|  0.53933
USER: genes 4 Torsion [N]-CA--C-[N] |==|  0.51035
USER: genes 5 Torsion [C]-N--CA-[CB] |==|  0.20570
USER: genes 6 Torsion [N]-CA--CB-[CG] |==|  0.58924
USER: genes 7 Torsion [CA]-CB--CG-[CD2] |==|  0.92926
USER: genes 8 Torsion [N]-CA--C-[N] |==|  0.84427
USER: genes 9 Torsion [C]-N--CA-[C] |==|  0.19444
USER: genes 10 Torsion [N]-CA--CB-[CG] |==|  0.71912
USER: genes 11 Torsion [CA]-CB--CG-[CD] |==|  0.02376
USER: genes 12 Torsion [CB]-CG--CD-[OE2] |==|  0.27554
USER: genes 13 Torsion [N]-CA--C-[N] |==|  0.05700
USER: genes 14 Torsion [C]-N--CA-[CB] |==|  0.20006
USER: genes 15 Torsion [N]-CA--C-[O] |==|  0.83474
USER: genes 16 Torsion [CB]-CA--N-[C] |==|  0.43899
USER: genes 17 Torsion [N]-C--CA-[N] |==|  0.90842
USER: genes 18 Torsion [C]-CA--N-[C] |==|  0.81174
USER: genes 19 Torsion [N]-C--CA-[N] |==|  0.90827
USER: genes 20 Torsion [C]-CA--N-[C] |==|  0.81929
USER: genes 21 Torsion [N]-C--CA-[N] |==|  0.26927
USER: genes 22 Torsion [C]-CA--CB-[CG] |==|  0.84183
USER: genes 23 Torsion [CA]-CB--CG-[CD1] |==|  0.78754
ROOT
ATOM      1  CA  LEU B   4      36.844  -1.583   7.679  1.00 36.98 LIG 0.18  C 
ENDROOT
BRANCH 1 2
ATOM      2  CB  LEU B   4      35.320  -1.516   7.768  1.00 35.91 LIG 0.04  C 
BRANCH 2 3
ATOM      3  CG  LEU B   4      34.704  -0.105   7.763  1.00 35.93 LIG-0.02  C 
ATOM      4  CD2 LEU B   4      35.480   0.874   8.637  1.00 33.66 LIG 0.01  C 
ATOM      5  CD1 LEU B   4      33.201  -0.141   8.213  1.00 37.78 LIG 0.01  C 
ENDBRANCH 2 3
ENDBRANCH 1 2
BRANCH 1 6
ATOM      6  C   LEU B   4      37.311  -2.685   8.617  1.00 38.06 LIG 0.24  C 
ATOM      7  N   PHE B   5      36.850  -2.627   9.869  1.00 38.73 LIG-0.35  N 
ATOM      8 H    PHE B   5      36.234  -2.083  10.121  1.00 38.73 LIG 0.16  HD
ATOM      9 O    LEU B   4      38.130  -3.520   8.219  1.00 36.58 LIG-0.27  OA
BRANCH 7 10
ATOM     10  CA  PHE B   5      37.352  -3.488  10.935  1.00 41.04 LIG 0.18  C 
BRANCH 10 11
ATOM     11  CB  PHE B   5      38.752  -3.075  11.426  1.00 39.67 LIG 0.07  C 
BRANCH 11 12
ATOM     12  CG  PHE B   5      39.580  -4.215  11.879  1.00 38.07 LIG-0.06  A 
ATOM     13  CD2 PHE B   5      38.994  -5.367  12.336  1.00 33.96 LIG 0.01  A 
ATOM     14  CE2 PHE B   5      39.779  -6.461  12.795  1.00 35.53 LIG 0.00  A 
ATOM     15  CZ  PHE B   5      41.156  -6.358  12.842  1.00 34.38 LIG 0.00  A 
ATOM     16  CE1 PHE B   5      41.746  -5.171  12.386  1.00 35.56 LIG 0.00  A 
ATOM     17  CD1 PHE B   5      40.955  -4.114  11.909  1.00 35.27 LIG 0.01  A 
ENDBRANCH 11 12
ENDBRANCH 10 11
BRANCH 10 18
ATOM     18  C   PHE B   5      36.443  -3.509  12.126  1.00 43.64 LIG 0.24  C 
ATOM     19 O    PHE B   5      36.035  -4.594  12.563  1.00 43.27 LIG-0.27  OA
ATOM     20  N   GLU B   6      36.172  -2.317  12.663  1.00 47.41 LIG-0.35  N 
ATOM     21 H    GLU B   6      36.662  -1.621  12.532  1.00 47.41 LIG 0.16  HD
BRANCH 20 22
ATOM     22  CA  GLU B   6      35.005  -2.063  13.538  1.00 51.55 LIG 0.18  C 
BRANCH 22 23
ATOM     23  CB  GLU B   6      33.689  -2.533  12.892  1.00 52.47 LIG 0.04  C 
BRANCH 23 24
ATOM     24  CG  GLU B   6      32.864  -1.349  12.270  1.00 56.11 LIG 0.12  C 
BRANCH 24 25
ATOM     25  CD  GLU B   6      33.605   0.012  12.232  1.00 59.86 LIG 0.17  C 
ATOM     26 OE2  GLU B   6      34.142   0.373  11.169  1.00 64.67 LIG-0.65  OA
ATOM     27 OE1  GLU B   6      33.630   0.757  13.232  1.00 64.70 LIG-0.65  OA
ENDBRANCH 24 25
ENDBRANCH 23 24
ENDBRANCH 22 23
BRANCH 22 28
ATOM     28  C   GLU B   6      35.244  -2.790  14.891  1.00 53.54 LIG 0.24  C 
ATOM     29 O    GLU B   6      34.299  -3.100  15.643  1.00 53.95 LIG-0.27  OA
ATOM     30  N   ALA B   7      36.504  -3.101  15.189  1.00 56.31 LIG-0.35  N 
ATOM     31 H    ALA B   7      37.181  -2.891  14.702  1.00 56.31 LIG 0.16  HD
BRANCH 30 32
ATOM     32  CA  ALA B   7      36.844  -3.858  16.424  1.00 57.55 LIG 0.16  C 
ATOM     33  CB  ALA B   7      36.416  -5.330  16.316  1.00 58.11 LIG 0.04  C 
BRANCH 32 34
ATOM     34  C   ALA B   7      38.332  -3.769  16.717  1.00 58.67 LIG 0.22  C 
ATOM     35 O    ALA B   7      39.146  -4.180  15.896  1.00 60.59 LIG-0.29  OA
ENDBRANCH 32 34
ENDBRANCH 30 32
ENDBRANCH 22 28
ENDBRANCH 20 22
ENDBRANCH 10 18
ENDBRANCH 7 10
ENDBRANCH 1 6
BRANCH 1 36
ATOM     36  N   LEU B   4      37.299  -1.727   6.301  1.00 37.09 LIG-0.35  N 
ATOM     37 H    LEU B   4      36.705  -2.048   5.768  1.00 37.09 LIG 0.16  HD
ATOM     38  C   TRP B   3      38.534  -1.385   5.913  1.00 37.19 LIG 0.24  C 
ATOM     39 O    TRP B   3      39.346  -0.936   6.660  1.00 36.60 LIG-0.27  OA
BRANCH 38 40
ATOM     40  CA  TRP B   3      38.879  -1.525   4.436  1.00 38.87 LIG 0.18  C 
BRANCH 40 41
ATOM     41  N   TRP B   3      38.147  -2.667   3.880  1.00 40.30 LIG-0.35  N 
ATOM     42  C   ALA B   2      38.446  -3.919   4.266  1.00 43.05 LIG 0.24  C 
ATOM     43 O    ALA B   2      39.437  -4.192   4.948  1.00 42.86 LIG-0.27  OA
ATOM     44 H    TRP B   3      37.537  -2.465   3.308  1.00 40.30 LIG 0.16  HD
BRANCH 42 45
ATOM     45  CA  ALA B   2      37.546  -5.038   3.771  1.00 44.71 LIG 0.17  C 
ATOM     46  CB  ALA B   2      38.017  -5.556   2.386  1.00 44.36 LIG 0.04  C 
BRANCH 45 47
ATOM     47  N   ALA B   2      36.182  -4.523   3.655  1.00 46.59 LIG-0.35  N 
ATOM     48 H    ALA B   2      35.880  -4.502   2.850  1.00 46.59 LIG 0.16  HD
ATOM     49  C   PRO B   1      35.493  -4.131   4.707  1.00 48.49 LIG 0.25  C 
ATOM     50 O    PRO B   1      36.008  -4.027   5.810  1.00 48.43 LIG-0.27  OA
BRANCH 49 51
ATOM     51  CA  PRO B   1      33.965  -3.804   4.451  1.00 50.22 LIG 0.28  C 
ATOM     52  N   PRO B   1      33.029  -4.918   4.778  1.00 50.48 LIG-0.06  N 
ATOM     53 H3   PRO B   1      32.494  -5.040   4.116  1.00 50.48 LIG 0.28  HD
ATOM     54 H2   PRO B   1      33.479  -5.645   4.875  1.00 50.48 LIG 0.28  HD
ATOM     55  CD  PRO B   1      32.238  -4.675   5.999  1.00 50.94 LIG 0.23  C 
ATOM     56  CG  PRO B   1      32.636  -3.269   6.443  1.00 51.81 LIG 0.03  C 
ATOM     57  CB  PRO B   1      33.462  -2.633   5.320  1.00 50.52 LIG 0.04  C 
ENDBRANCH 49 51
ENDBRANCH 45 47
ENDBRANCH 42 45
ENDBRANCH 40 41
BRANCH 40 58
ATOM     58  CB  TRP B   3      38.573  -0.196   3.708  1.00 38.41 LIG 0.07  C 
BRANCH 58 59
ATOM     59  CG  TRP B   3      37.172   0.169   3.904  1.00 37.10 LIG-0.03  A 
ATOM     60  CD1 TRP B   3      36.110  -0.373   3.284  1.00 36.42 LIG 0.10  A 
ATOM     61  NE1 TRP B   3      34.966   0.242   3.691  1.00 36.34 LIG-0.36  N 
ATOM     62 HE1  TRP B   3      34.171   0.051   3.421  1.00 36.34 LIG 0.17  HD
ATOM     63  CE2 TRP B   3      35.287   1.214   4.600  1.00 35.80 LIG 0.04  A 
ATOM     64  CD2 TRP B   3      36.666   1.210   4.739  1.00 33.30 LIG-0.00  A 
ATOM     65  CZ2 TRP B   3      34.464   2.125   5.270  1.00 36.94 LIG 0.03  A 
ATOM     66  CE3 TRP B   3      37.253   2.110   5.616  1.00 37.18 LIG 0.01  A 
ATOM     67  CZ3 TRP B   3      36.436   2.999   6.312  1.00 37.29 LIG 0.00  A 
ATOM     68  CH2 TRP B   3      35.049   2.995   6.124  1.00 32.87 LIG 0.00  A 
ENDBRANCH 58 59
ENDBRANCH 40 58
ENDBRANCH 38 40
ENDBRANCH 1 36
TORSDOF 22
ENDMDL
MODEL 42
USER: ADFR SOLUTION from run 130
USER: SCORE 22.921451 LL:  -7.463 LR: -16.587 RR:   0.000 FEB: -10.024
USER: RMSD 7.560564
USER: SEED 129
USER: STATUS searching
USER: GENES 24
USER: genes 0 Translation |==|  0.61240 0.45851 0.50409
USER: genes 1 Rotation |==|  0.30937 0.04762 0.46199 0.58701
USER: genes 2 Torsion [C]-CA--CB-[CG] |==|  0.50643
USER: genes 3 Torsion [CA]-CB--CG-[CD1] |==|  0.48067
USER: genes 4 Torsion [N]-CA--C-[N] |==|  0.95320
USER: genes 5 Torsion [C]-N--CA-[CB] |==|  0.59753
USER: genes 6 Torsion [N]-CA--CB-[CG] |==|  0.77977
USER: genes 7 Torsion [CA]-CB--CG-[CD2] |==|  0.26368
USER: genes 8 Torsion [N]-CA--C-[N] |==|  0.28836
USER: genes 9 Torsion [C]-N--CA-[C] |==|  0.15872
USER: genes 10 Torsion [N]-CA--CB-[CG] |==|  0.92663
USER: genes 11 Torsion [CA]-CB--CG-[CD] |==|  0.85257
USER: genes 12 Torsion [CB]-CG--CD-[OE2] |==|  0.36783
USER: genes 13 Torsion [N]-CA--C-[N] |==|  0.08335
USER: genes 14 Torsion [C]-N--CA-[CB] |==|  0.39449
USER: genes 15 Torsion [N]-CA--C-[O] |==|  0.19229
USER: genes 16 Torsion [CB]-CA--N-[C] |==|  0.83333
USER: genes 17 Torsion [N]-C--CA-[N] |==|  0.20463
USER: genes 18 Torsion [C]-CA--N-[C] |==|  0.65903
USER: genes 19 Torsion [N]-C--CA-[N] |==|  0.90563
USER: genes 20 Torsion [C]-CA--N-[C] |==|  0.84352
USER: genes 21 Torsion [N]-C--CA-[N] |==|  0.13133
USER: genes 22 Torsion [C]-CA--CB-[CG] |==|  0.20046
USER: genes 23 Torsion [CA]-CB--CG-[CD1] |==|  0.19644
ROOT
ATOM      1  CA  LEU B   4      37.200  -3.811   9.751  1.00 36.98 LIG 0.18  C 
ENDROOT
BRANCH 1 2
ATOM      2  CB  LEU B   4      38.395  -3.630  10.686  1.00 35.91 LIG 0.04  C 
BRANCH 2 3
ATOM      3  CG  LEU B   4      38.246  -4.229  12.096  1.00 35.93 LIG-0.02  C 
ATOM      4  CD2 LEU B   4      37.126  -3.573  12.894  1.00 33.66 LIG 0.01  C 
ATOM      5  CD1 LEU B   4      39.592  -4.136  12.897  1.00 37.78 LIG 0.01  C 
ENDBRANCH 2 3
ENDBRANCH 1 2
BRANCH 1 6
ATOM      6  C   LEU B   4      37.572  -3.205   8.407  1.00 38.06 LIG 0.24  C 
ATOM      7  N   PHE B   5      37.800  -4.070   7.415  1.00 38.73 LIG-0.35  N 
ATOM      8 H    PHE B   5      37.635  -4.912   7.474  1.00 38.73 LIG 0.16  HD
ATOM      9 O    LEU B   4      37.719  -1.983   8.307  1.00 36.58 LIG-0.27  OA
BRANCH 7 10
ATOM     10  CA  PHE B   5      38.354  -3.665   6.127  1.00 41.04 LIG 0.18  C 
BRANCH 10 11
ATOM     11  CB  PHE B   5      37.779  -4.471   4.949  1.00 39.67 LIG 0.07  C 
BRANCH 11 12
ATOM     12  CG  PHE B   5      38.390  -5.811   4.794  1.00 38.07 LIG-0.06  A 
ATOM     13  CD2 PHE B   5      37.802  -6.917   5.351  1.00 33.96 LIG 0.01  A 
ATOM     14  CE2 PHE B   5      38.390  -8.206   5.228  1.00 35.53 LIG 0.00  A 
ATOM     15  CZ  PHE B   5      39.605  -8.357   4.587  1.00 34.38 LIG 0.00  A 
ATOM     16  CE1 PHE B   5      40.206  -7.219   4.032  1.00 35.56 LIG 0.00  A 
ATOM     17  CD1 PHE B   5      39.594  -5.960   4.139  1.00 35.27 LIG 0.01  A 
ENDBRANCH 11 12
ENDBRANCH 10 11
BRANCH 10 18
ATOM     18  C   PHE B   5      38.122  -2.213   5.838  1.00 43.64 LIG 0.24  C 
ATOM     19 O    PHE B   5      36.990  -1.828   5.517  1.00 43.27 LIG-0.27  OA
ATOM     20  N   GLU B   6      39.185  -1.420   5.996  1.00 47.41 LIG-0.35  N 
ATOM     21 H    GLU B   6      39.869  -1.641   6.469  1.00 47.41 LIG 0.16  HD
BRANCH 20 22
ATOM     22  CA  GLU B   6      39.301  -0.080   5.377  1.00 51.55 LIG 0.18  C 
BRANCH 22 23
ATOM     23  CB  GLU B   6      39.358  -0.159   3.840  1.00 52.47 LIG 0.04  C 
BRANCH 23 24
ATOM     24  CG  GLU B   6      39.933  -1.528   3.326  1.00 56.11 LIG 0.12  C 
BRANCH 24 25
ATOM     25  CD  GLU B   6      41.305  -1.926   3.927  1.00 59.86 LIG 0.17  C 
ATOM     26 OE2  GLU B   6      41.456  -3.082   4.363  1.00 64.67 LIG-0.65  OA
ATOM     27 OE1  GLU B   6      42.257  -1.121   3.940  1.00 64.70 LIG-0.65  OA
ENDBRANCH 24 25
ENDBRANCH 23 24
ENDBRANCH 22 23
BRANCH 22 28
ATOM     28  C   GLU B   6      38.090   0.777   5.839  1.00 53.54 LIG 0.24  C 
ATOM     29 O    GLU B   6      37.590   1.652   5.106  1.00 53.95 LIG-0.27  OA
ATOM     30  N   ALA B   7      37.586   0.502   7.041  1.00 56.31 LIG-0.35  N 
ATOM     31 H    ALA B   7      37.913  -0.084   7.578  1.00 56.31 LIG 0.16  HD
BRANCH 30 32
ATOM     32  CA  ALA B   7      36.384   1.211   7.558  1.00 57.55 LIG 0.16  C 
ATOM     33  CB  ALA B   7      35.469   0.262   8.348  1.00 58.11 LIG 0.04  C 
BRANCH 32 34
ATOM     34  C   ALA B   7      36.788   2.390   8.428  1.00 58.67 LIG 0.22  C 
ATOM     35 O    ALA B   7      37.318   3.374   7.921  1.00 60.59 LIG-0.29  OA
ENDBRANCH 32 34
ENDBRANCH 30 32
ENDBRANCH 22 28
ENDBRANCH 20 22
ENDBRANCH 10 18
ENDBRANCH 7 10
ENDBRANCH 1 6
BRANCH 1 36
ATOM     36  N   LEU B   4      36.768  -5.203   9.690  1.00 37.09 LIG-0.35  N 
ATOM     37 H    LEU B   4      35.955  -5.329   9.943  1.00 37.09 LIG 0.16  HD
ATOM     38  C   TRP B   3      37.574  -6.187   9.272  1.00 37.19 LIG 0.24  C 
ATOM     39 O    TRP B   3      38.695  -5.999   8.918  1.00 36.60 LIG-0.27  OA
BRANCH 38 40
ATOM     40  CA  TRP B   3      36.996  -7.594   9.195  1.00 38.87 LIG 0.18  C 
BRANCH 40 41
ATOM     41  N   TRP B   3      36.094  -7.679   8.043  1.00 40.30 LIG-0.35  N 
ATOM     42  C   ALA B   2      34.810  -8.043   8.209  1.00 43.05 LIG 0.24  C 
ATOM     43 O    ALA B   2      34.372  -8.488   9.273  1.00 42.86 LIG-0.27  OA
ATOM     44 H    TRP B   3      36.451  -7.482   7.285  1.00 40.30 LIG 0.16  HD
BRANCH 42 45
ATOM     45  CA  ALA B   2      33.896  -7.957   7.000  1.00 44.71 LIG 0.17  C 
ATOM     46  CB  ALA B   2      33.978  -9.253   6.150  1.00 44.36 LIG 0.04  C 
BRANCH 45 47
ATOM     47  N   ALA B   2      34.310  -6.818   6.181  1.00 46.59 LIG-0.35  N 
ATOM     48 H    ALA B   2      34.499  -7.018   5.367  1.00 46.59 LIG 0.16  HD
ATOM     49  C   PRO B   1      34.382  -5.597   6.672  1.00 48.49 LIG 0.25  C 
ATOM     50 O    PRO B   1      34.261  -5.376   7.867  1.00 48.43 LIG-0.27  OA
BRANCH 49 51
ATOM     51  CA  PRO B   1      34.634  -4.442   5.618  1.00 50.22 LIG 0.28  C 
ATOM     52  N   PRO B   1      33.765  -4.505   4.408  1.00 50.48 LIG-0.06  N 
ATOM     53 H3   PRO B   1      34.255  -4.433   3.704  1.00 50.48 LIG 0.28  HD
ATOM     54 H2   PRO B   1      33.387  -5.277   4.373  1.00 50.48 LIG 0.28  HD
ATOM     55  CD  PRO B   1      32.726  -3.458   4.381  1.00 50.94 LIG 0.23  C 
ATOM     56  CG  PRO B   1      32.999  -2.612   5.622  1.00 51.81 LIG 0.03  C 
ATOM     57  CB  PRO B   1      34.351  -3.043   6.202  1.00 50.52 LIG 0.04  C 
ENDBRANCH 49 51
ENDBRANCH 45 47
ENDBRANCH 42 45
ENDBRANCH 40 41
BRANCH 40 58
ATOM     58  CB  TRP B   3      38.149  -8.622   9.141  1.00 38.41 LIG 0.07  C 
BRANCH 58 59
ATOM     59  CG  TRP B   3      38.800  -8.712  10.445  1.00 37.10 LIG-0.03  A 
ATOM     60  CD1 TRP B   3      38.284  -9.256  11.560  1.00 36.42 LIG 0.10  A 
ATOM     61  NE1 TRP B   3      39.162  -9.129  12.593  1.00 36.34 LIG-0.36  N 
ATOM     62 HE1  TRP B   3      39.034  -9.408  13.397  1.00 36.34 LIG 0.17  HD
ATOM     63  CE2 TRP B   3      40.281  -8.482  12.142  1.00 35.80 LIG 0.04  A 
ATOM     64  CD2 TRP B   3      40.077  -8.186  10.804  1.00 33.30 LIG-0.00  A 
ATOM     65  CZ2 TRP B   3      41.435  -8.096  12.832  1.00 36.94 LIG 0.03  A 
ATOM     66  CE3 TRP B   3      41.076  -7.527  10.104  1.00 37.18 LIG 0.01  A 
ATOM     67  CZ3 TRP B   3      42.243  -7.168  10.777  1.00 37.29 LIG 0.00  A 
ATOM     68  CH2 TRP B   3      42.403  -7.456  12.137  1.00 32.87 LIG 0.00  A 
ENDBRANCH 58 59
ENDBRANCH 40 58
ENDBRANCH 38 40
ENDBRANCH 1 36
TORSDOF 22
ENDMDL
