MODEL 1
USER: ADFR SOLUTION from run 171
USER: SCORE 23.568368 LL:  -6.062 LR: -18.981 RR:   0.000 FEB: -11.225
USER: RMSD 5.962288
USER: SEED 170
USER: STATUS no improvement in best in 8 clusters for 5 generations
USER: GENES 28
USER: genes 0 Translation |==|  0.42917 0.40647 0.63999
USER: genes 1 Rotation |==|  0.00560 0.44058 0.52798 0.53545
USER: genes 2 Torsion [C]-N--CA-[CB] |==|  0.79299
USER: genes 3 Torsion [N]-CA--CB-[CG] |==|  0.65932
USER: genes 4 Torsion [CA]-CB--CG-[CD1] |==|  0.94785
USER: genes 5 Torsion [CE1]-CZ--OH-[HH] |==|  0.16602
USER: genes 6 Torsion [N]-CA--C-[N] |==|  0.02754
USER: genes 7 Torsion [C]-N--CA-[CB] |==|  0.49479
USER: genes 8 Torsion [N]-CA--C-[N] |==|  0.44652
USER: genes 9 Torsion [C]-N--CA-[CB] |==|  0.35003
USER: genes 10 Torsion [N]-CA--CB-[CG] |==|  0.90136
USER: genes 11 Torsion [CA]-CB--CG-[CD] |==|  0.49235
USER: genes 12 Torsion [CB]-CG--CD-[NE] |==|  0.36790
USER: genes 13 Torsion [CG]-CD--NE-[HE] |==|  0.91873
USER: genes 14 Torsion [N]-CA--C-[O] |==|  0.64085
USER: genes 15 Torsion [N]-CA--CB-[CG] |==|  0.96049
USER: genes 16 Torsion [CA]-CB--CG-[CD1] |==|  0.27890
USER: genes 17 Torsion [N]-C--CA-[N] |==|  0.02517
USER: genes 18 Torsion [C]-CA--N-[C] |==|  0.74914
USER: genes 19 Torsion [N]-C--CA-[N] |==|  0.16667
USER: genes 20 Torsion [C]-CA--N-[C] |==|  0.77454
USER: genes 21 Torsion [N]-C--CA-[N] |==|  0.87787
USER: genes 22 Torsion [C]-CA--N-[C] |==|  0.80508
USER: genes 23 Torsion [N]-C--CA-[N] |==|  0.42284
USER: genes 24 Torsion [C]-CA--CB-[CG1] |==|  0.85732
USER: genes 25 Torsion [CA]-CB--CG1-[CD1] |==|  0.39786
USER: genes 26 Torsion [C]-CA--CB-[CG] |==|  0.27264
USER: genes 27 Torsion [CA]-CB--CG-[CD1] |==|  0.25962
ROOT
ATOM      1  C   TRP B1542      -4.105  42.138   5.095  1.00 26.55 LIG 0.24  C 
ATOM      2 O    TRP B1542      -2.923  42.013   5.382  1.00 27.86 LIG-0.27  OA
ATOM      3  N   TYR B1543      -4.546  43.091   4.283  1.00 24.62 LIG-0.35  N 
ATOM      4 H    TYR B1543      -5.377  43.247   4.126  1.00 24.62 LIG 0.16  HD
ENDROOT
BRANCH 3 5
ATOM      5  CA  TYR B1543      -3.623  43.964   3.580  1.00 22.31 LIG 0.18  C 
BRANCH 5 6
ATOM      6  CB  TYR B1543      -3.046  44.972   4.578  1.00 23.67 LIG 0.07  C 
BRANCH 6 7
ATOM      7  CG  TYR B1543      -3.263  46.432   4.230  1.00 24.58 LIG-0.06  A 
ATOM      8  CD1 TYR B1543      -3.583  46.814   2.928  1.00 24.59 LIG 0.01  A 
ATOM      9  CE1 TYR B1543      -3.710  48.152   2.585  1.00 26.50 LIG 0.04  A 
ATOM     10  CZ  TYR B1543      -3.510  49.116   3.554  1.00 24.60 LIG 0.07  A 
ATOM     11  CE2 TYR B1543      -3.197  48.751   4.861  1.00 24.06 LIG 0.04  A 
ATOM     12  CD2 TYR B1543      -3.082  47.426   5.184  1.00 22.62 LIG 0.01  A 
BRANCH 10 13
ATOM     13 OH   TYR B1543      -3.585  50.436   3.215  1.00 26.51 LIG-0.36  OA
ATOM     14 HH   TYR B1543      -4.349  50.603   2.908  1.00 26.51 LIG 0.22  HD
ENDBRANCH 10 13
ENDBRANCH 6 7
ENDBRANCH 5 6
BRANCH 5 15
ATOM     15  C   TYR B1543      -2.491  43.355   2.768  1.00 22.90 LIG 0.24  C 
ATOM     16  N   LEU B1544      -2.525  42.043   2.579  1.00 22.60 LIG-0.35  N 
ATOM     17 H    LEU B1544      -3.153  41.525   2.854  1.00 22.60 LIG 0.16  HD
ATOM     18 O    TYR B1543      -1.592  44.062   2.328  1.00 21.43 LIG-0.27  OA
BRANCH 16 19
ATOM     19  CA  LEU B1544      -1.448  41.379   1.862  1.00 22.81 LIG 0.18  C 
BRANCH 19 20
ATOM     20  C   LEU B1544      -1.277  41.931   0.450  1.00 21.53 LIG 0.24  C 
ATOM     21 O    LEU B1544      -2.185  42.559  -0.104  1.00 22.00 LIG-0.27  OA
ATOM     22  N   ARG B1545      -0.108  41.692  -0.136  1.00 20.14 LIG-0.35  N 
ATOM     23 H    ARG B1545       0.543  41.257   0.220  1.00 20.14 LIG 0.16  HD
BRANCH 22 24
ATOM     24  CA  ARG B1545       0.133  42.183  -1.482  1.00 18.95 LIG 0.16  C 
BRANCH 24 25
ATOM     25  CB  ARG B1545       1.421  43.018  -1.516  1.00 20.51 LIG 0.04  C 
BRANCH 25 26
ATOM     26  CG  ARG B1545       1.574  43.802  -0.213  1.00 20.78 LIG 0.02  C 
BRANCH 26 27
ATOM     27  CD  ARG B1545       2.869  44.607  -0.144  1.00 21.13 LIG 0.14  C 
BRANCH 27 28
ATOM     28  NE  ARG B1545       2.602  45.979   0.300  1.00 20.56 LIG-0.23  N 
ATOM     29 HE   ARG B1545       1.836  46.323   0.113  1.00 20.56 LIG 0.18  HD
ATOM     30  CZ  ARG B1545       3.474  46.722   0.974  1.00 23.27 LIG 0.67  C 
ATOM     31  NH2 ARG B1545       3.167  47.980   1.317  1.00 19.37 LIG-0.23  N 
ATOM     32  NH1 ARG B1545       4.661  46.215   1.282  1.00 20.25 LIG-0.23  N 
ATOM     33 1HH2 ARG B1545       2.404  48.310   1.102  1.00 19.37 LIG 0.17  HD
ATOM     34 2HH2 ARG B1545       3.734  48.457   1.753  1.00 19.37 LIG 0.17  HD
ATOM     35 1HH1 ARG B1545       4.860  45.412   1.045  1.00 20.25 LIG 0.17  HD
ATOM     36 2HH1 ARG B1545       5.231  46.689   1.718  1.00 20.25 LIG 0.17  HD
ENDBRANCH 27 28
ENDBRANCH 26 27
ENDBRANCH 25 26
ENDBRANCH 24 25
BRANCH 24 37
ATOM     37  C   ARG B1545       0.153  41.065  -2.517  1.00 20.11 LIG 0.22  C 
ATOM     38 O    ARG B1545       1.138  41.032  -3.293  1.00 20.61 LIG-0.29  OA
ENDBRANCH 24 37
ENDBRANCH 22 24
ENDBRANCH 19 20
BRANCH 19 39
ATOM     39  CB  LEU B1544      -1.707  39.868   1.825  1.00 22.71 LIG 0.04  C 
BRANCH 39 40
ATOM     40  CG  LEU B1544      -2.789  39.378   2.800  1.00 23.46 LIG-0.02  C 
ATOM     41  CD1 LEU B1544      -4.091  39.172   2.020  1.00 24.99 LIG 0.01  C 
ATOM     42  CD2 LEU B1544      -2.369  38.084   3.486  1.00 22.67 LIG 0.01  C 
ENDBRANCH 39 40
ENDBRANCH 19 39
ENDBRANCH 16 19
ENDBRANCH 5 15
ENDBRANCH 3 5
BRANCH 1 43
ATOM     43  CA  TRP B1542      -5.147  41.204   5.698  1.00 29.62 LIG 0.18  C 
BRANCH 43 44
ATOM     44  N   TRP B1542      -6.476  41.378   5.115  1.00 31.24 LIG-0.35  N 
ATOM     45  C   ALA B1541      -7.334  42.237   5.640  1.00 34.20 LIG 0.24  C 
ATOM     46 O    ALA B1541      -7.045  42.945   6.602  1.00 33.88 LIG-0.27  OA
ATOM     47 H    TRP B1542      -6.637  40.889   4.426  1.00 31.24 LIG 0.16  HD
BRANCH 45 48
ATOM     48  CA  ALA B1541      -8.720  42.325   4.984  1.00 35.59 LIG 0.17  C 
ATOM     49  CB  ALA B1541      -9.548  43.447   5.654  1.00 37.24 LIG 0.04  C 
BRANCH 48 50
ATOM     50  N   ALA B1541      -9.504  41.082   4.979  1.00 36.68 LIG-0.35  N 
ATOM     51  C   ALA B1540      -9.306  40.125   4.077  1.00 36.41 LIG 0.24  C 
ATOM     52 O    ALA B1540      -8.421  40.189   3.217  1.00 35.55 LIG-0.27  OA
ATOM     53 H    ALA B1541     -10.092  41.034   5.604  1.00 36.68 LIG 0.16  HD
BRANCH 51 54
ATOM     54  CA  ALA B1540     -10.223  38.900   4.183  1.00 37.40 LIG 0.17  C 
ATOM     55  CB  ALA B1540     -11.603  39.215   3.584  1.00 38.11 LIG 0.04  C 
BRANCH 54 56
ATOM     56  N   ALA B1540     -10.382  38.446   5.563  1.00 38.31 LIG-0.35  N 
ATOM     57 H    ALA B1540     -11.165  38.587   5.890  1.00 38.31 LIG 0.16  HD
ATOM     58  C   ILE B1539      -9.398  37.871   6.241  1.00 39.48 LIG 0.26  C 
ATOM     59 O    ILE B1539      -8.286  37.688   5.765  1.00 40.50 LIG-0.27  OA
BRANCH 58 60
ATOM     60  CA  ILE B1539      -9.712  37.465   7.682  1.00 40.24 LIG 0.40  C 
ATOM     61  N   ILE B1539      -8.882  36.301   8.133  1.00 42.50 LIG 0.61  N 
BRANCH 60 62
ATOM     62  CB  ILE B1539      -9.489  38.717   8.583  1.00 40.48 LIG 0.03  C 
ATOM     63  CG2 ILE B1539      -9.620  38.327  10.054  1.00 38.85 LIG 0.01  C 
BRANCH 62 64
ATOM     64  CG1 ILE B1539      -8.109  39.331   8.323  1.00 39.99 LIG 0.00  C 
ATOM     65  CD1 ILE B1539      -8.102  40.864   8.389  1.00 39.67 LIG 0.01  C 
ENDBRANCH 62 64
ENDBRANCH 60 62
ENDBRANCH 58 60
ENDBRANCH 54 56
ENDBRANCH 51 54
ENDBRANCH 48 50
ENDBRANCH 45 48
ENDBRANCH 43 44
BRANCH 43 66
ATOM     66  CB  TRP B1542      -4.685  39.756   5.483  1.00 29.93 LIG 0.07  C 
BRANCH 66 67
ATOM     67  CG  TRP B1542      -3.992  39.145   6.703  1.00 31.09 LIG-0.03  A 
ATOM     68  CD1 TRP B1542      -4.583  38.397   7.691  1.00 35.00 LIG 0.10  A 
ATOM     69  NE1 TRP B1542      -3.639  37.986   8.612  1.00 35.42 LIG-0.36  N 
ATOM     70 HE1  TRP B1542      -3.795  37.506   9.309  1.00 35.42 LIG 0.17  HD
ATOM     71  CE2 TRP B1542      -2.410  38.466   8.234  1.00 34.23 LIG 0.04  A 
ATOM     72  CD2 TRP B1542      -2.590  39.205   7.036  1.00 31.85 LIG-0.00  A 
ATOM     73  CZ2 TRP B1542      -1.154  38.312   8.843  1.00 32.49 LIG 0.03  A 
ATOM     74  CE3 TRP B1542      -1.473  39.807   6.441  1.00 30.05 LIG 0.01  A 
ATOM     75  CZ3 TRP B1542      -0.221  39.655   7.046  1.00 29.28 LIG 0.00  A 
ATOM     76  CH2 TRP B1542      -0.077  38.908   8.240  1.00 32.34 LIG 0.00  A 
ENDBRANCH 66 67
ENDBRANCH 43 66
ENDBRANCH 1 43
TORSDOF 26
ENDMDL
MODEL 2
USER: ADFR SOLUTION from run 19
USER: SCORE 21.963577 LL:  -5.610 LR: -18.788 RR:   0.000 FEB: -11.032
USER: RMSD 7.462692
USER: SEED 18
USER: STATUS searching
USER: GENES 28
USER: genes 0 Translation |==|  0.47207 0.35620 0.67482
USER: genes 1 Rotation |==|  0.01399 0.38798 0.52433 0.52561
USER: genes 2 Torsion [C]-N--CA-[CB] |==|  0.21873
USER: genes 3 Torsion [N]-CA--CB-[CG] |==|  0.99172
USER: genes 4 Torsion [CA]-CB--CG-[CD1] |==|  0.21618
USER: genes 5 Torsion [CE1]-CZ--OH-[HH] |==|  0.42768
USER: genes 6 Torsion [N]-CA--C-[N] |==|  0.40463
USER: genes 7 Torsion [C]-N--CA-[CB] |==|  0.39484
USER: genes 8 Torsion [N]-CA--C-[N] |==|  0.93889
USER: genes 9 Torsion [C]-N--CA-[CB] |==|  0.33223
USER: genes 10 Torsion [N]-CA--CB-[CG] |==|  0.18905
USER: genes 11 Torsion [CA]-CB--CG-[CD] |==|  0.37567
USER: genes 12 Torsion [CB]-CG--CD-[NE] |==|  0.42593
USER: genes 13 Torsion [CG]-CD--NE-[HE] |==|  0.28630
USER: genes 14 Torsion [N]-CA--C-[O] |==|  0.94814
USER: genes 15 Torsion [N]-CA--CB-[CG] |==|  0.66982
USER: genes 16 Torsion [CA]-CB--CG-[CD1] |==|  0.04873
USER: genes 17 Torsion [N]-C--CA-[N] |==|  0.01971
USER: genes 18 Torsion [C]-CA--N-[C] |==|  0.65574
USER: genes 19 Torsion [N]-C--CA-[N] |==|  0.40526
USER: genes 20 Torsion [C]-CA--N-[C] |==|  0.81512
USER: genes 21 Torsion [N]-C--CA-[N] |==|  0.90931
USER: genes 22 Torsion [C]-CA--N-[C] |==|  0.82972
USER: genes 23 Torsion [N]-C--CA-[N] |==|  0.33837
USER: genes 24 Torsion [C]-CA--CB-[CG1] |==|  0.08691
USER: genes 25 Torsion [CA]-CB--CG1-[CD1] |==|  0.45146
USER: genes 26 Torsion [C]-CA--CB-[CG] |==|  0.19665
USER: genes 27 Torsion [CA]-CB--CG-[CD1] |==|  0.70495
ROOT
ATOM      1  C   TRP B1542      -3.107  41.158   5.748  1.00 26.55 LIG 0.24  C 
ATOM      2 O    TRP B1542      -1.936  41.292   6.073  1.00 27.86 LIG-0.27  OA
ATOM      3  N   TYR B1543      -3.712  41.980   4.898  1.00 24.62 LIG-0.35  N 
ATOM      4 H    TYR B1543      -4.552  41.953   4.713  1.00 24.62 LIG 0.16  HD
ENDROOT
BRANCH 3 5
ATOM      5  CA  TYR B1543      -2.971  43.015   4.201  1.00 22.31 LIG 0.18  C 
BRANCH 5 6
ATOM      6  CB  TYR B1543      -2.219  42.375   3.031  1.00 23.67 LIG 0.07  C 
BRANCH 6 7
ATOM      7  CG  TYR B1543      -2.352  40.870   2.914  1.00 24.58 LIG-0.06  A 
ATOM      8  CD1 TYR B1543      -3.506  40.295   2.383  1.00 24.59 LIG 0.01  A 
ATOM      9  CE1 TYR B1543      -3.666  38.918   2.340  1.00 26.50 LIG 0.04  A 
ATOM     10  CZ  TYR B1543      -2.663  38.109   2.838  1.00 24.60 LIG 0.07  A 
ATOM     11  CE2 TYR B1543      -1.501  38.667   3.365  1.00 24.06 LIG 0.04  A 
ATOM     12  CD2 TYR B1543      -1.356  40.027   3.393  1.00 22.62 LIG 0.01  A 
BRANCH 10 13
ATOM     13 OH   TYR B1543      -2.833  36.755   2.845  1.00 26.51 LIG-0.36  OA
ATOM     14 HH   TYR B1543      -2.082  36.378   2.823  1.00 26.51 LIG 0.22  HD
ENDBRANCH 10 13
ENDBRANCH 6 7
ENDBRANCH 5 6
BRANCH 5 15
ATOM     15  C   TYR B1543      -3.702  44.255   3.712  1.00 22.90 LIG 0.24  C 
ATOM     16  N   LEU B1544      -3.031  45.398   3.738  1.00 22.60 LIG-0.35  N 
ATOM     17 H    LEU B1544      -2.210  45.478   3.979  1.00 22.60 LIG 0.16  HD
ATOM     18 O    TYR B1543      -4.863  44.179   3.328  1.00 21.43 LIG-0.27  OA
BRANCH 16 19
ATOM     19  CA  LEU B1544      -3.681  46.637   3.341  1.00 22.81 LIG 0.18  C 
BRANCH 19 20
ATOM     20  C   LEU B1544      -3.429  46.970   1.874  1.00 21.53 LIG 0.24  C 
ATOM     21 O    LEU B1544      -4.188  47.719   1.249  1.00 22.00 LIG-0.27  OA
ATOM     22  N   ARG B1545      -2.359  46.408   1.320  1.00 20.14 LIG-0.35  N 
ATOM     23 H    ARG B1545      -1.812  45.882   1.725  1.00 20.14 LIG 0.16  HD
BRANCH 22 24
ATOM     24  CA  ARG B1545      -2.049  46.675  -0.075  1.00 18.95 LIG 0.16  C 
BRANCH 24 25
ATOM     25  CB  ARG B1545      -0.670  47.337  -0.192  1.00 20.51 LIG 0.04  C 
BRANCH 25 26
ATOM     26  CG  ARG B1545       0.426  46.344   0.198  1.00 20.78 LIG 0.02  C 
BRANCH 26 27
ATOM     27  CD  ARG B1545       1.613  46.350  -0.761  1.00 21.13 LIG 0.14  C 
BRANCH 27 28
ATOM     28  NE  ARG B1545       2.835  45.917  -0.075  1.00 20.56 LIG-0.23  N 
ATOM     29 HE   ARG B1545       3.116  45.117  -0.215  1.00 20.56 LIG 0.18  HD
ATOM     30  CZ  ARG B1545       3.533  46.691   0.749  1.00 23.27 LIG 0.67  C 
ATOM     31  NH2 ARG B1545       4.624  46.213   1.363  1.00 19.37 LIG-0.23  N 
ATOM     32  NH1 ARG B1545       3.127  47.933   0.978  1.00 20.25 LIG-0.23  N 
ATOM     33 1HH2 ARG B1545       4.875  45.403   1.225  1.00 19.37 LIG 0.17  HD
ATOM     34 2HH2 ARG B1545       5.073  46.717   1.896  1.00 19.37 LIG 0.17  HD
ATOM     35 1HH1 ARG B1545       2.417  48.231   0.595  1.00 20.25 LIG 0.17  HD
ATOM     36 2HH1 ARG B1545       3.573  48.441   1.510  1.00 20.25 LIG 0.17  HD
ENDBRANCH 27 28
ENDBRANCH 26 27
ENDBRANCH 25 26
ENDBRANCH 24 25
BRANCH 24 37
ATOM     37  C   ARG B1545      -2.156  45.429  -0.945  1.00 20.11 LIG 0.22  C 
ATOM     38 O    ARG B1545      -2.126  44.323  -0.354  1.00 20.61 LIG-0.29  OA
ENDBRANCH 24 37
ENDBRANCH 22 24
ENDBRANCH 19 20
BRANCH 19 39
ATOM     39  CB  LEU B1544      -3.206  47.782   4.244  1.00 22.71 LIG 0.04  C 
BRANCH 39 40
ATOM     40  CG  LEU B1544      -4.317  48.459   5.061  1.00 23.46 LIG-0.02  C 
ATOM     41  CD1 LEU B1544      -5.537  47.533   5.087  1.00 24.99 LIG 0.01  C 
ATOM     42  CD2 LEU B1544      -3.851  48.767   6.479  1.00 22.67 LIG 0.01  C 
ENDBRANCH 39 40
ENDBRANCH 19 39
ENDBRANCH 16 19
ENDBRANCH 5 15
ENDBRANCH 3 5
BRANCH 1 43
ATOM     43  CA  TRP B1542      -3.949  40.036   6.344  1.00 29.62 LIG 0.18  C 
BRANCH 43 44
ATOM     44  N   TRP B1542      -5.281  39.942   5.749  1.00 31.24 LIG-0.35  N 
ATOM     45  C   ALA B1541      -6.363  40.004   6.507  1.00 34.20 LIG 0.24  C 
ATOM     46 O    ALA B1541      -6.301  40.181   7.722  1.00 33.88 LIG-0.27  OA
ATOM     47 H    TRP B1542      -5.290  39.846   4.894  1.00 31.24 LIG 0.16  HD
BRANCH 45 48
ATOM     48  CA  ALA B1541      -7.718  39.858   5.800  1.00 35.59 LIG 0.17  C 
ATOM     49  CB  ALA B1541      -8.233  41.248   5.358  1.00 37.24 LIG 0.04  C 
BRANCH 48 50
ATOM     50  N   ALA B1541      -8.767  39.173   6.567  1.00 36.68 LIG-0.35  N 
ATOM     51  C   ALA B1540      -8.686  37.884   6.885  1.00 36.41 LIG 0.24  C 
ATOM     52 O    ALA B1540      -7.704  37.188   6.604  1.00 35.55 LIG-0.27  OA
ATOM     53 H    ALA B1541      -9.428  39.678   6.787  1.00 36.68 LIG 0.16  HD
BRANCH 51 54
ATOM     54  CA  ALA B1540      -9.875  37.306   7.661  1.00 37.40 LIG 0.17  C 
ATOM     55  CB  ALA B1540     -10.933  36.763   6.688  1.00 38.11 LIG 0.04  C 
BRANCH 54 56
ATOM     56  N   ALA B1540     -10.488  38.292   8.549  1.00 38.31 LIG-0.35  N 
ATOM     57 H    ALA B1540     -11.311  38.463   8.367  1.00 38.31 LIG 0.16  HD
ATOM     58  C   ILE B1539      -9.823  38.865   9.543  1.00 39.48 LIG 0.26  C 
ATOM     59 O    ILE B1539      -8.649  38.619   9.782  1.00 40.50 LIG-0.27  OA
BRANCH 58 60
ATOM     60  CA  ILE B1539     -10.596  39.891  10.375  1.00 40.24 LIG 0.40  C 
ATOM     61  N   ILE B1539     -10.639  39.520  11.826  1.00 42.50 LIG 0.61  N 
BRANCH 60 62
ATOM     62  CB  ILE B1539      -9.925  41.279  10.153  1.00 40.48 LIG 0.03  C 
ATOM     63  CG2 ILE B1539      -8.833  41.501  11.198  1.00 38.85 LIG 0.01  C 
BRANCH 62 64
ATOM     64  CG1 ILE B1539      -9.328  41.372   8.743  1.00 39.99 LIG 0.00  C 
ATOM     65  CD1 ILE B1539      -9.036  42.812   8.300  1.00 39.67 LIG 0.01  C 
ENDBRANCH 62 64
ENDBRANCH 60 62
ENDBRANCH 58 60
ENDBRANCH 54 56
ENDBRANCH 51 54
ENDBRANCH 48 50
ENDBRANCH 45 48
ENDBRANCH 43 44
BRANCH 43 66
ATOM     66  CB  TRP B1542      -3.206  38.708   6.137  1.00 29.93 LIG 0.07  C 
BRANCH 66 67
ATOM     67  CG  TRP B1542      -1.956  38.562   7.007  1.00 31.09 LIG-0.03  A 
ATOM     68  CD1 TRP B1542      -0.652  38.651   6.586  1.00 35.00 LIG 0.10  A 
ATOM     69  NE1 TRP B1542       0.209  38.500   7.657  1.00 35.42 LIG-0.36  N 
ATOM     70 HE1  TRP B1542       1.068  38.524   7.615  1.00 35.42 LIG 0.17  HD
ATOM     71  CE2 TRP B1542      -0.528  38.308   8.798  1.00 34.23 LIG 0.04  A 
ATOM     72  CD2 TRP B1542      -1.898  38.337   8.430  1.00 31.85 LIG-0.00  A 
ATOM     73  CZ2 TRP B1542      -0.107  38.112  10.123  1.00 32.49 LIG 0.03  A 
ATOM     74  CE3 TRP B1542      -2.868  38.160   9.428  1.00 30.05 LIG 0.01  A 
ATOM     75  CZ3 TRP B1542      -2.450  37.965  10.748  1.00 29.28 LIG 0.00  A 
ATOM     76  CH2 TRP B1542      -1.074  37.944  11.080  1.00 32.34 LIG 0.00  A 
ENDBRANCH 66 67
ENDBRANCH 43 66
ENDBRANCH 1 43
TORSDOF 26
ENDMDL
MODEL 3
USER: ADFR SOLUTION from run 150
USER: SCORE 23.248931 LL:  -5.994 LR: -18.621 RR:   0.000 FEB: -10.865
USER: RMSD 7.801772
USER: SEED 149
USER: STATUS no improvement in best in 9 clusters for 5 generations
USER: GENES 28
USER: genes 0 Translation |==|  0.52743 0.50265 0.45305
USER: genes 1 Rotation |==|  0.32665 0.23267 0.68250 0.83938
USER: genes 2 Torsion [C]-N--CA-[CB] |==|  0.82167
USER: genes 3 Torsion [N]-CA--CB-[CG] |==|  0.80174
USER: genes 4 Torsion [CA]-CB--CG-[CD1] |==|  0.10591
USER: genes 5 Torsion [CE1]-CZ--OH-[HH] |==|  0.48757
USER: genes 6 Torsion [N]-CA--C-[N] |==|  0.83889
USER: genes 7 Torsion [C]-N--CA-[CB] |==|  0.83994
USER: genes 8 Torsion [N]-CA--C-[N] |==|  0.35268
USER: genes 9 Torsion [C]-N--CA-[CB] |==|  0.18590
USER: genes 10 Torsion [N]-CA--CB-[CG] |==|  0.46270
USER: genes 11 Torsion [CA]-CB--CG-[CD] |==|  0.16741
USER: genes 12 Torsion [CB]-CG--CD-[NE] |==|  0.30010
USER: genes 13 Torsion [CG]-CD--NE-[HE] |==|  0.01840
USER: genes 14 Torsion [N]-CA--C-[O] |==|  0.85026
USER: genes 15 Torsion [N]-CA--CB-[CG] |==|  0.77249
USER: genes 16 Torsion [CA]-CB--CG-[CD1] |==|  0.01848
USER: genes 17 Torsion [N]-C--CA-[N] |==|  0.07567
USER: genes 18 Torsion [C]-CA--N-[C] |==|  0.15235
USER: genes 19 Torsion [N]-C--CA-[N] |==|  0.03911
USER: genes 20 Torsion [C]-CA--N-[C] |==|  0.18145
USER: genes 21 Torsion [N]-C--CA-[N] |==|  0.49979
USER: genes 22 Torsion [C]-CA--N-[C] |==|  0.78426
USER: genes 23 Torsion [N]-C--CA-[N] |==|  0.46849
USER: genes 24 Torsion [C]-CA--CB-[CG1] |==|  0.91951
USER: genes 25 Torsion [CA]-CB--CG1-[CD1] |==|  0.48305
USER: genes 26 Torsion [C]-CA--CB-[CG] |==|  0.14443
USER: genes 27 Torsion [CA]-CB--CG-[CD1] |==|  0.67380
ROOT
ATOM      1  C   TRP B1542      -1.820  44.014   1.590  1.00 26.55 LIG 0.24  C 
ATOM      2 O    TRP B1542      -1.248  45.087   1.721  1.00 27.86 LIG-0.27  OA
ATOM      3  N   TYR B1543      -2.683  43.550   2.485  1.00 24.62 LIG-0.35  N 
ATOM      4 H    TYR B1543      -3.040  42.768   2.454  1.00 24.62 LIG 0.16  HD
ENDROOT
BRANCH 3 5
ATOM      5  CA  TYR B1543      -3.099  44.360   3.616  1.00 22.31 LIG 0.18  C 
BRANCH 5 6
ATOM      6  CB  TYR B1543      -1.879  44.626   4.503  1.00 23.67 LIG 0.07  C 
BRANCH 6 7
ATOM      7  CG  TYR B1543      -1.367  43.432   5.284  1.00 24.58 LIG-0.06  A 
ATOM      8  CD1 TYR B1543      -1.359  42.158   4.715  1.00 24.59 LIG 0.01  A 
ATOM      9  CE1 TYR B1543      -0.962  41.050   5.447  1.00 26.50 LIG 0.04  A 
ATOM     10  CZ  TYR B1543      -0.574  41.216   6.762  1.00 24.60 LIG 0.07  A 
ATOM     11  CE2 TYR B1543      -0.569  42.482   7.343  1.00 24.06 LIG 0.04  A 
ATOM     12  CD2 TYR B1543      -0.957  43.566   6.605  1.00 22.62 LIG 0.01  A 
BRANCH 10 13
ATOM     13 OH   TYR B1543      -0.228  40.124   7.504  1.00 26.51 LIG-0.36  OA
ATOM     14 HH   TYR B1543       0.043  40.373   8.260  1.00 26.51 LIG 0.22  HD
ENDBRANCH 10 13
ENDBRANCH 6 7
ENDBRANCH 5 6
BRANCH 5 15
ATOM     15  C   TYR B1543      -3.835  45.667   3.367  1.00 22.90 LIG 0.24  C 
ATOM     16  N   LEU B1544      -3.216  46.574   2.623  1.00 22.60 LIG-0.35  N 
ATOM     17 H    LEU B1544      -2.450  46.461   2.250  1.00 22.60 LIG 0.16  HD
ATOM     18 O    TYR B1543      -4.944  45.856   3.852  1.00 21.43 LIG-0.27  OA
BRANCH 16 19
ATOM     19  CA  LEU B1544      -3.832  47.870   2.388  1.00 22.81 LIG 0.18  C 
BRANCH 19 20
ATOM     20  C   LEU B1544      -3.952  48.687   3.671  1.00 21.53 LIG 0.24  C 
ATOM     21 O    LEU B1544      -4.497  48.219   4.676  1.00 22.00 LIG-0.27  OA
ATOM     22  N   ARG B1545      -3.443  49.914   3.636  1.00 20.14 LIG-0.35  N 
ATOM     23 H    ARG B1545      -3.060  50.270   2.953  1.00 20.14 LIG 0.16  HD
BRANCH 22 24
ATOM     24  CA  ARG B1545      -3.518  50.756   4.818  1.00 18.95 LIG 0.16  C 
BRANCH 24 25
ATOM     25  CB  ARG B1545      -2.642  50.175   5.936  1.00 20.51 LIG 0.04  C 
BRANCH 25 26
ATOM     26  CG  ARG B1545      -2.450  51.209   7.046  1.00 20.78 LIG 0.02  C 
BRANCH 26 27
ATOM     27  CD  ARG B1545      -3.761  51.649   7.691  1.00 21.13 LIG 0.14  C 
BRANCH 27 28
ATOM     28  NE  ARG B1545      -3.883  51.098   9.044  1.00 20.56 LIG-0.23  N 
ATOM     29 HE   ARG B1545      -3.208  50.677   9.372  1.00 20.56 LIG 0.18  HD
ATOM     30  CZ  ARG B1545      -4.974  51.211   9.794  1.00 23.27 LIG 0.67  C 
ATOM     31  NH2 ARG B1545      -5.020  50.652  11.011  1.00 19.37 LIG-0.23  N 
ATOM     32  NH1 ARG B1545      -6.028  51.860   9.317  1.00 20.25 LIG-0.23  N 
ATOM     33 1HH2 ARG B1545      -4.341  50.218  11.310  1.00 19.37 LIG 0.17  HD
ATOM     34 2HH2 ARG B1545      -5.728  50.727  11.492  1.00 19.37 LIG 0.17  HD
ATOM     35 1HH1 ARG B1545      -6.001  52.204   8.528  1.00 20.25 LIG 0.17  HD
ATOM     36 2HH1 ARG B1545      -6.739  51.938   9.795  1.00 20.25 LIG 0.17  HD
ENDBRANCH 27 28
ENDBRANCH 26 27
ENDBRANCH 25 26
ENDBRANCH 24 25
BRANCH 24 37
ATOM     37  C   ARG B1545      -3.171  52.209   4.522  1.00 20.11 LIG 0.22  C 
ATOM     38 O    ARG B1545      -2.073  52.424   3.955  1.00 20.61 LIG-0.29  OA
ENDBRANCH 24 37
ENDBRANCH 22 24
ENDBRANCH 19 20
BRANCH 19 39
ATOM     39  CB  LEU B1544      -5.208  47.678   1.738  1.00 22.71 LIG 0.04  C 
BRANCH 39 40
ATOM     40  CG  LEU B1544      -5.175  47.452   0.219  1.00 23.46 LIG-0.02  C 
ATOM     41  CD1 LEU B1544      -3.715  47.317  -0.223  1.00 24.99 LIG 0.01  C 
ATOM     42  CD2 LEU B1544      -5.968  46.211  -0.173  1.00 22.67 LIG 0.01  C 
ENDBRANCH 39 40
ENDBRANCH 19 39
ENDBRANCH 16 19
ENDBRANCH 5 15
ENDBRANCH 3 5
BRANCH 1 43
ATOM     43  CA  TRP B1542      -1.533  43.130   0.381  1.00 29.62 LIG 0.18  C 
BRANCH 43 44
ATOM     44  N   TRP B1542      -2.646  42.245   0.044  1.00 31.24 LIG-0.35  N 
ATOM     45  C   ALA B1541      -3.855  42.736  -0.172  1.00 34.20 LIG 0.24  C 
ATOM     46 O    ALA B1541      -4.087  43.942  -0.139  1.00 33.88 LIG-0.27  OA
ATOM     47 H    TRP B1542      -2.445  41.409   0.002  1.00 31.24 LIG 0.16  HD
BRANCH 45 48
ATOM     48  CA  ALA B1541      -4.971  41.727  -0.483  1.00 35.59 LIG 0.17  C 
ATOM     49  CB  ALA B1541      -6.264  42.126   0.266  1.00 37.24 LIG 0.04  C 
BRANCH 48 50
ATOM     50  N   ALA B1541      -4.657  40.320  -0.193  1.00 36.68 LIG-0.35  N 
ATOM     51  C   ALA B1540      -4.445  39.882   1.044  1.00 36.41 LIG 0.24  C 
ATOM     52 O    ALA B1540      -4.547  40.610   2.037  1.00 35.55 LIG-0.27  OA
ATOM     53 H    ALA B1541      -4.625  39.817  -0.890  1.00 36.68 LIG 0.16  HD
BRANCH 51 54
ATOM     54  CA  ALA B1540      -4.098  38.395   1.182  1.00 37.40 LIG 0.17  C 
ATOM     55  CB  ALA B1540      -5.213  37.529   0.573  1.00 38.11 LIG 0.04  C 
BRANCH 54 56
ATOM     56  N   ALA B1540      -3.881  38.005   2.574  1.00 38.31 LIG-0.35  N 
ATOM     57 H    ALA B1540      -4.544  37.586   2.927  1.00 38.31 LIG 0.16  HD
ATOM     58  C   ILE B1539      -2.758  38.277   3.222  1.00 39.48 LIG 0.26  C 
ATOM     59 O    ILE B1539      -1.828  38.883   2.708  1.00 40.50 LIG-0.27  OA
BRANCH 58 60
ATOM     60  CA  ILE B1539      -2.686  37.819   4.680  1.00 40.24 LIG 0.40  C 
ATOM     61  N   ILE B1539      -1.299  37.926   5.237  1.00 42.50 LIG 0.61  N 
BRANCH 60 62
ATOM     62  CB  ILE B1539      -3.702  38.675   5.494  1.00 40.48 LIG 0.03  C 
ATOM     63  CG2 ILE B1539      -3.218  38.825   6.934  1.00 38.85 LIG 0.01  C 
BRANCH 62 64
ATOM     64  CG1 ILE B1539      -3.881  40.056   4.853  1.00 39.99 LIG 0.00  C 
ATOM     65  CD1 ILE B1539      -4.979  40.898   5.517  1.00 39.67 LIG 0.01  C 
ENDBRANCH 62 64
ENDBRANCH 60 62
ENDBRANCH 58 60
ENDBRANCH 54 56
ENDBRANCH 51 54
ENDBRANCH 48 50
ENDBRANCH 45 48
ENDBRANCH 43 44
BRANCH 43 66
ATOM     66  CB  TRP B1542      -1.223  44.035  -0.820  1.00 29.93 LIG 0.07  C 
BRANCH 66 67
ATOM     67  CG  TRP B1542      -0.140  45.079  -0.539  1.00 31.09 LIG-0.03  A 
ATOM     68  CD1 TRP B1542      -0.292  46.443  -0.566  1.00 35.00 LIG 0.10  A 
ATOM     69  NE1 TRP B1542       0.894  47.065  -0.226  1.00 35.42 LIG-0.36  N 
ATOM     70 HE1  TRP B1542       1.018  47.915  -0.180  1.00 35.42 LIG 0.17  HD
ATOM     71  CE2 TRP B1542       1.843  46.106   0.026  1.00 34.23 LIG 0.04  A 
ATOM     72  CD2 TRP B1542       1.232  44.840  -0.163  1.00 31.85 LIG-0.00  A 
ATOM     73  CZ2 TRP B1542       3.188  46.245   0.407  1.00 32.49 LIG 0.03  A 
ATOM     74  CE3 TRP B1542       2.000  43.684   0.033  1.00 30.05 LIG 0.01  A 
ATOM     75  CZ3 TRP B1542       3.340  43.820   0.412  1.00 29.28 LIG 0.00  A 
ATOM     76  CH2 TRP B1542       3.917  45.100   0.596  1.00 32.34 LIG 0.00  A 
ENDBRANCH 66 67
ENDBRANCH 43 66
ENDBRANCH 1 43
TORSDOF 26
ENDMDL
MODEL 4
USER: ADFR SOLUTION from run 120
USER: SCORE 22.755271 LL:  -6.599 LR: -18.516 RR:   0.000 FEB: -10.760
USER: RMSD 6.343872
USER: SEED 119
USER: STATUS no improvement in best in 2 clusters for 5 generations
USER: GENES 28
USER: genes 0 Translation |==|  0.50998 0.44778 0.49213
USER: genes 1 Rotation |==|  0.31345 0.27160 0.68474 0.85903
USER: genes 2 Torsion [C]-N--CA-[CB] |==|  0.82589
USER: genes 3 Torsion [N]-CA--CB-[CG] |==|  0.82404
USER: genes 4 Torsion [CA]-CB--CG-[CD1] |==|  0.10637
USER: genes 5 Torsion [CE1]-CZ--OH-[HH] |==|  0.14149
USER: genes 6 Torsion [N]-CA--C-[N] |==|  0.80745
USER: genes 7 Torsion [C]-N--CA-[CB] |==|  0.28326
USER: genes 8 Torsion [N]-CA--C-[N] |==|  0.92388
USER: genes 9 Torsion [C]-N--CA-[CB] |==|  0.38795
USER: genes 10 Torsion [N]-CA--CB-[CG] |==|  0.12753
USER: genes 11 Torsion [CA]-CB--CG-[CD] |==|  0.46509
USER: genes 12 Torsion [CB]-CG--CD-[NE] |==|  0.27841
USER: genes 13 Torsion [CG]-CD--NE-[HE] |==|  0.88857
USER: genes 14 Torsion [N]-CA--C-[O] |==|  0.98115
USER: genes 15 Torsion [N]-CA--CB-[CG] |==|  0.59603
USER: genes 16 Torsion [CA]-CB--CG-[CD1] |==|  0.36862
USER: genes 17 Torsion [N]-C--CA-[N] |==|  0.03543
USER: genes 18 Torsion [C]-CA--N-[C] |==|  0.73911
USER: genes 19 Torsion [N]-C--CA-[N] |==|  0.86242
USER: genes 20 Torsion [C]-CA--N-[C] |==|  0.85991
USER: genes 21 Torsion [N]-C--CA-[N] |==|  0.37484
USER: genes 22 Torsion [C]-CA--N-[C] |==|  0.75566
USER: genes 23 Torsion [N]-C--CA-[N] |==|  0.39834
USER: genes 24 Torsion [C]-CA--CB-[CG1] |==|  0.18678
USER: genes 25 Torsion [CA]-CB--CG1-[CD1] |==|  0.64536
USER: genes 26 Torsion [C]-CA--CB-[CG] |==|  0.37264
USER: genes 27 Torsion [CA]-CB--CG-[CD1] |==|  0.34338
ROOT
ATOM      1  C   TRP B1542      -2.226  42.944   2.323  1.00 26.55 LIG 0.24  C 
ATOM      2 O    TRP B1542      -1.537  43.954   2.297  1.00 27.86 LIG-0.27  OA
ATOM      3  N   TYR B1543      -3.003  42.634   3.354  1.00 24.62 LIG-0.35  N 
ATOM      4 H    TYR B1543      -3.436  41.895   3.429  1.00 24.62 LIG 0.16  HD
ENDROOT
BRANCH 3 5
ATOM      5  CA  TYR B1543      -3.179  43.555   4.462  1.00 22.31 LIG 0.18  C 
BRANCH 5 6
ATOM      6  CB  TYR B1543      -1.823  43.771   5.140  1.00 23.67 LIG 0.07  C 
BRANCH 6 7
ATOM      7  CG  TYR B1543      -1.206  42.539   5.773  1.00 24.58 LIG-0.06  A 
ATOM      8  CD1 TYR B1543      -1.311  41.293   5.158  1.00 24.59 LIG 0.01  A 
ATOM      9  CE1 TYR B1543      -0.814  40.149   5.765  1.00 26.50 LIG 0.04  A 
ATOM     10  CZ  TYR B1543      -0.211  40.254   7.003  1.00 24.60 LIG 0.07  A 
ATOM     11  CE2 TYR B1543      -0.090  41.493   7.628  1.00 24.06 LIG 0.04  A 
ATOM     12  CD2 TYR B1543      -0.580  42.612   7.012  1.00 22.62 LIG 0.01  A 
BRANCH 10 13
ATOM     13 OH   TYR B1543       0.238  39.128   7.630  1.00 26.51 LIG-0.36  OA
ATOM     14 HH   TYR B1543       0.720  38.686   7.102  1.00 26.51 LIG 0.22  HD
ENDBRANCH 10 13
ENDBRANCH 6 7
ENDBRANCH 5 6
BRANCH 5 15
ATOM     15  C   TYR B1543      -3.839  44.902   4.216  1.00 22.90 LIG 0.24  C 
ATOM     16  N   LEU B1544      -3.156  45.785   3.502  1.00 22.60 LIG-0.35  N 
ATOM     17 H    LEU B1544      -2.388  45.637   3.146  1.00 22.60 LIG 0.16  HD
ATOM     18 O    TYR B1543      -4.949  45.142   4.677  1.00 21.43 LIG-0.27  OA
BRANCH 16 19
ATOM     19  CA  LEU B1544      -3.697  47.116   3.272  1.00 22.81 LIG 0.18  C 
BRANCH 19 20
ATOM     20  C   LEU B1544      -3.549  47.549   1.817  1.00 21.53 LIG 0.24  C 
ATOM     21 O    LEU B1544      -4.337  48.353   1.307  1.00 22.00 LIG-0.27  OA
ATOM     22  N   ARG B1545      -2.537  47.012   1.144  1.00 20.14 LIG-0.35  N 
ATOM     23 H    ARG B1545      -1.972  46.449   1.467  1.00 20.14 LIG 0.16  HD
BRANCH 22 24
ATOM     24  CA  ARG B1545      -2.328  47.373  -0.248  1.00 18.95 LIG 0.16  C 
BRANCH 24 25
ATOM     25  CB  ARG B1545      -0.829  47.543  -0.530  1.00 20.51 LIG 0.04  C 
BRANCH 25 26
ATOM     26  CG  ARG B1545      -0.044  46.380   0.076  1.00 20.78 LIG 0.02  C 
BRANCH 26 27
ATOM     27  CD  ARG B1545       1.401  46.309  -0.412  1.00 21.13 LIG 0.14  C 
BRANCH 27 28
ATOM     28  NE  ARG B1545       2.312  46.881   0.584  1.00 20.56 LIG-0.23  N 
ATOM     29 HE   ARG B1545       2.064  47.593   0.999  1.00 20.56 LIG 0.18  HD
ATOM     30  CZ  ARG B1545       3.498  46.363   0.885  1.00 23.27 LIG 0.67  C 
ATOM     31  NH2 ARG B1545       4.289  46.962   1.786  1.00 19.37 LIG-0.23  N 
ATOM     32  NH1 ARG B1545       3.904  45.262   0.266  1.00 20.25 LIG-0.23  N 
ATOM     33 1HH2 ARG B1545       4.029  47.684   2.173  1.00 19.37 LIG 0.17  HD
ATOM     34 2HH2 ARG B1545       5.055  46.624   1.977  1.00 19.37 LIG 0.17  HD
ATOM     35 1HH1 ARG B1545       3.401  44.889  -0.324  1.00 20.25 LIG 0.17  HD
ATOM     36 2HH1 ARG B1545       4.671  44.921   0.455  1.00 20.25 LIG 0.17  HD
ENDBRANCH 27 28
ENDBRANCH 26 27
ENDBRANCH 25 26
ENDBRANCH 24 25
BRANCH 24 37
ATOM     37  C   ARG B1545      -2.978  46.387  -1.211  1.00 20.11 LIG 0.22  C 
ATOM     38 O    ARG B1545      -3.477  45.352  -0.708  1.00 20.61 LIG-0.29  OA
ENDBRANCH 24 37
ENDBRANCH 22 24
ENDBRANCH 19 20
BRANCH 19 39
ATOM     39  CB  LEU B1544      -3.011  48.119   4.207  1.00 22.71 LIG 0.04  C 
BRANCH 39 40
ATOM     40  CG  LEU B1544      -3.917  49.257   4.705  1.00 23.46 LIG-0.02  C 
ATOM     41  CD1 LEU B1544      -3.734  49.399   6.219  1.00 24.99 LIG 0.01  C 
ATOM     42  CD2 LEU B1544      -3.592  50.569   4.002  1.00 22.67 LIG 0.01  C 
ENDBRANCH 39 40
ENDBRANCH 19 39
ENDBRANCH 16 19
ENDBRANCH 5 15
ENDBRANCH 3 5
BRANCH 1 43
ATOM     43  CA  TRP B1542      -2.194  41.960   1.159  1.00 29.62 LIG 0.18  C 
BRANCH 43 44
ATOM     44  N   TRP B1542      -3.257  40.959   1.228  1.00 31.24 LIG-0.35  N 
ATOM     45  C   ALA B1541      -3.037  39.782   1.791  1.00 34.20 LIG 0.24  C 
ATOM     46 O    ALA B1541      -1.959  39.495   2.308  1.00 33.88 LIG-0.27  OA
ATOM     47 H    TRP B1542      -4.006  41.200   0.882  1.00 31.24 LIG 0.16  HD
BRANCH 45 48
ATOM     48  CA  ALA B1541      -4.200  38.779   1.783  1.00 35.59 LIG 0.17  C 
ATOM     49  CB  ALA B1541      -4.372  38.184   0.366  1.00 37.24 LIG 0.04  C 
BRANCH 48 50
ATOM     50  N   ALA B1541      -5.493  39.298   2.252  1.00 36.68 LIG-0.35  N 
ATOM     51  C   ALA B1540      -5.617  39.953   3.402  1.00 36.41 LIG 0.24  C 
ATOM     52 O    ALA B1540      -4.654  40.215   4.130  1.00 35.55 LIG-0.27  OA
ATOM     53 H    ALA B1541      -6.149  39.140   1.719  1.00 36.68 LIG 0.16  HD
BRANCH 51 54
ATOM     54  CA  ALA B1540      -7.036  40.405   3.769  1.00 37.40 LIG 0.17  C 
ATOM     55  CB  ALA B1540      -7.204  41.907   3.494  1.00 38.11 LIG 0.04  C 
BRANCH 54 56
ATOM     56  N   ALA B1540      -7.362  40.125   5.167  1.00 38.31 LIG-0.35  N 
ATOM     57 H    ALA B1540      -7.187  40.774   5.703  1.00 38.31 LIG 0.16  HD
ATOM     58  C   ILE B1539      -7.879  38.969   5.559  1.00 39.48 LIG 0.26  C 
ATOM     59 O    ILE B1539      -8.112  38.052   4.784  1.00 40.50 LIG-0.27  OA
BRANCH 58 60
ATOM     60  CA  ILE B1539      -8.150  38.819   7.057  1.00 40.24 LIG 0.40  C 
ATOM     61  N   ILE B1539      -9.400  38.038   7.328  1.00 42.50 LIG 0.61  N 
BRANCH 60 62
ATOM     62  CB  ILE B1539      -6.899  38.147   7.697  1.00 40.48 LIG 0.03  C 
ATOM     63  CG2 ILE B1539      -6.583  36.841   6.970  1.00 38.85 LIG 0.01  C 
BRANCH 62 64
ATOM     64  CG1 ILE B1539      -5.689  39.086   7.636  1.00 39.99 LIG 0.00  C 
ATOM     65  CD1 ILE B1539      -4.446  38.440   7.011  1.00 39.67 LIG 0.01  C 
ENDBRANCH 62 64
ENDBRANCH 60 62
ENDBRANCH 58 60
ENDBRANCH 54 56
ENDBRANCH 51 54
ENDBRANCH 48 50
ENDBRANCH 45 48
ENDBRANCH 43 44
BRANCH 43 66
ATOM     66  CB  TRP B1542      -2.327  42.750  -0.150  1.00 29.93 LIG 0.07  C 
BRANCH 66 67
ATOM     67  CG  TRP B1542      -1.330  42.323  -1.230  1.00 31.09 LIG-0.03  A 
ATOM     68  CD1 TRP B1542      -1.631  41.895  -2.498  1.00 35.00 LIG 0.10  A 
ATOM     69  NE1 TRP B1542      -0.472  41.628  -3.203  1.00 35.42 LIG-0.36  N 
ATOM     70 HE1  TRP B1542      -0.433  41.350  -4.016  1.00 35.42 LIG 0.17  HD
ATOM     71  CE2 TRP B1542       0.609  41.880  -2.394  1.00 34.23 LIG 0.04  A 
ATOM     72  CD2 TRP B1542       0.110  42.318  -1.140  1.00 31.85 LIG-0.00  A 
ATOM     73  CZ2 TRP B1542       1.982  41.761  -2.660  1.00 32.49 LIG 0.03  A 
ATOM     74  CE3 TRP B1542       1.024  42.640  -0.127  1.00 30.05 LIG 0.01  A 
ATOM     75  CZ3 TRP B1542       2.393  42.523  -0.391  1.00 29.28 LIG 0.00  A 
ATOM     76  CH2 TRP B1542       2.856  42.086  -1.655  1.00 32.34 LIG 0.00  A 
ENDBRANCH 66 67
ENDBRANCH 43 66
ENDBRANCH 1 43
TORSDOF 26
ENDMDL
MODEL 5
USER: ADFR SOLUTION from run 128
USER: SCORE 22.594691 LL:  -6.935 LR: -18.443 RR:   0.000 FEB: -10.687
USER: RMSD 6.825294
USER: SEED 127
USER: STATUS no improvement in best in 1 clusters for 5 generations
USER: GENES 28
USER: genes 0 Translation |==|  0.52196 0.45655 0.48685
USER: genes 1 Rotation |==|  0.33526 0.24174 0.68147 0.85104
USER: genes 2 Torsion [C]-N--CA-[CB] |==|  0.82047
USER: genes 3 Torsion [N]-CA--CB-[CG] |==|  0.80875
USER: genes 4 Torsion [CA]-CB--CG-[CD1] |==|  0.57050
USER: genes 5 Torsion [CE1]-CZ--OH-[HH] |==|  0.09842
USER: genes 6 Torsion [N]-CA--C-[N] |==|  0.78350
USER: genes 7 Torsion [C]-N--CA-[CB] |==|  0.34845
USER: genes 8 Torsion [N]-CA--C-[N] |==|  0.91597
USER: genes 9 Torsion [C]-N--CA-[CB] |==|  0.40891
USER: genes 10 Torsion [N]-CA--CB-[CG] |==|  0.17490
USER: genes 11 Torsion [CA]-CB--CG-[CD] |==|  0.54582
USER: genes 12 Torsion [CB]-CG--CD-[NE] |==|  0.14746
USER: genes 13 Torsion [CG]-CD--NE-[HE] |==|  0.98527
USER: genes 14 Torsion [N]-CA--C-[O] |==|  0.14236
USER: genes 15 Torsion [N]-CA--CB-[CG] |==|  0.59462
USER: genes 16 Torsion [CA]-CB--CG-[CD1] |==|  0.27984
USER: genes 17 Torsion [N]-C--CA-[N] |==|  0.11110
USER: genes 18 Torsion [C]-CA--N-[C] |==|  0.17966
USER: genes 19 Torsion [N]-C--CA-[N] |==|  0.04060
USER: genes 20 Torsion [C]-CA--N-[C] |==|  0.77926
USER: genes 21 Torsion [N]-C--CA-[N] |==|  0.86306
USER: genes 22 Torsion [C]-CA--N-[C] |==|  0.86527
USER: genes 23 Torsion [N]-C--CA-[N] |==|  0.36904
USER: genes 24 Torsion [C]-CA--CB-[CG1] |==|  0.40013
USER: genes 25 Torsion [CA]-CB--CG1-[CD1] |==|  0.55131
USER: genes 26 Torsion [C]-CA--CB-[CG] |==|  0.36895
USER: genes 27 Torsion [CA]-CB--CG-[CD1] |==|  0.23009
ROOT
ATOM      1  C   TRP B1542      -1.947  43.115   2.223  1.00 26.55 LIG 0.24  C 
ATOM      2 O    TRP B1542      -1.353  44.176   2.350  1.00 27.86 LIG-0.27  OA
ATOM      3  N   TYR B1543      -2.762  42.637   3.157  1.00 24.62 LIG-0.35  N 
ATOM      4 H    TYR B1543      -3.131  41.860   3.126  1.00 24.62 LIG 0.16  HD
ENDROOT
BRANCH 3 5
ATOM      5  CA  TYR B1543      -3.096  43.419   4.333  1.00 22.31 LIG 0.18  C 
BRANCH 5 6
ATOM      6  CB  TYR B1543      -1.823  43.634   5.156  1.00 23.67 LIG 0.07  C 
BRANCH 6 7
ATOM      7  CG  TYR B1543      -1.260  42.394   5.822  1.00 24.58 LIG-0.06  A 
ATOM      8  CD1 TYR B1543      -0.475  42.496   6.971  1.00 24.59 LIG 0.01  A 
ATOM      9  CE1 TYR B1543       0.105  41.375   7.544  1.00 26.50 LIG 0.04  A 
ATOM     10  CZ  TYR B1543      -0.098  40.140   6.959  1.00 24.60 LIG 0.07  A 
ATOM     11  CE2 TYR B1543      -0.885  40.019   5.816  1.00 24.06 LIG 0.04  A 
ATOM     12  CD2 TYR B1543      -1.456  41.135   5.267  1.00 22.62 LIG 0.01  A 
BRANCH 10 13
ATOM     13 OH   TYR B1543       0.509  39.037   7.487  1.00 26.51 LIG-0.36  OA
ATOM     14 HH   TYR B1543       0.541  39.110   8.324  1.00 26.51 LIG 0.22  HD
ENDBRANCH 10 13
ENDBRANCH 6 7
ENDBRANCH 5 6
BRANCH 5 15
ATOM     15  C   TYR B1543      -3.817  44.747   4.165  1.00 22.90 LIG 0.24  C 
ATOM     16  N   LEU B1544      -3.087  45.785   3.781  1.00 22.60 LIG-0.35  N 
ATOM     17 H    LEU B1544      -2.249  45.750   3.592  1.00 22.60 LIG 0.16  HD
ATOM     18 O    TYR B1543      -5.019  44.833   4.392  1.00 21.43 LIG-0.27  OA
BRANCH 16 19
ATOM     19  CA  LEU B1544      -3.694  47.100   3.654  1.00 22.81 LIG 0.18  C 
BRANCH 19 20
ATOM     20  C   LEU B1544      -3.775  47.554   2.200  1.00 21.53 LIG 0.24  C 
ATOM     21 O    LEU B1544      -4.683  48.298   1.813  1.00 22.00 LIG-0.27  OA
ATOM     22  N   ARG B1545      -2.823  47.103   1.390  1.00 20.14 LIG-0.35  N 
ATOM     23 H    ARG B1545      -2.179  46.584   1.627  1.00 20.14 LIG 0.16  HD
BRANCH 22 24
ATOM     24  CA  ARG B1545      -2.829  47.490  -0.011  1.00 18.95 LIG 0.16  C 
BRANCH 24 25
ATOM     25  CB  ARG B1545      -1.391  47.597  -0.535  1.00 20.51 LIG 0.04  C 
BRANCH 25 26
ATOM     26  CG  ARG B1545      -0.703  46.233  -0.467  1.00 20.78 LIG 0.02  C 
BRANCH 26 27
ATOM     27  CD  ARG B1545       0.817  46.318  -0.584  1.00 21.13 LIG 0.14  C 
BRANCH 27 28
ATOM     28  NE  ARG B1545       1.359  47.261   0.400  1.00 20.56 LIG-0.23  N 
ATOM     29 HE   ARG B1545       0.803  47.712   0.878  1.00 20.56 LIG 0.18  HD
ATOM     30  CZ  ARG B1545       2.658  47.460   0.596  1.00 23.27 LIG 0.67  C 
ATOM     31  NH2 ARG B1545       3.076  48.363   1.494  1.00 19.37 LIG-0.23  N 
ATOM     32  NH1 ARG B1545       3.538  46.775  -0.122  1.00 20.25 LIG-0.23  N 
ATOM     33 1HH2 ARG B1545       2.503  48.817   1.946  1.00 19.37 LIG 0.17  HD
ATOM     34 2HH2 ARG B1545       3.917  48.489   1.617  1.00 19.37 LIG 0.17  HD
ATOM     35 1HH1 ARG B1545       3.266  46.208  -0.709  1.00 20.25 LIG 0.17  HD
ATOM     36 2HH1 ARG B1545       4.380  46.897  -0.002  1.00 20.25 LIG 0.17  HD
ENDBRANCH 27 28
ENDBRANCH 26 27
ENDBRANCH 25 26
ENDBRANCH 24 25
BRANCH 24 37
ATOM     37  C   ARG B1545      -3.678  46.561  -0.868  1.00 20.11 LIG 0.22  C 
ATOM     38 O    ARG B1545      -4.849  46.342  -0.476  1.00 20.61 LIG-0.29  OA
ENDBRANCH 24 37
ENDBRANCH 22 24
ENDBRANCH 19 20
BRANCH 19 39
ATOM     39  CB  LEU B1544      -2.908  48.114   4.495  1.00 22.71 LIG 0.04  C 
BRANCH 39 40
ATOM     40  CG  LEU B1544      -3.762  49.224   5.127  1.00 23.46 LIG-0.02  C 
ATOM     41  CD1 LEU B1544      -4.005  48.873   6.598  1.00 24.99 LIG 0.01  C 
ATOM     42  CD2 LEU B1544      -3.081  50.581   5.008  1.00 22.67 LIG 0.01  C 
ENDBRANCH 39 40
ENDBRANCH 19 39
ENDBRANCH 16 19
ENDBRANCH 5 15
ENDBRANCH 3 5
BRANCH 1 43
ATOM     43  CA  TRP B1542      -1.747  42.263   0.975  1.00 29.62 LIG 0.18  C 
BRANCH 43 44
ATOM     44  N   TRP B1542      -2.981  41.631   0.511  1.00 31.24 LIG-0.35  N 
ATOM     45  C   ALA B1541      -3.990  42.365   0.074  1.00 34.20 LIG 0.24  C 
ATOM     46 O    ALA B1541      -3.925  43.591   0.002  1.00 33.88 LIG-0.27  OA
ATOM     47 H    TRP B1542      -2.984  40.771   0.549  1.00 31.24 LIG 0.16  HD
BRANCH 45 48
ATOM     48  CA  ALA B1541      -5.260  41.617  -0.357  1.00 35.59 LIG 0.17  C 
ATOM     49  CB  ALA B1541      -6.512  42.379   0.137  1.00 37.24 LIG 0.04  C 
BRANCH 48 50
ATOM     50  N   ALA B1541      -5.348  40.213   0.068  1.00 36.68 LIG-0.35  N 
ATOM     51  C   ALA B1540      -4.705  39.239  -0.570  1.00 36.41 LIG 0.24  C 
ATOM     52 O    ALA B1540      -3.952  39.450  -1.526  1.00 35.55 LIG-0.27  OA
ATOM     53 H    ALA B1541      -5.846  40.084   0.757  1.00 36.68 LIG 0.16  HD
BRANCH 51 54
ATOM     54  CA  ALA B1540      -4.920  37.821  -0.026  1.00 37.40 LIG 0.17  C 
ATOM     55  CB  ALA B1540      -6.329  37.321  -0.385  1.00 38.11 LIG 0.04  C 
BRANCH 54 56
ATOM     56  N   ALA B1540      -4.731  37.750   1.422  1.00 38.31 LIG-0.35  N 
ATOM     57 H    ALA B1540      -5.363  37.341   1.837  1.00 38.31 LIG 0.16  HD
ATOM     58  C   ILE B1539      -3.674  38.273   2.027  1.00 39.48 LIG 0.26  C 
ATOM     59 O    ILE B1539      -2.788  38.861   1.422  1.00 40.50 LIG-0.27  OA
BRANCH 58 60
ATOM     60  CA  ILE B1539      -3.625  38.133   3.550  1.00 40.24 LIG 0.40  C 
ATOM     61  N   ILE B1539      -2.287  37.655   4.029  1.00 42.50 LIG 0.61  N 
BRANCH 60 62
ATOM     62  CB  ILE B1539      -3.998  39.516   4.163  1.00 40.48 LIG 0.03  C 
ATOM     63  CG2 ILE B1539      -4.795  40.335   3.149  1.00 38.85 LIG 0.01  C 
BRANCH 62 64
ATOM     64  CG1 ILE B1539      -4.813  39.336   5.449  1.00 39.99 LIG 0.00  C 
ATOM     65  CD1 ILE B1539      -5.587  40.595   5.860  1.00 39.67 LIG 0.01  C 
ENDBRANCH 62 64
ENDBRANCH 60 62
ENDBRANCH 58 60
ENDBRANCH 54 56
ENDBRANCH 51 54
ENDBRANCH 48 50
ENDBRANCH 45 48
ENDBRANCH 43 44
BRANCH 43 66
ATOM     66  CB  TRP B1542      -1.186  43.157  -0.139  1.00 29.93 LIG 0.07  C 
BRANCH 66 67
ATOM     67  CG  TRP B1542       0.011  42.547  -0.871  1.00 31.09 LIG-0.03  A 
ATOM     68  CD1 TRP B1542      -0.035  41.640  -1.901  1.00 35.00 LIG 0.10  A 
ATOM     69  NE1 TRP B1542       1.242  41.341  -2.336  1.00 35.42 LIG-0.36  N 
ATOM     70 HE1  TRP B1542       1.440  40.797  -2.972  1.00 35.42 LIG 0.17  HD
ATOM     71  CE2 TRP B1542       2.145  42.054  -1.587  1.00 34.23 LIG 0.04  A 
ATOM     72  CD2 TRP B1542       1.409  42.824  -0.650  1.00 31.85 LIG-0.00  A 
ATOM     73  CZ2 TRP B1542       3.548  42.087  -1.655  1.00 32.49 LIG 0.03  A 
ATOM     74  CE3 TRP B1542       2.109  43.647   0.244  1.00 30.05 LIG 0.01  A 
ATOM     75  CZ3 TRP B1542       3.506  43.682   0.177  1.00 29.28 LIG 0.00  A 
ATOM     76  CH2 TRP B1542       4.208  42.902  -0.773  1.00 32.34 LIG 0.00  A 
ENDBRANCH 66 67
ENDBRANCH 43 66
ENDBRANCH 1 43
TORSDOF 26
ENDMDL
MODEL 6
USER: ADFR SOLUTION from run 165
USER: SCORE 21.913211 LL:  -6.111 LR: -18.416 RR:   0.000 FEB: -10.661
USER: RMSD 5.826499
USER: SEED 164
USER: STATUS no improvement in best in 8 clusters for 5 generations
USER: GENES 28
USER: genes 0 Translation |==|  0.41056 0.42183 0.56866
USER: genes 1 Rotation |==|  0.19061 0.57538 0.76328 0.78157
USER: genes 2 Torsion [C]-N--CA-[CB] |==|  0.68060
USER: genes 3 Torsion [N]-CA--CB-[CG] |==|  0.05634
USER: genes 4 Torsion [CA]-CB--CG-[CD1] |==|  0.63277
USER: genes 5 Torsion [CE1]-CZ--OH-[HH] |==|  0.58556
USER: genes 6 Torsion [N]-CA--C-[N] |==|  0.66710
USER: genes 7 Torsion [C]-N--CA-[CB] |==|  0.26750
USER: genes 8 Torsion [N]-CA--C-[N] |==|  0.46813
USER: genes 9 Torsion [C]-N--CA-[CB] |==|  0.81645
USER: genes 10 Torsion [N]-CA--CB-[CG] |==|  0.34982
USER: genes 11 Torsion [CA]-CB--CG-[CD] |==|  0.65785
USER: genes 12 Torsion [CB]-CG--CD-[NE] |==|  0.95205
USER: genes 13 Torsion [CG]-CD--NE-[HE] |==|  0.13857
USER: genes 14 Torsion [N]-CA--C-[O] |==|  0.43523
USER: genes 15 Torsion [N]-CA--CB-[CG] |==|  0.68062
USER: genes 16 Torsion [CA]-CB--CG-[CD1] |==|  0.90018
USER: genes 17 Torsion [N]-C--CA-[N] |==|  0.21854
USER: genes 18 Torsion [C]-CA--N-[C] |==|  0.78332
USER: genes 19 Torsion [N]-C--CA-[N] |==|  0.13427
USER: genes 20 Torsion [C]-CA--N-[C] |==|  0.79423
USER: genes 21 Torsion [N]-C--CA-[N] |==|  0.94453
USER: genes 22 Torsion [C]-CA--N-[C] |==|  0.78893
USER: genes 23 Torsion [N]-C--CA-[N] |==|  0.38111
USER: genes 24 Torsion [C]-CA--CB-[CG1] |==|  0.84681
USER: genes 25 Torsion [CA]-CB--CG1-[CD1] |==|  0.31761
USER: genes 26 Torsion [C]-CA--CB-[CG] |==|  0.24164
USER: genes 27 Torsion [CA]-CB--CG-[CD1] |==|  0.62224
ROOT
ATOM      1  C   TRP B1542      -4.538  42.438   3.757  1.00 26.55 LIG 0.24  C 
ATOM      2 O    TRP B1542      -4.157  42.384   2.596  1.00 27.86 LIG-0.27  OA
ATOM      3  N   TYR B1543      -4.360  43.510   4.518  1.00 24.62 LIG-0.35  N 
ATOM      4 H    TYR B1543      -4.549  43.546   5.357  1.00 24.62 LIG 0.16  HD
ENDROOT
BRANCH 3 5
ATOM      5  CA  TYR B1543      -3.815  44.738   3.968  1.00 22.31 LIG 0.18  C 
BRANCH 5 6
ATOM      6  CB  TYR B1543      -2.458  45.010   4.624  1.00 23.67 LIG 0.07  C 
BRANCH 6 7
ATOM      7  CG  TYR B1543      -1.789  43.808   5.262  1.00 24.58 LIG-0.06  A 
ATOM      8  CD1 TYR B1543      -1.261  43.887   6.550  1.00 24.59 LIG 0.01  A 
ATOM      9  CE1 TYR B1543      -0.583  42.816   7.113  1.00 26.50 LIG 0.04  A 
ATOM     10  CZ  TYR B1543      -0.427  41.658   6.377  1.00 24.60 LIG 0.07  A 
ATOM     11  CE2 TYR B1543      -0.954  41.560   5.092  1.00 24.06 LIG 0.04  A 
ATOM     12  CD2 TYR B1543      -1.627  42.623   4.554  1.00 22.62 LIG 0.01  A 
BRANCH 10 13
ATOM     13 OH   TYR B1543       0.282  40.617   6.904  1.00 26.51 LIG-0.36  OA
ATOM     14 HH   TYR B1543       0.656  40.190   6.284  1.00 26.51 LIG 0.22  HD
ENDBRANCH 10 13
ENDBRANCH 6 7
ENDBRANCH 5 6
BRANCH 5 15
ATOM     15  C   TYR B1543      -3.683  44.886   2.461  1.00 22.90 LIG 0.24  C 
ATOM     16  N   LEU B1544      -2.464  45.084   1.979  1.00 22.60 LIG-0.35  N 
ATOM     17 H    LEU B1544      -1.748  45.101   2.454  1.00 22.60 LIG 0.16  HD
ATOM     18 O    TYR B1543      -4.676  44.834   1.744  1.00 21.43 LIG-0.27  OA
BRANCH 16 19
ATOM     19  CA  LEU B1544      -2.265  45.292   0.554  1.00 22.81 LIG 0.18  C 
BRANCH 19 20
ATOM     20  C   LEU B1544      -1.015  44.584   0.042  1.00 21.53 LIG 0.24  C 
ATOM     21 O    LEU B1544      -0.186  44.107   0.825  1.00 22.00 LIG-0.27  OA
ATOM     22  N   ARG B1545      -0.877  44.517  -1.278  1.00 20.14 LIG-0.35  N 
ATOM     23 H    ARG B1545      -1.433  44.839  -1.849  1.00 20.14 LIG 0.16  HD
BRANCH 22 24
ATOM     24  CA  ARG B1545       0.288  43.858  -1.845  1.00 18.95 LIG 0.16  C 
BRANCH 24 25
ATOM     25  CB  ARG B1545       1.559  44.647  -1.503  1.00 20.51 LIG 0.04  C 
BRANCH 25 26
ATOM     26  CG  ARG B1545       2.582  43.732  -0.829  1.00 20.78 LIG 0.02  C 
BRANCH 26 27
ATOM     27  CD  ARG B1545       3.024  44.230   0.544  1.00 21.13 LIG 0.14  C 
BRANCH 27 28
ATOM     28  NE  ARG B1545       2.684  45.646   0.715  1.00 20.56 LIG-0.23  N 
ATOM     29 HE   ARG B1545       1.881  45.895   0.533  1.00 20.56 LIG 0.18  HD
ATOM     30  CZ  ARG B1545       3.545  46.568   1.134  1.00 23.27 LIG 0.67  C 
ATOM     31  NH2 ARG B1545       3.167  47.849   1.235  1.00 19.37 LIG-0.23  N 
ATOM     32  NH1 ARG B1545       4.789  46.212   1.428  1.00 20.25 LIG-0.23  N 
ATOM     33 1HH2 ARG B1545       2.365  48.078   1.029  1.00 19.37 LIG 0.17  HD
ATOM     34 2HH2 ARG B1545       3.727  48.442   1.507  1.00 19.37 LIG 0.17  HD
ATOM     35 1HH1 ARG B1545       5.032  45.391   1.346  1.00 20.25 LIG 0.17  HD
ATOM     36 2HH1 ARG B1545       5.352  46.802   1.700  1.00 20.25 LIG 0.17  HD
ENDBRANCH 27 28
ENDBRANCH 26 27
ENDBRANCH 25 26
ENDBRANCH 24 25
BRANCH 24 37
ATOM     37  C   ARG B1545       0.396  42.398  -1.424  1.00 20.11 LIG 0.22  C 
ATOM     38 O    ARG B1545       1.058  41.641  -2.173  1.00 20.61 LIG-0.29  OA
ENDBRANCH 24 37
ENDBRANCH 22 24
ENDBRANCH 19 20
BRANCH 19 39
ATOM     39  CB  LEU B1544      -2.195  46.795   0.257  1.00 22.71 LIG 0.04  C 
BRANCH 39 40
ATOM     40  CG  LEU B1544      -3.343  47.333  -0.612  1.00 23.46 LIG-0.02  C 
ATOM     41  CD1 LEU B1544      -3.715  46.264  -1.644  1.00 24.99 LIG 0.01  C 
ATOM     42  CD2 LEU B1544      -4.554  47.697   0.238  1.00 22.67 LIG 0.01  C 
ENDBRANCH 39 40
ENDBRANCH 19 39
ENDBRANCH 16 19
ENDBRANCH 5 15
ENDBRANCH 3 5
BRANCH 1 43
ATOM     43  CA  TRP B1542      -5.218  41.236   4.401  1.00 29.62 LIG 0.18  C 
BRANCH 43 44
ATOM     44  N   TRP B1542      -6.670  41.382   4.492  1.00 31.24 LIG-0.35  N 
ATOM     45  C   ALA B1541      -7.213  42.136   5.433  1.00 34.20 LIG 0.24  C 
ATOM     46 O    ALA B1541      -6.532  42.770   6.237  1.00 33.88 LIG-0.27  OA
ATOM     47 H    TRP B1542      -7.116  40.948   3.898  1.00 31.24 LIG 0.16  HD
BRANCH 45 48
ATOM     48  CA  ALA B1541      -8.747  42.200   5.475  1.00 35.59 LIG 0.17  C 
ATOM     49  CB  ALA B1541      -9.206  42.968   6.736  1.00 37.24 LIG 0.04  C 
BRANCH 48 50
ATOM     50  N   ALA B1541      -9.441  40.906   5.415  1.00 36.68 LIG-0.35  N 
ATOM     51  C   ALA B1540      -9.530  40.201   4.291  1.00 36.41 LIG 0.24  C 
ATOM     52 O    ALA B1540      -8.995  40.557   3.236  1.00 35.55 LIG-0.27  OA
ATOM     53 H    ALA B1541      -9.777  40.653   6.165  1.00 36.68 LIG 0.16  HD
BRANCH 51 54
ATOM     54  CA  ALA B1540     -10.312  38.886   4.381  1.00 37.40 LIG 0.17  C 
ATOM     55  CB  ALA B1540     -11.715  39.058   3.779  1.00 38.11 LIG 0.04  C 
BRANCH 54 56
ATOM     56  N   ALA B1540     -10.427  38.405   5.757  1.00 38.31 LIG-0.35  N 
ATOM     57 H    ALA B1540     -11.202  38.530   6.108  1.00 38.31 LIG 0.16  HD
ATOM     58  C   ILE B1539      -9.419  37.828   6.396  1.00 39.48 LIG 0.26  C 
ATOM     59 O    ILE B1539      -8.319  37.666   5.886  1.00 40.50 LIG-0.27  OA
BRANCH 58 60
ATOM     60  CA  ILE B1539      -9.688  37.392   7.838  1.00 40.24 LIG 0.40  C 
ATOM     61  N   ILE B1539      -9.120  36.036   8.131  1.00 42.50 LIG 0.61  N 
BRANCH 60 62
ATOM     62  CB  ILE B1539      -9.094  38.483   8.778  1.00 40.48 LIG 0.03  C 
ATOM     63  CG2 ILE B1539      -9.264  38.060  10.236  1.00 38.85 LIG 0.01  C 
BRANCH 62 64
ATOM     64  CG1 ILE B1539      -7.610  38.714   8.469  1.00 39.99 LIG 0.00  C 
ATOM     65  CD1 ILE B1539      -7.315  40.114   7.914  1.00 39.67 LIG 0.01  C 
ENDBRANCH 62 64
ENDBRANCH 60 62
ENDBRANCH 58 60
ENDBRANCH 54 56
ENDBRANCH 51 54
ENDBRANCH 48 50
ENDBRANCH 45 48
ENDBRANCH 43 44
BRANCH 43 66
ATOM     66  CB  TRP B1542      -4.885  39.986   3.574  1.00 29.93 LIG 0.07  C 
BRANCH 66 67
ATOM     67  CG  TRP B1542      -3.577  39.308   3.985  1.00 31.09 LIG-0.03  A 
ATOM     68  CD1 TRP B1542      -2.604  38.829   3.144  1.00 35.00 LIG 0.10  A 
ATOM     69  NE1 TRP B1542      -1.550  38.313   3.874  1.00 35.42 LIG-0.36  N 
ATOM     70 HE1  TRP B1542      -0.836  37.964   3.544  1.00 35.42 LIG 0.17  HD
ATOM     71  CE2 TRP B1542      -1.826  38.448   5.211  1.00 34.23 LIG 0.04  A 
ATOM     72  CD2 TRP B1542      -3.097  39.069   5.324  1.00 31.85 LIG-0.00  A 
ATOM     73  CZ2 TRP B1542      -1.064  38.079   6.332  1.00 32.49 LIG 0.03  A 
ATOM     74  CE3 TRP B1542      -3.613  39.319   6.603  1.00 30.05 LIG 0.01  A 
ATOM     75  CZ3 TRP B1542      -2.856  38.952   7.721  1.00 29.28 LIG 0.00  A 
ATOM     76  CH2 TRP B1542      -1.590  38.337   7.572  1.00 32.34 LIG 0.00  A 
ENDBRANCH 66 67
ENDBRANCH 43 66
ENDBRANCH 1 43
TORSDOF 26
ENDMDL
MODEL 7
USER: ADFR SOLUTION from run 118
USER: SCORE 22.747468 LL:  -5.856 LR: -18.307 RR:   0.000 FEB: -10.551
USER: RMSD 8.246347
USER: SEED 117
USER: STATUS no improvement in best in 13 clusters for 5 generations
USER: GENES 28
USER: genes 0 Translation |==|  0.49597 0.49124 0.46488
USER: genes 1 Rotation |==|  0.37180 0.74650 0.84441 0.73278
USER: genes 2 Torsion [C]-N--CA-[CB] |==|  0.79951
USER: genes 3 Torsion [N]-CA--CB-[CG] |==|  0.80220
USER: genes 4 Torsion [CA]-CB--CG-[CD1] |==|  0.30530
USER: genes 5 Torsion [CE1]-CZ--OH-[HH] |==|  0.56873
USER: genes 6 Torsion [N]-CA--C-[N] |==|  0.16590
USER: genes 7 Torsion [C]-N--CA-[CB] |==|  0.20646
USER: genes 8 Torsion [N]-CA--C-[N] |==|  0.03627
USER: genes 9 Torsion [C]-N--CA-[CB] |==|  0.32508
USER: genes 10 Torsion [N]-CA--CB-[CG] |==|  0.74920
USER: genes 11 Torsion [CA]-CB--CG-[CD] |==|  0.80516
USER: genes 12 Torsion [CB]-CG--CD-[NE] |==|  0.73765
USER: genes 13 Torsion [CG]-CD--NE-[HE] |==|  0.17805
USER: genes 14 Torsion [N]-CA--C-[O] |==|  0.18832
USER: genes 15 Torsion [N]-CA--CB-[CG] |==|  0.11289
USER: genes 16 Torsion [CA]-CB--CG-[CD1] |==|  0.25005
USER: genes 17 Torsion [N]-C--CA-[N] |==|  0.39955
USER: genes 18 Torsion [C]-CA--N-[C] |==|  0.65546
USER: genes 19 Torsion [N]-C--CA-[N] |==|  0.37844
USER: genes 20 Torsion [C]-CA--N-[C] |==|  0.81892
USER: genes 21 Torsion [N]-C--CA-[N] |==|  0.14898
USER: genes 22 Torsion [C]-CA--N-[C] |==|  0.18889
USER: genes 23 Torsion [N]-C--CA-[N] |==|  0.43733
USER: genes 24 Torsion [C]-CA--CB-[CG1] |==|  0.61554
USER: genes 25 Torsion [CA]-CB--CG1-[CD1] |==|  0.28982
USER: genes 26 Torsion [C]-CA--CB-[CG] |==|  0.48310
USER: genes 27 Torsion [CA]-CB--CG-[CD1] |==|  0.38192
ROOT
ATOM      1  C   TRP B1542      -2.552  43.791   1.811  1.00 26.55 LIG 0.24  C 
ATOM      2 O    TRP B1542      -3.379  43.772   0.911  1.00 27.86 LIG-0.27  OA
ATOM      3  N   TYR B1543      -1.599  44.713   1.888  1.00 24.62 LIG-0.35  N 
ATOM      4 H    TYR B1543      -0.962  44.704   2.465  1.00 24.62 LIG 0.16  HD
ENDROOT
BRANCH 3 5
ATOM      5  CA  TYR B1543      -1.569  45.837   0.970  1.00 22.31 LIG 0.18  C 
BRANCH 5 6
ATOM      6  CB  TYR B1543      -1.145  45.331  -0.411  1.00 23.67 LIG 0.07  C 
BRANCH 6 7
ATOM      7  CG  TYR B1543       0.308  44.919  -0.538  1.00 24.58 LIG-0.06  A 
ATOM      8  CD1 TYR B1543       0.658  43.577  -0.688  1.00 24.59 LIG 0.01  A 
ATOM      9  CE1 TYR B1543       1.988  43.184  -0.730  1.00 26.50 LIG 0.04  A 
ATOM     10  CZ  TYR B1543       2.976  44.143  -0.617  1.00 24.60 LIG 0.07  A 
ATOM     11  CE2 TYR B1543       2.644  45.488  -0.475  1.00 24.06 LIG 0.04  A 
ATOM     12  CD2 TYR B1543       1.327  45.859  -0.442  1.00 22.62 LIG 0.01  A 
BRANCH 10 13
ATOM     13 OH   TYR B1543       4.286  43.760  -0.609  1.00 26.51 LIG-0.36  OA
ATOM     14 HH   TYR B1543       4.745  44.341  -0.212  1.00 26.51 LIG 0.22  HD
ENDBRANCH 10 13
ENDBRANCH 6 7
ENDBRANCH 5 6
BRANCH 5 15
ATOM     15  C   TYR B1543      -2.800  46.718   0.828  1.00 22.90 LIG 0.24  C 
ATOM     16  N   LEU B1544      -3.229  47.333   1.921  1.00 22.60 LIG-0.35  N 
ATOM     17 H    LEU B1544      -2.844  47.293   2.688  1.00 22.60 LIG 0.16  HD
ATOM     18 O    TYR B1543      -3.361  46.829  -0.256  1.00 21.43 LIG-0.27  OA
BRANCH 16 19
ATOM     19  CA  LEU B1544      -4.434  48.147   1.877  1.00 22.81 LIG 0.18  C 
BRANCH 19 20
ATOM     20  C   LEU B1544      -4.527  49.093   3.069  1.00 21.53 LIG 0.24  C 
ATOM     21 O    LEU B1544      -5.579  49.688   3.332  1.00 22.00 LIG-0.27  OA
ATOM     22  N   ARG B1545      -3.422  49.236   3.794  1.00 20.14 LIG-0.35  N 
ATOM     23 H    ARG B1545      -2.675  48.840   3.638  1.00 20.14 LIG 0.16  HD
BRANCH 22 24
ATOM     24  CA  ARG B1545      -3.430  50.121   4.947  1.00 18.95 LIG 0.16  C 
BRANCH 24 25
ATOM     25  CB  ARG B1545      -3.168  49.319   6.229  1.00 20.51 LIG 0.04  C 
BRANCH 25 26
ATOM     26  CG  ARG B1545      -4.489  48.837   6.827  1.00 20.78 LIG 0.02  C 
BRANCH 26 27
ATOM     27  CD  ARG B1545      -5.330  49.965   7.418  1.00 21.13 LIG 0.14  C 
BRANCH 27 28
ATOM     28  NE  ARG B1545      -5.078  50.100   8.856  1.00 20.56 LIG-0.23  N 
ATOM     29 HE   ARG B1545      -4.288  50.330   9.109  1.00 20.56 LIG 0.18  HD
ATOM     30  CZ  ARG B1545      -5.997  49.888   9.792  1.00 23.27 LIG 0.67  C 
ATOM     31  NH2 ARG B1545      -5.680  50.002  11.089  1.00 19.37 LIG-0.23  N 
ATOM     32  NH1 ARG B1545      -7.225  49.539   9.432  1.00 20.25 LIG-0.23  N 
ATOM     33 1HH2 ARG B1545      -4.880  50.213  11.319  1.00 19.37 LIG 0.17  HD
ATOM     34 2HH2 ARG B1545      -6.278  49.865  11.691  1.00 19.37 LIG 0.17  HD
ATOM     35 1HH1 ARG B1545      -7.420  49.451   8.599  1.00 20.25 LIG 0.17  HD
ATOM     36 2HH1 ARG B1545      -7.826  49.400  10.031  1.00 20.25 LIG 0.17  HD
ENDBRANCH 27 28
ENDBRANCH 26 27
ENDBRANCH 25 26
ENDBRANCH 24 25
BRANCH 24 37
ATOM     37  C   ARG B1545      -2.457  51.284   4.796  1.00 20.11 LIG 0.22  C 
ATOM     38 O    ARG B1545      -2.729  52.138   3.919  1.00 20.61 LIG-0.29  OA
ENDBRANCH 24 37
ENDBRANCH 22 24
ENDBRANCH 19 20
BRANCH 19 39
ATOM     39  CB  LEU B1544      -5.668  47.238   1.809  1.00 22.71 LIG 0.04  C 
BRANCH 39 40
ATOM     40  CG  LEU B1544      -5.598  45.992   2.706  1.00 23.46 LIG-0.02  C 
ATOM     41  CD1 LEU B1544      -6.187  46.345   4.076  1.00 24.99 LIG 0.01  C 
ATOM     42  CD2 LEU B1544      -6.353  44.823   2.087  1.00 22.67 LIG 0.01  C 
ENDBRANCH 39 40
ENDBRANCH 19 39
ENDBRANCH 16 19
ENDBRANCH 5 15
ENDBRANCH 3 5
BRANCH 1 43
ATOM     43  CA  TRP B1542      -2.561  42.713   2.888  1.00 29.62 LIG 0.18  C 
BRANCH 43 44
ATOM     44  N   TRP B1542      -3.909  42.306   3.279  1.00 31.24 LIG-0.35  N 
ATOM     45  C   ALA B1541      -4.292  42.371   4.543  1.00 34.20 LIG 0.24  C 
ATOM     46 O    ALA B1541      -3.558  42.806   5.427  1.00 33.88 LIG-0.27  OA
ATOM     47 H    TRP B1542      -4.407  42.033   2.633  1.00 31.24 LIG 0.16  HD
BRANCH 45 48
ATOM     48  CA  ALA B1541      -5.714  41.887   4.865  1.00 35.59 LIG 0.17  C 
ATOM     49  CB  ALA B1541      -6.667  43.099   4.986  1.00 37.24 LIG 0.04  C 
BRANCH 48 50
ATOM     50  N   ALA B1541      -5.845  41.046   6.063  1.00 36.68 LIG-0.35  N 
ATOM     51  C   ALA B1540      -5.288  39.841   6.146  1.00 36.41 LIG 0.24  C 
ATOM     52 O    ALA B1540      -4.583  39.368   5.249  1.00 35.55 LIG-0.27  OA
ATOM     53 H    ALA B1541      -6.308  41.402   6.694  1.00 36.68 LIG 0.16  HD
BRANCH 51 54
ATOM     54  CA  ALA B1540      -5.541  39.071   7.448  1.00 37.40 LIG 0.17  C 
ATOM     55  CB  ALA B1540      -4.924  37.666   7.364  1.00 38.11 LIG 0.04  C 
BRANCH 54 56
ATOM     56  N   ALA B1540      -6.965  38.963   7.759  1.00 38.31 LIG-0.35  N 
ATOM     57 H    ALA B1540      -7.207  39.410   8.453  1.00 38.31 LIG 0.16  HD
ATOM     58  C   ILE B1539      -7.799  38.237   7.028  1.00 39.48 LIG 0.26  C 
ATOM     59 O    ILE B1539      -7.437  37.598   6.049  1.00 40.50 LIG-0.27  OA
BRANCH 58 60
ATOM     60  CA  ILE B1539      -9.258  38.208   7.488  1.00 40.24 LIG 0.40  C 
ATOM     61  N   ILE B1539     -10.194  37.851   6.373  1.00 42.50 LIG 0.61  N 
BRANCH 60 62
ATOM     62  CB  ILE B1539      -9.358  37.200   8.672  1.00 40.48 LIG 0.03  C 
ATOM     63  CG2 ILE B1539      -9.367  37.957   9.999  1.00 38.85 LIG 0.01  C 
BRANCH 62 64
ATOM     64  CG1 ILE B1539     -10.625  36.345   8.548  1.00 39.99 LIG 0.00  C 
ATOM     65  CD1 ILE B1539     -10.349  34.915   8.066  1.00 39.67 LIG 0.01  C 
ENDBRANCH 62 64
ENDBRANCH 60 62
ENDBRANCH 58 60
ENDBRANCH 54 56
ENDBRANCH 51 54
ENDBRANCH 48 50
ENDBRANCH 45 48
ENDBRANCH 43 44
BRANCH 43 66
ATOM     66  CB  TRP B1542      -1.796  41.491   2.360  1.00 29.93 LIG 0.07  C 
BRANCH 66 67
ATOM     67  CG  TRP B1542      -1.604  40.388   3.403  1.00 31.09 LIG-0.03  A 
ATOM     68  CD1 TRP B1542      -1.748  39.038   3.202  1.00 35.00 LIG 0.10  A 
ATOM     69  NE1 TRP B1542      -1.461  38.346   4.364  1.00 35.42 LIG-0.36  N 
ATOM     70 HE1  TRP B1542      -1.488  37.491   4.456  1.00 35.42 LIG 0.17  HD
ATOM     71  CE2 TRP B1542      -1.127  39.244   5.346  1.00 34.23 LIG 0.04  A 
ATOM     72  CD2 TRP B1542      -1.208  40.544   4.781  1.00 31.85 LIG-0.00  A 
ATOM     73  CZ2 TRP B1542      -0.758  39.025   6.683  1.00 32.49 LIG 0.03  A 
ATOM     74  CE3 TRP B1542      -0.912  41.650   5.590  1.00 30.05 LIG 0.01  A 
ATOM     75  CZ3 TRP B1542      -0.544  41.433   6.922  1.00 29.28 LIG 0.00  A 
ATOM     76  CH2 TRP B1542      -0.471  40.123   7.452  1.00 32.34 LIG 0.00  A 
ENDBRANCH 66 67
ENDBRANCH 43 66
ENDBRANCH 1 43
TORSDOF 26
ENDMDL
MODEL 8
USER: ADFR SOLUTION from run 184
USER: SCORE 22.889677 LL:  -7.098 LR: -18.289 RR:   0.000 FEB: -10.533
USER: RMSD 6.293430
USER: SEED 183
USER: STATUS no improvement in best in 3 clusters for 5 generations
USER: GENES 28
USER: genes 0 Translation |==|  0.43070 0.35217 0.61584
USER: genes 1 Rotation |==|  0.29519 0.83923 0.38751 0.78341
USER: genes 2 Torsion [C]-N--CA-[CB] |==|  0.78106
USER: genes 3 Torsion [N]-CA--CB-[CG] |==|  0.81542
USER: genes 4 Torsion [CA]-CB--CG-[CD1] |==|  0.32063
USER: genes 5 Torsion [CE1]-CZ--OH-[HH] |==|  0.87925
USER: genes 6 Torsion [N]-CA--C-[N] |==|  0.11600
USER: genes 7 Torsion [C]-N--CA-[CB] |==|  0.22268
USER: genes 8 Torsion [N]-CA--C-[N] |==|  0.39625
USER: genes 9 Torsion [C]-N--CA-[CB] |==|  0.24227
USER: genes 10 Torsion [N]-CA--CB-[CG] |==|  0.70560
USER: genes 11 Torsion [CA]-CB--CG-[CD] |==|  0.66959
USER: genes 12 Torsion [CB]-CG--CD-[NE] |==|  0.44308
USER: genes 13 Torsion [CG]-CD--NE-[HE] |==|  0.83179
USER: genes 14 Torsion [N]-CA--C-[O] |==|  0.81048
USER: genes 15 Torsion [N]-CA--CB-[CG] |==|  0.17828
USER: genes 16 Torsion [CA]-CB--CG-[CD1] |==|  0.29094
USER: genes 17 Torsion [N]-C--CA-[N] |==|  0.22874
USER: genes 18 Torsion [C]-CA--N-[C] |==|  0.78191
USER: genes 19 Torsion [N]-C--CA-[N] |==|  0.91667
USER: genes 20 Torsion [C]-CA--N-[C] |==|  0.70285
USER: genes 21 Torsion [N]-C--CA-[N] |==|  0.03870
USER: genes 22 Torsion [C]-CA--N-[C] |==|  0.79205
USER: genes 23 Torsion [N]-C--CA-[N] |==|  0.44223
USER: genes 24 Torsion [C]-CA--CB-[CG1] |==|  0.22272
USER: genes 25 Torsion [CA]-CB--CG1-[CD1] |==|  0.71391
USER: genes 26 Torsion [C]-CA--CB-[CG] |==|  0.23435
USER: genes 27 Torsion [CA]-CB--CG-[CD1] |==|  0.28033
ROOT
ATOM      1  C   TRP B1542      -4.069  41.079   4.642  1.00 26.55 LIG 0.24  C 
ATOM      2 O    TRP B1542      -4.625  40.323   3.857  1.00 27.86 LIG-0.27  OA
ATOM      3  N   TYR B1543      -2.868  40.828   5.147  1.00 24.62 LIG-0.35  N 
ATOM      4 H    TYR B1543      -2.490  41.303   5.757  1.00 24.62 LIG 0.16  HD
ENDROOT
BRANCH 3 5
ATOM      5  CA  TYR B1543      -2.084  39.695   4.690  1.00 22.31 LIG 0.18  C 
BRANCH 5 6
ATOM      6  CB  TYR B1543      -2.618  38.427   5.361  1.00 23.67 LIG 0.07  C 
BRANCH 6 7
ATOM      7  CG  TYR B1543      -2.424  38.351   6.863  1.00 24.58 LIG-0.06  A 
ATOM      8  CD1 TYR B1543      -3.520  38.337   7.724  1.00 24.59 LIG 0.01  A 
ATOM      9  CE1 TYR B1543      -3.351  38.342   9.100  1.00 26.50 LIG 0.04  A 
ATOM     10  CZ  TYR B1543      -2.071  38.367   9.620  1.00 24.60 LIG 0.07  A 
ATOM     11  CE2 TYR B1543      -0.964  38.373   8.774  1.00 24.06 LIG 0.04  A 
ATOM     12  CD2 TYR B1543      -1.149  38.361   7.418  1.00 22.62 LIG 0.01  A 
BRANCH 10 13
ATOM     13 OH   TYR B1543      -1.895  38.422  10.972  1.00 26.51 LIG-0.36  OA
ATOM     14 HH   TYR B1543      -2.431  38.979  11.302  1.00 26.51 LIG 0.22  HD
ENDBRANCH 10 13
ENDBRANCH 6 7
ENDBRANCH 5 6
BRANCH 5 15
ATOM     15  C   TYR B1543      -1.930  39.448   3.198  1.00 22.90 LIG 0.24  C 
ATOM     16  N   LEU B1544      -1.718  40.509   2.431  1.00 22.60 LIG-0.35  N 
ATOM     17 H    LEU B1544      -1.632  41.313   2.722  1.00 22.60 LIG 0.16  HD
ATOM     18 O    TYR B1543      -2.012  38.312   2.745  1.00 21.43 LIG-0.27  OA
BRANCH 16 19
ATOM     19  CA  LEU B1544      -1.617  40.360   0.988  1.00 22.81 LIG 0.18  C 
BRANCH 19 20
ATOM     20  C   LEU B1544      -0.836  41.504   0.350  1.00 21.53 LIG 0.24  C 
ATOM     21 O    LEU B1544      -0.946  42.663   0.766  1.00 22.00 LIG-0.27  OA
ATOM     22  N   ARG B1545      -0.046  41.180  -0.669  1.00 20.14 LIG-0.35  N 
ATOM     23 H    ARG B1545       0.051  40.385  -0.984  1.00 20.14 LIG 0.16  HD
BRANCH 22 24
ATOM     24  CA  ARG B1545       0.731  42.213  -1.332  1.00 18.95 LIG 0.16  C 
BRANCH 24 25
ATOM     25  CB  ARG B1545       2.073  42.406  -0.613  1.00 20.51 LIG 0.04  C 
BRANCH 25 26
ATOM     26  CG  ARG B1545       2.059  43.708   0.188  1.00 20.78 LIG 0.02  C 
BRANCH 26 27
ATOM     27  CD  ARG B1545       3.122  44.705  -0.263  1.00 21.13 LIG 0.14  C 
BRANCH 27 28
ATOM     28  NE  ARG B1545       2.774  46.063   0.167  1.00 20.56 LIG-0.23  N 
ATOM     29 HE   ARG B1545       2.038  46.403  -0.120  1.00 20.56 LIG 0.18  HD
ATOM     30  CZ  ARG B1545       3.529  46.800   0.975  1.00 23.27 LIG 0.67  C 
ATOM     31  NH2 ARG B1545       3.158  48.046   1.299  1.00 19.37 LIG-0.23  N 
ATOM     32  NH1 ARG B1545       4.667  46.299   1.440  1.00 20.25 LIG-0.23  N 
ATOM     33 1HH2 ARG B1545       2.428  48.372   0.983  1.00 19.37 LIG 0.17  HD
ATOM     34 2HH2 ARG B1545       3.649  48.518   1.822  1.00 19.37 LIG 0.17  HD
ATOM     35 1HH1 ARG B1545       4.910  45.505   1.217  1.00 20.25 LIG 0.17  HD
ATOM     36 2HH1 ARG B1545       5.162  46.769   1.963  1.00 20.25 LIG 0.17  HD
ENDBRANCH 27 28
ENDBRANCH 26 27
ENDBRANCH 25 26
ENDBRANCH 24 25
BRANCH 24 37
ATOM     37  C   ARG B1545       0.918  41.939  -2.819  1.00 20.11 LIG 0.22  C 
ATOM     38 O    ARG B1545       1.641  40.962  -3.127  1.00 20.61 LIG-0.29  OA
ENDBRANCH 24 37
ENDBRANCH 22 24
ENDBRANCH 19 20
BRANCH 19 39
ATOM     39  CB  LEU B1544      -3.022  40.259   0.381  1.00 22.71 LIG 0.04  C 
BRANCH 39 40
ATOM     40  CG  LEU B1544      -3.888  41.517   0.550  1.00 23.46 LIG-0.02  C 
ATOM     41  CD1 LEU B1544      -3.948  42.251  -0.793  1.00 24.99 LIG 0.01  C 
ATOM     42  CD2 LEU B1544      -5.290  41.163   1.028  1.00 22.67 LIG 0.01  C 
ENDBRANCH 39 40
ENDBRANCH 19 39
ENDBRANCH 16 19
ENDBRANCH 5 15
ENDBRANCH 3 5
BRANCH 1 43
ATOM     43  CA  TRP B1542      -4.764  42.354   5.107  1.00 29.62 LIG 0.18  C 
BRANCH 43 44
ATOM     44  N   TRP B1542      -4.321  43.543   4.382  1.00 31.24 LIG-0.35  N 
ATOM     45  C   ALA B1541      -3.172  44.125   4.682  1.00 34.20 LIG 0.24  C 
ATOM     46 O    ALA B1541      -2.417  43.677   5.543  1.00 33.88 LIG-0.27  OA
ATOM     47 H    TRP B1542      -4.858  43.815   3.767  1.00 31.24 LIG 0.16  HD
BRANCH 45 48
ATOM     48  CA  ALA B1541      -2.806  45.391   3.894  1.00 35.59 LIG 0.17  C 
ATOM     49  CB  ALA B1541      -3.260  46.646   4.676  1.00 37.24 LIG 0.04  C 
BRANCH 48 50
ATOM     50  N   ALA B1541      -3.326  45.461   2.521  1.00 36.68 LIG-0.35  N 
ATOM     51  C   ALA B1540      -2.542  45.305   1.458  1.00 36.41 LIG 0.24  C 
ATOM     52 O    ALA B1540      -1.339  45.041   1.549  1.00 35.55 LIG-0.27  OA
ATOM     53 H    ALA B1541      -4.172  45.609   2.473  1.00 36.68 LIG 0.16  HD
BRANCH 51 54
ATOM     54  CA  ALA B1540      -3.226  45.436   0.092  1.00 37.40 LIG 0.17  C 
ATOM     55  CB  ALA B1540      -2.361  46.278  -0.858  1.00 38.11 LIG 0.04  C 
BRANCH 54 56
ATOM     56  N   ALA B1540      -4.559  46.029   0.196  1.00 38.31 LIG-0.35  N 
ATOM     57 H    ALA B1540      -4.599  46.846  -0.067  1.00 38.31 LIG 0.16  HD
ATOM     58  C   ILE B1539      -5.603  45.355   0.657  1.00 39.48 LIG 0.26  C 
ATOM     59 O    ILE B1539      -5.527  44.195   1.037  1.00 40.50 LIG-0.27  OA
BRANCH 58 60
ATOM     60  CA  ILE B1539      -6.929  46.117   0.721  1.00 40.24 LIG 0.40  C 
ATOM     61  N   ILE B1539      -8.108  45.193   0.763  1.00 42.50 LIG 0.61  N 
BRANCH 60 62
ATOM     62  CB  ILE B1539      -6.878  47.046   1.970  1.00 40.48 LIG 0.03  C 
ATOM     63  CG2 ILE B1539      -6.246  46.302   3.145  1.00 38.85 LIG 0.01  C 
BRANCH 62 64
ATOM     64  CG1 ILE B1539      -6.080  48.319   1.666  1.00 39.99 LIG 0.00  C 
ATOM     65  CD1 ILE B1539      -4.663  48.306   2.255  1.00 39.67 LIG 0.01  C 
ENDBRANCH 62 64
ENDBRANCH 60 62
ENDBRANCH 58 60
ENDBRANCH 54 56
ENDBRANCH 51 54
ENDBRANCH 48 50
ENDBRANCH 45 48
ENDBRANCH 43 44
BRANCH 43 66
ATOM     66  CB  TRP B1542      -6.278  42.179   4.918  1.00 29.93 LIG 0.07  C 
BRANCH 66 67
ATOM     67  CG  TRP B1542      -6.963  41.458   6.080  1.00 31.09 LIG-0.03  A 
ATOM     68  CD1 TRP B1542      -7.684  42.040   7.093  1.00 35.00 LIG 0.10  A 
ATOM     69  NE1 TRP B1542      -8.183  41.073   7.945  1.00 35.42 LIG-0.36  N 
ATOM     70 HE1  TRP B1542      -8.663  41.220   8.643  1.00 35.42 LIG 0.17  HD
ATOM     71  CE2 TRP B1542      -7.789  39.837   7.495  1.00 34.23 LIG 0.04  A 
ATOM     72  CD2 TRP B1542      -7.015  40.037   6.322  1.00 31.85 LIG-0.00  A 
ATOM     73  CZ2 TRP B1542      -8.048  38.560   8.019  1.00 32.49 LIG 0.03  A 
ATOM     74  CE3 TRP B1542      -6.486  38.917   5.664  1.00 30.05 LIG 0.01  A 
ATOM     75  CZ3 TRP B1542      -6.745  37.645   6.185  1.00 29.28 LIG 0.00  A 
ATOM     76  CH2 TRP B1542      -7.523  37.482   7.355  1.00 32.34 LIG 0.00  A 
ENDBRANCH 66 67
ENDBRANCH 43 66
ENDBRANCH 1 43
TORSDOF 26
ENDMDL
MODEL 9
USER: ADFR SOLUTION from run 52
USER: SCORE 19.511864 LL:  -5.150 LR: -18.237 RR:   0.000 FEB: -10.481
USER: RMSD 6.872803
USER: SEED 51
USER: STATUS searching
USER: GENES 28
USER: genes 0 Translation |==|  0.47370 0.33570 0.54906
USER: genes 1 Rotation |==|  0.19244 0.80873 0.74455 0.51685
USER: genes 2 Torsion [C]-N--CA-[CB] |==|  0.36294
USER: genes 3 Torsion [N]-CA--CB-[CG] |==|  0.20865
USER: genes 4 Torsion [CA]-CB--CG-[CD1] |==|  0.83335
USER: genes 5 Torsion [CE1]-CZ--OH-[HH] |==|  0.44388
USER: genes 6 Torsion [N]-CA--C-[N] |==|  0.47717
USER: genes 7 Torsion [C]-N--CA-[CB] |==|  0.47963
USER: genes 8 Torsion [N]-CA--C-[N] |==|  0.27094
USER: genes 9 Torsion [C]-N--CA-[CB] |==|  0.14291
USER: genes 10 Torsion [N]-CA--CB-[CG] |==|  0.22984
USER: genes 11 Torsion [CA]-CB--CG-[CD] |==|  0.31191
USER: genes 12 Torsion [CB]-CG--CD-[NE] |==|  0.74115
USER: genes 13 Torsion [CG]-CD--NE-[HE] |==|  0.05180
USER: genes 14 Torsion [N]-CA--C-[O] |==|  0.21859
USER: genes 15 Torsion [N]-CA--CB-[CG] |==|  0.46061
USER: genes 16 Torsion [CA]-CB--CG-[CD1] |==|  0.14003
USER: genes 17 Torsion [N]-C--CA-[N] |==|  0.41353
USER: genes 18 Torsion [C]-CA--N-[C] |==|  0.81022
USER: genes 19 Torsion [N]-C--CA-[N] |==|  0.56111
USER: genes 20 Torsion [C]-CA--N-[C] |==|  0.77836
USER: genes 21 Torsion [N]-C--CA-[N] |==|  0.18544
USER: genes 22 Torsion [C]-CA--N-[C] |==|  0.81060
USER: genes 23 Torsion [N]-C--CA-[N] |==|  0.50780
USER: genes 24 Torsion [C]-CA--CB-[CG1] |==|  0.90764
USER: genes 25 Torsion [CA]-CB--CG1-[CD1] |==|  0.50312
USER: genes 26 Torsion [C]-CA--CB-[CG] |==|  0.76495
USER: genes 27 Torsion [CA]-CB--CG-[CD1] |==|  0.15616
ROOT
ATOM      1  C   TRP B1542      -3.069  40.758   3.390  1.00 26.55 LIG 0.24  C 
ATOM      2 O    TRP B1542      -3.353  39.600   3.120  1.00 27.86 LIG-0.27  OA
ATOM      3  N   TYR B1543      -2.881  41.684   2.457  1.00 24.62 LIG-0.35  N 
ATOM      4 H    TYR B1543      -2.607  42.484   2.617  1.00 24.62 LIG 0.16  HD
ENDROOT
BRANCH 3 5
ATOM      5  CA  TYR B1543      -3.132  41.399   1.056  1.00 22.31 LIG 0.18  C 
BRANCH 5 6
ATOM      6  CB  TYR B1543      -4.003  42.516   0.477  1.00 23.67 LIG 0.07  C 
BRANCH 6 7
ATOM      7  CG  TYR B1543      -3.291  43.828   0.211  1.00 24.58 LIG-0.06  A 
ATOM      8  CD1 TYR B1543      -2.673  44.526   1.247  1.00 24.59 LIG 0.01  A 
ATOM      9  CE1 TYR B1543      -2.083  45.762   1.026  1.00 26.50 LIG 0.04  A 
ATOM     10  CZ  TYR B1543      -2.117  46.306  -0.243  1.00 24.60 LIG 0.07  A 
ATOM     11  CE2 TYR B1543      -2.723  45.618  -1.291  1.00 24.06 LIG 0.04  A 
ATOM     12  CD2 TYR B1543      -3.294  44.396  -1.058  1.00 22.62 LIG 0.01  A 
BRANCH 10 13
ATOM     13 OH   TYR B1543      -1.582  47.543  -0.459  1.00 26.51 LIG-0.36  OA
ATOM     14 HH   TYR B1543      -1.416  47.637  -1.278  1.00 26.51 LIG 0.22  HD
ENDBRANCH 10 13
ENDBRANCH 6 7
ENDBRANCH 5 6
BRANCH 5 15
ATOM     15  C   TYR B1543      -1.957  41.141   0.125  1.00 22.90 LIG 0.24  C 
ATOM     16  N   LEU B1544      -2.242  40.722  -1.100  1.00 22.60 LIG-0.35  N 
ATOM     17 H    LEU B1544      -3.037  40.619  -1.409  1.00 22.60 LIG 0.16  HD
ATOM     18 O    TYR B1543      -0.808  41.309   0.516  1.00 21.43 LIG-0.27  OA
BRANCH 16 19
ATOM     19  CA  LEU B1544      -1.171  40.400  -2.030  1.00 22.81 LIG 0.18  C 
BRANCH 19 20
ATOM     20  C   LEU B1544      -0.328  41.623  -2.377  1.00 21.53 LIG 0.24  C 
ATOM     21 O    LEU B1544      -0.691  42.422  -3.248  1.00 22.00 LIG-0.27  OA
ATOM     22  N   ARG B1545       0.803  41.770  -1.695  1.00 20.14 LIG-0.35  N 
ATOM     23 H    ARG B1545       1.085  41.233  -1.086  1.00 20.14 LIG 0.16  HD
BRANCH 22 24
ATOM     24  CA  ARG B1545       1.663  42.910  -1.967  1.00 18.95 LIG 0.16  C 
BRANCH 24 25
ATOM     25  CB  ARG B1545       0.849  44.209  -1.910  1.00 20.51 LIG 0.04  C 
BRANCH 25 26
ATOM     26  CG  ARG B1545       0.705  44.677  -0.462  1.00 20.78 LIG 0.02  C 
BRANCH 26 27
ATOM     27  CD  ARG B1545       1.459  45.971  -0.169  1.00 21.13 LIG 0.14  C 
BRANCH 27 28
ATOM     28  NE  ARG B1545       2.801  45.682   0.347  1.00 20.56 LIG-0.23  N 
ATOM     29 HE   ARG B1545       3.127  44.898   0.211  1.00 20.56 LIG 0.18  HD
ATOM     30  CZ  ARG B1545       3.543  46.561   1.012  1.00 23.27 LIG 0.67  C 
ATOM     31  NH2 ARG B1545       4.749  46.212   1.480  1.00 19.37 LIG-0.23  N 
ATOM     32  NH1 ARG B1545       3.069  47.781   1.231  1.00 20.25 LIG-0.23  N 
ATOM     33 1HH2 ARG B1545       5.046  45.416   1.350  1.00 19.37 LIG 0.17  HD
ATOM     34 2HH2 ARG B1545       5.226  46.784   1.909  1.00 19.37 LIG 0.17  HD
ATOM     35 1HH1 ARG B1545       2.287  47.997   0.943  1.00 20.25 LIG 0.17  HD
ATOM     36 2HH1 ARG B1545       3.542  48.356   1.660  1.00 20.25 LIG 0.17  HD
ENDBRANCH 27 28
ENDBRANCH 26 27
ENDBRANCH 25 26
ENDBRANCH 24 25
BRANCH 24 37
ATOM     37  C   ARG B1545       2.876  42.959  -1.047  1.00 20.11 LIG 0.22  C 
ATOM     38 O    ARG B1545       3.828  42.192  -1.326  1.00 20.61 LIG-0.29  OA
ENDBRANCH 24 37
ENDBRANCH 22 24
ENDBRANCH 19 20
BRANCH 19 39
ATOM     39  CB  LEU B1544      -1.761  39.772  -3.299  1.00 22.71 LIG 0.04  C 
BRANCH 39 40
ATOM     40  CG  LEU B1544      -0.793  39.699  -4.490  1.00 23.46 LIG-0.02  C 
ATOM     41  CD1 LEU B1544       0.517  39.063  -4.014  1.00 24.99 LIG 0.01  C 
ATOM     42  CD2 LEU B1544      -1.390  38.895  -5.638  1.00 22.67 LIG 0.01  C 
ENDBRANCH 39 40
ENDBRANCH 19 39
ENDBRANCH 16 19
ENDBRANCH 5 15
ENDBRANCH 3 5
BRANCH 1 43
ATOM     43  CA  TRP B1542      -2.885  41.188   4.841  1.00 29.62 LIG 0.18  C 
BRANCH 43 44
ATOM     44  N   TRP B1542      -3.744  40.453   5.767  1.00 31.24 LIG-0.35  N 
ATOM     45  C   ALA B1541      -5.056  40.628   5.752  1.00 34.20 LIG 0.24  C 
ATOM     46 O    ALA B1541      -5.606  41.373   4.944  1.00 33.88 LIG-0.27  OA
ATOM     47 H    TRP B1542      -3.331  39.920   6.300  1.00 31.24 LIG 0.16  HD
BRANCH 45 48
ATOM     48  CA  ALA B1541      -5.874  39.843   6.787  1.00 35.59 LIG 0.17  C 
ATOM     49  CB  ALA B1541      -5.212  38.470   7.050  1.00 37.24 LIG 0.04  C 
BRANCH 48 50
ATOM     50  N   ALA B1541      -7.293  39.642   6.459  1.00 36.68 LIG-0.35  N 
ATOM     51  C   ALA B1540      -8.204  40.592   6.647  1.00 36.41 LIG 0.24  C 
ATOM     52 O    ALA B1540      -7.918  41.720   7.060  1.00 35.55 LIG-0.27  OA
ATOM     53 H    ALA B1541      -7.473  38.865   6.139  1.00 36.68 LIG 0.16  HD
BRANCH 51 54
ATOM     54  CA  ALA B1540      -9.648  40.221   6.286  1.00 37.40 LIG 0.17  C 
ATOM     55  CB  ALA B1540     -10.546  41.466   6.335  1.00 38.11 LIG 0.04  C 
BRANCH 54 56
ATOM     56  N   ALA B1540     -10.191  39.191   7.171  1.00 38.31 LIG-0.35  N 
ATOM     57 H    ALA B1540     -10.820  39.470   7.687  1.00 38.31 LIG 0.16  HD
ATOM     58  C   ILE B1539      -9.746  37.943   7.167  1.00 39.48 LIG 0.26  C 
ATOM     59 O    ILE B1539      -8.844  37.564   6.433  1.00 40.50 LIG-0.27  OA
BRANCH 58 60
ATOM     60  CA  ILE B1539     -10.403  36.984   8.162  1.00 40.24 LIG 0.40  C 
ATOM     61  N   ILE B1539      -9.783  35.620   8.124  1.00 42.50 LIG 0.61  N 
BRANCH 60 62
ATOM     62  CB  ILE B1539     -10.296  37.627   9.577  1.00 40.48 LIG 0.03  C 
ATOM     63  CG2 ILE B1539     -10.340  36.538  10.647  1.00 38.85 LIG 0.01  C 
BRANCH 62 64
ATOM     64  CG1 ILE B1539      -9.002  38.438   9.706  1.00 39.99 LIG 0.00  C 
ATOM     65  CD1 ILE B1539      -8.819  39.079  11.088  1.00 39.67 LIG 0.01  C 
ENDBRANCH 62 64
ENDBRANCH 60 62
ENDBRANCH 58 60
ENDBRANCH 54 56
ENDBRANCH 51 54
ENDBRANCH 48 50
ENDBRANCH 45 48
ENDBRANCH 43 44
BRANCH 43 66
ATOM     66  CB  TRP B1542      -1.416  40.970   5.230  1.00 29.93 LIG 0.07  C 
BRANCH 66 67
ATOM     67  CG  TRP B1542      -1.108  39.543   5.687  1.00 31.09 LIG-0.03  A 
ATOM     68  CD1 TRP B1542      -1.334  38.390   4.978  1.00 35.00 LIG 0.10  A 
ATOM     69  NE1 TRP B1542      -0.897  37.292   5.695  1.00 35.42 LIG-0.36  N 
ATOM     70 HE1  TRP B1542      -0.942  36.473   5.434  1.00 35.42 LIG 0.17  HD
ATOM     71  CE2 TRP B1542      -0.377  37.719   6.891  1.00 34.23 LIG 0.04  A 
ATOM     72  CD2 TRP B1542      -0.494  39.133   6.926  1.00 31.85 LIG-0.00  A 
ATOM     73  CZ2 TRP B1542       0.188  36.982   7.945  1.00 32.49 LIG 0.03  A 
ATOM     74  CE3 TRP B1542      -0.031  39.819   8.058  1.00 30.05 LIG 0.01  A 
ATOM     75  CZ3 TRP B1542       0.532  39.087   9.108  1.00 29.28 LIG 0.00  A 
ATOM     76  CH2 TRP B1542       0.636  37.677   9.039  1.00 32.34 LIG 0.00  A 
ENDBRANCH 66 67
ENDBRANCH 43 66
ENDBRANCH 1 43
TORSDOF 26
ENDMDL
MODEL 10
USER: ADFR SOLUTION from run 125
USER: SCORE 22.054151 LL:  -6.319 LR: -18.231 RR:   0.000 FEB: -10.476
USER: RMSD 6.416324
USER: SEED 124
USER: STATUS searching
USER: GENES 28
USER: genes 0 Translation |==|  0.43846 0.42251 0.57857
USER: genes 1 Rotation |==|  0.98204 0.59214 0.44919 0.58103
USER: genes 2 Torsion [C]-N--CA-[CB] |==|  0.82025
USER: genes 3 Torsion [N]-CA--CB-[CG] |==|  0.49510
USER: genes 4 Torsion [CA]-CB--CG-[CD1] |==|  0.79147
USER: genes 5 Torsion [CE1]-CZ--OH-[HH] |==|  0.67876
USER: genes 6 Torsion [N]-CA--C-[N] |==|  0.33333
USER: genes 7 Torsion [C]-N--CA-[CB] |==|  0.44551
USER: genes 8 Torsion [N]-CA--C-[N] |==|  0.37973
USER: genes 9 Torsion [C]-N--CA-[CB] |==|  0.34021
USER: genes 10 Torsion [N]-CA--CB-[CG] |==|  0.67711
USER: genes 11 Torsion [CA]-CB--CG-[CD] |==|  0.90820
USER: genes 12 Torsion [CB]-CG--CD-[NE] |==|  0.42984
USER: genes 13 Torsion [CG]-CD--NE-[HE] |==|  0.69434
USER: genes 14 Torsion [N]-CA--C-[O] |==|  0.03564
USER: genes 15 Torsion [N]-CA--CB-[CG] |==|  0.42293
USER: genes 16 Torsion [CA]-CB--CG-[CD1] |==|  0.36093
USER: genes 17 Torsion [N]-C--CA-[N] |==|  0.86624
USER: genes 18 Torsion [C]-CA--N-[C] |==|  0.19589
USER: genes 19 Torsion [N]-C--CA-[N] |==|  0.14967
USER: genes 20 Torsion [C]-CA--N-[C] |==|  0.14932
USER: genes 21 Torsion [N]-C--CA-[N] |==|  0.44176
USER: genes 22 Torsion [C]-CA--N-[C] |==|  0.85684
USER: genes 23 Torsion [N]-C--CA-[N] |==|  0.91115
USER: genes 24 Torsion [C]-CA--CB-[CG1] |==|  0.00901
USER: genes 25 Torsion [CA]-CB--CG1-[CD1] |==|  0.68398
USER: genes 26 Torsion [C]-CA--CB-[CG] |==|  0.19026
USER: genes 27 Torsion [CA]-CB--CG-[CD1] |==|  0.66046
ROOT
ATOM      1  C   TRP B1542      -3.889  42.451   3.943  1.00 26.55 LIG 0.24  C 
ATOM      2 O    TRP B1542      -2.706  42.654   4.177  1.00 27.86 LIG-0.27  OA
ATOM      3  N   TYR B1543      -4.476  42.856   2.823  1.00 24.62 LIG-0.35  N 
ATOM      4 H    TYR B1543      -5.320  42.793   2.669  1.00 24.62 LIG 0.16  HD
ENDROOT
BRANCH 3 5
ATOM      5  CA  TYR B1543      -3.706  43.453   1.747  1.00 22.31 LIG 0.18  C 
BRANCH 5 6
ATOM      6  CB  TYR B1543      -3.113  44.774   2.243  1.00 23.67 LIG 0.07  C 
BRANCH 6 7
ATOM      7  CG  TYR B1543      -2.239  45.511   1.247  1.00 24.58 LIG-0.06  A 
ATOM      8  CD1 TYR B1543      -0.947  45.069   0.968  1.00 24.59 LIG 0.01  A 
ATOM      9  CE1 TYR B1543      -0.115  45.778   0.115  1.00 26.50 LIG 0.04  A 
ATOM     10  CZ  TYR B1543      -0.580  46.945  -0.460  1.00 24.60 LIG 0.07  A 
ATOM     11  CE2 TYR B1543      -1.870  47.398  -0.198  1.00 24.06 LIG 0.04  A 
ATOM     12  CD2 TYR B1543      -2.681  46.682   0.641  1.00 22.62 LIG 0.01  A 
BRANCH 10 13
ATOM     13 OH   TYR B1543       0.249  47.676  -1.262  1.00 26.51 LIG-0.36  OA
ATOM     14 HH   TYR B1543       0.393  48.424  -0.908  1.00 26.51 LIG 0.22  HD
ENDBRANCH 10 13
ENDBRANCH 6 7
ENDBRANCH 5 6
BRANCH 5 15
ATOM     15  C   TYR B1543      -2.619  42.636   1.066  1.00 22.90 LIG 0.24  C 
ATOM     16  N   LEU B1544      -2.751  42.427  -0.237  1.00 22.60 LIG-0.35  N 
ATOM     17 H    LEU B1544      -3.385  42.745  -0.722  1.00 22.60 LIG 0.16  HD
ATOM     18 O    TYR B1543      -1.679  42.192   1.714  1.00 21.43 LIG-0.27  OA
BRANCH 16 19
ATOM     19  CA  LEU B1544      -1.783  41.608  -0.948  1.00 22.81 LIG 0.18  C 
BRANCH 19 20
ATOM     20  C   LEU B1544      -0.477  42.356  -1.200  1.00 21.53 LIG 0.24  C 
ATOM     21 O    LEU B1544      -0.479  43.530  -1.586  1.00 22.00 LIG-0.27  OA
ATOM     22  N   ARG B1545       0.642  41.673  -0.984  1.00 20.14 LIG-0.35  N 
ATOM     23 H    ARG B1545       0.678  40.856  -0.717  1.00 20.14 LIG 0.16  HD
BRANCH 22 24
ATOM     24  CA  ARG B1545       1.928  42.315  -1.201  1.00 18.95 LIG 0.16  C 
BRANCH 24 25
ATOM     25  CB  ARG B1545       2.762  42.274   0.086  1.00 20.51 LIG 0.04  C 
BRANCH 25 26
ATOM     26  CG  ARG B1545       3.018  43.694   0.593  1.00 20.78 LIG 0.02  C 
BRANCH 26 27
ATOM     27  CD  ARG B1545       3.152  44.719  -0.530  1.00 21.13 LIG 0.14  C 
BRANCH 27 28
ATOM     28  NE  ARG B1545       2.799  46.059  -0.050  1.00 20.56 LIG-0.23  N 
ATOM     29 HE   ARG B1545       2.070  46.414  -0.339  1.00 20.56 LIG 0.18  HD
ATOM     30  CZ  ARG B1545       3.539  46.758   0.803  1.00 23.27 LIG 0.67  C 
ATOM     31  NH2 ARG B1545       3.165  47.992   1.170  1.00 19.37 LIG-0.23  N 
ATOM     32  NH1 ARG B1545       4.666  46.235   1.269  1.00 20.25 LIG-0.23  N 
ATOM     33 1HH2 ARG B1545       2.443  48.334   0.854  1.00 19.37 LIG 0.17  HD
ATOM     34 2HH2 ARG B1545       3.647  48.440   1.723  1.00 19.37 LIG 0.17  HD
ATOM     35 1HH1 ARG B1545       4.911  45.449   1.019  1.00 20.25 LIG 0.17  HD
ATOM     36 2HH1 ARG B1545       5.151  46.680   1.822  1.00 20.25 LIG 0.17  HD
ENDBRANCH 27 28
ENDBRANCH 26 27
ENDBRANCH 25 26
ENDBRANCH 24 25
BRANCH 24 37
ATOM     37  C   ARG B1545       2.682  41.723  -2.386  1.00 20.11 LIG 0.22  C 
ATOM     38 O    ARG B1545       2.032  40.972  -3.151  1.00 20.61 LIG-0.29  OA
ENDBRANCH 24 37
ENDBRANCH 22 24
ENDBRANCH 19 20
BRANCH 19 39
ATOM     39  CB  LEU B1544      -2.391  41.120  -2.269  1.00 22.71 LIG 0.04  C 
BRANCH 39 40
ATOM     40  CG  LEU B1544      -1.369  40.847  -3.384  1.00 23.46 LIG-0.02  C 
ATOM     41  CD1 LEU B1544      -1.642  39.456  -3.965  1.00 24.99 LIG 0.01  C 
ATOM     42  CD2 LEU B1544      -1.448  41.906  -4.477  1.00 22.67 LIG 0.01  C 
ENDBRANCH 39 40
ENDBRANCH 19 39
ENDBRANCH 16 19
ENDBRANCH 5 15
ENDBRANCH 3 5
BRANCH 1 43
ATOM     43  CA  TRP B1542      -4.765  41.737   4.966  1.00 29.62 LIG 0.18  C 
BRANCH 43 44
ATOM     44  N   TRP B1542      -6.016  42.442   5.237  1.00 31.24 LIG-0.35  N 
ATOM     45  C   ALA B1541      -6.972  42.492   4.324  1.00 34.20 LIG 0.24  C 
ATOM     46 O    ALA B1541      -6.870  41.924   3.239  1.00 33.88 LIG-0.27  OA
ATOM     47 H    TRP B1542      -6.067  42.805   6.016  1.00 31.24 LIG 0.16  HD
BRANCH 45 48
ATOM     48  CA  ALA B1541      -8.236  43.287   4.683  1.00 35.59 LIG 0.17  C 
ATOM     49  CB  ALA B1541      -9.220  43.276   3.489  1.00 37.24 LIG 0.04  C 
BRANCH 48 50
ATOM     50  N   ALA B1541      -8.016  44.674   5.116  1.00 36.68 LIG-0.35  N 
ATOM     51  C   ALA B1540      -7.321  45.542   4.387  1.00 36.41 LIG 0.24  C 
ATOM     52 O    ALA B1540      -6.859  45.262   3.276  1.00 35.55 LIG-0.27  OA
ATOM     53 H    ALA B1541      -8.374  44.866   5.874  1.00 36.68 LIG 0.16  HD
BRANCH 51 54
ATOM     54  CA  ALA B1540      -7.152  46.943   4.988  1.00 37.40 LIG 0.17  C 
ATOM     55  CB  ALA B1540      -8.434  47.766   4.789  1.00 38.11 LIG 0.04  C 
BRANCH 54 56
ATOM     56  N   ALA B1540      -6.016  47.659   4.408  1.00 38.31 LIG-0.35  N 
ATOM     57 H    ALA B1540      -6.209  48.446   4.120  1.00 38.31 LIG 0.16  HD
ATOM     58  C   ILE B1539      -4.803  47.131   4.339  1.00 39.48 LIG 0.26  C 
ATOM     59 O    ILE B1539      -4.547  46.005   4.744  1.00 40.50 LIG-0.27  OA
BRANCH 58 60
ATOM     60  CA  ILE B1539      -3.721  47.996   3.690  1.00 40.24 LIG 0.40  C 
ATOM     61  N   ILE B1539      -4.277  48.881   2.615  1.00 42.50 LIG 0.61  N 
BRANCH 60 62
ATOM     62  CB  ILE B1539      -3.037  48.821   4.821  1.00 40.48 LIG 0.03  C 
ATOM     63  CG2 ILE B1539      -3.239  50.314   4.569  1.00 38.85 LIG 0.01  C 
BRANCH 62 64
ATOM     64  CG1 ILE B1539      -3.608  48.439   6.191  1.00 39.99 LIG 0.00  C 
ATOM     65  CD1 ILE B1539      -4.390  49.574   6.863  1.00 39.67 LIG 0.01  C 
ENDBRANCH 62 64
ENDBRANCH 60 62
ENDBRANCH 58 60
ENDBRANCH 54 56
ENDBRANCH 51 54
ENDBRANCH 48 50
ENDBRANCH 45 48
ENDBRANCH 43 44
BRANCH 43 66
ATOM     66  CB  TRP B1542      -5.079  40.330   4.440  1.00 29.93 LIG 0.07  C 
BRANCH 66 67
ATOM     67  CG  TRP B1542      -3.863  39.403   4.399  1.00 31.09 LIG-0.03  A 
ATOM     68  CD1 TRP B1542      -3.362  38.758   3.296  1.00 35.00 LIG 0.10  A 
ATOM     69  NE1 TRP B1542      -2.233  38.035   3.634  1.00 35.42 LIG-0.36  N 
ATOM     70 HE1  TRP B1542      -1.763  37.559   3.092  1.00 35.42 LIG 0.17  HD
ATOM     71  CE2 TRP B1542      -1.983  38.199   4.973  1.00 34.23 LIG 0.04  A 
ATOM     72  CD2 TRP B1542      -2.990  39.053   5.493  1.00 31.85 LIG-0.00  A 
ATOM     73  CZ2 TRP B1542      -0.956  37.670   5.772  1.00 32.49 LIG 0.03  A 
ATOM     74  CE3 TRP B1542      -2.960  39.378   6.857  1.00 30.05 LIG 0.01  A 
ATOM     75  CZ3 TRP B1542      -1.938  38.852   7.653  1.00 29.28 LIG 0.00  A 
ATOM     76  CH2 TRP B1542      -0.947  38.005   7.101  1.00 32.34 LIG 0.00  A 
ENDBRANCH 66 67
ENDBRANCH 43 66
ENDBRANCH 1 43
TORSDOF 26
ENDMDL
MODEL 11
USER: ADFR SOLUTION from run 125
USER: SCORE 22.404495 LL:  -6.099 LR: -18.189 RR:   0.000 FEB: -10.433
USER: RMSD 5.554528
USER: SEED 124
USER: STATUS searching
USER: GENES 28
USER: genes 0 Translation |==|  0.42721 0.44250 0.57360
USER: genes 1 Rotation |==|  0.98232 0.58361 0.46158 0.59435
USER: genes 2 Torsion [C]-N--CA-[CB] |==|  0.82140
USER: genes 3 Torsion [N]-CA--CB-[CG] |==|  0.49059
USER: genes 4 Torsion [CA]-CB--CG-[CD1] |==|  0.79787
USER: genes 5 Torsion [CE1]-CZ--OH-[HH] |==|  0.67219
USER: genes 6 Torsion [N]-CA--C-[N] |==|  0.31682
USER: genes 7 Torsion [C]-N--CA-[CB] |==|  0.44671
USER: genes 8 Torsion [N]-CA--C-[N] |==|  0.38890
USER: genes 9 Torsion [C]-N--CA-[CB] |==|  0.35033
USER: genes 10 Torsion [N]-CA--CB-[CG] |==|  0.68636
USER: genes 11 Torsion [CA]-CB--CG-[CD] |==|  0.88637
USER: genes 12 Torsion [CB]-CG--CD-[NE] |==|  0.43167
USER: genes 13 Torsion [CG]-CD--NE-[HE] |==|  0.69978
USER: genes 14 Torsion [N]-CA--C-[O] |==|  0.03679
USER: genes 15 Torsion [N]-CA--CB-[CG] |==|  0.42317
USER: genes 16 Torsion [CA]-CB--CG-[CD1] |==|  0.36012
USER: genes 17 Torsion [N]-C--CA-[N] |==|  0.92032
USER: genes 18 Torsion [C]-CA--N-[C] |==|  0.84000
USER: genes 19 Torsion [N]-C--CA-[N] |==|  0.11201
USER: genes 20 Torsion [C]-CA--N-[C] |==|  0.14043
USER: genes 21 Torsion [N]-C--CA-[N] |==|  0.36264
USER: genes 22 Torsion [C]-CA--N-[C] |==|  0.88423
USER: genes 23 Torsion [N]-C--CA-[N] |==|  0.93008
USER: genes 24 Torsion [C]-CA--CB-[CG1] |==|  0.64762
USER: genes 25 Torsion [CA]-CB--CG1-[CD1] |==|  0.46393
USER: genes 26 Torsion [C]-CA--CB-[CG] |==|  0.28830
USER: genes 27 Torsion [CA]-CB--CG-[CD1] |==|  0.31527
ROOT
ATOM      1  C   TRP B1542      -4.150  42.841   3.850  1.00 26.55 LIG 0.24  C 
ATOM      2 O    TRP B1542      -2.980  43.033   4.149  1.00 27.86 LIG-0.27  OA
ATOM      3  N   TYR B1543      -4.657  43.204   2.678  1.00 24.62 LIG-0.35  N 
ATOM      4 H    TYR B1543      -5.491  43.150   2.473  1.00 24.62 LIG 0.16  HD
ENDROOT
BRANCH 3 5
ATOM      5  CA  TYR B1543      -3.809  43.737   1.627  1.00 22.31 LIG 0.18  C 
BRANCH 5 6
ATOM      6  CB  TYR B1543      -3.212  45.063   2.104  1.00 23.67 LIG 0.07  C 
BRANCH 6 7
ATOM      7  CG  TYR B1543      -2.232  45.718   1.150  1.00 24.58 LIG-0.06  A 
ATOM      8  CD1 TYR B1543      -0.953  45.192   0.970  1.00 24.59 LIG 0.01  A 
ATOM      9  CE1 TYR B1543      -0.026  45.825   0.157  1.00 26.50 LIG 0.04  A 
ATOM     10  CZ  TYR B1543      -0.380  47.000  -0.478  1.00 24.60 LIG 0.07  A 
ATOM     11  CE2 TYR B1543      -1.655  47.535  -0.315  1.00 24.06 LIG 0.04  A 
ATOM     12  CD2 TYR B1543      -2.561  46.893   0.486  1.00 22.62 LIG 0.01  A 
BRANCH 10 13
ATOM     13 OH   TYR B1543       0.542  47.657  -1.241  1.00 26.51 LIG-0.36  OA
ATOM     14 HH   TYR B1543       0.684  48.418  -0.916  1.00 26.51 LIG 0.22  HD
ENDBRANCH 10 13
ENDBRANCH 6 7
ENDBRANCH 5 6
BRANCH 5 15
ATOM     15  C   TYR B1543      -2.705  42.867   1.047  1.00 22.90 LIG 0.24  C 
ATOM     16  N   LEU B1544      -2.828  42.505  -0.222  1.00 22.60 LIG-0.35  N 
ATOM     17 H    LEU B1544      -3.466  42.754  -0.742  1.00 22.60 LIG 0.16  HD
ATOM     18 O    TYR B1543      -1.760  42.518   1.744  1.00 21.43 LIG-0.27  OA
BRANCH 16 19
ATOM     19  CA  LEU B1544      -1.842  41.627  -0.832  1.00 22.81 LIG 0.18  C 
BRANCH 19 20
ATOM     20  C   LEU B1544      -0.546  42.362  -1.157  1.00 21.53 LIG 0.24  C 
ATOM     21 O    LEU B1544      -0.561  43.510  -1.615  1.00 22.00 LIG-0.27  OA
ATOM     22  N   ARG B1545       0.581  41.697  -0.923  1.00 20.14 LIG-0.35  N 
ATOM     23 H    ARG B1545       0.626  40.899  -0.607  1.00 20.14 LIG 0.16  HD
BRANCH 22 24
ATOM     24  CA  ARG B1545       1.859  42.328  -1.207  1.00 18.95 LIG 0.16  C 
BRANCH 24 25
ATOM     25  CB  ARG B1545       2.755  42.289   0.039  1.00 20.51 LIG 0.04  C 
BRANCH 25 26
ATOM     26  CG  ARG B1545       2.977  43.704   0.572  1.00 20.78 LIG 0.02  C 
BRANCH 26 27
ATOM     27  CD  ARG B1545       3.206  44.735  -0.530  1.00 21.13 LIG 0.14  C 
BRANCH 27 28
ATOM     28  NE  ARG B1545       2.838  46.077  -0.068  1.00 20.56 LIG-0.23  N 
ATOM     29 HE   ARG B1545       2.123  46.433  -0.386  1.00 20.56 LIG 0.18  HD
ATOM     30  CZ  ARG B1545       3.546  46.775   0.814  1.00 23.27 LIG 0.67  C 
ATOM     31  NH2 ARG B1545       3.161  48.010   1.164  1.00 19.37 LIG-0.23  N 
ATOM     32  NH1 ARG B1545       4.650  46.248   1.327  1.00 20.25 LIG-0.23  N 
ATOM     33 1HH2 ARG B1545       2.454  48.354   0.818  1.00 19.37 LIG 0.17  HD
ATOM     34 2HH2 ARG B1545       3.622  48.458   1.735  1.00 19.37 LIG 0.17  HD
ATOM     35 1HH1 ARG B1545       4.903  45.462   1.088  1.00 20.25 LIG 0.17  HD
ATOM     36 2HH1 ARG B1545       5.114  46.693   1.898  1.00 20.25 LIG 0.17  HD
ENDBRANCH 27 28
ENDBRANCH 26 27
ENDBRANCH 25 26
ENDBRANCH 24 25
BRANCH 24 37
ATOM     37  C   ARG B1545       2.550  41.725  -2.423  1.00 20.11 LIG 0.22  C 
ATOM     38 O    ARG B1545       1.856  40.980  -3.155  1.00 20.61 LIG-0.29  OA
ENDBRANCH 24 37
ENDBRANCH 22 24
ENDBRANCH 19 20
BRANCH 19 39
ATOM     39  CB  LEU B1544      -2.433  40.987  -2.095  1.00 22.71 LIG 0.04  C 
BRANCH 39 40
ATOM     40  CG  LEU B1544      -1.399  40.605  -3.165  1.00 23.46 LIG-0.02  C 
ATOM     41  CD1 LEU B1544      -1.644  39.152  -3.584  1.00 24.99 LIG 0.01  C 
ATOM     42  CD2 LEU B1544      -1.486  41.530  -4.373  1.00 22.67 LIG 0.01  C 
ENDBRANCH 39 40
ENDBRANCH 19 39
ENDBRANCH 16 19
ENDBRANCH 5 15
ENDBRANCH 3 5
BRANCH 1 43
ATOM     43  CA  TRP B1542      -5.104  42.191   4.846  1.00 29.62 LIG 0.18  C 
BRANCH 43 44
ATOM     44  N   TRP B1542      -6.487  42.635   4.686  1.00 31.24 LIG-0.35  N 
ATOM     45  C   ALA B1541      -6.796  43.918   4.770  1.00 34.20 LIG 0.24  C 
ATOM     46 O    ALA B1541      -5.944  44.786   4.944  1.00 33.88 LIG-0.27  OA
ATOM     47 H    TRP B1542      -7.055  42.006   4.537  1.00 31.24 LIG 0.16  HD
BRANCH 45 48
ATOM     48  CA  ALA B1541      -8.280  44.287   4.627  1.00 35.59 LIG 0.17  C 
ATOM     49  CB  ALA B1541      -8.512  45.733   5.125  1.00 37.24 LIG 0.04  C 
BRANCH 48 50
ATOM     50  N   ALA B1541      -9.229  43.385   5.294  1.00 36.68 LIG-0.35  N 
ATOM     51  C   ALA B1540      -9.092  43.030   6.568  1.00 36.41 LIG 0.24  C 
ATOM     52 O    ALA B1540      -8.192  43.470   7.291  1.00 35.55 LIG-0.27  OA
ATOM     53 H    ALA B1541      -9.871  43.115   4.790  1.00 36.68 LIG 0.16  HD
BRANCH 51 54
ATOM     54  CA  ALA B1540     -10.145  42.058   7.113  1.00 37.40 LIG 0.17  C 
ATOM     55  CB  ALA B1540     -11.106  42.792   8.062  1.00 38.11 LIG 0.04  C 
BRANCH 54 56
ATOM     56  N   ALA B1540      -9.542  40.924   7.810  1.00 38.31 LIG-0.35  N 
ATOM     57 H    ALA B1540      -9.947  40.704   8.537  1.00 38.31 LIG 0.16  HD
ATOM     58  C   ILE B1539      -8.467  40.298   7.353  1.00 39.48 LIG 0.26  C 
ATOM     59 O    ILE B1539      -7.897  40.629   6.323  1.00 40.50 LIG-0.27  OA
BRANCH 58 60
ATOM     60  CA  ILE B1539      -7.943  39.138   8.202  1.00 40.24 LIG 0.40  C 
ATOM     61  N   ILE B1539      -8.329  39.277   9.644  1.00 42.50 LIG 0.61  N 
BRANCH 60 62
ATOM     62  CB  ILE B1539      -8.487  37.817   7.583  1.00 40.48 LIG 0.03  C 
ATOM     63  CG2 ILE B1539      -7.338  37.019   6.970  1.00 38.85 LIG 0.01  C 
BRANCH 62 64
ATOM     64  CG1 ILE B1539      -9.201  36.975   8.647  1.00 39.99 LIG 0.00  C 
ATOM     65  CD1 ILE B1539     -10.030  35.825   8.058  1.00 39.67 LIG 0.01  C 
ENDBRANCH 62 64
ENDBRANCH 60 62
ENDBRANCH 58 60
ENDBRANCH 54 56
ENDBRANCH 51 54
ENDBRANCH 48 50
ENDBRANCH 45 48
ENDBRANCH 43 44
BRANCH 43 66
ATOM     66  CB  TRP B1542      -5.035  40.668   4.663  1.00 29.93 LIG 0.07  C 
BRANCH 66 67
ATOM     67  CG  TRP B1542      -4.230  39.955   5.751  1.00 31.09 LIG-0.03  A 
ATOM     68  CD1 TRP B1542      -4.719  39.083   6.691  1.00 35.00 LIG 0.10  A 
ATOM     69  NE1 TRP B1542      -3.692  38.609   7.486  1.00 35.42 LIG-0.36  N 
ATOM     70 HE1  TRP B1542      -3.778  38.051   8.135  1.00 35.42 LIG 0.17  HD
ATOM     71  CE2 TRP B1542      -2.511  39.172   7.071  1.00 34.23 LIG 0.04  A 
ATOM     72  CD2 TRP B1542      -2.808  40.030   5.981  1.00 31.85 LIG-0.00  A 
ATOM     73  CZ2 TRP B1542      -1.207  39.000   7.562  1.00 32.49 LIG 0.03  A 
ATOM     74  CE3 TRP B1542      -1.759  40.734   5.372  1.00 30.05 LIG 0.01  A 
ATOM     75  CZ3 TRP B1542      -0.459  40.563   5.859  1.00 29.28 LIG 0.00  A 
ATOM     76  CH2 TRP B1542      -0.198  39.697   6.948  1.00 32.34 LIG 0.00  A 
ENDBRANCH 66 67
ENDBRANCH 43 66
ENDBRANCH 1 43
TORSDOF 26
ENDMDL
MODEL 12
USER: ADFR SOLUTION from run 98
USER: SCORE 23.176110 LL:  -7.041 LR: -18.182 RR:   0.000 FEB: -10.426
USER: RMSD 8.143660
USER: SEED 97
USER: STATUS no improvement in best in 3 clusters for 5 generations
USER: GENES 28
USER: genes 0 Translation |==|  0.58760 0.39941 0.35061
USER: genes 1 Rotation |==|  0.41028 0.20199 0.45173 0.88834
USER: genes 2 Torsion [C]-N--CA-[CB] |==|  0.81165
USER: genes 3 Torsion [N]-CA--CB-[CG] |==|  0.55597
USER: genes 4 Torsion [CA]-CB--CG-[CD1] |==|  0.59613
USER: genes 5 Torsion [CE1]-CZ--OH-[HH] |==|  0.99669
USER: genes 6 Torsion [N]-CA--C-[N] |==|  0.44162
USER: genes 7 Torsion [C]-N--CA-[CB] |==|  0.85811
USER: genes 8 Torsion [N]-CA--C-[N] |==|  0.76111
USER: genes 9 Torsion [C]-N--CA-[CB] |==|  0.33234
USER: genes 10 Torsion [N]-CA--CB-[CG] |==|  0.78355
USER: genes 11 Torsion [CA]-CB--CG-[CD] |==|  0.26244
USER: genes 12 Torsion [CB]-CG--CD-[NE] |==|  0.30138
USER: genes 13 Torsion [CG]-CD--NE-[HE] |==|  0.76705
USER: genes 14 Torsion [N]-CA--C-[O] |==|  0.36188
USER: genes 15 Torsion [N]-CA--CB-[CG] |==|  0.73451
USER: genes 16 Torsion [CA]-CB--CG-[CD1] |==|  0.16745
USER: genes 17 Torsion [N]-C--CA-[N] |==|  0.91055
USER: genes 18 Torsion [C]-CA--N-[C] |==|  0.65401
USER: genes 19 Torsion [N]-C--CA-[N] |==|  0.97174
USER: genes 20 Torsion [C]-CA--N-[C] |==|  0.62915
USER: genes 21 Torsion [N]-C--CA-[N] |==|  0.95611
USER: genes 22 Torsion [C]-CA--N-[C] |==|  0.82311
USER: genes 23 Torsion [N]-C--CA-[N] |==|  0.38417
USER: genes 24 Torsion [C]-CA--CB-[CG1] |==|  0.53607
USER: genes 25 Torsion [CA]-CB--CG1-[CD1] |==|  0.58158
USER: genes 26 Torsion [C]-CA--CB-[CG] |==|  0.15781
USER: genes 27 Torsion [CA]-CB--CG-[CD1] |==|  0.60687
ROOT
ATOM      1  C   TRP B1542      -0.421  42.001  -0.331  1.00 26.55 LIG 0.24  C 
ATOM      2 O    TRP B1542       0.398  42.209   0.553  1.00 27.86 LIG-0.27  OA
ATOM      3  N   TYR B1543      -1.648  41.559  -0.079  1.00 24.62 LIG-0.35  N 
ATOM      4 H    TYR B1543      -2.215  41.333  -0.684  1.00 24.62 LIG 0.16  HD
ENDROOT
BRANCH 3 5
ATOM      5  CA  TYR B1543      -2.131  41.425   1.284  1.00 22.31 LIG 0.18  C 
BRANCH 5 6
ATOM      6  CB  TYR B1543      -1.351  40.301   1.971  1.00 23.67 LIG 0.07  C 
BRANCH 6 7
ATOM      7  CG  TYR B1543      -2.013  39.703   3.197  1.00 24.58 LIG-0.06  A 
ATOM      8  CD1 TYR B1543      -1.248  39.263   4.277  1.00 24.59 LIG 0.01  A 
ATOM      9  CE1 TYR B1543      -1.839  38.648   5.370  1.00 26.50 LIG 0.04  A 
ATOM     10  CZ  TYR B1543      -3.209  38.466   5.380  1.00 24.60 LIG 0.07  A 
ATOM     11  CE2 TYR B1543      -3.988  38.906   4.313  1.00 24.06 LIG 0.04  A 
ATOM     12  CD2 TYR B1543      -3.390  39.518   3.245  1.00 22.62 LIG 0.01  A 
BRANCH 10 13
ATOM     13 OH   TYR B1543      -3.794  37.818   6.429  1.00 26.51 LIG-0.36  OA
ATOM     14 HH   TYR B1543      -3.201  37.578   6.975  1.00 26.51 LIG 0.22  HD
ENDBRANCH 10 13
ENDBRANCH 6 7
ENDBRANCH 5 6
BRANCH 5 15
ATOM     15  C   TYR B1543      -2.158  42.646   2.189  1.00 22.90 LIG 0.24  C 
ATOM     16  N   LEU B1544      -2.972  42.601   3.235  1.00 22.60 LIG-0.35  N 
ATOM     17 H    LEU B1544      -3.455  41.924   3.450  1.00 22.60 LIG 0.16  HD
ATOM     18 O    TYR B1543      -1.460  43.621   1.937  1.00 21.43 LIG-0.27  OA
BRANCH 16 19
ATOM     19  CA  LEU B1544      -3.097  43.752   4.115  1.00 22.81 LIG 0.18  C 
BRANCH 19 20
ATOM     20  C   LEU B1544      -3.864  44.895   3.456  1.00 21.53 LIG 0.24  C 
ATOM     21 O    LEU B1544      -5.082  45.023   3.619  1.00 22.00 LIG-0.27  OA
ATOM     22  N   ARG B1545      -3.148  45.726   2.705  1.00 20.14 LIG-0.35  N 
ATOM     23 H    ARG B1545      -2.301  45.664   2.570  1.00 20.14 LIG 0.16  HD
BRANCH 22 24
ATOM     24  CA  ARG B1545      -3.805  46.841   2.043  1.00 18.95 LIG 0.16  C 
BRANCH 24 25
ATOM     25  CB  ARG B1545      -3.207  48.169   2.526  1.00 20.51 LIG 0.04  C 
BRANCH 25 26
ATOM     26  CG  ARG B1545      -3.764  48.527   3.904  1.00 20.78 LIG 0.02  C 
BRANCH 26 27
ATOM     27  CD  ARG B1545      -2.873  48.066   5.053  1.00 21.13 LIG 0.14  C 
BRANCH 27 28
ATOM     28  NE  ARG B1545      -2.216  49.212   5.691  1.00 20.56 LIG-0.23  N 
ATOM     29 HE   ARG B1545      -1.491  49.511   5.338  1.00 20.56 LIG 0.18  HD
ATOM     30  CZ  ARG B1545      -2.676  49.814   6.782  1.00 23.27 LIG 0.67  C 
ATOM     31  NH2 ARG B1545      -2.002  50.838   7.324  1.00 19.37 LIG-0.23  N 
ATOM     32  NH1 ARG B1545      -3.796  49.378   7.345  1.00 20.25 LIG-0.23  N 
ATOM     33 1HH2 ARG B1545      -1.269  51.107   6.966  1.00 19.37 LIG 0.17  HD
ATOM     34 2HH2 ARG B1545      -2.303  51.225   8.030  1.00 19.37 LIG 0.17  HD
ATOM     35 1HH1 ARG B1545      -4.217  48.710   7.004  1.00 20.25 LIG 0.17  HD
ATOM     36 2HH1 ARG B1545      -4.100  49.762   8.052  1.00 20.25 LIG 0.17  HD
ENDBRANCH 27 28
ENDBRANCH 26 27
ENDBRANCH 25 26
ENDBRANCH 24 25
BRANCH 24 37
ATOM     37  C   ARG B1545      -3.769  46.720   0.525  1.00 20.11 LIG 0.22  C 
ATOM     38 O    ARG B1545      -4.856  46.873  -0.080  1.00 20.61 LIG-0.29  OA
ENDBRANCH 24 37
ENDBRANCH 22 24
ENDBRANCH 19 20
BRANCH 19 39
ATOM     39  CB  LEU B1544      -1.703  44.219   4.554  1.00 22.71 LIG 0.04  C 
BRANCH 39 40
ATOM     40  CG  LEU B1544      -1.239  43.666   5.911  1.00 23.46 LIG-0.02  C 
ATOM     41  CD1 LEU B1544      -1.195  42.138   5.825  1.00 24.99 LIG 0.01  C 
ATOM     42  CD2 LEU B1544       0.129  44.218   6.292  1.00 22.67 LIG 0.01  C 
ENDBRANCH 39 40
ENDBRANCH 19 39
ENDBRANCH 16 19
ENDBRANCH 5 15
ENDBRANCH 3 5
BRANCH 1 43
ATOM     43  CA  TRP B1542      -0.048  42.212  -1.793  1.00 29.62 LIG 0.18  C 
BRANCH 43 44
ATOM     44  N   TRP B1542      -0.711  41.271  -2.694  1.00 31.24 LIG-0.35  N 
ATOM     45  C   ALA B1541      -0.003  40.514  -3.516  1.00 34.20 LIG 0.24  C 
ATOM     46 O    ALA B1541       1.226  40.538  -3.533  1.00 33.88 LIG-0.27  OA
ATOM     47 H    TRP B1542      -1.569  41.258  -2.638  1.00 31.24 LIG 0.16  HD
BRANCH 45 48
ATOM     48  CA  ALA B1541      -0.787  39.582  -4.453  1.00 35.59 LIG 0.17  C 
ATOM     49  CB  ALA B1541      -0.585  40.024  -5.922  1.00 37.24 LIG 0.04  C 
BRANCH 48 50
ATOM     50  N   ALA B1541      -2.225  39.462  -4.176  1.00 36.68 LIG-0.35  N 
ATOM     51  C   ALA B1540      -2.842  38.284  -4.137  1.00 36.41 LIG 0.24  C 
ATOM     52 O    ALA B1540      -2.245  37.212  -4.280  1.00 35.55 LIG-0.27  OA
ATOM     53 H    ALA B1541      -2.621  40.213  -4.042  1.00 36.68 LIG 0.16  HD
BRANCH 51 54
ATOM     54  CA  ALA B1540      -4.351  38.323  -3.867  1.00 37.40 LIG 0.17  C 
ATOM     55  CB  ALA B1540      -5.131  38.009  -5.153  1.00 38.11 LIG 0.04  C 
BRANCH 54 56
ATOM     56  N   ALA B1540      -4.783  39.615  -3.336  1.00 38.31 LIG-0.35  N 
ATOM     57 H    ALA B1540      -5.327  40.040  -3.850  1.00 38.31 LIG 0.16  HD
ATOM     58  C   ILE B1539      -4.368  40.079  -2.166  1.00 39.48 LIG 0.26  C 
ATOM     59 O    ILE B1539      -3.587  39.467  -1.451  1.00 40.50 LIG-0.27  OA
BRANCH 58 60
ATOM     60  CA  ILE B1539      -4.896  41.455  -1.754  1.00 40.24 LIG 0.40  C 
ATOM     61  N   ILE B1539      -5.271  41.503  -0.304  1.00 42.50 LIG 0.61  N 
BRANCH 60 62
ATOM     62  CB  ILE B1539      -3.798  42.504  -2.102  1.00 40.48 LIG 0.03  C 
ATOM     63  CG2 ILE B1539      -3.708  42.679  -3.616  1.00 38.85 LIG 0.01  C 
BRANCH 62 64
ATOM     64  CG1 ILE B1539      -4.106  43.850  -1.436  1.00 39.99 LIG 0.00  C 
ATOM     65  CD1 ILE B1539      -3.572  45.055  -2.221  1.00 39.67 LIG 0.01  C 
ENDBRANCH 62 64
ENDBRANCH 60 62
ENDBRANCH 58 60
ENDBRANCH 54 56
ENDBRANCH 51 54
ENDBRANCH 48 50
ENDBRANCH 45 48
ENDBRANCH 43 44
BRANCH 43 66
ATOM     66  CB  TRP B1542      -0.427  43.646  -2.190  1.00 29.93 LIG 0.07  C 
BRANCH 66 67
ATOM     67  CG  TRP B1542       0.224  44.718  -1.314  1.00 31.09 LIG-0.03  A 
ATOM     68  CD1 TRP B1542      -0.357  45.882  -0.878  1.00 35.00 LIG 0.10  A 
ATOM     69  NE1 TRP B1542       0.521  46.588  -0.078  1.00 35.42 LIG-0.36  N 
ATOM     70 HE1  TRP B1542       0.358  47.343   0.300  1.00 35.42 LIG 0.17  HD
ATOM     71  CE2 TRP B1542       1.697  45.887   0.018  1.00 34.23 LIG 0.04  A 
ATOM     72  CD2 TRP B1542       1.552  44.702  -0.750  1.00 31.85 LIG-0.00  A 
ATOM     73  CZ2 TRP B1542       2.877  46.193   0.716  1.00 32.49 LIG 0.03  A 
ATOM     74  CE3 TRP B1542       2.628  43.806  -0.817  1.00 30.05 LIG 0.01  A 
ATOM     75  CZ3 TRP B1542       3.803  44.109  -0.122  1.00 29.28 LIG 0.00  A 
ATOM     76  CH2 TRP B1542       3.913  45.299   0.637  1.00 32.34 LIG 0.00  A 
ENDBRANCH 66 67
ENDBRANCH 43 66
ENDBRANCH 1 43
TORSDOF 26
ENDMDL
MODEL 13
USER: ADFR SOLUTION from run 194
USER: SCORE 22.267626 LL:  -6.309 LR: -18.177 RR:   0.000 FEB: -10.421
USER: RMSD 6.596224
USER: SEED 193
USER: STATUS no improvement in best in 7 clusters for 5 generations
USER: GENES 28
USER: genes 0 Translation |==|  0.46789 0.35076 0.64612
USER: genes 1 Rotation |==|  0.97076 0.57190 0.52700 0.64995
USER: genes 2 Torsion [C]-N--CA-[CB] |==|  0.29124
USER: genes 3 Torsion [N]-CA--CB-[CG] |==|  0.15289
USER: genes 4 Torsion [CA]-CB--CG-[CD1] |==|  0.24600
USER: genes 5 Torsion [CE1]-CZ--OH-[HH] |==|  0.96043
USER: genes 6 Torsion [N]-CA--C-[N] |==|  0.53366
USER: genes 7 Torsion [C]-N--CA-[CB] |==|  0.18931
USER: genes 8 Torsion [N]-CA--C-[N] |==|  0.05045
USER: genes 9 Torsion [C]-N--CA-[CB] |==|  0.27030
USER: genes 10 Torsion [N]-CA--CB-[CG] |==|  0.92474
USER: genes 11 Torsion [CA]-CB--CG-[CD] |==|  0.64888
USER: genes 12 Torsion [CB]-CG--CD-[NE] |==|  0.36195
USER: genes 13 Torsion [CG]-CD--NE-[HE] |==|  0.87378
USER: genes 14 Torsion [N]-CA--C-[O] |==|  0.56337
USER: genes 15 Torsion [N]-CA--CB-[CG] |==|  0.61450
USER: genes 16 Torsion [CA]-CB--CG-[CD1] |==|  0.96640
USER: genes 17 Torsion [N]-C--CA-[N] |==|  0.93144
USER: genes 18 Torsion [C]-CA--N-[C] |==|  0.83809
USER: genes 19 Torsion [N]-C--CA-[N] |==|  0.02838
USER: genes 20 Torsion [C]-CA--N-[C] |==|  0.76658
USER: genes 21 Torsion [N]-C--CA-[N] |==|  0.92222
USER: genes 22 Torsion [C]-CA--N-[C] |==|  0.78319
USER: genes 23 Torsion [N]-C--CA-[N] |==|  0.42510
USER: genes 24 Torsion [C]-CA--CB-[CG1] |==|  0.91175
USER: genes 25 Torsion [CA]-CB--CG1-[CD1] |==|  0.43463
USER: genes 26 Torsion [C]-CA--CB-[CG] |==|  0.06360
USER: genes 27 Torsion [CA]-CB--CG-[CD1] |==|  0.75905
ROOT
ATOM      1  C   TRP B1542      -3.204  41.052   5.210  1.00 26.55 LIG 0.24  C 
ATOM      2 O    TRP B1542      -2.174  41.358   5.792  1.00 27.86 LIG-0.27  OA
ATOM      3  N   TYR B1543      -3.346  41.175   3.896  1.00 24.62 LIG-0.35  N 
ATOM      4 H    TYR B1543      -4.083  41.039   3.473  1.00 24.62 LIG 0.16  HD
ENDROOT
BRANCH 3 5
ATOM      5  CA  TYR B1543      -2.228  41.560   3.054  1.00 22.31 LIG 0.18  C 
BRANCH 5 6
ATOM      6  CB  TYR B1543      -1.727  40.321   2.307  1.00 23.67 LIG 0.07  C 
BRANCH 6 7
ATOM      7  CG  TYR B1543      -2.773  39.579   1.498  1.00 24.58 LIG-0.06  A 
ATOM      8  CD1 TYR B1543      -3.030  39.928   0.173  1.00 24.59 LIG 0.01  A 
ATOM      9  CE1 TYR B1543      -4.035  39.304  -0.551  1.00 26.50 LIG 0.04  A 
ATOM     10  CZ  TYR B1543      -4.793  38.325   0.060  1.00 24.60 LIG 0.07  A 
ATOM     11  CE2 TYR B1543      -4.545  37.958   1.380  1.00 24.06 LIG 0.04  A 
ATOM     12  CD2 TYR B1543      -3.545  38.579   2.078  1.00 22.62 LIG 0.01  A 
BRANCH 10 13
ATOM     13 OH   TYR B1543      -5.816  37.739  -0.629  1.00 26.51 LIG-0.36  OA
ATOM     14 HH   TYR B1543      -5.990  38.195  -1.314  1.00 26.51 LIG 0.22  HD
ENDBRANCH 10 13
ENDBRANCH 6 7
ENDBRANCH 5 6
BRANCH 5 15
ATOM     15  C   TYR B1543      -2.395  42.708   2.071  1.00 22.90 LIG 0.24  C 
ATOM     16  N   LEU B1544      -1.445  42.863   1.160  1.00 22.60 LIG-0.35  N 
ATOM     17 H    LEU B1544      -0.765  42.345   1.068  1.00 22.60 LIG 0.16  HD
ATOM     18 O    TYR B1543      -3.368  43.450   2.144  1.00 21.43 LIG-0.27  OA
BRANCH 16 19
ATOM     19  CA  LEU B1544      -1.505  43.972   0.221  1.00 22.81 LIG 0.18  C 
BRANCH 19 20
ATOM     20  C   LEU B1544      -0.490  43.822  -0.907  1.00 21.53 LIG 0.24  C 
ATOM     21 O    LEU B1544      -0.159  44.789  -1.602  1.00 22.00 LIG-0.27  OA
ATOM     22  N   ARG B1545       0.004  42.602  -1.094  1.00 20.14 LIG-0.35  N 
ATOM     23 H    ARG B1545      -0.206  41.909  -0.631  1.00 20.14 LIG 0.16  HD
BRANCH 22 24
ATOM     24  CA  ARG B1545       0.977  42.376  -2.150  1.00 18.95 LIG 0.16  C 
BRANCH 24 25
ATOM     25  CB  ARG B1545       2.399  42.406  -1.572  1.00 20.51 LIG 0.04  C 
BRANCH 25 26
ATOM     26  CG  ARG B1545       2.440  43.282  -0.320  1.00 20.78 LIG 0.02  C 
BRANCH 26 27
ATOM     27  CD  ARG B1545       3.508  44.370  -0.380  1.00 21.13 LIG 0.14  C 
BRANCH 27 28
ATOM     28  NE  ARG B1545       2.938  45.675  -0.029  1.00 20.56 LIG-0.23  N 
ATOM     29 HE   ARG B1545       2.185  45.896  -0.381  1.00 20.56 LIG 0.18  HD
ATOM     30  CZ  ARG B1545       3.517  46.535   0.802  1.00 23.27 LIG 0.67  C 
ATOM     31  NH2 ARG B1545       2.948  47.723   1.050  1.00 19.37 LIG-0.23  N 
ATOM     32  NH1 ARG B1545       4.675  46.218   1.366  1.00 20.25 LIG-0.23  N 
ATOM     33 1HH2 ARG B1545       2.205  47.931   0.671  1.00 19.37 LIG 0.17  HD
ATOM     34 2HH2 ARG B1545       3.326  48.276   1.588  1.00 19.37 LIG 0.17  HD
ATOM     35 1HH1 ARG B1545       5.046  45.461   1.192  1.00 20.25 LIG 0.17  HD
ATOM     36 2HH1 ARG B1545       5.057  46.769   1.905  1.00 20.25 LIG 0.17  HD
ENDBRANCH 27 28
ENDBRANCH 26 27
ENDBRANCH 25 26
ENDBRANCH 24 25
BRANCH 24 37
ATOM     37  C   ARG B1545       0.707  41.093  -2.926  1.00 20.11 LIG 0.22  C 
ATOM     38 O    ARG B1545       1.680  40.583  -3.530  1.00 20.61 LIG-0.29  OA
ENDBRANCH 24 37
ENDBRANCH 22 24
ENDBRANCH 19 20
BRANCH 19 39
ATOM     39  CB  LEU B1544      -1.290  45.294   0.970  1.00 22.71 LIG 0.04  C 
BRANCH 39 40
ATOM     40  CG  LEU B1544      -2.205  46.443   0.521  1.00 23.46 LIG-0.02  C 
ATOM     41  CD1 LEU B1544      -2.897  46.034  -0.783  1.00 24.99 LIG 0.01  C 
ATOM     42  CD2 LEU B1544      -3.237  46.778   1.591  1.00 22.67 LIG 0.01  C 
ENDBRANCH 39 40
ENDBRANCH 19 39
ENDBRANCH 16 19
ENDBRANCH 5 15
ENDBRANCH 3 5
BRANCH 1 43
ATOM     43  CA  TRP B1542      -4.407  40.535   5.991  1.00 29.62 LIG 0.18  C 
BRANCH 43 44
ATOM     44  N   TRP B1542      -5.678  40.785   5.314  1.00 31.24 LIG-0.35  N 
ATOM     45  C   ALA B1541      -6.044  42.017   5.003  1.00 34.20 LIG 0.24  C 
ATOM     46 O    ALA B1541      -5.327  42.989   5.229  1.00 33.88 LIG-0.27  OA
ATOM     47 H    TRP B1542      -6.144  40.081   5.146  1.00 31.24 LIG 0.16  HD
BRANCH 45 48
ATOM     48  CA  ALA B1541      -7.413  42.187   4.328  1.00 35.59 LIG 0.17  C 
ATOM     49  CB  ALA B1541      -8.183  43.356   4.986  1.00 37.24 LIG 0.04  C 
BRANCH 48 50
ATOM     50  N   ALA B1541      -8.269  40.992   4.311  1.00 36.68 LIG-0.35  N 
ATOM     51  C   ALA B1540      -8.152  40.050   3.379  1.00 36.41 LIG 0.24  C 
ATOM     52 O    ALA B1540      -7.288  40.088   2.497  1.00 35.55 LIG-0.27  OA
ATOM     53 H    ALA B1541      -8.842  40.960   4.952  1.00 36.68 LIG 0.16  HD
BRANCH 51 54
ATOM     54  CA  ALA B1540      -9.137  38.879   3.478  1.00 37.40 LIG 0.17  C 
ATOM     55  CB  ALA B1540     -10.363  39.138   2.588  1.00 38.11 LIG 0.04  C 
BRANCH 54 56
ATOM     56  N   ALA B1540      -9.572  38.638   4.852  1.00 38.31 LIG-0.35  N 
ATOM     57 H    ALA B1540     -10.357  38.943   5.029  1.00 38.31 LIG 0.16  HD
ATOM     58  C   ILE B1539      -8.816  38.005   5.738  1.00 39.48 LIG 0.26  C 
ATOM     59 O    ILE B1539      -7.697  37.587   5.473  1.00 40.50 LIG-0.27  OA
BRANCH 58 60
ATOM     60  CA  ILE B1539      -9.403  37.844   7.142  1.00 40.24 LIG 0.40  C 
ATOM     61  N   ILE B1539      -8.853  36.641   7.847  1.00 42.50 LIG 0.61  N 
BRANCH 60 62
ATOM     62  CB  ILE B1539      -9.113  39.157   7.927  1.00 40.48 LIG 0.03  C 
ATOM     63  CG2 ILE B1539      -9.052  38.864   9.425  1.00 38.85 LIG 0.01  C 
BRANCH 62 64
ATOM     64  CG1 ILE B1539      -7.794  39.786   7.462  1.00 39.99 LIG 0.00  C 
ATOM     65  CD1 ILE B1539      -7.709  41.294   7.731  1.00 39.67 LIG 0.01  C 
ENDBRANCH 62 64
ENDBRANCH 60 62
ENDBRANCH 58 60
ENDBRANCH 54 56
ENDBRANCH 51 54
ENDBRANCH 48 50
ENDBRANCH 45 48
ENDBRANCH 43 44
BRANCH 43 66
ATOM     66  CB  TRP B1542      -4.235  39.025   6.207  1.00 29.93 LIG 0.07  C 
BRANCH 66 67
ATOM     67  CG  TRP B1542      -2.781  38.555   6.124  1.00 31.09 LIG-0.03  A 
ATOM     68  CD1 TRP B1542      -2.102  38.194   4.987  1.00 35.00 LIG 0.10  A 
ATOM     69  NE1 TRP B1542      -0.797  37.857   5.294  1.00 35.42 LIG-0.36  N 
ATOM     70 HE1  TRP B1542      -0.200  37.604   4.729  1.00 35.42 LIG 0.17  HD
ATOM     71  CE2 TRP B1542      -0.608  37.994   6.646  1.00 34.23 LIG 0.04  A 
ATOM     72  CD2 TRP B1542      -1.837  38.429   7.207  1.00 31.85 LIG-0.00  A 
ATOM     73  CZ2 TRP B1542       0.540  37.773   7.425  1.00 32.49 LIG 0.03  A 
ATOM     74  CE3 TRP B1542      -1.908  38.643   8.591  1.00 30.05 LIG 0.01  A 
ATOM     75  CZ3 TRP B1542      -0.766  38.423   9.367  1.00 29.28 LIG 0.00  A 
ATOM     76  CH2 TRP B1542       0.445  37.992   8.775  1.00 32.34 LIG 0.00  A 
ENDBRANCH 66 67
ENDBRANCH 43 66
ENDBRANCH 1 43
TORSDOF 26
ENDMDL
MODEL 14
USER: ADFR SOLUTION from run 165
USER: SCORE 21.443913 LL:  -5.424 LR: -18.167 RR:   0.000 FEB: -10.412
USER: RMSD 6.225437
USER: SEED 164
USER: STATUS no improvement in best in 8 clusters for 5 generations
USER: GENES 28
USER: genes 0 Translation |==|  0.42997 0.32419 0.59250
USER: genes 1 Rotation |==|  0.08896 0.59484 0.73659 0.62680
USER: genes 2 Torsion [C]-N--CA-[CB] |==|  0.68889
USER: genes 3 Torsion [N]-CA--CB-[CG] |==|  0.07298
USER: genes 4 Torsion [CA]-CB--CG-[CD1] |==|  0.13713
USER: genes 5 Torsion [CE1]-CZ--OH-[HH] |==|  0.11719
USER: genes 6 Torsion [N]-CA--C-[N] |==|  0.66328
USER: genes 7 Torsion [C]-N--CA-[CB] |==|  0.14397
USER: genes 8 Torsion [N]-CA--C-[N] |==|  0.65991
USER: genes 9 Torsion [C]-N--CA-[CB] |==|  0.81535
USER: genes 10 Torsion [N]-CA--CB-[CG] |==|  0.34946
USER: genes 11 Torsion [CA]-CB--CG-[CD] |==|  0.61013
USER: genes 12 Torsion [CB]-CG--CD-[NE] |==|  0.84717
USER: genes 13 Torsion [CG]-CD--NE-[HE] |==|  0.16502
USER: genes 14 Torsion [N]-CA--C-[O] |==|  0.20127
USER: genes 15 Torsion [N]-CA--CB-[CG] |==|  0.61767
USER: genes 16 Torsion [CA]-CB--CG-[CD1] |==|  0.83565
USER: genes 17 Torsion [N]-C--CA-[N] |==|  0.19436
USER: genes 18 Torsion [C]-CA--N-[C] |==|  0.14801
USER: genes 19 Torsion [N]-C--CA-[N] |==|  0.91287
USER: genes 20 Torsion [C]-CA--N-[C] |==|  0.84788
USER: genes 21 Torsion [N]-C--CA-[N] |==|  0.94606
USER: genes 22 Torsion [C]-CA--N-[C] |==|  0.71146
USER: genes 23 Torsion [N]-C--CA-[N] |==|  0.45201
USER: genes 24 Torsion [C]-CA--CB-[CG1] |==|  0.92187
USER: genes 25 Torsion [CA]-CB--CG1-[CD1] |==|  0.51754
USER: genes 26 Torsion [C]-CA--CB-[CG] |==|  0.24113
USER: genes 27 Torsion [CA]-CB--CG-[CD1] |==|  0.72699
ROOT
ATOM      1  C   TRP B1542      -4.086  40.534   4.204  1.00 26.55 LIG 0.24  C 
ATOM      2 O    TRP B1542      -3.450  39.912   3.365  1.00 27.86 LIG-0.27  OA
ATOM      3  N   TYR B1543      -4.316  41.837   4.106  1.00 24.62 LIG-0.35  N 
ATOM      4 H    TYR B1543      -4.693  42.310   4.718  1.00 24.62 LIG 0.16  HD
ENDROOT
BRANCH 3 5
ATOM      5  CA  TYR B1543      -3.933  42.579   2.918  1.00 22.31 LIG 0.18  C 
BRANCH 5 6
ATOM      6  CB  TYR B1543      -2.797  43.538   3.284  1.00 23.67 LIG 0.07  C 
BRANCH 6 7
ATOM      7  CG  TYR B1543      -1.941  43.117   4.462  1.00 24.58 LIG-0.06  A 
ATOM      8  CD1 TYR B1543      -1.412  41.829   4.536  1.00 24.59 LIG 0.01  A 
ATOM      9  CE1 TYR B1543      -0.690  41.413   5.644  1.00 26.50 LIG 0.04  A 
ATOM     10  CZ  TYR B1543      -0.500  42.293   6.691  1.00 24.60 LIG 0.07  A 
ATOM     11  CE2 TYR B1543      -1.015  43.586   6.631  1.00 24.06 LIG 0.04  A 
ATOM     12  CD2 TYR B1543      -1.720  43.983   5.527  1.00 22.62 LIG 0.01  A 
BRANCH 10 13
ATOM     13 OH   TYR B1543       0.167  41.877   7.807  1.00 26.51 LIG-0.36  OA
ATOM     14 HH   TYR B1543       0.834  41.418   7.580  1.00 26.51 LIG 0.22  HD
ENDBRANCH 10 13
ENDBRANCH 6 7
ENDBRANCH 5 6
BRANCH 5 15
ATOM     15  C   TYR B1543      -3.564  41.821   1.653  1.00 22.90 LIG 0.24  C 
ATOM     16  N   LEU B1544      -2.351  42.027   1.160  1.00 22.60 LIG-0.35  N 
ATOM     17 H    LEU B1544      -1.755  42.530   1.522  1.00 22.60 LIG 0.16  HD
ATOM     18 O    TYR B1543      -4.373  41.068   1.123  1.00 21.43 LIG-0.27  OA
BRANCH 16 19
ATOM     19  CA  LEU B1544      -1.945  41.383  -0.079  1.00 22.81 LIG 0.18  C 
BRANCH 19 20
ATOM     20  C   LEU B1544      -0.564  41.842  -0.537  1.00 21.53 LIG 0.24  C 
ATOM     21 O    LEU B1544       0.425  41.714   0.194  1.00 22.00 LIG-0.27  OA
ATOM     22  N   ARG B1545      -0.497  42.382  -1.749  1.00 20.14 LIG-0.35  N 
ATOM     23 H    ARG B1545      -1.165  42.487  -2.280  1.00 20.14 LIG 0.16  HD
BRANCH 22 24
ATOM     24  CA  ARG B1545       0.783  42.845  -2.258  1.00 18.95 LIG 0.16  C 
BRANCH 24 25
ATOM     25  CB  ARG B1545       1.277  44.042  -1.434  1.00 20.51 LIG 0.04  C 
BRANCH 25 26
ATOM     26  CG  ARG B1545       2.685  43.773  -0.905  1.00 20.78 LIG 0.02  C 
BRANCH 26 27
ATOM     27  CD  ARG B1545       2.897  44.269   0.523  1.00 21.13 LIG 0.14  C 
BRANCH 27 28
ATOM     28  NE  ARG B1545       2.566  45.694   0.630  1.00 20.56 LIG-0.23  N 
ATOM     29 HE   ARG B1545       1.767  45.940   0.429  1.00 20.56 LIG 0.18  HD
ATOM     30  CZ  ARG B1545       3.429  46.626   1.019  1.00 23.27 LIG 0.67  C 
ATOM     31  NH2 ARG B1545       3.060  47.913   1.062  1.00 19.37 LIG-0.23  N 
ATOM     32  NH1 ARG B1545       4.667  46.275   1.341  1.00 20.25 LIG-0.23  N 
ATOM     33 1HH2 ARG B1545       2.261  48.139   0.837  1.00 19.37 LIG 0.17  HD
ATOM     34 2HH2 ARG B1545       3.621  48.513   1.315  1.00 19.37 LIG 0.17  HD
ATOM     35 1HH1 ARG B1545       4.905  45.449   1.297  1.00 20.25 LIG 0.17  HD
ATOM     36 2HH1 ARG B1545       5.232  46.872   1.594  1.00 20.25 LIG 0.17  HD
ENDBRANCH 27 28
ENDBRANCH 26 27
ENDBRANCH 25 26
ENDBRANCH 24 25
BRANCH 24 37
ATOM     37  C   ARG B1545       1.823  41.733  -2.321  1.00 20.11 LIG 0.22  C 
ATOM     38 O    ARG B1545       1.671  40.868  -3.217  1.00 20.61 LIG-0.29  OA
ENDBRANCH 24 37
ENDBRANCH 22 24
ENDBRANCH 19 20
BRANCH 19 39
ATOM     39  CB  LEU B1544      -2.993  41.652  -1.167  1.00 22.71 LIG 0.04  C 
BRANCH 39 40
ATOM     40  CG  LEU B1544      -3.338  40.436  -2.042  1.00 23.46 LIG-0.02  C 
ATOM     41  CD1 LEU B1544      -2.057  39.951  -2.728  1.00 24.99 LIG 0.01  C 
ATOM     42  CD2 LEU B1544      -3.955  39.317  -1.213  1.00 22.67 LIG 0.01  C 
ENDBRANCH 39 40
ENDBRANCH 19 39
ENDBRANCH 16 19
ENDBRANCH 5 15
ENDBRANCH 3 5
BRANCH 1 43
ATOM     43  CA  TRP B1542      -4.625  39.826   5.442  1.00 29.62 LIG 0.18  C 
BRANCH 43 44
ATOM     44  N   TRP B1542      -6.083  39.723   5.452  1.00 31.24 LIG-0.35  N 
ATOM     45  C   ALA B1541      -6.728  39.198   4.423  1.00 34.20 LIG 0.24  C 
ATOM     46 O    ALA B1541      -6.138  38.743   3.445  1.00 33.88 LIG-0.27  OA
ATOM     47 H    TRP B1542      -6.464  40.025   6.162  1.00 31.24 LIG 0.16  HD
BRANCH 45 48
ATOM     48  CA  ALA B1541      -8.261  39.166   4.505  1.00 35.59 LIG 0.17  C 
ATOM     49  CB  ALA B1541      -8.849  40.430   3.836  1.00 37.24 LIG 0.04  C 
BRANCH 48 50
ATOM     50  N   ALA B1541      -8.825  39.024   5.855  1.00 36.68 LIG-0.35  N 
ATOM     51  C   ALA B1540      -8.483  38.026   6.664  1.00 36.41 LIG 0.24  C 
ATOM     52 O    ALA B1540      -7.634  37.181   6.361  1.00 35.55 LIG-0.27  OA
ATOM     53 H    ALA B1541      -9.387  39.639   6.067  1.00 36.68 LIG 0.16  HD
BRANCH 51 54
ATOM     54  CA  ALA B1540      -9.180  37.997   8.029  1.00 37.40 LIG 0.17  C 
ATOM     55  CB  ALA B1540     -10.285  36.928   8.040  1.00 38.11 LIG 0.04  C 
BRANCH 54 56
ATOM     56  N   ALA B1540      -9.752  39.294   8.386  1.00 38.31 LIG-0.35  N 
ATOM     57 H    ALA B1540     -10.481  39.482   7.970  1.00 38.31 LIG 0.16  HD
ATOM     58  C   ILE B1539      -9.187  40.102   9.272  1.00 39.48 LIG 0.26  C 
ATOM     59 O    ILE B1539      -8.143  39.825   9.848  1.00 40.50 LIG-0.27  OA
BRANCH 58 60
ATOM     60  CA  ILE B1539      -9.895  41.434   9.527  1.00 40.24 LIG 0.40  C 
ATOM     61  N   ILE B1539      -9.441  42.078  10.803  1.00 42.50 LIG 0.61  N 
BRANCH 60 62
ATOM     62  CB  ILE B1539      -9.635  42.349   8.294  1.00 40.48 LIG 0.03  C 
ATOM     63  CG2 ILE B1539      -9.620  43.813   8.728  1.00 38.85 LIG 0.01  C 
BRANCH 62 64
ATOM     64  CG1 ILE B1539      -8.304  41.987   7.623  1.00 39.99 LIG 0.00  C 
ATOM     65  CD1 ILE B1539      -7.910  42.948   6.494  1.00 39.67 LIG 0.01  C 
ENDBRANCH 62 64
ENDBRANCH 60 62
ENDBRANCH 58 60
ENDBRANCH 54 56
ENDBRANCH 51 54
ENDBRANCH 48 50
ENDBRANCH 45 48
ENDBRANCH 43 44
BRANCH 43 66
ATOM     66  CB  TRP B1542      -4.017  38.418   5.501  1.00 29.93 LIG 0.07  C 
BRANCH 66 67
ATOM     67  CG  TRP B1542      -2.661  38.363   6.208  1.00 31.09 LIG-0.03  A 
ATOM     68  CD1 TRP B1542      -1.426  38.355   5.610  1.00 35.00 LIG 0.10  A 
ATOM     69  NE1 TRP B1542      -0.429  38.336   6.567  1.00 35.42 LIG-0.36  N 
ATOM     70 HE1  TRP B1542       0.417  38.329   6.409  1.00 35.42 LIG 0.17  HD
ATOM     71  CE2 TRP B1542      -1.007  38.329   7.812  1.00 34.23 LIG 0.04  A 
ATOM     72  CD2 TRP B1542      -2.414  38.343   7.629  1.00 31.85 LIG-0.00  A 
ATOM     73  CZ2 TRP B1542      -0.412  38.313   9.084  1.00 32.49 LIG 0.03  A 
ATOM     74  CE3 TRP B1542      -3.241  38.337   8.762  1.00 30.05 LIG 0.01  A 
ATOM     75  CZ3 TRP B1542      -2.650  38.322  10.029  1.00 29.28 LIG 0.00  A 
ATOM     76  CH2 TRP B1542      -1.241  38.311  10.175  1.00 32.34 LIG 0.00  A 
ENDBRANCH 66 67
ENDBRANCH 43 66
ENDBRANCH 1 43
TORSDOF 26
ENDMDL
MODEL 15
USER: ADFR SOLUTION from run 95
USER: SCORE 21.105200 LL:  -5.156 LR: -18.169 RR:   0.000 FEB: -10.414
USER: RMSD 7.553545
USER: SEED 94
USER: STATUS no improvement in best in 4 clusters for 5 generations
USER: GENES 28
USER: genes 0 Translation |==|  0.48022 0.34142 0.64133
USER: genes 1 Rotation |==|  0.99004 0.56091 0.42187 0.50657
USER: genes 2 Torsion [C]-N--CA-[CB] |==|  0.32954
USER: genes 3 Torsion [N]-CA--CB-[CG] |==|  0.59772
USER: genes 4 Torsion [CA]-CB--CG-[CD1] |==|  0.38060
USER: genes 5 Torsion [CE1]-CZ--OH-[HH] |==|  0.83110
USER: genes 6 Torsion [N]-CA--C-[N] |==|  0.86111
USER: genes 7 Torsion [C]-N--CA-[CB] |==|  0.85738
USER: genes 8 Torsion [N]-CA--C-[N] |==|  0.86127
USER: genes 9 Torsion [C]-N--CA-[CB] |==|  0.50645
USER: genes 10 Torsion [N]-CA--CB-[CG] |==|  0.80746
USER: genes 11 Torsion [CA]-CB--CG-[CD] |==|  0.62710
USER: genes 12 Torsion [CB]-CG--CD-[NE] |==|  0.62728
USER: genes 13 Torsion [CG]-CD--NE-[HE] |==|  0.23311
USER: genes 14 Torsion [N]-CA--C-[O] |==|  0.90215
USER: genes 15 Torsion [N]-CA--CB-[CG] |==|  0.64005
USER: genes 16 Torsion [CA]-CB--CG-[CD1] |==|  0.62237
USER: genes 17 Torsion [N]-C--CA-[N] |==|  0.08266
USER: genes 18 Torsion [C]-CA--N-[C] |==|  0.61170
USER: genes 19 Torsion [N]-C--CA-[N] |==|  0.43012
USER: genes 20 Torsion [C]-CA--N-[C] |==|  0.80500
USER: genes 21 Torsion [N]-C--CA-[N] |==|  0.91140
USER: genes 22 Torsion [C]-CA--N-[C] |==|  0.81780
USER: genes 23 Torsion [N]-C--CA-[N] |==|  0.35053
USER: genes 24 Torsion [C]-CA--CB-[CG1] |==|  0.08904
USER: genes 25 Torsion [CA]-CB--CG1-[CD1] |==|  0.50697
USER: genes 26 Torsion [C]-CA--CB-[CG] |==|  0.34881
USER: genes 27 Torsion [CA]-CB--CG-[CD1] |==|  0.13859
ROOT
ATOM      1  C   TRP B1542      -2.918  40.870   5.120  1.00 26.55 LIG 0.24  C 
ATOM      2 O    TRP B1542      -1.699  40.818   5.207  1.00 27.86 LIG-0.27  OA
ATOM      3  N   TYR B1543      -3.539  41.645   4.239  1.00 24.62 LIG-0.35  N 
ATOM      4 H    TYR B1543      -4.392  41.757   4.209  1.00 24.62 LIG 0.16  HD
ENDROOT
BRANCH 3 5
ATOM      5  CA  TYR B1543      -2.796  42.382   3.234  1.00 22.31 LIG 0.18  C 
BRANCH 5 6
ATOM      6  CB  TYR B1543      -3.240  41.905   1.848  1.00 23.67 LIG 0.07  C 
BRANCH 6 7
ATOM      7  CG  TYR B1543      -2.154  41.866   0.792  1.00 24.58 LIG-0.06  A 
ATOM      8  CD1 TYR B1543      -2.049  40.786  -0.084  1.00 24.59 LIG 0.01  A 
ATOM      9  CE1 TYR B1543      -1.015  40.707  -1.004  1.00 26.50 LIG 0.04  A 
ATOM     10  CZ  TYR B1543      -0.073  41.717  -1.045  1.00 24.60 LIG 0.07  A 
ATOM     11  CE2 TYR B1543      -0.167  42.807  -0.183  1.00 24.06 LIG 0.04  A 
ATOM     12  CD2 TYR B1543      -1.198  42.873   0.715  1.00 22.62 LIG 0.01  A 
BRANCH 10 13
ATOM     13 OH   TYR B1543       0.975  41.624  -1.914  1.00 26.51 LIG-0.36  OA
ATOM     14 HH   TYR B1543       1.427  40.938  -1.735  1.00 26.51 LIG 0.22  HD
ENDBRANCH 10 13
ENDBRANCH 6 7
ENDBRANCH 5 6
BRANCH 5 15
ATOM     15  C   TYR B1543      -2.799  43.902   3.268  1.00 22.90 LIG 0.24  C 
ATOM     16  N   LEU B1544      -3.979  44.499   3.363  1.00 22.60 LIG-0.35  N 
ATOM     17 H    LEU B1544      -4.731  44.089   3.438  1.00 22.60 LIG 0.16  HD
ATOM     18 O    TYR B1543      -1.747  44.526   3.199  1.00 21.43 LIG-0.27  OA
BRANCH 16 19
ATOM     19  CA  LEU B1544      -4.068  45.950   3.344  1.00 22.81 LIG 0.18  C 
BRANCH 19 20
ATOM     20  C   LEU B1544      -3.786  46.522   1.959  1.00 21.53 LIG 0.24  C 
ATOM     21 O    LEU B1544      -4.553  47.339   1.437  1.00 22.00 LIG-0.27  OA
ATOM     22  N   ARG B1545      -2.682  46.090   1.359  1.00 20.14 LIG-0.35  N 
ATOM     23 H    ARG B1545      -2.129  45.522   1.693  1.00 20.14 LIG 0.16  HD
BRANCH 22 24
ATOM     24  CA  ARG B1545      -2.342  46.587   0.036  1.00 18.95 LIG 0.16  C 
BRANCH 24 25
ATOM     25  CB  ARG B1545      -1.064  45.905  -0.471  1.00 20.51 LIG 0.04  C 
BRANCH 25 26
ATOM     26  CG  ARG B1545       0.143  46.377   0.340  1.00 20.78 LIG 0.02  C 
BRANCH 26 27
ATOM     27  CD  ARG B1545       1.346  46.742  -0.526  1.00 21.13 LIG 0.14  C 
BRANCH 27 28
ATOM     28  NE  ARG B1545       2.574  46.161   0.025  1.00 20.56 LIG-0.23  N 
ATOM     29 HE   ARG B1545       2.763  45.346  -0.175  1.00 20.56 LIG 0.18  HD
ATOM     30  CZ  ARG B1545       3.414  46.821   0.816  1.00 23.27 LIG 0.67  C 
ATOM     31  NH2 ARG B1545       4.502  46.211   1.305  1.00 19.37 LIG-0.23  N 
ATOM     32  NH1 ARG B1545       3.153  48.081   1.137  1.00 20.25 LIG-0.23  N 
ATOM     33 1HH2 ARG B1545       4.660  45.389   1.108  1.00 19.37 LIG 0.17  HD
ATOM     34 2HH2 ARG B1545       5.043  46.641   1.817  1.00 19.37 LIG 0.17  HD
ATOM     35 1HH1 ARG B1545       2.445  48.464   0.834  1.00 20.25 LIG 0.17  HD
ATOM     36 2HH1 ARG B1545       3.691  48.515   1.649  1.00 20.25 LIG 0.17  HD
ENDBRANCH 27 28
ENDBRANCH 26 27
ENDBRANCH 25 26
ENDBRANCH 24 25
BRANCH 24 37
ATOM     37  C   ARG B1545      -3.492  46.446  -0.953  1.00 20.11 LIG 0.22  C 
ATOM     38 O    ARG B1545      -4.221  45.433  -0.831  1.00 20.61 LIG-0.29  OA
ENDBRANCH 24 37
ENDBRANCH 22 24
ENDBRANCH 19 20
BRANCH 19 39
ATOM     39  CB  LEU B1544      -3.102  46.540   4.380  1.00 22.71 LIG 0.04  C 
BRANCH 39 40
ATOM     40  CG  LEU B1544      -3.731  47.569   5.332  1.00 23.46 LIG-0.02  C 
ATOM     41  CD1 LEU B1544      -2.772  48.756   5.468  1.00 24.99 LIG 0.01  C 
ATOM     42  CD2 LEU B1544      -5.088  48.036   4.822  1.00 22.67 LIG 0.01  C 
ENDBRANCH 39 40
ENDBRANCH 19 39
ENDBRANCH 16 19
ENDBRANCH 5 15
ENDBRANCH 3 5
BRANCH 1 43
ATOM     43  CA  TRP B1542      -3.793  40.052   6.063  1.00 29.62 LIG 0.18  C 
BRANCH 43 44
ATOM     44  N   TRP B1542      -5.081  39.689   5.475  1.00 31.24 LIG-0.35  N 
ATOM     45  C   ALA B1541      -6.186  39.726   6.201  1.00 34.20 LIG 0.24  C 
ATOM     46 O    ALA B1541      -6.187  40.100   7.372  1.00 33.88 LIG-0.27  OA
ATOM     47 H    TRP B1542      -5.050  39.459   4.647  1.00 31.24 LIG 0.16  HD
BRANCH 45 48
ATOM     48  CA  ALA B1541      -7.487  39.291   5.511  1.00 35.59 LIG 0.17  C 
ATOM     49  CB  ALA B1541      -8.046  40.455   4.660  1.00 37.24 LIG 0.04  C 
BRANCH 48 50
ATOM     50  N   ALA B1541      -8.545  38.790   6.400  1.00 36.68 LIG-0.35  N 
ATOM     51  C   ALA B1540      -8.446  37.623   7.031  1.00 36.41 LIG 0.24  C 
ATOM     52 O    ALA B1540      -7.443  36.906   6.955  1.00 35.55 LIG-0.27  OA
ATOM     53 H    ALA B1541      -9.221  39.316   6.473  1.00 36.68 LIG 0.16  HD
BRANCH 51 54
ATOM     54  CA  ALA B1540      -9.645  37.224   7.900  1.00 37.40 LIG 0.17  C 
ATOM     55  CB  ALA B1540     -10.655  36.412   7.073  1.00 38.11 LIG 0.04  C 
BRANCH 54 56
ATOM     56  N   ALA B1540     -10.313  38.384   8.486  1.00 38.31 LIG-0.35  N 
ATOM     57 H    ALA B1540     -11.115  38.508   8.200  1.00 38.31 LIG 0.16  HD
ATOM     58  C   ILE B1539      -9.725  39.169   9.378  1.00 39.48 LIG 0.26  C 
ATOM     59 O    ILE B1539      -8.579  38.986   9.766  1.00 40.50 LIG-0.27  OA
BRANCH 58 60
ATOM     60  CA  ILE B1539     -10.547  40.354   9.887  1.00 40.24 LIG 0.40  C 
ATOM     61  N   ILE B1539     -10.630  40.380  11.384  1.00 42.50 LIG 0.61  N 
BRANCH 60 62
ATOM     62  CB  ILE B1539      -9.900  41.654   9.322  1.00 40.48 LIG 0.03  C 
ATOM     63  CG2 ILE B1539      -8.835  42.167  10.290  1.00 38.85 LIG 0.01  C 
BRANCH 62 64
ATOM     64  CG1 ILE B1539      -9.276  41.393   7.946  1.00 39.99 LIG 0.00  C 
ATOM     65  CD1 ILE B1539      -8.566  42.619   7.357  1.00 39.67 LIG 0.01  C 
ENDBRANCH 62 64
ENDBRANCH 60 62
ENDBRANCH 58 60
ENDBRANCH 54 56
ENDBRANCH 51 54
ENDBRANCH 48 50
ENDBRANCH 45 48
ENDBRANCH 43 44
BRANCH 43 66
ATOM     66  CB  TRP B1542      -3.033  38.775   6.447  1.00 29.93 LIG 0.07  C 
BRANCH 66 67
ATOM     67  CG  TRP B1542      -2.900  38.570   7.957  1.00 31.09 LIG-0.03  A 
ATOM     68  CD1 TRP B1542      -3.911  38.634   8.884  1.00 35.00 LIG 0.10  A 
ATOM     69  NE1 TRP B1542      -3.422  38.361  10.148  1.00 35.42 LIG-0.36  N 
ATOM     70 HE1  TRP B1542      -3.887  38.347  10.871  1.00 35.42 LIG 0.17  HD
ATOM     71  CE2 TRP B1542      -2.075  38.116  10.060  1.00 34.23 LIG 0.04  A 
ATOM     72  CD2 TRP B1542      -1.706  38.240   8.696  1.00 31.85 LIG-0.00  A 
ATOM     73  CZ2 TRP B1542      -1.149  37.793  11.066  1.00 32.49 LIG 0.03  A 
ATOM     74  CE3 TRP B1542      -0.365  38.037   8.339  1.00 30.05 LIG 0.01  A 
ATOM     75  CZ3 TRP B1542       0.558  37.715   9.339  1.00 29.28 LIG 0.00  A 
ATOM     76  CH2 TRP B1542       0.155  37.596  10.691  1.00 32.34 LIG 0.00  A 
ENDBRANCH 66 67
ENDBRANCH 43 66
ENDBRANCH 1 43
TORSDOF 26
ENDMDL
MODEL 16
USER: ADFR SOLUTION from run 88
USER: SCORE 21.497928 LL:  -5.767 LR: -18.137 RR:   0.000 FEB: -10.381
USER: RMSD 5.487370
USER: SEED 87
USER: STATUS no improvement in best in 6 clusters for 5 generations
USER: GENES 28
USER: genes 0 Translation |==|  0.39858 0.49147 0.56582
USER: genes 1 Rotation |==|  0.38135 0.72275 0.65777 0.90176
USER: genes 2 Torsion [C]-N--CA-[CB] |==|  0.46186
USER: genes 3 Torsion [N]-CA--CB-[CG] |==|  0.16608
USER: genes 4 Torsion [CA]-CB--CG-[CD1] |==|  0.57564
USER: genes 5 Torsion [CE1]-CZ--OH-[HH] |==|  0.12330
USER: genes 6 Torsion [N]-CA--C-[N] |==|  0.95778
USER: genes 7 Torsion [C]-N--CA-[CB] |==|  0.56421
USER: genes 8 Torsion [N]-CA--C-[N] |==|  0.34710
USER: genes 9 Torsion [C]-N--CA-[CB] |==|  0.30320
USER: genes 10 Torsion [N]-CA--CB-[CG] |==|  0.69060
USER: genes 11 Torsion [CA]-CB--CG-[CD] |==|  0.43297
USER: genes 12 Torsion [CB]-CG--CD-[NE] |==|  0.06231
USER: genes 13 Torsion [CG]-CD--NE-[HE] |==|  0.99176
USER: genes 14 Torsion [N]-CA--C-[O] |==|  0.32889
USER: genes 15 Torsion [N]-CA--CB-[CG] |==|  0.85241
USER: genes 16 Torsion [CA]-CB--CG-[CD1] |==|  0.50941
USER: genes 17 Torsion [N]-C--CA-[N] |==|  0.37524
USER: genes 18 Torsion [C]-CA--N-[C] |==|  0.83889
USER: genes 19 Torsion [N]-C--CA-[N] |==|  0.41406
USER: genes 20 Torsion [C]-CA--N-[C] |==|  0.83722
USER: genes 21 Torsion [N]-C--CA-[N] |==|  0.80164
USER: genes 22 Torsion [C]-CA--N-[C] |==|  0.75663
USER: genes 23 Torsion [N]-C--CA-[N] |==|  0.44647
USER: genes 24 Torsion [C]-CA--CB-[CG1] |==|  0.92611
USER: genes 25 Torsion [CA]-CB--CG1-[CD1] |==|  0.55490
USER: genes 26 Torsion [C]-CA--CB-[CG] |==|  0.34071
USER: genes 27 Torsion [CA]-CB--CG-[CD1] |==|  0.24915
ROOT
ATOM      1  C   TRP B1542      -4.816  43.796   3.704  1.00 26.55 LIG 0.24  C 
ATOM      2 O    TRP B1542      -4.880  44.056   2.511  1.00 27.86 LIG-0.27  OA
ATOM      3  N   TYR B1543      -3.670  43.793   4.374  1.00 24.62 LIG-0.35  N 
ATOM      4 H    TYR B1543      -3.588  43.540   5.193  1.00 24.62 LIG 0.16  HD
ENDROOT
BRANCH 3 5
ATOM      5  CA  TYR B1543      -2.436  44.233   3.750  1.00 22.31 LIG 0.18  C 
BRANCH 5 6
ATOM      6  CB  TYR B1543      -1.382  44.443   4.841  1.00 23.67 LIG 0.07  C 
BRANCH 6 7
ATOM      7  CG  TYR B1543      -1.048  43.219   5.671  1.00 24.58 LIG-0.06  A 
ATOM      8  CD1 TYR B1543      -0.586  43.349   6.980  1.00 24.59 LIG 0.01  A 
ATOM      9  CE1 TYR B1543      -0.208  42.240   7.720  1.00 26.50 LIG 0.04  A 
ATOM     10  CZ  TYR B1543      -0.289  40.987   7.142  1.00 24.60 LIG 0.07  A 
ATOM     11  CE2 TYR B1543      -0.755  40.838   5.839  1.00 24.06 LIG 0.04  A 
ATOM     12  CD2 TYR B1543      -1.131  41.944   5.124  1.00 22.62 LIG 0.01  A 
BRANCH 10 13
ATOM     13 OH   TYR B1543       0.127  39.894   7.846  1.00 26.51 LIG-0.36  OA
ATOM     14 HH   TYR B1543      -0.163  39.941   8.634  1.00 26.51 LIG 0.22  HD
ENDBRANCH 10 13
ENDBRANCH 6 7
ENDBRANCH 5 6
BRANCH 5 15
ATOM     15  C   TYR B1543      -1.835  43.408   2.622  1.00 22.90 LIG 0.24  C 
ATOM     16  N   LEU B1544      -2.294  42.174   2.469  1.00 22.60 LIG-0.35  N 
ATOM     17 H    LEU B1544      -2.923  41.824   2.938  1.00 22.60 LIG 0.16  HD
ATOM     18 O    TYR B1543      -0.959  43.881   1.907  1.00 21.43 LIG-0.27  OA
BRANCH 16 19
ATOM     19  CA  LEU B1544      -1.729  41.305   1.449  1.00 22.81 LIG 0.18  C 
BRANCH 19 20
ATOM     20  C   LEU B1544      -1.299  42.083   0.210  1.00 21.53 LIG 0.24  C 
ATOM     21 O    LEU B1544      -2.093  42.812  -0.394  1.00 22.00 LIG-0.27  OA
ATOM     22  N   ARG B1545      -0.036  41.926  -0.173  1.00 20.14 LIG-0.35  N 
ATOM     23 H    ARG B1545       0.541  41.426   0.223  1.00 20.14 LIG 0.16  HD
BRANCH 22 24
ATOM     24  CA  ARG B1545       0.452  42.633  -1.346  1.00 18.95 LIG 0.16  C 
BRANCH 24 25
ATOM     25  CB  ARG B1545       1.425  43.743  -0.925  1.00 20.51 LIG 0.04  C 
BRANCH 25 26
ATOM     26  CG  ARG B1545       0.804  45.115  -1.190  1.00 20.78 LIG 0.02  C 
BRANCH 26 27
ATOM     27  CD  ARG B1545       1.387  46.219  -0.313  1.00 21.13 LIG 0.14  C 
BRANCH 27 28
ATOM     28  NE  ARG B1545       2.719  45.845   0.173  1.00 20.56 LIG-0.23  N 
ATOM     29 HE   ARG B1545       3.020  45.065  -0.032  1.00 20.56 LIG 0.18  HD
ATOM     30  CZ  ARG B1545       3.487  46.639   0.911  1.00 23.27 LIG 0.67  C 
ATOM     31  NH2 ARG B1545       4.682  46.212   1.344  1.00 19.37 LIG-0.23  N 
ATOM     32  NH1 ARG B1545       3.051  47.849   1.237  1.00 20.25 LIG-0.23  N 
ATOM     33 1HH2 ARG B1545       4.954  45.422   1.144  1.00 19.37 LIG 0.17  HD
ATOM     34 2HH2 ARG B1545       5.175  46.729   1.821  1.00 19.37 LIG 0.17  HD
ATOM     35 1HH1 ARG B1545       2.277  48.113   0.971  1.00 20.25 LIG 0.17  HD
ATOM     36 2HH1 ARG B1545       3.542  48.369   1.714  1.00 20.25 LIG 0.17  HD
ENDBRANCH 27 28
ENDBRANCH 26 27
ENDBRANCH 25 26
ENDBRANCH 24 25
BRANCH 24 37
ATOM     37  C   ARG B1545       1.070  41.697  -2.376  1.00 20.11 LIG 0.22  C 
ATOM     38 O    ARG B1545       0.524  41.659  -3.504  1.00 20.61 LIG-0.29  OA
ENDBRANCH 24 37
ENDBRANCH 22 24
ENDBRANCH 19 20
BRANCH 19 39
ATOM     39  CB  LEU B1544      -2.744  40.216   1.079  1.00 22.71 LIG 0.04  C 
BRANCH 39 40
ATOM     40  CG  LEU B1544      -3.294  39.418   2.272  1.00 23.46 LIG-0.02  C 
ATOM     41  CD1 LEU B1544      -4.222  38.323   1.738  1.00 24.99 LIG 0.01  C 
ATOM     42  CD2 LEU B1544      -2.167  38.808   3.094  1.00 22.67 LIG 0.01  C 
ENDBRANCH 39 40
ENDBRANCH 19 39
ENDBRANCH 16 19
ENDBRANCH 5 15
ENDBRANCH 3 5
BRANCH 1 43
ATOM     43  CA  TRP B1542      -6.074  43.422   4.480  1.00 29.62 LIG 0.18  C 
BRANCH 43 44
ATOM     44  N   TRP B1542      -7.198  44.316   4.210  1.00 31.24 LIG-0.35  N 
ATOM     45  C   ALA B1541      -7.092  45.616   4.432  1.00 34.20 LIG 0.24  C 
ATOM     46 O    ALA B1541      -6.049  46.129   4.831  1.00 33.88 LIG-0.27  OA
ATOM     47 H    TRP B1542      -7.904  43.930   3.905  1.00 31.24 LIG 0.16  HD
BRANCH 45 48
ATOM     48  CA  ALA B1541      -8.337  46.473   4.155  1.00 35.59 LIG 0.17  C 
ATOM     49  CB  ALA B1541      -8.365  46.894   2.667  1.00 37.24 LIG 0.04  C 
BRANCH 48 50
ATOM     50  N   ALA B1541      -8.491  47.665   5.000  1.00 36.68 LIG-0.35  N 
ATOM     51  C   ALA B1540      -8.565  47.589   6.326  1.00 36.41 LIG 0.24  C 
ATOM     52 O    ALA B1540      -8.458  46.523   6.940  1.00 35.55 LIG-0.27  OA
ATOM     53 H    ALA B1541      -8.528  48.404   4.562  1.00 36.68 LIG 0.16  HD
BRANCH 51 54
ATOM     54  CA  ALA B1540      -8.756  48.918   7.066  1.00 37.40 LIG 0.17  C 
ATOM     55  CB  ALA B1540      -9.933  49.700   6.462  1.00 38.11 LIG 0.04  C 
BRANCH 54 56
ATOM     56  N   ALA B1540      -7.552  49.747   7.035  1.00 38.31 LIG-0.35  N 
ATOM     57 H    ALA B1540      -7.527  50.303   6.380  1.00 38.31 LIG 0.16  HD
ATOM     58  C   ILE B1539      -6.591  49.640   7.942  1.00 39.48 LIG 0.26  C 
ATOM     59 O    ILE B1539      -6.637  48.836   8.863  1.00 40.50 LIG-0.27  OA
BRANCH 58 60
ATOM     60  CA  ILE B1539      -5.384  50.564   7.766  1.00 40.24 LIG 0.40  C 
ATOM     61  N   ILE B1539      -4.599  50.712   9.034  1.00 42.50 LIG 0.61  N 
BRANCH 60 62
ATOM     62  CB  ILE B1539      -4.513  49.986   6.611  1.00 40.48 LIG 0.03  C 
ATOM     63  CG2 ILE B1539      -3.040  50.299   6.866  1.00 38.85 LIG 0.01  C 
BRANCH 62 64
ATOM     64  CG1 ILE B1539      -4.714  48.471   6.488  1.00 39.99 LIG 0.00  C 
ATOM     65  CD1 ILE B1539      -3.578  47.765   5.735  1.00 39.67 LIG 0.01  C 
ENDBRANCH 62 64
ENDBRANCH 60 62
ENDBRANCH 58 60
ENDBRANCH 54 56
ENDBRANCH 51 54
ENDBRANCH 48 50
ENDBRANCH 45 48
ENDBRANCH 43 44
BRANCH 43 66
ATOM     66  CB  TRP B1542      -6.467  41.986   4.107  1.00 29.93 LIG 0.07  C 
BRANCH 66 67
ATOM     67  CG  TRP B1542      -6.551  41.041   5.307  1.00 31.09 LIG-0.03  A 
ATOM     68  CD1 TRP B1542      -7.659  40.798   6.081  1.00 35.00 LIG 0.10  A 
ATOM     69  NE1 TRP B1542      -7.368  39.860   7.054  1.00 35.42 LIG-0.36  N 
ATOM     70 HE1  TRP B1542      -7.920  39.563   7.644  1.00 35.42 LIG 0.17  HD
ATOM     71  CE2 TRP B1542      -6.056  39.478   6.926  1.00 34.23 LIG 0.04  A 
ATOM     72  CD2 TRP B1542      -5.505  40.202   5.838  1.00 31.85 LIG-0.00  A 
ATOM     73  CZ2 TRP B1542      -5.307  38.555   7.675  1.00 32.49 LIG 0.03  A 
ATOM     74  CE3 TRP B1542      -4.160  39.991   5.500  1.00 30.05 LIG 0.01  A 
ATOM     75  CZ3 TRP B1542      -3.413  39.072   6.244  1.00 29.28 LIG 0.00  A 
ATOM     76  CH2 TRP B1542      -3.996  38.365   7.323  1.00 32.34 LIG 0.00  A 
ENDBRANCH 66 67
ENDBRANCH 43 66
ENDBRANCH 1 43
TORSDOF 26
ENDMDL
MODEL 17
USER: ADFR SOLUTION from run 167
USER: SCORE 22.934379 LL:  -6.471 LR: -18.135 RR:   0.000 FEB: -10.379
USER: RMSD 6.140229
USER: SEED 166
USER: STATUS no improvement in best in 1 clusters for 5 generations
USER: GENES 28
USER: genes 0 Translation |==|  0.50419 0.36279 0.42014
USER: genes 1 Rotation |==|  0.89373 0.62990 0.23323 0.58325
USER: genes 2 Torsion [C]-N--CA-[CB] |==|  0.70333
USER: genes 3 Torsion [N]-CA--CB-[CG] |==|  0.16029
USER: genes 4 Torsion [CA]-CB--CG-[CD1] |==|  0.60641
USER: genes 5 Torsion [CE1]-CZ--OH-[HH] |==|  0.01360
USER: genes 6 Torsion [N]-CA--C-[N] |==|  0.13005
USER: genes 7 Torsion [C]-N--CA-[CB] |==|  0.82025
USER: genes 8 Torsion [N]-CA--C-[N] |==|  0.12979
USER: genes 9 Torsion [C]-N--CA-[CB] |==|  0.49671
USER: genes 10 Torsion [N]-CA--CB-[CG] |==|  0.64198
USER: genes 11 Torsion [CA]-CB--CG-[CD] |==|  0.79854
USER: genes 12 Torsion [CB]-CG--CD-[NE] |==|  0.62182
USER: genes 13 Torsion [CG]-CD--NE-[HE] |==|  0.29299
USER: genes 14 Torsion [N]-CA--C-[O] |==|  0.01584
USER: genes 15 Torsion [N]-CA--CB-[CG] |==|  0.60648
USER: genes 16 Torsion [CA]-CB--CG-[CD1] |==|  0.70081
USER: genes 17 Torsion [N]-C--CA-[N] |==|  0.86704
USER: genes 18 Torsion [C]-CA--N-[C] |==|  0.82441
USER: genes 19 Torsion [N]-C--CA-[N] |==|  0.94361
USER: genes 20 Torsion [C]-CA--N-[C] |==|  0.82222
USER: genes 21 Torsion [N]-C--CA-[N] |==|  0.86754
USER: genes 22 Torsion [C]-CA--N-[C] |==|  0.80793
USER: genes 23 Torsion [N]-C--CA-[N] |==|  0.85724
USER: genes 24 Torsion [C]-CA--CB-[CG1] |==|  0.11873
USER: genes 25 Torsion [CA]-CB--CG1-[CD1] |==|  0.59288
USER: genes 26 Torsion [C]-CA--CB-[CG] |==|  0.51895
USER: genes 27 Torsion [CA]-CB--CG-[CD1] |==|  0.45382
ROOT
ATOM      1  C   TRP B1542      -2.361  41.286   0.973  1.00 26.55 LIG 0.24  C 
ATOM      2 O    TRP B1542      -1.499  41.500   0.131  1.00 27.86 LIG-0.27  OA
ATOM      3  N   TYR B1543      -3.655  41.455   0.729  1.00 24.62 LIG-0.35  N 
ATOM      4 H    TYR B1543      -4.272  41.385   1.324  1.00 24.62 LIG 0.16  HD
ENDROOT
BRANCH 3 5
ATOM      5  CA  TYR B1543      -4.131  41.779  -0.603  1.00 22.31 LIG 0.18  C 
BRANCH 5 6
ATOM      6  CB  TYR B1543      -4.564  43.247  -0.625  1.00 23.67 LIG 0.07  C 
BRANCH 6 7
ATOM      7  CG  TYR B1543      -3.494  44.249  -0.237  1.00 24.58 LIG-0.06  A 
ATOM      8  CD1 TYR B1543      -3.813  45.372   0.526  1.00 24.59 LIG 0.01  A 
ATOM      9  CE1 TYR B1543      -2.856  46.331   0.824  1.00 26.50 LIG 0.04  A 
ATOM     10  CZ  TYR B1543      -1.570  46.167   0.348  1.00 24.60 LIG 0.07  A 
ATOM     11  CE2 TYR B1543      -1.233  45.048  -0.410  1.00 24.06 LIG 0.04  A 
ATOM     12  CD2 TYR B1543      -2.187  44.107  -0.688  1.00 22.62 LIG 0.01  A 
BRANCH 10 13
ATOM     13 OH   TYR B1543      -0.634  47.130   0.594  1.00 26.51 LIG-0.36  OA
ATOM     14 HH   TYR B1543      -0.963  47.719   1.095  1.00 26.51 LIG 0.22  HD
ENDBRANCH 10 13
ENDBRANCH 6 7
ENDBRANCH 5 6
BRANCH 5 15
ATOM     15  C   TYR B1543      -3.240  41.498  -1.803  1.00 22.90 LIG 0.24  C 
ATOM     16  N   LEU B1544      -2.658  40.308  -1.855  1.00 22.60 LIG-0.35  N 
ATOM     17 H    LEU B1544      -2.775  39.681  -1.279  1.00 22.60 LIG 0.16  HD
ATOM     18 O    TYR B1543      -3.073  42.353  -2.665  1.00 21.43 LIG-0.27  OA
BRANCH 16 19
ATOM     19  CA  LEU B1544      -1.746  39.987  -2.941  1.00 22.81 LIG 0.18  C 
BRANCH 19 20
ATOM     20  C   LEU B1544      -0.570  40.956  -3.006  1.00 21.53 LIG 0.24  C 
ATOM     21 O    LEU B1544      -0.214  41.457  -4.079  1.00 22.00 LIG-0.27  OA
ATOM     22  N   ARG B1545       0.038  41.220  -1.854  1.00 20.14 LIG-0.35  N 
ATOM     23 H    ARG B1545      -0.183  40.888  -1.093  1.00 20.14 LIG 0.16  HD
BRANCH 22 24
ATOM     24  CA  ARG B1545       1.168  42.133  -1.832  1.00 18.95 LIG 0.16  C 
BRANCH 24 25
ATOM     25  CB  ARG B1545       1.682  42.302  -0.396  1.00 20.51 LIG 0.04  C 
BRANCH 25 26
ATOM     26  CG  ARG B1545       1.795  43.787  -0.048  1.00 20.78 LIG 0.02  C 
BRANCH 26 27
ATOM     27  CD  ARG B1545       2.961  44.481  -0.747  1.00 21.13 LIG 0.14  C 
BRANCH 27 28
ATOM     28  NE  ARG B1545       3.679  45.354   0.187  1.00 20.56 LIG-0.23  N 
ATOM     29 HE   ARG B1545       4.444  45.093   0.479  1.00 20.56 LIG 0.18  HD
ATOM     30  CZ  ARG B1545       3.215  46.526   0.610  1.00 23.27 LIG 0.67  C 
ATOM     31  NH2 ARG B1545       3.917  47.253   1.490  1.00 19.37 LIG-0.23  N 
ATOM     32  NH1 ARG B1545       2.040  46.958   0.172  1.00 20.25 LIG-0.23  N 
ATOM     33 1HH2 ARG B1545       4.671  46.962   1.783  1.00 19.37 LIG 0.17  HD
ATOM     34 2HH2 ARG B1545       3.613  48.010   1.760  1.00 19.37 LIG 0.17  HD
ATOM     35 1HH1 ARG B1545       1.584  46.481  -0.380  1.00 20.25 LIG 0.17  HD
ATOM     36 2HH1 ARG B1545       1.732  47.715   0.440  1.00 20.25 LIG 0.17  HD
ENDBRANCH 27 28
ENDBRANCH 26 27
ENDBRANCH 25 26
ENDBRANCH 24 25
BRANCH 24 37
ATOM     37  C   ARG B1545       2.278  41.712  -2.786  1.00 20.11 LIG 0.22  C 
ATOM     38 O    ARG B1545       2.042  40.729  -3.529  1.00 20.61 LIG-0.29  OA
ENDBRANCH 24 37
ENDBRANCH 22 24
ENDBRANCH 19 20
BRANCH 19 39
ATOM     39  CB  LEU B1544      -2.512  39.975  -4.270  1.00 22.71 LIG 0.04  C 
BRANCH 39 40
ATOM     40  CG  LEU B1544      -2.080  38.874  -5.251  1.00 23.46 LIG-0.02  C 
ATOM     41  CD1 LEU B1544      -1.304  39.523  -6.402  1.00 24.99 LIG 0.01  C 
ATOM     42  CD2 LEU B1544      -1.224  37.822  -4.558  1.00 22.67 LIG 0.01  C 
ENDBRANCH 39 40
ENDBRANCH 19 39
ENDBRANCH 16 19
ENDBRANCH 5 15
ENDBRANCH 3 5
BRANCH 1 43
ATOM     43  CA  TRP B1542      -1.972  40.839   2.377  1.00 29.62 LIG 0.18  C 
BRANCH 43 44
ATOM     44  N   TRP B1542      -2.626  41.619   3.426  1.00 31.24 LIG-0.35  N 
ATOM     45  C   ALA B1541      -2.391  42.915   3.547  1.00 34.20 LIG 0.24  C 
ATOM     46 O    ALA B1541      -1.656  43.522   2.771  1.00 33.88 LIG-0.27  OA
ATOM     47 H    TRP B1542      -3.155  41.171   3.935  1.00 31.24 LIG 0.16  HD
BRANCH 45 48
ATOM     48  CA  ALA B1541      -3.093  43.645   4.702  1.00 35.59 LIG 0.17  C 
ATOM     49  CB  ALA B1541      -2.083  43.920   5.840  1.00 37.24 LIG 0.04  C 
BRANCH 48 50
ATOM     50  N   ALA B1541      -4.277  42.973   5.255  1.00 36.68 LIG-0.35  N 
ATOM     51  C   ALA B1540      -5.376  42.768   4.535  1.00 36.41 LIG 0.24  C 
ATOM     52 O    ALA B1540      -5.461  43.079   3.343  1.00 35.55 LIG-0.27  OA
ATOM     53 H    ALA B1541      -4.192  42.730   6.075  1.00 36.68 LIG 0.16  HD
BRANCH 51 54
ATOM     54  CA  ALA B1540      -6.539  42.081   5.262  1.00 37.40 LIG 0.17  C 
ATOM     55  CB  ALA B1540      -7.222  43.067   6.223  1.00 38.11 LIG 0.04  C 
BRANCH 54 56
ATOM     56  N   ALA B1540      -6.105  40.898   6.003  1.00 38.31 LIG-0.35  N 
ATOM     57 H    ALA B1540      -6.140  40.988   6.858  1.00 38.31 LIG 0.16  HD
ATOM     58  C   ILE B1539      -5.697  39.790   5.399  1.00 39.48 LIG 0.26  C 
ATOM     59 O    ILE B1539      -5.644  39.682   4.182  1.00 40.50 LIG-0.27  OA
BRANCH 58 60
ATOM     60  CA  ILE B1539      -5.259  38.641   6.310  1.00 40.24 LIG 0.40  C 
ATOM     61  N   ILE B1539      -4.255  39.084   7.331  1.00 42.50 LIG 0.61  N 
BRANCH 60 62
ATOM     62  CB  ILE B1539      -6.539  38.053   6.975  1.00 40.48 LIG 0.03  C 
ATOM     63  CG2 ILE B1539      -6.979  38.945   8.134  1.00 38.85 LIG 0.01  C 
BRANCH 62 64
ATOM     64  CG1 ILE B1539      -7.672  37.928   5.950  1.00 39.99 LIG 0.00  C 
ATOM     65  CD1 ILE B1539      -9.065  38.157   6.551  1.00 39.67 LIG 0.01  C 
ENDBRANCH 62 64
ENDBRANCH 60 62
ENDBRANCH 58 60
ENDBRANCH 54 56
ENDBRANCH 51 54
ENDBRANCH 48 50
ENDBRANCH 45 48
ENDBRANCH 43 44
BRANCH 43 66
ATOM     66  CB  TRP B1542      -2.346  39.359   2.538  1.00 29.93 LIG 0.07  C 
BRANCH 66 67
ATOM     67  CG  TRP B1542      -2.158  38.829   3.961  1.00 31.09 LIG-0.03  A 
ATOM     68  CD1 TRP B1542      -2.692  37.677   4.482  1.00 35.00 LIG 0.10  A 
ATOM     69  NE1 TRP B1542      -2.278  37.505   5.789  1.00 35.42 LIG-0.36  N 
ATOM     70 HE1  TRP B1542      -2.495  36.847   6.300  1.00 35.42 LIG 0.17  HD
ATOM     71  CE2 TRP B1542      -1.464  38.553   6.141  1.00 34.23 LIG 0.04  A 
ATOM     72  CD2 TRP B1542      -1.366  39.412   5.016  1.00 31.85 LIG-0.00  A 
ATOM     73  CZ2 TRP B1542      -0.805  38.817   7.352  1.00 32.49 LIG 0.03  A 
ATOM     74  CE3 TRP B1542      -0.583  40.571   5.120  1.00 30.05 LIG 0.01  A 
ATOM     75  CZ3 TRP B1542       0.074  40.835   6.325  1.00 29.28 LIG 0.00  A 
ATOM     76  CH2 TRP B1542      -0.044  39.955   7.427  1.00 32.34 LIG 0.00  A 
ENDBRANCH 66 67
ENDBRANCH 43 66
ENDBRANCH 1 43
TORSDOF 26
ENDMDL
MODEL 18
USER: ADFR SOLUTION from run 184
USER: SCORE 21.985899 LL:  -6.403 LR: -17.999 RR:   0.000 FEB: -10.243
USER: RMSD 6.076796
USER: SEED 183
USER: STATUS no improvement in best in 3 clusters for 5 generations
USER: GENES 28
USER: genes 0 Translation |==|  0.41499 0.38105 0.58397
USER: genes 1 Rotation |==|  0.30969 0.79708 0.37435 0.83127
USER: genes 2 Torsion [C]-N--CA-[CB] |==|  0.76667
USER: genes 3 Torsion [N]-CA--CB-[CG] |==|  0.76874
USER: genes 4 Torsion [CA]-CB--CG-[CD1] |==|  0.36248
USER: genes 5 Torsion [CE1]-CZ--OH-[HH] |==|  0.97609
USER: genes 6 Torsion [N]-CA--C-[N] |==|  0.09598
USER: genes 7 Torsion [C]-N--CA-[CB] |==|  0.26966
USER: genes 8 Torsion [N]-CA--C-[N] |==|  0.40115
USER: genes 9 Torsion [C]-N--CA-[CB] |==|  0.26952
USER: genes 10 Torsion [N]-CA--CB-[CG] |==|  0.64508
USER: genes 11 Torsion [CA]-CB--CG-[CD] |==|  0.87383
USER: genes 12 Torsion [CB]-CG--CD-[NE] |==|  0.41004
USER: genes 13 Torsion [CG]-CD--NE-[HE] |==|  0.67505
USER: genes 14 Torsion [N]-CA--C-[O] |==|  0.85012
USER: genes 15 Torsion [N]-CA--CB-[CG] |==|  0.15027
USER: genes 16 Torsion [CA]-CB--CG-[CD1] |==|  0.27943
USER: genes 17 Torsion [N]-C--CA-[N] |==|  0.31312
USER: genes 18 Torsion [C]-CA--N-[C] |==|  0.75822
USER: genes 19 Torsion [N]-C--CA-[N] |==|  0.28850
USER: genes 20 Torsion [C]-CA--N-[C] |==|  0.79870
USER: genes 21 Torsion [N]-C--CA-[N] |==|  0.84031
USER: genes 22 Torsion [C]-CA--N-[C] |==|  0.84426
USER: genes 23 Torsion [N]-C--CA-[N] |==|  0.42486
USER: genes 24 Torsion [C]-CA--CB-[CG1] |==|  0.32046
USER: genes 25 Torsion [CA]-CB--CG1-[CD1] |==|  0.02290
USER: genes 26 Torsion [C]-CA--CB-[CG] |==|  0.19338
USER: genes 27 Torsion [CA]-CB--CG-[CD1] |==|  0.25969
ROOT
ATOM      1  C   TRP B1542      -4.435  41.642   4.045  1.00 26.55 LIG 0.24  C 
ATOM      2 O    TRP B1542      -4.733  40.900   3.120  1.00 27.86 LIG-0.27  OA
ATOM      3  N   TYR B1543      -3.393  41.415   4.835  1.00 24.62 LIG-0.35  N 
ATOM      4 H    TYR B1543      -3.207  41.878   5.536  1.00 24.62 LIG 0.16  HD
ENDROOT
BRANCH 3 5
ATOM      5  CA  TYR B1543      -2.465  40.333   4.560  1.00 22.31 LIG 0.18  C 
BRANCH 5 6
ATOM      6  CB  TYR B1543      -3.035  39.038   5.146  1.00 23.67 LIG 0.07  C 
BRANCH 6 7
ATOM      7  CG  TYR B1543      -2.768  38.816   6.622  1.00 24.58 LIG-0.06  A 
ATOM      8  CD1 TYR B1543      -3.803  38.470   7.489  1.00 24.59 LIG 0.01  A 
ATOM      9  CE1 TYR B1543      -3.582  38.337   8.852  1.00 26.50 LIG 0.04  A 
ATOM     10  CZ  TYR B1543      -2.313  38.558   9.351  1.00 24.60 LIG 0.07  A 
ATOM     11  CE2 TYR B1543      -1.266  38.896   8.498  1.00 24.06 LIG 0.04  A 
ATOM     12  CD2 TYR B1543      -1.500  39.016   7.155  1.00 22.62 LIG 0.01  A 
BRANCH 10 13
ATOM     13 OH   TYR B1543      -2.097  38.477  10.697  1.00 26.51 LIG-0.36  OA
ATOM     14 HH   TYR B1543      -2.834  38.406  11.095  1.00 26.51 LIG 0.22  HD
ENDBRANCH 10 13
ENDBRANCH 6 7
ENDBRANCH 5 6
BRANCH 5 15
ATOM     15  C   TYR B1543      -2.013  40.083   3.130  1.00 22.90 LIG 0.24  C 
ATOM     16  N   LEU B1544      -1.869  41.145   2.350  1.00 22.60 LIG-0.35  N 
ATOM     17 H    LEU B1544      -1.982  41.958   2.605  1.00 22.60 LIG 0.16  HD
ATOM     18 O    TYR B1543      -1.808  38.941   2.736  1.00 21.43 LIG-0.27  OA
BRANCH 16 19
ATOM     19  CA  LEU B1544      -1.495  40.982   0.954  1.00 22.81 LIG 0.18  C 
BRANCH 19 20
ATOM     20  C   LEU B1544      -0.491  42.039   0.505  1.00 21.53 LIG 0.24  C 
ATOM     21 O    LEU B1544      -0.546  43.196   0.937  1.00 22.00 LIG-0.27  OA
ATOM     22  N   ARG B1545       0.429  41.641  -0.368  1.00 20.14 LIG-0.35  N 
ATOM     23 H    ARG B1545       0.493  40.846  -0.688  1.00 20.14 LIG 0.16  HD
BRANCH 22 24
ATOM     24  CA  ARG B1545       1.422  42.589  -0.845  1.00 18.95 LIG 0.16  C 
BRANCH 24 25
ATOM     25  CB  ARG B1545       2.721  42.442  -0.040  1.00 20.51 LIG 0.04  C 
BRANCH 25 26
ATOM     26  CG  ARG B1545       3.158  43.802   0.504  1.00 20.78 LIG 0.02  C 
BRANCH 26 27
ATOM     27  CD  ARG B1545       3.080  44.920  -0.532  1.00 21.13 LIG 0.14  C 
BRANCH 27 28
ATOM     28  NE  ARG B1545       2.748  46.197   0.109  1.00 20.56 LIG-0.23  N 
ATOM     29 HE   ARG B1545       2.008  46.579  -0.108  1.00 20.56 LIG 0.18  HD
ATOM     30  CZ  ARG B1545       3.523  46.798   1.005  1.00 23.27 LIG 0.67  C 
ATOM     31  NH2 ARG B1545       3.166  47.981   1.523  1.00 19.37 LIG-0.23  N 
ATOM     32  NH1 ARG B1545       4.667  46.229   1.364  1.00 20.25 LIG-0.23  N 
ATOM     33 1HH2 ARG B1545       2.432  48.354   1.277  1.00 19.37 LIG 0.17  HD
ATOM     34 2HH2 ARG B1545       3.670  48.366   2.103  1.00 19.37 LIG 0.17  HD
ATOM     35 1HH1 ARG B1545       4.901  45.478   1.017  1.00 20.25 LIG 0.17  HD
ATOM     36 2HH1 ARG B1545       5.175  46.612   1.943  1.00 20.25 LIG 0.17  HD
ENDBRANCH 27 28
ENDBRANCH 26 27
ENDBRANCH 25 26
ENDBRANCH 24 25
BRANCH 24 37
ATOM     37  C   ARG B1545       1.667  42.471  -2.344  1.00 20.11 LIG 0.22  C 
ATOM     38 O    ARG B1545       1.968  41.334  -2.780  1.00 20.61 LIG-0.29  OA
ENDBRANCH 24 37
ENDBRANCH 22 24
ENDBRANCH 19 20
BRANCH 19 39
ATOM     39  CB  LEU B1544      -2.752  41.023   0.076  1.00 22.71 LIG 0.04  C 
BRANCH 39 40
ATOM     40  CG  LEU B1544      -3.634  42.265   0.273  1.00 23.46 LIG-0.02  C 
ATOM     41  CD1 LEU B1544      -3.351  43.250  -0.866  1.00 24.99 LIG 0.01  C 
ATOM     42  CD2 LEU B1544      -5.112  41.895   0.302  1.00 22.67 LIG 0.01  C 
ENDBRANCH 39 40
ENDBRANCH 19 39
ENDBRANCH 16 19
ENDBRANCH 5 15
ENDBRANCH 3 5
BRANCH 1 43
ATOM     43  CA  TRP B1542      -5.285  42.869   4.354  1.00 29.62 LIG 0.18  C 
BRANCH 43 44
ATOM     44  N   TRP B1542      -5.198  43.900   3.322  1.00 31.24 LIG-0.35  N 
ATOM     45  C   ALA B1541      -4.241  44.813   3.362  1.00 34.20 LIG 0.24  C 
ATOM     46 O    ALA B1541      -3.373  44.813   4.233  1.00 33.88 LIG-0.27  OA
ATOM     47 H    TRP B1542      -5.803  43.856   2.712  1.00 31.24 LIG 0.16  HD
BRANCH 45 48
ATOM     48  CA  ALA B1541      -4.251  45.880   2.258  1.00 35.59 LIG 0.17  C 
ATOM     49  CB  ALA B1541      -2.835  46.022   1.652  1.00 37.24 LIG 0.04  C 
BRANCH 48 50
ATOM     50  N   ALA B1541      -4.743  47.206   2.656  1.00 36.68 LIG-0.35  N 
ATOM     51  C   ALA B1540      -6.030  47.442   2.892  1.00 36.41 LIG 0.24  C 
ATOM     52 O    ALA B1540      -6.891  46.558   2.844  1.00 35.55 LIG-0.27  OA
ATOM     53 H    ALA B1541      -4.128  47.804   2.721  1.00 36.68 LIG 0.16  HD
BRANCH 51 54
ATOM     54  CA  ALA B1540      -6.392  48.884   3.269  1.00 37.40 LIG 0.17  C 
ATOM     55  CB  ALA B1540      -6.109  49.829   2.090  1.00 38.11 LIG 0.04  C 
BRANCH 54 56
ATOM     56  N   ALA B1540      -5.666  49.345   4.450  1.00 38.31 LIG-0.35  N 
ATOM     57 H    ALA B1540      -5.212  50.065   4.323  1.00 38.31 LIG 0.16  HD
ATOM     58  C   ILE B1539      -5.710  48.703   5.609  1.00 39.48 LIG 0.26  C 
ATOM     59 O    ILE B1539      -6.353  47.674   5.771  1.00 40.50 LIG-0.27  OA
BRANCH 58 60
ATOM     60  CA  ILE B1539      -4.883  49.300   6.750  1.00 40.24 LIG 0.40  C 
ATOM     61  N   ILE B1539      -5.452  48.962   8.095  1.00 42.50 LIG 0.61  N 
BRANCH 60 62
ATOM     62  CB  ILE B1539      -3.423  48.781   6.594  1.00 40.48 LIG 0.03  C 
ATOM     63  CG2 ILE B1539      -3.356  47.749   5.470  1.00 38.85 LIG 0.01  C 
BRANCH 62 64
ATOM     64  CG1 ILE B1539      -2.466  49.942   6.298  1.00 39.99 LIG 0.00  C 
ATOM     65  CD1 ILE B1539      -3.124  51.322   6.426  1.00 39.67 LIG 0.01  C 
ENDBRANCH 62 64
ENDBRANCH 60 62
ENDBRANCH 58 60
ENDBRANCH 54 56
ENDBRANCH 51 54
ENDBRANCH 48 50
ENDBRANCH 45 48
ENDBRANCH 43 44
BRANCH 43 66
ATOM     66  CB  TRP B1542      -6.747  42.422   4.502  1.00 29.93 LIG 0.07  C 
BRANCH 66 67
ATOM     67  CG  TRP B1542      -7.010  41.589   5.758  1.00 31.09 LIG-0.03  A 
ATOM     68  CD1 TRP B1542      -7.440  42.057   6.975  1.00 35.00 LIG 0.10  A 
ATOM     69  NE1 TRP B1542      -7.600  41.009   7.862  1.00 35.42 LIG-0.36  N 
ATOM     70 HE1  TRP B1542      -7.863  41.080   8.678  1.00 35.42 LIG 0.17  HD
ATOM     71  CE2 TRP B1542      -7.273  39.836   7.230  1.00 34.23 LIG 0.04  A 
ATOM     72  CD2 TRP B1542      -6.893  40.159   5.901  1.00 31.85 LIG-0.00  A 
ATOM     73  CZ2 TRP B1542      -7.281  38.517   7.713  1.00 32.49 LIG 0.03  A 
ATOM     74  CE3 TRP B1542      -6.507  39.122   5.040  1.00 30.05 LIG 0.01  A 
ATOM     75  CZ3 TRP B1542      -6.514  37.808   5.520  1.00 29.28 LIG 0.00  A 
ATOM     76  CH2 TRP B1542      -6.902  37.521   6.850  1.00 32.34 LIG 0.00  A 
ENDBRANCH 66 67
ENDBRANCH 43 66
ENDBRANCH 1 43
TORSDOF 26
ENDMDL
MODEL 19
USER: ADFR SOLUTION from run 104
USER: SCORE 21.922888 LL:  -5.735 LR: -17.960 RR:   0.000 FEB: -10.204
USER: RMSD 7.236644
USER: SEED 103
USER: STATUS no improvement in best in 8 clusters for 5 generations
USER: GENES 28
USER: genes 0 Translation |==|  0.57162 0.47064 0.38066
USER: genes 1 Rotation |==|  0.93399 0.26846 0.41119 0.51232
USER: genes 2 Torsion [C]-N--CA-[CB] |==|  0.82628
USER: genes 3 Torsion [N]-CA--CB-[CG] |==|  0.88259
USER: genes 4 Torsion [CA]-CB--CG-[CD1] |==|  0.91900
USER: genes 5 Torsion [CE1]-CZ--OH-[HH] |==|  0.89639
USER: genes 6 Torsion [N]-CA--C-[N] |==|  0.93856
USER: genes 7 Torsion [C]-N--CA-[CB] |==|  0.17222
USER: genes 8 Torsion [N]-CA--C-[N] |==|  0.00623
USER: genes 9 Torsion [C]-N--CA-[CB] |==|  0.39252
USER: genes 10 Torsion [N]-CA--CB-[CG] |==|  0.77283
USER: genes 11 Torsion [CA]-CB--CG-[CD] |==|  0.35620
USER: genes 12 Torsion [CB]-CG--CD-[NE] |==|  0.41905
USER: genes 13 Torsion [CG]-CD--NE-[HE] |==|  0.28681
USER: genes 14 Torsion [N]-CA--C-[O] |==|  0.88997
USER: genes 15 Torsion [N]-CA--CB-[CG] |==|  0.63581
USER: genes 16 Torsion [CA]-CB--CG-[CD1] |==|  0.71773
USER: genes 17 Torsion [N]-C--CA-[N] |==|  0.14424
USER: genes 18 Torsion [C]-CA--N-[C] |==|  0.71717
USER: genes 19 Torsion [N]-C--CA-[N] |==|  0.36115
USER: genes 20 Torsion [C]-CA--N-[C] |==|  0.83990
USER: genes 21 Torsion [N]-C--CA-[N] |==|  0.57306
USER: genes 22 Torsion [C]-CA--N-[C] |==|  0.15570
USER: genes 23 Torsion [N]-C--CA-[N] |==|  0.35663
USER: genes 24 Torsion [C]-CA--CB-[CG1] |==|  0.05052
USER: genes 25 Torsion [CA]-CB--CG1-[CD1] |==|  0.67413
USER: genes 26 Torsion [C]-CA--CB-[CG] |==|  0.35659
USER: genes 27 Torsion [CA]-CB--CG-[CD1] |==|  0.11015
ROOT
ATOM      1  C   TRP B1542      -0.793  43.389   0.232  1.00 26.55 LIG 0.24  C 
ATOM      2 O    TRP B1542      -0.368  42.257   0.415  1.00 27.86 LIG-0.27  OA
ATOM      3  N   TYR B1543      -0.467  44.112  -0.832  1.00 24.62 LIG-0.35  N 
ATOM      4 H    TYR B1543      -0.690  44.936  -0.945  1.00 24.62 LIG 0.16  HD
ENDROOT
BRANCH 3 5
ATOM      5  CA  TYR B1543       0.316  43.543  -1.914  1.00 22.31 LIG 0.18  C 
BRANCH 5 6
ATOM      6  CB  TYR B1543       1.688  43.142  -1.368  1.00 23.67 LIG 0.07  C 
BRANCH 6 7
ATOM      7  CG  TYR B1543       2.331  44.136  -0.420  1.00 24.58 LIG-0.06  A 
ATOM      8  CD1 TYR B1543       2.062  45.500  -0.529  1.00 24.59 LIG 0.01  A 
ATOM      9  CE1 TYR B1543       2.700  46.423   0.285  1.00 26.50 LIG 0.04  A 
ATOM     10  CZ  TYR B1543       3.621  45.977   1.213  1.00 24.60 LIG 0.07  A 
ATOM     11  CE2 TYR B1543       3.896  44.617   1.340  1.00 24.06 LIG 0.04  A 
ATOM     12  CD2 TYR B1543       3.252  43.719   0.533  1.00 22.62 LIG 0.01  A 
BRANCH 10 13
ATOM     13 OH   TYR B1543       4.291  46.882   1.985  1.00 26.51 LIG-0.36  OA
ATOM     14 HH   TYR B1543       4.467  47.564   1.527  1.00 26.51 LIG 0.22  HD
ENDBRANCH 10 13
ENDBRANCH 6 7
ENDBRANCH 5 6
BRANCH 5 15
ATOM     15  C   TYR B1543      -0.259  42.393  -2.726  1.00 22.90 LIG 0.24  C 
ATOM     16  N   LEU B1544      -1.216  41.674  -2.156  1.00 22.60 LIG-0.35  N 
ATOM     17 H    LEU B1544      -1.552  41.833  -1.381  1.00 22.60 LIG 0.16  HD
ATOM     18 O    TYR B1543       0.166  42.154  -3.850  1.00 21.43 LIG-0.27  OA
BRANCH 16 19
ATOM     19  CA  LEU B1544      -1.776  40.523  -2.847  1.00 22.81 LIG 0.18  C 
BRANCH 19 20
ATOM     20  C   LEU B1544      -2.946  39.911  -2.082  1.00 21.53 LIG 0.24  C 
ATOM     21 O    LEU B1544      -3.522  38.901  -2.500  1.00 22.00 LIG-0.27  OA
ATOM     22  N   ARG B1545      -3.300  40.528  -0.960  1.00 20.14 LIG-0.35  N 
ATOM     23 H    ARG B1545      -2.922  41.232  -0.643  1.00 20.14 LIG 0.16  HD
BRANCH 22 24
ATOM     24  CA  ARG B1545      -4.406  40.007  -0.173  1.00 18.95 LIG 0.16  C 
BRANCH 24 25
ATOM     25  CB  ARG B1545      -4.093  40.130   1.324  1.00 20.51 LIG 0.04  C 
BRANCH 25 26
ATOM     26  CG  ARG B1545      -3.209  38.966   1.774  1.00 20.78 LIG 0.02  C 
BRANCH 26 27
ATOM     27  CD  ARG B1545      -1.958  39.415   2.523  1.00 21.13 LIG 0.14  C 
BRANCH 27 28
ATOM     28  NE  ARG B1545      -1.536  38.393   3.486  1.00 20.56 LIG-0.23  N 
ATOM     29 HE   ARG B1545      -0.864  37.897   3.282  1.00 20.56 LIG 0.18  HD
ATOM     30  CZ  ARG B1545      -2.133  38.188   4.656  1.00 23.27 LIG 0.67  C 
ATOM     31  NH2 ARG B1545      -1.708  37.212   5.470  1.00 19.37 LIG-0.23  N 
ATOM     32  NH1 ARG B1545      -3.169  38.942   5.000  1.00 20.25 LIG-0.23  N 
ATOM     33 1HH2 ARG B1545      -1.047  36.715   5.237  1.00 19.37 LIG 0.17  HD
ATOM     34 2HH2 ARG B1545      -2.097  37.083   6.226  1.00 19.37 LIG 0.17  HD
ATOM     35 1HH1 ARG B1545      -3.449  39.557   4.468  1.00 20.25 LIG 0.17  HD
ATOM     36 2HH1 ARG B1545      -3.561  38.816   5.755  1.00 20.25 LIG 0.17  HD
ENDBRANCH 27 28
ENDBRANCH 26 27
ENDBRANCH 25 26
ENDBRANCH 24 25
BRANCH 24 37
ATOM     37  C   ARG B1545      -5.735  40.661  -0.531  1.00 20.11 LIG 0.22  C 
ATOM     38 O    ARG B1545      -5.714  41.894  -0.759  1.00 20.61 LIG-0.29  OA
ENDBRANCH 24 37
ENDBRANCH 22 24
ENDBRANCH 19 20
BRANCH 19 39
ATOM     39  CB  LEU B1544      -0.678  39.478  -3.082  1.00 22.71 LIG 0.04  C 
BRANCH 39 40
ATOM     40  CG  LEU B1544      -0.601  38.938  -4.518  1.00 23.46 LIG-0.02  C 
ATOM     41  CD1 LEU B1544      -1.266  37.559  -4.556  1.00 24.99 LIG 0.01  C 
ATOM     42  CD2 LEU B1544      -1.280  39.885  -5.501  1.00 22.67 LIG 0.01  C 
ENDBRANCH 39 40
ENDBRANCH 19 39
ENDBRANCH 16 19
ENDBRANCH 5 15
ENDBRANCH 3 5
BRANCH 1 43
ATOM     43  CA  TRP B1542      -1.709  44.043   1.260  1.00 29.62 LIG 0.18  C 
BRANCH 43 44
ATOM     44  N   TRP B1542      -2.924  44.601   0.670  1.00 31.24 LIG-0.35  N 
ATOM     45  C   ALA B1541      -3.032  45.902   0.455  1.00 34.20 LIG 0.24  C 
ATOM     46 O    ALA B1541      -2.116  46.683   0.701  1.00 33.88 LIG-0.27  OA
ATOM     47 H    TRP B1542      -3.535  44.025   0.484  1.00 31.24 LIG 0.16  HD
BRANCH 45 48
ATOM     48  CA  ALA B1541      -4.359  46.402  -0.133  1.00 35.59 LIG 0.17  C 
ATOM     49  CB  ALA B1541      -4.168  46.771  -1.623  1.00 37.24 LIG 0.04  C 
BRANCH 48 50
ATOM     50  N   ALA B1541      -4.983  47.532   0.569  1.00 36.68 LIG-0.35  N 
ATOM     51  C   ALA B1540      -5.304  47.474   1.859  1.00 36.41 LIG 0.24  C 
ATOM     52 O    ALA B1540      -5.055  46.492   2.565  1.00 35.55 LIG-0.27  OA
ATOM     53 H    ALA B1541      -5.117  48.223   0.075  1.00 36.68 LIG 0.16  HD
BRANCH 51 54
ATOM     54  CA  ALA B1540      -5.976  48.723   2.442  1.00 37.40 LIG 0.17  C 
ATOM     55  CB  ALA B1540      -5.471  49.984   1.724  1.00 38.11 LIG 0.04  C 
BRANCH 54 56
ATOM     56  N   ALA B1540      -5.746  48.853   3.880  1.00 38.31 LIG-0.35  N 
ATOM     57 H    ALA B1540      -6.467  48.909   4.346  1.00 38.31 LIG 0.16  HD
ATOM     58  C   ILE B1539      -4.530  48.882   4.406  1.00 39.48 LIG 0.26  C 
ATOM     59 O    ILE B1539      -3.514  48.813   3.728  1.00 40.50 LIG-0.27  OA
BRANCH 58 60
ATOM     60  CA  ILE B1539      -4.450  49.040   5.926  1.00 40.24 LIG 0.40  C 
ATOM     61  N   ILE B1539      -3.583  47.992   6.556  1.00 42.50 LIG 0.61  N 
BRANCH 60 62
ATOM     62  CB  ILE B1539      -3.929  50.477   6.224  1.00 40.48 LIG 0.03  C 
ATOM     63  CG2 ILE B1539      -2.458  50.422   6.632  1.00 38.85 LIG 0.01  C 
BRANCH 62 64
ATOM     64  CG1 ILE B1539      -4.099  51.380   4.996  1.00 39.99 LIG 0.00  C 
ATOM     65  CD1 ILE B1539      -2.769  51.902   4.435  1.00 39.67 LIG 0.01  C 
ENDBRANCH 62 64
ENDBRANCH 60 62
ENDBRANCH 58 60
ENDBRANCH 54 56
ENDBRANCH 51 54
ENDBRANCH 48 50
ENDBRANCH 45 48
ENDBRANCH 43 44
BRANCH 43 66
ATOM     66  CB  TRP B1542      -2.093  42.990   2.309  1.00 29.93 LIG 0.07  C 
BRANCH 66 67
ATOM     67  CG  TRP B1542      -1.849  43.442   3.751  1.00 31.09 LIG-0.03  A 
ATOM     68  CD1 TRP B1542      -2.080  44.693   4.266  1.00 35.00 LIG 0.10  A 
ATOM     69  NE1 TRP B1542      -1.775  44.721   5.614  1.00 35.42 LIG-0.36  N 
ATOM     70 HE1  TRP B1542      -1.849  45.406   6.129  1.00 35.42 LIG 0.17  HD
ATOM     71  CE2 TRP B1542      -1.337  43.478   5.997  1.00 34.23 LIG 0.04  A 
ATOM     72  CD2 TRP B1542      -1.366  42.643   4.850  1.00 31.85 LIG-0.00  A 
ATOM     73  CZ2 TRP B1542      -0.919  43.017   7.256  1.00 32.49 LIG 0.03  A 
ATOM     74  CE3 TRP B1542      -0.958  41.308   4.979  1.00 30.05 LIG 0.01  A 
ATOM     75  CZ3 TRP B1542      -0.541  40.847   6.232  1.00 29.28 LIG 0.00  A 
ATOM     76  CH2 TRP B1542      -0.528  41.707   7.356  1.00 32.34 LIG 0.00  A 
ENDBRANCH 66 67
ENDBRANCH 43 66
ENDBRANCH 1 43
TORSDOF 26
ENDMDL
MODEL 20
USER: ADFR SOLUTION from run 7
USER: SCORE 22.429442 LL:  -6.419 LR: -17.929 RR:   0.000 FEB: -10.173
USER: RMSD 6.382774
USER: SEED 287945
USER: STATUS no improvement in best in 7 clusters for 5 generations
USER: GENES 28
USER: genes 0 Translation |==|  0.40926 0.42445 0.58309
USER: genes 1 Rotation |==|  0.23316 0.56749 0.75609 0.82964
USER: genes 2 Torsion [C]-N--CA-[CB] |==|  0.79323
USER: genes 3 Torsion [N]-CA--CB-[CG] |==|  0.88934
USER: genes 4 Torsion [CA]-CB--CG-[CD1] |==|  0.77354
USER: genes 5 Torsion [CE1]-CZ--OH-[HH] |==|  0.07094
USER: genes 6 Torsion [N]-CA--C-[N] |==|  0.48326
USER: genes 7 Torsion [C]-N--CA-[CB] |==|  0.43154
USER: genes 8 Torsion [N]-CA--C-[N] |==|  0.92058
USER: genes 9 Torsion [C]-N--CA-[CB] |==|  0.32096
USER: genes 10 Torsion [N]-CA--CB-[CG] |==|  0.22347
USER: genes 11 Torsion [CA]-CB--CG-[CD] |==|  0.35029
USER: genes 12 Torsion [CB]-CG--CD-[NE] |==|  0.46512
USER: genes 13 Torsion [CG]-CD--NE-[HE] |==|  0.32533
USER: genes 14 Torsion [N]-CA--C-[O] |==|  0.95009
USER: genes 15 Torsion [N]-CA--CB-[CG] |==|  0.93761
USER: genes 16 Torsion [CA]-CB--CG-[CD1] |==|  0.50050
USER: genes 17 Torsion [N]-C--CA-[N] |==|  0.23209
USER: genes 18 Torsion [C]-CA--N-[C] |==|  0.76517
USER: genes 19 Torsion [N]-C--CA-[N] |==|  0.20448
USER: genes 20 Torsion [C]-CA--N-[C] |==|  0.75545
USER: genes 21 Torsion [N]-C--CA-[N] |==|  0.92580
USER: genes 22 Torsion [C]-CA--N-[C] |==|  0.81146
USER: genes 23 Torsion [N]-C--CA-[N] |==|  0.38504
USER: genes 24 Torsion [C]-CA--CB-[CG1] |==|  0.17622
USER: genes 25 Torsion [CA]-CB--CG1-[CD1] |==|  0.50615
USER: genes 26 Torsion [C]-CA--CB-[CG] |==|  0.24072
USER: genes 27 Torsion [CA]-CB--CG-[CD1] |==|  0.57134
ROOT
ATOM      1  C   TRP B1542      -4.568  42.489   4.028  1.00 26.55 LIG 0.24  C 
ATOM      2 O    TRP B1542      -4.209  42.654   2.870  1.00 27.86 LIG-0.27  OA
ATOM      3  N   TYR B1543      -4.248  43.332   5.002  1.00 24.62 LIG-0.35  N 
ATOM      4 H    TYR B1543      -4.423  43.199   5.834  1.00 24.62 LIG 0.16  HD
ENDROOT
BRANCH 3 5
ATOM      5  CA  TYR B1543      -3.560  44.578   4.720  1.00 22.31 LIG 0.18  C 
BRANCH 5 6
ATOM      6  CB  TYR B1543      -2.095  44.267   4.400  1.00 23.67 LIG 0.07  C 
BRANCH 6 7
ATOM      7  CG  TYR B1543      -1.454  43.191   5.254  1.00 24.58 LIG-0.06  A 
ATOM      8  CD1 TYR B1543      -0.960  43.489   6.523  1.00 24.59 LIG 0.01  A 
ATOM      9  CE1 TYR B1543      -0.306  42.529   7.281  1.00 26.50 LIG 0.04  A 
ATOM     10  CZ  TYR B1543      -0.142  41.259   6.761  1.00 24.60 LIG 0.07  A 
ATOM     11  CE2 TYR B1543      -0.637  40.943   5.498  1.00 24.06 LIG 0.04  A 
ATOM     12  CD2 TYR B1543      -1.286  41.901   4.766  1.00 22.62 LIG 0.01  A 
BRANCH 10 13
ATOM     13 OH   TYR B1543       0.542  40.322   7.479  1.00 26.51 LIG-0.36  OA
ATOM     14 HH   TYR B1543       0.496  40.507   8.297  1.00 26.51 LIG 0.22  HD
ENDBRANCH 10 13
ENDBRANCH 6 7
ENDBRANCH 5 6
BRANCH 5 15
ATOM     15  C   TYR B1543      -4.118  45.516   3.661  1.00 22.90 LIG 0.24  C 
ATOM     16  N   LEU B1544      -3.525  46.694   3.527  1.00 22.60 LIG-0.35  N 
ATOM     17 H    LEU B1544      -2.833  46.946   3.971  1.00 22.60 LIG 0.16  HD
ATOM     18 O    TYR B1543      -5.083  45.181   2.983  1.00 21.43 LIG-0.27  OA
BRANCH 16 19
ATOM     19  CA  LEU B1544      -4.037  47.667   2.576  1.00 22.81 LIG 0.18  C 
BRANCH 19 20
ATOM     20  C   LEU B1544      -3.561  47.383   1.155  1.00 21.53 LIG 0.24  C 
ATOM     21 O    LEU B1544      -4.241  47.712   0.176  1.00 22.00 LIG-0.27  OA
ATOM     22  N   ARG B1545      -2.389  46.767   1.041  1.00 20.14 LIG-0.35  N 
ATOM     23 H    ARG B1545      -1.893  46.524   1.700  1.00 20.14 LIG 0.16  HD
BRANCH 22 24
ATOM     24  CA  ARG B1545      -1.865  46.460  -0.280  1.00 18.95 LIG 0.16  C 
BRANCH 24 25
ATOM     25  CB  ARG B1545      -0.569  47.244  -0.528  1.00 20.51 LIG 0.04  C 
BRANCH 25 26
ATOM     26  CG  ARG B1545       0.609  46.542   0.149  1.00 20.78 LIG 0.02  C 
BRANCH 26 27
ATOM     27  CD  ARG B1545       1.765  46.253  -0.804  1.00 21.13 LIG 0.14  C 
BRANCH 27 28
ATOM     28  NE  ARG B1545       2.965  45.860  -0.057  1.00 20.56 LIG-0.23  N 
ATOM     29 HE   ARG B1545       3.279  45.069  -0.182  1.00 20.56 LIG 0.18  HD
ATOM     30  CZ  ARG B1545       3.594  46.655   0.802  1.00 23.27 LIG 0.67  C 
ATOM     31  NH2 ARG B1545       4.668  46.212   1.471  1.00 19.37 LIG-0.23  N 
ATOM     32  NH1 ARG B1545       3.136  47.882   1.011  1.00 20.25 LIG-0.23  N 
ATOM     33 1HH2 ARG B1545       4.952  45.411   1.345  1.00 19.37 LIG 0.17  HD
ATOM     34 2HH2 ARG B1545       5.072  46.730   2.026  1.00 19.37 LIG 0.17  HD
ATOM     35 1HH1 ARG B1545       2.437  48.157   0.592  1.00 20.25 LIG 0.17  HD
ATOM     36 2HH1 ARG B1545       3.537  48.403   1.565  1.00 20.25 LIG 0.17  HD
ENDBRANCH 27 28
ENDBRANCH 26 27
ENDBRANCH 25 26
ENDBRANCH 24 25
BRANCH 24 37
ATOM     37  C   ARG B1545      -1.675  44.965  -0.499  1.00 20.11 LIG 0.22  C 
ATOM     38 O    ARG B1545      -1.643  44.243   0.526  1.00 20.61 LIG-0.29  OA
ENDBRANCH 24 37
ENDBRANCH 22 24
ENDBRANCH 19 20
BRANCH 19 39
ATOM     39  CB  LEU B1544      -3.627  49.079   3.012  1.00 22.71 LIG 0.04  C 
BRANCH 39 40
ATOM     40  CG  LEU B1544      -3.298  49.220   4.506  1.00 23.46 LIG-0.02  C 
ATOM     41  CD1 LEU B1544      -2.914  50.677   4.786  1.00 24.99 LIG 0.01  C 
ATOM     42  CD2 LEU B1544      -4.480  48.805   5.373  1.00 22.67 LIG 0.01  C 
ENDBRANCH 39 40
ENDBRANCH 19 39
ENDBRANCH 16 19
ENDBRANCH 5 15
ENDBRANCH 3 5
BRANCH 1 43
ATOM     43  CA  TRP B1542      -5.387  41.262   4.413  1.00 29.62 LIG 0.18  C 
BRANCH 43 44
ATOM     44  N   TRP B1542      -6.822  41.532   4.479  1.00 31.24 LIG-0.35  N 
ATOM     45  C   ALA B1541      -7.362  42.034   5.577  1.00 34.20 LIG 0.24  C 
ATOM     46 O    ALA B1541      -6.688  42.330   6.561  1.00 33.88 LIG-0.27  OA
ATOM     47 H    TRP B1542      -7.261  41.340   3.765  1.00 31.24 LIG 0.16  HD
BRANCH 45 48
ATOM     48  CA  ALA B1541      -8.883  42.248   5.569  1.00 35.59 LIG 0.17  C 
ATOM     49  CB  ALA B1541      -9.282  43.227   6.699  1.00 37.24 LIG 0.04  C 
BRANCH 48 50
ATOM     50  N   ALA B1541      -9.699  41.030   5.672  1.00 36.68 LIG-0.35  N 
ATOM     51  C   ALA B1540     -10.067  40.332   4.602  1.00 36.41 LIG 0.24  C 
ATOM     52 O    ALA B1540      -9.709  40.626   3.457  1.00 35.55 LIG-0.27  OA
ATOM     53 H    ALA B1541      -9.911  40.816   6.477  1.00 36.68 LIG 0.16  HD
BRANCH 51 54
ATOM     54  CA  ALA B1540     -10.943  39.102   4.869  1.00 37.40 LIG 0.17  C 
ATOM     55  CB  ALA B1540     -12.428  39.459   4.697  1.00 38.11 LIG 0.04  C 
BRANCH 54 56
ATOM     56  N   ALA B1540     -10.725  38.548   6.204  1.00 38.31 LIG-0.35  N 
ATOM     57 H    ALA B1540     -11.398  38.636   6.733  1.00 38.31 LIG 0.16  HD
ATOM     58  C   ILE B1539      -9.588  37.965   6.555  1.00 39.48 LIG 0.26  C 
ATOM     59 O    ILE B1539      -8.637  37.857   5.794  1.00 40.50 LIG-0.27  OA
BRANCH 58 60
ATOM     60  CA  ILE B1539      -9.504  37.449   7.993  1.00 40.24 LIG 0.40  C 
ATOM     61  N   ILE B1539      -8.836  36.109   8.073  1.00 42.50 LIG 0.61  N 
BRANCH 60 62
ATOM     62  CB  ILE B1539      -8.752  38.521   8.836  1.00 40.48 LIG 0.03  C 
ATOM     63  CG2 ILE B1539      -7.365  38.767   8.244  1.00 38.85 LIG 0.01  C 
BRANCH 62 64
ATOM     64  CG1 ILE B1539      -9.545  39.832   8.876  1.00 39.99 LIG 0.00  C 
ATOM     65  CD1 ILE B1539      -8.833  40.951   9.647  1.00 39.67 LIG 0.01  C 
ENDBRANCH 62 64
ENDBRANCH 60 62
ENDBRANCH 58 60
ENDBRANCH 54 56
ENDBRANCH 51 54
ENDBRANCH 48 50
ENDBRANCH 45 48
ENDBRANCH 43 44
BRANCH 43 66
ATOM     66  CB  TRP B1542      -5.125  40.158   3.378  1.00 29.93 LIG 0.07  C 
BRANCH 66 67
ATOM     67  CG  TRP B1542      -3.902  39.296   3.696  1.00 31.09 LIG-0.03  A 
ATOM     68  CD1 TRP B1542      -3.136  38.600   2.795  1.00 35.00 LIG 0.10  A 
ATOM     69  NE1 TRP B1542      -2.094  37.962   3.443  1.00 35.42 LIG-0.36  N 
ATOM     70 HE1  TRP B1542      -1.495  37.474   3.066  1.00 35.42 LIG 0.17  HD
ATOM     71  CE2 TRP B1542      -2.170  38.236   4.786  1.00 34.23 LIG 0.04  A 
ATOM     72  CD2 TRP B1542      -3.299  39.072   4.987  1.00 31.85 LIG-0.00  A 
ATOM     73  CZ2 TRP B1542      -1.341  37.821   5.840  1.00 32.49 LIG 0.03  A 
ATOM     74  CE3 TRP B1542      -3.600  39.496   6.290  1.00 30.05 LIG 0.01  A 
ATOM     75  CZ3 TRP B1542      -2.775  39.083   7.341  1.00 29.28 LIG 0.00  A 
ATOM     76  CH2 TRP B1542      -1.654  38.251   7.104  1.00 32.34 LIG 0.00  A 
ENDBRANCH 66 67
ENDBRANCH 43 66
ENDBRANCH 1 43
TORSDOF 26
ENDMDL
MODEL 21
USER: ADFR SOLUTION from run 10
USER: SCORE 23.462406 LL:  -7.287 LR: -17.918 RR:   0.000 FEB: -10.162
USER: RMSD 5.837057
USER: SEED 133783
USER: STATUS 1 or 2 clusters left
USER: GENES 28
USER: genes 0 Translation |==|  0.47709 0.40337 0.47229
USER: genes 1 Rotation |==|  0.45225 0.91792 0.30432 0.68648
USER: genes 2 Torsion [C]-N--CA-[CB] |==|  0.79820
USER: genes 3 Torsion [N]-CA--CB-[CG] |==|  0.81110
USER: genes 4 Torsion [CA]-CB--CG-[CD1] |==|  0.33702
USER: genes 5 Torsion [CE1]-CZ--OH-[HH] |==|  0.50690
USER: genes 6 Torsion [N]-CA--C-[N] |==|  0.07843
USER: genes 7 Torsion [C]-N--CA-[CB] |==|  0.18333
USER: genes 8 Torsion [N]-CA--C-[N] |==|  0.97948
USER: genes 9 Torsion [C]-N--CA-[CB] |==|  0.41466
USER: genes 10 Torsion [N]-CA--CB-[CG] |==|  0.33532
USER: genes 11 Torsion [CA]-CB--CG-[CD] |==|  0.62364
USER: genes 12 Torsion [CB]-CG--CD-[NE] |==|  0.79703
USER: genes 13 Torsion [CG]-CD--NE-[HE] |==|  0.18874
USER: genes 14 Torsion [N]-CA--C-[O] |==|  0.16698
USER: genes 15 Torsion [N]-CA--CB-[CG] |==|  0.25043
USER: genes 16 Torsion [CA]-CB--CG-[CD1] |==|  0.49286
USER: genes 17 Torsion [N]-C--CA-[N] |==|  0.41686
USER: genes 18 Torsion [C]-CA--N-[C] |==|  0.69943
USER: genes 19 Torsion [N]-C--CA-[N] |==|  0.04724
USER: genes 20 Torsion [C]-CA--N-[C] |==|  0.72210
USER: genes 21 Torsion [N]-C--CA-[N] |==|  0.92751
USER: genes 22 Torsion [C]-CA--N-[C] |==|  0.83724
USER: genes 23 Torsion [N]-C--CA-[N] |==|  0.38947
USER: genes 24 Torsion [C]-CA--CB-[CG1] |==|  0.51556
USER: genes 25 Torsion [CA]-CB--CG1-[CD1] |==|  0.65279
USER: genes 26 Torsion [C]-CA--CB-[CG] |==|  0.30474
USER: genes 27 Torsion [CA]-CB--CG-[CD1] |==|  0.30990
ROOT
ATOM      1  C   TRP B1542      -2.991  42.078   1.951  1.00 26.55 LIG 0.24  C 
ATOM      2 O    TRP B1542      -4.021  42.083   1.292  1.00 27.86 LIG-0.27  OA
ATOM      3  N   TYR B1543      -2.344  40.959   2.257  1.00 24.62 LIG-0.35  N 
ATOM      4 H    TYR B1543      -1.663  40.922   2.781  1.00 24.62 LIG 0.16  HD
ENDROOT
BRANCH 3 5
ATOM      5  CA  TYR B1543      -2.758  39.680   1.710  1.00 22.31 LIG 0.18  C 
BRANCH 5 6
ATOM      6  CB  TYR B1543      -4.060  39.253   2.393  1.00 23.67 LIG 0.07  C 
BRANCH 6 7
ATOM      7  CG  TYR B1543      -3.942  38.900   3.862  1.00 24.58 LIG-0.06  A 
ATOM      8  CD1 TYR B1543      -4.685  39.586   4.822  1.00 24.59 LIG 0.01  A 
ATOM      9  CE1 TYR B1543      -4.529  39.319   6.174  1.00 26.50 LIG 0.04  A 
ATOM     10  CZ  TYR B1543      -3.615  38.362   6.569  1.00 24.60 LIG 0.07  A 
ATOM     11  CE2 TYR B1543      -2.870  37.662   5.623  1.00 24.06 LIG 0.04  A 
ATOM     12  CD2 TYR B1543      -3.042  37.932   4.292  1.00 22.62 LIG 0.01  A 
BRANCH 10 13
ATOM     13 OH   TYR B1543      -3.419  38.127   7.899  1.00 26.51 LIG-0.36  OA
ATOM     14 HH   TYR B1543      -2.817  37.549   7.996  1.00 26.51 LIG 0.22  HD
ENDBRANCH 10 13
ENDBRANCH 6 7
ENDBRANCH 5 6
BRANCH 5 15
ATOM     15  C   TYR B1543      -2.904  39.525   0.205  1.00 22.90 LIG 0.24  C 
ATOM     16  N   LEU B1544      -2.142  40.298  -0.557  1.00 22.60 LIG-0.35  N 
ATOM     17 H    LEU B1544      -1.556  40.851  -0.260  1.00 22.60 LIG 0.16  HD
ATOM     18 O    TYR B1543      -3.705  38.722  -0.261  1.00 21.43 LIG-0.27  OA
BRANCH 16 19
ATOM     19  CA  LEU B1544      -2.266  40.247  -2.005  1.00 22.81 LIG 0.18  C 
BRANCH 19 20
ATOM     20  C   LEU B1544      -1.160  41.035  -2.700  1.00 21.53 LIG 0.24  C 
ATOM     21 O    LEU B1544      -1.021  40.993  -3.928  1.00 22.00 LIG-0.27  OA
ATOM     22  N   ARG B1545      -0.367  41.754  -1.913  1.00 20.14 LIG-0.35  N 
ATOM     23 H    ARG B1545      -0.435  41.804  -1.057  1.00 20.14 LIG 0.16  HD
BRANCH 22 24
ATOM     24  CA  ARG B1545       0.711  42.533  -2.499  1.00 18.95 LIG 0.16  C 
BRANCH 24 25
ATOM     25  CB  ARG B1545       0.977  43.786  -1.653  1.00 20.51 LIG 0.04  C 
BRANCH 25 26
ATOM     26  CG  ARG B1545       2.421  43.786  -1.151  1.00 20.78 LIG 0.02  C 
BRANCH 26 27
ATOM     27  CD  ARG B1545       2.547  44.170   0.320  1.00 21.13 LIG 0.14  C 
BRANCH 27 28
ATOM     28  NE  ARG B1545       2.311  45.606   0.502  1.00 20.56 LIG-0.23  N 
ATOM     29 HE   ARG B1545       1.517  45.907   0.363  1.00 20.56 LIG 0.18  HD
ATOM     30  CZ  ARG B1545       3.252  46.470   0.869  1.00 23.27 LIG 0.67  C 
ATOM     31  NH2 ARG B1545       2.966  47.773   0.984  1.00 19.37 LIG-0.23  N 
ATOM     32  NH1 ARG B1545       4.484  46.033   1.097  1.00 20.25 LIG-0.23  N 
ATOM     33 1HH2 ARG B1545       2.170  48.055   0.821  1.00 19.37 LIG 0.17  HD
ATOM     34 2HH2 ARG B1545       3.577  48.328   1.222  1.00 19.37 LIG 0.17  HD
ATOM     35 1HH1 ARG B1545       4.668  45.198   1.006  1.00 20.25 LIG 0.17  HD
ATOM     36 2HH1 ARG B1545       5.099  46.585   1.335  1.00 20.25 LIG 0.17  HD
ENDBRANCH 27 28
ENDBRANCH 26 27
ENDBRANCH 25 26
ENDBRANCH 24 25
BRANCH 24 37
ATOM     37  C   ARG B1545       1.977  41.711  -2.709  1.00 20.11 LIG 0.22  C 
ATOM     38 O    ARG B1545       1.884  40.714  -3.463  1.00 20.61 LIG-0.29  OA
ENDBRANCH 24 37
ENDBRANCH 22 24
ENDBRANCH 19 20
BRANCH 19 39
ATOM     39  CB  LEU B1544      -3.646  40.769  -2.423  1.00 22.71 LIG 0.04  C 
BRANCH 39 40
ATOM     40  CG  LEU B1544      -3.708  42.281  -2.691  1.00 23.46 LIG-0.02  C 
ATOM     41  CD1 LEU B1544      -5.123  42.637  -3.158  1.00 24.99 LIG 0.01  C 
ATOM     42  CD2 LEU B1544      -3.341  43.078  -1.445  1.00 22.67 LIG 0.01  C 
ENDBRANCH 39 40
ENDBRANCH 19 39
ENDBRANCH 16 19
ENDBRANCH 5 15
ENDBRANCH 3 5
BRANCH 1 43
ATOM     43  CA  TRP B1542      -2.412  43.382   2.486  1.00 29.62 LIG 0.18  C 
BRANCH 43 44
ATOM     44  N   TRP B1542      -2.687  44.527   1.620  1.00 31.24 LIG-0.35  N 
ATOM     45  C   ALA B1541      -1.719  45.080   0.908  1.00 34.20 LIG 0.24  C 
ATOM     46 O    ALA B1541      -0.572  44.640   0.911  1.00 33.88 LIG-0.27  OA
ATOM     47 H    TRP B1542      -3.505  44.793   1.619  1.00 31.24 LIG 0.16  HD
BRANCH 45 48
ATOM     48  CA  ALA B1541      -2.093  46.302   0.056  1.00 35.59 LIG 0.17  C 
ATOM     49  CB  ALA B1541      -0.948  47.341   0.097  1.00 37.24 LIG 0.04  C 
BRANCH 48 50
ATOM     50  N   ALA B1541      -3.358  46.961   0.408  1.00 36.68 LIG-0.35  N 
ATOM     51  C   ALA B1540      -4.480  46.751  -0.276  1.00 36.41 LIG 0.24  C 
ATOM     52 O    ALA B1540      -4.549  45.953  -1.216  1.00 35.55 LIG-0.27  OA
ATOM     53 H    ALA B1541      -3.305  47.487   1.086  1.00 36.68 LIG 0.16  HD
BRANCH 51 54
ATOM     54  CA  ALA B1540      -5.711  47.536   0.193  1.00 37.40 LIG 0.17  C 
ATOM     55  CB  ALA B1540      -5.883  48.810  -0.649  1.00 38.11 LIG 0.04  C 
BRANCH 54 56
ATOM     56  N   ALA B1540      -5.633  47.892   1.609  1.00 38.31 LIG-0.35  N 
ATOM     57 H    ALA B1540      -5.673  48.738   1.760  1.00 38.31 LIG 0.16  HD
ATOM     58  C   ILE B1539      -5.511  46.983   2.566  1.00 39.48 LIG 0.26  C 
ATOM     59 O    ILE B1539      -5.444  45.783   2.334  1.00 40.50 LIG-0.27  OA
BRANCH 58 60
ATOM     60  CA  ILE B1539      -5.425  47.511   3.999  1.00 40.24 LIG 0.40  C 
ATOM     61  N   ILE B1539      -6.198  46.660   4.961  1.00 42.50 LIG 0.61  N 
BRANCH 60 62
ATOM     62  CB  ILE B1539      -3.917  47.591   4.382  1.00 40.48 LIG 0.03  C 
ATOM     63  CG2 ILE B1539      -3.208  48.608   3.489  1.00 38.85 LIG 0.01  C 
BRANCH 62 64
ATOM     64  CG1 ILE B1539      -3.753  47.982   5.855  1.00 39.99 LIG 0.00  C 
ATOM     65  CD1 ILE B1539      -2.868  49.219   6.062  1.00 39.67 LIG 0.01  C 
ENDBRANCH 62 64
ENDBRANCH 60 62
ENDBRANCH 58 60
ENDBRANCH 54 56
ENDBRANCH 51 54
ENDBRANCH 48 50
ENDBRANCH 45 48
ENDBRANCH 43 44
BRANCH 43 66
ATOM     66  CB  TRP B1542      -3.007  43.644   3.877  1.00 29.93 LIG 0.07  C 
BRANCH 66 67
ATOM     67  CG  TRP B1542      -2.000  43.480   5.017  1.00 31.09 LIG-0.03  A 
ATOM     68  CD1 TRP B1542      -1.499  44.478   5.816  1.00 35.00 LIG 0.10  A 
ATOM     69  NE1 TRP B1542      -0.639  43.950   6.760  1.00 35.42 LIG-0.36  N 
ATOM     70 HE1  TRP B1542      -0.218  44.400   7.360  1.00 35.42 LIG 0.17  HD
ATOM     71  CE2 TRP B1542      -0.567  42.591   6.587  1.00 34.23 LIG 0.04  A 
ATOM     72  CD2 TRP B1542      -1.408  42.255   5.495  1.00 31.85 LIG-0.00  A 
ATOM     73  CZ2 TRP B1542       0.167  41.627   7.298  1.00 32.49 LIG 0.03  A 
ATOM     74  CE3 TRP B1542      -1.508  40.910   5.110  1.00 30.05 LIG 0.01  A 
ATOM     75  CZ3 TRP B1542      -0.779  39.949   5.817  1.00 29.28 LIG 0.00  A 
ATOM     76  CH2 TRP B1542       0.050  40.319   6.904  1.00 32.34 LIG 0.00  A 
ENDBRANCH 66 67
ENDBRANCH 43 66
ENDBRANCH 1 43
TORSDOF 26
ENDMDL
MODEL 22
USER: ADFR SOLUTION from run 184
USER: SCORE 21.309699 LL:  -6.523 LR: -17.865 RR:   0.000 FEB: -10.109
USER: RMSD 6.158044
USER: SEED 183
USER: STATUS no improvement in best in 3 clusters for 5 generations
USER: GENES 28
USER: genes 0 Translation |==|  0.38888 0.34784 0.57383
USER: genes 1 Rotation |==|  0.24428 0.78483 0.35667 0.78798
USER: genes 2 Torsion [C]-N--CA-[CB] |==|  0.80466
USER: genes 3 Torsion [N]-CA--CB-[CG] |==|  0.73333
USER: genes 4 Torsion [CA]-CB--CG-[CD1] |==|  0.35945
USER: genes 5 Torsion [CE1]-CZ--OH-[HH] |==|  0.88808
USER: genes 6 Torsion [N]-CA--C-[N] |==|  0.10197
USER: genes 7 Torsion [C]-N--CA-[CB] |==|  0.23220
USER: genes 8 Torsion [N]-CA--C-[N] |==|  0.43139
USER: genes 9 Torsion [C]-N--CA-[CB] |==|  0.26171
USER: genes 10 Torsion [N]-CA--CB-[CG] |==|  0.70006
USER: genes 11 Torsion [CA]-CB--CG-[CD] |==|  0.67616
USER: genes 12 Torsion [CB]-CG--CD-[NE] |==|  0.44731
USER: genes 13 Torsion [CG]-CD--NE-[HE] |==|  0.82611
USER: genes 14 Torsion [N]-CA--C-[O] |==|  0.80535
USER: genes 15 Torsion [N]-CA--CB-[CG] |==|  0.16869
USER: genes 16 Torsion [CA]-CB--CG-[CD1] |==|  0.28643
USER: genes 17 Torsion [N]-C--CA-[N] |==|  0.29937
USER: genes 18 Torsion [C]-CA--N-[C] |==|  0.65060
USER: genes 19 Torsion [N]-C--CA-[N] |==|  0.58522
USER: genes 20 Torsion [C]-CA--N-[C] |==|  0.20131
USER: genes 21 Torsion [N]-C--CA-[N] |==|  0.18897
USER: genes 22 Torsion [C]-CA--N-[C] |==|  0.78663
USER: genes 23 Torsion [N]-C--CA-[N] |==|  0.42316
USER: genes 24 Torsion [C]-CA--CB-[CG1] |==|  0.22091
USER: genes 25 Torsion [CA]-CB--CG1-[CD1] |==|  0.70687
USER: genes 26 Torsion [C]-CA--CB-[CG] |==|  0.19669
USER: genes 27 Torsion [CA]-CB--CG-[CD1] |==|  0.24440
ROOT
ATOM      1  C   TRP B1542      -5.042  40.995   3.854  1.00 26.55 LIG 0.24  C 
ATOM      2 O    TRP B1542      -5.353  39.995   3.222  1.00 27.86 LIG-0.27  OA
ATOM      3  N   TYR B1543      -3.912  41.080   4.546  1.00 24.62 LIG-0.35  N 
ATOM      4 H    TYR B1543      -3.706  41.740   5.058  1.00 24.62 LIG 0.16  HD
ENDROOT
BRANCH 3 5
ATOM      5  CA  TYR B1543      -2.912  40.029   4.482  1.00 22.31 LIG 0.18  C 
BRANCH 5 6
ATOM      6  CB  TYR B1543      -3.454  38.793   5.203  1.00 23.67 LIG 0.07  C 
BRANCH 6 7
ATOM      7  CG  TYR B1543      -3.023  38.638   6.648  1.00 24.58 LIG-0.06  A 
ATOM      8  CD1 TYR B1543      -3.963  38.405   7.652  1.00 24.59 LIG 0.01  A 
ATOM      9  CE1 TYR B1543      -3.587  38.336   8.984  1.00 26.50 LIG 0.04  A 
ATOM     10  CZ  TYR B1543      -2.257  38.507   9.316  1.00 24.60 LIG 0.07  A 
ATOM     11  CE2 TYR B1543      -1.304  38.733   8.326  1.00 24.06 LIG 0.04  A 
ATOM     12  CD2 TYR B1543      -1.691  38.791   7.015  1.00 22.62 LIG 0.01  A 
BRANCH 10 13
ATOM     13 OH   TYR B1543      -1.884  38.490  10.630  1.00 26.51 LIG-0.36  OA
ATOM     14 HH   TYR B1543      -2.455  38.902  11.088  1.00 26.51 LIG 0.22  HD
ENDBRANCH 10 13
ENDBRANCH 6 7
ENDBRANCH 5 6
BRANCH 5 15
ATOM     15  C   TYR B1543      -2.348  39.618   3.131  1.00 22.90 LIG 0.24  C 
ATOM     16  N   LEU B1544      -2.164  40.580   2.238  1.00 22.60 LIG-0.35  N 
ATOM     17 H    LEU B1544      -2.310  41.415   2.381  1.00 22.60 LIG 0.16  HD
ATOM     18 O    TYR B1543      -2.094  38.442   2.898  1.00 21.43 LIG-0.27  OA
BRANCH 16 19
ATOM     19  CA  LEU B1544      -1.681  40.257   0.904  1.00 22.81 LIG 0.18  C 
BRANCH 19 20
ATOM     20  C   LEU B1544      -0.931  41.424   0.271  1.00 21.53 LIG 0.24  C 
ATOM     21 O    LEU B1544      -1.150  42.589   0.620  1.00 22.00 LIG-0.27  OA
ATOM     22  N   ARG B1545      -0.043  41.111  -0.668  1.00 20.14 LIG-0.35  N 
ATOM     23 H    ARG B1545       0.132  40.313  -0.935  1.00 20.14 LIG 0.16  HD
BRANCH 22 24
ATOM     24  CA  ARG B1545       0.713  42.167  -1.321  1.00 18.95 LIG 0.16  C 
BRANCH 24 25
ATOM     25  CB  ARG B1545       2.060  42.366  -0.613  1.00 20.51 LIG 0.04  C 
BRANCH 25 26
ATOM     26  CG  ARG B1545       2.054  43.678   0.172  1.00 20.78 LIG 0.02  C 
BRANCH 26 27
ATOM     27  CD  ARG B1545       3.079  44.688  -0.336  1.00 21.13 LIG 0.14  C 
BRANCH 27 28
ATOM     28  NE  ARG B1545       2.743  46.041   0.121  1.00 20.56 LIG-0.23  N 
ATOM     29 HE   ARG B1545       1.999  46.384  -0.143  1.00 20.56 LIG 0.18  HD
ATOM     30  CZ  ARG B1545       3.519  46.766   0.919  1.00 23.27 LIG 0.67  C 
ATOM     31  NH2 ARG B1545       3.156  48.008   1.269  1.00 19.37 LIG-0.23  N 
ATOM     32  NH1 ARG B1545       4.668  46.259   1.348  1.00 20.25 LIG-0.23  N 
ATOM     33 1HH2 ARG B1545       2.419  48.339   0.976  1.00 19.37 LIG 0.17  HD
ATOM     34 2HH2 ARG B1545       3.661  48.474   1.785  1.00 19.37 LIG 0.17  HD
ATOM     35 1HH1 ARG B1545       4.905  45.468   1.108  1.00 20.25 LIG 0.17  HD
ATOM     36 2HH1 ARG B1545       5.176  46.722   1.864  1.00 20.25 LIG 0.17  HD
ENDBRANCH 27 28
ENDBRANCH 26 27
ENDBRANCH 25 26
ENDBRANCH 24 25
BRANCH 24 37
ATOM     37  C   ARG B1545       0.888  41.921  -2.814  1.00 20.11 LIG 0.22  C 
ATOM     38 O    ARG B1545       1.649  40.982  -3.147  1.00 20.61 LIG-0.29  OA
ENDBRANCH 24 37
ENDBRANCH 22 24
ENDBRANCH 19 20
BRANCH 19 39
ATOM     39  CB  LEU B1544      -2.859  39.827   0.020  1.00 22.71 LIG 0.04  C 
BRANCH 39 40
ATOM     40  CG  LEU B1544      -3.946  40.897  -0.166  1.00 23.46 LIG-0.02  C 
ATOM     41  CD1 LEU B1544      -3.785  41.519  -1.557  1.00 24.99 LIG 0.01  C 
ATOM     42  CD2 LEU B1544      -5.339  40.301  -0.007  1.00 22.67 LIG 0.01  C 
ENDBRANCH 39 40
ENDBRANCH 19 39
ENDBRANCH 16 19
ENDBRANCH 5 15
ENDBRANCH 3 5
BRANCH 1 43
ATOM     43  CA  TRP B1542      -5.976  42.198   3.901  1.00 29.62 LIG 0.18  C 
BRANCH 43 44
ATOM     44  N   TRP B1542      -6.001  42.951   2.648  1.00 31.24 LIG-0.35  N 
ATOM     45  C   ALA B1541      -5.756  44.251   2.639  1.00 34.20 LIG 0.24  C 
ATOM     46 O    ALA B1541      -5.462  44.868   3.661  1.00 33.88 LIG-0.27  OA
ATOM     47 H    TRP B1542      -6.182  42.485   1.949  1.00 31.24 LIG 0.16  HD
BRANCH 45 48
ATOM     48  CA  ALA B1541      -5.842  44.966   1.283  1.00 35.59 LIG 0.17  C 
ATOM     49  CB  ALA B1541      -5.586  43.956   0.140  1.00 37.24 LIG 0.04  C 
BRANCH 48 50
ATOM     50  N   ALA B1541      -4.953  46.124   1.115  1.00 36.68 LIG-0.35  N 
ATOM     51  C   ALA B1540      -3.639  45.992   0.959  1.00 36.41 LIG 0.24  C 
ATOM     52 O    ALA B1540      -3.082  44.892   0.894  1.00 35.55 LIG-0.27  OA
ATOM     53 H    ALA B1541      -5.358  46.883   1.126  1.00 36.68 LIG 0.16  HD
BRANCH 51 54
ATOM     54  CA  ALA B1540      -2.842  47.296   0.827  1.00 37.40 LIG 0.17  C 
ATOM     55  CB  ALA B1540      -1.398  46.995   0.397  1.00 38.11 LIG 0.04  C 
BRANCH 54 56
ATOM     56  N   ALA B1540      -2.833  48.066   2.069  1.00 38.31 LIG-0.35  N 
ATOM     57 H    ALA B1540      -2.096  48.011   2.509  1.00 38.31 LIG 0.16  HD
ATOM     58  C   ILE B1539      -3.874  48.782   2.471  1.00 39.48 LIG 0.26  C 
ATOM     59 O    ILE B1539      -4.919  48.841   1.838  1.00 40.50 LIG-0.27  OA
BRANCH 58 60
ATOM     60  CA  ILE B1539      -3.718  49.520   3.801  1.00 40.24 LIG 0.40  C 
ATOM     61  N   ILE B1539      -4.569  50.753   3.864  1.00 42.50 LIG 0.61  N 
BRANCH 60 62
ATOM     62  CB  ILE B1539      -4.069  48.518   4.941  1.00 40.48 LIG 0.03  C 
ATOM     63  CG2 ILE B1539      -5.300  47.700   4.551  1.00 38.85 LIG 0.01  C 
BRANCH 62 64
ATOM     64  CG1 ILE B1539      -2.887  47.584   5.223  1.00 39.99 LIG 0.00  C 
ATOM     65  CD1 ILE B1539      -3.091  46.162   4.685  1.00 39.67 LIG 0.01  C 
ENDBRANCH 62 64
ENDBRANCH 60 62
ENDBRANCH 58 60
ENDBRANCH 54 56
ENDBRANCH 51 54
ENDBRANCH 48 50
ENDBRANCH 45 48
ENDBRANCH 43 44
BRANCH 43 66
ATOM     66  CB  TRP B1542      -7.392  41.702   4.223  1.00 29.93 LIG 0.07  C 
BRANCH 66 67
ATOM     67  CG  TRP B1542      -7.559  41.210   5.662  1.00 31.09 LIG-0.03  A 
ATOM     68  CD1 TRP B1542      -7.895  41.972   6.754  1.00 35.00 LIG 0.10  A 
ATOM     69  NE1 TRP B1542      -7.987  41.180   7.882  1.00 35.42 LIG-0.36  N 
ATOM     70 HE1  TRP B1542      -8.187  41.455   8.672  1.00 35.42 LIG 0.17  HD
ATOM     71  CE2 TRP B1542      -7.707  39.881   7.538  1.00 34.23 LIG 0.04  A 
ATOM     72  CD2 TRP B1542      -7.429  39.858   6.147  1.00 31.85 LIG-0.00  A 
ATOM     73  CZ2 TRP B1542      -7.677  38.723   8.332  1.00 32.49 LIG 0.03  A 
ATOM     74  CE3 TRP B1542      -7.108  38.634   5.544  1.00 30.05 LIG 0.01  A 
ATOM     75  CZ3 TRP B1542      -7.078  37.480   6.333  1.00 29.28 LIG 0.00  A 
ATOM     76  CH2 TRP B1542      -7.363  37.538   7.718  1.00 32.34 LIG 0.00  A 
ENDBRANCH 66 67
ENDBRANCH 43 66
ENDBRANCH 1 43
TORSDOF 26
ENDMDL
MODEL 23
USER: ADFR SOLUTION from run 19
USER: SCORE 20.601403 LL:  -5.337 LR: -17.822 RR:   0.000 FEB: -10.067
USER: RMSD 7.359279
USER: SEED 18
USER: STATUS searching
USER: GENES 28
USER: genes 0 Translation |==|  0.46407 0.36432 0.66000
USER: genes 1 Rotation |==|  0.01248 0.39015 0.51327 0.50929
USER: genes 2 Torsion [C]-N--CA-[CB] |==|  0.22399
USER: genes 3 Torsion [N]-CA--CB-[CG] |==|  0.98355
USER: genes 4 Torsion [CA]-CB--CG-[CD1] |==|  0.22958
USER: genes 5 Torsion [CE1]-CZ--OH-[HH] |==|  0.39300
USER: genes 6 Torsion [N]-CA--C-[N] |==|  0.39288
USER: genes 7 Torsion [C]-N--CA-[CB] |==|  0.40539
USER: genes 8 Torsion [N]-CA--C-[N] |==|  0.92758
USER: genes 9 Torsion [C]-N--CA-[CB] |==|  0.34032
USER: genes 10 Torsion [N]-CA--CB-[CG] |==|  0.17814
USER: genes 11 Torsion [CA]-CB--CG-[CD] |==|  0.35882
USER: genes 12 Torsion [CB]-CG--CD-[NE] |==|  0.42989
USER: genes 13 Torsion [CG]-CD--NE-[HE] |==|  0.31207
USER: genes 14 Torsion [N]-CA--C-[O] |==|  0.92391
USER: genes 15 Torsion [N]-CA--CB-[CG] |==|  0.72128
USER: genes 16 Torsion [CA]-CB--CG-[CD1] |==|  0.01191
USER: genes 17 Torsion [N]-C--CA-[N] |==|  0.05555
USER: genes 18 Torsion [C]-CA--N-[C] |==|  0.69939
USER: genes 19 Torsion [N]-C--CA-[N] |==|  0.39453
USER: genes 20 Torsion [C]-CA--N-[C] |==|  0.80569
USER: genes 21 Torsion [N]-C--CA-[N] |==|  0.13297
USER: genes 22 Torsion [C]-CA--N-[C] |==|  0.17061
USER: genes 23 Torsion [N]-C--CA-[N] |==|  0.93170
USER: genes 24 Torsion [C]-CA--CB-[CG1] |==|  0.16386
USER: genes 25 Torsion [CA]-CB--CG1-[CD1] |==|  0.68248
USER: genes 26 Torsion [C]-CA--CB-[CG] |==|  0.29714
USER: genes 27 Torsion [CA]-CB--CG-[CD1] |==|  0.13702
ROOT
ATOM      1  C   TRP B1542      -3.293  41.316   5.470  1.00 26.55 LIG 0.24  C 
ATOM      2 O    TRP B1542      -2.141  41.459   5.854  1.00 27.86 LIG-0.27  OA
ATOM      3  N   TYR B1543      -3.839  42.095   4.544  1.00 24.62 LIG-0.35  N 
ATOM      4 H    TYR B1543      -4.667  42.064   4.312  1.00 24.62 LIG 0.16  HD
ENDROOT
BRANCH 3 5
ATOM      5  CA  TYR B1543      -3.049  43.085   3.835  1.00 22.31 LIG 0.18  C 
BRANCH 5 6
ATOM      6  CB  TYR B1543      -2.274  42.384   2.716  1.00 23.67 LIG 0.07  C 
BRANCH 6 7
ATOM      7  CG  TYR B1543      -2.386  40.873   2.692  1.00 24.58 LIG-0.06  A 
ATOM      8  CD1 TYR B1543      -3.480  40.248   2.095  1.00 24.59 LIG 0.01  A 
ATOM      9  CE1 TYR B1543      -3.627  38.869   2.133  1.00 26.50 LIG 0.04  A 
ATOM     10  CZ  TYR B1543      -2.672  38.110   2.779  1.00 24.60 LIG 0.07  A 
ATOM     11  CE2 TYR B1543      -1.569  38.717   3.374  1.00 24.06 LIG 0.04  A 
ATOM     12  CD2 TYR B1543      -1.435  40.078   3.322  1.00 22.62 LIG 0.01  A 
BRANCH 10 13
ATOM     13 OH   TYR B1543      -2.833  36.757   2.864  1.00 26.51 LIG-0.36  OA
ATOM     14 HH   TYR B1543      -2.088  36.379   2.767  1.00 26.51 LIG 0.22  HD
ENDBRANCH 10 13
ENDBRANCH 6 7
ENDBRANCH 5 6
BRANCH 5 15
ATOM     15  C   TYR B1543      -3.731  44.324   3.277  1.00 22.90 LIG 0.24  C 
ATOM     16  N   LEU B1544      -3.066  45.467   3.363  1.00 22.60 LIG-0.35  N 
ATOM     17 H    LEU B1544      -2.272  45.548   3.680  1.00 22.60 LIG 0.16  HD
ATOM     18 O    TYR B1543      -4.851  44.246   2.785  1.00 21.43 LIG-0.27  OA
BRANCH 16 19
ATOM     19  CA  LEU B1544      -3.676  46.705   2.903  1.00 22.81 LIG 0.18  C 
BRANCH 19 20
ATOM     20  C   LEU B1544      -3.362  46.986   1.437  1.00 21.53 LIG 0.24  C 
ATOM     21 O    LEU B1544      -4.122  47.668   0.741  1.00 22.00 LIG-0.27  OA
ATOM     22  N   ARG B1545      -2.238  46.456   0.965  1.00 20.14 LIG-0.35  N 
ATOM     23 H    ARG B1545      -1.689  45.976   1.421  1.00 20.14 LIG 0.16  HD
BRANCH 22 24
ATOM     24  CA  ARG B1545      -1.867  46.677  -0.422  1.00 18.95 LIG 0.16  C 
BRANCH 24 25
ATOM     25  CB  ARG B1545      -0.484  47.337  -0.500  1.00 20.51 LIG 0.04  C 
BRANCH 25 26
ATOM     26  CG  ARG B1545       0.581  46.395   0.061  1.00 20.78 LIG 0.02  C 
BRANCH 26 27
ATOM     27  CD  ARG B1545       1.771  46.206  -0.876  1.00 21.13 LIG 0.14  C 
BRANCH 27 28
ATOM     28  NE  ARG B1545       2.970  45.829  -0.120  1.00 20.56 LIG-0.23  N 
ATOM     29 HE   ARG B1545       3.287  45.037  -0.231  1.00 20.56 LIG 0.18  HD
ATOM     30  CZ  ARG B1545       3.596  46.640   0.726  1.00 23.27 LIG 0.67  C 
ATOM     31  NH2 ARG B1545       4.669  46.212   1.405  1.00 19.37 LIG-0.23  N 
ATOM     32  NH1 ARG B1545       3.134  47.870   0.913  1.00 20.25 LIG-0.23  N 
ATOM     33 1HH2 ARG B1545       4.956  45.410   1.293  1.00 19.37 LIG 0.17  HD
ATOM     34 2HH2 ARG B1545       5.071  46.740   1.951  1.00 19.37 LIG 0.17  HD
ATOM     35 1HH1 ARG B1545       2.435  48.136   0.488  1.00 20.25 LIG 0.17  HD
ATOM     36 2HH1 ARG B1545       3.533  48.401   1.459  1.00 20.25 LIG 0.17  HD
ENDBRANCH 27 28
ENDBRANCH 26 27
ENDBRANCH 25 26
ENDBRANCH 24 25
BRANCH 24 37
ATOM     37  C   ARG B1545      -1.936  45.404  -1.255  1.00 20.11 LIG 0.22  C 
ATOM     38 O    ARG B1545      -1.763  44.321  -0.647  1.00 20.61 LIG-0.29  OA
ENDBRANCH 24 37
ENDBRANCH 22 24
ENDBRANCH 19 20
BRANCH 19 39
ATOM     39  CB  LEU B1544      -3.213  47.868   3.788  1.00 22.71 LIG 0.04  C 
BRANCH 39 40
ATOM     40  CG  LEU B1544      -4.224  48.301   4.862  1.00 23.46 LIG-0.02  C 
ATOM     41  CD1 LEU B1544      -5.420  47.345   4.818  1.00 24.99 LIG 0.01  C 
ATOM     42  CD2 LEU B1544      -3.591  48.299   6.248  1.00 22.67 LIG 0.01  C 
ENDBRANCH 39 40
ENDBRANCH 19 39
ENDBRANCH 16 19
ENDBRANCH 5 15
ENDBRANCH 3 5
BRANCH 1 43
ATOM     43  CA  TRP B1542      -4.179  40.234   6.077  1.00 29.62 LIG 0.18  C 
BRANCH 43 44
ATOM     44  N   TRP B1542      -5.335  39.909   5.244  1.00 31.24 LIG-0.35  N 
ATOM     45  C   ALA B1541      -6.552  40.278   5.608  1.00 34.20 LIG 0.24  C 
ATOM     46 O    ALA B1541      -6.759  40.934   6.627  1.00 33.88 LIG-0.27  OA
ATOM     47 H    TRP B1542      -5.153  39.474   4.524  1.00 31.24 LIG 0.16  HD
BRANCH 45 48
ATOM     48  CA  ALA B1541      -7.710  39.859   4.690  1.00 35.59 LIG 0.17  C 
ATOM     49  CB  ALA B1541      -8.018  40.991   3.683  1.00 37.24 LIG 0.04  C 
BRANCH 48 50
ATOM     50  N   ALA B1541      -8.952  39.464   5.370  1.00 36.68 LIG-0.35  N 
ATOM     51  C   ALA B1540      -9.048  38.338   6.072  1.00 36.41 LIG 0.24  C 
ATOM     52 O    ALA B1540      -8.092  37.575   6.244  1.00 35.55 LIG-0.27  OA
ATOM     53 H    ALA B1541      -9.599  40.021   5.272  1.00 36.68 LIG 0.16  HD
BRANCH 51 54
ATOM     54  CA  ALA B1540     -10.418  38.049   6.696  1.00 37.40 LIG 0.17  C 
ATOM     55  CB  ALA B1540     -10.454  36.621   7.263  1.00 38.11 LIG 0.04  C 
BRANCH 54 56
ATOM     56  N   ALA B1540     -11.509  38.222   5.739  1.00 38.31 LIG-0.35  N 
ATOM     57 H    ALA B1540     -12.075  38.831   5.959  1.00 38.31 LIG 0.16  HD
ATOM     58  C   ILE B1539     -11.607  37.498   4.633  1.00 39.48 LIG 0.26  C 
ATOM     59 O    ILE B1539     -10.799  36.627   4.338  1.00 40.50 LIG-0.27  OA
BRANCH 58 60
ATOM     60  CA  ILE B1539     -12.814  37.784   3.738  1.00 40.24 LIG 0.40  C 
ATOM     61  N   ILE B1539     -13.956  38.379   4.505  1.00 42.50 LIG 0.61  N 
BRANCH 60 62
ATOM     62  CB  ILE B1539     -12.338  38.723   2.590  1.00 40.48 LIG 0.03  C 
ATOM     63  CG2 ILE B1539     -11.857  40.051   3.172  1.00 38.85 LIG 0.01  C 
BRANCH 62 64
ATOM     64  CG1 ILE B1539     -11.212  38.065   1.785  1.00 39.99 LIG 0.00  C 
ATOM     65  CD1 ILE B1539      -9.867  38.792   1.911  1.00 39.67 LIG 0.01  C 
ENDBRANCH 62 64
ENDBRANCH 60 62
ENDBRANCH 58 60
ENDBRANCH 54 56
ENDBRANCH 51 54
ENDBRANCH 48 50
ENDBRANCH 45 48
ENDBRANCH 43 44
BRANCH 43 66
ATOM     66  CB  TRP B1542      -3.332  38.971   6.283  1.00 29.93 LIG 0.07  C 
BRANCH 66 67
ATOM     67  CG  TRP B1542      -2.991  38.693   7.749  1.00 31.09 LIG-0.03  A 
ATOM     68  CD1 TRP B1542      -3.869  38.678   8.804  1.00 35.00 LIG 0.10  A 
ATOM     69  NE1 TRP B1542      -3.207  38.356   9.974  1.00 35.42 LIG-0.36  N 
ATOM     70 HE1  TRP B1542      -3.569  38.290  10.752  1.00 35.42 LIG 0.17  HD
ATOM     71  CE2 TRP B1542      -1.878  38.157   9.694  1.00 34.23 LIG 0.04  A 
ATOM     72  CD2 TRP B1542      -1.700  38.364   8.302  1.00 31.85 LIG-0.00  A 
ATOM     73  CZ2 TRP B1542      -0.817  37.812  10.547  1.00 32.49 LIG 0.03  A 
ATOM     74  CE3 TRP B1542      -0.415  38.221   7.758  1.00 30.05 LIG 0.01  A 
ATOM     75  CZ3 TRP B1542       0.642  37.877   8.606  1.00 29.28 LIG 0.00  A 
ATOM     76  CH2 TRP B1542       0.428  37.676   9.991  1.00 32.34 LIG 0.00  A 
ENDBRANCH 66 67
ENDBRANCH 43 66
ENDBRANCH 1 43
TORSDOF 26
ENDMDL
MODEL 24
USER: ADFR SOLUTION from run 7
USER: SCORE 22.563508 LL:  -7.876 LR: -17.781 RR:   0.000 FEB: -10.025
USER: RMSD 6.418285
USER: SEED 287945
USER: STATUS no improvement in best in 7 clusters for 5 generations
USER: GENES 28
USER: genes 0 Translation |==|  0.49847 0.44782 0.49390
USER: genes 1 Rotation |==|  0.28851 0.29269 0.72114 0.83673
USER: genes 2 Torsion [C]-N--CA-[CB] |==|  0.80542
USER: genes 3 Torsion [N]-CA--CB-[CG] |==|  0.84204
USER: genes 4 Torsion [CA]-CB--CG-[CD1] |==|  0.60800
USER: genes 5 Torsion [CE1]-CZ--OH-[HH] |==|  0.07135
USER: genes 6 Torsion [N]-CA--C-[N] |==|  0.69704
USER: genes 7 Torsion [C]-N--CA-[CB] |==|  0.39638
USER: genes 8 Torsion [N]-CA--C-[N] |==|  0.91182
USER: genes 9 Torsion [C]-N--CA-[CB] |==|  0.36738
USER: genes 10 Torsion [N]-CA--CB-[CG] |==|  0.17737
USER: genes 11 Torsion [CA]-CB--CG-[CD] |==|  0.39259
USER: genes 12 Torsion [CB]-CG--CD-[NE] |==|  0.41533
USER: genes 13 Torsion [CG]-CD--NE-[HE] |==|  0.28077
USER: genes 14 Torsion [N]-CA--C-[O] |==|  0.26128
USER: genes 15 Torsion [N]-CA--CB-[CG] |==|  0.84645
USER: genes 16 Torsion [CA]-CB--CG-[CD1] |==|  0.50607
USER: genes 17 Torsion [N]-C--CA-[N] |==|  0.98853
USER: genes 18 Torsion [C]-CA--N-[C] |==|  0.75712
USER: genes 19 Torsion [N]-C--CA-[N] |==|  0.78960
USER: genes 20 Torsion [C]-CA--N-[C] |==|  0.75055
USER: genes 21 Torsion [N]-C--CA-[N] |==|  0.91406
USER: genes 22 Torsion [C]-CA--N-[C] |==|  0.83242
USER: genes 23 Torsion [N]-C--CA-[N] |==|  0.45665
USER: genes 24 Torsion [C]-CA--CB-[CG1] |==|  0.81148
USER: genes 25 Torsion [CA]-CB--CG1-[CD1] |==|  0.48576
USER: genes 26 Torsion [C]-CA--CB-[CG] |==|  0.26291
USER: genes 27 Torsion [CA]-CB--CG-[CD1] |==|  0.52940
ROOT
ATOM      1  C   TRP B1542      -2.494  42.945   2.356  1.00 26.55 LIG 0.24  C 
ATOM      2 O    TRP B1542      -1.872  43.966   2.098  1.00 27.86 LIG-0.27  OA
ATOM      3  N   TYR B1543      -3.217  42.807   3.460  1.00 24.62 LIG-0.35  N 
ATOM      4 H    TYR B1543      -3.599  42.075   3.701  1.00 24.62 LIG 0.16  HD
ENDROOT
BRANCH 3 5
ATOM      5  CA  TYR B1543      -3.417  43.921   4.369  1.00 22.31 LIG 0.18  C 
BRANCH 5 6
ATOM      6  CB  TYR B1543      -2.091  44.227   5.070  1.00 23.67 LIG 0.07  C 
BRANCH 6 7
ATOM      7  CG  TYR B1543      -1.471  43.070   5.828  1.00 24.58 LIG-0.06  A 
ATOM      8  CD1 TYR B1543      -0.841  43.277   7.055  1.00 24.59 LIG 0.01  A 
ATOM      9  CE1 TYR B1543      -0.208  42.238   7.720  1.00 26.50 LIG 0.04  A 
ATOM     10  CZ  TYR B1543      -0.201  40.980   7.149  1.00 24.60 LIG 0.07  A 
ATOM     11  CE2 TYR B1543      -0.832  40.754   5.928  1.00 24.06 LIG 0.04  A 
ATOM     12  CD2 TYR B1543      -1.459  41.789   5.288  1.00 22.62 LIG 0.01  A 
BRANCH 10 13
ATOM     13 OH   TYR B1543       0.461  39.962   7.772  1.00 26.51 LIG-0.36  OA
ATOM     14 HH   TYR B1543       0.503  40.119   8.597  1.00 26.51 LIG 0.22  HD
ENDBRANCH 10 13
ENDBRANCH 6 7
ENDBRANCH 5 6
BRANCH 5 15
ATOM     15  C   TYR B1543      -4.018  45.215   3.842  1.00 22.90 LIG 0.24  C 
ATOM     16  N   LEU B1544      -3.208  46.260   3.747  1.00 22.60 LIG-0.35  N 
ATOM     17 H    LEU B1544      -2.368  46.247   3.931  1.00 22.60 LIG 0.16  HD
ATOM     18 O    TYR B1543      -5.203  45.268   3.535  1.00 21.43 LIG-0.27  OA
BRANCH 16 19
ATOM     19  CA  LEU B1544      -3.722  47.547   3.306  1.00 22.81 LIG 0.18  C 
BRANCH 19 20
ATOM     20  C   LEU B1544      -3.545  47.748   1.804  1.00 21.53 LIG 0.24  C 
ATOM     21 O    LEU B1544      -4.357  48.411   1.149  1.00 22.00 LIG-0.27  OA
ATOM     22  N   ARG B1545      -2.480  47.172   1.256  1.00 20.14 LIG-0.35  N 
ATOM     23 H    ARG B1545      -1.898  46.704   1.682  1.00 20.14 LIG 0.16  HD
BRANCH 22 24
ATOM     24  CA  ARG B1545      -2.241  47.317  -0.170  1.00 18.95 LIG 0.16  C 
BRANCH 24 25
ATOM     25  CB  ARG B1545      -0.779  47.712  -0.422  1.00 20.51 LIG 0.04  C 
BRANCH 25 26
ATOM     26  CG  ARG B1545       0.156  46.595   0.043  1.00 20.78 LIG 0.02  C 
BRANCH 26 27
ATOM     27  CD  ARG B1545       1.350  46.385  -0.883  1.00 21.13 LIG 0.14  C 
BRANCH 27 28
ATOM     28  NE  ARG B1545       2.513  45.906  -0.128  1.00 20.56 LIG-0.23  N 
ATOM     29 HE   ARG B1545       2.697  45.066  -0.160  1.00 20.56 LIG 0.18  HD
ATOM     30  CZ  ARG B1545       3.297  46.692   0.601  1.00 23.27 LIG 0.67  C 
ATOM     31  NH2 ARG B1545       4.323  46.173   1.288  1.00 19.37 LIG-0.23  N 
ATOM     32  NH1 ARG B1545       3.040  47.992   0.662  1.00 20.25 LIG-0.23  N 
ATOM     33 1HH2 ARG B1545       4.477  45.328   1.259  1.00 19.37 LIG 0.17  HD
ATOM     34 2HH2 ARG B1545       4.828  46.686   1.759  1.00 19.37 LIG 0.17  HD
ATOM     35 1HH1 ARG B1545       2.370  48.319   0.233  1.00 20.25 LIG 0.17  HD
ATOM     36 2HH1 ARG B1545       3.542  48.508   1.132  1.00 20.25 LIG 0.17  HD
ENDBRANCH 27 28
ENDBRANCH 26 27
ENDBRANCH 25 26
ENDBRANCH 24 25
BRANCH 24 37
ATOM     37  C   ARG B1545      -2.636  46.074  -0.957  1.00 20.11 LIG 0.22  C 
ATOM     38 O    ARG B1545      -3.790  46.059  -1.448  1.00 20.61 LIG-0.29  OA
ENDBRANCH 24 37
ENDBRANCH 22 24
ENDBRANCH 19 20
BRANCH 19 39
ATOM     39  CB  LEU B1544      -3.034  48.673   4.088  1.00 22.71 LIG 0.04  C 
BRANCH 39 40
ATOM     40  CG  LEU B1544      -3.141  48.552   5.616  1.00 23.46 LIG-0.02  C 
ATOM     41  CD1 LEU B1544      -2.458  49.768   6.250  1.00 24.99 LIG 0.01  C 
ATOM     42  CD2 LEU B1544      -4.594  48.463   6.063  1.00 22.67 LIG 0.01  C 
ENDBRANCH 39 40
ENDBRANCH 19 39
ENDBRANCH 16 19
ENDBRANCH 5 15
ENDBRANCH 3 5
BRANCH 1 43
ATOM     43  CA  TRP B1542      -2.435  41.749   1.412  1.00 29.62 LIG 0.18  C 
BRANCH 43 44
ATOM     44  N   TRP B1542      -3.129  40.574   1.936  1.00 31.24 LIG-0.35  N 
ATOM     45  C   ALA B1541      -2.499  39.712   2.717  1.00 34.20 LIG 0.24  C 
ATOM     46 O    ALA B1541      -1.332  39.878   3.066  1.00 33.88 LIG-0.27  OA
ATOM     47 H    TRP B1542      -3.952  40.501   1.695  1.00 31.24 LIG 0.16  HD
BRANCH 45 48
ATOM     48  CA  ALA B1541      -3.297  38.488   3.188  1.00 35.59 LIG 0.17  C 
ATOM     49  CB  ALA B1541      -4.006  37.827   1.983  1.00 37.24 LIG 0.04  C 
BRANCH 48 50
ATOM     50  N   ALA B1541      -4.280  38.737   4.252  1.00 36.68 LIG-0.35  N 
ATOM     51  C   ALA B1540      -3.965  38.647   5.541  1.00 36.41 LIG 0.24  C 
ATOM     52 O    ALA B1540      -2.821  38.400   5.934  1.00 35.55 LIG-0.27  OA
ATOM     53 H    ALA B1541      -5.063  38.943   3.966  1.00 36.68 LIG 0.16  HD
BRANCH 51 54
ATOM     54  CA  ALA B1540      -5.107  38.905   6.532  1.00 37.40 LIG 0.17  C 
ATOM     55  CB  ALA B1540      -5.813  37.587   6.887  1.00 38.11 LIG 0.04  C 
BRANCH 54 56
ATOM     56  N   ALA B1540      -6.086  39.859   6.011  1.00 38.31 LIG-0.35  N 
ATOM     57 H    ALA B1540      -6.881  39.540   5.939  1.00 38.31 LIG 0.16  HD
ATOM     58  C   ILE B1539      -5.763  41.101   5.681  1.00 39.48 LIG 0.26  C 
ATOM     59 O    ILE B1539      -4.624  41.537   5.780  1.00 40.50 LIG-0.27  OA
BRANCH 58 60
ATOM     60  CA  ILE B1539      -6.893  41.975   5.134  1.00 40.24 LIG 0.40  C 
ATOM     61  N   ILE B1539      -6.536  43.431   5.146  1.00 42.50 LIG 0.61  N 
BRANCH 60 62
ATOM     62  CB  ILE B1539      -7.223  41.473   3.697  1.00 40.48 LIG 0.03  C 
ATOM     63  CG2 ILE B1539      -8.497  42.148   3.191  1.00 38.85 LIG 0.01  C 
BRANCH 62 64
ATOM     64  CG1 ILE B1539      -6.060  41.764   2.742  1.00 39.99 LIG 0.00  C 
ATOM     65  CD1 ILE B1539      -6.266  41.184   1.336  1.00 39.67 LIG 0.01  C 
ENDBRANCH 62 64
ENDBRANCH 60 62
ENDBRANCH 58 60
ENDBRANCH 54 56
ENDBRANCH 51 54
ENDBRANCH 48 50
ENDBRANCH 45 48
ENDBRANCH 43 44
BRANCH 43 66
ATOM     66  CB  TRP B1542      -3.065  42.155   0.072  1.00 29.93 LIG 0.07  C 
BRANCH 66 67
ATOM     67  CG  TRP B1542      -2.047  42.637  -0.964  1.00 31.09 LIG-0.03  A 
ATOM     68  CD1 TRP B1542      -2.325  43.247  -2.161  1.00 35.00 LIG 0.10  A 
ATOM     69  NE1 TRP B1542      -1.153  43.573  -2.818  1.00 35.42 LIG-0.36  N 
ATOM     70 HE1  TRP B1542      -1.099  43.963  -3.582  1.00 35.42 LIG 0.17  HD
ATOM     71  CE2 TRP B1542      -0.087  43.173  -2.051  1.00 34.23 LIG 0.04  A 
ATOM     72  CD2 TRP B1542      -0.608  42.575  -0.874  1.00 31.85 LIG-0.00  A 
ATOM     73  CZ2 TRP B1542       1.292  43.288  -2.291  1.00 32.49 LIG 0.03  A 
ATOM     74  CE3 TRP B1542       0.287  42.077   0.083  1.00 30.05 LIG 0.01  A 
ATOM     75  CZ3 TRP B1542       1.661  42.192  -0.155  1.00 29.28 LIG 0.00  A 
ATOM     76  CH2 TRP B1542       2.147  42.797  -1.339  1.00 32.34 LIG 0.00  A 
ENDBRANCH 66 67
ENDBRANCH 43 66
ENDBRANCH 1 43
TORSDOF 26
ENDMDL
MODEL 25
USER: ADFR SOLUTION from run 194
USER: SCORE 21.678082 LL:  -6.442 LR: -17.746 RR:   0.000 FEB:  -9.990
USER: RMSD 6.868272
USER: SEED 193
USER: STATUS no improvement in best in 7 clusters for 5 generations
USER: GENES 28
USER: genes 0 Translation |==|  0.46303 0.37807 0.63867
USER: genes 1 Rotation |==|  0.98433 0.53713 0.52717 0.61537
USER: genes 2 Torsion [C]-N--CA-[CB] |==|  0.24444
USER: genes 3 Torsion [N]-CA--CB-[CG] |==|  0.19572
USER: genes 4 Torsion [CA]-CB--CG-[CD1] |==|  0.27478
USER: genes 5 Torsion [CE1]-CZ--OH-[HH] |==|  0.30105
USER: genes 6 Torsion [N]-CA--C-[N] |==|  0.55519
USER: genes 7 Torsion [C]-N--CA-[CB] |==|  0.17967
USER: genes 8 Torsion [N]-CA--C-[N] |==|  0.07435
USER: genes 9 Torsion [C]-N--CA-[CB] |==|  0.25736
USER: genes 10 Torsion [N]-CA--CB-[CG] |==|  0.97161
USER: genes 11 Torsion [CA]-CB--CG-[CD] |==|  0.63767
USER: genes 12 Torsion [CB]-CG--CD-[NE] |==|  0.31312
USER: genes 13 Torsion [CG]-CD--NE-[HE] |==|  0.94361
USER: genes 14 Torsion [N]-CA--C-[O] |==|  0.56544
USER: genes 15 Torsion [N]-CA--CB-[CG] |==|  0.63543
USER: genes 16 Torsion [CA]-CB--CG-[CD1] |==|  0.98675
USER: genes 17 Torsion [N]-C--CA-[N] |==|  0.92450
USER: genes 18 Torsion [C]-CA--N-[C] |==|  0.57274
USER: genes 19 Torsion [N]-C--CA-[N] |==|  0.93659
USER: genes 20 Torsion [C]-CA--N-[C] |==|  0.86613
USER: genes 21 Torsion [N]-C--CA-[N] |==|  0.47405
USER: genes 22 Torsion [C]-CA--N-[C] |==|  0.82889
USER: genes 23 Torsion [N]-C--CA-[N] |==|  0.35898
USER: genes 24 Torsion [C]-CA--CB-[CG1] |==|  0.56360
USER: genes 25 Torsion [CA]-CB--CG1-[CD1] |==|  0.62155
USER: genes 26 Torsion [C]-CA--CB-[CG] |==|  0.07932
USER: genes 27 Torsion [CA]-CB--CG-[CD1] |==|  0.72849
ROOT
ATOM      1  C   TRP B1542      -3.317  41.584   5.070  1.00 26.55 LIG 0.24  C 
ATOM      2 O    TRP B1542      -2.274  41.660   5.703  1.00 27.86 LIG-0.27  OA
ATOM      3  N   TYR B1543      -3.403  41.923   3.789  1.00 24.62 LIG-0.35  N 
ATOM      4 H    TYR B1543      -4.139  41.952   3.344  1.00 24.62 LIG 0.16  HD
ENDROOT
BRANCH 3 5
ATOM      5  CA  TYR B1543      -2.221  42.281   3.028  1.00 22.31 LIG 0.18  C 
BRANCH 5 6
ATOM      6  CB  TYR B1543      -1.616  41.007   2.432  1.00 23.67 LIG 0.07  C 
BRANCH 6 7
ATOM      7  CG  TYR B1543      -2.416  40.364   1.316  1.00 24.58 LIG-0.06  A 
ATOM      8  CD1 TYR B1543      -2.076  40.579  -0.019  1.00 24.59 LIG 0.01  A 
ATOM      9  CE1 TYR B1543      -2.846  40.056  -1.047  1.00 26.50 LIG 0.04  A 
ATOM     10  CZ  TYR B1543      -3.970  39.315  -0.736  1.00 24.60 LIG 0.07  A 
ATOM     11  CE2 TYR B1543      -4.319  39.085   0.592  1.00 24.06 LIG 0.04  A 
ATOM     12  CD2 TYR B1543      -3.545  39.603   1.595  1.00 22.62 LIG 0.01  A 
BRANCH 10 13
ATOM     13 OH   TYR B1543      -4.760  38.838  -1.741  1.00 26.51 LIG-0.36  OA
ATOM     14 HH   TYR B1543      -4.665  38.005  -1.801  1.00 26.51 LIG 0.22  HD
ENDBRANCH 10 13
ENDBRANCH 6 7
ENDBRANCH 5 6
BRANCH 5 15
ATOM     15  C   TYR B1543      -2.324  43.343   1.945  1.00 22.90 LIG 0.24  C 
ATOM     16  N   LEU B1544      -1.372  43.357   1.023  1.00 22.60 LIG-0.35  N 
ATOM     17 H    LEU B1544      -0.725  42.792   0.979  1.00 22.60 LIG 0.16  HD
ATOM     18 O    TYR B1543      -3.249  44.147   1.951  1.00 21.43 LIG-0.27  OA
BRANCH 16 19
ATOM     19  CA  LEU B1544      -1.370  44.378  -0.013  1.00 22.81 LIG 0.18  C 
BRANCH 19 20
ATOM     20  C   LEU B1544      -0.314  44.109  -1.080  1.00 21.53 LIG 0.24  C 
ATOM     21 O    LEU B1544       0.180  45.032  -1.737  1.00 22.00 LIG-0.27  OA
ATOM     22  N   ARG B1545       0.032  42.838  -1.256  1.00 20.14 LIG-0.35  N 
ATOM     23 H    ARG B1545      -0.293  42.173  -0.818  1.00 20.14 LIG 0.16  HD
BRANCH 22 24
ATOM     24  CA  ARG B1545       1.032  42.498  -2.254  1.00 18.95 LIG 0.16  C 
BRANCH 24 25
ATOM     25  CB  ARG B1545       2.425  42.455  -1.612  1.00 20.51 LIG 0.04  C 
BRANCH 25 26
ATOM     26  CG  ARG B1545       2.369  43.026  -0.194  1.00 20.78 LIG 0.02  C 
BRANCH 26 27
ATOM     27  CD  ARG B1545       3.446  44.073   0.076  1.00 21.13 LIG 0.14  C 
BRANCH 27 28
ATOM     28  NE  ARG B1545       2.843  45.397   0.265  1.00 20.56 LIG-0.23  N 
ATOM     29 HE   ARG B1545       2.050  45.528  -0.041  1.00 20.56 LIG 0.18  HD
ATOM     30  CZ  ARG B1545       3.451  46.404   0.883  1.00 23.27 LIG 0.67  C 
ATOM     31  NH2 ARG B1545       2.846  47.595   0.989  1.00 19.37 LIG-0.23  N 
ATOM     32  NH1 ARG B1545       4.672  46.228   1.371  1.00 20.25 LIG-0.23  N 
ATOM     33 1HH2 ARG B1545       2.062  47.710   0.658  1.00 19.37 LIG 0.17  HD
ATOM     34 2HH2 ARG B1545       3.243  48.244   1.390  1.00 19.37 LIG 0.17  HD
ATOM     35 1HH1 ARG B1545       5.063  45.467   1.287  1.00 20.25 LIG 0.17  HD
ATOM     36 2HH1 ARG B1545       5.072  46.875   1.772  1.00 20.25 LIG 0.17  HD
ENDBRANCH 27 28
ENDBRANCH 26 27
ENDBRANCH 25 26
ENDBRANCH 24 25
BRANCH 24 37
ATOM     37  C   ARG B1545       0.706  41.204  -2.989  1.00 20.11 LIG 0.22  C 
ATOM     38 O    ARG B1545       1.668  40.594  -3.512  1.00 20.61 LIG-0.29  OA
ENDBRANCH 24 37
ENDBRANCH 22 24
ENDBRANCH 19 20
BRANCH 19 39
ATOM     39  CB  LEU B1544      -1.156  45.757   0.624  1.00 22.71 LIG 0.04  C 
BRANCH 39 40
ATOM     40  CG  LEU B1544      -2.150  46.837   0.167  1.00 23.46 LIG-0.02  C 
ATOM     41  CD1 LEU B1544      -3.043  46.245  -0.928  1.00 24.99 LIG 0.01  C 
ATOM     42  CD2 LEU B1544      -2.994  47.339   1.331  1.00 22.67 LIG 0.01  C 
ENDBRANCH 39 40
ENDBRANCH 19 39
ENDBRANCH 16 19
ENDBRANCH 5 15
ENDBRANCH 3 5
BRANCH 1 43
ATOM     43  CA  TRP B1542      -4.599  41.118   5.751  1.00 29.62 LIG 0.18  C 
BRANCH 43 44
ATOM     44  N   TRP B1542      -5.805  41.680   5.145  1.00 31.24 LIG-0.35  N 
ATOM     45  C   ALA B1541      -6.911  41.824   5.856  1.00 34.20 LIG 0.24  C 
ATOM     46 O    ALA B1541      -6.964  41.534   7.049  1.00 33.88 LIG-0.27  OA
ATOM     47 H    TRP B1542      -5.727  41.897   4.316  1.00 31.24 LIG 0.16  HD
BRANCH 45 48
ATOM     48  CA  ALA B1541      -8.139  42.386   5.125  1.00 35.59 LIG 0.17  C 
ATOM     49  CB  ALA B1541      -9.111  41.236   4.770  1.00 37.24 LIG 0.04  C 
BRANCH 48 50
ATOM     50  N   ALA B1541      -7.858  43.174   3.917  1.00 36.68 LIG-0.35  N 
ATOM     51  C   ALA B1540      -6.944  44.140   3.899  1.00 36.41 LIG 0.24  C 
ATOM     52 O    ALA B1540      -6.235  44.408   4.875  1.00 35.55 LIG-0.27  OA
ATOM     53 H    ALA B1541      -8.332  42.954   3.235  1.00 36.68 LIG 0.16  HD
BRANCH 51 54
ATOM     54  CA  ALA B1540      -6.787  44.894   2.573  1.00 37.40 LIG 0.17  C 
ATOM     55  CB  ALA B1540      -6.218  43.959   1.494  1.00 38.11 LIG 0.04  C 
BRANCH 54 56
ATOM     56  N   ALA B1540      -5.928  46.069   2.704  1.00 38.31 LIG-0.35  N 
ATOM     57 H    ALA B1540      -5.218  46.040   2.218  1.00 38.31 LIG 0.16  HD
ATOM     58  C   ILE B1539      -6.227  47.084   3.503  1.00 39.48 LIG 0.26  C 
ATOM     59 O    ILE B1539      -7.235  47.105   4.195  1.00 40.50 LIG-0.27  OA
BRANCH 58 60
ATOM     60  CA  ILE B1539      -5.220  48.235   3.545  1.00 40.24 LIG 0.40  C 
ATOM     61  N   ILE B1539      -5.877  49.566   3.332  1.00 42.50 LIG 0.61  N 
BRANCH 60 62
ATOM     62  CB  ILE B1539      -4.485  48.168   4.916  1.00 40.48 LIG 0.03  C 
ATOM     63  CG2 ILE B1539      -3.369  47.126   4.856  1.00 38.85 LIG 0.01  C 
BRANCH 62 64
ATOM     64  CG1 ILE B1539      -3.904  49.538   5.287  1.00 39.99 LIG 0.00  C 
ATOM     65  CD1 ILE B1539      -2.475  49.464   5.842  1.00 39.67 LIG 0.01  C 
ENDBRANCH 62 64
ENDBRANCH 60 62
ENDBRANCH 58 60
ENDBRANCH 54 56
ENDBRANCH 51 54
ENDBRANCH 48 50
ENDBRANCH 45 48
ENDBRANCH 43 44
BRANCH 43 66
ATOM     66  CB  TRP B1542      -4.660  39.586   5.677  1.00 29.93 LIG 0.07  C 
BRANCH 66 67
ATOM     67  CG  TRP B1542      -3.284  38.918   5.631  1.00 31.09 LIG-0.03  A 
ATOM     68  CD1 TRP B1542      -2.624  38.481   4.510  1.00 35.00 LIG 0.10  A 
ATOM     69  NE1 TRP B1542      -1.390  37.961   4.852  1.00 35.42 LIG-0.36  N 
ATOM     70 HE1  TRP B1542      -0.815  37.634   4.302  1.00 35.42 LIG 0.17  HD
ATOM     71  CE2 TRP B1542      -1.229  38.053   6.212  1.00 34.23 LIG 0.04  A 
ATOM     72  CD2 TRP B1542      -2.403  38.648   6.741  1.00 31.85 LIG-0.00  A 
ATOM     73  CZ2 TRP B1542      -0.150  37.663   7.022  1.00 32.49 LIG 0.03  A 
ATOM     74  CE3 TRP B1542      -2.491  38.851   8.126  1.00 30.05 LIG 0.01  A 
ATOM     75  CZ3 TRP B1542      -1.417  38.465   8.934  1.00 29.28 LIG 0.00  A 
ATOM     76  CH2 TRP B1542      -0.258  37.876   8.372  1.00 32.34 LIG 0.00  A 
ENDBRANCH 66 67
ENDBRANCH 43 66
ENDBRANCH 1 43
TORSDOF 26
ENDMDL
MODEL 26
USER: ADFR SOLUTION from run 124
USER: SCORE 20.703895 LL:  -5.548 LR: -17.744 RR:   0.000 FEB:  -9.988
USER: RMSD 3.061115
USER: SEED 123
USER: STATUS no improvement in best in 14 clusters for 5 generations
USER: GENES 28
USER: genes 0 Translation |==|  0.40223 0.51547 0.51139
USER: genes 1 Rotation |==|  0.20797 0.76997 0.43146 0.79519
USER: genes 2 Torsion [C]-N--CA-[CB] |==|  0.83496
USER: genes 3 Torsion [N]-CA--CB-[CG] |==|  0.69997
USER: genes 4 Torsion [CA]-CB--CG-[CD1] |==|  0.55134
USER: genes 5 Torsion [CE1]-CZ--OH-[HH] |==|  0.98336
USER: genes 6 Torsion [N]-CA--C-[N] |==|  0.89530
USER: genes 7 Torsion [C]-N--CA-[CB] |==|  0.77344
USER: genes 8 Torsion [N]-CA--C-[N] |==|  0.61111
USER: genes 9 Torsion [C]-N--CA-[CB] |==|  0.82524
USER: genes 10 Torsion [N]-CA--CB-[CG] |==|  0.88827
USER: genes 11 Torsion [CA]-CB--CG-[CD] |==|  0.77937
USER: genes 12 Torsion [CB]-CG--CD-[NE] |==|  0.45028
USER: genes 13 Torsion [CG]-CD--NE-[HE] |==|  0.82890
USER: genes 14 Torsion [N]-CA--C-[O] |==|  0.14760
USER: genes 15 Torsion [N]-CA--CB-[CG] |==|  0.07155
USER: genes 16 Torsion [CA]-CB--CG-[CD1] |==|  0.37879
USER: genes 17 Torsion [N]-C--CA-[N] |==|  0.61019
USER: genes 18 Torsion [C]-CA--N-[C] |==|  0.62068
USER: genes 19 Torsion [N]-C--CA-[N] |==|  0.04157
USER: genes 20 Torsion [C]-CA--N-[C] |==|  0.17300
USER: genes 21 Torsion [N]-C--CA-[N] |==|  0.15205
USER: genes 22 Torsion [C]-CA--N-[C] |==|  0.15495
USER: genes 23 Torsion [N]-C--CA-[N] |==|  0.58078
USER: genes 24 Torsion [C]-CA--CB-[CG1] |==|  0.81310
USER: genes 25 Torsion [CA]-CB--CG1-[CD1] |==|  0.31891
USER: genes 26 Torsion [C]-CA--CB-[CG] |==|  0.24692
USER: genes 27 Torsion [CA]-CB--CG-[CD1] |==|  0.05424
ROOT
ATOM      1  C   TRP B1542      -4.731  44.264   2.684  1.00 26.55 LIG 0.24  C 
ATOM      2 O    TRP B1542      -4.840  43.258   1.996  1.00 27.86 LIG-0.27  OA
ATOM      3  N   TYR B1543      -3.579  44.636   3.228  1.00 24.62 LIG-0.35  N 
ATOM      4 H    TYR B1543      -3.493  45.294   3.776  1.00 24.62 LIG 0.16  HD
ENDROOT
BRANCH 3 5
ATOM      5  CA  TYR B1543      -2.345  43.934   2.926  1.00 22.31 LIG 0.18  C 
BRANCH 5 6
ATOM      6  CB  TYR B1543      -2.502  42.467   3.337  1.00 23.67 LIG 0.07  C 
BRANCH 6 7
ATOM      7  CG  TYR B1543      -1.723  42.047   4.567  1.00 24.58 LIG-0.06  A 
ATOM      8  CD1 TYR B1543      -1.468  40.701   4.825  1.00 24.59 LIG 0.01  A 
ATOM      9  CE1 TYR B1543      -0.820  40.303   5.984  1.00 26.50 LIG 0.04  A 
ATOM     10  CZ  TYR B1543      -0.427  41.262   6.898  1.00 24.60 LIG 0.07  A 
ATOM     11  CE2 TYR B1543      -0.667  42.612   6.653  1.00 24.06 LIG 0.04  A 
ATOM     12  CD2 TYR B1543      -1.301  42.988   5.500  1.00 22.62 LIG 0.01  A 
BRANCH 10 13
ATOM     13 OH   TYR B1543       0.167  40.876   8.064  1.00 26.51 LIG-0.36  OA
ATOM     14 HH   TYR B1543       0.152  40.038   8.122  1.00 26.51 LIG 0.22  HD
ENDBRANCH 10 13
ENDBRANCH 6 7
ENDBRANCH 5 6
BRANCH 5 15
ATOM     15  C   TYR B1543      -1.773  44.004   1.519  1.00 22.90 LIG 0.24  C 
ATOM     16  N   LEU B1544      -2.638  43.988   0.515  1.00 22.60 LIG-0.35  N 
ATOM     17 H    LEU B1544      -3.493  43.973   0.607  1.00 22.60 LIG 0.16  HD
ATOM     18 O    TYR B1543      -0.561  44.060   1.345  1.00 21.43 LIG-0.27  OA
BRANCH 16 19
ATOM     19  CA  LEU B1544      -2.165  43.994  -0.860  1.00 22.81 LIG 0.18  C 
BRANCH 19 20
ATOM     20  C   LEU B1544      -0.964  43.074  -1.054  1.00 21.53 LIG 0.24  C 
ATOM     21 O    LEU B1544      -0.906  41.973  -0.495  1.00 22.00 LIG-0.27  OA
ATOM     22  N   ARG B1545       0.001  43.527  -1.848  1.00 20.14 LIG-0.35  N 
ATOM     23 H    ARG B1545      -0.007  44.287  -2.250  1.00 20.14 LIG 0.16  HD
BRANCH 22 24
ATOM     24  CA  ARG B1545       1.179  42.709  -2.085  1.00 18.95 LIG 0.16  C 
BRANCH 24 25
ATOM     25  CB  ARG B1545       1.938  42.486  -0.770  1.00 20.51 LIG 0.04  C 
BRANCH 25 26
ATOM     26  CG  ARG B1545       1.950  43.773   0.056  1.00 20.78 LIG 0.02  C 
BRANCH 26 27
ATOM     27  CD  ARG B1545       2.994  44.782  -0.415  1.00 21.13 LIG 0.14  C 
BRANCH 27 28
ATOM     28  NE  ARG B1545       2.692  46.119   0.104  1.00 20.56 LIG-0.23  N 
ATOM     29 HE   ARG B1545       1.949  46.485  -0.127  1.00 20.56 LIG 0.18  HD
ATOM     30  CZ  ARG B1545       3.499  46.799   0.912  1.00 23.27 LIG 0.67  C 
ATOM     31  NH2 ARG B1545       3.167  48.031   1.320  1.00 19.37 LIG-0.23  N 
ATOM     32  NH1 ARG B1545       4.650  46.257   1.290  1.00 20.25 LIG-0.23  N 
ATOM     33 1HH2 ARG B1545       2.428  48.385   1.060  1.00 19.37 LIG 0.17  HD
ATOM     34 2HH2 ARG B1545       3.692  48.467   1.842  1.00 19.37 LIG 0.17  HD
ATOM     35 1HH1 ARG B1545       4.867  45.472   1.013  1.00 20.25 LIG 0.17  HD
ATOM     36 2HH1 ARG B1545       5.178  46.690   1.812  1.00 20.25 LIG 0.17  HD
ENDBRANCH 27 28
ENDBRANCH 26 27
ENDBRANCH 25 26
ENDBRANCH 24 25
BRANCH 24 37
ATOM     37  C   ARG B1545       0.847  41.395  -2.779  1.00 20.11 LIG 0.22  C 
ATOM     38 O    ARG B1545       0.186  41.468  -3.842  1.00 20.61 LIG-0.29  OA
ENDBRANCH 24 37
ENDBRANCH 22 24
ENDBRANCH 19 20
BRANCH 19 39
ATOM     39  CB  LEU B1544      -1.820  45.429  -1.280  1.00 22.71 LIG 0.04  C 
BRANCH 39 40
ATOM     40  CG  LEU B1544      -1.442  46.364  -0.121  1.00 23.46 LIG-0.02  C 
ATOM     41  CD1 LEU B1544      -0.219  47.187  -0.539  1.00 24.99 LIG 0.01  C 
ATOM     42  CD2 LEU B1544      -2.600  47.281   0.250  1.00 22.67 LIG 0.01  C 
ENDBRANCH 39 40
ENDBRANCH 19 39
ENDBRANCH 16 19
ENDBRANCH 5 15
ENDBRANCH 3 5
BRANCH 1 43
ATOM     43  CA  TRP B1542      -5.949  45.132   2.976  1.00 29.62 LIG 0.18  C 
BRANCH 43 44
ATOM     44  N   TRP B1542      -7.166  44.353   3.200  1.00 31.24 LIG-0.35  N 
ATOM     45  C   ALA B1541      -8.313  44.725   2.657  1.00 34.20 LIG 0.24  C 
ATOM     46 O    ALA B1541      -8.399  45.704   1.918  1.00 33.88 LIG-0.27  OA
ATOM     47 H    TRP B1542      -7.065  43.659   3.699  1.00 31.24 LIG 0.16  HD
BRANCH 45 48
ATOM     48  CA  ALA B1541      -9.545  43.867   2.978  1.00 35.59 LIG 0.17  C 
ATOM     49  CB  ALA B1541     -10.771  44.779   3.219  1.00 37.24 LIG 0.04  C 
BRANCH 48 50
ATOM     50  N   ALA B1541      -9.401  42.941   4.110  1.00 36.68 LIG-0.35  N 
ATOM     51  C   ALA B1540      -9.169  43.367   5.348  1.00 36.41 LIG 0.24  C 
ATOM     52 O    ALA B1540      -9.111  44.565   5.642  1.00 35.55 LIG-0.27  OA
ATOM     53 H    ALA B1541      -9.479  42.111   3.897  1.00 36.68 LIG 0.16  HD
BRANCH 51 54
ATOM     54  CA  ALA B1540      -9.011  42.277   6.416  1.00 37.40 LIG 0.17  C 
ATOM     55  CB  ALA B1540      -8.679  42.910   7.777  1.00 38.11 LIG 0.04  C 
BRANCH 54 56
ATOM     56  N   ALA B1540      -7.979  41.304   6.064  1.00 38.31 LIG-0.35  N 
ATOM     57 H    ALA B1540      -8.256  40.490   6.052  1.00 38.31 LIG 0.16  HD
ATOM     58  C   ILE B1539      -6.731  41.658   5.791  1.00 39.48 LIG 0.26  C 
ATOM     59 O    ILE B1539      -6.351  42.820   5.823  1.00 40.50 LIG-0.27  OA
BRANCH 58 60
ATOM     60  CA  ILE B1539      -5.761  40.523   5.455  1.00 40.24 LIG 0.40  C 
ATOM     61  N   ILE B1539      -4.350  40.857   5.838  1.00 42.50 LIG 0.61  N 
BRANCH 60 62
ATOM     62  CB  ILE B1539      -6.268  39.241   6.180  1.00 40.48 LIG 0.03  C 
ATOM     63  CG2 ILE B1539      -5.469  38.027   5.706  1.00 38.85 LIG 0.01  C 
BRANCH 62 64
ATOM     64  CG1 ILE B1539      -6.141  39.392   7.700  1.00 39.99 LIG 0.00  C 
ATOM     65  CD1 ILE B1539      -7.492  39.403   8.426  1.00 39.67 LIG 0.01  C 
ENDBRANCH 62 64
ENDBRANCH 60 62
ENDBRANCH 58 60
ENDBRANCH 54 56
ENDBRANCH 51 54
ENDBRANCH 48 50
ENDBRANCH 45 48
ENDBRANCH 43 44
BRANCH 43 66
ATOM     66  CB  TRP B1542      -5.654  45.980   4.222  1.00 29.93 LIG 0.07  C 
BRANCH 66 67
ATOM     67  CG  TRP B1542      -4.986  47.320   3.907  1.00 31.09 LIG-0.03  A 
ATOM     68  CD1 TRP B1542      -4.979  47.967   2.697  1.00 35.00 LIG 0.10  A 
ATOM     69  NE1 TRP B1542      -4.306  49.170   2.799  1.00 35.42 LIG-0.36  N 
ATOM     70 HE1  TRP B1542      -4.186  49.733   2.159  1.00 35.42 LIG 0.17  HD
ATOM     71  CE2 TRP B1542      -3.861  49.323   4.088  1.00 34.23 LIG 0.04  A 
ATOM     72  CD2 TRP B1542      -4.266  48.176   4.819  1.00 31.85 LIG-0.00  A 
ATOM     73  CZ2 TRP B1542      -3.136  50.374   4.675  1.00 32.49 LIG 0.03  A 
ATOM     74  CE3 TRP B1542      -3.928  48.087   6.177  1.00 30.05 LIG 0.01  A 
ATOM     75  CZ3 TRP B1542      -3.207  49.133   6.762  1.00 29.28 LIG 0.00  A 
ATOM     76  CH2 TRP B1542      -2.820  50.264   6.004  1.00 32.34 LIG 0.00  A 
ENDBRANCH 66 67
ENDBRANCH 43 66
ENDBRANCH 1 43
TORSDOF 26
ENDMDL
MODEL 27
USER: ADFR SOLUTION from run 170
USER: SCORE 21.893001 LL:  -6.449 LR: -17.696 RR:   0.000 FEB:  -9.940
USER: RMSD 6.601862
USER: SEED 169
USER: STATUS no improvement in best in 6 clusters for 5 generations
USER: GENES 28
USER: genes 0 Translation |==|  0.49179 0.39611 0.61161
USER: genes 1 Rotation |==|  0.07270 0.24571 0.51636 0.54982
USER: genes 2 Torsion [C]-N--CA-[CB] |==|  0.84237
USER: genes 3 Torsion [N]-CA--CB-[CG] |==|  0.49474
USER: genes 4 Torsion [CA]-CB--CG-[CD1] |==|  0.58218
USER: genes 5 Torsion [CE1]-CZ--OH-[HH] |==|  0.15572
USER: genes 6 Torsion [N]-CA--C-[N] |==|  0.34828
USER: genes 7 Torsion [C]-N--CA-[CB] |==|  0.85747
USER: genes 8 Torsion [N]-CA--C-[N] |==|  0.70556
USER: genes 9 Torsion [C]-N--CA-[CB] |==|  0.44719
USER: genes 10 Torsion [N]-CA--CB-[CG] |==|  0.05981
USER: genes 11 Torsion [CA]-CB--CG-[CD] |==|  0.63954
USER: genes 12 Torsion [CB]-CG--CD-[NE] |==|  0.36265
USER: genes 13 Torsion [CG]-CD--NE-[HE] |==|  0.83987
USER: genes 14 Torsion [N]-CA--C-[O] |==|  0.15747
USER: genes 15 Torsion [N]-CA--CB-[CG] |==|  0.68463
USER: genes 16 Torsion [CA]-CB--CG-[CD1] |==|  0.70326
USER: genes 17 Torsion [N]-C--CA-[N] |==|  0.06826
USER: genes 18 Torsion [C]-CA--N-[C] |==|  0.16872
USER: genes 19 Torsion [N]-C--CA-[N] |==|  0.05299
USER: genes 20 Torsion [C]-CA--N-[C] |==|  0.15690
USER: genes 21 Torsion [N]-C--CA-[N] |==|  0.33740
USER: genes 22 Torsion [C]-CA--N-[C] |==|  0.71765
USER: genes 23 Torsion [N]-C--CA-[N] |==|  0.46859
USER: genes 24 Torsion [C]-CA--CB-[CG1] |==|  0.26543
USER: genes 25 Torsion [CA]-CB--CG1-[CD1] |==|  0.68783
USER: genes 26 Torsion [C]-CA--CB-[CG] |==|  0.32104
USER: genes 27 Torsion [CA]-CB--CG-[CD1] |==|  0.58465
ROOT
ATOM      1  C   TRP B1542      -2.649  41.936   4.563  1.00 26.55 LIG 0.24  C 
ATOM      2 O    TRP B1542      -1.760  42.664   4.981  1.00 27.86 LIG-0.27  OA
ATOM      3  N   TYR B1543      -3.629  42.379   3.784  1.00 24.62 LIG-0.35  N 
ATOM      4 H    TYR B1543      -4.305  41.907   3.541  1.00 24.62 LIG 0.16  HD
ENDROOT
BRANCH 3 5
ATOM      5  CA  TYR B1543      -3.625  43.739   3.275  1.00 22.31 LIG 0.18  C 
BRANCH 5 6
ATOM      6  CB  TYR B1543      -3.548  44.706   4.459  1.00 23.67 LIG 0.07  C 
BRANCH 6 7
ATOM      7  CG  TYR B1543      -3.490  46.177   4.097  1.00 24.58 LIG-0.06  A 
ATOM      8  CD1 TYR B1543      -2.833  47.089   4.923  1.00 24.59 LIG 0.01  A 
ATOM      9  CE1 TYR B1543      -2.837  48.446   4.639  1.00 26.50 LIG 0.04  A 
ATOM     10  CZ  TYR B1543      -3.511  48.895   3.519  1.00 24.60 LIG 0.07  A 
ATOM     11  CE2 TYR B1543      -4.165  47.998   2.680  1.00 24.06 LIG 0.04  A 
ATOM     12  CD2 TYR B1543      -4.145  46.661   2.971  1.00 22.62 LIG 0.01  A 
BRANCH 10 13
ATOM     13 OH   TYR B1543      -3.561  50.234   3.258  1.00 26.51 LIG-0.36  OA
ATOM     14 HH   TYR B1543      -2.780  50.541   3.217  1.00 26.51 LIG 0.22  HD
ENDBRANCH 10 13
ENDBRANCH 6 7
ENDBRANCH 5 6
BRANCH 5 15
ATOM     15  C   TYR B1543      -2.597  44.140   2.229  1.00 22.90 LIG 0.24  C 
ATOM     16  N   LEU B1544      -3.058  44.672   1.106  1.00 22.60 LIG-0.35  N 
ATOM     17 H    LEU B1544      -3.887  44.833   0.944  1.00 22.60 LIG 0.16  HD
ATOM     18 O    TYR B1543      -1.402  43.960   2.432  1.00 21.43 LIG-0.27  OA
BRANCH 16 19
ATOM     19  CA  LEU B1544      -2.141  45.029   0.035  1.00 22.81 LIG 0.18  C 
BRANCH 19 20
ATOM     20  C   LEU B1544      -1.579  43.798  -0.670  1.00 21.53 LIG 0.24  C 
ATOM     21 O    LEU B1544      -2.276  43.131  -1.443  1.00 22.00 LIG-0.27  OA
ATOM     22  N   ARG B1545      -0.314  43.494  -0.400  1.00 20.14 LIG-0.35  N 
ATOM     23 H    ARG B1545       0.197  43.934   0.133  1.00 20.14 LIG 0.16  HD
BRANCH 22 24
ATOM     24  CA  ARG B1545       0.296  42.335  -1.031  1.00 18.95 LIG 0.16  C 
BRANCH 24 25
ATOM     25  CB  ARG B1545       1.825  42.441  -0.964  1.00 20.51 LIG 0.04  C 
BRANCH 25 26
ATOM     26  CG  ARG B1545       2.238  43.392   0.160  1.00 20.78 LIG 0.02  C 
BRANCH 26 27
ATOM     27  CD  ARG B1545       3.237  44.456  -0.288  1.00 21.13 LIG 0.14  C 
BRANCH 27 28
ATOM     28  NE  ARG B1545       2.799  45.789   0.138  1.00 20.56 LIG-0.23  N 
ATOM     29 HE   ARG B1545       2.027  46.064  -0.122  1.00 20.56 LIG 0.18  HD
ATOM     30  CZ  ARG B1545       3.525  46.596   0.904  1.00 23.27 LIG 0.67  C 
ATOM     31  NH2 ARG B1545       3.068  47.814   1.226  1.00 19.37 LIG-0.23  N 
ATOM     32  NH1 ARG B1545       4.717  46.196   1.327  1.00 20.25 LIG-0.23  N 
ATOM     33 1HH2 ARG B1545       2.302  48.076   0.937  1.00 19.37 LIG 0.17  HD
ATOM     34 2HH2 ARG B1545       3.541  48.333   1.722  1.00 19.37 LIG 0.17  HD
ATOM     35 1HH1 ARG B1545       5.014  45.420   1.104  1.00 20.25 LIG 0.17  HD
ATOM     36 2HH1 ARG B1545       5.194  46.712   1.822  1.00 20.25 LIG 0.17  HD
ENDBRANCH 27 28
ENDBRANCH 26 27
ENDBRANCH 25 26
ENDBRANCH 24 25
BRANCH 24 37
ATOM     37  C   ARG B1545      -0.208  41.021  -0.448  1.00 20.11 LIG 0.22  C 
ATOM     38 O    ARG B1545      -1.447  40.827  -0.479  1.00 20.61 LIG-0.29  OA
ENDBRANCH 24 37
ENDBRANCH 22 24
ENDBRANCH 19 20
BRANCH 19 39
ATOM     39  CB  LEU B1544      -1.006  45.896   0.595  1.00 22.71 LIG 0.04  C 
BRANCH 39 40
ATOM     40  CG  LEU B1544      -0.993  47.345   0.083  1.00 23.46 LIG-0.02  C 
ATOM     41  CD1 LEU B1544       0.167  47.502  -0.905  1.00 24.99 LIG 0.01  C 
ATOM     42  CD2 LEU B1544      -2.314  47.708  -0.584  1.00 22.67 LIG 0.01  C 
ENDBRANCH 39 40
ENDBRANCH 19 39
ENDBRANCH 16 19
ENDBRANCH 5 15
ENDBRANCH 3 5
BRANCH 1 43
ATOM     43  CA  TRP B1542      -2.687  40.464   4.955  1.00 29.62 LIG 0.18  C 
BRANCH 43 44
ATOM     44  N   TRP B1542      -3.429  39.639   4.003  1.00 31.24 LIG-0.35  N 
ATOM     45  C   ALA B1541      -3.040  39.551   2.742  1.00 34.20 LIG 0.24  C 
ATOM     46 O    ALA B1541      -2.032  40.118   2.327  1.00 33.88 LIG-0.27  OA
ATOM     47 H    TRP B1542      -4.113  39.233   4.331  1.00 31.24 LIG 0.16  HD
BRANCH 45 48
ATOM     48  CA  ALA B1541      -3.903  38.692   1.806  1.00 35.59 LIG 0.17  C 
ATOM     49  CB  ALA B1541      -3.960  39.339   0.402  1.00 37.24 LIG 0.04  C 
BRANCH 48 50
ATOM     50  N   ALA B1541      -5.270  38.419   2.270  1.00 36.68 LIG-0.35  N 
ATOM     51  C   ALA B1540      -6.122  39.393   2.575  1.00 36.41 LIG 0.24  C 
ATOM     52 O    ALA B1540      -5.844  40.589   2.442  1.00 35.55 LIG-0.27  OA
ATOM     53 H    ALA B1541      -5.463  37.583   2.324  1.00 36.68 LIG 0.16  HD
BRANCH 51 54
ATOM     54  CA  ALA B1540      -7.502  38.949   3.074  1.00 37.40 LIG 0.17  C 
ATOM     55  CB  ALA B1540      -8.595  39.399   2.092  1.00 38.11 LIG 0.04  C 
BRANCH 54 56
ATOM     56  N   ALA B1540      -7.801  39.468   4.408  1.00 38.31 LIG-0.35  N 
ATOM     57 H    ALA B1540      -8.047  40.292   4.416  1.00 38.31 LIG 0.16  HD
ATOM     58  C   ILE B1539      -7.697  38.724   5.501  1.00 39.48 LIG 0.26  C 
ATOM     59 O    ILE B1539      -7.335  37.556   5.474  1.00 40.50 LIG-0.27  OA
BRANCH 58 60
ATOM     60  CA  ILE B1539      -8.027  39.414   6.826  1.00 40.24 LIG 0.40  C 
ATOM     61  N   ILE B1539      -8.145  38.435   7.956  1.00 42.50 LIG 0.61  N 
BRANCH 60 62
ATOM     62  CB  ILE B1539      -6.919  40.475   7.094  1.00 40.48 LIG 0.03  C 
ATOM     63  CG2 ILE B1539      -5.626  40.064   6.392  1.00 38.85 LIG 0.01  C 
BRANCH 62 64
ATOM     64  CG1 ILE B1539      -7.365  41.858   6.605  1.00 39.99 LIG 0.00  C 
ATOM     65  CD1 ILE B1539      -6.557  42.370   5.405  1.00 39.67 LIG 0.01  C 
ENDBRANCH 62 64
ENDBRANCH 60 62
ENDBRANCH 58 60
ENDBRANCH 54 56
ENDBRANCH 51 54
ENDBRANCH 48 50
ENDBRANCH 45 48
ENDBRANCH 43 44
BRANCH 43 66
ATOM     66  CB  TRP B1542      -1.244  39.949   5.054  1.00 29.93 LIG 0.07  C 
BRANCH 66 67
ATOM     67  CG  TRP B1542      -0.841  39.519   6.466  1.00 31.09 LIG-0.03  A 
ATOM     68  CD1 TRP B1542       0.417  39.578   7.012  1.00 35.00 LIG 0.10  A 
ATOM     69  NE1 TRP B1542       0.393  39.136   8.322  1.00 35.42 LIG-0.36  N 
ATOM     70 HE1  TRP B1542       1.073  39.093   8.847  1.00 35.42 LIG 0.17  HD
ATOM     71  CE2 TRP B1542      -0.891  38.780   8.648  1.00 34.23 LIG 0.04  A 
ATOM     72  CD2 TRP B1542      -1.700  39.004   7.504  1.00 31.85 LIG-0.00  A 
ATOM     73  CZ2 TRP B1542      -1.411  38.281   9.854  1.00 32.49 LIG 0.03  A 
ATOM     74  CE3 TRP B1542      -3.070  38.711   7.579  1.00 30.05 LIG 0.01  A 
ATOM     75  CZ3 TRP B1542      -3.589  38.215   8.779  1.00 29.28 LIG 0.00  A 
ATOM     76  CH2 TRP B1542      -2.753  38.006   9.903  1.00 32.34 LIG 0.00  A 
ENDBRANCH 66 67
ENDBRANCH 43 66
ENDBRANCH 1 43
TORSDOF 26
ENDMDL
MODEL 28
USER: ADFR SOLUTION from run 144
USER: SCORE 21.633112 LL:  -5.861 LR: -17.679 RR:   0.000 FEB:  -9.923
USER: RMSD 7.827431
USER: SEED 143
USER: STATUS no improvement in best in 18 clusters for 5 generations
USER: GENES 28
USER: genes 0 Translation |==|  0.45783 0.62323 0.58221
USER: genes 1 Rotation |==|  0.71630 0.09784 0.61185 0.67021
USER: genes 2 Torsion [C]-N--CA-[CB] |==|  0.77646
USER: genes 3 Torsion [N]-CA--CB-[CG] |==|  0.58358
USER: genes 4 Torsion [CA]-CB--CG-[CD1] |==|  0.53518
USER: genes 5 Torsion [CE1]-CZ--OH-[HH] |==|  0.58111
USER: genes 6 Torsion [N]-CA--C-[N] |==|  0.51111
USER: genes 7 Torsion [C]-N--CA-[CB] |==|  0.19649
USER: genes 8 Torsion [N]-CA--C-[N] |==|  0.91326
USER: genes 9 Torsion [C]-N--CA-[CB] |==|  0.83039
USER: genes 10 Torsion [N]-CA--CB-[CG] |==|  0.70164
USER: genes 11 Torsion [CA]-CB--CG-[CD] |==|  0.62228
USER: genes 12 Torsion [CB]-CG--CD-[NE] |==|  0.61340
USER: genes 13 Torsion [CG]-CD--NE-[HE] |==|  0.25851
USER: genes 14 Torsion [N]-CA--C-[O] |==|  0.64673
USER: genes 15 Torsion [N]-CA--CB-[CG] |==|  0.08319
USER: genes 16 Torsion [CA]-CB--CG-[CD1] |==|  0.30176
USER: genes 17 Torsion [N]-C--CA-[N] |==|  0.07575
USER: genes 18 Torsion [C]-CA--N-[C] |==|  0.18198
USER: genes 19 Torsion [N]-C--CA-[N] |==|  0.18016
USER: genes 20 Torsion [C]-CA--N-[C] |==|  0.11573
USER: genes 21 Torsion [N]-C--CA-[N] |==|  0.10528
USER: genes 22 Torsion [C]-CA--N-[C] |==|  0.17044
USER: genes 23 Torsion [N]-C--CA-[N] |==|  0.40637
USER: genes 24 Torsion [C]-CA--CB-[CG1] |==|  0.01592
USER: genes 25 Torsion [CA]-CB--CG1-[CD1] |==|  0.40051
USER: genes 26 Torsion [C]-CA--CB-[CG] |==|  0.21689
USER: genes 27 Torsion [CA]-CB--CG-[CD1] |==|  0.73105
ROOT
ATOM      1  C   TRP B1542      -3.439  46.365   4.012  1.00 26.55 LIG 0.24  C 
ATOM      2 O    TRP B1542      -3.999  46.251   5.092  1.00 27.86 LIG-0.27  OA
ATOM      3  N   TYR B1543      -2.981  45.322   3.330  1.00 24.62 LIG-0.35  N 
ATOM      4 H    TYR B1543      -2.518  45.380   2.608  1.00 24.62 LIG 0.16  HD
ENDROOT
BRANCH 3 5
ATOM      5  CA  TYR B1543      -3.241  43.964   3.774  1.00 22.31 LIG 0.18  C 
BRANCH 5 6
ATOM      6  CB  TYR B1543      -2.248  43.613   4.885  1.00 23.67 LIG 0.07  C 
BRANCH 6 7
ATOM      7  CG  TYR B1543      -1.867  42.149   4.981  1.00 24.58 LIG-0.06  A 
ATOM      8  CD1 TYR B1543      -1.188  41.661   6.097  1.00 24.59 LIG 0.01  A 
ATOM      9  CE1 TYR B1543      -0.772  40.340   6.161  1.00 26.50 LIG 0.04  A 
ATOM     10  CZ  TYR B1543      -1.032  39.500   5.096  1.00 24.60 LIG 0.07  A 
ATOM     11  CE2 TYR B1543      -1.716  39.969   3.977  1.00 24.06 LIG 0.04  A 
ATOM     12  CD2 TYR B1543      -2.127  41.274   3.933  1.00 22.62 LIG 0.01  A 
BRANCH 10 13
ATOM     13 OH   TYR B1543      -0.583  38.212   5.129  1.00 26.51 LIG-0.36  OA
ATOM     14 HH   TYR B1543      -0.440  37.945   4.345  1.00 26.51 LIG 0.22  HD
ENDBRANCH 10 13
ENDBRANCH 6 7
ENDBRANCH 5 6
BRANCH 5 15
ATOM     15  C   TYR B1543      -4.645  43.578   4.212  1.00 22.90 LIG 0.24  C 
ATOM     16  N   LEU B1544      -4.812  42.351   4.685  1.00 22.60 LIG-0.35  N 
ATOM     17 H    LEU B1544      -4.181  41.777   4.789  1.00 22.60 LIG 0.16  HD
ATOM     18 O    TYR B1543      -5.568  44.379   4.112  1.00 21.43 LIG-0.27  OA
BRANCH 16 19
ATOM     19  CA  LEU B1544      -6.136  41.889   5.070  1.00 22.81 LIG 0.18  C 
BRANCH 19 20
ATOM     20  C   LEU B1544      -6.076  40.607   5.893  1.00 21.53 LIG 0.24  C 
ATOM     21 O    LEU B1544      -6.922  40.365   6.761  1.00 22.00 LIG-0.27  OA
ATOM     22  N   ARG B1545      -5.071  39.781   5.622  1.00 20.14 LIG-0.35  N 
ATOM     23 H    ARG B1545      -4.466  39.919   5.027  1.00 20.14 LIG 0.16  HD
BRANCH 22 24
ATOM     24  CA  ARG B1545      -4.944  38.537   6.363  1.00 18.95 LIG 0.16  C 
BRANCH 24 25
ATOM     25  CB  ARG B1545      -4.757  38.831   7.858  1.00 20.51 LIG 0.04  C 
BRANCH 25 26
ATOM     26  CG  ARG B1545      -3.314  38.544   8.275  1.00 20.78 LIG 0.02  C 
BRANCH 26 27
ATOM     27  CD  ARG B1545      -3.208  37.786   9.595  1.00 21.13 LIG 0.14  C 
BRANCH 27 28
ATOM     28  NE  ARG B1545      -2.110  38.317  10.410  1.00 20.56 LIG-0.23  N 
ATOM     29 HE   ARG B1545      -2.293  38.930  10.985  1.00 20.56 LIG 0.18  HD
ATOM     30  CZ  ARG B1545      -0.850  37.906  10.311  1.00 23.27 LIG 0.67  C 
ATOM     31  NH2 ARG B1545       0.104  38.463  11.070  1.00 19.37 LIG-0.23  N 
ATOM     32  NH1 ARG B1545      -0.541  36.958   9.437  1.00 20.25 LIG-0.23  N 
ATOM     33 1HH2 ARG B1545      -0.098  39.088  11.624  1.00 19.37 LIG 0.17  HD
ATOM     34 2HH2 ARG B1545       0.917  38.194  11.003  1.00 19.37 LIG 0.17  HD
ATOM     35 1HH1 ARG B1545      -1.153  36.614   8.940  1.00 20.25 LIG 0.17  HD
ATOM     36 2HH1 ARG B1545       0.272  36.686   9.366  1.00 20.25 LIG 0.17  HD
ENDBRANCH 27 28
ENDBRANCH 26 27
ENDBRANCH 25 26
ENDBRANCH 24 25
BRANCH 24 37
ATOM     37  C   ARG B1545      -6.107  37.587   6.112  1.00 20.11 LIG 0.22  C 
ATOM     38 O    ARG B1545      -6.704  37.145   7.123  1.00 20.61 LIG-0.29  OA
ENDBRANCH 24 37
ENDBRANCH 22 24
ENDBRANCH 19 20
BRANCH 19 39
ATOM     39  CB  LEU B1544      -6.997  41.689   3.817  1.00 22.71 LIG 0.04  C 
BRANCH 39 40
ATOM     40  CG  LEU B1544      -6.214  41.295   2.555  1.00 23.46 LIG-0.02  C 
ATOM     41  CD1 LEU B1544      -6.515  39.828   2.232  1.00 24.99 LIG 0.01  C 
ATOM     42  CD2 LEU B1544      -6.581  42.187   1.376  1.00 22.67 LIG 0.01  C 
ENDBRANCH 39 40
ENDBRANCH 19 39
ENDBRANCH 16 19
ENDBRANCH 5 15
ENDBRANCH 3 5
BRANCH 1 43
ATOM     43  CA  TRP B1542      -3.208  47.744   3.405  1.00 29.62 LIG 0.18  C 
BRANCH 43 44
ATOM     44  N   TRP B1542      -3.104  47.717   1.947  1.00 31.24 LIG-0.35  N 
ATOM     45  C   ALA B1541      -4.144  47.375   1.205  1.00 34.20 LIG 0.24  C 
ATOM     46 O    ALA B1541      -5.239  47.107   1.696  1.00 33.88 LIG-0.27  OA
ATOM     47 H    TRP B1542      -2.334  47.936   1.634  1.00 31.24 LIG 0.16  HD
BRANCH 45 48
ATOM     48  CA  ALA B1541      -3.932  47.337  -0.316  1.00 35.59 LIG 0.17  C 
ATOM     49  CB  ALA B1541      -5.289  47.148  -1.032  1.00 37.24 LIG 0.04  C 
BRANCH 48 50
ATOM     50  N   ALA B1541      -2.982  46.327  -0.802  1.00 36.68 LIG-0.35  N 
ATOM     51  C   ALA B1540      -2.951  45.091  -0.312  1.00 36.41 LIG 0.24  C 
ATOM     52 O    ALA B1540      -3.746  44.691   0.545  1.00 35.55 LIG-0.27  OA
ATOM     53 H    ALA B1541      -2.458  46.607  -1.423  1.00 36.68 LIG 0.16  HD
BRANCH 51 54
ATOM     54  CA  ALA B1540      -1.882  44.160  -0.900  1.00 37.40 LIG 0.17  C 
ATOM     55  CB  ALA B1540      -1.624  42.979   0.049  1.00 38.11 LIG 0.04  C 
BRANCH 54 56
ATOM     56  N   ALA B1540      -0.626  44.859  -1.164  1.00 38.31 LIG-0.35  N 
ATOM     57 H    ALA B1540      -0.392  44.858  -1.992  1.00 38.31 LIG 0.16  HD
ATOM     58  C   ILE B1539       0.081  45.439  -0.205  1.00 39.48 LIG 0.26  C 
ATOM     59 O    ILE B1539      -0.260  45.423   0.970  1.00 40.50 LIG-0.27  OA
BRANCH 58 60
ATOM     60  CA  ILE B1539       1.383  46.118  -0.635  1.00 40.24 LIG 0.40  C 
ATOM     61  N   ILE B1539       1.681  47.337   0.185  1.00 42.50 LIG 0.61  N 
BRANCH 60 62
ATOM     62  CB  ILE B1539       2.522  45.060  -0.531  1.00 40.48 LIG 0.03  C 
ATOM     63  CG2 ILE B1539       3.535  45.491   0.528  1.00 38.85 LIG 0.01  C 
BRANCH 62 64
ATOM     64  CG1 ILE B1539       1.950  43.682  -0.179  1.00 39.99 LIG 0.00  C 
ATOM     65  CD1 ILE B1539       2.691  42.523  -0.858  1.00 39.67 LIG 0.01  C 
ENDBRANCH 62 64
ENDBRANCH 60 62
ENDBRANCH 58 60
ENDBRANCH 54 56
ENDBRANCH 51 54
ENDBRANCH 48 50
ENDBRANCH 45 48
ENDBRANCH 43 44
BRANCH 43 66
ATOM     66  CB  TRP B1542      -4.373  48.656   3.814  1.00 29.93 LIG 0.07  C 
BRANCH 66 67
ATOM     67  CG  TRP B1542      -4.269  49.181   5.247  1.00 31.09 LIG-0.03  A 
ATOM     68  CD1 TRP B1542      -4.882  48.655   6.357  1.00 35.00 LIG 0.10  A 
ATOM     69  NE1 TRP B1542      -4.529  49.372   7.485  1.00 35.42 LIG-0.36  N 
ATOM     70 HE1  TRP B1542      -4.800  49.210   8.286  1.00 35.42 LIG 0.17  HD
ATOM     71  CE2 TRP B1542      -3.676  50.384   7.121  1.00 34.23 LIG 0.04  A 
ATOM     72  CD2 TRP B1542      -3.489  50.299   5.717  1.00 31.85 LIG-0.00  A 
ATOM     73  CZ2 TRP B1542      -3.051  51.365   7.908  1.00 32.49 LIG 0.03  A 
ATOM     74  CE3 TRP B1542      -2.652  51.234   5.091  1.00 30.05 LIG 0.01  A 
ATOM     75  CZ3 TRP B1542      -2.029  52.212   5.873  1.00 29.28 LIG 0.00  A 
ATOM     76  CH2 TRP B1542      -2.235  52.265   7.273  1.00 32.34 LIG 0.00  A 
ENDBRANCH 66 67
ENDBRANCH 43 66
ENDBRANCH 1 43
TORSDOF 26
ENDMDL
MODEL 29
USER: ADFR SOLUTION from run 52
USER: SCORE 19.668492 LL:  -5.193 LR: -17.681 RR:   0.000 FEB:  -9.925
USER: RMSD 6.127503
USER: SEED 51
USER: STATUS searching
USER: GENES 28
USER: genes 0 Translation |==|  0.43521 0.28776 0.50604
USER: genes 1 Rotation |==|  0.24893 0.83216 0.75451 0.60887
USER: genes 2 Torsion [C]-N--CA-[CB] |==|  0.30432
USER: genes 3 Torsion [N]-CA--CB-[CG] |==|  0.11419
USER: genes 4 Torsion [CA]-CB--CG-[CD1] |==|  0.74102
USER: genes 5 Torsion [CE1]-CZ--OH-[HH] |==|  0.34224
USER: genes 6 Torsion [N]-CA--C-[N] |==|  0.42431
USER: genes 7 Torsion [C]-N--CA-[CB] |==|  0.51675
USER: genes 8 Torsion [N]-CA--C-[N] |==|  0.27292
USER: genes 9 Torsion [C]-N--CA-[CB] |==|  0.13094
USER: genes 10 Torsion [N]-CA--CB-[CG] |==|  0.28658
USER: genes 11 Torsion [CA]-CB--CG-[CD] |==|  0.30081
USER: genes 12 Torsion [CB]-CG--CD-[NE] |==|  0.72122
USER: genes 13 Torsion [CG]-CD--NE-[HE] |==|  0.07364
USER: genes 14 Torsion [N]-CA--C-[O] |==|  0.20804
USER: genes 15 Torsion [N]-CA--CB-[CG] |==|  0.58136
USER: genes 16 Torsion [CA]-CB--CG-[CD1] |==|  0.00424
USER: genes 17 Torsion [N]-C--CA-[N] |==|  0.44429
USER: genes 18 Torsion [C]-CA--N-[C] |==|  0.68327
USER: genes 19 Torsion [N]-C--CA-[N] |==|  0.53547
USER: genes 20 Torsion [C]-CA--N-[C] |==|  0.73945
USER: genes 21 Torsion [N]-C--CA-[N] |==|  0.26187
USER: genes 22 Torsion [C]-CA--N-[C] |==|  0.77730
USER: genes 23 Torsion [N]-C--CA-[N] |==|  0.39724
USER: genes 24 Torsion [C]-CA--CB-[CG1] |==|  0.86899
USER: genes 25 Torsion [CA]-CB--CG1-[CD1] |==|  0.53640
USER: genes 26 Torsion [C]-CA--CB-[CG] |==|  0.35627
USER: genes 27 Torsion [CA]-CB--CG-[CD1] |==|  0.39708
ROOT
ATOM      1  C   TRP B1542      -3.964  39.823   2.583  1.00 26.55 LIG 0.24  C 
ATOM      2 O    TRP B1542      -4.606  38.931   2.047  1.00 27.86 LIG-0.27  OA
ATOM      3  N   TYR B1543      -3.341  40.769   1.892  1.00 24.62 LIG-0.35  N 
ATOM      4 H    TYR B1543      -2.822  41.361   2.240  1.00 24.62 LIG 0.16  HD
ENDROOT
BRANCH 3 5
ATOM      5  CA  TYR B1543      -3.497  40.873   0.453  1.00 22.31 LIG 0.18  C 
BRANCH 5 6
ATOM      6  CB  TYR B1543      -4.321  42.124   0.137  1.00 23.67 LIG 0.07  C 
BRANCH 6 7
ATOM      7  CG  TYR B1543      -3.987  43.351   0.963  1.00 24.58 LIG-0.06  A 
ATOM      8  CD1 TYR B1543      -4.689  43.634   2.134  1.00 24.59 LIG 0.01  A 
ATOM      9  CE1 TYR B1543      -4.440  44.792   2.856  1.00 26.50 LIG 0.04  A 
ATOM     10  CZ  TYR B1543      -3.484  45.677   2.397  1.00 24.60 LIG 0.07  A 
ATOM     11  CE2 TYR B1543      -2.769  45.406   1.234  1.00 24.06 LIG 0.04  A 
ATOM     12  CD2 TYR B1543      -3.021  44.255   0.537  1.00 22.62 LIG 0.01  A 
BRANCH 10 13
ATOM     13 OH   TYR B1543      -3.267  46.843   3.074  1.00 26.51 LIG-0.36  OA
ATOM     14 HH   TYR B1543      -2.458  46.890   3.298  1.00 26.51 LIG 0.22  HD
ENDBRANCH 10 13
ENDBRANCH 6 7
ENDBRANCH 5 6
BRANCH 5 15
ATOM     15  C   TYR B1543      -2.264  40.845  -0.436  1.00 22.90 LIG 0.24  C 
ATOM     16  N   LEU B1544      -2.422  40.392  -1.672  1.00 22.60 LIG-0.35  N 
ATOM     17 H    LEU B1544      -3.173  40.146  -2.010  1.00 22.60 LIG 0.16  HD
ATOM     18 O    TYR B1543      -1.179  41.218  -0.003  1.00 21.43 LIG-0.27  OA
BRANCH 16 19
ATOM     19  CA  LEU B1544      -1.278  40.281  -2.563  1.00 22.81 LIG 0.18  C 
BRANCH 19 20
ATOM     20  C   LEU B1544      -0.470  41.574  -2.619  1.00 21.53 LIG 0.24  C 
ATOM     21 O    LEU B1544      -0.817  42.512  -3.345  1.00 22.00 LIG-0.27  OA
ATOM     22  N   ARG B1545       0.613  41.623  -1.851  1.00 20.14 LIG-0.35  N 
ATOM     23 H    ARG B1545       0.883  40.989  -1.337  1.00 20.14 LIG 0.16  HD
BRANCH 22 24
ATOM     24  CA  ARG B1545       1.437  42.821  -1.848  1.00 18.95 LIG 0.16  C 
BRANCH 24 25
ATOM     25  CB  ARG B1545       0.554  44.068  -1.707  1.00 20.51 LIG 0.04  C 
BRANCH 25 26
ATOM     26  CG  ARG B1545       0.628  44.606  -0.277  1.00 20.78 LIG 0.02  C 
BRANCH 26 27
ATOM     27  CD  ARG B1545       1.411  45.911  -0.165  1.00 21.13 LIG 0.14  C 
BRANCH 27 28
ATOM     28  NE  ARG B1545       2.772  45.658   0.321  1.00 20.56 LIG-0.23  N 
ATOM     29 HE   ARG B1545       3.120  44.886   0.167  1.00 20.56 LIG 0.18  HD
ATOM     30  CZ  ARG B1545       3.498  46.551   0.984  1.00 23.27 LIG 0.67  C 
ATOM     31  NH2 ARG B1545       4.724  46.234   1.423  1.00 19.37 LIG-0.23  N 
ATOM     32  NH1 ARG B1545       2.990  47.752   1.230  1.00 20.25 LIG-0.23  N 
ATOM     33 1HH2 ARG B1545       5.044  45.450   1.275  1.00 19.37 LIG 0.17  HD
ATOM     34 2HH2 ARG B1545       5.191  46.815   1.851  1.00 19.37 LIG 0.17  HD
ATOM     35 1HH1 ARG B1545       2.197  47.946   0.961  1.00 20.25 LIG 0.17  HD
ATOM     36 2HH1 ARG B1545       3.454  48.335   1.659  1.00 20.25 LIG 0.17  HD
ENDBRANCH 27 28
ENDBRANCH 26 27
ENDBRANCH 25 26
ENDBRANCH 24 25
BRANCH 24 37
ATOM     37  C   ARG B1545       2.529  42.775  -0.788  1.00 20.11 LIG 0.22  C 
ATOM     38 O    ARG B1545       3.513  42.034  -1.022  1.00 20.61 LIG-0.29  OA
ENDBRANCH 24 37
ENDBRANCH 22 24
ENDBRANCH 19 20
BRANCH 19 39
ATOM     39  CB  LEU B1544      -1.753  39.879  -3.965  1.00 22.71 LIG 0.04  C 
BRANCH 39 40
ATOM     40  CG  LEU B1544      -0.735  39.067  -4.780  1.00 23.46 LIG-0.02  C 
ATOM     41  CD1 LEU B1544       0.512  38.843  -3.918  1.00 24.99 LIG 0.01  C 
ATOM     42  CD2 LEU B1544      -1.322  37.734  -5.226  1.00 22.67 LIG 0.01  C 
ENDBRANCH 39 40
ENDBRANCH 19 39
ENDBRANCH 16 19
ENDBRANCH 5 15
ENDBRANCH 3 5
BRANCH 1 43
ATOM     43  CA  TRP B1542      -3.825  39.867   4.100  1.00 29.62 LIG 0.18  C 
BRANCH 43 44
ATOM     44  N   TRP B1542      -4.874  39.120   4.792  1.00 31.24 LIG-0.35  N 
ATOM     45  C   ALA B1541      -5.759  39.748   5.549  1.00 34.20 LIG 0.24  C 
ATOM     46 O    ALA B1541      -5.765  40.971   5.671  1.00 33.88 LIG-0.27  OA
ATOM     47 H    TRP B1542      -4.858  38.270   4.664  1.00 31.24 LIG 0.16  HD
BRANCH 45 48
ATOM     48  CA  ALA B1541      -6.801  38.878   6.268  1.00 35.59 LIG 0.17  C 
ATOM     49  CB  ALA B1541      -7.331  37.790   5.305  1.00 37.24 LIG 0.04  C 
BRANCH 48 50
ATOM     50  N   ALA B1541      -7.937  39.599   6.858  1.00 36.68 LIG-0.35  N 
ATOM     51  C   ALA B1540      -7.942  39.995   8.127  1.00 36.41 LIG 0.24  C 
ATOM     52 O    ALA B1540      -6.979  39.830   8.882  1.00 35.55 LIG-0.27  OA
ATOM     53 H    ALA B1541      -8.586  39.740   6.312  1.00 36.68 LIG 0.16  HD
BRANCH 51 54
ATOM     54  CA  ALA B1540      -9.213  40.709   8.604  1.00 37.40 LIG 0.17  C 
ATOM     55  CB  ALA B1540      -8.854  41.833   9.589  1.00 38.11 LIG 0.04  C 
BRANCH 54 56
ATOM     56  N   ALA B1540     -10.160  39.790   9.235  1.00 38.31 LIG-0.35  N 
ATOM     57 H    ALA B1540     -10.139  39.803  10.095  1.00 38.31 LIG 0.16  HD
ATOM     58  C   ILE B1539     -10.972  39.013   8.533  1.00 39.48 LIG 0.26  C 
ATOM     59 O    ILE B1539     -10.981  39.000   7.309  1.00 40.50 LIG-0.27  OA
BRANCH 58 60
ATOM     60  CA  ILE B1539     -11.894  38.093   9.335  1.00 40.24 LIG 0.40  C 
ATOM     61  N   ILE B1539     -13.245  37.956   8.700  1.00 42.50 LIG 0.61  N 
BRANCH 60 62
ATOM     62  CB  ILE B1539     -11.180  36.716   9.475  1.00 40.48 LIG 0.03  C 
ATOM     63  CG2 ILE B1539     -12.158  35.677  10.021  1.00 38.85 LIG 0.01  C 
BRANCH 62 64
ATOM     64  CG1 ILE B1539     -10.625  36.254   8.123  1.00 39.99 LIG 0.00  C 
ATOM     65  CD1 ILE B1539     -10.195  34.781   8.111  1.00 39.67 LIG 0.01  C 
ENDBRANCH 62 64
ENDBRANCH 60 62
ENDBRANCH 58 60
ENDBRANCH 54 56
ENDBRANCH 51 54
ENDBRANCH 48 50
ENDBRANCH 45 48
ENDBRANCH 43 44
BRANCH 43 66
ATOM     66  CB  TRP B1542      -2.455  39.287   4.480  1.00 29.93 LIG 0.07  C 
BRANCH 66 67
ATOM     67  CG  TRP B1542      -1.637  40.195   5.401  1.00 31.09 LIG-0.03  A 
ATOM     68  CD1 TRP B1542      -0.820  39.795   6.429  1.00 35.00 LIG 0.10  A 
ATOM     69  NE1 TRP B1542      -0.217  40.891   7.017  1.00 35.42 LIG-0.36  N 
ATOM     70 HE1  TRP B1542       0.333  40.864   7.677  1.00 35.42 LIG 0.17  HD
ATOM     71  CE2 TRP B1542      -0.638  42.029   6.375  1.00 34.23 LIG 0.04  A 
ATOM     72  CD2 TRP B1542      -1.537  41.633   5.351  1.00 31.85 LIG-0.00  A 
ATOM     73  CZ2 TRP B1542      -0.304  43.373   6.607  1.00 32.49 LIG 0.03  A 
ATOM     74  CE3 TRP B1542      -2.117  42.622   4.543  1.00 30.05 LIG 0.01  A 
ATOM     75  CZ3 TRP B1542      -1.784  43.961   4.773  1.00 29.28 LIG 0.00  A 
ATOM     76  CH2 TRP B1542      -0.881  44.320   5.802  1.00 32.34 LIG 0.00  A 
ENDBRANCH 66 67
ENDBRANCH 43 66
ENDBRANCH 1 43
TORSDOF 26
ENDMDL
MODEL 30
USER: ADFR SOLUTION from run 85
USER: SCORE 21.926703 LL:  -6.049 LR: -17.675 RR:   0.000 FEB:  -9.919
USER: RMSD 5.962473
USER: SEED 84
USER: STATUS no improvement in best in 21 clusters for 5 generations
USER: GENES 28
USER: genes 0 Translation |==|  0.45325 0.42903 0.61517
USER: genes 1 Rotation |==|  0.96279 0.49349 0.55142 0.68203
USER: genes 2 Torsion [C]-N--CA-[CB] |==|  0.25957
USER: genes 3 Torsion [N]-CA--CB-[CG] |==|  0.82437
USER: genes 4 Torsion [CA]-CB--CG-[CD1] |==|  0.35263
USER: genes 5 Torsion [CE1]-CZ--OH-[HH] |==|  0.03856
USER: genes 6 Torsion [N]-CA--C-[N] |==|  0.87254
USER: genes 7 Torsion [C]-N--CA-[CB] |==|  0.76728
USER: genes 8 Torsion [N]-CA--C-[N] |==|  0.15001
USER: genes 9 Torsion [C]-N--CA-[CB] |==|  0.26942
USER: genes 10 Torsion [N]-CA--CB-[CG] |==|  0.80042
USER: genes 11 Torsion [CA]-CB--CG-[CD] |==|  0.78782
USER: genes 12 Torsion [CB]-CG--CD-[NE] |==|  0.45080
USER: genes 13 Torsion [CG]-CD--NE-[HE] |==|  0.79982
USER: genes 14 Torsion [N]-CA--C-[O] |==|  0.50722
USER: genes 15 Torsion [N]-CA--CB-[CG] |==|  0.16478
USER: genes 16 Torsion [CA]-CB--CG-[CD1] |==|  0.31819
USER: genes 17 Torsion [N]-C--CA-[N] |==|  0.88118
USER: genes 18 Torsion [C]-CA--N-[C] |==|  0.85841
USER: genes 19 Torsion [N]-C--CA-[N] |==|  0.36190
USER: genes 20 Torsion [C]-CA--N-[C] |==|  0.81832
USER: genes 21 Torsion [N]-C--CA-[N] |==|  0.87826
USER: genes 22 Torsion [C]-CA--N-[C] |==|  0.77480
USER: genes 23 Torsion [N]-C--CA-[N] |==|  0.50762
USER: genes 24 Torsion [C]-CA--CB-[CG1] |==|  0.88610
USER: genes 25 Torsion [CA]-CB--CG1-[CD1] |==|  0.78246
USER: genes 26 Torsion [C]-CA--CB-[CG] |==|  0.38297
USER: genes 27 Torsion [CA]-CB--CG-[CD1] |==|  0.64360
ROOT
ATOM      1  C   TRP B1542      -3.545  42.578   4.629  1.00 26.55 LIG 0.24  C 
ATOM      2 O    TRP B1542      -2.600  42.683   5.398  1.00 27.86 LIG-0.27  OA
ATOM      3  N   TYR B1543      -3.396  42.567   3.310  1.00 24.62 LIG-0.35  N 
ATOM      4 H    TYR B1543      -4.048  42.571   2.749  1.00 24.62 LIG 0.16  HD
ENDROOT
BRANCH 3 5
ATOM      5  CA  TYR B1543      -2.076  42.547   2.705  1.00 22.31 LIG 0.18  C 
BRANCH 5 6
ATOM      6  CB  TYR B1543      -1.684  41.093   2.432  1.00 23.67 LIG 0.07  C 
BRANCH 6 7
ATOM      7  CG  TYR B1543      -1.547  40.212   3.658  1.00 24.58 LIG-0.06  A 
ATOM      8  CD1 TYR B1543      -2.235  39.002   3.747  1.00 24.59 LIG 0.01  A 
ATOM      9  CE1 TYR B1543      -2.174  38.226   4.895  1.00 26.50 LIG 0.04  A 
ATOM     10  CZ  TYR B1543      -1.421  38.667   5.965  1.00 24.60 LIG 0.07  A 
ATOM     11  CE2 TYR B1543      -0.722  39.869   5.890  1.00 24.06 LIG 0.04  A 
ATOM     12  CD2 TYR B1543      -0.787  40.620   4.748  1.00 22.62 LIG 0.01  A 
BRANCH 10 13
ATOM     13 OH   TYR B1543      -1.394  37.934   7.117  1.00 26.51 LIG-0.36  OA
ATOM     14 HH   TYR B1543      -1.712  37.170   6.969  1.00 26.51 LIG 0.22  HD
ENDBRANCH 10 13
ENDBRANCH 6 7
ENDBRANCH 5 6
BRANCH 5 15
ATOM     15  C   TYR B1543      -1.813  43.382   1.462  1.00 22.90 LIG 0.24  C 
ATOM     16  N   LEU B1544      -2.720  43.326   0.497  1.00 22.60 LIG-0.35  N 
ATOM     17 H    LEU B1544      -3.454  42.881   0.540  1.00 22.60 LIG 0.16  HD
ATOM     18 O    TYR B1543      -0.795  44.059   1.374  1.00 21.43 LIG-0.27  OA
BRANCH 16 19
ATOM     19  CA  LEU B1544      -2.511  44.052  -0.746  1.00 22.81 LIG 0.18  C 
BRANCH 19 20
ATOM     20  C   LEU B1544      -1.058  43.990  -1.206  1.00 21.53 LIG 0.24  C 
ATOM     21 O    LEU B1544      -0.422  45.021  -1.454  1.00 22.00 LIG-0.27  OA
ATOM     22  N   ARG B1545      -0.530  42.776  -1.323  1.00 20.14 LIG-0.35  N 
ATOM     23 H    ARG B1545      -0.944  42.040  -1.160  1.00 20.14 LIG 0.16  HD
BRANCH 22 24
ATOM     24  CA  ARG B1545       0.850  42.632  -1.757  1.00 18.95 LIG 0.16  C 
BRANCH 24 25
ATOM     25  CB  ARG B1545       1.770  42.463  -0.540  1.00 20.51 LIG 0.04  C 
BRANCH 25 26
ATOM     26  CG  ARG B1545       1.894  43.787   0.215  1.00 20.78 LIG 0.02  C 
BRANCH 26 27
ATOM     27  CD  ARG B1545       2.817  44.788  -0.474  1.00 21.13 LIG 0.14  C 
BRANCH 27 28
ATOM     28  NE  ARG B1545       2.581  46.143   0.035  1.00 20.56 LIG-0.23  N 
ATOM     29 HE   ARG B1545       1.853  46.541  -0.194  1.00 20.56 LIG 0.18  HD
ATOM     30  CZ  ARG B1545       3.425  46.793   0.829  1.00 23.27 LIG 0.67  C 
ATOM     31  NH2 ARG B1545       3.153  48.043   1.228  1.00 19.37 LIG-0.23  N 
ATOM     32  NH1 ARG B1545       4.552  46.202   1.204  1.00 20.25 LIG-0.23  N 
ATOM     33 1HH2 ARG B1545       2.429  48.428   0.970  1.00 19.37 LIG 0.17  HD
ATOM     34 2HH2 ARG B1545       3.702  48.459   1.742  1.00 19.37 LIG 0.17  HD
ATOM     35 1HH1 ARG B1545       4.731  45.406   0.933  1.00 20.25 LIG 0.17  HD
ATOM     36 2HH1 ARG B1545       5.104  46.615   1.718  1.00 20.25 LIG 0.17  HD
ENDBRANCH 27 28
ENDBRANCH 26 27
ENDBRANCH 25 26
ENDBRANCH 24 25
BRANCH 24 37
ATOM     37  C   ARG B1545       1.029  41.505  -2.766  1.00 20.11 LIG 0.22  C 
ATOM     38 O    ARG B1545       2.199  41.277  -3.156  1.00 20.61 LIG-0.29  OA
ENDBRANCH 24 37
ENDBRANCH 22 24
ENDBRANCH 19 20
BRANCH 19 39
ATOM     39  CB  LEU B1544      -2.963  45.508  -0.575  1.00 22.71 LIG 0.04  C 
BRANCH 39 40
ATOM     40  CG  LEU B1544      -2.231  46.282   0.532  1.00 23.46 LIG-0.02  C 
ATOM     41  CD1 LEU B1544      -1.413  47.404  -0.116  1.00 24.99 LIG 0.01  C 
ATOM     42  CD2 LEU B1544      -3.212  46.856   1.546  1.00 22.67 LIG 0.01  C 
ENDBRANCH 39 40
ENDBRANCH 19 39
ENDBRANCH 16 19
ENDBRANCH 5 15
ENDBRANCH 3 5
BRANCH 1 43
ATOM     43  CA  TRP B1542      -4.968  42.486   5.167  1.00 29.62 LIG 0.18  C 
BRANCH 43 44
ATOM     44  N   TRP B1542      -5.912  43.324   4.429  1.00 31.24 LIG-0.35  N 
ATOM     45  C   ALA B1541      -5.651  44.602   4.213  1.00 34.20 LIG 0.24  C 
ATOM     46 O    ALA B1541      -4.603  45.127   4.581  1.00 33.88 LIG-0.27  OA
ATOM     47 H    TRP B1542      -6.623  42.920   4.161  1.00 31.24 LIG 0.16  HD
BRANCH 45 48
ATOM     48  CA  ALA B1541      -6.718  45.413   3.462  1.00 35.59 LIG 0.17  C 
ATOM     49  CB  ALA B1541      -6.254  45.675   2.011  1.00 37.24 LIG 0.04  C 
BRANCH 48 50
ATOM     50  N   ALA B1541      -7.107  46.686   4.085  1.00 36.68 LIG-0.35  N 
ATOM     51  C   ALA B1540      -7.727  46.740   5.260  1.00 36.41 LIG 0.24  C 
ATOM     52 O    ALA B1540      -7.974  45.733   5.931  1.00 35.55 LIG-0.27  OA
ATOM     53 H    ALA B1541      -6.897  47.381   3.624  1.00 36.68 LIG 0.16  HD
BRANCH 51 54
ATOM     54  CA  ALA B1540      -8.095  48.141   5.764  1.00 37.40 LIG 0.17  C 
ATOM     55  CB  ALA B1540      -9.356  48.650   5.049  1.00 38.11 LIG 0.04  C 
BRANCH 54 56
ATOM     56  N   ALA B1540      -7.007  49.098   5.577  1.00 38.31 LIG-0.35  N 
ATOM     57 H    ALA B1540      -7.094  49.595   4.880  1.00 38.31 LIG 0.16  HD
ATOM     58  C   ILE B1539      -5.983  49.185   6.414  1.00 39.48 LIG 0.26  C 
ATOM     59 O    ILE B1539      -5.869  48.464   7.396  1.00 40.50 LIG-0.27  OA
BRANCH 58 60
ATOM     60  CA  ILE B1539      -4.913  50.225   6.075  1.00 40.24 LIG 0.40  C 
ATOM     61  N   ILE B1539      -3.771  50.195   7.046  1.00 42.50 LIG 0.61  N 
BRANCH 60 62
ATOM     62  CB  ILE B1539      -4.439  49.955   4.616  1.00 40.48 LIG 0.03  C 
ATOM     63  CG2 ILE B1539      -3.105  50.656   4.367  1.00 38.85 LIG 0.01  C 
BRANCH 62 64
ATOM     64  CG1 ILE B1539      -4.297  48.450   4.364  1.00 39.99 LIG 0.00  C 
ATOM     65  CD1 ILE B1539      -3.009  47.853   4.948  1.00 39.67 LIG 0.01  C 
ENDBRANCH 62 64
ENDBRANCH 60 62
ENDBRANCH 58 60
ENDBRANCH 54 56
ENDBRANCH 51 54
ENDBRANCH 48 50
ENDBRANCH 45 48
ENDBRANCH 43 44
BRANCH 43 66
ATOM     66  CB  TRP B1542      -5.423  41.022   5.092  1.00 29.93 LIG 0.07  C 
BRANCH 66 67
ATOM     67  CG  TRP B1542      -6.190  40.553   6.330  1.00 31.09 LIG-0.03  A 
ATOM     68  CD1 TRP B1542      -5.927  39.433   7.079  1.00 35.00 LIG 0.10  A 
ATOM     69  NE1 TRP B1542      -6.806  39.350   8.143  1.00 35.42 LIG-0.36  N 
ATOM     70 HE1  TRP B1542      -6.815  38.727   8.736  1.00 35.42 LIG 0.17  HD
ATOM     71  CE2 TRP B1542      -7.660  40.423   8.100  1.00 34.23 LIG 0.04  A 
ATOM     72  CD2 TRP B1542      -7.306  41.204   6.969  1.00 31.85 LIG-0.00  A 
ATOM     73  CZ2 TRP B1542      -8.713  40.774   8.960  1.00 32.49 LIG 0.03  A 
ATOM     74  CE3 TRP B1542      -8.039  42.369   6.700  1.00 30.05 LIG 0.01  A 
ATOM     75  CZ3 TRP B1542      -9.088  42.720   7.556  1.00 29.28 LIG 0.00  A 
ATOM     76  CH2 TRP B1542      -9.412  41.918   8.676  1.00 32.34 LIG 0.00  A 
ENDBRANCH 66 67
ENDBRANCH 43 66
ENDBRANCH 1 43
TORSDOF 26
ENDMDL
MODEL 31
USER: ADFR SOLUTION from run 77
USER: SCORE 20.859263 LL:  -5.616 LR: -17.658 RR:   0.000 FEB:  -9.902
USER: RMSD 9.036802
USER: SEED 76
USER: STATUS no improvement in best in 11 clusters for 5 generations
USER: GENES 28
USER: genes 0 Translation |==|  0.45121 0.23314 0.59984
USER: genes 1 Rotation |==|  0.50381 0.21243 0.88080 0.64927
USER: genes 2 Torsion [C]-N--CA-[CB] |==|  0.74988
USER: genes 3 Torsion [N]-CA--CB-[CG] |==|  0.76517
USER: genes 4 Torsion [CA]-CB--CG-[CD1] |==|  0.19035
USER: genes 5 Torsion [CE1]-CZ--OH-[HH] |==|  0.72988
USER: genes 6 Torsion [N]-CA--C-[N] |==|  0.75739
USER: genes 7 Torsion [C]-N--CA-[CB] |==|  0.20592
USER: genes 8 Torsion [N]-CA--C-[N] |==|  0.98091
USER: genes 9 Torsion [C]-N--CA-[CB] |==|  0.81291
USER: genes 10 Torsion [N]-CA--CB-[CG] |==|  0.70589
USER: genes 11 Torsion [CA]-CB--CG-[CD] |==|  0.82836
USER: genes 12 Torsion [CB]-CG--CD-[NE] |==|  0.26919
USER: genes 13 Torsion [CG]-CD--NE-[HE] |==|  0.85372
USER: genes 14 Torsion [N]-CA--C-[O] |==|  0.37099
USER: genes 15 Torsion [N]-CA--CB-[CG] |==|  0.12867
USER: genes 16 Torsion [CA]-CB--CG-[CD1] |==|  0.23930
USER: genes 17 Torsion [N]-C--CA-[N] |==|  0.45991
USER: genes 18 Torsion [C]-CA--N-[C] |==|  0.77609
USER: genes 19 Torsion [N]-C--CA-[N] |==|  0.15432
USER: genes 20 Torsion [C]-CA--N-[C] |==|  0.79553
USER: genes 21 Torsion [N]-C--CA-[N] |==|  0.63275
USER: genes 22 Torsion [C]-CA--N-[C] |==|  0.61505
USER: genes 23 Torsion [N]-C--CA-[N] |==|  0.34668
USER: genes 24 Torsion [C]-CA--CB-[CG1] |==|  0.84080
USER: genes 25 Torsion [CA]-CB--CG1-[CD1] |==|  0.33586
USER: genes 26 Torsion [C]-CA--CB-[CG] |==|  0.83975
USER: genes 27 Torsion [CA]-CB--CG-[CD1] |==|  0.84505
ROOT
ATOM      1  C   TRP B1542      -3.592  38.758   4.342  1.00 26.55 LIG 0.24  C 
ATOM      2 O    TRP B1542      -4.494  39.582   4.274  1.00 27.86 LIG-0.27  OA
ATOM      3  N   TYR B1543      -3.406  37.989   5.408  1.00 24.62 LIG-0.35  N 
ATOM      4 H    TYR B1543      -2.737  37.458   5.511  1.00 24.62 LIG 0.16  HD
ENDROOT
BRANCH 3 5
ATOM      5  CA  TYR B1543      -4.351  37.992   6.509  1.00 22.31 LIG 0.18  C 
BRANCH 5 6
ATOM      6  CB  TYR B1543      -3.923  39.058   7.520  1.00 23.67 LIG 0.07  C 
BRANCH 6 7
ATOM      7  CG  TYR B1543      -2.880  38.619   8.530  1.00 24.58 LIG-0.06  A 
ATOM      8  CD1 TYR B1543      -1.573  38.345   8.130  1.00 24.59 LIG 0.01  A 
ATOM      9  CE1 TYR B1543      -0.632  37.873   9.033  1.00 26.50 LIG 0.04  A 
ATOM     10  CZ  TYR B1543      -1.005  37.668  10.347  1.00 24.60 LIG 0.07  A 
ATOM     11  CE2 TYR B1543      -2.305  37.944  10.765  1.00 24.06 LIG 0.04  A 
ATOM     12  CD2 TYR B1543      -3.219  38.416   9.862  1.00 22.62 LIG 0.01  A 
BRANCH 10 13
ATOM     13 OH   TYR B1543      -0.100  37.158  11.232  1.00 26.51 LIG-0.36  OA
ATOM     14 HH   TYR B1543      -0.217  36.329  11.306  1.00 26.51 LIG 0.22  HD
ENDBRANCH 10 13
ENDBRANCH 6 7
ENDBRANCH 5 6
BRANCH 5 15
ATOM     15  C   TYR B1543      -5.836  38.141   6.217  1.00 22.90 LIG 0.24  C 
ATOM     16  N   LEU B1544      -6.311  39.376   6.133  1.00 22.60 LIG-0.35  N 
ATOM     17 H    LEU B1544      -5.835  40.089   6.199  1.00 22.60 LIG 0.16  HD
ATOM     18 O    TYR B1543      -6.545  37.151   6.082  1.00 21.43 LIG-0.27  OA
BRANCH 16 19
ATOM     19  CA  LEU B1544      -7.731  39.600   5.913  1.00 22.81 LIG 0.18  C 
BRANCH 19 20
ATOM     20  C   LEU B1544      -8.017  41.018   5.429  1.00 21.53 LIG 0.24  C 
ATOM     21 O    LEU B1544      -9.151  41.353   5.067  1.00 22.00 LIG-0.27  OA
ATOM     22  N   ARG B1545      -6.985  41.855   5.419  1.00 20.14 LIG-0.35  N 
ATOM     23 H    ARG B1545      -6.185  41.654   5.661  1.00 20.14 LIG 0.16  HD
BRANCH 22 24
ATOM     24  CA  ARG B1545      -7.175  43.224   4.970  1.00 18.95 LIG 0.16  C 
BRANCH 24 25
ATOM     25  CB  ARG B1545      -7.495  43.248   3.469  1.00 20.51 LIG 0.04  C 
BRANCH 25 26
ATOM     26  CG  ARG B1545      -6.282  43.742   2.680  1.00 20.78 LIG 0.02  C 
BRANCH 26 27
ATOM     27  CD  ARG B1545      -5.870  45.167   3.039  1.00 21.13 LIG 0.14  C 
BRANCH 27 28
ATOM     28  NE  ARG B1545      -4.779  45.158   4.020  1.00 20.56 LIG-0.23  N 
ATOM     29 HE   ARG B1545      -4.886  44.699   4.739  1.00 20.56 LIG 0.18  HD
ATOM     30  CZ  ARG B1545      -3.637  45.817   3.861  1.00 23.27 LIG 0.67  C 
ATOM     31  NH2 ARG B1545      -2.699  45.785   4.818  1.00 19.37 LIG-0.23  N 
ATOM     32  NH1 ARG B1545      -3.442  46.528   2.758  1.00 20.25 LIG-0.23  N 
ATOM     33 1HH2 ARG B1545      -2.835  45.336   5.538  1.00 19.37 LIG 0.17  HD
ATOM     34 2HH2 ARG B1545      -1.961  46.212   4.711  1.00 19.37 LIG 0.17  HD
ATOM     35 1HH1 ARG B1545      -4.053  46.559   2.153  1.00 20.25 LIG 0.17  HD
ATOM     36 2HH1 ARG B1545      -2.705  46.957   2.647  1.00 20.25 LIG 0.17  HD
ENDBRANCH 27 28
ENDBRANCH 26 27
ENDBRANCH 25 26
ENDBRANCH 24 25
BRANCH 24 37
ATOM     37  C   ARG B1545      -8.227  43.965   5.787  1.00 20.11 LIG 0.22  C 
ATOM     38 O    ARG B1545      -7.930  45.119   6.176  1.00 20.61 LIG-0.29  OA
ENDBRANCH 24 37
ENDBRANCH 22 24
ENDBRANCH 19 20
BRANCH 19 39
ATOM     39  CB  LEU B1544      -8.506  39.303   7.203  1.00 22.71 LIG 0.04  C 
BRANCH 39 40
ATOM     40  CG  LEU B1544      -7.897  39.915   8.474  1.00 23.46 LIG-0.02  C 
ATOM     41  CD1 LEU B1544      -8.423  41.346   8.625  1.00 24.99 LIG 0.01  C 
ATOM     42  CD2 LEU B1544      -8.242  39.088   9.706  1.00 22.67 LIG 0.01  C 
ENDBRANCH 39 40
ENDBRANCH 19 39
ENDBRANCH 16 19
ENDBRANCH 5 15
ENDBRANCH 3 5
BRANCH 1 43
ATOM     43  CA  TRP B1542      -2.604  38.602   3.192  1.00 29.62 LIG 0.18  C 
BRANCH 43 44
ATOM     44  N   TRP B1542      -3.067  39.223   1.953  1.00 31.24 LIG-0.35  N 
ATOM     45  C   ALA B1541      -3.933  38.601   1.171  1.00 34.20 LIG 0.24  C 
ATOM     46 O    ALA B1541      -4.412  37.508   1.464  1.00 33.88 LIG-0.27  OA
ATOM     47 H    TRP B1542      -2.734  40.000   1.790  1.00 31.24 LIG 0.16  HD
BRANCH 45 48
ATOM     48  CA  ALA B1541      -4.333  39.314  -0.130  1.00 35.59 LIG 0.17  C 
ATOM     49  CB  ALA B1541      -5.344  38.446  -0.915  1.00 37.24 LIG 0.04  C 
BRANCH 48 50
ATOM     50  N   ALA B1541      -3.224  39.690  -1.018  1.00 36.68 LIG-0.35  N 
ATOM     51  C   ALA B1540      -2.407  40.702  -0.740  1.00 36.41 LIG 0.24  C 
ATOM     52 O    ALA B1540      -2.489  41.360   0.302  1.00 35.55 LIG-0.27  OA
ATOM     53 H    ALA B1541      -3.156  39.201  -1.722  1.00 36.68 LIG 0.16  HD
BRANCH 51 54
ATOM     54  CA  ALA B1540      -1.316  40.991  -1.779  1.00 37.40 LIG 0.17  C 
ATOM     55  CB  ALA B1540      -1.265  39.866  -2.824  1.00 38.11 LIG 0.04  C 
BRANCH 54 56
ATOM     56  N   ALA B1540       0.002  41.151  -1.167  1.00 38.31 LIG-0.35  N 
ATOM     57 H    ALA B1540       0.167  40.585  -0.541  1.00 38.31 LIG 0.16  HD
ATOM     58  C   ILE B1539       0.856  42.088  -1.552  1.00 39.48 LIG 0.26  C 
ATOM     59 O    ILE B1539       0.601  42.892  -2.438  1.00 40.50 LIG-0.27  OA
BRANCH 58 60
ATOM     60  CA  ILE B1539       2.190  42.140  -0.805  1.00 40.24 LIG 0.40  C 
ATOM     61  N   ILE B1539       3.361  42.048  -1.736  1.00 42.50 LIG 0.61  N 
BRANCH 60 62
ATOM     62  CB  ILE B1539       2.214  43.458   0.025  1.00 40.48 LIG 0.03  C 
ATOM     63  CG2 ILE B1539       3.540  43.575   0.775  1.00 38.85 LIG 0.01  C 
BRANCH 62 64
ATOM     64  CG1 ILE B1539       2.018  44.675  -0.887  1.00 39.99 LIG 0.00  C 
ATOM     65  CD1 ILE B1539       0.791  45.520  -0.520  1.00 39.67 LIG 0.01  C 
ENDBRANCH 62 64
ENDBRANCH 60 62
ENDBRANCH 58 60
ENDBRANCH 54 56
ENDBRANCH 51 54
ENDBRANCH 48 50
ENDBRANCH 45 48
ENDBRANCH 43 44
BRANCH 43 66
ATOM     66  CB  TRP B1542      -1.269  39.234   3.609  1.00 29.93 LIG 0.07  C 
BRANCH 66 67
ATOM     67  CG  TRP B1542      -1.382  40.711   3.994  1.00 31.09 LIG-0.03  A 
ATOM     68  CD1 TRP B1542      -1.894  41.721   3.219  1.00 35.00 LIG 0.10  A 
ATOM     69  NE1 TRP B1542      -1.866  42.918   3.911  1.00 35.42 LIG-0.36  N 
ATOM     70 HE1  TRP B1542      -2.141  43.676   3.611  1.00 35.42 LIG 0.17  HD
ATOM     71  CE2 TRP B1542      -1.329  42.700   5.155  1.00 34.23 LIG 0.04  A 
ATOM     72  CD2 TRP B1542      -1.008  41.321   5.246  1.00 31.85 LIG-0.00  A 
ATOM     73  CZ2 TRP B1542      -1.100  43.600   6.209  1.00 32.49 LIG 0.03  A 
ATOM     74  CE3 TRP B1542      -0.437  40.839   6.433  1.00 30.05 LIG 0.01  A 
ATOM     75  CZ3 TRP B1542      -0.208  41.733   7.483  1.00 29.28 LIG 0.00  A 
ATOM     76  CH2 TRP B1542      -0.544  43.103   7.359  1.00 32.34 LIG 0.00  A 
ENDBRANCH 66 67
ENDBRANCH 43 66
ENDBRANCH 1 43
TORSDOF 26
ENDMDL
MODEL 32
USER: ADFR SOLUTION from run 190
USER: SCORE 21.029122 LL:  -5.907 LR: -17.636 RR:   0.000 FEB:  -9.880
USER: RMSD 6.175545
USER: SEED 189
USER: STATUS no improvement in best in 8 clusters for 5 generations
USER: GENES 28
USER: genes 0 Translation |==|  0.40208 0.40076 0.62369
USER: genes 1 Rotation |==|  0.42133 0.72984 0.73373 0.86926
USER: genes 2 Torsion [C]-N--CA-[CB] |==|  0.53360
USER: genes 3 Torsion [N]-CA--CB-[CG] |==|  0.06005
USER: genes 4 Torsion [CA]-CB--CG-[CD1] |==|  0.65133
USER: genes 5 Torsion [CE1]-CZ--OH-[HH] |==|  0.36321
USER: genes 6 Torsion [N]-CA--C-[N] |==|  0.40083
USER: genes 7 Torsion [C]-N--CA-[CB] |==|  0.37531
USER: genes 8 Torsion [N]-CA--C-[N] |==|  0.33886
USER: genes 9 Torsion [C]-N--CA-[CB] |==|  0.24350
USER: genes 10 Torsion [N]-CA--CB-[CG] |==|  0.61909
USER: genes 11 Torsion [CA]-CB--CG-[CD] |==|  0.05722
USER: genes 12 Torsion [CB]-CG--CD-[NE] |==|  0.38061
USER: genes 13 Torsion [CG]-CD--NE-[HE] |==|  0.11847
USER: genes 14 Torsion [N]-CA--C-[O] |==|  0.59696
USER: genes 15 Torsion [N]-CA--CB-[CG] |==|  0.17390
USER: genes 16 Torsion [CA]-CB--CG-[CD1] |==|  0.29603
USER: genes 17 Torsion [N]-C--CA-[N] |==|  0.46110
USER: genes 18 Torsion [C]-CA--N-[C] |==|  0.78694
USER: genes 19 Torsion [N]-C--CA-[N] |==|  0.04167
USER: genes 20 Torsion [C]-CA--N-[C] |==|  0.78780
USER: genes 21 Torsion [N]-C--CA-[N] |==|  0.96067
USER: genes 22 Torsion [C]-CA--N-[C] |==|  0.75309
USER: genes 23 Torsion [N]-C--CA-[N] |==|  0.87992
USER: genes 24 Torsion [C]-CA--CB-[CG1] |==|  0.35211
USER: genes 25 Torsion [CA]-CB--CG1-[CD1] |==|  0.00822
USER: genes 26 Torsion [C]-CA--CB-[CG] |==|  0.51312
USER: genes 27 Torsion [CA]-CB--CG-[CD1] |==|  0.44588
ROOT
ATOM      1  C   TRP B1542      -4.735  42.027   4.789  1.00 26.55 LIG 0.24  C 
ATOM      2 O    TRP B1542      -5.109  42.498   3.725  1.00 27.86 LIG-0.27  OA
ATOM      3  N   TYR B1543      -3.487  42.151   5.226  1.00 24.62 LIG-0.35  N 
ATOM      4 H    TYR B1543      -3.180  41.765   5.931  1.00 24.62 LIG 0.16  HD
ENDROOT
BRANCH 3 5
ATOM      5  CA  TYR B1543      -2.523  42.974   4.518  1.00 22.31 LIG 0.18  C 
BRANCH 5 6
ATOM      6  CB  TYR B1543      -1.127  42.681   5.074  1.00 23.67 LIG 0.07  C 
BRANCH 6 7
ATOM      7  CG  TYR B1543      -0.971  41.348   5.779  1.00 24.58 LIG-0.06  A 
ATOM      8  CD1 TYR B1543      -0.477  41.284   7.081  1.00 24.59 LIG 0.01  A 
ATOM      9  CE1 TYR B1543      -0.262  40.065   7.707  1.00 26.50 LIG 0.04  A 
ATOM     10  CZ  TYR B1543      -0.539  38.899   7.020  1.00 24.60 LIG 0.07  A 
ATOM     11  CE2 TYR B1543      -1.040  38.945   5.721  1.00 24.06 LIG 0.04  A 
ATOM     12  CD2 TYR B1543      -1.253  40.157   5.121  1.00 22.62 LIG 0.01  A 
BRANCH 10 13
ATOM     13 OH   TYR B1543      -0.284  37.695   7.610  1.00 26.51 LIG-0.36  OA
ATOM     14 HH   TYR B1543      -0.960  37.200   7.539  1.00 26.51 LIG 0.22  HD
ENDBRANCH 10 13
ENDBRANCH 6 7
ENDBRANCH 5 6
BRANCH 5 15
ATOM     15  C   TYR B1543      -2.480  42.932   2.999  1.00 22.90 LIG 0.24  C 
ATOM     16  N   LEU B1544      -2.206  44.068   2.374  1.00 22.60 LIG-0.35  N 
ATOM     17 H    LEU B1544      -2.021  44.811   2.766  1.00 22.60 LIG 0.16  HD
ATOM     18 O    TYR B1543      -2.703  41.886   2.401  1.00 21.43 LIG-0.27  OA
BRANCH 16 19
ATOM     19  CA  LEU B1544      -2.203  44.121   0.920  1.00 22.81 LIG 0.18  C 
BRANCH 19 20
ATOM     20  C   LEU B1544      -0.788  44.090   0.351  1.00 21.53 LIG 0.24  C 
ATOM     21 O    LEU B1544       0.045  44.949   0.663  1.00 22.00 LIG-0.27  OA
ATOM     22  N   ARG B1545      -0.515  43.098  -0.491  1.00 20.14 LIG-0.35  N 
ATOM     23 H    ARG B1545      -1.071  42.487  -0.730  1.00 20.14 LIG 0.16  HD
BRANCH 22 24
ATOM     24  CA  ARG B1545       0.811  42.999  -1.078  1.00 18.95 LIG 0.16  C 
BRANCH 24 25
ATOM     25  CB  ARG B1545       1.736  42.191  -0.157  1.00 20.51 LIG 0.04  C 
BRANCH 25 26
ATOM     26  CG  ARG B1545       3.107  42.862  -0.068  1.00 20.78 LIG 0.02  C 
BRANCH 26 27
ATOM     27  CD  ARG B1545       3.081  44.338  -0.457  1.00 21.13 LIG 0.14  C 
BRANCH 27 28
ATOM     28  NE  ARG B1545       3.888  45.132   0.475  1.00 20.56 LIG-0.23  N 
ATOM     29 HE   ARG B1545       4.650  44.818   0.720  1.00 20.56 LIG 0.18  HD
ATOM     30  CZ  ARG B1545       3.512  46.310   0.961  1.00 23.27 LIG 0.67  C 
ATOM     31  NH2 ARG B1545       4.292  46.962   1.834  1.00 19.37 LIG-0.23  N 
ATOM     32  NH1 ARG B1545       2.344  46.823   0.595  1.00 20.25 LIG-0.23  N 
ATOM     33 1HH2 ARG B1545       5.040  46.619   2.081  1.00 19.37 LIG 0.17  HD
ATOM     34 2HH2 ARG B1545       4.044  47.724   2.146  1.00 19.37 LIG 0.17  HD
ATOM     35 1HH1 ARG B1545       1.838  46.394   0.048  1.00 20.25 LIG 0.17  HD
ATOM     36 2HH1 ARG B1545       2.093  47.584   0.906  1.00 20.25 LIG 0.17  HD
ENDBRANCH 27 28
ENDBRANCH 26 27
ENDBRANCH 25 26
ENDBRANCH 24 25
BRANCH 24 37
ATOM     37  C   ARG B1545       0.782  42.433  -2.492  1.00 20.11 LIG 0.22  C 
ATOM     38 O    ARG B1545       1.745  41.704  -2.828  1.00 20.61 LIG-0.29  OA
ENDBRANCH 24 37
ENDBRANCH 22 24
ENDBRANCH 19 20
BRANCH 19 39
ATOM     39  CB  LEU B1544      -2.948  45.376   0.448  1.00 22.71 LIG 0.04  C 
BRANCH 39 40
ATOM     40  CG  LEU B1544      -2.313  46.704   0.887  1.00 23.46 LIG-0.02  C 
ATOM     41  CD1 LEU B1544      -1.646  47.352  -0.331  1.00 24.99 LIG 0.01  C 
ATOM     42  CD2 LEU B1544      -3.352  47.642   1.487  1.00 22.67 LIG 0.01  C 
ENDBRANCH 39 40
ENDBRANCH 19 39
ENDBRANCH 16 19
ENDBRANCH 5 15
ENDBRANCH 3 5
BRANCH 1 43
ATOM     43  CA  TRP B1542      -5.699  41.232   5.662  1.00 29.62 LIG 0.18  C 
BRANCH 43 44
ATOM     44  N   TRP B1542      -7.098  41.417   5.282  1.00 31.24 LIG-0.35  N 
ATOM     45  C   ALA B1541      -7.744  42.523   5.614  1.00 34.20 LIG 0.24  C 
ATOM     46 O    ALA B1541      -7.196  43.446   6.212  1.00 33.88 LIG-0.27  OA
ATOM     47 H    TRP B1542      -7.444  40.765   4.841  1.00 31.24 LIG 0.16  HD
BRANCH 45 48
ATOM     48  CA  ALA B1541      -9.222  42.614   5.207  1.00 35.59 LIG 0.17  C 
ATOM     49  CB  ALA B1541     -10.044  43.251   6.352  1.00 37.24 LIG 0.04  C 
BRANCH 48 50
ATOM     50  N   ALA B1541      -9.852  41.349   4.803  1.00 36.68 LIG-0.35  N 
ATOM     51  C   ALA B1540      -9.630  40.795   3.615  1.00 36.41 LIG 0.24  C 
ATOM     52 O    ALA B1540      -8.844  41.275   2.791  1.00 35.55 LIG-0.27  OA
ATOM     53 H    ALA B1541     -10.368  41.007   5.400  1.00 36.68 LIG 0.16  HD
BRANCH 51 54
ATOM     54  CA  ALA B1540     -10.384  39.491   3.329  1.00 37.40 LIG 0.17  C 
ATOM     55  CB  ALA B1540     -11.493  39.733   2.293  1.00 38.11 LIG 0.04  C 
BRANCH 54 56
ATOM     56  N   ALA B1540     -10.963  38.911   4.539  1.00 38.31 LIG-0.35  N 
ATOM     57 H    ALA B1540     -11.768  39.168   4.700  1.00 38.31 LIG 0.16  HD
ATOM     58  C   ILE B1539     -10.297  38.064   5.311  1.00 39.48 LIG 0.26  C 
ATOM     59 O    ILE B1539      -9.148  37.715   5.073  1.00 40.50 LIG-0.27  OA
BRANCH 58 60
ATOM     60  CA  ILE B1539     -11.031  37.555   6.553  1.00 40.24 LIG 0.40  C 
ATOM     61  N   ILE B1539     -11.765  38.652   7.263  1.00 42.50 LIG 0.61  N 
BRANCH 60 62
ATOM     62  CB  ILE B1539     -11.993  36.417   6.099  1.00 40.48 LIG 0.03  C 
ATOM     63  CG2 ILE B1539     -11.781  36.120   4.615  1.00 38.85 LIG 0.01  C 
BRANCH 62 64
ATOM     64  CG1 ILE B1539     -11.759  35.148   6.926  1.00 39.99 LIG 0.00  C 
ATOM     65  CD1 ILE B1539     -10.706  35.325   8.029  1.00 39.67 LIG 0.01  C 
ENDBRANCH 62 64
ENDBRANCH 60 62
ENDBRANCH 58 60
ENDBRANCH 54 56
ENDBRANCH 51 54
ENDBRANCH 48 50
ENDBRANCH 45 48
ENDBRANCH 43 44
BRANCH 43 66
ATOM     66  CB  TRP B1542      -5.338  39.743   5.554  1.00 29.93 LIG 0.07  C 
BRANCH 66 67
ATOM     67  CG  TRP B1542      -6.307  38.821   6.297  1.00 31.09 LIG-0.03  A 
ATOM     68  CD1 TRP B1542      -6.476  37.475   6.090  1.00 35.00 LIG 0.10  A 
ATOM     69  NE1 TRP B1542      -7.413  36.968   6.970  1.00 35.42 LIG-0.36  N 
ATOM     70 HE1  TRP B1542      -7.668  36.147   7.012  1.00 35.42 LIG 0.17  HD
ATOM     71  CE2 TRP B1542      -7.873  37.986   7.767  1.00 34.23 LIG 0.04  A 
ATOM     72  CD2 TRP B1542      -7.202  39.173   7.372  1.00 31.85 LIG-0.00  A 
ATOM     73  CZ2 TRP B1542      -8.821  37.965   8.803  1.00 32.49 LIG 0.03  A 
ATOM     74  CE3 TRP B1542      -7.499  40.370   8.039  1.00 30.05 LIG 0.01  A 
ATOM     75  CZ3 TRP B1542      -8.443  40.350   9.071  1.00 29.28 LIG 0.00  A 
ATOM     76  CH2 TRP B1542      -9.092  39.148   9.442  1.00 32.34 LIG 0.00  A 
ENDBRANCH 66 67
ENDBRANCH 43 66
ENDBRANCH 1 43
TORSDOF 26
ENDMDL
MODEL 33
USER: ADFR SOLUTION from run 190
USER: SCORE 20.722947 LL:  -6.197 LR: -17.616 RR:   0.000 FEB:  -9.860
USER: RMSD 6.099751
USER: SEED 189
USER: STATUS no improvement in best in 8 clusters for 5 generations
USER: GENES 28
USER: genes 0 Translation |==|  0.38049 0.46934 0.59911
USER: genes 1 Rotation |==|  0.46412 0.73342 0.69482 0.89532
USER: genes 2 Torsion [C]-N--CA-[CB] |==|  0.50349
USER: genes 3 Torsion [N]-CA--CB-[CG] |==|  0.14111
USER: genes 4 Torsion [CA]-CB--CG-[CD1] |==|  0.59438
USER: genes 5 Torsion [CE1]-CZ--OH-[HH] |==|  0.53853
USER: genes 6 Torsion [N]-CA--C-[N] |==|  0.45982
USER: genes 7 Torsion [C]-N--CA-[CB] |==|  0.31105
USER: genes 8 Torsion [N]-CA--C-[N] |==|  0.37328
USER: genes 9 Torsion [C]-N--CA-[CB] |==|  0.18083
USER: genes 10 Torsion [N]-CA--CB-[CG] |==|  0.64648
USER: genes 11 Torsion [CA]-CB--CG-[CD] |==|  0.06845
USER: genes 12 Torsion [CB]-CG--CD-[NE] |==|  0.37411
USER: genes 13 Torsion [CG]-CD--NE-[HE] |==|  0.12826
USER: genes 14 Torsion [N]-CA--C-[O] |==|  0.53708
USER: genes 15 Torsion [N]-CA--CB-[CG] |==|  0.13318
USER: genes 16 Torsion [CA]-CB--CG-[CD1] |==|  0.34738
USER: genes 17 Torsion [N]-C--CA-[N] |==|  0.38477
USER: genes 18 Torsion [C]-CA--N-[C] |==|  0.58943
USER: genes 19 Torsion [N]-C--CA-[N] |==|  0.94109
USER: genes 20 Torsion [C]-CA--N-[C] |==|  0.75896
USER: genes 21 Torsion [N]-C--CA-[N] |==|  0.61924
USER: genes 22 Torsion [C]-CA--N-[C] |==|  0.12779
USER: genes 23 Torsion [N]-C--CA-[N] |==|  0.94987
USER: genes 24 Torsion [C]-CA--CB-[CG1] |==|  0.24347
USER: genes 25 Torsion [CA]-CB--CG1-[CD1] |==|  0.02676
USER: genes 26 Torsion [C]-CA--CB-[CG] |==|  0.35984
USER: genes 27 Torsion [CA]-CB--CG-[CD1] |==|  0.32641
ROOT
ATOM      1  C   TRP B1542      -5.237  43.364   4.328  1.00 26.55 LIG 0.24  C 
ATOM      2 O    TRP B1542      -5.496  43.982   3.305  1.00 27.86 LIG-0.27  OA
ATOM      3  N   TYR B1543      -3.992  43.153   4.739  1.00 24.62 LIG-0.35  N 
ATOM      4 H    TYR B1543      -3.781  42.659   5.411  1.00 24.62 LIG 0.16  HD
ENDROOT
BRANCH 3 5
ATOM      5  CA  TYR B1543      -2.864  43.763   4.059  1.00 22.31 LIG 0.18  C 
BRANCH 5 6
ATOM      6  CB  TYR B1543      -1.573  43.307   4.744  1.00 23.67 LIG 0.07  C 
BRANCH 6 7
ATOM      7  CG  TYR B1543      -1.431  41.811   4.939  1.00 24.58 LIG-0.06  A 
ATOM      8  CD1 TYR B1543      -0.780  41.297   6.060  1.00 24.59 LIG 0.01  A 
ATOM      9  CE1 TYR B1543      -0.580  39.932   6.209  1.00 26.50 LIG 0.04  A 
ATOM     10  CZ  TYR B1543      -1.033  39.075   5.225  1.00 24.60 LIG 0.07  A 
ATOM     11  CE2 TYR B1543      -1.693  39.571   4.104  1.00 24.06 LIG 0.04  A 
ATOM     12  CD2 TYR B1543      -1.887  40.920   3.975  1.00 22.62 LIG 0.01  A 
BRANCH 10 13
ATOM     13 OH   TYR B1543      -0.798  37.735   5.341  1.00 26.51 LIG-0.36  OA
ATOM     14 HH   TYR B1543      -0.951  37.360   4.604  1.00 26.51 LIG 0.22  HD
ENDBRANCH 10 13
ENDBRANCH 6 7
ENDBRANCH 5 6
BRANCH 5 15
ATOM     15  C   TYR B1543      -2.722  43.597   2.554  1.00 22.90 LIG 0.24  C 
ATOM     16  N   LEU B1544      -1.864  44.399   1.939  1.00 22.60 LIG-0.35  N 
ATOM     17 H    LEU B1544      -1.366  44.978   2.334  1.00 22.60 LIG 0.16  HD
ATOM     18 O    TYR B1543      -3.389  42.761   1.957  1.00 21.43 LIG-0.27  OA
BRANCH 16 19
ATOM     19  CA  LEU B1544      -1.714  44.340   0.494  1.00 22.81 LIG 0.18  C 
BRANCH 19 20
ATOM     20  C   LEU B1544      -0.266  44.101   0.079  1.00 21.53 LIG 0.24  C 
ATOM     21 O    LEU B1544       0.659  44.735   0.597  1.00 22.00 LIG-0.27  OA
ATOM     22  N   ARG B1545      -0.069  43.183  -0.862  1.00 20.14 LIG-0.35  N 
ATOM     23 H    ARG B1545      -0.690  42.726  -1.244  1.00 20.14 LIG 0.16  HD
BRANCH 22 24
ATOM     24  CA  ARG B1545       1.283  42.897  -1.313  1.00 18.95 LIG 0.16  C 
BRANCH 24 25
ATOM     25  CB  ARG B1545       2.102  42.286  -0.169  1.00 20.51 LIG 0.04  C 
BRANCH 25 26
ATOM     26  CG  ARG B1545       3.404  43.066   0.022  1.00 20.78 LIG 0.02  C 
BRANCH 26 27
ATOM     27  CD  ARG B1545       3.321  44.506  -0.477  1.00 21.13 LIG 0.14  C 
BRANCH 27 28
ATOM     28  NE  ARG B1545       3.907  45.427   0.502  1.00 20.56 LIG-0.23  N 
ATOM     29 HE   ARG B1545       4.667  45.221   0.848  1.00 20.56 LIG 0.18  HD
ATOM     30  CZ  ARG B1545       3.333  46.562   0.886  1.00 23.27 LIG 0.67  C 
ATOM     31  NH2 ARG B1545       3.917  47.337   1.810  1.00 19.37 LIG-0.23  N 
ATOM     32  NH1 ARG B1545       2.163  46.910   0.365  1.00 20.25 LIG-0.23  N 
ATOM     33 1HH2 ARG B1545       4.667  47.101   2.157  1.00 19.37 LIG 0.17  HD
ATOM     34 2HH2 ARG B1545       3.542  48.070   2.056  1.00 19.37 LIG 0.17  HD
ATOM     35 1HH1 ARG B1545       1.783  46.402  -0.216  1.00 20.25 LIG 0.17  HD
ATOM     36 2HH1 ARG B1545       1.784  47.642   0.609  1.00 20.25 LIG 0.17  HD
ENDBRANCH 27 28
ENDBRANCH 26 27
ENDBRANCH 25 26
ENDBRANCH 24 25
BRANCH 24 37
ATOM     37  C   ARG B1545       1.309  42.022  -2.560  1.00 20.11 LIG 0.22  C 
ATOM     38 O    ARG B1545       2.412  41.513  -2.870  1.00 20.61 LIG-0.29  OA
ENDBRANCH 24 37
ENDBRANCH 22 24
ENDBRANCH 19 20
BRANCH 19 39
ATOM     39  CB  LEU B1544      -2.250  45.633  -0.134  1.00 22.71 LIG 0.04  C 
BRANCH 39 40
ATOM     40  CG  LEU B1544      -1.753  46.925   0.533  1.00 23.46 LIG-0.02  C 
ATOM     41  CD1 LEU B1544      -1.112  47.811  -0.539  1.00 24.99 LIG 0.01  C 
ATOM     42  CD2 LEU B1544      -2.893  47.664   1.224  1.00 22.67 LIG 0.01  C 
ENDBRANCH 39 40
ENDBRANCH 19 39
ENDBRANCH 16 19
ENDBRANCH 5 15
ENDBRANCH 3 5
BRANCH 1 43
ATOM     43  CA  TRP B1542      -6.356  42.770   5.174  1.00 29.62 LIG 0.18  C 
BRANCH 43 44
ATOM     44  N   TRP B1542      -7.491  43.676   5.338  1.00 31.24 LIG-0.35  N 
ATOM     45  C   ALA B1541      -8.210  43.662   6.449  1.00 34.20 LIG 0.24  C 
ATOM     46 O    ALA B1541      -7.937  42.926   7.394  1.00 33.88 LIG-0.27  OA
ATOM     47 H    TRP B1542      -7.639  44.197   4.669  1.00 31.24 LIG 0.16  HD
BRANCH 45 48
ATOM     48  CA  ALA B1541      -9.406  44.622   6.516  1.00 35.59 LIG 0.17  C 
ATOM     49  CB  ALA B1541     -10.721  43.840   6.289  1.00 37.24 LIG 0.04  C 
BRANCH 48 50
ATOM     50  N   ALA B1541      -9.358  45.767   5.596  1.00 36.68 LIG-0.35  N 
ATOM     51  C   ALA B1540      -8.748  46.905   5.914  1.00 36.41 LIG 0.24  C 
ATOM     52 O    ALA B1540      -8.139  47.062   6.977  1.00 35.55 LIG-0.27  OA
ATOM     53 H    ALA B1541      -9.755  45.632   4.845  1.00 36.68 LIG 0.16  HD
BRANCH 51 54
ATOM     54  CA  ALA B1540      -8.810  48.019   4.861  1.00 37.40 LIG 0.17  C 
ATOM     55  CB  ALA B1540      -9.262  47.448   3.508  1.00 38.11 LIG 0.04  C 
BRANCH 54 56
ATOM     56  N   ALA B1540      -7.526  48.699   4.701  1.00 38.31 LIG-0.35  N 
ATOM     57 H    ALA B1540      -7.585  49.557   4.683  1.00 38.31 LIG 0.16  HD
ATOM     58  C   ILE B1539      -6.381  48.041   4.593  1.00 39.48 LIG 0.26  C 
ATOM     59 O    ILE B1539      -6.315  46.820   4.610  1.00 40.50 LIG-0.27  OA
BRANCH 58 60
ATOM     60  CA  ILE B1539      -5.122  48.892   4.414  1.00 40.24 LIG 0.40  C 
ATOM     61  N   ILE B1539      -5.444  50.285   3.963  1.00 42.50 LIG 0.61  N 
BRANCH 60 62
ATOM     62  CB  ILE B1539      -4.352  48.887   5.768  1.00 40.48 LIG 0.03  C 
ATOM     63  CG2 ILE B1539      -5.345  48.840   6.929  1.00 38.85 LIG 0.01  C 
BRANCH 62 64
ATOM     64  CG1 ILE B1539      -3.400  47.688   5.844  1.00 39.99 LIG 0.00  C 
ATOM     65  CD1 ILE B1539      -3.258  46.937   4.513  1.00 39.67 LIG 0.01  C 
ENDBRANCH 62 64
ENDBRANCH 60 62
ENDBRANCH 58 60
ENDBRANCH 54 56
ENDBRANCH 51 54
ENDBRANCH 48 50
ENDBRANCH 45 48
ENDBRANCH 43 44
BRANCH 43 66
ATOM     66  CB  TRP B1542      -6.835  41.473   4.506  1.00 29.93 LIG 0.07  C 
BRANCH 66 67
ATOM     67  CG  TRP B1542      -6.897  40.278   5.460  1.00 31.09 LIG-0.03  A 
ATOM     68  CD1 TRP B1542      -8.019  39.570   5.812  1.00 35.00 LIG 0.10  A 
ATOM     69  NE1 TRP B1542      -7.686  38.536   6.667  1.00 35.42 LIG-0.36  N 
ATOM     70 HE1  TRP B1542      -8.237  37.970   7.006  1.00 35.42 LIG 0.17  HD
ATOM     71  CE2 TRP B1542      -6.331  38.558   6.885  1.00 34.23 LIG 0.04  A 
ATOM     72  CD2 TRP B1542      -5.797  39.644   6.144  1.00 31.85 LIG-0.00  A 
ATOM     73  CZ2 TRP B1542      -5.529  37.715   7.671  1.00 32.49 LIG 0.03  A 
ATOM     74  CE3 TRP B1542      -4.417  39.886   6.202  1.00 30.05 LIG 0.01  A 
ATOM     75  CZ3 TRP B1542      -3.617  39.046   6.983  1.00 29.28 LIG 0.00  A 
ATOM     76  CH2 TRP B1542      -4.183  37.970   7.708  1.00 32.34 LIG 0.00  A 
ENDBRANCH 66 67
ENDBRANCH 43 66
ENDBRANCH 1 43
TORSDOF 26
ENDMDL
MODEL 34
USER: ADFR SOLUTION from run 52
USER: SCORE 20.946917 LL:  -6.579 LR: -17.576 RR:   0.000 FEB:  -9.820
USER: RMSD 5.936659
USER: SEED 51
USER: STATUS searching
USER: GENES 28
USER: genes 0 Translation |==|  0.43889 0.28485 0.51211
USER: genes 1 Rotation |==|  0.25264 0.83717 0.75282 0.60586
USER: genes 2 Torsion [C]-N--CA-[CB] |==|  0.29970
USER: genes 3 Torsion [N]-CA--CB-[CG] |==|  0.11255
USER: genes 4 Torsion [CA]-CB--CG-[CD1] |==|  0.72944
USER: genes 5 Torsion [CE1]-CZ--OH-[HH] |==|  0.34543
USER: genes 6 Torsion [N]-CA--C-[N] |==|  0.43720
USER: genes 7 Torsion [C]-N--CA-[CB] |==|  0.50184
USER: genes 8 Torsion [N]-CA--C-[N] |==|  0.27311
USER: genes 9 Torsion [C]-N--CA-[CB] |==|  0.13937
USER: genes 10 Torsion [N]-CA--CB-[CG] |==|  0.28223
USER: genes 11 Torsion [CA]-CB--CG-[CD] |==|  0.29624
USER: genes 12 Torsion [CB]-CG--CD-[NE] |==|  0.71446
USER: genes 13 Torsion [CG]-CD--NE-[HE] |==|  0.06383
USER: genes 14 Torsion [N]-CA--C-[O] |==|  0.20958
USER: genes 15 Torsion [N]-CA--CB-[CG] |==|  0.58734
USER: genes 16 Torsion [CA]-CB--CG-[CD1] |==|  0.99114
USER: genes 17 Torsion [N]-C--CA-[N] |==|  0.44607
USER: genes 18 Torsion [C]-CA--N-[C] |==|  0.63983
USER: genes 19 Torsion [N]-C--CA-[N] |==|  0.63041
USER: genes 20 Torsion [C]-CA--N-[C] |==|  0.65089
USER: genes 21 Torsion [N]-C--CA-[N] |==|  0.89805
USER: genes 22 Torsion [C]-CA--N-[C] |==|  0.84016
USER: genes 23 Torsion [N]-C--CA-[N] |==|  0.37947
USER: genes 24 Torsion [C]-CA--CB-[CG1] |==|  0.15770
USER: genes 25 Torsion [CA]-CB--CG1-[CD1] |==|  0.54156
USER: genes 26 Torsion [C]-CA--CB-[CG] |==|  0.35280
USER: genes 27 Torsion [CA]-CB--CG-[CD1] |==|  0.41144
ROOT
ATOM      1  C   TRP B1542      -3.879  39.767   2.697  1.00 26.55 LIG 0.24  C 
ATOM      2 O    TRP B1542      -4.543  38.875   2.187  1.00 27.86 LIG-0.27  OA
ATOM      3  N   TYR B1543      -3.253  40.691   1.979  1.00 24.62 LIG-0.35  N 
ATOM      4 H    TYR B1543      -2.719  41.281   2.308  1.00 24.62 LIG 0.16  HD
ENDROOT
BRANCH 3 5
ATOM      5  CA  TYR B1543      -3.431  40.771   0.541  1.00 22.31 LIG 0.18  C 
BRANCH 5 6
ATOM      6  CB  TYR B1543      -4.277  42.007   0.220  1.00 23.67 LIG 0.07  C 
BRANCH 6 7
ATOM      7  CG  TYR B1543      -3.957  43.246   1.033  1.00 24.58 LIG-0.06  A 
ATOM      8  CD1 TYR B1543      -4.712  43.574   2.158  1.00 24.59 LIG 0.01  A 
ATOM      9  CE1 TYR B1543      -4.474  44.744   2.865  1.00 26.50 LIG 0.04  A 
ATOM     10  CZ  TYR B1543      -3.473  45.595   2.437  1.00 24.60 LIG 0.07  A 
ATOM     11  CE2 TYR B1543      -2.705  45.278   1.320  1.00 24.06 LIG 0.04  A 
ATOM     12  CD2 TYR B1543      -2.948  44.117   0.638  1.00 22.62 LIG 0.01  A 
BRANCH 10 13
ATOM     13 OH   TYR B1543      -3.264  46.772   3.097  1.00 26.51 LIG-0.36  OA
ATOM     14 HH   TYR B1543      -2.463  46.812   3.349  1.00 26.51 LIG 0.22  HD
ENDBRANCH 10 13
ENDBRANCH 6 7
ENDBRANCH 5 6
BRANCH 5 15
ATOM     15  C   TYR B1543      -2.210  40.748  -0.365  1.00 22.90 LIG 0.24  C 
ATOM     16  N   LEU B1544      -2.400  40.364  -1.620  1.00 22.60 LIG-0.35  N 
ATOM     17 H    LEU B1544      -3.163  40.162  -1.960  1.00 22.60 LIG 0.16  HD
ATOM     18 O    TYR B1543      -1.109  41.061   0.070  1.00 21.43 LIG-0.27  OA
BRANCH 16 19
ATOM     19  CA  LEU B1544      -1.271  40.261  -2.532  1.00 22.81 LIG 0.18  C 
BRANCH 19 20
ATOM     20  C   LEU B1544      -0.496  41.571  -2.633  1.00 21.53 LIG 0.24  C 
ATOM     21 O    LEU B1544      -0.881  42.485  -3.371  1.00 22.00 LIG-0.27  OA
ATOM     22  N   ARG B1545       0.602  41.662  -1.890  1.00 20.14 LIG-0.35  N 
ATOM     23 H    ARG B1545       0.897  41.046  -1.368  1.00 20.14 LIG 0.16  HD
BRANCH 22 24
ATOM     24  CA  ARG B1545       1.396  42.878  -1.930  1.00 18.95 LIG 0.16  C 
BRANCH 24 25
ATOM     25  CB  ARG B1545       0.496  44.104  -1.720  1.00 20.51 LIG 0.04  C 
BRANCH 25 26
ATOM     26  CG  ARG B1545       0.622  44.609  -0.282  1.00 20.78 LIG 0.02  C 
BRANCH 26 27
ATOM     27  CD  ARG B1545       1.418  45.906  -0.167  1.00 21.13 LIG 0.14  C 
BRANCH 27 28
ATOM     28  NE  ARG B1545       2.774  45.639   0.322  1.00 20.56 LIG-0.23  N 
ATOM     29 HE   ARG B1545       3.097  44.850   0.210  1.00 20.56 LIG 0.18  HD
ATOM     30  CZ  ARG B1545       3.534  46.546   0.928  1.00 23.27 LIG 0.67  C 
ATOM     31  NH2 ARG B1545       4.753  46.216   1.375  1.00 19.37 LIG-0.23  N 
ATOM     32  NH1 ARG B1545       3.064  47.774   1.109  1.00 20.25 LIG-0.23  N 
ATOM     33 1HH2 ARG B1545       5.047  45.416   1.271  1.00 19.37 LIG 0.17  HD
ATOM     34 2HH2 ARG B1545       5.241  46.806   1.767  1.00 19.37 LIG 0.17  HD
ATOM     35 1HH1 ARG B1545       2.275  47.977   0.835  1.00 20.25 LIG 0.17  HD
ATOM     36 2HH1 ARG B1545       3.549  48.366   1.500  1.00 20.25 LIG 0.17  HD
ENDBRANCH 27 28
ENDBRANCH 26 27
ENDBRANCH 25 26
ENDBRANCH 24 25
BRANCH 24 37
ATOM     37  C   ARG B1545       2.556  42.850  -0.943  1.00 20.11 LIG 0.22  C 
ATOM     38 O    ARG B1545       3.544  42.143  -1.252  1.00 20.61 LIG-0.29  OA
ENDBRANCH 24 37
ENDBRANCH 22 24
ENDBRANCH 19 20
BRANCH 19 39
ATOM     39  CB  LEU B1544      -1.765  39.817  -3.915  1.00 22.71 LIG 0.04  C 
BRANCH 39 40
ATOM     40  CG  LEU B1544      -0.763  38.967  -4.712  1.00 23.46 LIG-0.02  C 
ATOM     41  CD1 LEU B1544       0.534  38.858  -3.905  1.00 24.99 LIG 0.01  C 
ATOM     42  CD2 LEU B1544      -1.325  37.582  -5.007  1.00 22.67 LIG 0.01  C 
ENDBRANCH 39 40
ENDBRANCH 19 39
ENDBRANCH 16 19
ENDBRANCH 5 15
ENDBRANCH 3 5
BRANCH 1 43
ATOM     43  CA  TRP B1542      -3.713  39.835   4.211  1.00 29.62 LIG 0.18  C 
BRANCH 43 44
ATOM     44  N   TRP B1542      -4.753  39.104   4.932  1.00 31.24 LIG-0.35  N 
ATOM     45  C   ALA B1541      -5.420  39.681   5.918  1.00 34.20 LIG 0.24  C 
ATOM     46 O    ALA B1541      -5.228  40.851   6.241  1.00 33.88 LIG-0.27  OA
ATOM     47 H    TRP B1542      -4.882  38.297   4.664  1.00 31.24 LIG 0.16  HD
BRANCH 45 48
ATOM     48  CA  ALA B1541      -6.468  38.824   6.644  1.00 35.59 LIG 0.17  C 
ATOM     49  CB  ALA B1541      -6.665  37.487   5.893  1.00 37.24 LIG 0.04  C 
BRANCH 48 50
ATOM     50  N   ALA B1541      -7.776  39.459   6.856  1.00 36.68 LIG-0.35  N 
ATOM     51  C   ALA B1540      -8.332  39.549   8.061  1.00 36.41 LIG 0.24  C 
ATOM     52 O    ALA B1540      -7.770  39.154   9.087  1.00 35.55 LIG-0.27  OA
ATOM     53 H    ALA B1541      -8.140  39.762   6.139  1.00 36.68 LIG 0.16  HD
BRANCH 51 54
ATOM     54  CA  ALA B1540      -9.714  40.212   8.116  1.00 37.40 LIG 0.17  C 
ATOM     55  CB  ALA B1540     -10.813  39.175   7.836  1.00 38.11 LIG 0.04  C 
BRANCH 54 56
ATOM     56  N   ALA B1540      -9.834  41.319   7.169  1.00 38.31 LIG-0.35  N 
ATOM     57 H    ALA B1540     -10.480  41.230   6.606  1.00 38.31 LIG 0.16  HD
ATOM     58  C   ILE B1539      -9.016  42.361   7.185  1.00 39.48 LIG 0.26  C 
ATOM     59 O    ILE B1539      -8.097  42.468   7.985  1.00 40.50 LIG-0.27  OA
BRANCH 58 60
ATOM     60  CA  ILE B1539      -9.258  43.432   6.119  1.00 40.24 LIG 0.40  C 
ATOM     61  N   ILE B1539      -9.165  44.818   6.682  1.00 42.50 LIG 0.61  N 
BRANCH 60 62
ATOM     62  CB  ILE B1539      -8.224  43.202   4.977  1.00 40.48 LIG 0.03  C 
ATOM     63  CG2 ILE B1539      -6.809  43.438   5.502  1.00 38.85 LIG 0.01  C 
BRANCH 62 64
ATOM     64  CG1 ILE B1539      -8.345  41.780   4.416  1.00 39.99 LIG 0.00  C 
ATOM     65  CD1 ILE B1539      -7.144  41.359   3.559  1.00 39.67 LIG 0.01  C 
ENDBRANCH 62 64
ENDBRANCH 60 62
ENDBRANCH 58 60
ENDBRANCH 54 56
ENDBRANCH 51 54
ENDBRANCH 48 50
ENDBRANCH 45 48
ENDBRANCH 43 44
BRANCH 43 66
ATOM     66  CB  TRP B1542      -2.339  39.255   4.576  1.00 29.93 LIG 0.07  C 
BRANCH 66 67
ATOM     67  CG  TRP B1542      -1.490  40.187   5.443  1.00 31.09 LIG-0.03  A 
ATOM     68  CD1 TRP B1542      -0.578  39.811   6.397  1.00 35.00 LIG 0.10  A 
ATOM     69  NE1 TRP B1542       0.023  40.926   6.952  1.00 35.42 LIG-0.36  N 
ATOM     70 HE1  TRP B1542       0.625  40.916   7.567  1.00 35.42 LIG 0.17  HD
ATOM     71  CE2 TRP B1542      -0.497  42.051   6.363  1.00 34.23 LIG 0.04  A 
ATOM     72  CD2 TRP B1542      -1.457  41.628   5.408  1.00 31.85 LIG-0.00  A 
ATOM     73  CZ2 TRP B1542      -0.203  43.406   6.588  1.00 32.49 LIG 0.03  A 
ATOM     74  CE3 TRP B1542      -2.140  42.601   4.663  1.00 30.05 LIG 0.01  A 
ATOM     75  CZ3 TRP B1542      -1.848  43.950   4.886  1.00 29.28 LIG 0.00  A 
ATOM     76  CH2 TRP B1542      -0.882  44.337   5.846  1.00 32.34 LIG 0.00  A 
ENDBRANCH 66 67
ENDBRANCH 43 66
ENDBRANCH 1 43
TORSDOF 26
ENDMDL
MODEL 35
USER: ADFR SOLUTION from run 9
USER: SCORE 22.462316 LL:  -6.182 LR: -17.582 RR:   0.000 FEB:  -9.826
USER: RMSD 6.961041
USER: SEED 686374
USER: STATUS no improvement in best in 16 clusters for 5 generations
USER: GENES 28
USER: genes 0 Translation |==|  0.48433 0.30494 0.64737
USER: genes 1 Rotation |==|  0.99442 0.46243 0.44459 0.53260
USER: genes 2 Torsion [C]-N--CA-[CB] |==|  0.18588
USER: genes 3 Torsion [N]-CA--CB-[CG] |==|  0.22538
USER: genes 4 Torsion [CA]-CB--CG-[CD1] |==|  0.21821
USER: genes 5 Torsion [CE1]-CZ--OH-[HH] |==|  0.56110
USER: genes 6 Torsion [N]-CA--C-[N] |==|  0.49932
USER: genes 7 Torsion [C]-N--CA-[CB] |==|  0.16544
USER: genes 8 Torsion [N]-CA--C-[N] |==|  0.06897
USER: genes 9 Torsion [C]-N--CA-[CB] |==|  0.30754
USER: genes 10 Torsion [N]-CA--CB-[CG] |==|  0.84375
USER: genes 11 Torsion [CA]-CB--CG-[CD] |==|  0.83285
USER: genes 12 Torsion [CB]-CG--CD-[NE] |==|  0.55119
USER: genes 13 Torsion [CG]-CD--NE-[HE] |==|  0.15220
USER: genes 14 Torsion [N]-CA--C-[O] |==|  0.16114
USER: genes 15 Torsion [N]-CA--CB-[CG] |==|  0.57749
USER: genes 16 Torsion [CA]-CB--CG-[CD1] |==|  0.69923
USER: genes 17 Torsion [N]-C--CA-[N] |==|  0.07913
USER: genes 18 Torsion [C]-CA--N-[C] |==|  0.17193
USER: genes 19 Torsion [N]-C--CA-[N] |==|  0.87874
USER: genes 20 Torsion [C]-CA--N-[C] |==|  0.84059
USER: genes 21 Torsion [N]-C--CA-[N] |==|  0.92522
USER: genes 22 Torsion [C]-CA--N-[C] |==|  0.83503
USER: genes 23 Torsion [N]-C--CA-[N] |==|  0.36631
USER: genes 24 Torsion [C]-CA--CB-[CG1] |==|  0.82262
USER: genes 25 Torsion [CA]-CB--CG1-[CD1] |==|  0.37005
USER: genes 26 Torsion [C]-CA--CB-[CG] |==|  0.24887
USER: genes 27 Torsion [CA]-CB--CG-[CD1] |==|  0.23726
ROOT
ATOM      1  C   TRP B1542      -2.822  40.158   5.233  1.00 26.55 LIG 0.24  C 
ATOM      2 O    TRP B1542      -1.721  39.694   5.491  1.00 27.86 LIG-0.27  OA
ATOM      3  N   TYR B1543      -3.040  40.942   4.184  1.00 24.62 LIG-0.35  N 
ATOM      4 H    TYR B1543      -3.785  41.342   4.025  1.00 24.62 LIG 0.16  HD
ENDROOT
BRANCH 3 5
ATOM      5  CA  TYR B1543      -1.999  41.186   3.202  1.00 22.31 LIG 0.18  C 
BRANCH 5 6
ATOM      6  CB  TYR B1543      -1.709  39.879   2.460  1.00 23.67 LIG 0.07  C 
BRANCH 6 7
ATOM      7  CG  TYR B1543      -2.671  39.536   1.341  1.00 24.58 LIG-0.06  A 
ATOM      8  CD1 TYR B1543      -2.568  40.156   0.097  1.00 24.59 LIG 0.01  A 
ATOM      9  CE1 TYR B1543      -3.489  39.903  -0.909  1.00 26.50 LIG 0.04  A 
ATOM     10  CZ  TYR B1543      -4.526  39.023  -0.664  1.00 24.60 LIG 0.07  A 
ATOM     11  CE2 TYR B1543      -4.639  38.389   0.570  1.00 24.06 LIG 0.04  A 
ATOM     12  CD2 TYR B1543      -3.718  38.645   1.549  1.00 22.62 LIG 0.01  A 
BRANCH 10 13
ATOM     13 OH   TYR B1543      -5.464  38.804  -1.631  1.00 26.51 LIG-0.36  OA
ATOM     14 HH   TYR B1543      -6.168  38.511  -1.277  1.00 26.51 LIG 0.22  HD
ENDBRANCH 10 13
ENDBRANCH 6 7
ENDBRANCH 5 6
BRANCH 5 15
ATOM     15  C   TYR B1543      -2.175  42.310   2.193  1.00 22.90 LIG 0.24  C 
ATOM     16  N   LEU B1544      -1.194  42.494   1.321  1.00 22.60 LIG-0.35  N 
ATOM     17 H    LEU B1544      -0.488  42.007   1.268  1.00 22.60 LIG 0.16  HD
ATOM     18 O    TYR B1543      -3.182  43.008   2.211  1.00 21.43 LIG-0.27  OA
BRANCH 16 19
ATOM     19  CA  LEU B1544      -1.263  43.585   0.361  1.00 22.81 LIG 0.18  C 
BRANCH 19 20
ATOM     20  C   LEU B1544      -0.073  43.583  -0.593  1.00 21.53 LIG 0.24  C 
ATOM     21 O    LEU B1544       0.297  44.620  -1.155  1.00 22.00 LIG-0.27  OA
ATOM     22  N   ARG B1545       0.528  42.412  -0.780  1.00 20.14 LIG-0.35  N 
ATOM     23 H    ARG B1545       0.296  41.673  -0.407  1.00 20.14 LIG 0.16  HD
BRANCH 22 24
ATOM     24  CA  ARG B1545       1.670  42.327  -1.674  1.00 18.95 LIG 0.16  C 
BRANCH 24 25
ATOM     25  CB  ARG B1545       2.950  42.057  -0.872  1.00 20.51 LIG 0.04  C 
BRANCH 25 26
ATOM     26  CG  ARG B1545       3.142  43.138   0.192  1.00 20.78 LIG 0.02  C 
BRANCH 26 27
ATOM     27  CD  ARG B1545       3.268  44.542  -0.392  1.00 21.13 LIG 0.14  C 
BRANCH 27 28
ATOM     28  NE  ARG B1545       3.873  45.456   0.583  1.00 20.56 LIG-0.23  N 
ATOM     29 HE   ARG B1545       4.633  45.239   0.923  1.00 20.56 LIG 0.18  HD
ATOM     30  CZ  ARG B1545       3.316  46.598   0.970  1.00 23.27 LIG 0.67  C 
ATOM     31  NH2 ARG B1545       3.917  47.365   1.890  1.00 19.37 LIG-0.23  N 
ATOM     32  NH1 ARG B1545       2.148  46.961   0.457  1.00 20.25 LIG-0.23  N 
ATOM     33 1HH2 ARG B1545       4.666  47.119   2.232  1.00 19.37 LIG 0.17  HD
ATOM     34 2HH2 ARG B1545       3.553  48.103   2.138  1.00 19.37 LIG 0.17  HD
ATOM     35 1HH1 ARG B1545       1.757  46.457  -0.121  1.00 20.25 LIG 0.17  HD
ATOM     36 2HH1 ARG B1545       1.780  47.698   0.702  1.00 20.25 LIG 0.17  HD
ENDBRANCH 27 28
ENDBRANCH 26 27
ENDBRANCH 25 26
ENDBRANCH 24 25
BRANCH 24 37
ATOM     37  C   ARG B1545       1.467  41.300  -2.782  1.00 20.11 LIG 0.22  C 
ATOM     38 O    ARG B1545       0.473  41.463  -3.528  1.00 20.61 LIG-0.29  OA
ENDBRANCH 24 37
ENDBRANCH 22 24
ENDBRANCH 19 20
BRANCH 19 39
ATOM     39  CB  LEU B1544      -1.356  44.923   1.107  1.00 22.71 LIG 0.04  C 
BRANCH 39 40
ATOM     40  CG  LEU B1544      -2.082  46.037   0.338  1.00 23.46 LIG-0.02  C 
ATOM     41  CD1 LEU B1544      -1.047  47.071  -0.116  1.00 24.99 LIG 0.01  C 
ATOM     42  CD2 LEU B1544      -2.839  45.479  -0.861  1.00 22.67 LIG 0.01  C 
ENDBRANCH 39 40
ENDBRANCH 19 39
ENDBRANCH 16 19
ENDBRANCH 5 15
ENDBRANCH 3 5
BRANCH 1 43
ATOM     43  CA  TRP B1542      -4.010  39.876   6.146  1.00 29.62 LIG 0.18  C 
BRANCH 43 44
ATOM     44  N   TRP B1542      -5.292  39.928   5.447  1.00 31.24 LIG-0.35  N 
ATOM     45  C   ALA B1541      -5.556  39.088   4.460  1.00 34.20 LIG 0.24  C 
ATOM     46 O    ALA B1541      -4.763  38.214   4.116  1.00 33.88 LIG-0.27  OA
ATOM     47 H    TRP B1542      -5.835  40.533   5.730  1.00 31.24 LIG 0.16  HD
BRANCH 45 48
ATOM     48  CA  ALA B1541      -6.913  39.242   3.758  1.00 35.59 LIG 0.17  C 
ATOM     49  CB  ALA B1541      -6.843  40.391   2.725  1.00 37.24 LIG 0.04  C 
BRANCH 48 50
ATOM     50  N   ALA B1541      -8.068  39.454   4.642  1.00 36.68 LIG-0.35  N 
ATOM     51  C   ALA B1540      -8.391  38.593   5.603  1.00 36.41 LIG 0.24  C 
ATOM     52 O    ALA B1540      -7.719  37.587   5.852  1.00 35.55 LIG-0.27  OA
ATOM     53 H    ALA B1541      -8.506  40.176   4.482  1.00 36.68 LIG 0.16  HD
BRANCH 51 54
ATOM     54  CA  ALA B1540      -9.641  38.937   6.422  1.00 37.40 LIG 0.17  C 
ATOM     55  CB  ALA B1540     -10.868  38.209   5.852  1.00 38.11 LIG 0.04  C 
BRANCH 54 56
ATOM     56  N   ALA B1540      -9.899  40.375   6.459  1.00 38.31 LIG-0.35  N 
ATOM     57 H    ALA B1540     -10.664  40.602   6.138  1.00 38.31 LIG 0.16  HD
ATOM     58  C   ILE B1539      -9.023  41.243   6.947  1.00 39.48 LIG 0.26  C 
ATOM     59 O    ILE B1539      -7.935  40.905   7.391  1.00 40.50 LIG-0.27  OA
BRANCH 58 60
ATOM     60  CA  ILE B1539      -9.430  42.717   6.902  1.00 40.24 LIG 0.40  C 
ATOM     61  N   ILE B1539      -9.206  43.404   8.216  1.00 42.50 LIG 0.61  N 
BRANCH 60 62
ATOM     62  CB  ILE B1539      -8.625  43.393   5.753  1.00 40.48 LIG 0.03  C 
ATOM     63  CG2 ILE B1539      -9.091  44.836   5.571  1.00 38.85 LIG 0.01  C 
BRANCH 62 64
ATOM     64  CG1 ILE B1539      -7.122  43.361   6.053  1.00 39.99 LIG 0.00  C 
ATOM     65  CD1 ILE B1539      -6.272  42.898   4.863  1.00 39.67 LIG 0.01  C 
ENDBRANCH 62 64
ENDBRANCH 60 62
ENDBRANCH 58 60
ENDBRANCH 54 56
ENDBRANCH 51 54
ENDBRANCH 48 50
ENDBRANCH 45 48
ENDBRANCH 43 44
BRANCH 43 66
ATOM     66  CB  TRP B1542      -3.827  38.484   6.766  1.00 29.93 LIG 0.07  C 
BRANCH 66 67
ATOM     67  CG  TRP B1542      -3.053  38.496   8.086  1.00 31.09 LIG-0.03  A 
ATOM     68  CD1 TRP B1542      -3.573  38.712   9.338  1.00 35.00 LIG 0.10  A 
ATOM     69  NE1 TRP B1542      -2.580  38.615  10.294  1.00 35.42 LIG-0.36  N 
ATOM     70 HE1  TRP B1542      -2.690  38.714  11.142  1.00 35.42 LIG 0.17  HD
ATOM     71  CE2 TRP B1542      -1.389  38.334   9.672  1.00 34.23 LIG 0.04  A 
ATOM     72  CD2 TRP B1542      -1.644  38.254   8.279  1.00 31.85 LIG-0.00  A 
ATOM     73  CZ2 TRP B1542      -0.109  38.142  10.218  1.00 32.49 LIG 0.03  A 
ATOM     74  CE3 TRP B1542      -0.576  37.976   7.413  1.00 30.05 LIG 0.01  A 
ATOM     75  CZ3 TRP B1542       0.699  37.784   7.955  1.00 29.28 LIG 0.00  A 
ATOM     76  CH2 TRP B1542       0.917  37.868   9.351  1.00 32.34 LIG 0.00  A 
ENDBRANCH 66 67
ENDBRANCH 43 66
ENDBRANCH 1 43
TORSDOF 26
ENDMDL
MODEL 36
USER: ADFR SOLUTION from run 59
USER: SCORE 22.590050 LL:  -7.220 LR: -17.569 RR:   0.000 FEB:  -9.813
USER: RMSD 5.625564
USER: SEED 58
USER: STATUS no improvement in best in 1 clusters for 5 generations
USER: GENES 28
USER: genes 0 Translation |==|  0.48463 0.44077 0.40030
USER: genes 1 Rotation |==|  0.93751 0.57047 0.29526 0.60817
USER: genes 2 Torsion [C]-N--CA-[CB] |==|  0.73686
USER: genes 3 Torsion [N]-CA--CB-[CG] |==|  0.02034
USER: genes 4 Torsion [CA]-CB--CG-[CD1] |==|  0.79611
USER: genes 5 Torsion [CE1]-CZ--OH-[HH] |==|  0.74533
USER: genes 6 Torsion [N]-CA--C-[N] |==|  0.08996
USER: genes 7 Torsion [C]-N--CA-[CB] |==|  0.81744
USER: genes 8 Torsion [N]-CA--C-[N] |==|  0.11815
USER: genes 9 Torsion [C]-N--CA-[CB] |==|  0.28413
USER: genes 10 Torsion [N]-CA--CB-[CG] |==|  0.19219
USER: genes 11 Torsion [CA]-CB--CG-[CD] |==|  0.36488
USER: genes 12 Torsion [CB]-CG--CD-[NE] |==|  0.82971
USER: genes 13 Torsion [CG]-CD--NE-[HE] |==|  0.99658
USER: genes 14 Torsion [N]-CA--C-[O] |==|  0.59196
USER: genes 15 Torsion [N]-CA--CB-[CG] |==|  0.54638
USER: genes 16 Torsion [CA]-CB--CG-[CD1] |==|  0.23502
USER: genes 17 Torsion [N]-C--CA-[N] |==|  0.00135
USER: genes 18 Torsion [C]-CA--N-[C] |==|  0.70350
USER: genes 19 Torsion [N]-C--CA-[N] |==|  0.13549
USER: genes 20 Torsion [C]-CA--N-[C] |==|  0.13195
USER: genes 21 Torsion [N]-C--CA-[N] |==|  0.34274
USER: genes 22 Torsion [C]-CA--N-[C] |==|  0.91618
USER: genes 23 Torsion [N]-C--CA-[N] |==|  0.48869
USER: genes 24 Torsion [C]-CA--CB-[CG1] |==|  0.93517
USER: genes 25 Torsion [CA]-CB--CG1-[CD1] |==|  0.52569
USER: genes 26 Torsion [C]-CA--CB-[CG] |==|  0.38368
USER: genes 27 Torsion [CA]-CB--CG-[CD1] |==|  0.51373
ROOT
ATOM      1  C   TRP B1542      -2.815  42.807   0.601  1.00 26.55 LIG 0.24  C 
ATOM      2 O    TRP B1542      -1.697  42.805   0.105  1.00 27.86 LIG-0.27  OA
ATOM      3  N   TYR B1543      -3.907  43.090  -0.100  1.00 24.62 LIG-0.35  N 
ATOM      4 H    TYR B1543      -4.693  43.172   0.241  1.00 24.62 LIG 0.16  HD
ENDROOT
BRANCH 3 5
ATOM      5  CA  TYR B1543      -3.846  43.285  -1.537  1.00 22.31 LIG 0.18  C 
BRANCH 5 6
ATOM      6  CB  TYR B1543      -3.708  44.783  -1.822  1.00 23.67 LIG 0.07  C 
BRANCH 6 7
ATOM      7  CG  TYR B1543      -3.494  45.663  -0.606  1.00 24.58 LIG-0.06  A 
ATOM      8  CD1 TYR B1543      -4.540  45.926   0.277  1.00 24.59 LIG 0.01  A 
ATOM      9  CE1 TYR B1543      -4.373  46.787   1.350  1.00 26.50 LIG 0.04  A 
ATOM     10  CZ  TYR B1543      -3.147  47.396   1.539  1.00 24.60 LIG 0.07  A 
ATOM     11  CE2 TYR B1543      -2.089  47.138   0.671  1.00 24.06 LIG 0.04  A 
ATOM     12  CD2 TYR B1543      -2.269  46.280  -0.379  1.00 22.62 LIG 0.01  A 
BRANCH 10 13
ATOM     13 OH   TYR B1543      -2.988  48.283   2.564  1.00 26.51 LIG-0.36  OA
ATOM     14 HH   TYR B1543      -3.153  49.060   2.290  1.00 26.51 LIG 0.22  HD
ENDBRANCH 10 13
ENDBRANCH 6 7
ENDBRANCH 5 6
BRANCH 5 15
ATOM     15  C   TYR B1543      -2.815  42.520  -2.351  1.00 22.90 LIG 0.24  C 
ATOM     16  N   LEU B1544      -2.488  41.309  -1.922  1.00 22.60 LIG-0.35  N 
ATOM     17 H    LEU B1544      -2.840  40.919  -1.241  1.00 22.60 LIG 0.16  HD
ATOM     18 O    TYR B1543      -2.313  43.025  -3.348  1.00 21.43 LIG-0.27  OA
BRANCH 16 19
ATOM     19  CA  LEU B1544      -1.468  40.538  -2.615  1.00 22.81 LIG 0.18  C 
BRANCH 19 20
ATOM     20  C   LEU B1544      -0.136  41.279  -2.677  1.00 21.53 LIG 0.24  C 
ATOM     21 O    LEU B1544       0.542  41.287  -3.711  1.00 22.00 LIG-0.27  OA
ATOM     22  N   ARG B1545       0.241  41.903  -1.566  1.00 20.14 LIG-0.35  N 
ATOM     23 H    ARG B1545      -0.205  41.915  -0.831  1.00 20.14 LIG 0.16  HD
BRANCH 22 24
ATOM     24  CA  ARG B1545       1.499  42.632  -1.544  1.00 18.95 LIG 0.16  C 
BRANCH 24 25
ATOM     25  CB  ARG B1545       1.237  44.139  -1.670  1.00 20.51 LIG 0.04  C 
BRANCH 25 26
ATOM     26  CG  ARG B1545       0.565  44.664  -0.401  1.00 20.78 LIG 0.02  C 
BRANCH 26 27
ATOM     27  CD  ARG B1545       1.227  45.923   0.153  1.00 21.13 LIG 0.14  C 
BRANCH 27 28
ATOM     28  NE  ARG B1545       2.622  45.656   0.518  1.00 20.56 LIG-0.23  N 
ATOM     29 HE   ARG B1545       2.923  44.857   0.411  1.00 20.56 LIG 0.18  HD
ATOM     30  CZ  ARG B1545       3.448  46.575   1.005  1.00 23.27 LIG 0.67  C 
ATOM     31  NH2 ARG B1545       4.702  46.246   1.345  1.00 19.37 LIG-0.23  N 
ATOM     32  NH1 ARG B1545       3.014  47.817   1.175  1.00 20.25 LIG-0.23  N 
ATOM     33 1HH2 ARG B1545       4.975  45.437   1.248  1.00 19.37 LIG 0.17  HD
ATOM     34 2HH2 ARG B1545       5.233  46.844   1.659  1.00 19.37 LIG 0.17  HD
ATOM     35 1HH1 ARG B1545       2.204  48.021   0.971  1.00 20.25 LIG 0.17  HD
ATOM     36 2HH1 ARG B1545       3.542  48.418   1.490  1.00 20.25 LIG 0.17  HD
ENDBRANCH 27 28
ENDBRANCH 26 27
ENDBRANCH 25 26
ENDBRANCH 24 25
BRANCH 24 37
ATOM     37  C   ARG B1545       2.342  42.302  -0.319  1.00 20.11 LIG 0.22  C 
ATOM     38 O    ARG B1545       3.049  43.228   0.145  1.00 20.61 LIG-0.29  OA
ENDBRANCH 24 37
ENDBRANCH 22 24
ENDBRANCH 19 20
BRANCH 19 39
ATOM     39  CB  LEU B1544      -1.957  40.185  -4.025  1.00 22.71 LIG 0.04  C 
BRANCH 39 40
ATOM     40  CG  LEU B1544      -1.175  39.055  -4.713  1.00 23.46 LIG-0.02  C 
ATOM     41  CD1 LEU B1544      -1.759  37.713  -4.261  1.00 24.99 LIG 0.01  C 
ATOM     42  CD2 LEU B1544      -1.240  39.182  -6.229  1.00 22.67 LIG 0.01  C 
ENDBRANCH 39 40
ENDBRANCH 19 39
ENDBRANCH 16 19
ENDBRANCH 5 15
ENDBRANCH 3 5
BRANCH 1 43
ATOM     43  CA  TRP B1542      -3.001  42.510   2.084  1.00 29.62 LIG 0.18  C 
BRANCH 43 44
ATOM     44  N   TRP B1542      -4.398  42.576   2.509  1.00 31.24 LIG-0.35  N 
ATOM     45  C   ALA B1541      -4.832  43.591   3.238  1.00 34.20 LIG 0.24  C 
ATOM     46 O    ALA B1541      -4.104  44.529   3.553  1.00 33.88 LIG-0.27  OA
ATOM     47 H    TRP B1542      -4.887  41.918   2.250  1.00 31.24 LIG 0.16  HD
BRANCH 45 48
ATOM     48  CA  ALA B1541      -6.305  43.556   3.671  1.00 35.59 LIG 0.17  C 
ATOM     49  CB  ALA B1541      -6.592  44.717   4.652  1.00 37.24 LIG 0.04  C 
BRANCH 48 50
ATOM     50  N   ALA B1541      -6.765  42.294   4.267  1.00 36.68 LIG-0.35  N 
ATOM     51  C   ALA B1540      -6.078  41.667   5.217  1.00 36.41 LIG 0.24  C 
ATOM     52 O    ALA B1540      -5.036  42.124   5.699  1.00 35.55 LIG-0.27  OA
ATOM     53 H    ALA B1541      -7.510  42.005   3.948  1.00 36.68 LIG 0.16  HD
BRANCH 51 54
ATOM     54  CA  ALA B1540      -6.671  40.344   5.717  1.00 37.40 LIG 0.17  C 
ATOM     55  CB  ALA B1540      -7.102  40.475   7.186  1.00 38.11 LIG 0.04  C 
BRANCH 54 56
ATOM     56  N   ALA B1540      -5.734  39.231   5.579  1.00 38.31 LIG-0.35  N 
ATOM     57 H    ALA B1540      -5.831  38.616   6.173  1.00 38.31 LIG 0.16  HD
ATOM     58  C   ILE B1539      -4.820  39.184   4.621  1.00 39.48 LIG 0.26  C 
ATOM     59 O    ILE B1539      -4.688  40.072   3.789  1.00 40.50 LIG-0.27  OA
BRANCH 58 60
ATOM     60  CA  ILE B1539      -3.899  37.962   4.617  1.00 40.24 LIG 0.40  C 
ATOM     61  N   ILE B1539      -2.971  37.959   3.440  1.00 42.50 LIG 0.61  N 
BRANCH 60 62
ATOM     62  CB  ILE B1539      -3.121  37.955   5.967  1.00 40.48 LIG 0.03  C 
ATOM     63  CG2 ILE B1539      -1.708  37.419   5.748  1.00 38.85 LIG 0.01  C 
BRANCH 62 64
ATOM     64  CG1 ILE B1539      -3.061  39.365   6.564  1.00 39.99 LIG 0.00  C 
ATOM     65  CD1 ILE B1539      -2.122  39.475   7.773  1.00 39.67 LIG 0.01  C 
ENDBRANCH 62 64
ENDBRANCH 60 62
ENDBRANCH 58 60
ENDBRANCH 54 56
ENDBRANCH 51 54
ENDBRANCH 48 50
ENDBRANCH 45 48
ENDBRANCH 43 44
BRANCH 43 66
ATOM     66  CB  TRP B1542      -2.448  41.107   2.372  1.00 29.93 LIG 0.07  C 
BRANCH 66 67
ATOM     67  CG  TRP B1542      -1.646  41.018   3.672  1.00 31.09 LIG-0.03  A 
ATOM     68  CD1 TRP B1542      -0.958  39.925   4.136  1.00 35.00 LIG 0.10  A 
ATOM     69  NE1 TRP B1542      -0.324  40.226   5.326  1.00 35.42 LIG-0.36  N 
ATOM     70 HE1  TRP B1542       0.162  39.684   5.785  1.00 35.42 LIG 0.17  HD
ATOM     71  CE2 TRP B1542      -0.593  41.530   5.657  1.00 34.23 LIG 0.04  A 
ATOM     72  CD2 TRP B1542      -1.427  42.064   4.641  1.00 31.85 LIG-0.00  A 
ATOM     73  CZ2 TRP B1542      -0.174  42.286   6.764  1.00 32.49 LIG 0.03  A 
ATOM     74  CE3 TRP B1542      -1.850  43.397   4.748  1.00 30.05 LIG 0.01  A 
ATOM     75  CZ3 TRP B1542      -1.433  44.151   5.849  1.00 29.28 LIG 0.00  A 
ATOM     76  CH2 TRP B1542      -0.599  43.587   6.844  1.00 32.34 LIG 0.00  A 
ENDBRANCH 66 67
ENDBRANCH 43 66
ENDBRANCH 1 43
TORSDOF 26
ENDMDL
MODEL 37
USER: ADFR SOLUTION from run 57
USER: SCORE 22.447907 LL:  -6.053 LR: -17.563 RR:   0.000 FEB:  -9.807
USER: RMSD 7.921637
USER: SEED 56
USER: STATUS searching
USER: GENES 28
USER: genes 0 Translation |==|  0.55315 0.42533 0.34625
USER: genes 1 Rotation |==|  0.90595 0.26767 0.32382 0.51375
USER: genes 2 Torsion [C]-N--CA-[CB] |==|  0.83373
USER: genes 3 Torsion [N]-CA--CB-[CG] |==|  0.90179
USER: genes 4 Torsion [CA]-CB--CG-[CD1] |==|  0.40205
USER: genes 5 Torsion [CE1]-CZ--OH-[HH] |==|  0.24160
USER: genes 6 Torsion [N]-CA--C-[N] |==|  0.88972
USER: genes 7 Torsion [C]-N--CA-[CB] |==|  0.17683
USER: genes 8 Torsion [N]-CA--C-[N] |==|  0.06463
USER: genes 9 Torsion [C]-N--CA-[CB] |==|  0.43335
USER: genes 10 Torsion [N]-CA--CB-[CG] |==|  0.64716
USER: genes 11 Torsion [CA]-CB--CG-[CD] |==|  0.56915
USER: genes 12 Torsion [CB]-CG--CD-[NE] |==|  0.62372
USER: genes 13 Torsion [CG]-CD--NE-[HE] |==|  0.02449
USER: genes 14 Torsion [N]-CA--C-[O] |==|  0.96692
USER: genes 15 Torsion [N]-CA--CB-[CG] |==|  0.18246
USER: genes 16 Torsion [CA]-CB--CG-[CD1] |==|  0.37493
USER: genes 17 Torsion [N]-C--CA-[N] |==|  0.06635
USER: genes 18 Torsion [C]-CA--N-[C] |==|  0.74329
USER: genes 19 Torsion [N]-C--CA-[N] |==|  0.35442
USER: genes 20 Torsion [C]-CA--N-[C] |==|  0.77726
USER: genes 21 Torsion [N]-C--CA-[N] |==|  0.22928
USER: genes 22 Torsion [C]-CA--N-[C] |==|  0.63605
USER: genes 23 Torsion [N]-C--CA-[N] |==|  0.58943
USER: genes 24 Torsion [C]-CA--CB-[CG1] |==|  0.76671
USER: genes 25 Torsion [CA]-CB--CG1-[CD1] |==|  0.36044
USER: genes 26 Torsion [C]-CA--CB-[CG] |==|  0.34478
USER: genes 27 Torsion [CA]-CB--CG-[CD1] |==|  0.65236
ROOT
ATOM      1  C   TRP B1542      -1.222  42.506  -0.413  1.00 26.55 LIG 0.24  C 
ATOM      2 O    TRP B1542      -0.861  41.345  -0.540  1.00 27.86 LIG-0.27  OA
ATOM      3  N   TYR B1543      -1.188  43.379  -1.412  1.00 24.62 LIG-0.35  N 
ATOM      4 H    TYR B1543      -1.363  44.217  -1.330  1.00 24.62 LIG 0.16  HD
ENDROOT
BRANCH 3 5
ATOM      5  CA  TYR B1543      -0.839  42.963  -2.759  1.00 22.31 LIG 0.18  C 
BRANCH 5 6
ATOM      6  CB  TYR B1543       0.571  42.368  -2.738  1.00 23.67 LIG 0.07  C 
BRANCH 6 7
ATOM      7  CG  TYR B1543       1.542  43.021  -1.774  1.00 24.58 LIG-0.06  A 
ATOM      8  CD1 TYR B1543       2.504  42.262  -1.108  1.00 24.59 LIG 0.01  A 
ATOM      9  CE1 TYR B1543       3.347  42.838  -0.170  1.00 26.50 LIG 0.04  A 
ATOM     10  CZ  TYR B1543       3.223  44.185   0.108  1.00 24.60 LIG 0.07  A 
ATOM     11  CE2 TYR B1543       2.272  44.959  -0.554  1.00 24.06 LIG 0.04  A 
ATOM     12  CD2 TYR B1543       1.453  44.376  -1.482  1.00 22.62 LIG 0.01  A 
BRANCH 10 13
ATOM     13 OH   TYR B1543       4.015  44.751   1.065  1.00 26.51 LIG-0.36  OA
ATOM     14 HH   TYR B1543       4.742  44.993   0.720  1.00 26.51 LIG 0.22  HD
ENDBRANCH 10 13
ENDBRANCH 6 7
ENDBRANCH 5 6
BRANCH 5 15
ATOM     15  C   TYR B1543      -1.769  42.029  -3.516  1.00 22.90 LIG 0.24  C 
ATOM     16  N   LEU B1544      -2.331  41.048  -2.823  1.00 22.60 LIG-0.35  N 
ATOM     17 H    LEU B1544      -2.231  40.926  -1.978  1.00 22.60 LIG 0.16  HD
ATOM     18 O    TYR B1543      -1.967  42.188  -4.715  1.00 21.43 LIG-0.27  OA
BRANCH 16 19
ATOM     19  CA  LEU B1544      -3.188  40.080  -3.489  1.00 22.81 LIG 0.18  C 
BRANCH 19 20
ATOM     20  C   LEU B1544      -3.867  39.140  -2.498  1.00 21.53 LIG 0.24  C 
ATOM     21 O    LEU B1544      -4.274  38.027  -2.849  1.00 22.00 LIG-0.27  OA
ATOM     22  N   ARG B1545      -3.992  39.590  -1.254  1.00 20.14 LIG-0.35  N 
ATOM     23 H    ARG B1545      -3.722  40.359  -0.977  1.00 20.14 LIG 0.16  HD
BRANCH 22 24
ATOM     24  CA  ARG B1545      -4.628  38.755  -0.249  1.00 18.95 LIG 0.16  C 
BRANCH 24 25
ATOM     25  CB  ARG B1545      -4.154  39.162   1.153  1.00 20.51 LIG 0.04  C 
BRANCH 25 26
ATOM     26  CG  ARG B1545      -3.627  37.940   1.906  1.00 20.78 LIG 0.02  C 
BRANCH 26 27
ATOM     27  CD  ARG B1545      -3.702  38.089   3.423  1.00 21.13 LIG 0.14  C 
BRANCH 27 28
ATOM     28  NE  ARG B1545      -2.458  37.632   4.050  1.00 20.56 LIG-0.23  N 
ATOM     29 HE   ARG B1545      -1.791  37.447   3.540  1.00 20.56 LIG 0.18  HD
ATOM     30  CZ  ARG B1545      -2.300  37.488   5.362  1.00 23.27 LIG 0.67  C 
ATOM     31  NH2 ARG B1545      -1.141  37.035   5.858  1.00 19.37 LIG-0.23  N 
ATOM     32  NH1 ARG B1545      -3.310  37.772   6.175  1.00 20.25 LIG-0.23  N 
ATOM     33 1HH2 ARG B1545      -0.495  36.837   5.327  1.00 19.37 LIG 0.17  HD
ATOM     34 2HH2 ARG B1545      -1.043  36.943   6.707  1.00 19.37 LIG 0.17  HD
ATOM     35 1HH1 ARG B1545      -4.058  38.046   5.852  1.00 20.25 LIG 0.17  HD
ATOM     36 2HH1 ARG B1545      -3.217  37.681   7.025  1.00 20.25 LIG 0.17  HD
ENDBRANCH 27 28
ENDBRANCH 26 27
ENDBRANCH 25 26
ENDBRANCH 24 25
BRANCH 24 37
ATOM     37  C   ARG B1545      -6.147  38.764  -0.359  1.00 20.11 LIG 0.22  C 
ATOM     38 O    ARG B1545      -6.654  39.632  -1.108  1.00 20.61 LIG-0.29  OA
ENDBRANCH 24 37
ENDBRANCH 22 24
ENDBRANCH 19 20
BRANCH 19 39
ATOM     39  CB  LEU B1544      -2.369  39.285  -4.514  1.00 22.71 LIG 0.04  C 
BRANCH 39 40
ATOM     40  CG  LEU B1544      -1.276  38.390  -3.908  1.00 23.46 LIG-0.02  C 
ATOM     41  CD1 LEU B1544      -1.333  37.021  -4.592  1.00 24.99 LIG 0.01  C 
ATOM     42  CD2 LEU B1544       0.104  39.014  -4.076  1.00 22.67 LIG 0.01  C 
ENDBRANCH 39 40
ENDBRANCH 19 39
ENDBRANCH 16 19
ENDBRANCH 5 15
ENDBRANCH 3 5
BRANCH 1 43
ATOM     43  CA  TRP B1542      -1.707  43.018   0.938  1.00 29.62 LIG 0.18  C 
BRANCH 43 44
ATOM     44  N   TRP B1542      -2.564  44.197   0.828  1.00 31.24 LIG-0.35  N 
ATOM     45  C   ALA B1541      -2.048  45.413   0.899  1.00 34.20 LIG 0.24  C 
ATOM     46 O    ALA B1541      -0.840  45.605   1.019  1.00 33.88 LIG-0.27  OA
ATOM     47 H    TRP B1542      -3.400  44.029   0.717  1.00 31.24 LIG 0.16  HD
BRANCH 45 48
ATOM     48  CA  ALA B1541      -3.029  46.591   0.812  1.00 35.59 LIG 0.17  C 
ATOM     49  CB  ALA B1541      -2.876  47.303  -0.553  1.00 37.24 LIG 0.04  C 
BRANCH 48 50
ATOM     50  N   ALA B1541      -2.931  47.585   1.891  1.00 36.68 LIG-0.35  N 
ATOM     51  C   ALA B1540      -3.482  47.389   3.085  1.00 36.41 LIG 0.24  C 
ATOM     52 O    ALA B1540      -4.067  46.345   3.388  1.00 35.55 LIG-0.27  OA
ATOM     53 H    ALA B1541      -2.490  48.291   1.679  1.00 36.68 LIG 0.16  HD
BRANCH 51 54
ATOM     54  CA  ALA B1540      -3.319  48.531   4.096  1.00 37.40 LIG 0.17  C 
ATOM     55  CB  ALA B1540      -3.415  47.989   5.531  1.00 38.11 LIG 0.04  C 
BRANCH 54 56
ATOM     56  N   ALA B1540      -4.314  49.585   3.904  1.00 38.31 LIG-0.35  N 
ATOM     57 H    ALA B1540      -5.121  49.296   3.836  1.00 38.31 LIG 0.16  HD
ATOM     58  C   ILE B1539      -3.988  50.868   3.841  1.00 39.48 LIG 0.26  C 
ATOM     59 O    ILE B1539      -2.833  51.262   3.929  1.00 40.50 LIG-0.27  OA
BRANCH 58 60
ATOM     60  CA  ILE B1539      -5.139  51.852   3.620  1.00 40.24 LIG 0.40  C 
ATOM     61  N   ILE B1539      -4.710  53.051   2.828  1.00 42.50 LIG 0.61  N 
BRANCH 60 62
ATOM     62  CB  ILE B1539      -6.292  51.077   2.916  1.00 40.48 LIG 0.03  C 
ATOM     63  CG2 ILE B1539      -7.630  51.745   3.225  1.00 38.85 LIG 0.01  C 
BRANCH 62 64
ATOM     64  CG1 ILE B1539      -6.066  51.031   1.400  1.00 39.99 LIG 0.00  C 
ATOM     65  CD1 ILE B1539      -6.186  49.620   0.809  1.00 39.67 LIG 0.01  C 
ENDBRANCH 62 64
ENDBRANCH 60 62
ENDBRANCH 58 60
ENDBRANCH 54 56
ENDBRANCH 51 54
ENDBRANCH 48 50
ENDBRANCH 45 48
ENDBRANCH 43 44
BRANCH 43 66
ATOM     66  CB  TRP B1542      -2.482  41.892   1.636  1.00 29.93 LIG 0.07  C 
BRANCH 66 67
ATOM     67  CG  TRP B1542      -1.940  41.542   3.024  1.00 31.09 LIG-0.03  A 
ATOM     68  CD1 TRP B1542      -1.547  40.301   3.459  1.00 35.00 LIG 0.10  A 
ATOM     69  NE1 TRP B1542      -1.081  40.374   4.759  1.00 35.42 LIG-0.36  N 
ATOM     70 HE1  TRP B1542      -0.784  39.712   5.222  1.00 35.42 LIG 0.17  HD
ATOM     71  CE2 TRP B1542      -1.168  41.674   5.191  1.00 34.23 LIG 0.04  A 
ATOM     72  CD2 TRP B1542      -1.708  42.441   4.127  1.00 31.85 LIG-0.00  A 
ATOM     73  CZ2 TRP B1542      -0.816  42.240   6.427  1.00 32.49 LIG 0.03  A 
ATOM     74  CE3 TRP B1542      -1.901  43.817   4.319  1.00 30.05 LIG 0.01  A 
ATOM     75  CZ3 TRP B1542      -1.550  44.382   5.549  1.00 29.28 LIG 0.00  A 
ATOM     76  CH2 TRP B1542      -1.011  43.587   6.588  1.00 32.34 LIG 0.00  A 
ENDBRANCH 66 67
ENDBRANCH 43 66
ENDBRANCH 1 43
TORSDOF 26
ENDMDL
MODEL 38
USER: ADFR SOLUTION from run 160
USER: SCORE 22.456577 LL:  -6.596 LR: -17.541 RR:   0.000 FEB:  -9.786
USER: RMSD 4.660543
USER: SEED 159
USER: STATUS no improvement in best in 9 clusters for 5 generations
USER: GENES 28
USER: genes 0 Translation |==|  0.36421 0.51269 0.56443
USER: genes 1 Rotation |==|  0.71999 0.66632 0.70936 0.86071
USER: genes 2 Torsion [C]-N--CA-[CB] |==|  0.18316
USER: genes 3 Torsion [N]-CA--CB-[CG] |==|  0.23057
USER: genes 4 Torsion [CA]-CB--CG-[CD1] |==|  0.41772
USER: genes 5 Torsion [CE1]-CZ--OH-[HH] |==|  0.45409
USER: genes 6 Torsion [N]-CA--C-[N] |==|  0.00103
USER: genes 7 Torsion [C]-N--CA-[CB] |==|  0.51950
USER: genes 8 Torsion [N]-CA--C-[N] |==|  0.40929
USER: genes 9 Torsion [C]-N--CA-[CB] |==|  0.42589
USER: genes 10 Torsion [N]-CA--CB-[CG] |==|  0.70032
USER: genes 11 Torsion [CA]-CB--CG-[CD] |==|  0.23623
USER: genes 12 Torsion [CB]-CG--CD-[NE] |==|  0.57256
USER: genes 13 Torsion [CG]-CD--NE-[HE] |==|  0.21182
USER: genes 14 Torsion [N]-CA--C-[O] |==|  0.70744
USER: genes 15 Torsion [N]-CA--CB-[CG] |==|  0.82056
USER: genes 16 Torsion [CA]-CB--CG-[CD1] |==|  0.91551
USER: genes 17 Torsion [N]-C--CA-[N] |==|  0.95168
USER: genes 18 Torsion [C]-CA--N-[C] |==|  0.81178
USER: genes 19 Torsion [N]-C--CA-[N] |==|  0.12694
USER: genes 20 Torsion [C]-CA--N-[C] |==|  0.11667
USER: genes 21 Torsion [N]-C--CA-[N] |==|  0.31770
USER: genes 22 Torsion [C]-CA--N-[C] |==|  0.58315
USER: genes 23 Torsion [N]-C--CA-[N] |==|  0.23214
USER: genes 24 Torsion [C]-CA--CB-[CG1] |==|  0.75516
USER: genes 25 Torsion [CA]-CB--CG1-[CD1] |==|  0.33018
USER: genes 26 Torsion [C]-CA--CB-[CG] |==|  0.65540
USER: genes 27 Torsion [CA]-CB--CG-[CD1] |==|  0.67019
ROOT
ATOM      1  C   TRP B1542      -5.615  44.209   3.678  1.00 26.55 LIG 0.24  C 
ATOM      2 O    TRP B1542      -5.640  45.432   3.696  1.00 27.86 LIG-0.27  OA
ATOM      3  N   TYR B1543      -4.560  43.522   3.259  1.00 24.62 LIG-0.35  N 
ATOM      4 H    TYR B1543      -4.545  42.667   3.164  1.00 24.62 LIG 0.16  HD
ENDROOT
BRANCH 3 5
ATOM      5  CA  TYR B1543      -3.317  44.190   2.919  1.00 22.31 LIG 0.18  C 
BRANCH 5 6
ATOM      6  CB  TYR B1543      -2.728  44.806   4.191  1.00 23.67 LIG 0.07  C 
BRANCH 6 7
ATOM      7  CG  TYR B1543      -1.923  43.862   5.062  1.00 24.58 LIG-0.06  A 
ATOM      8  CD1 TYR B1543      -0.874  44.337   5.848  1.00 24.59 LIG 0.01  A 
ATOM      9  CE1 TYR B1543      -0.086  43.470   6.590  1.00 26.50 LIG 0.04  A 
ATOM     10  CZ  TYR B1543      -0.348  42.115   6.542  1.00 24.60 LIG 0.07  A 
ATOM     11  CE2 TYR B1543      -1.397  41.625   5.769  1.00 24.06 LIG 0.04  A 
ATOM     12  CD2 TYR B1543      -2.169  42.494   5.047  1.00 22.62 LIG 0.01  A 
BRANCH 10 13
ATOM     13 OH   TYR B1543       0.453  41.250   7.231  1.00 26.51 LIG-0.36  OA
ATOM     14 HH   TYR B1543       0.065  40.508   7.305  1.00 26.51 LIG 0.22  HD
ENDBRANCH 10 13
ENDBRANCH 6 7
ENDBRANCH 5 6
BRANCH 5 15
ATOM     15  C   TYR B1543      -2.232  43.418   2.185  1.00 22.90 LIG 0.24  C 
ATOM     16  N   LEU B1544      -2.492  42.154   1.883  1.00 22.60 LIG-0.35  N 
ATOM     17 H    LEU B1544      -3.236  41.756   2.044  1.00 22.60 LIG 0.16  HD
ATOM     18 O    TYR B1543      -1.168  43.959   1.905  1.00 21.43 LIG-0.27  OA
BRANCH 16 19
ATOM     19  CA  LEU B1544      -1.482  41.335   1.232  1.00 22.81 LIG 0.18  C 
BRANCH 19 20
ATOM     20  C   LEU B1544      -0.882  42.029   0.013  1.00 21.53 LIG 0.24  C 
ATOM     21 O    LEU B1544      -1.560  42.789  -0.687  1.00 22.00 LIG-0.27  OA
ATOM     22  N   ARG B1545       0.395  41.764  -0.244  1.00 20.14 LIG-0.35  N 
ATOM     23 H    ARG B1545       0.893  41.240   0.220  1.00 20.14 LIG 0.16  HD
BRANCH 22 24
ATOM     24  CA  ARG B1545       1.040  42.386  -1.388  1.00 18.95 LIG 0.16  C 
BRANCH 24 25
ATOM     25  CB  ARG B1545       2.551  42.503  -1.143  1.00 20.51 LIG 0.04  C 
BRANCH 25 26
ATOM     26  CG  ARG B1545       2.932  43.962  -0.890  1.00 20.78 LIG 0.02  C 
BRANCH 26 27
ATOM     27  CD  ARG B1545       2.757  44.387   0.565  1.00 21.13 LIG 0.14  C 
BRANCH 27 28
ATOM     28  NE  ARG B1545       2.525  45.832   0.658  1.00 20.56 LIG-0.23  N 
ATOM     29 HE   ARG B1545       1.746  46.131   0.450  1.00 20.56 LIG 0.18  HD
ATOM     30  CZ  ARG B1545       3.448  46.706   1.044  1.00 23.27 LIG 0.67  C 
ATOM     31  NH2 ARG B1545       3.168  48.016   1.074  1.00 19.37 LIG-0.23  N 
ATOM     32  NH1 ARG B1545       4.657  46.273   1.377  1.00 20.25 LIG-0.23  N 
ATOM     33 1HH2 ARG B1545       2.389  48.294   0.842  1.00 19.37 LIG 0.17  HD
ATOM     34 2HH2 ARG B1545       3.768  48.578   1.324  1.00 19.37 LIG 0.17  HD
ATOM     35 1HH1 ARG B1545       4.838  45.433   1.341  1.00 20.25 LIG 0.17  HD
ATOM     36 2HH1 ARG B1545       5.260  46.832   1.628  1.00 20.25 LIG 0.17  HD
ENDBRANCH 27 28
ENDBRANCH 26 27
ENDBRANCH 25 26
ENDBRANCH 24 25
BRANCH 24 37
ATOM     37  C   ARG B1545       0.732  41.666  -2.695  1.00 20.11 LIG 0.22  C 
ATOM     38 O    ARG B1545       1.648  40.962  -3.182  1.00 20.61 LIG-0.29  OA
ENDBRANCH 24 37
ENDBRANCH 22 24
ENDBRANCH 19 20
BRANCH 19 39
ATOM     39  CB  LEU B1544      -2.090  39.982   0.839  1.00 22.71 LIG 0.04  C 
BRANCH 39 40
ATOM     40  CG  LEU B1544      -2.536  39.110   2.023  1.00 23.46 LIG-0.02  C 
ATOM     41  CD1 LEU B1544      -1.630  39.414   3.220  1.00 24.99 LIG 0.01  C 
ATOM     42  CD2 LEU B1544      -3.995  39.366   2.379  1.00 22.67 LIG 0.01  C 
ENDBRANCH 39 40
ENDBRANCH 19 39
ENDBRANCH 16 19
ENDBRANCH 5 15
ENDBRANCH 3 5
BRANCH 1 43
ATOM     43  CA  TRP B1542      -6.836  43.408   4.115  1.00 29.62 LIG 0.18  C 
BRANCH 43 44
ATOM     44  N   TRP B1542      -6.814  42.027   3.635  1.00 31.24 LIG-0.35  N 
ATOM     45  C   ALA B1541      -6.934  41.762   2.345  1.00 34.20 LIG 0.24  C 
ATOM     46 O    ALA B1541      -7.028  42.650   1.500  1.00 33.88 LIG-0.27  OA
ATOM     47 H    TRP B1542      -6.720  41.431   4.248  1.00 31.24 LIG 0.16  HD
BRANCH 45 48
ATOM     48  CA  ALA B1541      -6.940  40.281   1.937  1.00 35.59 LIG 0.17  C 
ATOM     49  CB  ALA B1541      -7.336  40.148   0.448  1.00 37.24 LIG 0.04  C 
BRANCH 48 50
ATOM     50  N   ALA B1541      -7.792  39.399   2.746  1.00 36.68 LIG-0.35  N 
ATOM     51  C   ALA B1540      -9.011  39.758   3.139  1.00 36.41 LIG 0.24  C 
ATOM     52 O    ALA B1540      -9.530  40.830   2.811  1.00 35.55 LIG-0.27  OA
ATOM     53 H    ALA B1541      -7.433  38.642   2.938  1.00 36.68 LIG 0.16  HD
BRANCH 51 54
ATOM     54  CA  ALA B1540      -9.765  38.742   4.005  1.00 37.40 LIG 0.17  C 
ATOM     55  CB  ALA B1540     -11.111  38.383   3.355  1.00 38.11 LIG 0.04  C 
BRANCH 54 56
ATOM     56  N   ALA B1540      -9.995  39.235   5.362  1.00 38.31 LIG-0.35  N 
ATOM     57 H    ALA B1540     -10.073  40.090   5.415  1.00 38.31 LIG 0.16  HD
ATOM     58  C   ILE B1539     -10.074  38.426   6.409  1.00 39.48 LIG 0.26  C 
ATOM     59 O    ILE B1539      -9.951  37.212   6.318  1.00 40.50 LIG-0.27  OA
BRANCH 58 60
ATOM     60  CA  ILE B1539     -10.301  39.093   7.768  1.00 40.24 LIG 0.40  C 
ATOM     61  N   ILE B1539     -11.750  39.379   8.020  1.00 42.50 LIG 0.61  N 
BRANCH 60 62
ATOM     62  CB  ILE B1539      -9.699  38.157   8.858  1.00 40.48 LIG 0.03  C 
ATOM     63  CG2 ILE B1539      -9.217  38.987  10.046  1.00 38.85 LIG 0.01  C 
BRANCH 62 64
ATOM     64  CG1 ILE B1539     -10.738  37.130   9.323  1.00 39.99 LIG 0.00  C 
ATOM     65  CD1 ILE B1539     -10.319  35.677   9.061  1.00 39.67 LIG 0.01  C 
ENDBRANCH 62 64
ENDBRANCH 60 62
ENDBRANCH 58 60
ENDBRANCH 54 56
ENDBRANCH 51 54
ENDBRANCH 48 50
ENDBRANCH 45 48
ENDBRANCH 43 44
BRANCH 43 66
ATOM     66  CB  TRP B1542      -6.896  43.410   5.649  1.00 29.93 LIG 0.07  C 
BRANCH 66 67
ATOM     67  CG  TRP B1542      -6.929  42.010   6.264  1.00 31.09 LIG-0.03  A 
ATOM     68  CD1 TRP B1542      -7.930  41.480   7.040  1.00 35.00 LIG 0.10  A 
ATOM     69  NE1 TRP B1542      -7.629  40.177   7.388  1.00 35.42 LIG-0.36  N 
ATOM     70 HE1  TRP B1542      -8.121  39.661   7.869  1.00 35.42 LIG 0.17  HD
ATOM     71  CE2 TRP B1542      -6.417  39.838   6.840  1.00 34.23 LIG 0.04  A 
ATOM     72  CD2 TRP B1542      -5.941  40.968   6.126  1.00 31.85 LIG-0.00  A 
ATOM     73  CZ2 TRP B1542      -5.699  38.633   6.911  1.00 32.49 LIG 0.03  A 
ATOM     74  CE3 TRP B1542      -4.705  40.879   5.469  1.00 30.05 LIG 0.01  A 
ATOM     75  CZ3 TRP B1542      -3.989  39.679   5.539  1.00 29.28 LIG 0.00  A 
ATOM     76  CH2 TRP B1542      -4.495  38.570   6.258  1.00 32.34 LIG 0.00  A 
ENDBRANCH 66 67
ENDBRANCH 43 66
ENDBRANCH 1 43
TORSDOF 26
ENDMDL
MODEL 39
USER: ADFR SOLUTION from run 88
USER: SCORE 21.391872 LL:  -6.349 LR: -17.526 RR:   0.000 FEB:  -9.770
USER: RMSD 5.472768
USER: SEED 87
USER: STATUS no improvement in best in 6 clusters for 5 generations
USER: GENES 28
USER: genes 0 Translation |==|  0.40193 0.45484 0.56203
USER: genes 1 Rotation |==|  0.28000 0.70437 0.65211 0.86972
USER: genes 2 Torsion [C]-N--CA-[CB] |==|  0.52779
USER: genes 3 Torsion [N]-CA--CB-[CG] |==|  0.16377
USER: genes 4 Torsion [CA]-CB--CG-[CD1] |==|  0.56918
USER: genes 5 Torsion [CE1]-CZ--OH-[HH] |==|  0.12038
USER: genes 6 Torsion [N]-CA--C-[N] |==|  0.95000
USER: genes 7 Torsion [C]-N--CA-[CB] |==|  0.56954
USER: genes 8 Torsion [N]-CA--C-[N] |==|  0.34625
USER: genes 9 Torsion [C]-N--CA-[CB] |==|  0.30648
USER: genes 10 Torsion [N]-CA--CB-[CG] |==|  0.68912
USER: genes 11 Torsion [CA]-CB--CG-[CD] |==|  0.46526
USER: genes 12 Torsion [CB]-CG--CD-[NE] |==|  0.03167
USER: genes 13 Torsion [CG]-CD--NE-[HE] |==|  0.02996
USER: genes 14 Torsion [N]-CA--C-[O] |==|  0.34029
USER: genes 15 Torsion [N]-CA--CB-[CG] |==|  0.87466
USER: genes 16 Torsion [CA]-CB--CG-[CD1] |==|  0.49309
USER: genes 17 Torsion [N]-C--CA-[N] |==|  0.26751
USER: genes 18 Torsion [C]-CA--N-[C] |==|  0.55634
USER: genes 19 Torsion [N]-C--CA-[N] |==|  0.94112
USER: genes 20 Torsion [C]-CA--N-[C] |==|  0.76399
USER: genes 21 Torsion [N]-C--CA-[N] |==|  0.85112
USER: genes 22 Torsion [C]-CA--N-[C] |==|  0.87750
USER: genes 23 Torsion [N]-C--CA-[N] |==|  0.93351
USER: genes 24 Torsion [C]-CA--CB-[CG1] |==|  0.35724
USER: genes 25 Torsion [CA]-CB--CG1-[CD1] |==|  0.38679
USER: genes 26 Torsion [C]-CA--CB-[CG] |==|  0.32795
USER: genes 27 Torsion [CA]-CB--CG-[CD1] |==|  0.36424
ROOT
ATOM      1  C   TRP B1542      -4.738  43.081   3.633  1.00 26.55 LIG 0.24  C 
ATOM      2 O    TRP B1542      -4.647  42.923   2.424  1.00 27.86 LIG-0.27  OA
ATOM      3  N   TYR B1543      -3.744  43.567   4.367  1.00 24.62 LIG-0.35  N 
ATOM      4 H    TYR B1543      -3.755  43.617   5.225  1.00 24.62 LIG 0.16  HD
ENDROOT
BRANCH 3 5
ATOM      5  CA  TYR B1543      -2.529  44.064   3.747  1.00 22.31 LIG 0.18  C 
BRANCH 5 6
ATOM      6  CB  TYR B1543      -1.489  44.317   4.842  1.00 23.67 LIG 0.07  C 
BRANCH 6 7
ATOM      7  CG  TYR B1543      -1.116  43.110   5.680  1.00 24.58 LIG-0.06  A 
ATOM      8  CD1 TYR B1543      -0.620  43.267   6.974  1.00 24.59 LIG 0.01  A 
ATOM      9  CE1 TYR B1543      -0.208  42.173   7.720  1.00 26.50 LIG 0.04  A 
ATOM     10  CZ  TYR B1543      -0.288  40.911   7.164  1.00 24.60 LIG 0.07  A 
ATOM     11  CE2 TYR B1543      -0.789  40.736   5.876  1.00 24.06 LIG 0.04  A 
ATOM     12  CD2 TYR B1543      -1.198  41.826   5.156  1.00 22.62 LIG 0.01  A 
BRANCH 10 13
ATOM     13 OH   TYR B1543       0.160  39.834   7.872  1.00 26.51 LIG-0.36  OA
ATOM     14 HH   TYR B1543      -0.096  39.897   8.670  1.00 26.51 LIG 0.22  HD
ENDBRANCH 10 13
ENDBRANCH 6 7
ENDBRANCH 5 6
BRANCH 5 15
ATOM     15  C   TYR B1543      -1.889  43.273   2.618  1.00 22.90 LIG 0.24  C 
ATOM     16  N   LEU B1544      -2.249  42.003   2.494  1.00 22.60 LIG-0.35  N 
ATOM     17 H    LEU B1544      -2.837  41.611   2.983  1.00 22.60 LIG 0.16  HD
ATOM     18 O    TYR B1543      -1.071  43.803   1.875  1.00 21.43 LIG-0.27  OA
BRANCH 16 19
ATOM     19  CA  LEU B1544      -1.639  41.166   1.474  1.00 22.81 LIG 0.18  C 
BRANCH 19 20
ATOM     20  C   LEU B1544      -1.258  41.964   0.231  1.00 21.53 LIG 0.24  C 
ATOM     21 O    LEU B1544      -2.098  42.640  -0.374  1.00 22.00 LIG-0.27  OA
ATOM     22  N   ARG B1545       0.011  41.885  -0.153  1.00 20.14 LIG-0.35  N 
ATOM     23 H    ARG B1545       0.619  41.423   0.244  1.00 20.14 LIG 0.16  HD
BRANCH 22 24
ATOM     24  CA  ARG B1545       0.453  42.616  -1.328  1.00 18.95 LIG 0.16  C 
BRANCH 24 25
ATOM     25  CB  ARG B1545       1.379  43.769  -0.915  1.00 20.51 LIG 0.04  C 
BRANCH 25 26
ATOM     26  CG  ARG B1545       0.698  45.112  -1.181  1.00 20.78 LIG 0.02  C 
BRANCH 26 27
ATOM     27  CD  ARG B1545       1.414  46.290  -0.526  1.00 21.13 LIG 0.14  C 
BRANCH 27 28
ATOM     28  NE  ARG B1545       2.731  45.881  -0.025  1.00 20.56 LIG-0.23  N 
ATOM     29 HE   ARG B1545       3.031  45.109  -0.258  1.00 20.56 LIG 0.18  HD
ATOM     30  CZ  ARG B1545       3.487  46.634   0.766  1.00 23.27 LIG 0.67  C 
ATOM     31  NH2 ARG B1545       4.667  46.177   1.208  1.00 19.37 LIG-0.23  N 
ATOM     32  NH1 ARG B1545       3.053  47.832   1.136  1.00 20.25 LIG-0.23  N 
ATOM     33 1HH2 ARG B1545       4.938  45.394   0.979  1.00 19.37 LIG 0.17  HD
ATOM     34 2HH2 ARG B1545       5.153  46.668   1.720  1.00 19.37 LIG 0.17  HD
ATOM     35 1HH1 ARG B1545       2.288  48.115   0.863  1.00 20.25 LIG 0.17  HD
ATOM     36 2HH1 ARG B1545       3.536  48.326   1.648  1.00 20.25 LIG 0.17  HD
ENDBRANCH 27 28
ENDBRANCH 26 27
ENDBRANCH 25 26
ENDBRANCH 24 25
BRANCH 24 37
ATOM     37  C   ARG B1545       1.102  41.712  -2.368  1.00 20.11 LIG 0.22  C 
ATOM     38 O    ARG B1545       0.592  41.713  -3.514  1.00 20.61 LIG-0.29  OA
ENDBRANCH 24 37
ENDBRANCH 22 24
ENDBRANCH 19 20
BRANCH 19 39
ATOM     39  CB  LEU B1544      -2.591  40.019   1.110  1.00 22.71 LIG 0.04  C 
BRANCH 39 40
ATOM     40  CG  LEU B1544      -3.240  39.317   2.312  1.00 23.46 LIG-0.02  C 
ATOM     41  CD1 LEU B1544      -4.203  38.246   1.790  1.00 24.99 LIG 0.01  C 
ATOM     42  CD2 LEU B1544      -2.188  38.691   3.220  1.00 22.67 LIG 0.01  C 
ENDBRANCH 39 40
ENDBRANCH 19 39
ENDBRANCH 16 19
ENDBRANCH 5 15
ENDBRANCH 3 5
BRANCH 1 43
ATOM     43  CA  TRP B1542      -6.014  42.688   4.368  1.00 29.62 LIG 0.18  C 
BRANCH 43 44
ATOM     44  N   TRP B1542      -7.032  43.736   4.346  1.00 31.24 LIG-0.35  N 
ATOM     45  C   ALA B1541      -8.010  43.743   5.237  1.00 34.20 LIG 0.24  C 
ATOM     46 O    ALA B1541      -8.084  42.906   6.134  1.00 33.88 LIG-0.27  OA
ATOM     47 H    TRP B1542      -6.937  44.322   3.724  1.00 31.24 LIG 0.16  HD
BRANCH 45 48
ATOM     48  CA  ALA B1541      -9.056  44.861   5.113  1.00 35.59 LIG 0.17  C 
ATOM     49  CB  ALA B1541     -10.353  44.299   4.484  1.00 37.24 LIG 0.04  C 
BRANCH 48 50
ATOM     50  N   ALA B1541      -8.631  46.052   4.365  1.00 36.68 LIG-0.35  N 
ATOM     51  C   ALA B1540      -7.959  47.046   4.939  1.00 36.41 LIG 0.24  C 
ATOM     52 O    ALA B1540      -7.601  47.015   6.121  1.00 35.55 LIG-0.27  OA
ATOM     53 H    ALA B1541      -8.855  46.045   3.535  1.00 36.68 LIG 0.16  HD
BRANCH 51 54
ATOM     54  CA  ALA B1540      -7.613  48.235   4.035  1.00 37.40 LIG 0.17  C 
ATOM     55  CB  ALA B1540      -8.888  49.004   3.655  1.00 38.11 LIG 0.04  C 
BRANCH 54 56
ATOM     56  N   ALA B1540      -6.912  47.821   2.820  1.00 38.31 LIG-0.35  N 
ATOM     57 H    ALA B1540      -7.197  48.203   2.105  1.00 38.31 LIG 0.16  HD
ATOM     58  C   ILE B1539      -5.928  46.933   2.835  1.00 39.48 LIG 0.26  C 
ATOM     59 O    ILE B1539      -5.542  46.390   3.861  1.00 40.50 LIG-0.27  OA
BRANCH 58 60
ATOM     60  CA  ILE B1539      -5.303  46.589   1.481  1.00 40.24 LIG 0.40  C 
ATOM     61  N   ILE B1539      -6.243  46.853   0.344  1.00 42.50 LIG 0.61  N 
BRANCH 60 62
ATOM     62  CB  ILE B1539      -3.988  47.412   1.346  1.00 40.48 LIG 0.03  C 
ATOM     63  CG2 ILE B1539      -3.689  48.132   2.660  1.00 38.85 LIG 0.01  C 
BRANCH 62 64
ATOM     64  CG1 ILE B1539      -2.815  46.499   0.970  1.00 39.99 LIG 0.00  C 
ATOM     65  CD1 ILE B1539      -1.872  47.117  -0.071  1.00 39.67 LIG 0.01  C 
ENDBRANCH 62 64
ENDBRANCH 60 62
ENDBRANCH 58 60
ENDBRANCH 54 56
ENDBRANCH 51 54
ENDBRANCH 48 50
ENDBRANCH 45 48
ENDBRANCH 43 44
BRANCH 43 66
ATOM     66  CB  TRP B1542      -6.579  41.418   3.716  1.00 29.93 LIG 0.07  C 
BRANCH 66 67
ATOM     67  CG  TRP B1542      -6.643  40.218   4.663  1.00 31.09 LIG-0.03  A 
ATOM     68  CD1 TRP B1542      -7.721  39.393   4.867  1.00 35.00 LIG 0.10  A 
ATOM     69  NE1 TRP B1542      -7.398  38.395   5.768  1.00 35.42 LIG-0.36  N 
ATOM     70 HE1  TRP B1542      -7.928  37.772   6.035  1.00 35.42 LIG 0.17  HD
ATOM     71  CE2 TRP B1542      -6.096  38.560   6.167  1.00 34.23 LIG 0.04  A 
ATOM     72  CD2 TRP B1542      -5.584  39.700   5.495  1.00 31.85 LIG-0.00  A 
ATOM     73  CZ2 TRP B1542      -5.323  37.802   7.061  1.00 32.49 LIG 0.03  A 
ATOM     74  CE3 TRP B1542      -4.258  40.086   5.736  1.00 30.05 LIG 0.01  A 
ATOM     75  CZ3 TRP B1542      -3.487  39.332   6.626  1.00 29.28 LIG 0.00  A 
ATOM     76  CH2 TRP B1542      -4.028  38.198   7.278  1.00 32.34 LIG 0.00  A 
ENDBRANCH 66 67
ENDBRANCH 43 66
ENDBRANCH 1 43
TORSDOF 26
ENDMDL
MODEL 40
USER: ADFR SOLUTION from run 171
USER: SCORE 23.422474 LL:  -7.258 LR: -17.508 RR:   0.000 FEB:  -9.752
USER: RMSD 5.986425
USER: SEED 170
USER: STATUS no improvement in best in 8 clusters for 5 generations
USER: GENES 28
USER: genes 0 Translation |==|  0.42917 0.40647 0.63999
USER: genes 1 Rotation |==|  0.00560 0.44058 0.52798 0.53545
USER: genes 2 Torsion [C]-N--CA-[CB] |==|  0.79299
USER: genes 3 Torsion [N]-CA--CB-[CG] |==|  0.65932
USER: genes 4 Torsion [CA]-CB--CG-[CD1] |==|  0.94785
USER: genes 5 Torsion [CE1]-CZ--OH-[HH] |==|  0.16602
USER: genes 6 Torsion [N]-CA--C-[N] |==|  0.02754
USER: genes 7 Torsion [C]-N--CA-[CB] |==|  0.49479
USER: genes 8 Torsion [N]-CA--C-[N] |==|  0.44652
USER: genes 9 Torsion [C]-N--CA-[CB] |==|  0.35003
USER: genes 10 Torsion [N]-CA--CB-[CG] |==|  0.90136
USER: genes 11 Torsion [CA]-CB--CG-[CD] |==|  0.49235
USER: genes 12 Torsion [CB]-CG--CD-[NE] |==|  0.36790
USER: genes 13 Torsion [CG]-CD--NE-[HE] |==|  0.91873
USER: genes 14 Torsion [N]-CA--C-[O] |==|  0.64085
USER: genes 15 Torsion [N]-CA--CB-[CG] |==|  0.87595
USER: genes 16 Torsion [CA]-CB--CG-[CD1] |==|  0.40254
USER: genes 17 Torsion [N]-C--CA-[N] |==|  0.02828
USER: genes 18 Torsion [C]-CA--N-[C] |==|  0.67287
USER: genes 19 Torsion [N]-C--CA-[N] |==|  0.92533
USER: genes 20 Torsion [C]-CA--N-[C] |==|  0.82021
USER: genes 21 Torsion [N]-C--CA-[N] |==|  0.85000
USER: genes 22 Torsion [C]-CA--N-[C] |==|  0.80250
USER: genes 23 Torsion [N]-C--CA-[N] |==|  0.47805
USER: genes 24 Torsion [C]-CA--CB-[CG1] |==|  0.85332
USER: genes 25 Torsion [CA]-CB--CG1-[CD1] |==|  0.43126
USER: genes 26 Torsion [C]-CA--CB-[CG] |==|  0.27936
USER: genes 27 Torsion [CA]-CB--CG-[CD1] |==|  0.26723
ROOT
ATOM      1  C   TRP B1542      -4.105  42.138   5.095  1.00 26.55 LIG 0.24  C 
ATOM      2 O    TRP B1542      -2.923  42.013   5.382  1.00 27.86 LIG-0.27  OA
ATOM      3  N   TYR B1543      -4.546  43.091   4.283  1.00 24.62 LIG-0.35  N 
ATOM      4 H    TYR B1543      -5.377  43.247   4.126  1.00 24.62 LIG 0.16  HD
ENDROOT
BRANCH 3 5
ATOM      5  CA  TYR B1543      -3.623  43.964   3.580  1.00 22.31 LIG 0.18  C 
BRANCH 5 6
ATOM      6  CB  TYR B1543      -3.046  44.972   4.578  1.00 23.67 LIG 0.07  C 
BRANCH 6 7
ATOM      7  CG  TYR B1543      -3.263  46.432   4.230  1.00 24.58 LIG-0.06  A 
ATOM      8  CD1 TYR B1543      -3.583  46.814   2.928  1.00 24.59 LIG 0.01  A 
ATOM      9  CE1 TYR B1543      -3.710  48.152   2.585  1.00 26.50 LIG 0.04  A 
ATOM     10  CZ  TYR B1543      -3.510  49.116   3.554  1.00 24.60 LIG 0.07  A 
ATOM     11  CE2 TYR B1543      -3.197  48.751   4.861  1.00 24.06 LIG 0.04  A 
ATOM     12  CD2 TYR B1543      -3.082  47.426   5.184  1.00 22.62 LIG 0.01  A 
BRANCH 10 13
ATOM     13 OH   TYR B1543      -3.585  50.436   3.215  1.00 26.51 LIG-0.36  OA
ATOM     14 HH   TYR B1543      -4.349  50.603   2.908  1.00 26.51 LIG 0.22  HD
ENDBRANCH 10 13
ENDBRANCH 6 7
ENDBRANCH 5 6
BRANCH 5 15
ATOM     15  C   TYR B1543      -2.491  43.355   2.768  1.00 22.90 LIG 0.24  C 
ATOM     16  N   LEU B1544      -2.525  42.043   2.579  1.00 22.60 LIG-0.35  N 
ATOM     17 H    LEU B1544      -3.153  41.525   2.854  1.00 22.60 LIG 0.16  HD
ATOM     18 O    TYR B1543      -1.592  44.062   2.328  1.00 21.43 LIG-0.27  OA
BRANCH 16 19
ATOM     19  CA  LEU B1544      -1.448  41.379   1.862  1.00 22.81 LIG 0.18  C 
BRANCH 19 20
ATOM     20  C   LEU B1544      -1.277  41.931   0.450  1.00 21.53 LIG 0.24  C 
ATOM     21 O    LEU B1544      -2.185  42.559  -0.104  1.00 22.00 LIG-0.27  OA
ATOM     22  N   ARG B1545      -0.108  41.692  -0.136  1.00 20.14 LIG-0.35  N 
ATOM     23 H    ARG B1545       0.543  41.257   0.220  1.00 20.14 LIG 0.16  HD
BRANCH 22 24
ATOM     24  CA  ARG B1545       0.133  42.183  -1.482  1.00 18.95 LIG 0.16  C 
BRANCH 24 25
ATOM     25  CB  ARG B1545       1.421  43.018  -1.516  1.00 20.51 LIG 0.04  C 
BRANCH 25 26
ATOM     26  CG  ARG B1545       1.574  43.802  -0.213  1.00 20.78 LIG 0.02  C 
BRANCH 26 27
ATOM     27  CD  ARG B1545       2.869  44.607  -0.144  1.00 21.13 LIG 0.14  C 
BRANCH 27 28
ATOM     28  NE  ARG B1545       2.602  45.979   0.300  1.00 20.56 LIG-0.23  N 
ATOM     29 HE   ARG B1545       1.836  46.323   0.113  1.00 20.56 LIG 0.18  HD
ATOM     30  CZ  ARG B1545       3.474  46.722   0.974  1.00 23.27 LIG 0.67  C 
ATOM     31  NH2 ARG B1545       3.167  47.980   1.317  1.00 19.37 LIG-0.23  N 
ATOM     32  NH1 ARG B1545       4.661  46.215   1.282  1.00 20.25 LIG-0.23  N 
ATOM     33 1HH2 ARG B1545       2.404  48.310   1.102  1.00 19.37 LIG 0.17  HD
ATOM     34 2HH2 ARG B1545       3.734  48.457   1.753  1.00 19.37 LIG 0.17  HD
ATOM     35 1HH1 ARG B1545       4.860  45.412   1.045  1.00 20.25 LIG 0.17  HD
ATOM     36 2HH1 ARG B1545       5.231  46.689   1.718  1.00 20.25 LIG 0.17  HD
ENDBRANCH 27 28
ENDBRANCH 26 27
ENDBRANCH 25 26
ENDBRANCH 24 25
BRANCH 24 37
ATOM     37  C   ARG B1545       0.153  41.065  -2.517  1.00 20.11 LIG 0.22  C 
ATOM     38 O    ARG B1545       1.138  41.032  -3.293  1.00 20.61 LIG-0.29  OA
ENDBRANCH 24 37
ENDBRANCH 22 24
ENDBRANCH 19 20
BRANCH 19 39
ATOM     39  CB  LEU B1544      -1.707  39.868   1.825  1.00 22.71 LIG 0.04  C 
BRANCH 39 40
ATOM     40  CG  LEU B1544      -2.162  39.261   3.161  1.00 23.46 LIG-0.02  C 
ATOM     41  CD1 LEU B1544      -3.162  38.138   2.871  1.00 24.99 LIG 0.01  C 
ATOM     42  CD2 LEU B1544      -0.978  38.728   3.957  1.00 22.67 LIG 0.01  C 
ENDBRANCH 39 40
ENDBRANCH 19 39
ENDBRANCH 16 19
ENDBRANCH 5 15
ENDBRANCH 3 5
BRANCH 1 43
ATOM     43  CA  TRP B1542      -5.147  41.204   5.698  1.00 29.62 LIG 0.18  C 
BRANCH 43 44
ATOM     44  N   TRP B1542      -6.470  41.360   5.097  1.00 31.24 LIG-0.35  N 
ATOM     45  C   ALA B1541      -7.500  41.755   5.828  1.00 34.20 LIG 0.24  C 
ATOM     46 O    ALA B1541      -7.385  42.042   7.017  1.00 33.88 LIG-0.27  OA
ATOM     47 H    TRP B1542      -6.511  41.178   4.257  1.00 31.24 LIG 0.16  HD
BRANCH 45 48
ATOM     48  CA  ALA B1541      -8.859  41.854   5.120  1.00 35.59 LIG 0.17  C 
ATOM     49  CB  ALA B1541      -9.684  40.573   5.384  1.00 37.24 LIG 0.04  C 
BRANCH 48 50
ATOM     50  N   ALA B1541      -8.808  42.108   3.673  1.00 36.68 LIG-0.35  N 
ATOM     51  C   ALA B1540      -8.321  43.238   3.169  1.00 36.41 LIG 0.24  C 
ATOM     52 O    ALA B1540      -7.834  44.128   3.874  1.00 35.55 LIG-0.27  OA
ATOM     53 H    ALA B1541      -9.117  41.465   3.192  1.00 36.68 LIG 0.16  HD
BRANCH 51 54
ATOM     54  CA  ALA B1540      -8.364  43.368   1.642  1.00 37.40 LIG 0.17  C 
ATOM     55  CB  ALA B1540      -9.817  43.492   1.158  1.00 38.11 LIG 0.04  C 
BRANCH 54 56
ATOM     56  N   ALA B1540      -7.721  42.237   0.973  1.00 38.31 LIG-0.35  N 
ATOM     57 H    ALA B1540      -8.270  41.709   0.575  1.00 38.31 LIG 0.16  HD
ATOM     58  C   ILE B1539      -6.409  42.055   0.988  1.00 39.48 LIG 0.26  C 
ATOM     59 O    ILE B1539      -5.642  42.811   1.569  1.00 40.50 LIG-0.27  OA
BRANCH 58 60
ATOM     60  CA  ILE B1539      -5.886  40.816   0.257  1.00 40.24 LIG 0.40  C 
ATOM     61  N   ILE B1539      -4.390  40.803   0.170  1.00 42.50 LIG 0.61  N 
BRANCH 60 62
ATOM     62  CB  ILE B1539      -6.433  39.563   1.004  1.00 40.48 LIG 0.03  C 
ATOM     63  CG2 ILE B1539      -5.832  38.296   0.400  1.00 38.85 LIG 0.01  C 
BRANCH 62 64
ATOM     64  CG1 ILE B1539      -6.103  39.639   2.500  1.00 39.99 LIG 0.00  C 
ATOM     65  CD1 ILE B1539      -7.065  38.826   3.377  1.00 39.67 LIG 0.01  C 
ENDBRANCH 62 64
ENDBRANCH 60 62
ENDBRANCH 58 60
ENDBRANCH 54 56
ENDBRANCH 51 54
ENDBRANCH 48 50
ENDBRANCH 45 48
ENDBRANCH 43 44
BRANCH 43 66
ATOM     66  CB  TRP B1542      -4.672  39.757   5.508  1.00 29.93 LIG 0.07  C 
BRANCH 66 67
ATOM     67  CG  TRP B1542      -4.041  39.148   6.762  1.00 31.09 LIG-0.03  A 
ATOM     68  CD1 TRP B1542      -4.669  38.356   7.691  1.00 35.00 LIG 0.10  A 
ATOM     69  NE1 TRP B1542      -3.775  37.963   8.670  1.00 35.42 LIG-0.36  N 
ATOM     70 HE1  TRP B1542      -3.960  37.463   9.345  1.00 35.42 LIG 0.17  HD
ATOM     71  CE2 TRP B1542      -2.544  38.500   8.389  1.00 34.23 LIG 0.04  A 
ATOM     72  CD2 TRP B1542      -2.670  39.257   7.196  1.00 31.85 LIG-0.00  A 
ATOM     73  CZ2 TRP B1542      -1.328  38.384   9.083  1.00 32.49 LIG 0.03  A 
ATOM     74  CE3 TRP B1542      -1.539  39.916   6.693  1.00 30.05 LIG 0.01  A 
ATOM     75  CZ3 TRP B1542      -0.328  39.801   7.383  1.00 29.28 LIG 0.00  A 
ATOM     76  CH2 TRP B1542      -0.237  39.035   8.570  1.00 32.34 LIG 0.00  A 
ENDBRANCH 66 67
ENDBRANCH 43 66
ENDBRANCH 1 43
TORSDOF 26
ENDMDL
MODEL 41
USER: ADFR SOLUTION from run 78
USER: SCORE 21.141023 LL:  -5.450 LR: -17.508 RR:   0.000 FEB:  -9.752
USER: RMSD 6.833332
USER: SEED 77
USER: STATUS no improvement in best in 3 clusters for 5 generations
USER: GENES 28
USER: genes 0 Translation |==|  0.45701 0.35802 0.60529
USER: genes 1 Rotation |==|  0.97922 0.61020 0.41491 0.53098
USER: genes 2 Torsion [C]-N--CA-[CB] |==|  0.83689
USER: genes 3 Torsion [N]-CA--CB-[CG] |==|  0.52756
USER: genes 4 Torsion [CA]-CB--CG-[CD1] |==|  0.26856
USER: genes 5 Torsion [CE1]-CZ--OH-[HH] |==|  0.61857
USER: genes 6 Torsion [N]-CA--C-[N] |==|  0.37163
USER: genes 7 Torsion [C]-N--CA-[CB] |==|  0.50000
USER: genes 8 Torsion [N]-CA--C-[N] |==|  0.74675
USER: genes 9 Torsion [C]-N--CA-[CB] |==|  0.84959
USER: genes 10 Torsion [N]-CA--CB-[CG] |==|  0.57064
USER: genes 11 Torsion [CA]-CB--CG-[CD] |==|  0.10229
USER: genes 12 Torsion [CB]-CG--CD-[NE] |==|  0.29499
USER: genes 13 Torsion [CG]-CD--NE-[HE] |==|  0.69875
USER: genes 14 Torsion [N]-CA--C-[O] |==|  0.07023
USER: genes 15 Torsion [N]-CA--CB-[CG] |==|  0.48933
USER: genes 16 Torsion [CA]-CB--CG-[CD1] |==|  0.25281
USER: genes 17 Torsion [N]-C--CA-[N] |==|  0.05267
USER: genes 18 Torsion [C]-CA--N-[C] |==|  0.63195
USER: genes 19 Torsion [N]-C--CA-[N] |==|  0.41604
USER: genes 20 Torsion [C]-CA--N-[C] |==|  0.80268
USER: genes 21 Torsion [N]-C--CA-[N] |==|  0.87162
USER: genes 22 Torsion [C]-CA--N-[C] |==|  0.85618
USER: genes 23 Torsion [N]-C--CA-[N] |==|  0.38264
USER: genes 24 Torsion [C]-CA--CB-[CG1] |==|  0.94919
USER: genes 25 Torsion [CA]-CB--CG1-[CD1] |==|  0.43437
USER: genes 26 Torsion [C]-CA--CB-[CG] |==|  0.37189
USER: genes 27 Torsion [CA]-CB--CG-[CD1] |==|  0.15563
ROOT
ATOM      1  C   TRP B1542      -3.458  41.193   4.444  1.00 26.55 LIG 0.24  C 
ATOM      2 O    TRP B1542      -2.254  41.407   4.496  1.00 27.86 LIG-0.27  OA
ATOM      3  N   TYR B1543      -4.245  41.755   3.535  1.00 24.62 LIG-0.35  N 
ATOM      4 H    TYR B1543      -5.102  41.682   3.525  1.00 24.62 LIG 0.16  HD
ENDROOT
BRANCH 3 5
ATOM      5  CA  TYR B1543      -3.693  42.559   2.460  1.00 22.31 LIG 0.18  C 
BRANCH 5 6
ATOM      6  CB  TYR B1543      -2.908  43.723   3.071  1.00 23.67 LIG 0.07  C 
BRANCH 6 7
ATOM      7  CG  TYR B1543      -2.461  44.793   2.094  1.00 24.58 LIG-0.06  A 
ATOM      8  CD1 TYR B1543      -3.208  45.957   1.922  1.00 24.59 LIG 0.01  A 
ATOM      9  CE1 TYR B1543      -2.847  46.908   0.978  1.00 26.50 LIG 0.04  A 
ATOM     10  CZ  TYR B1543      -1.730  46.687   0.196  1.00 24.60 LIG 0.07  A 
ATOM     11  CE2 TYR B1543      -0.968  45.533   0.361  1.00 24.06 LIG 0.04  A 
ATOM     12  CD2 TYR B1543      -1.334  44.609   1.301  1.00 22.62 LIG 0.01  A 
BRANCH 10 13
ATOM     13 OH   TYR B1543      -1.395  47.593  -0.768  1.00 26.51 LIG-0.36  OA
ATOM     14 HH   TYR B1543      -1.167  47.187  -1.467  1.00 26.51 LIG 0.22  HD
ENDBRANCH 10 13
ENDBRANCH 6 7
ENDBRANCH 5 6
BRANCH 5 15
ATOM     15  C   TYR B1543      -2.849  41.891   1.386  1.00 22.90 LIG 0.24  C 
ATOM     16  N   LEU B1544      -3.116  42.209   0.127  1.00 22.60 LIG-0.35  N 
ATOM     17 H    LEU B1544      -3.705  42.785  -0.118  1.00 22.60 LIG 0.16  HD
ATOM     18 O    TYR B1543      -1.975  41.089   1.694  1.00 21.43 LIG-0.27  OA
BRANCH 16 19
ATOM     19  CA  LEU B1544      -2.390  41.568  -0.959  1.00 22.81 LIG 0.18  C 
BRANCH 19 20
ATOM     20  C   LEU B1544      -0.882  41.757  -0.828  1.00 21.53 LIG 0.24  C 
ATOM     21 O    LEU B1544      -0.192  40.957  -0.185  1.00 22.00 LIG-0.27  OA
ATOM     22  N   ARG B1545      -0.368  42.820  -1.437  1.00 20.14 LIG-0.35  N 
ATOM     23 H    ARG B1545      -0.819  43.396  -1.889  1.00 20.14 LIG 0.16  HD
BRANCH 22 24
ATOM     24  CA  ARG B1545       1.061  43.071  -1.359  1.00 18.95 LIG 0.16  C 
BRANCH 24 25
ATOM     25  CB  ARG B1545       1.512  43.101   0.108  1.00 20.51 LIG 0.04  C 
BRANCH 25 26
ATOM     26  CG  ARG B1545       2.778  43.947   0.252  1.00 20.78 LIG 0.02  C 
BRANCH 26 27
ATOM     27  CD  ARG B1545       2.794  45.168  -0.664  1.00 21.13 LIG 0.14  C 
BRANCH 27 28
ATOM     28  NE  ARG B1545       2.558  46.394   0.105  1.00 20.56 LIG-0.23  N 
ATOM     29 HE   ARG B1545       1.802  46.792   0.009  1.00 20.56 LIG 0.18  HD
ATOM     30  CZ  ARG B1545       3.445  46.926   0.939  1.00 23.27 LIG 0.67  C 
ATOM     31  NH2 ARG B1545       3.167  48.068   1.583  1.00 19.37 LIG-0.23  N 
ATOM     32  NH1 ARG B1545       4.618  46.330   1.111  1.00 20.25 LIG-0.23  N 
ATOM     33 1HH2 ARG B1545       2.413  48.459   1.457  1.00 19.37 LIG 0.17  HD
ATOM     34 2HH2 ARG B1545       3.743  48.408   2.123  1.00 19.37 LIG 0.17  HD
ATOM     35 1HH1 ARG B1545       4.799  45.606   0.684  1.00 20.25 LIG 0.17  HD
ATOM     36 2HH1 ARG B1545       5.197  46.667   1.649  1.00 20.25 LIG 0.17  HD
ENDBRANCH 27 28
ENDBRANCH 26 27
ENDBRANCH 25 26
ENDBRANCH 24 25
BRANCH 24 37
ATOM     37  C   ARG B1545       1.873  42.079  -2.182  1.00 20.11 LIG 0.22  C 
ATOM     38 O    ARG B1545       1.290  41.539  -3.152  1.00 20.61 LIG-0.29  OA
ENDBRANCH 24 37
ENDBRANCH 22 24
ENDBRANCH 19 20
BRANCH 19 39
ATOM     39  CB  LEU B1544      -2.888  42.112  -2.304  1.00 22.71 LIG 0.04  C 
BRANCH 39 40
ATOM     40  CG  LEU B1544      -2.133  41.580  -3.532  1.00 23.46 LIG-0.02  C 
ATOM     41  CD1 LEU B1544      -2.847  40.321  -4.035  1.00 24.99 LIG 0.01  C 
ATOM     42  CD2 LEU B1544      -2.062  42.629  -4.634  1.00 22.67 LIG 0.01  C 
ENDBRANCH 39 40
ENDBRANCH 19 39
ENDBRANCH 16 19
ENDBRANCH 5 15
ENDBRANCH 3 5
BRANCH 1 43
ATOM     43  CA  TRP B1542      -4.122  40.278   5.466  1.00 29.62 LIG 0.18  C 
BRANCH 43 44
ATOM     44  N   TRP B1542      -5.439  39.809   5.041  1.00 31.24 LIG-0.35  N 
ATOM     45  C   ALA B1541      -6.472  39.862   5.866  1.00 34.20 LIG 0.24  C 
ATOM     46 O    ALA B1541      -6.382  40.338   6.996  1.00 33.88 LIG-0.27  OA
ATOM     47 H    TRP B1542      -5.475  39.507   4.236  1.00 31.24 LIG 0.16  HD
BRANCH 45 48
ATOM     48  CA  ALA B1541      -7.807  39.311   5.346  1.00 35.59 LIG 0.17  C 
ATOM     49  CB  ALA B1541      -8.562  40.412   4.564  1.00 37.24 LIG 0.04  C 
BRANCH 48 50
ATOM     50  N   ALA B1541      -8.701  38.740   6.363  1.00 36.68 LIG-0.35  N 
ATOM     51  C   ALA B1540      -8.436  37.587   6.971  1.00 36.41 LIG 0.24  C 
ATOM     52 O    ALA B1540      -7.402  36.944   6.763  1.00 35.55 LIG-0.27  OA
ATOM     53 H    ALA B1541      -9.399  39.215   6.525  1.00 36.68 LIG 0.16  HD
BRANCH 51 54
ATOM     54  CA  ALA B1540      -9.480  37.106   7.987  1.00 37.40 LIG 0.17  C 
ATOM     55  CB  ALA B1540     -10.704  36.528   7.260  1.00 38.11 LIG 0.04  C 
BRANCH 54 56
ATOM     56  N   ALA B1540      -9.906  38.175   8.889  1.00 38.31 LIG-0.35  N 
ATOM     57 H    ALA B1540     -10.760  38.272   8.937  1.00 38.31 LIG 0.16  HD
ATOM     58  C   ILE B1539      -9.045  38.921   9.566  1.00 39.48 LIG 0.26  C 
ATOM     59 O    ILE B1539      -7.833  38.777   9.478  1.00 40.50 LIG-0.27  OA
BRANCH 58 60
ATOM     60  CA  ILE B1539      -9.643  40.011  10.457  1.00 40.24 LIG 0.40  C 
ATOM     61  N   ILE B1539      -8.956  40.093  11.786  1.00 42.50 LIG 0.61  N 
BRANCH 60 62
ATOM     62  CB  ILE B1539      -9.554  41.357   9.678  1.00 40.48 LIG 0.03  C 
ATOM     63  CG2 ILE B1539      -9.163  42.484  10.631  1.00 38.85 LIG 0.01  C 
BRANCH 62 64
ATOM     64  CG1 ILE B1539      -8.534  41.256   8.538  1.00 39.99 LIG 0.00  C 
ATOM     65  CD1 ILE B1539      -8.781  42.265   7.408  1.00 39.67 LIG 0.01  C 
ENDBRANCH 62 64
ENDBRANCH 60 62
ENDBRANCH 58 60
ENDBRANCH 54 56
ENDBRANCH 51 54
ENDBRANCH 48 50
ENDBRANCH 45 48
ENDBRANCH 43 44
BRANCH 43 66
ATOM     66  CB  TRP B1542      -3.206  39.070   5.706  1.00 29.93 LIG 0.07  C 
BRANCH 66 67
ATOM     67  CG  TRP B1542      -3.017  38.726   7.185  1.00 31.09 LIG-0.03  A 
ATOM     68  CD1 TRP B1542      -4.009  38.455   8.095  1.00 35.00 LIG 0.10  A 
ATOM     69  NE1 TRP B1542      -3.460  38.153   9.327  1.00 35.42 LIG-0.36  N 
ATOM     70 HE1  TRP B1542      -3.904  37.951  10.036  1.00 35.42 LIG 0.17  HD
ATOM     71  CE2 TRP B1542      -2.093  38.227   9.236  1.00 34.23 LIG 0.04  A 
ATOM     72  CD2 TRP B1542      -1.773  38.589   7.902  1.00 31.85 LIG-0.00  A 
ATOM     73  CZ2 TRP B1542      -1.110  38.005  10.213  1.00 32.49 LIG 0.03  A 
ATOM     74  CE3 TRP B1542      -0.424  38.734   7.547  1.00 30.05 LIG 0.01  A 
ATOM     75  CZ3 TRP B1542       0.556  38.512   8.520  1.00 29.28 LIG 0.00  A 
ATOM     76  CH2 TRP B1542       0.202  38.150   9.841  1.00 32.34 LIG 0.00  A 
ENDBRANCH 66 67
ENDBRANCH 43 66
ENDBRANCH 1 43
TORSDOF 26
ENDMDL
MODEL 42
USER: ADFR SOLUTION from run 171
USER: SCORE 22.603997 LL:  -6.164 LR: -17.512 RR:   0.000 FEB:  -9.756
USER: RMSD 5.746095
USER: SEED 170
USER: STATUS no improvement in best in 8 clusters for 5 generations
USER: GENES 28
USER: genes 0 Translation |==|  0.42471 0.41365 0.62987
USER: genes 1 Rotation |==|  0.00702 0.46663 0.54196 0.56398
USER: genes 2 Torsion [C]-N--CA-[CB] |==|  0.76646
USER: genes 3 Torsion [N]-CA--CB-[CG] |==|  0.66522
USER: genes 4 Torsion [CA]-CB--CG-[CD1] |==|  0.94622
USER: genes 5 Torsion [CE1]-CZ--OH-[HH] |==|  0.70203
USER: genes 6 Torsion [N]-CA--C-[N] |==|  0.03875
USER: genes 7 Torsion [C]-N--CA-[CB] |==|  0.49446
USER: genes 8 Torsion [N]-CA--C-[N] |==|  0.45314
USER: genes 9 Torsion [C]-N--CA-[CB] |==|  0.36764
USER: genes 10 Torsion [N]-CA--CB-[CG] |==|  0.86348
USER: genes 11 Torsion [CA]-CB--CG-[CD] |==|  0.55232
USER: genes 12 Torsion [CB]-CG--CD-[NE] |==|  0.38982
USER: genes 13 Torsion [CG]-CD--NE-[HE] |==|  0.86843
USER: genes 14 Torsion [N]-CA--C-[O] |==|  0.58833
USER: genes 15 Torsion [N]-CA--CB-[CG] |==|  0.86646
USER: genes 16 Torsion [CA]-CB--CG-[CD1] |==|  0.39418
USER: genes 17 Torsion [N]-C--CA-[N] |==|  0.05250
USER: genes 18 Torsion [C]-CA--N-[C] |==|  0.17072
USER: genes 19 Torsion [N]-C--CA-[N] |==|  0.93751
USER: genes 20 Torsion [C]-CA--N-[C] |==|  0.81003
USER: genes 21 Torsion [N]-C--CA-[N] |==|  0.91608
USER: genes 22 Torsion [C]-CA--N-[C] |==|  0.81384
USER: genes 23 Torsion [N]-C--CA-[N] |==|  0.42004
USER: genes 24 Torsion [C]-CA--CB-[CG1] |==|  0.87523
USER: genes 25 Torsion [CA]-CB--CG1-[CD1] |==|  0.49039
USER: genes 26 Torsion [C]-CA--CB-[CG] |==|  0.27252
USER: genes 27 Torsion [CA]-CB--CG-[CD1] |==|  0.26853
ROOT
ATOM      1  C   TRP B1542      -4.209  42.278   4.905  1.00 26.55 LIG 0.24  C 
ATOM      2 O    TRP B1542      -3.029  42.005   5.081  1.00 27.86 LIG-0.27  OA
ATOM      3  N   TYR B1543      -4.600  43.350   4.227  1.00 24.62 LIG-0.35  N 
ATOM      4 H    TYR B1543      -5.419  43.605   4.155  1.00 24.62 LIG 0.16  HD
ENDROOT
BRANCH 3 5
ATOM      5  CA  TYR B1543      -3.640  44.194   3.539  1.00 22.31 LIG 0.18  C 
BRANCH 5 6
ATOM      6  CB  TYR B1543      -3.060  45.195   4.542  1.00 23.67 LIG 0.07  C 
BRANCH 6 7
ATOM      7  CG  TYR B1543      -3.276  46.657   4.205  1.00 24.58 LIG-0.06  A 
ATOM      8  CD1 TYR B1543      -3.587  47.050   2.904  1.00 24.59 LIG 0.01  A 
ATOM      9  CE1 TYR B1543      -3.714  48.390   2.571  1.00 26.50 LIG 0.04  A 
ATOM     10  CZ  TYR B1543      -3.522  49.347   3.549  1.00 24.60 LIG 0.07  A 
ATOM     11  CE2 TYR B1543      -3.219  48.971   4.855  1.00 24.06 LIG 0.04  A 
ATOM     12  CD2 TYR B1543      -3.104  47.644   5.168  1.00 22.62 LIG 0.01  A 
BRANCH 10 13
ATOM     13 OH   TYR B1543      -3.597  50.669   3.220  1.00 26.51 LIG-0.36  OA
ATOM     14 HH   TYR B1543      -2.825  51.003   3.226  1.00 26.51 LIG 0.22  HD
ENDBRANCH 10 13
ENDBRANCH 6 7
ENDBRANCH 5 6
BRANCH 5 15
ATOM     15  C   TYR B1543      -2.507  43.551   2.757  1.00 22.90 LIG 0.24  C 
ATOM     16  N   LEU B1544      -2.610  42.253   2.505  1.00 22.60 LIG-0.35  N 
ATOM     17 H    LEU B1544      -3.282  41.764   2.724  1.00 22.60 LIG 0.16  HD
ATOM     18 O    TYR B1543      -1.545  44.219   2.396  1.00 21.43 LIG-0.27  OA
BRANCH 16 19
ATOM     19  CA  LEU B1544      -1.539  41.555   1.812  1.00 22.81 LIG 0.18  C 
BRANCH 19 20
ATOM     20  C   LEU B1544      -1.264  42.153   0.436  1.00 21.53 LIG 0.24  C 
ATOM     21 O    LEU B1544      -2.085  42.896  -0.113  1.00 22.00 LIG-0.27  OA
ATOM     22  N   ARG B1545      -0.103  41.828  -0.124  1.00 20.14 LIG-0.35  N 
ATOM     23 H    ARG B1545       0.488  41.313   0.230  1.00 20.14 LIG 0.16  HD
BRANCH 22 24
ATOM     24  CA  ARG B1545       0.234  42.357  -1.435  1.00 18.95 LIG 0.16  C 
BRANCH 24 25
ATOM     25  CB  ARG B1545       1.662  42.919  -1.425  1.00 20.51 LIG 0.04  C 
BRANCH 25 26
ATOM     26  CG  ARG B1545       1.855  43.846  -0.224  1.00 20.78 LIG 0.02  C 
BRANCH 26 27
ATOM     27  CD  ARG B1545       3.048  44.785  -0.374  1.00 21.13 LIG 0.14  C 
BRANCH 27 28
ATOM     28  NE  ARG B1545       2.725  46.119   0.145  1.00 20.56 LIG-0.23  N 
ATOM     29 HE   ARG B1545       1.980  46.477  -0.094  1.00 20.56 LIG 0.18  HD
ATOM     30  CZ  ARG B1545       3.515  46.805   0.963  1.00 23.27 LIG 0.67  C 
ATOM     31  NH2 ARG B1545       3.164  48.033   1.370  1.00 19.37 LIG-0.23  N 
ATOM     32  NH1 ARG B1545       4.667  46.275   1.354  1.00 20.25 LIG-0.23  N 
ATOM     33 1HH2 ARG B1545       2.425  48.379   1.102  1.00 19.37 LIG 0.17  HD
ATOM     34 2HH2 ARG B1545       3.678  48.473   1.899  1.00 19.37 LIG 0.17  HD
ATOM     35 1HH1 ARG B1545       4.897  45.494   1.077  1.00 20.25 LIG 0.17  HD
ATOM     36 2HH1 ARG B1545       5.184  46.713   1.883  1.00 20.25 LIG 0.17  HD
ENDBRANCH 27 28
ENDBRANCH 26 27
ENDBRANCH 25 26
ENDBRANCH 24 25
BRANCH 24 37
ATOM     37  C   ARG B1545       0.034  41.334  -2.546  1.00 20.11 LIG 0.22  C 
ATOM     38 O    ARG B1545       0.808  41.411  -3.530  1.00 20.61 LIG-0.29  OA
ENDBRANCH 24 37
ENDBRANCH 22 24
ENDBRANCH 19 20
BRANCH 19 39
ATOM     39  CB  LEU B1544      -1.887  40.065   1.694  1.00 22.71 LIG 0.04  C 
BRANCH 39 40
ATOM     40  CG  LEU B1544      -2.368  39.412   3.000  1.00 23.46 LIG-0.02  C 
ATOM     41  CD1 LEU B1544      -3.486  38.421   2.665  1.00 24.99 LIG 0.01  C 
ATOM     42  CD2 LEU B1544      -1.224  38.705   3.716  1.00 22.67 LIG 0.01  C 
ENDBRANCH 39 40
ENDBRANCH 19 39
ENDBRANCH 16 19
ENDBRANCH 5 15
ENDBRANCH 3 5
BRANCH 1 43
ATOM     43  CA  TRP B1542      -5.300  41.396   5.498  1.00 29.62 LIG 0.18  C 
BRANCH 43 44
ATOM     44  N   TRP B1542      -6.607  41.608   4.877  1.00 31.24 LIG-0.35  N 
ATOM     45  C   ALA B1541      -6.785  41.372   3.588  1.00 34.20 LIG 0.24  C 
ATOM     46 O    ALA B1541      -5.887  40.934   2.873  1.00 33.88 LIG-0.27  OA
ATOM     47 H    TRP B1542      -7.221  41.889   5.411  1.00 31.24 LIG 0.16  HD
BRANCH 45 48
ATOM     48  CA  ALA B1541      -8.180  41.660   3.015  1.00 35.59 LIG 0.17  C 
ATOM     49  CB  ALA B1541      -8.167  43.005   2.251  1.00 37.24 LIG 0.04  C 
BRANCH 48 50
ATOM     50  N   ALA B1541      -9.281  41.666   3.988  1.00 36.68 LIG-0.35  N 
ATOM     51  C   ALA B1540      -9.689  40.559   4.602  1.00 36.41 LIG 0.24  C 
ATOM     52 O    ALA B1540      -9.142  39.464   4.438  1.00 35.55 LIG-0.27  OA
ATOM     53 H    ALA B1541      -9.630  42.441   4.120  1.00 36.68 LIG 0.16  HD
BRANCH 51 54
ATOM     54  CA  ALA B1540     -10.870  40.721   5.567  1.00 37.40 LIG 0.17  C 
ATOM     55  CB  ALA B1540     -12.196  40.463   4.835  1.00 38.11 LIG 0.04  C 
BRANCH 54 56
ATOM     56  N   ALA B1540     -10.901  42.046   6.184  1.00 38.31 LIG-0.35  N 
ATOM     57 H    ALA B1540     -11.573  42.528   5.944  1.00 38.31 LIG 0.16  HD
ATOM     58  C   ILE B1539      -9.973  42.457   7.036  1.00 39.48 LIG 0.26  C 
ATOM     59 O    ILE B1539      -9.018  41.763   7.359  1.00 40.50 LIG-0.27  OA
BRANCH 58 60
ATOM     60  CA  ILE B1539     -10.134  43.876   7.584  1.00 40.24 LIG 0.40  C 
ATOM     61  N   ILE B1539      -9.539  44.022   8.953  1.00 42.50 LIG 0.61  N 
BRANCH 60 62
ATOM     62  CB  ILE B1539      -9.479  44.853   6.563  1.00 40.48 LIG 0.03  C 
ATOM     63  CG2 ILE B1539      -9.310  46.232   7.198  1.00 38.85 LIG 0.01  C 
BRANCH 62 64
ATOM     64  CG1 ILE B1539      -8.119  44.319   6.100  1.00 39.99 LIG 0.00  C 
ATOM     65  CD1 ILE B1539      -7.454  45.193   5.027  1.00 39.67 LIG 0.01  C 
ENDBRANCH 62 64
ENDBRANCH 60 62
ENDBRANCH 58 60
ENDBRANCH 54 56
ENDBRANCH 51 54
ENDBRANCH 48 50
ENDBRANCH 45 48
ENDBRANCH 43 44
BRANCH 43 66
ATOM     66  CB  TRP B1542      -4.888  39.927   5.323  1.00 29.93 LIG 0.07  C 
BRANCH 66 67
ATOM     67  CG  TRP B1542      -4.249  39.316   6.572  1.00 31.09 LIG-0.03  A 
ATOM     68  CD1 TRP B1542      -4.880  38.559   7.527  1.00 35.00 LIG 0.10  A 
ATOM     69  NE1 TRP B1542      -3.977  38.150   8.490  1.00 35.42 LIG-0.36  N 
ATOM     70 HE1  TRP B1542      -4.163  37.666   9.177  1.00 35.42 LIG 0.17  HD
ATOM     71  CE2 TRP B1542      -2.735  38.642   8.173  1.00 34.23 LIG 0.04  A 
ATOM     72  CD2 TRP B1542      -2.865  39.385   6.971  1.00 31.85 LIG-0.00  A 
ATOM     73  CZ2 TRP B1542      -1.509  38.494   8.841  1.00 32.49 LIG 0.03  A 
ATOM     74  CE3 TRP B1542      -1.725  39.998   6.432  1.00 30.05 LIG 0.01  A 
ATOM     75  CZ3 TRP B1542      -0.503  39.852   7.096  1.00 29.28 LIG 0.00  A 
ATOM     76  CH2 TRP B1542      -0.409  39.101   8.292  1.00 32.34 LIG 0.00  A 
ENDBRANCH 66 67
ENDBRANCH 43 66
ENDBRANCH 1 43
TORSDOF 26
ENDMDL
MODEL 43
USER: ADFR SOLUTION from run 171
USER: SCORE 22.481619 LL:  -6.636 LR: -17.499 RR:   0.000 FEB:  -9.743
USER: RMSD 6.005180
USER: SEED 170
USER: STATUS no improvement in best in 8 clusters for 5 generations
USER: GENES 28
USER: genes 0 Translation |==|  0.42510 0.42081 0.63476
USER: genes 1 Rotation |==|  0.00410 0.45227 0.52103 0.53694
USER: genes 2 Torsion [C]-N--CA-[CB] |==|  0.78889
USER: genes 3 Torsion [N]-CA--CB-[CG] |==|  0.66951
USER: genes 4 Torsion [CA]-CB--CG-[CD1] |==|  0.94995
USER: genes 5 Torsion [CE1]-CZ--OH-[HH] |==|  0.70052
USER: genes 6 Torsion [N]-CA--C-[N] |==|  0.03215
USER: genes 7 Torsion [C]-N--CA-[CB] |==|  0.49460
USER: genes 8 Torsion [N]-CA--C-[N] |==|  0.45328
USER: genes 9 Torsion [C]-N--CA-[CB] |==|  0.36560
USER: genes 10 Torsion [N]-CA--CB-[CG] |==|  0.86663
USER: genes 11 Torsion [CA]-CB--CG-[CD] |==|  0.55135
USER: genes 12 Torsion [CB]-CG--CD-[NE] |==|  0.39280
USER: genes 13 Torsion [CG]-CD--NE-[HE] |==|  0.86470
USER: genes 14 Torsion [N]-CA--C-[O] |==|  0.58455
USER: genes 15 Torsion [N]-CA--CB-[CG] |==|  0.95993
USER: genes 16 Torsion [CA]-CB--CG-[CD1] |==|  0.25864
USER: genes 17 Torsion [N]-C--CA-[N] |==|  0.02327
USER: genes 18 Torsion [C]-CA--N-[C] |==|  0.76438
USER: genes 19 Torsion [N]-C--CA-[N] |==|  0.53939
USER: genes 20 Torsion [C]-CA--N-[C] |==|  0.75758
USER: genes 21 Torsion [N]-C--CA-[N] |==|  0.91351
USER: genes 22 Torsion [C]-CA--N-[C] |==|  0.81785
USER: genes 23 Torsion [N]-C--CA-[N] |==|  0.46009
USER: genes 24 Torsion [C]-CA--CB-[CG1] |==|  0.83459
USER: genes 25 Torsion [CA]-CB--CG1-[CD1] |==|  0.42119
USER: genes 26 Torsion [C]-CA--CB-[CG] |==|  0.26209
USER: genes 27 Torsion [CA]-CB--CG-[CD1] |==|  0.25962
ROOT
ATOM      1  C   TRP B1542      -4.199  42.418   4.997  1.00 26.55 LIG 0.24  C 
ATOM      2 O    TRP B1542      -3.032  42.233   5.311  1.00 27.86 LIG-0.27  OA
ATOM      3  N   TYR B1543      -4.573  43.396   4.181  1.00 24.62 LIG-0.35  N 
ATOM      4 H    TYR B1543      -5.392  43.594   4.006  1.00 24.62 LIG 0.16  HD
ENDROOT
BRANCH 3 5
ATOM      5  CA  TYR B1543      -3.592  44.226   3.506  1.00 22.31 LIG 0.18  C 
BRANCH 5 6
ATOM      6  CB  TYR B1543      -3.017  45.224   4.515  1.00 23.67 LIG 0.07  C 
BRANCH 6 7
ATOM      7  CG  TYR B1543      -3.242  46.687   4.188  1.00 24.58 LIG-0.06  A 
ATOM      8  CD1 TYR B1543      -3.583  47.083   2.895  1.00 24.59 LIG 0.01  A 
ATOM      9  CE1 TYR B1543      -3.719  48.425   2.570  1.00 26.50 LIG 0.04  A 
ATOM     10  CZ  TYR B1543      -3.505  49.378   3.546  1.00 24.60 LIG 0.07  A 
ATOM     11  CE2 TYR B1543      -3.171  48.999   4.844  1.00 24.06 LIG 0.04  A 
ATOM     12  CD2 TYR B1543      -3.048  47.670   5.150  1.00 22.62 LIG 0.01  A 
BRANCH 10 13
ATOM     13 OH   TYR B1543      -3.588  50.702   3.223  1.00 26.51 LIG-0.36  OA
ATOM     14 HH   TYR B1543      -2.817  51.038   3.220  1.00 26.51 LIG 0.22  HD
ENDBRANCH 10 13
ENDBRANCH 6 7
ENDBRANCH 5 6
BRANCH 5 15
ATOM     15  C   TYR B1543      -2.453  43.566   2.746  1.00 22.90 LIG 0.24  C 
ATOM     16  N   LEU B1544      -2.545  42.260   2.539  1.00 22.60 LIG-0.35  N 
ATOM     17 H    LEU B1544      -3.212  41.773   2.776  1.00 22.60 LIG 0.16  HD
ATOM     18 O    TYR B1543      -1.498  44.230   2.360  1.00 21.43 LIG-0.27  OA
BRANCH 16 19
ATOM     19  CA  LEU B1544      -1.468  41.548   1.869  1.00 22.81 LIG 0.18  C 
BRANCH 19 20
ATOM     20  C   LEU B1544      -1.198  42.102   0.474  1.00 21.53 LIG 0.24  C 
ATOM     21 O    LEU B1544      -2.026  42.818  -0.099  1.00 22.00 LIG-0.27  OA
ATOM     22  N   ARG B1545      -0.035  41.766  -0.076  1.00 20.14 LIG-0.35  N 
ATOM     23 H    ARG B1545       0.560  41.269   0.294  1.00 20.14 LIG 0.16  HD
BRANCH 22 24
ATOM     24  CA  ARG B1545       0.297  42.254  -1.404  1.00 18.95 LIG 0.16  C 
BRANCH 24 25
ATOM     25  CB  ARG B1545       1.714  42.844  -1.410  1.00 20.51 LIG 0.04  C 
BRANCH 25 26
ATOM     26  CG  ARG B1545       1.893  43.796  -0.227  1.00 20.78 LIG 0.02  C 
BRANCH 26 27
ATOM     27  CD  ARG B1545       3.072  44.750  -0.395  1.00 21.13 LIG 0.14  C 
BRANCH 27 28
ATOM     28  NE  ARG B1545       2.738  46.081   0.121  1.00 20.56 LIG-0.23  N 
ATOM     29 HE   ARG B1545       1.994  46.436  -0.125  1.00 20.56 LIG 0.18  HD
ATOM     30  CZ  ARG B1545       3.517  46.771   0.947  1.00 23.27 LIG 0.67  C 
ATOM     31  NH2 ARG B1545       3.156  47.997   1.352  1.00 19.37 LIG-0.23  N 
ATOM     32  NH1 ARG B1545       4.667  46.246   1.349  1.00 20.25 LIG-0.23  N 
ATOM     33 1HH2 ARG B1545       2.418  48.340   1.077  1.00 19.37 LIG 0.17  HD
ATOM     34 2HH2 ARG B1545       3.663  48.439   1.887  1.00 19.37 LIG 0.17  HD
ATOM     35 1HH1 ARG B1545       4.903  45.466   1.074  1.00 20.25 LIG 0.17  HD
ATOM     36 2HH1 ARG B1545       5.177  46.686   1.884  1.00 20.25 LIG 0.17  HD
ENDBRANCH 27 28
ENDBRANCH 26 27
ENDBRANCH 25 26
ENDBRANCH 24 25
BRANCH 24 37
ATOM     37  C   ARG B1545       0.122  41.187  -2.478  1.00 20.11 LIG 0.22  C 
ATOM     38 O    ARG B1545       0.880  41.258  -3.474  1.00 20.61 LIG-0.29  OA
ENDBRANCH 24 37
ENDBRANCH 22 24
ENDBRANCH 19 20
BRANCH 19 39
ATOM     39  CB  LEU B1544      -1.803  40.052   1.802  1.00 22.71 LIG 0.04  C 
BRANCH 39 40
ATOM     40  CG  LEU B1544      -2.953  39.609   2.720  1.00 23.46 LIG-0.02  C 
ATOM     41  CD1 LEU B1544      -4.259  39.655   1.921  1.00 24.99 LIG 0.01  C 
ATOM     42  CD2 LEU B1544      -2.713  38.209   3.269  1.00 22.67 LIG 0.01  C 
ENDBRANCH 39 40
ENDBRANCH 19 39
ENDBRANCH 16 19
ENDBRANCH 5 15
ENDBRANCH 3 5
BRANCH 1 43
ATOM     43  CA  TRP B1542      -5.301  41.533   5.569  1.00 29.62 LIG 0.18  C 
BRANCH 43 44
ATOM     44  N   TRP B1542      -6.608  41.787   4.967  1.00 31.24 LIG-0.35  N 
ATOM     45  C   ALA B1541      -7.383  42.757   5.424  1.00 34.20 LIG 0.24  C 
ATOM     46 O    ALA B1541      -7.029  43.502   6.335  1.00 33.88 LIG-0.27  OA
ATOM     47 H    TRP B1542      -6.814  41.266   4.314  1.00 31.24 LIG 0.16  HD
BRANCH 45 48
ATOM     48  CA  ALA B1541      -8.755  42.925   4.755  1.00 35.59 LIG 0.17  C 
ATOM     49  CB  ALA B1541      -8.617  42.758   3.224  1.00 37.24 LIG 0.04  C 
BRANCH 48 50
ATOM     50  N   ALA B1541      -9.455  44.184   5.044  1.00 36.68 LIG-0.35  N 
ATOM     51  C   ALA B1540     -10.245  44.328   6.105  1.00 36.41 LIG 0.24  C 
ATOM     52 O    ALA B1540     -10.404  43.436   6.945  1.00 35.55 LIG-0.27  OA
ATOM     53 H    ALA B1541      -9.308  44.808   4.471  1.00 36.68 LIG 0.16  HD
BRANCH 51 54
ATOM     54  CA  ALA B1540     -10.930  45.692   6.254  1.00 37.40 LIG 0.17  C 
ATOM     55  CB  ALA B1540     -12.303  45.676   5.563  1.00 38.11 LIG 0.04  C 
BRANCH 54 56
ATOM     56  N   ALA B1540     -10.121  46.779   5.708  1.00 38.31 LIG-0.35  N 
ATOM     57 H    ALA B1540     -10.470  47.166   5.023  1.00 38.31 LIG 0.16  HD
ATOM     58  C   ILE B1539      -8.954  47.130   6.230  1.00 39.48 LIG 0.26  C 
ATOM     59 O    ILE B1539      -8.466  46.563   7.199  1.00 40.50 LIG-0.27  OA
BRANCH 58 60
ATOM     60  CA  ILE B1539      -8.216  48.277   5.537  1.00 40.24 LIG 0.40  C 
ATOM     61  N   ILE B1539      -7.104  48.822   6.381  1.00 42.50 LIG 0.61  N 
BRANCH 60 62
ATOM     62  CB  ILE B1539      -7.695  47.744   4.170  1.00 40.48 LIG 0.03  C 
ATOM     63  CG2 ILE B1539      -6.973  48.861   3.418  1.00 38.85 LIG 0.01  C 
BRANCH 62 64
ATOM     64  CG1 ILE B1539      -6.749  46.555   4.377  1.00 39.99 LIG 0.00  C 
ATOM     65  CD1 ILE B1539      -6.739  45.572   3.199  1.00 39.67 LIG 0.01  C 
ENDBRANCH 62 64
ENDBRANCH 60 62
ENDBRANCH 58 60
ENDBRANCH 54 56
ENDBRANCH 51 54
ENDBRANCH 48 50
ENDBRANCH 45 48
ENDBRANCH 43 44
BRANCH 43 66
ATOM     66  CB  TRP B1542      -4.914  40.065   5.340  1.00 29.93 LIG 0.07  C 
BRANCH 66 67
ATOM     67  CG  TRP B1542      -4.192  39.428   6.529  1.00 31.09 LIG-0.03  A 
ATOM     68  CD1 TRP B1542      -4.769  38.709   7.547  1.00 35.00 LIG 0.10  A 
ATOM     69  NE1 TRP B1542      -3.802  38.259   8.426  1.00 35.42 LIG-0.36  N 
ATOM     70 HE1  TRP B1542      -3.947  37.789   9.131  1.00 35.42 LIG 0.17  HD
ATOM     71  CE2 TRP B1542      -2.572  38.684   7.989  1.00 34.23 LIG 0.04  A 
ATOM     72  CD2 TRP B1542      -2.775  39.426   6.797  1.00 31.85 LIG-0.00  A 
ATOM     73  CZ2 TRP B1542      -1.297  38.476   8.541  1.00 32.49 LIG 0.03  A 
ATOM     74  CE3 TRP B1542      -1.661  39.977   6.148  1.00 30.05 LIG 0.01  A 
ATOM     75  CZ3 TRP B1542      -0.391  39.771   6.696  1.00 29.28 LIG 0.00  A 
ATOM     76  CH2 TRP B1542      -0.224  39.022   7.886  1.00 32.34 LIG 0.00  A 
ENDBRANCH 66 67
ENDBRANCH 43 66
ENDBRANCH 1 43
TORSDOF 26
ENDMDL
MODEL 44
USER: ADFR SOLUTION from run 85
USER: SCORE 21.209996 LL:  -6.290 LR: -17.491 RR:   0.000 FEB:  -9.735
USER: RMSD 6.809001
USER: SEED 84
USER: STATUS no improvement in best in 21 clusters for 5 generations
USER: GENES 28
USER: genes 0 Translation |==|  0.44111 0.45904 0.59142
USER: genes 1 Rotation |==|  0.97144 0.39657 0.51532 0.62966
USER: genes 2 Torsion [C]-N--CA-[CB] |==|  0.25321
USER: genes 3 Torsion [N]-CA--CB-[CG] |==|  0.75839
USER: genes 4 Torsion [CA]-CB--CG-[CD1] |==|  0.42692
USER: genes 5 Torsion [CE1]-CZ--OH-[HH] |==|  0.14845
USER: genes 6 Torsion [N]-CA--C-[N] |==|  0.83490
USER: genes 7 Torsion [C]-N--CA-[CB] |==|  0.77634
USER: genes 8 Torsion [N]-CA--C-[N] |==|  0.12924
USER: genes 9 Torsion [C]-N--CA-[CB] |==|  0.28104
USER: genes 10 Torsion [N]-CA--CB-[CG] |==|  0.77485
USER: genes 11 Torsion [CA]-CB--CG-[CD] |==|  0.87854
USER: genes 12 Torsion [CB]-CG--CD-[NE] |==|  0.39578
USER: genes 13 Torsion [CG]-CD--NE-[HE] |==|  0.76479
USER: genes 14 Torsion [N]-CA--C-[O] |==|  0.54766
USER: genes 15 Torsion [N]-CA--CB-[CG] |==|  0.91360
USER: genes 16 Torsion [CA]-CB--CG-[CD1] |==|  0.35665
USER: genes 17 Torsion [N]-C--CA-[N] |==|  0.87023
USER: genes 18 Torsion [C]-CA--N-[C] |==|  0.88289
USER: genes 19 Torsion [N]-C--CA-[N] |==|  0.47778
USER: genes 20 Torsion [C]-CA--N-[C] |==|  0.85079
USER: genes 21 Torsion [N]-C--CA-[N] |==|  0.16972
USER: genes 22 Torsion [C]-CA--N-[C] |==|  0.77458
USER: genes 23 Torsion [N]-C--CA-[N] |==|  0.41254
USER: genes 24 Torsion [C]-CA--CB-[CG1] |==|  0.98136
USER: genes 25 Torsion [CA]-CB--CG1-[CD1] |==|  0.71455
USER: genes 26 Torsion [C]-CA--CB-[CG] |==|  0.29910
USER: genes 27 Torsion [CA]-CB--CG-[CD1] |==|  0.30610
ROOT
ATOM      1  C   TRP B1542      -3.827  43.163   4.184  1.00 26.55 LIG 0.24  C 
ATOM      2 O    TRP B1542      -2.956  42.714   4.915  1.00 27.86 LIG-0.27  OA
ATOM      3  N   TYR B1543      -3.621  43.413   2.897  1.00 24.62 LIG-0.35  N 
ATOM      4 H    TYR B1543      -4.191  43.799   2.381  1.00 24.62 LIG 0.16  HD
ENDROOT
BRANCH 3 5
ATOM      5  CA  TYR B1543      -2.376  43.040   2.250  1.00 22.31 LIG 0.18  C 
BRANCH 5 6
ATOM      6  CB  TYR B1543      -2.530  41.634   1.665  1.00 23.67 LIG 0.07  C 
BRANCH 6 7
ATOM      7  CG  TYR B1543      -2.215  40.494   2.614  1.00 24.58 LIG-0.06  A 
ATOM      8  CD1 TYR B1543      -2.801  39.240   2.441  1.00 24.59 LIG 0.01  A 
ATOM      9  CE1 TYR B1543      -2.576  38.213   3.346  1.00 26.50 LIG 0.04  A 
ATOM     10  CZ  TYR B1543      -1.761  38.446   4.437  1.00 24.60 LIG 0.07  A 
ATOM     11  CE2 TYR B1543      -1.163  39.689   4.620  1.00 24.06 LIG 0.04  A 
ATOM     12  CD2 TYR B1543      -1.389  40.690   3.714  1.00 22.62 LIG 0.01  A 
BRANCH 10 13
ATOM     13 OH   TYR B1543      -1.574  37.456   5.359  1.00 26.51 LIG-0.36  OA
ATOM     14 HH   TYR B1543      -1.316  36.757   4.970  1.00 26.51 LIG 0.22  HD
ENDBRANCH 10 13
ENDBRANCH 6 7
ENDBRANCH 5 6
BRANCH 5 15
ATOM     15  C   TYR B1543      -1.776  43.960   1.199  1.00 22.90 LIG 0.24  C 
ATOM     16  N   LEU B1544      -2.519  44.219   0.132  1.00 22.60 LIG-0.35  N 
ATOM     17 H    LEU B1544      -3.320  43.931   0.011  1.00 22.60 LIG 0.16  HD
ATOM     18 O    TYR B1543      -0.650  44.420   1.347  1.00 21.43 LIG-0.27  OA
BRANCH 16 19
ATOM     19  CA  LEU B1544      -1.992  45.044  -0.944  1.00 22.81 LIG 0.18  C 
BRANCH 19 20
ATOM     20  C   LEU B1544      -0.545  44.693  -1.277  1.00 21.53 LIG 0.24  C 
ATOM     21 O    LEU B1544       0.309  45.575  -1.420  1.00 22.00 LIG-0.27  OA
ATOM     22  N   ARG B1545      -0.269  43.399  -1.403  1.00 20.14 LIG-0.35  N 
ATOM     23 H    ARG B1545      -0.839  42.762  -1.311  1.00 20.14 LIG 0.16  HD
BRANCH 22 24
ATOM     24  CA  ARG B1545       1.087  42.982  -1.720  1.00 18.95 LIG 0.16  C 
BRANCH 24 25
ATOM     25  CB  ARG B1545       1.798  42.493  -0.451  1.00 20.51 LIG 0.04  C 
BRANCH 25 26
ATOM     26  CG  ARG B1545       2.322  43.684   0.352  1.00 20.78 LIG 0.02  C 
BRANCH 26 27
ATOM     27  CD  ARG B1545       2.993  44.746  -0.515  1.00 21.13 LIG 0.14  C 
BRANCH 27 28
ATOM     28  NE  ARG B1545       2.685  46.091  -0.017  1.00 20.56 LIG-0.23  N 
ATOM     29 HE   ARG B1545       1.950  46.458  -0.270  1.00 20.56 LIG 0.18  HD
ATOM     30  CZ  ARG B1545       3.476  46.774   0.804  1.00 23.27 LIG 0.67  C 
ATOM     31  NH2 ARG B1545       3.140  48.012   1.192  1.00 19.37 LIG-0.23  N 
ATOM     32  NH1 ARG B1545       4.613  46.229   1.217  1.00 20.25 LIG-0.23  N 
ATOM     33 1HH2 ARG B1545       2.411  48.368   0.910  1.00 19.37 LIG 0.17  HD
ATOM     34 2HH2 ARG B1545       3.655  48.450   1.723  1.00 19.37 LIG 0.17  HD
ATOM     35 1HH1 ARG B1545       4.833  45.441   0.953  1.00 20.25 LIG 0.17  HD
ATOM     36 2HH1 ARG B1545       5.130  46.664   1.748  1.00 20.25 LIG 0.17  HD
ENDBRANCH 27 28
ENDBRANCH 26 27
ENDBRANCH 25 26
ENDBRANCH 24 25
BRANCH 24 37
ATOM     37  C   ARG B1545       1.132  41.943  -2.833  1.00 20.11 LIG 0.22  C 
ATOM     38 O    ARG B1545       2.194  41.286  -2.949  1.00 20.61 LIG-0.29  OA
ENDBRANCH 24 37
ENDBRANCH 22 24
ENDBRANCH 19 20
BRANCH 19 39
ATOM     39  CB  LEU B1544      -2.115  46.525  -0.565  1.00 22.71 LIG 0.04  C 
BRANCH 39 40
ATOM     40  CG  LEU B1544      -3.315  46.861   0.334  1.00 23.46 LIG-0.02  C 
ATOM     41  CD1 LEU B1544      -2.811  47.653   1.545  1.00 24.99 LIG 0.01  C 
ATOM     42  CD2 LEU B1544      -4.368  47.659  -0.425  1.00 22.67 LIG 0.01  C 
ENDBRANCH 39 40
ENDBRANCH 19 39
ENDBRANCH 16 19
ENDBRANCH 5 15
ENDBRANCH 3 5
BRANCH 1 43
ATOM     43  CA  TRP B1542      -5.207  43.493   4.742  1.00 29.62 LIG 0.18  C 
BRANCH 43 44
ATOM     44  N   TRP B1542      -5.683  44.816   4.344  1.00 31.24 LIG-0.35  N 
ATOM     45  C   ALA B1541      -4.865  45.855   4.349  1.00 34.20 LIG 0.24  C 
ATOM     46 O    ALA B1541      -3.677  45.751   4.646  1.00 33.88 LIG-0.27  OA
ATOM     47 H    TRP B1542      -6.512  44.850   4.116  1.00 31.24 LIG 0.16  HD
BRANCH 45 48
ATOM     48  CA  ALA B1541      -5.462  47.213   3.953  1.00 35.59 LIG 0.17  C 
ATOM     49  CB  ALA B1541      -5.940  47.168   2.482  1.00 37.24 LIG 0.04  C 
BRANCH 48 50
ATOM     50  N   ALA B1541      -4.584  48.376   4.142  1.00 36.68 LIG-0.35  N 
ATOM     51  C   ALA B1540      -4.002  48.642   5.308  1.00 36.41 LIG 0.24  C 
ATOM     52 O    ALA B1540      -4.116  47.907   6.294  1.00 35.55 LIG-0.27  OA
ATOM     53 H    ALA B1541      -4.485  48.860   3.438  1.00 36.68 LIG 0.16  HD
BRANCH 51 54
ATOM     54  CA  ALA B1540      -3.139  49.909   5.356  1.00 37.40 LIG 0.17  C 
ATOM     55  CB  ALA B1540      -2.464  50.040   6.730  1.00 38.11 LIG 0.04  C 
BRANCH 54 56
ATOM     56  N   ALA B1540      -3.914  51.116   5.074  1.00 38.31 LIG-0.35  N 
ATOM     57 H    ALA B1540      -4.155  51.549   5.777  1.00 38.31 LIG 0.16  HD
ATOM     58  C   ILE B1539      -4.211  51.499   3.841  1.00 39.48 LIG 0.26  C 
ATOM     59 O    ILE B1539      -3.869  50.866   2.851  1.00 40.50 LIG-0.27  OA
BRANCH 58 60
ATOM     60  CA  ILE B1539      -5.043  52.776   3.707  1.00 40.24 LIG 0.40  C 
ATOM     61  N   ILE B1539      -4.718  53.531   2.454  1.00 42.50 LIG 0.61  N 
BRANCH 60 62
ATOM     62  CB  ILE B1539      -6.545  52.367   3.762  1.00 40.48 LIG 0.03  C 
ATOM     63  CG2 ILE B1539      -7.290  52.964   2.569  1.00 38.85 LIG 0.01  C 
BRANCH 62 64
ATOM     64  CG1 ILE B1539      -6.691  50.841   3.761  1.00 39.99 LIG 0.00  C 
ATOM     65  CD1 ILE B1539      -7.110  50.270   2.399  1.00 39.67 LIG 0.01  C 
ENDBRANCH 62 64
ENDBRANCH 60 62
ENDBRANCH 58 60
ENDBRANCH 54 56
ENDBRANCH 51 54
ENDBRANCH 48 50
ENDBRANCH 45 48
ENDBRANCH 43 44
BRANCH 43 66
ATOM     66  CB  TRP B1542      -6.198  42.428   4.250  1.00 29.93 LIG 0.07  C 
BRANCH 66 67
ATOM     67  CG  TRP B1542      -6.648  41.457   5.344  1.00 31.09 LIG-0.03  A 
ATOM     68  CD1 TRP B1542      -7.897  41.383   5.908  1.00 35.00 LIG 0.10  A 
ATOM     69  NE1 TRP B1542      -7.944  40.361   6.838  1.00 35.42 LIG-0.36  N 
ATOM     70 HE1  TRP B1542      -8.632  40.142   7.306  1.00 35.42 LIG 0.17  HD
ATOM     71  CE2 TRP B1542      -6.715  39.753   6.893  1.00 34.23 LIG 0.04  A 
ATOM     72  CD2 TRP B1542      -5.868  40.417   5.968  1.00 31.85 LIG-0.00  A 
ATOM     73  CZ2 TRP B1542      -6.276  38.674   7.678  1.00 32.49 LIG 0.03  A 
ATOM     74  CE3 TRP B1542      -4.542  39.980   5.835  1.00 30.05 LIG 0.01  A 
ATOM     75  CZ3 TRP B1542      -4.104  38.906   6.615  1.00 29.28 LIG 0.00  A 
ATOM     76  CH2 TRP B1542      -4.976  38.265   7.527  1.00 32.34 LIG 0.00  A 
ENDBRANCH 66 67
ENDBRANCH 43 66
ENDBRANCH 1 43
TORSDOF 26
ENDMDL
MODEL 45
USER: ADFR SOLUTION from run 163
USER: SCORE 20.611247 LL:  -6.702 LR: -17.493 RR:   0.000 FEB:  -9.737
USER: RMSD 7.828380
USER: SEED 162
USER: STATUS no improvement in best in 1 clusters for 5 generations
USER: GENES 28
USER: genes 0 Translation |==|  0.48142 0.23402 0.60327
USER: genes 1 Rotation |==|  0.80645 0.26059 0.19448 0.57371
USER: genes 2 Torsion [C]-N--CA-[CB] |==|  0.27981
USER: genes 3 Torsion [N]-CA--CB-[CG] |==|  0.97542
USER: genes 4 Torsion [CA]-CB--CG-[CD1] |==|  0.72373
USER: genes 5 Torsion [CE1]-CZ--OH-[HH] |==|  0.08985
USER: genes 6 Torsion [N]-CA--C-[N] |==|  0.26033
USER: genes 7 Torsion [C]-N--CA-[CB] |==|  0.84153
USER: genes 8 Torsion [N]-CA--C-[N] |==|  0.30002
USER: genes 9 Torsion [C]-N--CA-[CB] |==|  0.48520
USER: genes 10 Torsion [N]-CA--CB-[CG] |==|  0.57750
USER: genes 11 Torsion [CA]-CB--CG-[CD] |==|  0.71061
USER: genes 12 Torsion [CB]-CG--CD-[NE] |==|  0.32923
USER: genes 13 Torsion [CG]-CD--NE-[HE] |==|  0.77175
USER: genes 14 Torsion [N]-CA--C-[O] |==|  0.48027
USER: genes 15 Torsion [N]-CA--CB-[CG] |==|  0.62136
USER: genes 16 Torsion [CA]-CB--CG-[CD1] |==|  0.84981
USER: genes 17 Torsion [N]-C--CA-[N] |==|  0.95505
USER: genes 18 Torsion [C]-CA--N-[C] |==|  0.64274
USER: genes 19 Torsion [N]-C--CA-[N] |==|  0.00209
USER: genes 20 Torsion [C]-CA--N-[C] |==|  0.74041
USER: genes 21 Torsion [N]-C--CA-[N] |==|  0.45617
USER: genes 22 Torsion [C]-CA--N-[C] |==|  0.16996
USER: genes 23 Torsion [N]-C--CA-[N] |==|  0.24836
USER: genes 24 Torsion [C]-CA--CB-[CG1] |==|  0.59569
USER: genes 25 Torsion [CA]-CB--CG1-[CD1] |==|  0.46309
USER: genes 26 Torsion [C]-CA--CB-[CG] |==|  0.40955
USER: genes 27 Torsion [CA]-CB--CG-[CD1] |==|  0.42240
ROOT
ATOM      1  C   TRP B1542      -2.890  38.775   4.406  1.00 26.55 LIG 0.24  C 
ATOM      2 O    TRP B1542      -2.853  37.591   4.106  1.00 27.86 LIG-0.27  OA
ATOM      3  N   TYR B1543      -3.372  39.705   3.590  1.00 24.62 LIG-0.35  N 
ATOM      4 H    TYR B1543      -3.339  40.550   3.746  1.00 24.62 LIG 0.16  HD
ENDROOT
BRANCH 3 5
ATOM      5  CA  TYR B1543      -4.008  39.345   2.336  1.00 22.31 LIG 0.18  C 
BRANCH 5 6
ATOM      6  CB  TYR B1543      -5.527  39.411   2.520  1.00 23.67 LIG 0.07  C 
BRANCH 6 7
ATOM      7  CG  TYR B1543      -6.004  39.612   3.945  1.00 24.58 LIG-0.06  A 
ATOM      8  CD1 TYR B1543      -6.447  38.531   4.707  1.00 24.59 LIG 0.01  A 
ATOM      9  CE1 TYR B1543      -6.954  38.715   5.985  1.00 26.50 LIG 0.04  A 
ATOM     10  CZ  TYR B1543      -7.022  39.994   6.503  1.00 24.60 LIG 0.07  A 
ATOM     11  CE2 TYR B1543      -6.576  41.083   5.759  1.00 24.06 LIG 0.04  A 
ATOM     12  CD2 TYR B1543      -6.072  40.883   4.502  1.00 22.62 LIG 0.01  A 
BRANCH 10 13
ATOM     13 OH   TYR B1543      -7.564  40.190   7.740  1.00 26.51 LIG-0.36  OA
ATOM     14 HH   TYR B1543      -7.405  39.522   8.225  1.00 26.51 LIG 0.22  HD
ENDBRANCH 10 13
ENDBRANCH 6 7
ENDBRANCH 5 6
BRANCH 5 15
ATOM     15  C   TYR B1543      -3.622  40.083   1.065  1.00 22.90 LIG 0.24  C 
ATOM     16  N   LEU B1544      -2.671  39.540   0.318  1.00 22.60 LIG-0.35  N 
ATOM     17 H    LEU B1544      -2.285  38.790   0.487  1.00 22.60 LIG 0.16  HD
ATOM     18 O    TYR B1543      -4.171  41.138   0.769  1.00 21.43 LIG-0.27  OA
BRANCH 16 19
ATOM     19  CA  LEU B1544      -2.207  40.216  -0.883  1.00 22.81 LIG 0.18  C 
BRANCH 19 20
ATOM     20  C   LEU B1544      -1.494  41.526  -0.562  1.00 21.53 LIG 0.24  C 
ATOM     21 O    LEU B1544      -2.124  42.516  -0.172  1.00 22.00 LIG-0.27  OA
ATOM     22  N   ARG B1545      -0.176  41.534  -0.728  1.00 20.14 LIG-0.35  N 
ATOM     23 H    ARG B1545       0.291  40.864  -0.999  1.00 20.14 LIG 0.16  HD
BRANCH 22 24
ATOM     24  CA  ARG B1545       0.576  42.744  -0.444  1.00 18.95 LIG 0.16  C 
BRANCH 24 25
ATOM     25  CB  ARG B1545       2.081  42.475  -0.581  1.00 20.51 LIG 0.04  C 
BRANCH 25 26
ATOM     26  CG  ARG B1545       2.870  43.419   0.327  1.00 20.78 LIG 0.02  C 
BRANCH 26 27
ATOM     27  CD  ARG B1545       3.546  44.558  -0.431  1.00 21.13 LIG 0.14  C 
BRANCH 27 28
ATOM     28  NE  ARG B1545       3.034  45.856   0.021  1.00 20.56 LIG-0.23  N 
ATOM     29 HE   ARG B1545       2.292  46.137  -0.311  1.00 20.56 LIG 0.18  HD
ATOM     30  CZ  ARG B1545       3.650  46.623   0.915  1.00 23.27 LIG 0.67  C 
ATOM     31  NH2 ARG B1545       3.134  47.812   1.255  1.00 19.37 LIG-0.23  N 
ATOM     32  NH1 ARG B1545       4.793  46.212   1.449  1.00 20.25 LIG-0.23  N 
ATOM     33 1HH2 ARG B1545       2.402  48.082   0.894  1.00 19.37 LIG 0.17  HD
ATOM     34 2HH2 ARG B1545       3.536  48.305   1.833  1.00 19.37 LIG 0.17  HD
ATOM     35 1HH1 ARG B1545       5.129  45.455   1.216  1.00 20.25 LIG 0.17  HD
ATOM     36 2HH1 ARG B1545       5.198  46.702   2.028  1.00 20.25 LIG 0.17  HD
ENDBRANCH 27 28
ENDBRANCH 26 27
ENDBRANCH 25 26
ENDBRANCH 24 25
BRANCH 24 37
ATOM     37  C   ARG B1545       0.131  43.922  -1.301  1.00 20.11 LIG 0.22  C 
ATOM     38 O    ARG B1545       0.630  45.040  -1.028  1.00 20.61 LIG-0.29  OA
ENDBRANCH 24 37
ENDBRANCH 22 24
ENDBRANCH 19 20
BRANCH 19 39
ATOM     39  CB  LEU B1544      -3.391  40.461  -1.826  1.00 22.71 LIG 0.04  C 
BRANCH 39 40
ATOM     40  CG  LEU B1544      -3.110  40.151  -3.305  1.00 23.46 LIG-0.02  C 
ATOM     41  CD1 LEU B1544      -1.864  40.931  -3.738  1.00 24.99 LIG 0.01  C 
ATOM     42  CD2 LEU B1544      -2.908  38.658  -3.527  1.00 22.67 LIG 0.01  C 
ENDBRANCH 39 40
ENDBRANCH 19 39
ENDBRANCH 16 19
ENDBRANCH 5 15
ENDBRANCH 3 5
BRANCH 1 43
ATOM     43  CA  TRP B1542      -2.341  39.247   5.748  1.00 29.62 LIG 0.18  C 
BRANCH 43 44
ATOM     44  N   TRP B1542      -2.085  40.686   5.786  1.00 31.24 LIG-0.35  N 
ATOM     45  C   ALA B1541      -0.912  41.150   6.185  1.00 34.20 LIG 0.24  C 
ATOM     46 O    ALA B1541       0.013  40.406   6.499  1.00 33.88 LIG-0.27  OA
ATOM     47 H    TRP B1542      -2.744  41.179   5.533  1.00 31.24 LIG 0.16  HD
BRANCH 45 48
ATOM     48  CA  ALA B1541      -0.747  42.677   6.229  1.00 35.59 LIG 0.17  C 
ATOM     49  CB  ALA B1541      -0.292  43.115   7.640  1.00 37.24 LIG 0.04  C 
BRANCH 48 50
ATOM     50  N   ALA B1541      -1.927  43.458   5.835  1.00 36.68 LIG-0.35  N 
ATOM     51  C   ALA B1540      -2.111  43.885   4.588  1.00 36.41 LIG 0.24  C 
ATOM     52 O    ALA B1540      -1.333  43.613   3.668  1.00 35.55 LIG-0.27  OA
ATOM     53 H    ALA B1541      -2.479  43.610   6.477  1.00 36.68 LIG 0.16  HD
BRANCH 51 54
ATOM     54  CA  ALA B1540      -3.376  44.715   4.340  1.00 37.40 LIG 0.17  C 
ATOM     55  CB  ALA B1540      -4.618  43.810   4.359  1.00 38.11 LIG 0.04  C 
BRANCH 54 56
ATOM     56  N   ALA B1540      -3.320  45.442   3.073  1.00 38.31 LIG-0.35  N 
ATOM     57 H    ALA B1540      -3.361  46.297   3.158  1.00 38.31 LIG 0.16  HD
ATOM     58  C   ILE B1539      -3.215  44.827   1.904  1.00 39.48 LIG 0.26  C 
ATOM     59 O    ILE B1539      -3.168  43.609   1.799  1.00 40.50 LIG-0.27  OA
BRANCH 58 60
ATOM     60  CA  ILE B1539      -3.185  45.723   0.664  1.00 40.24 LIG 0.40  C 
ATOM     61  N   ILE B1539      -1.790  46.137   0.302  1.00 42.50 LIG 0.61  N 
BRANCH 60 62
ATOM     62  CB  ILE B1539      -3.876  44.947  -0.496  1.00 40.48 LIG 0.03  C 
ATOM     63  CG2 ILE B1539      -5.360  45.305  -0.549  1.00 38.85 LIG 0.01  C 
BRANCH 62 64
ATOM     64  CG1 ILE B1539      -3.209  45.273  -1.837  1.00 39.99 LIG 0.00  C 
ATOM     65  CD1 ILE B1539      -3.613  44.316  -2.967  1.00 39.67 LIG 0.01  C 
ENDBRANCH 62 64
ENDBRANCH 60 62
ENDBRANCH 58 60
ENDBRANCH 54 56
ENDBRANCH 51 54
ENDBRANCH 48 50
ENDBRANCH 45 48
ENDBRANCH 43 44
BRANCH 43 66
ATOM     66  CB  TRP B1542      -3.354  38.884   6.843  1.00 29.93 LIG 0.07  C 
BRANCH 66 67
ATOM     67  CG  TRP B1542      -2.709  38.552   8.190  1.00 31.09 LIG-0.03  A 
ATOM     68  CD1 TRP B1542      -3.275  38.712   9.430  1.00 35.00 LIG 0.10  A 
ATOM     69  NE1 TRP B1542      -2.409  38.273  10.414  1.00 35.42 LIG-0.36  N 
ATOM     70 HE1  TRP B1542      -2.567  38.282  11.259  1.00 35.42 LIG 0.17  HD
ATOM     71  CE2 TRP B1542      -1.257  37.819   9.822  1.00 34.23 LIG 0.04  A 
ATOM     72  CD2 TRP B1542      -1.405  37.980   8.420  1.00 31.85 LIG-0.00  A 
ATOM     73  CZ2 TRP B1542      -0.097  37.278  10.401  1.00 32.49 LIG 0.03  A 
ATOM     74  CE3 TRP B1542      -0.351  37.588   7.582  1.00 30.05 LIG 0.01  A 
ATOM     75  CZ3 TRP B1542       0.804  37.049   8.157  1.00 29.28 LIG 0.00  A 
ATOM     76  CH2 TRP B1542       0.917  36.900   9.560  1.00 32.34 LIG 0.00  A 
ENDBRANCH 66 67
ENDBRANCH 43 66
ENDBRANCH 1 43
TORSDOF 26
ENDMDL
MODEL 46
USER: ADFR SOLUTION from run 190
USER: SCORE 21.219309 LL:  -6.900 LR: -17.470 RR:   0.000 FEB:  -9.714
USER: RMSD 6.294207
USER: SEED 189
USER: STATUS no improvement in best in 8 clusters for 5 generations
USER: GENES 28
USER: genes 0 Translation |==|  0.40917 0.40238 0.63031
USER: genes 1 Rotation |==|  0.41046 0.73067 0.72685 0.87056
USER: genes 2 Torsion [C]-N--CA-[CB] |==|  0.55000
USER: genes 3 Torsion [N]-CA--CB-[CG] |==|  0.05995
USER: genes 4 Torsion [CA]-CB--CG-[CD1] |==|  0.66152
USER: genes 5 Torsion [CE1]-CZ--OH-[HH] |==|  0.37563
USER: genes 6 Torsion [N]-CA--C-[N] |==|  0.39489
USER: genes 7 Torsion [C]-N--CA-[CB] |==|  0.37495
USER: genes 8 Torsion [N]-CA--C-[N] |==|  0.34467
USER: genes 9 Torsion [C]-N--CA-[CB] |==|  0.22977
USER: genes 10 Torsion [N]-CA--CB-[CG] |==|  0.60909
USER: genes 11 Torsion [CA]-CB--CG-[CD] |==|  0.07762
USER: genes 12 Torsion [CB]-CG--CD-[NE] |==|  0.35791
USER: genes 13 Torsion [CG]-CD--NE-[HE] |==|  0.11592
USER: genes 14 Torsion [N]-CA--C-[O] |==|  0.63955
USER: genes 15 Torsion [N]-CA--CB-[CG] |==|  0.40209
USER: genes 16 Torsion [CA]-CB--CG-[CD1] |==|  0.38255
USER: genes 17 Torsion [N]-C--CA-[N] |==|  0.51100
USER: genes 18 Torsion [C]-CA--N-[C] |==|  0.77893
USER: genes 19 Torsion [N]-C--CA-[N] |==|  0.94252
USER: genes 20 Torsion [C]-CA--N-[C] |==|  0.83407
USER: genes 21 Torsion [N]-C--CA-[N] |==|  0.62694
USER: genes 22 Torsion [C]-CA--N-[C] |==|  0.14098
USER: genes 23 Torsion [N]-C--CA-[N] |==|  0.93426
USER: genes 24 Torsion [C]-CA--CB-[CG1] |==|  0.28596
USER: genes 25 Torsion [CA]-CB--CG1-[CD1] |==|  0.98412
USER: genes 26 Torsion [C]-CA--CB-[CG] |==|  0.56134
USER: genes 27 Torsion [CA]-CB--CG-[CD1] |==|  0.37870
ROOT
ATOM      1  C   TRP B1542      -4.570  42.058   4.913  1.00 26.55 LIG 0.24  C 
ATOM      2 O    TRP B1542      -4.916  42.482   3.820  1.00 27.86 LIG-0.27  OA
ATOM      3  N   TYR B1543      -3.333  42.199   5.375  1.00 24.62 LIG-0.35  N 
ATOM      4 H    TYR B1543      -3.045  41.845   6.104  1.00 24.62 LIG 0.16  HD
ENDROOT
BRANCH 3 5
ATOM      5  CA  TYR B1543      -2.349  42.986   4.654  1.00 22.31 LIG 0.18  C 
BRANCH 5 6
ATOM      6  CB  TYR B1543      -0.954  42.605   5.156  1.00 23.67 LIG 0.07  C 
BRANCH 6 7
ATOM      7  CG  TYR B1543      -0.848  41.249   5.826  1.00 24.58 LIG-0.06  A 
ATOM      8  CD1 TYR B1543      -0.388  41.136   7.137  1.00 24.59 LIG 0.01  A 
ATOM      9  CE1 TYR B1543      -0.218  39.895   7.732  1.00 26.50 LIG 0.04  A 
ATOM     10  CZ  TYR B1543      -0.507  38.756   7.006  1.00 24.60 LIG 0.07  A 
ATOM     11  CE2 TYR B1543      -0.975  38.852   5.698  1.00 24.06 LIG 0.04  A 
ATOM     12  CD2 TYR B1543      -1.143  40.085   5.128  1.00 22.62 LIG 0.01  A 
BRANCH 10 13
ATOM     13 OH   TYR B1543      -0.297  37.529   7.566  1.00 26.51 LIG-0.36  OA
ATOM     14 HH   TYR B1543      -0.958  37.034   7.412  1.00 26.51 LIG 0.22  HD
ENDBRANCH 10 13
ENDBRANCH 6 7
ENDBRANCH 5 6
BRANCH 5 15
ATOM     15  C   TYR B1543      -2.356  42.979   3.134  1.00 22.90 LIG 0.24  C 
ATOM     16  N   LEU B1544      -2.084  44.125   2.526  1.00 22.60 LIG-0.35  N 
ATOM     17 H    LEU B1544      -1.874  44.855   2.929  1.00 22.60 LIG 0.16  HD
ATOM     18 O    TYR B1543      -2.617  41.951   2.519  1.00 21.43 LIG-0.27  OA
BRANCH 16 19
ATOM     19  CA  LEU B1544      -2.127  44.212   1.075  1.00 22.81 LIG 0.18  C 
BRANCH 19 20
ATOM     20  C   LEU B1544      -0.733  44.175   0.458  1.00 21.53 LIG 0.24  C 
ATOM     21 O    LEU B1544       0.134  44.990   0.790  1.00 22.00 LIG-0.27  OA
ATOM     22  N   ARG B1545      -0.516  43.226  -0.447  1.00 20.14 LIG-0.35  N 
ATOM     23 H    ARG B1545      -1.097  42.645  -0.701  1.00 20.14 LIG 0.16  HD
BRANCH 22 24
ATOM     24  CA  ARG B1545       0.787  43.123  -1.082  1.00 18.95 LIG 0.16  C 
BRANCH 24 25
ATOM     25  CB  ARG B1545       1.753  42.342  -0.181  1.00 20.51 LIG 0.04  C 
BRANCH 25 26
ATOM     26  CG  ARG B1545       3.145  42.973  -0.228  1.00 20.78 LIG 0.02  C 
BRANCH 26 27
ATOM     27  CD  ARG B1545       3.118  44.469  -0.530  1.00 21.13 LIG 0.14  C 
BRANCH 27 28
ATOM     28  NE  ARG B1545       3.908  45.211   0.457  1.00 20.56 LIG-0.23  N 
ATOM     29 HE   ARG B1545       4.663  44.879   0.703  1.00 20.56 LIG 0.18  HD
ATOM     30  CZ  ARG B1545       3.527  46.365   0.994  1.00 23.27 LIG 0.67  C 
ATOM     31  NH2 ARG B1545       4.292  46.968   1.915  1.00 19.37 LIG-0.23  N 
ATOM     32  NH1 ARG B1545       2.371  46.904   0.628  1.00 20.25 LIG-0.23  N 
ATOM     33 1HH2 ARG B1545       5.033  46.608   2.161  1.00 19.37 LIG 0.17  HD
ATOM     34 2HH2 ARG B1545       4.042  47.714   2.259  1.00 19.37 LIG 0.17  HD
ATOM     35 1HH1 ARG B1545       1.875  46.506   0.049  1.00 20.25 LIG 0.17  HD
ATOM     36 2HH1 ARG B1545       2.117  47.650   0.971  1.00 20.25 LIG 0.17  HD
ENDBRANCH 27 28
ENDBRANCH 26 27
ENDBRANCH 25 26
ENDBRANCH 24 25
BRANCH 24 37
ATOM     37  C   ARG B1545       0.709  42.527  -2.481  1.00 20.11 LIG 0.22  C 
ATOM     38 O    ARG B1545       1.489  41.579  -2.736  1.00 20.61 LIG-0.29  OA
ENDBRANCH 24 37
ENDBRANCH 22 24
ENDBRANCH 19 20
BRANCH 19 39
ATOM     39  CB  LEU B1544      -2.870  45.488   0.657  1.00 22.71 LIG 0.04  C 
BRANCH 39 40
ATOM     40  CG  LEU B1544      -2.324  46.162  -0.612  1.00 23.46 LIG-0.02  C 
ATOM     41  CD1 LEU B1544      -3.509  46.609  -1.474  1.00 24.99 LIG 0.01  C 
ATOM     42  CD2 LEU B1544      -1.437  47.352  -0.267  1.00 22.67 LIG 0.01  C 
ENDBRANCH 39 40
ENDBRANCH 19 39
ENDBRANCH 16 19
ENDBRANCH 5 15
ENDBRANCH 3 5
BRANCH 1 43
ATOM     43  CA  TRP B1542      -5.558  41.306   5.797  1.00 29.62 LIG 0.18  C 
BRANCH 43 44
ATOM     44  N   TRP B1542      -6.864  41.124   5.166  1.00 31.24 LIG-0.35  N 
ATOM     45  C   ALA B1541      -7.745  42.110   5.146  1.00 34.20 LIG 0.24  C 
ATOM     46 O    ALA B1541      -7.497  43.219   5.614  1.00 33.88 LIG-0.27  OA
ATOM     47 H    TRP B1542      -6.996  40.345   4.824  1.00 31.24 LIG 0.16  HD
BRANCH 45 48
ATOM     48  CA  ALA B1541      -9.105  41.815   4.496  1.00 35.59 LIG 0.17  C 
ATOM     49  CB  ALA B1541     -10.177  41.607   5.591  1.00 37.24 LIG 0.04  C 
BRANCH 48 50
ATOM     50  N   ALA B1541      -9.134  40.676   3.566  1.00 36.68 LIG-0.35  N 
ATOM     51  C   ALA B1540      -8.373  40.633   2.477  1.00 36.41 LIG 0.24  C 
ATOM     52 O    ALA B1540      -7.556  41.516   2.197  1.00 35.55 LIG-0.27  OA
ATOM     53 H    ALA B1541      -9.681  40.052   3.792  1.00 36.68 LIG 0.16  HD
BRANCH 51 54
ATOM     54  CA  ALA B1540      -8.539  39.393   1.589  1.00 37.40 LIG 0.17  C 
ATOM     55  CB  ALA B1540      -9.356  38.318   2.323  1.00 38.11 LIG 0.04  C 
BRANCH 54 56
ATOM     56  N   ALA B1540      -7.253  38.833   1.177  1.00 38.31 LIG-0.35  N 
ATOM     57 H    ALA B1540      -7.185  38.697   0.331  1.00 38.31 LIG 0.16  HD
ATOM     58  C   ILE B1539      -6.284  38.563   2.042  1.00 39.48 LIG 0.26  C 
ATOM     59 O    ILE B1539      -6.400  38.752   3.245  1.00 40.50 LIG-0.27  OA
BRANCH 58 60
ATOM     60  CA  ILE B1539      -5.002  37.964   1.460  1.00 40.24 LIG 0.40  C 
ATOM     61  N   ILE B1539      -5.245  37.273   0.153  1.00 42.50 LIG 0.61  N 
BRANCH 60 62
ATOM     62  CB  ILE B1539      -3.965  39.118   1.320  1.00 40.48 LIG 0.03  C 
ATOM     63  CG2 ILE B1539      -4.682  40.466   1.350  1.00 38.85 LIG 0.01  C 
BRANCH 62 64
ATOM     64  CG1 ILE B1539      -2.926  39.051   2.445  1.00 39.99 LIG 0.00  C 
ATOM     65  CD1 ILE B1539      -3.232  37.975   3.495  1.00 39.67 LIG 0.01  C 
ENDBRANCH 62 64
ENDBRANCH 60 62
ENDBRANCH 58 60
ENDBRANCH 54 56
ENDBRANCH 51 54
ENDBRANCH 48 50
ENDBRANCH 45 48
ENDBRANCH 43 44
BRANCH 43 66
ATOM     66  CB  TRP B1542      -4.961  39.932   6.134  1.00 29.93 LIG 0.07  C 
BRANCH 66 67
ATOM     67  CG  TRP B1542      -6.007  38.891   6.538  1.00 31.09 LIG-0.03  A 
ATOM     68  CD1 TRP B1542      -6.062  37.583   6.126  1.00 35.00 LIG 0.10  A 
ATOM     69  NE1 TRP B1542      -7.126  36.935   6.725  1.00 35.42 LIG-0.36  N 
ATOM     70 HE1  TRP B1542      -7.340  36.110   6.606  1.00 35.42 LIG 0.17  HD
ATOM     71  CE2 TRP B1542      -7.785  37.820   7.541  1.00 34.23 LIG 0.04  A 
ATOM     72  CD2 TRP B1542      -7.112  39.066   7.449  1.00 31.85 LIG-0.00  A 
ATOM     73  CZ2 TRP B1542      -8.914  37.630   8.353  1.00 32.49 LIG 0.03  A 
ATOM     74  CE3 TRP B1542      -7.597  40.150   8.195  1.00 30.05 LIG 0.01  A 
ATOM     75  CZ3 TRP B1542      -8.722  39.962   9.005  1.00 29.28 LIG 0.00  A 
ATOM     76  CH2 TRP B1542      -9.367  38.704   9.075  1.00 32.34 LIG 0.00  A 
ENDBRANCH 66 67
ENDBRANCH 43 66
ENDBRANCH 1 43
TORSDOF 26
ENDMDL
MODEL 47
USER: ADFR SOLUTION from run 34
USER: SCORE 21.821117 LL:  -6.043 LR: -17.462 RR:   0.000 FEB:  -9.706
USER: RMSD 7.539955
USER: SEED 33
USER: STATUS no improvement in best in 7 clusters for 5 generations
USER: GENES 28
USER: genes 0 Translation |==|  0.51677 0.49247 0.47403
USER: genes 1 Rotation |==|  0.30771 0.26641 0.65127 0.86821
USER: genes 2 Torsion [C]-N--CA-[CB] |==|  0.83684
USER: genes 3 Torsion [N]-CA--CB-[CG] |==|  0.80389
USER: genes 4 Torsion [CA]-CB--CG-[CD1] |==|  0.61989
USER: genes 5 Torsion [CE1]-CZ--OH-[HH] |==|  0.00031
USER: genes 6 Torsion [N]-CA--C-[N] |==|  0.87689
USER: genes 7 Torsion [C]-N--CA-[CB] |==|  0.81549
USER: genes 8 Torsion [N]-CA--C-[N] |==|  0.56111
USER: genes 9 Torsion [C]-N--CA-[CB] |==|  0.84522
USER: genes 10 Torsion [N]-CA--CB-[CG] |==|  0.85757
USER: genes 11 Torsion [CA]-CB--CG-[CD] |==|  0.65259
USER: genes 12 Torsion [CB]-CG--CD-[NE] |==|  0.88402
USER: genes 13 Torsion [CG]-CD--NE-[HE] |==|  0.92419
USER: genes 14 Torsion [N]-CA--C-[O] |==|  0.14473
USER: genes 15 Torsion [N]-CA--CB-[CG] |==|  0.83023
USER: genes 16 Torsion [CA]-CB--CG-[CD1] |==|  0.91464
USER: genes 17 Torsion [N]-C--CA-[N] |==|  0.03294
USER: genes 18 Torsion [C]-CA--N-[C] |==|  0.64696
USER: genes 19 Torsion [N]-C--CA-[N] |==|  0.87243
USER: genes 20 Torsion [C]-CA--N-[C] |==|  0.88539
USER: genes 21 Torsion [N]-C--CA-[N] |==|  0.41831
USER: genes 22 Torsion [C]-CA--N-[C] |==|  0.80523
USER: genes 23 Torsion [N]-C--CA-[N] |==|  0.43385
USER: genes 24 Torsion [C]-CA--CB-[CG1] |==|  0.88110
USER: genes 25 Torsion [CA]-CB--CG1-[CD1] |==|  0.56053
USER: genes 26 Torsion [C]-CA--CB-[CG] |==|  0.13704
USER: genes 27 Torsion [CA]-CB--CG-[CD1] |==|  0.66963
ROOT
ATOM      1  C   TRP B1542      -2.068  43.815   1.983  1.00 26.55 LIG 0.24  C 
ATOM      2 O    TRP B1542      -1.272  44.740   2.064  1.00 27.86 LIG-0.27  OA
ATOM      3  N   TYR B1543      -2.935  43.532   2.948  1.00 24.62 LIG-0.35  N 
ATOM      4 H    TYR B1543      -3.451  42.844   2.949  1.00 24.62 LIG 0.16  HD
ENDROOT
BRANCH 3 5
ATOM      5  CA  TYR B1543      -3.075  44.395   4.107  1.00 22.31 LIG 0.18  C 
BRANCH 5 6
ATOM      6  CB  TYR B1543      -1.720  44.491   4.813  1.00 23.67 LIG 0.07  C 
BRANCH 6 7
ATOM      7  CG  TYR B1543      -1.266  43.234   5.528  1.00 24.58 LIG-0.06  A 
ATOM      8  CD1 TYR B1543      -0.695  43.302   6.798  1.00 24.59 LIG 0.01  A 
ATOM      9  CE1 TYR B1543      -0.209  42.166   7.427  1.00 26.50 LIG 0.04  A 
ATOM     10  CZ  TYR B1543      -0.292  40.950   6.777  1.00 24.60 LIG 0.07  A 
ATOM     11  CE2 TYR B1543      -0.866  40.863   5.511  1.00 24.06 LIG 0.04  A 
ATOM     12  CD2 TYR B1543      -1.347  41.992   4.907  1.00 22.62 LIG 0.01  A 
BRANCH 10 13
ATOM     13 OH   TYR B1543       0.227  39.834   7.368  1.00 26.51 LIG-0.36  OA
ATOM     14 HH   TYR B1543       0.557  40.040   8.113  1.00 26.51 LIG 0.22  HD
ENDBRANCH 10 13
ENDBRANCH 6 7
ENDBRANCH 5 6
BRANCH 5 15
ATOM     15  C   TYR B1543      -3.652  45.791   3.932  1.00 22.90 LIG 0.24  C 
ATOM     16  N   LEU B1544      -3.208  46.501   2.904  1.00 22.60 LIG-0.35  N 
ATOM     17 H    LEU B1544      -2.647  46.216   2.318  1.00 22.60 LIG 0.16  HD
ATOM     18 O    TYR B1543      -4.480  46.224   4.725  1.00 21.43 LIG-0.27  OA
BRANCH 16 19
ATOM     19  CA  LEU B1544      -3.670  47.866   2.703  1.00 22.81 LIG 0.18  C 
BRANCH 19 20
ATOM     20  C   LEU B1544      -3.399  48.745   3.920  1.00 21.53 LIG 0.24  C 
ATOM     21 O    LEU B1544      -2.527  48.445   4.743  1.00 22.00 LIG-0.27  OA
ATOM     22  N   ARG B1545      -4.151  49.834   4.037  1.00 20.14 LIG-0.35  N 
ATOM     23 H    ARG B1545      -4.766  50.070   3.484  1.00 20.14 LIG 0.16  HD
BRANCH 22 24
ATOM     24  CA  ARG B1545      -3.955  50.724   5.169  1.00 18.95 LIG 0.16  C 
BRANCH 24 25
ATOM     25  CB  ARG B1545      -4.095  49.944   6.483  1.00 20.51 LIG 0.04  C 
BRANCH 25 26
ATOM     26  CG  ARG B1545      -5.399  49.146   6.486  1.00 20.78 LIG 0.02  C 
BRANCH 26 27
ATOM     27  CD  ARG B1545      -6.284  49.442   7.693  1.00 21.13 LIG 0.14  C 
BRANCH 27 28
ATOM     28  NE  ARG B1545      -5.478  49.540   8.914  1.00 20.56 LIG-0.23  N 
ATOM     29 HE   ARG B1545      -4.738  49.102   8.947  1.00 20.56 LIG 0.18  HD
ATOM     30  CZ  ARG B1545      -5.823  50.265   9.973  1.00 23.27 LIG 0.67  C 
ATOM     31  NH2 ARG B1545      -5.047  50.279  11.065  1.00 19.37 LIG-0.23  N 
ATOM     32  NH1 ARG B1545      -6.956  50.956   9.948  1.00 20.25 LIG-0.23  N 
ATOM     33 1HH2 ARG B1545      -4.322  49.818  11.083  1.00 19.37 LIG 0.17  HD
ATOM     34 2HH2 ARG B1545      -5.274  50.749  11.747  1.00 19.37 LIG 0.17  HD
ATOM     35 1HH1 ARG B1545      -7.459  50.931   9.251  1.00 20.25 LIG 0.17  HD
ATOM     36 2HH1 ARG B1545      -7.187  51.427  10.629  1.00 20.25 LIG 0.17  HD
ENDBRANCH 27 28
ENDBRANCH 26 27
ENDBRANCH 25 26
ENDBRANCH 24 25
BRANCH 24 37
ATOM     37  C   ARG B1545      -2.635  51.480   5.095  1.00 20.11 LIG 0.22  C 
ATOM     38 O    ARG B1545      -2.397  52.098   4.030  1.00 20.61 LIG-0.29  OA
ENDBRANCH 24 37
ENDBRANCH 22 24
ENDBRANCH 19 20
BRANCH 19 39
ATOM     39  CB  LEU B1544      -5.165  47.859   2.363  1.00 22.71 LIG 0.04  C 
BRANCH 39 40
ATOM     40  CG  LEU B1544      -5.528  47.101   1.076  1.00 23.46 LIG-0.02  C 
ATOM     41  CD1 LEU B1544      -4.352  47.206   0.100  1.00 24.99 LIG 0.01  C 
ATOM     42  CD2 LEU B1544      -5.849  45.640   1.368  1.00 22.67 LIG 0.01  C 
ENDBRANCH 39 40
ENDBRANCH 19 39
ENDBRANCH 16 19
ENDBRANCH 5 15
ENDBRANCH 3 5
BRANCH 1 43
ATOM     43  CA  TRP B1542      -2.075  42.909   0.757  1.00 29.62 LIG 0.18  C 
BRANCH 43 44
ATOM     44  N   TRP B1542      -3.233  42.018   0.712  1.00 31.24 LIG-0.35  N 
ATOM     45  C   ALA B1541      -3.073  40.714   0.562  1.00 34.20 LIG 0.24  C 
ATOM     46 O    ALA B1541      -1.961  40.194   0.496  1.00 33.88 LIG-0.27  OA
ATOM     47 H    TRP B1542      -3.995  42.410   0.789  1.00 31.24 LIG 0.16  HD
BRANCH 45 48
ATOM     48  CA  ALA B1541      -4.348  39.861   0.487  1.00 35.59 LIG 0.17  C 
ATOM     49  CB  ALA B1541      -4.971  39.970  -0.925  1.00 37.24 LIG 0.04  C 
BRANCH 48 50
ATOM     50  N   ALA B1541      -5.376  40.159   1.494  1.00 36.68 LIG-0.35  N 
ATOM     51  C   ALA B1540      -5.071  40.410   2.764  1.00 36.41 LIG 0.24  C 
ATOM     52 O    ALA B1540      -3.906  40.460   3.174  1.00 35.55 LIG-0.27  OA
ATOM     53 H    ALA B1541      -6.179  40.156   1.188  1.00 36.68 LIG 0.16  HD
BRANCH 51 54
ATOM     54  CA  ALA B1540      -6.255  40.672   3.702  1.00 37.40 LIG 0.17  C 
ATOM     55  CB  ALA B1540      -6.637  42.161   3.674  1.00 38.11 LIG 0.04  C 
BRANCH 54 56
ATOM     56  N   ALA B1540      -5.972  40.266   5.077  1.00 38.31 LIG-0.35  N 
ATOM     57 H    ALA B1540      -5.884  40.924   5.625  1.00 38.31 LIG 0.16  HD
ATOM     58  C   ILE B1539      -5.862  38.995   5.436  1.00 39.48 LIG 0.26  C 
ATOM     59 O    ILE B1539      -5.980  38.071   4.642  1.00 40.50 LIG-0.27  OA
BRANCH 58 60
ATOM     60  CA  ILE B1539      -5.546  38.729   6.909  1.00 40.24 LIG 0.40  C 
ATOM     61  N   ILE B1539      -5.992  37.365   7.343  1.00 42.50 LIG 0.61  N 
BRANCH 60 62
ATOM     62  CB  ILE B1539      -4.014  38.925   7.105  1.00 40.48 LIG 0.03  C 
ATOM     63  CG2 ILE B1539      -3.577  38.310   8.434  1.00 38.85 LIG 0.01  C 
BRANCH 62 64
ATOM     64  CG1 ILE B1539      -3.234  38.285   5.950  1.00 39.99 LIG 0.00  C 
ATOM     65  CD1 ILE B1539      -1.776  37.963   6.304  1.00 39.67 LIG 0.01  C 
ENDBRANCH 62 64
ENDBRANCH 60 62
ENDBRANCH 58 60
ENDBRANCH 54 56
ENDBRANCH 51 54
ENDBRANCH 48 50
ENDBRANCH 45 48
ENDBRANCH 43 44
BRANCH 43 66
ATOM     66  CB  TRP B1542      -2.063  43.790  -0.499  1.00 29.93 LIG 0.07  C 
BRANCH 66 67
ATOM     67  CG  TRP B1542      -0.989  44.880  -0.476  1.00 31.09 LIG-0.03  A 
ATOM     68  CD1 TRP B1542      -1.198  46.236  -0.524  1.00 35.00 LIG 0.10  A 
ATOM     69  NE1 TRP B1542       0.006  46.910  -0.447  1.00 35.42 LIG-0.36  N 
ATOM     70 HE1  TRP B1542       0.102  47.765  -0.459  1.00 35.42 LIG 0.17  HD
ATOM     71  CE2 TRP B1542       1.024  45.994  -0.348  1.00 34.23 LIG 0.04  A 
ATOM     72  CD2 TRP B1542       0.438  44.702  -0.366  1.00 31.85 LIG-0.00  A 
ATOM     73  CZ2 TRP B1542       2.410  46.193  -0.243  1.00 32.49 LIG 0.03  A 
ATOM     74  CE3 TRP B1542       1.276  43.581  -0.278  1.00 30.05 LIG 0.01  A 
ATOM     75  CZ3 TRP B1542       2.656  43.777  -0.173  1.00 29.28 LIG 0.00  A 
ATOM     76  CH2 TRP B1542       3.207  45.081  -0.156  1.00 32.34 LIG 0.00  A 
ENDBRANCH 66 67
ENDBRANCH 43 66
ENDBRANCH 1 43
TORSDOF 26
ENDMDL
MODEL 48
USER: ADFR SOLUTION from run 125
USER: SCORE 21.019853 LL:  -6.199 LR: -17.435 RR:   0.000 FEB:  -9.679
USER: RMSD 6.380125
USER: SEED 124
USER: STATUS searching
USER: GENES 28
USER: genes 0 Translation |==|  0.43222 0.43294 0.58479
USER: genes 1 Rotation |==|  0.98040 0.59240 0.45534 0.59319
USER: genes 2 Torsion [C]-N--CA-[CB] |==|  0.82497
USER: genes 3 Torsion [N]-CA--CB-[CG] |==|  0.49629
USER: genes 4 Torsion [CA]-CB--CG-[CD1] |==|  0.80440
USER: genes 5 Torsion [CE1]-CZ--OH-[HH] |==|  0.65940
USER: genes 6 Torsion [N]-CA--C-[N] |==|  0.31719
USER: genes 7 Torsion [C]-N--CA-[CB] |==|  0.44616
USER: genes 8 Torsion [N]-CA--C-[N] |==|  0.38088
USER: genes 9 Torsion [C]-N--CA-[CB] |==|  0.35577
USER: genes 10 Torsion [N]-CA--CB-[CG] |==|  0.68931
USER: genes 11 Torsion [CA]-CB--CG-[CD] |==|  0.88129
USER: genes 12 Torsion [CB]-CG--CD-[NE] |==|  0.43846
USER: genes 13 Torsion [CG]-CD--NE-[HE] |==|  0.70585
USER: genes 14 Torsion [N]-CA--C-[O] |==|  0.03958
USER: genes 15 Torsion [N]-CA--CB-[CG] |==|  0.39369
USER: genes 16 Torsion [CA]-CB--CG-[CD1] |==|  0.35301
USER: genes 17 Torsion [N]-C--CA-[N] |==|  0.84316
USER: genes 18 Torsion [C]-CA--N-[C] |==|  0.19861
USER: genes 19 Torsion [N]-C--CA-[N] |==|  0.14938
USER: genes 20 Torsion [C]-CA--N-[C] |==|  0.14082
USER: genes 21 Torsion [N]-C--CA-[N] |==|  0.46561
USER: genes 22 Torsion [C]-CA--N-[C] |==|  0.83888
USER: genes 23 Torsion [N]-C--CA-[N] |==|  0.90059
USER: genes 24 Torsion [C]-CA--CB-[CG1] |==|  0.02595
USER: genes 25 Torsion [CA]-CB--CG1-[CD1] |==|  0.68179
USER: genes 26 Torsion [C]-CA--CB-[CG] |==|  0.44226
USER: genes 27 Torsion [CA]-CB--CG-[CD1] |==|  0.65247
ROOT
ATOM      1  C   TRP B1542      -4.034  42.654   4.060  1.00 26.55 LIG 0.24  C 
ATOM      2 O    TRP B1542      -2.861  42.881   4.322  1.00 27.86 LIG-0.27  OA
ATOM      3  N   TYR B1543      -4.589  43.004   2.906  1.00 24.62 LIG-0.35  N 
ATOM      4 H    TYR B1543      -5.427  42.924   2.728  1.00 24.62 LIG 0.16  HD
ENDROOT
BRANCH 3 5
ATOM      5  CA  TYR B1543      -3.791  43.562   1.829  1.00 22.31 LIG 0.18  C 
BRANCH 5 6
ATOM      6  CB  TYR B1543      -3.193  44.891   2.300  1.00 23.67 LIG 0.07  C 
BRANCH 6 7
ATOM      7  CG  TYR B1543      -2.300  45.596   1.299  1.00 24.58 LIG-0.06  A 
ATOM      8  CD1 TYR B1543      -1.045  45.081   0.977  1.00 24.59 LIG 0.01  A 
ATOM      9  CE1 TYR B1543      -0.191  45.758   0.118  1.00 26.50 LIG 0.04  A 
ATOM     10  CZ  TYR B1543      -0.597  46.965  -0.418  1.00 24.60 LIG 0.07  A 
ATOM     11  CE2 TYR B1543      -1.850  47.490  -0.113  1.00 24.06 LIG 0.04  A 
ATOM     12  CD2 TYR B1543      -2.683  46.805   0.730  1.00 22.62 LIG 0.01  A 
BRANCH 10 13
ATOM     13 OH   TYR B1543       0.256  47.662  -1.225  1.00 26.51 LIG-0.36  OA
ATOM     14 HH   TYR B1543       0.380  48.429  -0.905  1.00 26.51 LIG 0.22  HD
ENDBRANCH 10 13
ENDBRANCH 6 7
ENDBRANCH 5 6
BRANCH 5 15
ATOM     15  C   TYR B1543      -2.700  42.716   1.192  1.00 22.90 LIG 0.24  C 
ATOM     16  N   LEU B1544      -2.869  42.373  -0.077  1.00 22.60 LIG-0.35  N 
ATOM     17 H    LEU B1544      -3.530  42.622  -0.567  1.00 22.60 LIG 0.16  HD
ATOM     18 O    TYR B1543      -1.724  42.369   1.846  1.00 21.43 LIG-0.27  OA
BRANCH 16 19
ATOM     19  CA  LEU B1544      -1.897  41.518  -0.739  1.00 22.81 LIG 0.18  C 
BRANCH 19 20
ATOM     20  C   LEU B1544      -0.625  42.276  -1.107  1.00 21.53 LIG 0.24  C 
ATOM     21 O    LEU B1544      -0.677  43.409  -1.597  1.00 22.00 LIG-0.27  OA
ATOM     22  N   ARG B1545       0.522  41.647  -0.872  1.00 20.14 LIG-0.35  N 
ATOM     23 H    ARG B1545       0.593  40.859  -0.535  1.00 20.14 LIG 0.16  HD
BRANCH 22 24
ATOM     24  CA  ARG B1545       1.779  42.302  -1.196  1.00 18.95 LIG 0.16  C 
BRANCH 24 25
ATOM     25  CB  ARG B1545       2.714  42.278   0.020  1.00 20.51 LIG 0.04  C 
BRANCH 25 26
ATOM     26  CG  ARG B1545       2.906  43.694   0.565  1.00 20.78 LIG 0.02  C 
BRANCH 26 27
ATOM     27  CD  ARG B1545       3.110  44.738  -0.530  1.00 21.13 LIG 0.14  C 
BRANCH 27 28
ATOM     28  NE  ARG B1545       2.768  46.077  -0.038  1.00 20.56 LIG-0.23  N 
ATOM     29 HE   ARG B1545       2.032  46.431  -0.307  1.00 20.56 LIG 0.18  HD
ATOM     30  CZ  ARG B1545       3.529  46.773   0.799  1.00 23.27 LIG 0.67  C 
ATOM     31  NH2 ARG B1545       3.164  48.005   1.179  1.00 19.37 LIG-0.23  N 
ATOM     32  NH1 ARG B1545       4.667  46.249   1.236  1.00 20.25 LIG-0.23  N 
ATOM     33 1HH2 ARG B1545       2.434  48.348   0.881  1.00 19.37 LIG 0.17  HD
ATOM     34 2HH2 ARG B1545       3.659  48.452   1.721  1.00 19.37 LIG 0.17  HD
ATOM     35 1HH1 ARG B1545       4.906  45.465   0.977  1.00 20.25 LIG 0.17  HD
ATOM     36 2HH1 ARG B1545       5.165  46.693   1.777  1.00 20.25 LIG 0.17  HD
ENDBRANCH 27 28
ENDBRANCH 26 27
ENDBRANCH 25 26
ENDBRANCH 24 25
BRANCH 24 37
ATOM     37  C   ARG B1545       2.442  41.712  -2.434  1.00 20.11 LIG 0.22  C 
ATOM     38 O    ARG B1545       1.733  40.971  -3.155  1.00 20.61 LIG-0.29  OA
ENDBRANCH 24 37
ENDBRANCH 22 24
ENDBRANCH 19 20
BRANCH 19 39
ATOM     39  CB  LEU B1544      -2.530  40.886  -1.985  1.00 22.71 LIG 0.04  C 
BRANCH 39 40
ATOM     40  CG  LEU B1544      -1.589  40.769  -3.194  1.00 23.46 LIG-0.02  C 
ATOM     41  CD1 LEU B1544      -1.601  39.317  -3.682  1.00 24.99 LIG 0.01  C 
ATOM     42  CD2 LEU B1544      -2.010  41.711  -4.315  1.00 22.67 LIG 0.01  C 
ENDBRANCH 39 40
ENDBRANCH 19 39
ENDBRANCH 16 19
ENDBRANCH 5 15
ENDBRANCH 3 5
BRANCH 1 43
ATOM     43  CA  TRP B1542      -4.935  41.975   5.085  1.00 29.62 LIG 0.18  C 
BRANCH 43 44
ATOM     44  N   TRP B1542      -6.111  42.772   5.429  1.00 31.24 LIG-0.35  N 
ATOM     45  C   ALA B1541      -7.097  42.926   4.560  1.00 34.20 LIG 0.24  C 
ATOM     46 O    ALA B1541      -7.088  42.383   3.458  1.00 33.88 LIG-0.27  OA
ATOM     47 H    TRP B1542      -6.098  43.116   6.217  1.00 31.24 LIG 0.16  HD
BRANCH 45 48
ATOM     48  CA  ALA B1541      -8.274  43.812   4.994  1.00 35.59 LIG 0.17  C 
ATOM     49  CB  ALA B1541      -9.304  43.918   3.845  1.00 37.24 LIG 0.04  C 
BRANCH 48 50
ATOM     50  N   ALA B1541      -7.921  45.162   5.455  1.00 36.68 LIG-0.35  N 
ATOM     51  C   ALA B1540      -7.138  45.970   4.746  1.00 36.41 LIG 0.24  C 
ATOM     52 O    ALA B1540      -6.696  45.664   3.634  1.00 35.55 LIG-0.27  OA
ATOM     53 H    ALA B1541      -8.264  45.376   6.214  1.00 36.68 LIG 0.16  HD
BRANCH 51 54
ATOM     54  CA  ALA B1540      -6.835  47.336   5.374  1.00 37.40 LIG 0.17  C 
ATOM     55  CB  ALA B1540      -8.097  48.213   5.373  1.00 38.11 LIG 0.04  C 
BRANCH 54 56
ATOM     56  N   ALA B1540      -5.753  48.034   4.682  1.00 38.31 LIG-0.35  N 
ATOM     57 H    ALA B1540      -5.976  48.806   4.374  1.00 38.31 LIG 0.16  HD
ATOM     58  C   ILE B1539      -4.541  47.514   4.547  1.00 39.48 LIG 0.26  C 
ATOM     59 O    ILE B1539      -4.244  46.409   4.982  1.00 40.50 LIG-0.27  OA
BRANCH 58 60
ATOM     60  CA  ILE B1539      -3.520  48.358   3.783  1.00 40.24 LIG 0.40  C 
ATOM     61  N   ILE B1539      -4.149  49.119   2.655  1.00 42.50 LIG 0.61  N 
BRANCH 60 62
ATOM     62  CB  ILE B1539      -2.833  49.308   4.809  1.00 40.48 LIG 0.03  C 
ATOM     63  CG2 ILE B1539      -3.229  50.755   4.522  1.00 38.85 LIG 0.01  C 
BRANCH 62 64
ATOM     64  CG1 ILE B1539      -3.225  48.931   6.242  1.00 39.99 LIG 0.00  C 
ATOM     65  CD1 ILE B1539      -4.051  50.012   6.952  1.00 39.67 LIG 0.01  C 
ENDBRANCH 62 64
ENDBRANCH 60 62
ENDBRANCH 58 60
ENDBRANCH 54 56
ENDBRANCH 51 54
ENDBRANCH 48 50
ENDBRANCH 45 48
ENDBRANCH 43 44
BRANCH 43 66
ATOM     66  CB  TRP B1542      -5.387  40.624   4.515  1.00 29.93 LIG 0.07  C 
BRANCH 66 67
ATOM     67  CG  TRP B1542      -5.859  39.634   5.582  1.00 31.09 LIG-0.03  A 
ATOM     68  CD1 TRP B1542      -5.388  38.360   5.781  1.00 35.00 LIG 0.10  A 
ATOM     69  NE1 TRP B1542      -6.026  37.775   6.860  1.00 35.42 LIG-0.36  N 
ATOM     70 HE1  TRP B1542      -5.880  36.981   7.157  1.00 35.42 LIG 0.17  HD
ATOM     71  CE2 TRP B1542      -6.929  38.668   7.380  1.00 34.23 LIG 0.04  A 
ATOM     72  CD2 TRP B1542      -6.856  39.852   6.601  1.00 31.85 LIG-0.00  A 
ATOM     73  CZ2 TRP B1542      -7.803  38.536   8.471  1.00 32.49 LIG 0.03  A 
ATOM     74  CE3 TRP B1542      -7.692  40.928   6.931  1.00 30.05 LIG 0.01  A 
ATOM     75  CZ3 TRP B1542      -8.563  40.798   8.017  1.00 29.28 LIG 0.00  A 
ATOM     76  CH2 TRP B1542      -8.607  39.603   8.775  1.00 32.34 LIG 0.00  A 
ENDBRANCH 66 67
ENDBRANCH 43 66
ENDBRANCH 1 43
TORSDOF 26
ENDMDL
MODEL 49
USER: ADFR SOLUTION from run 74
USER: SCORE 22.328156 LL:  -7.618 LR: -17.423 RR:   0.000 FEB:  -9.667
USER: RMSD 6.175051
USER: SEED 73
USER: STATUS no improvement in best in 2 clusters for 5 generations
USER: GENES 28
USER: genes 0 Translation |==|  0.42920 0.38514 0.61446
USER: genes 1 Rotation |==|  0.15807 0.61290 0.76040 0.72919
USER: genes 2 Torsion [C]-N--CA-[CB] |==|  0.71092
USER: genes 3 Torsion [N]-CA--CB-[CG] |==|  0.03207
USER: genes 4 Torsion [CA]-CB--CG-[CD1] |==|  0.18597
USER: genes 5 Torsion [CE1]-CZ--OH-[HH] |==|  0.08129
USER: genes 6 Torsion [N]-CA--C-[N] |==|  0.65705
USER: genes 7 Torsion [C]-N--CA-[CB] |==|  0.20475
USER: genes 8 Torsion [N]-CA--C-[N] |==|  0.55390
USER: genes 9 Torsion [C]-N--CA-[CB] |==|  0.83072
USER: genes 10 Torsion [N]-CA--CB-[CG] |==|  0.84947
USER: genes 11 Torsion [CA]-CB--CG-[CD] |==|  0.39174
USER: genes 12 Torsion [CB]-CG--CD-[NE] |==|  0.10795
USER: genes 13 Torsion [CG]-CD--NE-[HE] |==|  0.92442
USER: genes 14 Torsion [N]-CA--C-[O] |==|  0.41329
USER: genes 15 Torsion [N]-CA--CB-[CG] |==|  0.10369
USER: genes 16 Torsion [CA]-CB--CG-[CD1] |==|  0.31547
USER: genes 17 Torsion [N]-C--CA-[N] |==|  0.19999
USER: genes 18 Torsion [C]-CA--N-[C] |==|  0.55000
USER: genes 19 Torsion [N]-C--CA-[N] |==|  0.99525
USER: genes 20 Torsion [C]-CA--N-[C] |==|  0.77596
USER: genes 21 Torsion [N]-C--CA-[N] |==|  0.85318
USER: genes 22 Torsion [C]-CA--N-[C] |==|  0.84615
USER: genes 23 Torsion [N]-C--CA-[N] |==|  0.31192
USER: genes 24 Torsion [C]-CA--CB-[CG1] |==|  0.52396
USER: genes 25 Torsion [CA]-CB--CG1-[CD1] |==|  0.33890
USER: genes 26 Torsion [C]-CA--CB-[CG] |==|  0.22986
USER: genes 27 Torsion [CA]-CB--CG-[CD1] |==|  0.66925
ROOT
ATOM      1  C   TRP B1542      -4.104  41.722   4.616  1.00 26.55 LIG 0.24  C 
ATOM      2 O    TRP B1542      -3.763  41.353   3.501  1.00 27.86 LIG-0.27  OA
ATOM      3  N   TYR B1543      -3.938  42.970   5.038  1.00 24.62 LIG-0.35  N 
ATOM      4 H    TYR B1543      -4.098  43.236   5.840  1.00 24.62 LIG 0.16  HD
ENDROOT
BRANCH 3 5
ATOM      5  CA  TYR B1543      -3.457  44.006   4.142  1.00 22.31 LIG 0.18  C 
BRANCH 5 6
ATOM      6  CB  TYR B1543      -1.988  44.292   4.466  1.00 23.67 LIG 0.07  C 
BRANCH 6 7
ATOM      7  CG  TYR B1543      -1.319  43.297   5.392  1.00 24.58 LIG-0.06  A 
ATOM      8  CD1 TYR B1543      -1.095  41.982   4.985  1.00 24.59 LIG 0.01  A 
ATOM      9  CE1 TYR B1543      -0.550  41.046   5.851  1.00 26.50 LIG 0.04  A 
ATOM     10  CZ  TYR B1543      -0.231  41.429   7.140  1.00 24.60 LIG 0.07  A 
ATOM     11  CE2 TYR B1543      -0.441  42.740   7.561  1.00 24.06 LIG 0.04  A 
ATOM     12  CD2 TYR B1543      -0.973  43.653   6.691  1.00 22.62 LIG 0.01  A 
BRANCH 10 13
ATOM     13 OH   TYR B1543       0.260  40.503   8.015  1.00 26.51 LIG-0.36  OA
ATOM     14 HH   TYR B1543       0.679  39.911   7.590  1.00 26.51 LIG 0.22  HD
ENDBRANCH 10 13
ENDBRANCH 6 7
ENDBRANCH 5 6
BRANCH 5 15
ATOM     15  C   TYR B1543      -3.617  43.827   2.640  1.00 22.90 LIG 0.24  C 
ATOM     16  N   LEU B1544      -2.514  43.890   1.907  1.00 22.60 LIG-0.35  N 
ATOM     17 H    LEU B1544      -1.721  43.992   2.222  1.00 22.60 LIG 0.16  HD
ATOM     18 O    TYR B1543      -4.726  43.646   2.152  1.00 21.43 LIG-0.27  OA
BRANCH 16 19
ATOM     19  CA  LEU B1544      -2.593  43.786   0.458  1.00 22.81 LIG 0.18  C 
BRANCH 19 20
ATOM     20  C   LEU B1544      -1.238  43.467  -0.166  1.00 21.53 LIG 0.24  C 
ATOM     21 O    LEU B1544      -0.321  42.985   0.510  1.00 22.00 LIG-0.27  OA
ATOM     22  N   ARG B1545      -1.109  43.739  -1.460  1.00 20.14 LIG-0.35  N 
ATOM     23 H    ARG B1545      -1.724  44.076  -1.957  1.00 20.14 LIG 0.16  HD
BRANCH 22 24
ATOM     24  CA  ARG B1545       0.152  43.465  -2.129  1.00 18.95 LIG 0.16  C 
BRANCH 24 25
ATOM     25  CB  ARG B1545       1.279  44.284  -1.487  1.00 20.51 LIG 0.04  C 
BRANCH 25 26
ATOM     26  CG  ARG B1545       0.910  45.768  -1.472  1.00 20.78 LIG 0.02  C 
BRANCH 26 27
ATOM     27  CD  ARG B1545       1.337  46.483  -0.193  1.00 21.13 LIG 0.14  C 
BRANCH 27 28
ATOM     28  NE  ARG B1545       2.649  46.004   0.253  1.00 20.56 LIG-0.23  N 
ATOM     29 HE   ARG B1545       2.883  45.204   0.039  1.00 20.56 LIG 0.18  HD
ATOM     30  CZ  ARG B1545       3.498  46.733   0.969  1.00 23.27 LIG 0.67  C 
ATOM     31  NH2 ARG B1545       4.668  46.214   1.366  1.00 19.37 LIG-0.23  N 
ATOM     32  NH1 ARG B1545       3.167  47.973   1.309  1.00 20.25 LIG-0.23  N 
ATOM     33 1HH2 ARG B1545       4.872  45.406   1.158  1.00 19.37 LIG 0.17  HD
ATOM     34 2HH2 ARG B1545       5.214  46.690   1.829  1.00 19.37 LIG 0.17  HD
ATOM     35 1HH1 ARG B1545       2.408  48.297   1.066  1.00 20.25 LIG 0.17  HD
ATOM     36 2HH1 ARG B1545       3.711  48.451   1.772  1.00 20.25 LIG 0.17  HD
ENDBRANCH 27 28
ENDBRANCH 26 27
ENDBRANCH 25 26
ENDBRANCH 24 25
BRANCH 24 37
ATOM     37  C   ARG B1545       0.481  41.978  -2.166  1.00 20.11 LIG 0.22  C 
ATOM     38 O    ARG B1545       1.137  41.569  -3.153  1.00 20.61 LIG-0.29  OA
ENDBRANCH 24 37
ENDBRANCH 22 24
ENDBRANCH 19 20
BRANCH 19 39
ATOM     39  CB  LEU B1544      -3.163  45.086  -0.123  1.00 22.71 LIG 0.04  C 
BRANCH 39 40
ATOM     40  CG  LEU B1544      -2.703  46.366   0.593  1.00 23.46 LIG-0.02  C 
ATOM     41  CD1 LEU B1544      -1.834  47.178  -0.373  1.00 24.99 LIG 0.01  C 
ATOM     42  CD2 LEU B1544      -3.892  47.193   1.065  1.00 22.67 LIG 0.01  C 
ENDBRANCH 39 40
ENDBRANCH 19 39
ENDBRANCH 16 19
ENDBRANCH 5 15
ENDBRANCH 3 5
BRANCH 1 43
ATOM     43  CA  TRP B1542      -4.718  40.734   5.601  1.00 29.62 LIG 0.18  C 
BRANCH 43 44
ATOM     44  N   TRP B1542      -6.143  40.964   5.828  1.00 31.24 LIG-0.35  N 
ATOM     45  C   ALA B1541      -6.747  40.452   6.888  1.00 34.20 LIG 0.24  C 
ATOM     46 O    ALA B1541      -6.140  39.802   7.736  1.00 33.88 LIG-0.27  OA
ATOM     47 H    TRP B1542      -6.533  41.446   5.231  1.00 31.24 LIG 0.16  HD
BRANCH 45 48
ATOM     48  CA  ALA B1541      -8.254  40.714   7.024  1.00 35.59 LIG 0.17  C 
ATOM     49  CB  ALA B1541      -9.016  39.371   7.109  1.00 37.24 LIG 0.04  C 
BRANCH 48 50
ATOM     50  N   ALA B1541      -8.854  41.546   5.972  1.00 36.68 LIG-0.35  N 
ATOM     51  C   ALA B1540      -8.768  42.873   5.983  1.00 36.41 LIG 0.24  C 
ATOM     52 O    ALA B1540      -8.137  43.494   6.845  1.00 35.55 LIG-0.27  OA
ATOM     53 H    ALA B1541      -9.260  41.100   5.359  1.00 36.68 LIG 0.16  HD
BRANCH 51 54
ATOM     54  CA  ALA B1540      -9.472  43.604   4.834  1.00 37.40 LIG 0.17  C 
ATOM     55  CB  ALA B1540     -10.997  43.483   4.981  1.00 38.11 LIG 0.04  C 
BRANCH 54 56
ATOM     56  N   ALA B1540      -9.065  43.095   3.525  1.00 38.31 LIG-0.35  N 
ATOM     57 H    ALA B1540      -9.720  42.834   3.032  1.00 38.31 LIG 0.16  HD
ATOM     58  C   ILE B1539      -7.797  43.047   3.143  1.00 39.48 LIG 0.26  C 
ATOM     59 O    ILE B1539      -6.876  43.414   3.860  1.00 40.50 LIG-0.27  OA
BRANCH 58 60
ATOM     60  CA  ILE B1539      -7.527  42.473   1.750  1.00 40.24 LIG 0.40  C 
ATOM     61  N   ILE B1539      -7.019  43.516   0.801  1.00 42.50 LIG 0.61  N 
BRANCH 60 62
ATOM     62  CB  ILE B1539      -6.518  41.298   1.912  1.00 40.48 LIG 0.03  C 
ATOM     63  CG2 ILE B1539      -7.177  40.150   2.674  1.00 38.85 LIG 0.01  C 
BRANCH 62 64
ATOM     64  CG1 ILE B1539      -6.034  40.809   0.543  1.00 39.99 LIG 0.00  C 
ATOM     65  CD1 ILE B1539      -4.510  40.883   0.373  1.00 39.67 LIG 0.01  C 
ENDBRANCH 62 64
ENDBRANCH 60 62
ENDBRANCH 58 60
ENDBRANCH 54 56
ENDBRANCH 51 54
ENDBRANCH 48 50
ENDBRANCH 45 48
ENDBRANCH 43 44
BRANCH 43 66
ATOM     66  CB  TRP B1542      -4.515  39.314   5.054  1.00 29.93 LIG 0.07  C 
BRANCH 66 67
ATOM     67  CG  TRP B1542      -3.136  38.727   5.366  1.00 31.09 LIG-0.03  A 
ATOM     68  CD1 TRP B1542      -2.192  38.328   4.453  1.00 35.00 LIG 0.10  A 
ATOM     69  NE1 TRP B1542      -1.056  37.881   5.102  1.00 35.42 LIG-0.36  N 
ATOM     70 HE1  TRP B1542      -0.344  37.588   4.719  1.00 35.42 LIG 0.17  HD
ATOM     71  CE2 TRP B1542      -1.248  37.983   6.457  1.00 34.23 LIG 0.04  A 
ATOM     72  CD2 TRP B1542      -2.549  38.509   6.665  1.00 31.85 LIG-0.00  A 
ATOM     73  CZ2 TRP B1542      -0.387  37.658   7.518  1.00 32.49 LIG 0.03  A 
ATOM     74  CE3 TRP B1542      -2.993  38.709   7.980  1.00 30.05 LIG 0.01  A 
ATOM     75  CZ3 TRP B1542      -2.137  38.387   9.038  1.00 29.28 LIG 0.00  A 
ATOM     76  CH2 TRP B1542      -0.843  37.866   8.794  1.00 32.34 LIG 0.00  A 
ENDBRANCH 66 67
ENDBRANCH 43 66
ENDBRANCH 1 43
TORSDOF 26
ENDMDL
MODEL 50
USER: ADFR SOLUTION from run 19
USER: SCORE 20.806873 LL:  -7.340 LR: -17.418 RR:   0.000 FEB:  -9.662
USER: RMSD 7.051753
USER: SEED 18
USER: STATUS searching
USER: GENES 28
USER: genes 0 Translation |==|  0.46640 0.36847 0.66000
USER: genes 1 Rotation |==|  0.01142 0.39442 0.51007 0.50606
USER: genes 2 Torsion [C]-N--CA-[CB] |==|  0.21646
USER: genes 3 Torsion [N]-CA--CB-[CG] |==|  0.99124
USER: genes 4 Torsion [CA]-CB--CG-[CD1] |==|  0.22431
USER: genes 5 Torsion [CE1]-CZ--OH-[HH] |==|  0.36196
USER: genes 6 Torsion [N]-CA--C-[N] |==|  0.35930
USER: genes 7 Torsion [C]-N--CA-[CB] |==|  0.44940
USER: genes 8 Torsion [N]-CA--C-[N] |==|  0.91417
USER: genes 9 Torsion [C]-N--CA-[CB] |==|  0.34611
USER: genes 10 Torsion [N]-CA--CB-[CG] |==|  0.17846
USER: genes 11 Torsion [CA]-CB--CG-[CD] |==|  0.35202
USER: genes 12 Torsion [CB]-CG--CD-[NE] |==|  0.44254
USER: genes 13 Torsion [CG]-CD--NE-[HE] |==|  0.31813
USER: genes 14 Torsion [N]-CA--C-[O] |==|  0.92457
USER: genes 15 Torsion [N]-CA--CB-[CG] |==|  0.73212
USER: genes 16 Torsion [CA]-CB--CG-[CD1] |==|  0.96322
USER: genes 17 Torsion [N]-C--CA-[N] |==|  0.04732
USER: genes 18 Torsion [C]-CA--N-[C] |==|  0.62416
USER: genes 19 Torsion [N]-C--CA-[N] |==|  0.85572
USER: genes 20 Torsion [C]-CA--N-[C] |==|  0.20795
USER: genes 21 Torsion [N]-C--CA-[N] |==|  0.18569
USER: genes 22 Torsion [C]-CA--N-[C] |==|  0.77772
USER: genes 23 Torsion [N]-C--CA-[N] |==|  0.36553
USER: genes 24 Torsion [C]-CA--CB-[CG1] |==|  0.06678
USER: genes 25 Torsion [CA]-CB--CG1-[CD1] |==|  0.64383
USER: genes 26 Torsion [C]-CA--CB-[CG] |==|  0.29708
USER: genes 27 Torsion [CA]-CB--CG-[CD1] |==|  0.13882
ROOT
ATOM      1  C   TRP B1542      -3.239  41.397   5.470  1.00 26.55 LIG 0.24  C 
ATOM      2 O    TRP B1542      -2.091  41.524   5.870  1.00 27.86 LIG-0.27  OA
ATOM      3  N   TYR B1543      -3.758  42.175   4.528  1.00 24.62 LIG-0.35  N 
ATOM      4 H    TYR B1543      -4.582  42.157   4.284  1.00 24.62 LIG 0.16  HD
ENDROOT
BRANCH 3 5
ATOM      5  CA  TYR B1543      -2.939  43.144   3.821  1.00 22.31 LIG 0.18  C 
BRANCH 5 6
ATOM      6  CB  TYR B1543      -2.110  42.408   2.766  1.00 23.67 LIG 0.07  C 
BRANCH 6 7
ATOM      7  CG  TYR B1543      -2.263  40.900   2.750  1.00 24.58 LIG-0.06  A 
ATOM      8  CD1 TYR B1543      -3.352  40.301   2.118  1.00 24.59 LIG 0.01  A 
ATOM      9  CE1 TYR B1543      -3.539  38.928   2.161  1.00 26.50 LIG 0.04  A 
ATOM     10  CZ  TYR B1543      -2.630  38.147   2.848  1.00 24.60 LIG 0.07  A 
ATOM     11  CE2 TYR B1543      -1.533  38.728   3.478  1.00 24.06 LIG 0.04  A 
ATOM     12  CD2 TYR B1543      -1.359  40.084   3.420  1.00 22.62 LIG 0.01  A 
BRANCH 10 13
ATOM     13 OH   TYR B1543      -2.833  36.800   2.937  1.00 26.51 LIG-0.36  OA
ATOM     14 HH   TYR B1543      -2.129  36.396   2.720  1.00 26.51 LIG 0.22  HD
ENDBRANCH 10 13
ENDBRANCH 6 7
ENDBRANCH 5 6
BRANCH 5 15
ATOM     15  C   TYR B1543      -3.600  44.357   3.186  1.00 22.90 LIG 0.24  C 
ATOM     16  N   LEU B1544      -3.079  45.543   3.469  1.00 22.60 LIG-0.35  N 
ATOM     17 H    LEU B1544      -2.381  45.668   3.955  1.00 22.60 LIG 0.16  HD
ATOM     18 O    TYR B1543      -4.577  44.222   2.459  1.00 21.43 LIG-0.27  OA
BRANCH 16 19
ATOM     19  CA  LEU B1544      -3.691  46.754   2.945  1.00 22.81 LIG 0.18  C 
BRANCH 19 20
ATOM     20  C   LEU B1544      -3.398  46.946   1.460  1.00 21.53 LIG 0.24  C 
ATOM     21 O    LEU B1544      -4.208  47.514   0.718  1.00 22.00 LIG-0.27  OA
ATOM     22  N   ARG B1545      -2.237  46.469   1.024  1.00 20.14 LIG-0.35  N 
ATOM     23 H    ARG B1545      -1.653  46.069   1.512  1.00 20.14 LIG 0.16  HD
BRANCH 22 24
ATOM     24  CA  ARG B1545      -1.884  46.612  -0.378  1.00 18.95 LIG 0.16  C 
BRANCH 24 25
ATOM     25  CB  ARG B1545      -0.530  47.322  -0.512  1.00 20.51 LIG 0.04  C 
BRANCH 25 26
ATOM     26  CG  ARG B1545       0.578  46.462   0.099  1.00 20.78 LIG 0.02  C 
BRANCH 26 27
ATOM     27  CD  ARG B1545       1.742  46.213  -0.856  1.00 21.13 LIG 0.14  C 
BRANCH 27 28
ATOM     28  NE  ARG B1545       2.948  45.833  -0.113  1.00 20.56 LIG-0.23  N 
ATOM     29 HE   ARG B1545       3.259  45.039  -0.225  1.00 20.56 LIG 0.18  HD
ATOM     30  CZ  ARG B1545       3.588  46.643   0.723  1.00 23.27 LIG 0.67  C 
ATOM     31  NH2 ARG B1545       4.667  46.212   1.390  1.00 19.37 LIG-0.23  N 
ATOM     32  NH1 ARG B1545       3.134  47.876   0.911  1.00 20.25 LIG-0.23  N 
ATOM     33 1HH2 ARG B1545       4.948  45.408   1.278  1.00 19.37 LIG 0.17  HD
ATOM     34 2HH2 ARG B1545       5.078  46.740   1.930  1.00 19.37 LIG 0.17  HD
ATOM     35 1HH1 ARG B1545       2.431  48.144   0.494  1.00 20.25 LIG 0.17  HD
ATOM     36 2HH1 ARG B1545       3.542  48.407   1.451  1.00 20.25 LIG 0.17  HD
ENDBRANCH 27 28
ENDBRANCH 26 27
ENDBRANCH 25 26
ENDBRANCH 24 25
BRANCH 24 37
ATOM     37  C   ARG B1545      -1.904  45.284  -1.123  1.00 20.11 LIG 0.22  C 
ATOM     38 O    ARG B1545      -1.687  44.252  -0.444  1.00 20.61 LIG-0.29  OA
ENDBRANCH 24 37
ENDBRANCH 22 24
ENDBRANCH 19 20
BRANCH 19 39
ATOM     39  CB  LEU B1544      -3.208  47.966   3.753  1.00 22.71 LIG 0.04  C 
BRANCH 39 40
ATOM     40  CG  LEU B1544      -4.158  48.409   4.877  1.00 23.46 LIG-0.02  C 
ATOM     41  CD1 LEU B1544      -5.507  47.710   4.678  1.00 24.99 LIG 0.01  C 
ATOM     42  CD2 LEU B1544      -3.583  48.077   6.248  1.00 22.67 LIG 0.01  C 
ENDBRANCH 39 40
ENDBRANCH 19 39
ENDBRANCH 16 19
ENDBRANCH 5 15
ENDBRANCH 3 5
BRANCH 1 43
ATOM     43  CA  TRP B1542      -4.153  40.337   6.074  1.00 29.62 LIG 0.18  C 
BRANCH 43 44
ATOM     44  N   TRP B1542      -5.338  40.073   5.260  1.00 31.24 LIG-0.35  N 
ATOM     45  C   ALA B1541      -6.531  39.972   5.821  1.00 34.20 LIG 0.24  C 
ATOM     46 O    ALA B1541      -6.702  40.133   7.028  1.00 33.88 LIG-0.27  OA
ATOM     47 H    TRP B1542      -5.188  39.994   4.417  1.00 31.24 LIG 0.16  HD
BRANCH 45 48
ATOM     48  CA  ALA B1541      -7.713  39.655   4.893  1.00 35.59 LIG 0.17  C 
ATOM     49  CB  ALA B1541      -7.635  38.182   4.428  1.00 37.24 LIG 0.04  C 
BRANCH 48 50
ATOM     50  N   ALA B1541      -7.853  40.528   3.718  1.00 36.68 LIG-0.35  N 
ATOM     51  C   ALA B1540      -7.051  40.427   2.662  1.00 36.41 LIG 0.24  C 
ATOM     52 O    ALA B1540      -6.170  39.566   2.572  1.00 35.55 LIG-0.27  OA
ATOM     53 H    ALA B1541      -8.493  41.099   3.779  1.00 36.68 LIG 0.16  HD
BRANCH 51 54
ATOM     54  CA  ALA B1540      -7.303  41.428   1.528  1.00 37.40 LIG 0.17  C 
ATOM     55  CB  ALA B1540      -6.469  41.054   0.292  1.00 38.11 LIG 0.04  C 
BRANCH 54 56
ATOM     56  N   ALA B1540      -6.998  42.802   1.926  1.00 38.31 LIG-0.35  N 
ATOM     57 H    ALA B1540      -6.232  43.083   1.654  1.00 38.31 LIG 0.16  HD
ATOM     58  C   ILE B1539      -7.836  43.538   2.641  1.00 39.48 LIG 0.26  C 
ATOM     59 O    ILE B1539      -8.919  43.120   3.028  1.00 40.50 LIG-0.27  OA
BRANCH 58 60
ATOM     60  CA  ILE B1539      -7.369  44.952   2.994  1.00 40.24 LIG 0.40  C 
ATOM     61  N   ILE B1539      -8.418  45.982   2.699  1.00 42.50 LIG 0.61  N 
BRANCH 60 62
ATOM     62  CB  ILE B1539      -6.965  44.953   4.498  1.00 40.48 LIG 0.03  C 
ATOM     63  CG2 ILE B1539      -8.118  45.490   5.344  1.00 38.85 LIG 0.01  C 
BRANCH 62 64
ATOM     64  CG1 ILE B1539      -6.590  43.540   4.958  1.00 39.99 LIG 0.00  C 
ATOM     65  CD1 ILE B1539      -7.333  43.094   6.225  1.00 39.67 LIG 0.01  C 
ENDBRANCH 62 64
ENDBRANCH 60 62
ENDBRANCH 58 60
ENDBRANCH 54 56
ENDBRANCH 51 54
ENDBRANCH 48 50
ENDBRANCH 45 48
ENDBRANCH 43 44
BRANCH 43 66
ATOM     66  CB  TRP B1542      -3.350  39.039   6.237  1.00 29.93 LIG 0.07  C 
BRANCH 66 67
ATOM     67  CG  TRP B1542      -2.989  38.719   7.690  1.00 31.09 LIG-0.03  A 
ATOM     68  CD1 TRP B1542      -3.847  38.703   8.761  1.00 35.00 LIG 0.10  A 
ATOM     69  NE1 TRP B1542      -3.172  38.336   9.911  1.00 35.42 LIG-0.36  N 
ATOM     70 HE1  TRP B1542      -3.521  38.262  10.693  1.00 35.42 LIG 0.17  HD
ATOM     71  CE2 TRP B1542      -1.855  38.108   9.600  1.00 34.23 LIG 0.04  A 
ATOM     72  CD2 TRP B1542      -1.698  38.342   8.209  1.00 31.85 LIG-0.00  A 
ATOM     73  CZ2 TRP B1542      -0.788  37.715  10.424  1.00 32.49 LIG 0.03  A 
ATOM     74  CE3 TRP B1542      -0.428  38.177   7.638  1.00 30.05 LIG 0.01  A 
ATOM     75  CZ3 TRP B1542       0.635  37.785   8.457  1.00 29.28 LIG 0.00  A 
ATOM     76  CH2 TRP B1542       0.443  37.558   9.841  1.00 32.34 LIG 0.00  A 
ENDBRANCH 66 67
ENDBRANCH 43 66
ENDBRANCH 1 43
TORSDOF 26
ENDMDL
MODEL 51
USER: ADFR SOLUTION from run 171
USER: SCORE 23.139647 LL:  -7.213 LR: -17.355 RR:   0.000 FEB:  -9.599
USER: RMSD 6.121529
USER: SEED 170
USER: STATUS no improvement in best in 8 clusters for 5 generations
USER: GENES 28
USER: genes 0 Translation |==|  0.42588 0.41827 0.63004
USER: genes 1 Rotation |==|  0.00670 0.47145 0.54338 0.56291
USER: genes 2 Torsion [C]-N--CA-[CB] |==|  0.76602
USER: genes 3 Torsion [N]-CA--CB-[CG] |==|  0.67088
USER: genes 4 Torsion [CA]-CB--CG-[CD1] |==|  0.94534
USER: genes 5 Torsion [CE1]-CZ--OH-[HH] |==|  0.70176
USER: genes 6 Torsion [N]-CA--C-[N] |==|  0.03889
USER: genes 7 Torsion [C]-N--CA-[CB] |==|  0.49529
USER: genes 8 Torsion [N]-CA--C-[N] |==|  0.45118
USER: genes 9 Torsion [C]-N--CA-[CB] |==|  0.36626
USER: genes 10 Torsion [N]-CA--CB-[CG] |==|  0.86335
USER: genes 11 Torsion [CA]-CB--CG-[CD] |==|  0.55304
USER: genes 12 Torsion [CB]-CG--CD-[NE] |==|  0.39035
USER: genes 13 Torsion [CG]-CD--NE-[HE] |==|  0.86895
USER: genes 14 Torsion [N]-CA--C-[O] |==|  0.58817
USER: genes 15 Torsion [N]-CA--CB-[CG] |==|  0.86629
USER: genes 16 Torsion [CA]-CB--CG-[CD1] |==|  0.39312
USER: genes 17 Torsion [N]-C--CA-[N] |==|  0.05147
USER: genes 18 Torsion [C]-CA--N-[C] |==|  0.17171
USER: genes 19 Torsion [N]-C--CA-[N] |==|  0.24684
USER: genes 20 Torsion [C]-CA--N-[C] |==|  0.78615
USER: genes 21 Torsion [N]-C--CA-[N] |==|  0.88753
USER: genes 22 Torsion [C]-CA--N-[C] |==|  0.80578
USER: genes 23 Torsion [N]-C--CA-[N] |==|  0.29097
USER: genes 24 Torsion [C]-CA--CB-[CG1] |==|  0.53292
USER: genes 25 Torsion [CA]-CB--CG1-[CD1] |==|  0.29557
USER: genes 26 Torsion [C]-CA--CB-[CG] |==|  0.27267
USER: genes 27 Torsion [CA]-CB--CG-[CD1] |==|  0.26918
ROOT
ATOM      1  C   TRP B1542      -4.181  42.368   4.908  1.00 26.55 LIG 0.24  C 
ATOM      2 O    TRP B1542      -3.006  42.075   5.077  1.00 27.86 LIG-0.27  OA
ATOM      3  N   TYR B1543      -4.559  43.443   4.227  1.00 24.62 LIG-0.35  N 
ATOM      4 H    TYR B1543      -5.373  43.712   4.159  1.00 24.62 LIG 0.16  HD
ENDROOT
BRANCH 3 5
ATOM      5  CA  TYR B1543      -3.590  44.265   3.526  1.00 22.31 LIG 0.18  C 
BRANCH 5 6
ATOM      6  CB  TYR B1543      -2.987  45.264   4.517  1.00 23.67 LIG 0.07  C 
BRANCH 6 7
ATOM      7  CG  TYR B1543      -3.222  46.727   4.194  1.00 24.58 LIG-0.06  A 
ATOM      8  CD1 TYR B1543      -3.567  47.126   2.903  1.00 24.59 LIG 0.01  A 
ATOM      9  CE1 TYR B1543      -3.712  48.467   2.582  1.00 26.50 LIG 0.04  A 
ATOM     10  CZ  TYR B1543      -3.504  49.418   3.562  1.00 24.60 LIG 0.07  A 
ATOM     11  CE2 TYR B1543      -3.166  49.037   4.858  1.00 24.06 LIG 0.04  A 
ATOM     12  CD2 TYR B1543      -3.034  47.709   5.160  1.00 22.62 LIG 0.01  A 
BRANCH 10 13
ATOM     13 OH   TYR B1543      -3.596  50.743   3.243  1.00 26.51 LIG-0.36  OA
ATOM     14 HH   TYR B1543      -2.828  51.083   3.234  1.00 26.51 LIG 0.22  HD
ENDBRANCH 10 13
ENDBRANCH 6 7
ENDBRANCH 5 6
BRANCH 5 15
ATOM     15  C   TYR B1543      -2.472  43.596   2.742  1.00 22.90 LIG 0.24  C 
ATOM     16  N   LEU B1544      -2.599  42.299   2.501  1.00 22.60 LIG-0.35  N 
ATOM     17 H    LEU B1544      -3.278  41.823   2.728  1.00 22.60 LIG 0.16  HD
ATOM     18 O    TYR B1543      -1.501  44.245   2.370  1.00 21.43 LIG-0.27  OA
BRANCH 16 19
ATOM     19  CA  LEU B1544      -1.544  41.577   1.807  1.00 22.81 LIG 0.18  C 
BRANCH 19 20
ATOM     20  C   LEU B1544      -1.261  42.165   0.428  1.00 21.53 LIG 0.24  C 
ATOM     21 O    LEU B1544      -2.075  42.911  -0.127  1.00 22.00 LIG-0.27  OA
ATOM     22  N   ARG B1545      -0.103  41.826  -0.128  1.00 20.14 LIG-0.35  N 
ATOM     23 H    ARG B1545       0.484  41.309   0.230  1.00 20.14 LIG 0.16  HD
BRANCH 22 24
ATOM     24  CA  ARG B1545       0.242  42.345  -1.442  1.00 18.95 LIG 0.16  C 
BRANCH 24 25
ATOM     25  CB  ARG B1545       1.670  42.906  -1.429  1.00 20.51 LIG 0.04  C 
BRANCH 25 26
ATOM     26  CG  ARG B1545       1.857  43.843  -0.236  1.00 20.78 LIG 0.02  C 
BRANCH 26 27
ATOM     27  CD  ARG B1545       3.048  44.785  -0.391  1.00 21.13 LIG 0.14  C 
BRANCH 27 28
ATOM     28  NE  ARG B1545       2.721  46.120   0.120  1.00 20.56 LIG-0.23  N 
ATOM     29 HE   ARG B1545       1.975  46.474  -0.119  1.00 20.56 LIG 0.18  HD
ATOM     30  CZ  ARG B1545       3.511  46.815   0.932  1.00 23.27 LIG 0.67  C 
ATOM     31  NH2 ARG B1545       3.157  48.044   1.332  1.00 19.37 LIG-0.23  N 
ATOM     32  NH1 ARG B1545       4.666  46.292   1.323  1.00 20.25 LIG-0.23  N 
ATOM     33 1HH2 ARG B1545       2.415  48.386   1.064  1.00 19.37 LIG 0.17  HD
ATOM     34 2HH2 ARG B1545       3.671  48.489   1.857  1.00 19.37 LIG 0.17  HD
ATOM     35 1HH1 ARG B1545       4.898  45.509   1.051  1.00 20.25 LIG 0.17  HD
ATOM     36 2HH1 ARG B1545       5.183  46.735   1.848  1.00 20.25 LIG 0.17  HD
ENDBRANCH 27 28
ENDBRANCH 26 27
ENDBRANCH 25 26
ENDBRANCH 24 25
BRANCH 24 37
ATOM     37  C   ARG B1545       0.046  41.313  -2.545  1.00 20.11 LIG 0.22  C 
ATOM     38 O    ARG B1545       0.824  41.382  -3.527  1.00 20.61 LIG-0.29  OA
ENDBRANCH 24 37
ENDBRANCH 22 24
ENDBRANCH 19 20
BRANCH 19 39
ATOM     39  CB  LEU B1544      -1.921  40.094   1.696  1.00 22.71 LIG 0.04  C 
BRANCH 39 40
ATOM     40  CG  LEU B1544      -2.409  39.455   3.006  1.00 23.46 LIG-0.02  C 
ATOM     41  CD1 LEU B1544      -3.554  38.492   2.681  1.00 24.99 LIG 0.01  C 
ATOM     42  CD2 LEU B1544      -1.279  38.720   3.715  1.00 22.67 LIG 0.01  C 
ENDBRANCH 39 40
ENDBRANCH 19 39
ENDBRANCH 16 19
ENDBRANCH 5 15
ENDBRANCH 3 5
BRANCH 1 43
ATOM     43  CA  TRP B1542      -5.284  41.509   5.516  1.00 29.62 LIG 0.18  C 
BRANCH 43 44
ATOM     44  N   TRP B1542      -6.593  41.747   4.909  1.00 31.24 LIG-0.35  N 
ATOM     45  C   ALA B1541      -6.793  41.507   3.624  1.00 34.20 LIG 0.24  C 
ATOM     46 O    ALA B1541      -5.913  41.043   2.901  1.00 33.88 LIG-0.27  OA
ATOM     47 H    TRP B1542      -7.194  42.046   5.447  1.00 31.24 LIG 0.16  HD
BRANCH 45 48
ATOM     48  CA  ALA B1541      -8.188  41.823   3.065  1.00 35.59 LIG 0.17  C 
ATOM     49  CB  ALA B1541      -8.547  40.816   1.947  1.00 37.24 LIG 0.04  C 
BRANCH 48 50
ATOM     50  N   ALA B1541      -8.380  43.191   2.566  1.00 36.68 LIG-0.35  N 
ATOM     51  C   ALA B1540      -8.560  44.225   3.383  1.00 36.41 LIG 0.24  C 
ATOM     52 O    ALA B1540      -8.528  44.117   4.613  1.00 35.55 LIG-0.27  OA
ATOM     53 H    ALA B1541      -8.365  43.258   1.709  1.00 36.68 LIG 0.16  HD
BRANCH 51 54
ATOM     54  CA  ALA B1540      -8.778  45.586   2.710  1.00 37.40 LIG 0.17  C 
ATOM     55  CB  ALA B1540     -10.245  45.738   2.279  1.00 38.11 LIG 0.04  C 
BRANCH 54 56
ATOM     56  N   ALA B1540      -7.906  45.775   1.553  1.00 38.31 LIG-0.35  N 
ATOM     57 H    ALA B1540      -8.319  45.767   0.798  1.00 38.31 LIG 0.16  HD
ATOM     58  C   ILE B1539      -6.596  45.945   1.668  1.00 39.48 LIG 0.26  C 
ATOM     59 O    ILE B1539      -6.022  45.944   2.749  1.00 40.50 LIG-0.27  OA
BRANCH 58 60
ATOM     60  CA  ILE B1539      -5.815  46.114   0.364  1.00 40.24 LIG 0.40  C 
ATOM     61  N   ILE B1539      -5.405  47.538   0.134  1.00 42.50 LIG 0.61  N 
BRANCH 60 62
ATOM     62  CB  ILE B1539      -4.584  45.161   0.425  1.00 40.48 LIG 0.03  C 
ATOM     63  CG2 ILE B1539      -5.047  43.709   0.320  1.00 38.85 LIG 0.01  C 
BRANCH 62 64
ATOM     64  CG1 ILE B1539      -3.597  45.480  -0.703  1.00 39.99 LIG 0.00  C 
ATOM     65  CD1 ILE B1539      -2.327  46.191  -0.218  1.00 39.67 LIG 0.01  C 
ENDBRANCH 62 64
ENDBRANCH 60 62
ENDBRANCH 58 60
ENDBRANCH 54 56
ENDBRANCH 51 54
ENDBRANCH 48 50
ENDBRANCH 45 48
ENDBRANCH 43 44
BRANCH 43 66
ATOM     66  CB  TRP B1542      -4.905  40.033   5.338  1.00 29.93 LIG 0.07  C 
BRANCH 66 67
ATOM     67  CG  TRP B1542      -4.265  39.410   6.581  1.00 31.09 LIG-0.03  A 
ATOM     68  CD1 TRP B1542      -4.901  38.663   7.542  1.00 35.00 LIG 0.10  A 
ATOM     69  NE1 TRP B1542      -3.996  38.239   8.497  1.00 35.42 LIG-0.36  N 
ATOM     70 HE1  TRP B1542      -4.184  37.758   9.185  1.00 35.42 LIG 0.17  HD
ATOM     71  CE2 TRP B1542      -2.749  38.709   8.169  1.00 34.23 LIG 0.04  A 
ATOM     72  CD2 TRP B1542      -2.876  39.455   6.969  1.00 31.85 LIG-0.00  A 
ATOM     73  CZ2 TRP B1542      -1.519  38.540   8.825  1.00 32.49 LIG 0.03  A 
ATOM     74  CE3 TRP B1542      -1.731  40.049   6.420  1.00 30.05 LIG 0.01  A 
ATOM     75  CZ3 TRP B1542      -0.505  39.881   7.072  1.00 29.28 LIG 0.00  A 
ATOM     76  CH2 TRP B1542      -0.414  39.128   8.267  1.00 32.34 LIG 0.00  A 
ENDBRANCH 66 67
ENDBRANCH 43 66
ENDBRANCH 1 43
TORSDOF 26
ENDMDL
MODEL 52
USER: ADFR SOLUTION from run 142
USER: SCORE 21.431307 LL:  -5.974 LR: -17.321 RR:   0.000 FEB:  -9.566
USER: RMSD 7.736592
USER: SEED 141
USER: STATUS no improvement in best in 11 clusters for 5 generations
USER: GENES 28
USER: genes 0 Translation |==|  0.46460 0.57712 0.57709
USER: genes 1 Rotation |==|  0.18525 0.46528 0.81266 0.72797
USER: genes 2 Torsion [C]-N--CA-[CB] |==|  0.74810
USER: genes 3 Torsion [N]-CA--CB-[CG] |==|  0.63135
USER: genes 4 Torsion [CA]-CB--CG-[CD1] |==|  0.27521
USER: genes 5 Torsion [CE1]-CZ--OH-[HH] |==|  0.03199
USER: genes 6 Torsion [N]-CA--C-[N] |==|  0.09968
USER: genes 7 Torsion [C]-N--CA-[CB] |==|  0.85556
USER: genes 8 Torsion [N]-CA--C-[N] |==|  0.96029
USER: genes 9 Torsion [C]-N--CA-[CB] |==|  0.41229
USER: genes 10 Torsion [N]-CA--CB-[CG] |==|  0.35904
USER: genes 11 Torsion [CA]-CB--CG-[CD] |==|  0.31070
USER: genes 12 Torsion [CB]-CG--CD-[NE] |==|  0.40268
USER: genes 13 Torsion [CG]-CD--NE-[HE] |==|  0.26667
USER: genes 14 Torsion [N]-CA--C-[O] |==|  0.00699
USER: genes 15 Torsion [N]-CA--CB-[CG] |==|  0.86949
USER: genes 16 Torsion [CA]-CB--CG-[CD1] |==|  0.36024
USER: genes 17 Torsion [N]-C--CA-[N] |==|  0.30481
USER: genes 18 Torsion [C]-CA--N-[C] |==|  0.60073
USER: genes 19 Torsion [N]-C--CA-[N] |==|  0.14082
USER: genes 20 Torsion [C]-CA--N-[C] |==|  0.13567
USER: genes 21 Torsion [N]-C--CA-[N] |==|  0.37539
USER: genes 22 Torsion [C]-CA--N-[C] |==|  0.66285
USER: genes 23 Torsion [N]-C--CA-[N] |==|  0.35467
USER: genes 24 Torsion [C]-CA--CB-[CG1] |==|  0.47681
USER: genes 25 Torsion [CA]-CB--CG1-[CD1] |==|  0.24483
USER: genes 26 Torsion [C]-CA--CB-[CG] |==|  0.34336
USER: genes 27 Torsion [CA]-CB--CG-[CD1] |==|  0.80537
ROOT
ATOM      1  C   TRP B1542      -3.281  45.466   3.915  1.00 26.55 LIG 0.24  C 
ATOM      2 O    TRP B1542      -2.840  45.762   2.814  1.00 27.86 LIG-0.27  OA
ATOM      3  N   TYR B1543      -3.705  46.376   4.783  1.00 24.62 LIG-0.35  N 
ATOM      4 H    TYR B1543      -3.947  46.200   5.590  1.00 24.62 LIG 0.16  HD
ENDROOT
BRANCH 3 5
ATOM      5  CA  TYR B1543      -3.791  47.778   4.417  1.00 22.31 LIG 0.18  C 
BRANCH 5 6
ATOM      6  CB  TYR B1543      -2.464  48.458   4.763  1.00 23.67 LIG 0.07  C 
BRANCH 6 7
ATOM      7  CG  TYR B1543      -2.578  49.773   5.509  1.00 24.58 LIG-0.06  A 
ATOM      8  CD1 TYR B1543      -2.414  49.823   6.893  1.00 24.59 LIG 0.01  A 
ATOM      9  CE1 TYR B1543      -2.590  51.008   7.593  1.00 26.50 LIG 0.04  A 
ATOM     10  CZ  TYR B1543      -2.938  52.151   6.900  1.00 24.60 LIG 0.07  A 
ATOM     11  CE2 TYR B1543      -3.099  52.120   5.518  1.00 24.06 LIG 0.04  A 
ATOM     12  CD2 TYR B1543      -2.915  50.944   4.842  1.00 22.62 LIG 0.01  A 
BRANCH 10 13
ATOM     13 OH   TYR B1543      -3.161  53.311   7.586  1.00 26.51 LIG-0.36  OA
ATOM     14 HH   TYR B1543      -2.900  53.221   8.380  1.00 26.51 LIG 0.22  HD
ENDBRANCH 10 13
ENDBRANCH 6 7
ENDBRANCH 5 6
BRANCH 5 15
ATOM     15  C   TYR B1543      -4.197  48.156   3.002  1.00 22.90 LIG 0.24  C 
ATOM     16  N   LEU B1544      -5.101  47.388   2.409  1.00 22.60 LIG-0.35  N 
ATOM     17 H    LEU B1544      -5.492  46.718   2.780  1.00 22.60 LIG 0.16  HD
ATOM     18 O    TYR B1543      -3.689  49.124   2.448  1.00 21.43 LIG-0.27  OA
BRANCH 16 19
ATOM     19  CA  LEU B1544      -5.497  47.651   1.035  1.00 22.81 LIG 0.18  C 
BRANCH 19 20
ATOM     20  C   LEU B1544      -4.393  47.299   0.044  1.00 21.53 LIG 0.24  C 
ATOM     21 O    LEU B1544      -4.627  47.202  -1.166  1.00 22.00 LIG-0.27  OA
ATOM     22  N   ARG B1545      -3.183  47.103   0.558  1.00 20.14 LIG-0.35  N 
ATOM     23 H    ARG B1545      -2.987  47.160   1.394  1.00 20.14 LIG 0.16  HD
BRANCH 22 24
ATOM     24  CA  ARG B1545      -2.076  46.762  -0.320  1.00 18.95 LIG 0.16  C 
BRANCH 24 25
ATOM     25  CB  ARG B1545      -0.764  47.327   0.241  1.00 20.51 LIG 0.04  C 
BRANCH 25 26
ATOM     26  CG  ARG B1545       0.300  46.231   0.297  1.00 20.78 LIG 0.02  C 
BRANCH 26 27
ATOM     27  CD  ARG B1545       1.443  46.451  -0.690  1.00 21.13 LIG 0.14  C 
BRANCH 27 28
ATOM     28  NE  ARG B1545       2.714  45.988  -0.122  1.00 20.56 LIG-0.23  N 
ATOM     29 HE   ARG B1545       2.982  45.196  -0.323  1.00 20.56 LIG 0.18  HD
ATOM     30  CZ  ARG B1545       3.473  46.721   0.685  1.00 23.27 LIG 0.67  C 
ATOM     31  NH2 ARG B1545       4.607  46.216   1.189  1.00 19.37 LIG-0.23  N 
ATOM     32  NH1 ARG B1545       3.087  47.949   1.007  1.00 20.25 LIG-0.23  N 
ATOM     33 1HH2 ARG B1545       4.846  45.414   0.991  1.00 19.37 LIG 0.17  HD
ATOM     34 2HH2 ARG B1545       5.096  46.693   1.711  1.00 19.37 LIG 0.17  HD
ATOM     35 1HH1 ARG B1545       2.350  48.264   0.695  1.00 20.25 LIG 0.17  HD
ATOM     36 2HH1 ARG B1545       3.573  48.430   1.529  1.00 20.25 LIG 0.17  HD
ENDBRANCH 27 28
ENDBRANCH 26 27
ENDBRANCH 25 26
ENDBRANCH 24 25
BRANCH 24 37
ATOM     37  C   ARG B1545      -1.982  45.265  -0.586  1.00 20.11 LIG 0.22  C 
ATOM     38 O    ARG B1545      -2.870  44.543  -0.074  1.00 20.61 LIG-0.29  OA
ENDBRANCH 24 37
ENDBRANCH 22 24
ENDBRANCH 19 20
BRANCH 19 39
ATOM     39  CB  LEU B1544      -5.905  49.123   0.889  1.00 22.71 LIG 0.04  C 
BRANCH 39 40
ATOM     40  CG  LEU B1544      -6.854  49.638   1.982  1.00 23.46 LIG-0.02  C 
ATOM     41  CD1 LEU B1544      -6.284  50.943   2.548  1.00 24.99 LIG 0.01  C 
ATOM     42  CD2 LEU B1544      -8.258  49.863   1.434  1.00 22.67 LIG 0.01  C 
ENDBRANCH 39 40
ENDBRANCH 19 39
ENDBRANCH 16 19
ENDBRANCH 5 15
ENDBRANCH 3 5
BRANCH 1 43
ATOM     43  CA  TRP B1542      -3.332  44.008   4.359  1.00 29.62 LIG 0.18  C 
BRANCH 43 44
ATOM     44  N   TRP B1542      -4.353  43.233   3.657  1.00 31.24 LIG-0.35  N 
ATOM     45  C   ALA B1541      -5.033  42.290   4.287  1.00 34.20 LIG 0.24  C 
ATOM     46 O    ALA B1541      -4.869  42.052   5.481  1.00 33.88 LIG-0.27  OA
ATOM     47 H    TRP B1542      -4.463  43.443   2.830  1.00 31.24 LIG 0.16  HD
BRANCH 45 48
ATOM     48  CA  ALA B1541      -6.059  41.501   3.459  1.00 35.59 LIG 0.17  C 
ATOM     49  CB  ALA B1541      -6.664  40.365   4.317  1.00 37.24 LIG 0.04  C 
BRANCH 48 50
ATOM     50  N   ALA B1541      -5.563  40.942   2.194  1.00 36.68 LIG-0.35  N 
ATOM     51  C   ALA B1540      -4.431  40.247   2.122  1.00 36.41 LIG 0.24  C 
ATOM     52 O    ALA B1540      -3.748  39.980   3.116  1.00 35.55 LIG-0.27  OA
ATOM     53 H    ALA B1541      -6.067  41.104   1.517  1.00 36.68 LIG 0.16  HD
BRANCH 51 54
ATOM     54  CA  ALA B1540      -4.031  39.755   0.726  1.00 37.40 LIG 0.17  C 
ATOM     55  CB  ALA B1540      -4.355  38.260   0.575  1.00 38.11 LIG 0.04  C 
BRANCH 54 56
ATOM     56  N   ALA B1540      -2.613  39.978   0.447  1.00 38.31 LIG-0.35  N 
ATOM     57 H    ALA B1540      -2.082  39.595   1.005  1.00 38.31 LIG 0.16  HD
ATOM     58  C   ILE B1539      -2.196  40.708  -0.577  1.00 39.48 LIG 0.26  C 
ATOM     59 O    ILE B1539      -2.965  41.255  -1.357  1.00 40.50 LIG-0.27  OA
BRANCH 58 60
ATOM     60  CA  ILE B1539      -0.682  40.864  -0.729  1.00 40.24 LIG 0.40  C 
ATOM     61  N   ILE B1539      -0.212  40.500  -2.105  1.00 42.50 LIG 0.61  N 
BRANCH 60 62
ATOM     62  CB  ILE B1539      -0.321  42.336  -0.367  1.00 40.48 LIG 0.03  C 
ATOM     63  CG2 ILE B1539      -0.958  42.712   0.970  1.00 38.85 LIG 0.01  C 
BRANCH 62 64
ATOM     64  CG1 ILE B1539       1.199  42.518  -0.294  1.00 39.99 LIG 0.00  C 
ATOM     65  CD1 ILE B1539       1.835  42.877  -1.643  1.00 39.67 LIG 0.01  C 
ENDBRANCH 62 64
ENDBRANCH 60 62
ENDBRANCH 58 60
ENDBRANCH 54 56
ENDBRANCH 51 54
ENDBRANCH 48 50
ENDBRANCH 45 48
ENDBRANCH 43 44
BRANCH 43 66
ATOM     66  CB  TRP B1542      -1.956  43.376   4.110  1.00 29.93 LIG 0.07  C 
BRANCH 66 67
ATOM     67  CG  TRP B1542      -1.327  42.762   5.363  1.00 31.09 LIG-0.03  A 
ATOM     68  CD1 TRP B1542      -0.836  43.442   6.449  1.00 35.00 LIG 0.10  A 
ATOM     69  NE1 TRP B1542      -0.377  42.554   7.404  1.00 35.42 LIG-0.36  N 
ATOM     70 HE1  TRP B1542      -0.031  42.770   8.162  1.00 35.42 LIG 0.17  HD
ATOM     71  CE2 TRP B1542      -0.563  41.274   6.948  1.00 34.23 LIG 0.04  A 
ATOM     72  CD2 TRP B1542      -1.157  41.361   5.662  1.00 31.85 LIG-0.00  A 
ATOM     73  CZ2 TRP B1542      -0.260  40.045   7.557  1.00 32.49 LIG 0.03  A 
ATOM     74  CE3 TRP B1542      -1.449  40.175   4.973  1.00 30.05 LIG 0.01  A 
ATOM     75  CZ3 TRP B1542      -1.149  38.951   5.578  1.00 29.28 LIG 0.00  A 
ATOM     76  CH2 TRP B1542      -0.558  38.900   6.864  1.00 32.34 LIG 0.00  A 
ENDBRANCH 66 67
ENDBRANCH 43 66
ENDBRANCH 1 43
TORSDOF 26
ENDMDL
MODEL 53
USER: ADFR SOLUTION from run 11
USER: SCORE 21.001285 LL:  -5.547 LR: -17.315 RR:   0.000 FEB:  -9.559
USER: RMSD 6.300456
USER: SEED 646784
USER: STATUS no improvement in best in 8 clusters for 5 generations
USER: GENES 28
USER: genes 0 Translation |==|  0.44135 0.41401 0.56940
USER: genes 1 Rotation |==|  0.30555 0.85973 0.48389 0.78728
USER: genes 2 Torsion [C]-N--CA-[CB] |==|  0.74959
USER: genes 3 Torsion [N]-CA--CB-[CG] |==|  0.84146
USER: genes 4 Torsion [CA]-CB--CG-[CD1] |==|  0.97783
USER: genes 5 Torsion [CE1]-CZ--OH-[HH] |==|  0.74985
USER: genes 6 Torsion [N]-CA--C-[N] |==|  0.59389
USER: genes 7 Torsion [C]-N--CA-[CB] |==|  0.79309
USER: genes 8 Torsion [N]-CA--C-[N] |==|  0.18058
USER: genes 9 Torsion [C]-N--CA-[CB] |==|  0.24983
USER: genes 10 Torsion [N]-CA--CB-[CG] |==|  0.24502
USER: genes 11 Torsion [CA]-CB--CG-[CD] |==|  0.31568
USER: genes 12 Torsion [CB]-CG--CD-[NE] |==|  0.18254
USER: genes 13 Torsion [CG]-CD--NE-[HE] |==|  0.85093
USER: genes 14 Torsion [N]-CA--C-[O] |==|  0.13421
USER: genes 15 Torsion [N]-CA--CB-[CG] |==|  0.81642
USER: genes 16 Torsion [CA]-CB--CG-[CD1] |==|  0.24967
USER: genes 17 Torsion [N]-C--CA-[N] |==|  0.22282
USER: genes 18 Torsion [C]-CA--N-[C] |==|  0.78333
USER: genes 19 Torsion [N]-C--CA-[N] |==|  0.96196
USER: genes 20 Torsion [C]-CA--N-[C] |==|  0.79226
USER: genes 21 Torsion [N]-C--CA-[N] |==|  0.17223
USER: genes 22 Torsion [C]-CA--N-[C] |==|  0.77747
USER: genes 23 Torsion [N]-C--CA-[N] |==|  0.40733
USER: genes 24 Torsion [C]-CA--CB-[CG1] |==|  0.97012
USER: genes 25 Torsion [CA]-CB--CG1-[CD1] |==|  0.65880
USER: genes 26 Torsion [C]-CA--CB-[CG] |==|  0.26090
USER: genes 27 Torsion [CA]-CB--CG-[CD1] |==|  0.36127
ROOT
ATOM      1  C   TRP B1542      -3.822  42.285   3.771  1.00 26.55 LIG 0.24  C 
ATOM      2 O    TRP B1542      -4.425  41.699   2.884  1.00 27.86 LIG-0.27  OA
ATOM      3  N   TYR B1543      -2.520  42.126   3.976  1.00 24.62 LIG-0.35  N 
ATOM      4 H    TYR B1543      -2.089  42.467   4.638  1.00 24.62 LIG 0.16  HD
ENDROOT
BRANCH 3 5
ATOM      5  CA  TYR B1543      -1.708  41.340   3.066  1.00 22.31 LIG 0.18  C 
BRANCH 5 6
ATOM      6  CB  TYR B1543      -1.700  39.886   3.547  1.00 23.67 LIG 0.07  C 
BRANCH 6 7
ATOM      7  CG  TYR B1543      -1.205  39.670   4.963  1.00 24.58 LIG-0.06  A 
ATOM      8  CD1 TYR B1543      -0.640  40.718   5.689  1.00 24.59 LIG 0.01  A 
ATOM      9  CE1 TYR B1543      -0.119  40.512   6.957  1.00 26.50 LIG 0.04  A 
ATOM     10  CZ  TYR B1543      -0.159  39.244   7.502  1.00 24.60 LIG 0.07  A 
ATOM     11  CE2 TYR B1543      -0.727  38.187   6.795  1.00 24.06 LIG 0.04  A 
ATOM     12  CD2 TYR B1543      -1.243  38.409   5.547  1.00 22.62 LIG 0.01  A 
BRANCH 10 13
ATOM     13 OH   TYR B1543       0.395  39.022   8.730  1.00 26.51 LIG-0.36  OA
ATOM     14 HH   TYR B1543       1.202  38.805   8.638  1.00 26.51 LIG 0.22  HD
ENDBRANCH 10 13
ENDBRANCH 6 7
ENDBRANCH 5 6
BRANCH 5 15
ATOM     15  C   TYR B1543      -2.010  41.376   1.576  1.00 22.90 LIG 0.24  C 
ATOM     16  N   LEU B1544      -1.802  40.259   0.892  1.00 22.60 LIG-0.35  N 
ATOM     17 H    LEU B1544      -1.541  39.516   1.237  1.00 22.60 LIG 0.16  HD
ATOM     18 O    TYR B1543      -2.417  42.405   1.050  1.00 21.43 LIG-0.27  OA
BRANCH 16 19
ATOM     19  CA  LEU B1544      -2.013  40.231  -0.546  1.00 22.81 LIG 0.18  C 
BRANCH 19 20
ATOM     20  C   LEU B1544      -1.332  41.403  -1.246  1.00 21.53 LIG 0.24  C 
ATOM     21 O    LEU B1544      -1.994  42.270  -1.829  1.00 22.00 LIG-0.27  OA
ATOM     22  N   ARG B1545      -0.005  41.429  -1.192  1.00 20.14 LIG-0.35  N 
ATOM     23 H    ARG B1545       0.484  40.842  -0.798  1.00 20.14 LIG 0.16  HD
BRANCH 22 24
ATOM     24  CA  ARG B1545       0.719  42.512  -1.835  1.00 18.95 LIG 0.16  C 
BRANCH 24 25
ATOM     25  CB  ARG B1545       0.916  43.673  -0.850  1.00 20.51 LIG 0.04  C 
BRANCH 25 26
ATOM     26  CG  ARG B1545       2.205  43.472  -0.052  1.00 20.78 LIG 0.02  C 
BRANCH 26 27
ATOM     27  CD  ARG B1545       3.270  44.522  -0.355  1.00 21.13 LIG 0.14  C 
BRANCH 27 28
ATOM     28  NE  ARG B1545       2.830  45.849   0.086  1.00 20.56 LIG-0.23  N 
ATOM     29 HE   ARG B1545       2.069  46.137  -0.193  1.00 20.56 LIG 0.18  HD
ATOM     30  CZ  ARG B1545       3.537  46.633   0.893  1.00 23.27 LIG 0.67  C 
ATOM     31  NH2 ARG B1545       3.081  47.847   1.227  1.00 19.37 LIG-0.23  N 
ATOM     32  NH1 ARG B1545       4.712  46.212   1.345  1.00 20.25 LIG-0.23  N 
ATOM     33 1HH2 ARG B1545       2.327  48.123   0.919  1.00 19.37 LIG 0.17  HD
ATOM     34 2HH2 ARG B1545       3.542  48.351   1.749  1.00 19.37 LIG 0.17  HD
ATOM     35 1HH1 ARG B1545       5.009  45.438   1.115  1.00 20.25 LIG 0.17  HD
ATOM     36 2HH1 ARG B1545       5.176  46.713   1.867  1.00 20.25 LIG 0.17  HD
ENDBRANCH 27 28
ENDBRANCH 26 27
ENDBRANCH 25 26
ENDBRANCH 24 25
BRANCH 24 37
ATOM     37  C   ARG B1545       2.038  42.053  -2.443  1.00 20.11 LIG 0.22  C 
ATOM     38 O    ARG B1545       2.004  41.022  -3.155  1.00 20.61 LIG-0.29  OA
ENDBRANCH 24 37
ENDBRANCH 22 24
ENDBRANCH 19 20
BRANCH 19 39
ATOM     39  CB  LEU B1544      -3.518  40.222  -0.846  1.00 22.71 LIG 0.04  C 
BRANCH 39 40
ATOM     40  CG  LEU B1544      -4.255  38.952  -0.393  1.00 23.46 LIG-0.02  C 
ATOM     41  CD1 LEU B1544      -4.748  39.161   1.043  1.00 24.99 LIG 0.01  C 
ATOM     42  CD2 LEU B1544      -5.424  38.633  -1.316  1.00 22.67 LIG 0.01  C 
ENDBRANCH 39 40
ENDBRANCH 19 39
ENDBRANCH 16 19
ENDBRANCH 5 15
ENDBRANCH 3 5
BRANCH 1 43
ATOM     43  CA  TRP B1542      -4.564  43.219   4.720  1.00 29.62 LIG 0.18  C 
BRANCH 43 44
ATOM     44  N   TRP B1542      -4.395  44.630   4.381  1.00 31.24 LIG-0.35  N 
ATOM     45  C   ALA B1541      -3.281  45.270   4.696  1.00 34.20 LIG 0.24  C 
ATOM     46 O    ALA B1541      -2.336  44.706   5.244  1.00 33.88 LIG-0.27  OA
ATOM     47 H    TRP B1542      -5.064  44.988   3.974  1.00 31.24 LIG 0.16  HD
BRANCH 45 48
ATOM     48  CA  ALA B1541      -3.208  46.761   4.334  1.00 35.59 LIG 0.17  C 
ATOM     49  CB  ALA B1541      -3.239  47.616   5.623  1.00 37.24 LIG 0.04  C 
BRANCH 48 50
ATOM     50  N   ALA B1541      -4.241  47.243   3.407  1.00 36.68 LIG-0.35  N 
ATOM     51  C   ALA B1540      -4.209  46.969   2.106  1.00 36.41 LIG 0.24  C 
ATOM     52 O    ALA B1540      -3.343  46.251   1.596  1.00 35.55 LIG-0.27  OA
ATOM     53 H    ALA B1541      -4.858  47.712   3.781  1.00 36.68 LIG 0.16  HD
BRANCH 51 54
ATOM     54  CA  ALA B1540      -5.341  47.569   1.263  1.00 37.40 LIG 0.17  C 
ATOM     55  CB  ALA B1540      -5.239  47.082  -0.190  1.00 38.11 LIG 0.04  C 
BRANCH 54 56
ATOM     56  N   ALA B1540      -5.335  49.031   1.291  1.00 38.31 LIG-0.35  N 
ATOM     57 H    ALA B1540      -4.975  49.392   0.598  1.00 38.31 LIG 0.16  HD
ATOM     58  C   ILE B1539      -5.840  49.726   2.300  1.00 39.48 LIG 0.26  C 
ATOM     59 O    ILE B1539      -6.339  49.197   3.284  1.00 40.50 LIG-0.27  OA
BRANCH 58 60
ATOM     60  CA  ILE B1539      -5.745  51.249   2.192  1.00 40.24 LIG 0.40  C 
ATOM     61  N   ILE B1539      -6.917  51.934   2.826  1.00 42.50 LIG 0.61  N 
BRANCH 60 62
ATOM     62  CB  ILE B1539      -4.399  51.684   2.845  1.00 40.48 LIG 0.03  C 
ATOM     63  CG2 ILE B1539      -4.639  52.853   3.799  1.00 38.85 LIG 0.01  C 
BRANCH 62 64
ATOM     64  CG1 ILE B1539      -3.761  50.513   3.600  1.00 39.99 LIG 0.00  C 
ATOM     65  CD1 ILE B1539      -3.502  50.812   5.083  1.00 39.67 LIG 0.01  C 
ENDBRANCH 62 64
ENDBRANCH 60 62
ENDBRANCH 58 60
ENDBRANCH 54 56
ENDBRANCH 51 54
ENDBRANCH 48 50
ENDBRANCH 45 48
ENDBRANCH 43 44
BRANCH 43 66
ATOM     66  CB  TRP B1542      -6.057  42.863   4.683  1.00 29.93 LIG 0.07  C 
BRANCH 66 67
ATOM     67  CG  TRP B1542      -6.481  41.880   5.777  1.00 31.09 LIG-0.03  A 
ATOM     68  CD1 TRP B1542      -7.542  42.021   6.637  1.00 35.00 LIG 0.10  A 
ATOM     69  NE1 TRP B1542      -7.638  40.919   7.465  1.00 35.42 LIG-0.36  N 
ATOM     70 HE1  TRP B1542      -8.233  40.803   8.076  1.00 35.42 LIG 0.17  HD
ATOM     71  CE2 TRP B1542      -6.632  40.039   7.154  1.00 34.23 LIG 0.04  A 
ATOM     72  CD2 TRP B1542      -5.878  40.610   6.096  1.00 31.85 LIG-0.00  A 
ATOM     73  CZ2 TRP B1542      -6.322  38.788   7.712  1.00 32.49 LIG 0.03  A 
ATOM     74  CE3 TRP B1542      -4.780  39.899   5.591  1.00 30.05 LIG 0.01  A 
ATOM     75  CZ3 TRP B1542      -4.469  38.653   6.146  1.00 29.28 LIG 0.00  A 
ATOM     76  CH2 TRP B1542      -5.245  38.112   7.199  1.00 32.34 LIG 0.00  A 
ENDBRANCH 66 67
ENDBRANCH 43 66
ENDBRANCH 1 43
TORSDOF 26
ENDMDL
MODEL 54
USER: ADFR SOLUTION from run 151
USER: SCORE 19.810763 LL:  -5.357 LR: -17.311 RR:   0.000 FEB:  -9.555
USER: RMSD 7.237354
USER: SEED 150
USER: STATUS no improvement in best in 1 clusters for 5 generations
USER: GENES 28
USER: genes 0 Translation |==|  0.48525 0.30493 0.56842
USER: genes 1 Rotation |==|  0.95760 0.53424 0.36869 0.64897
USER: genes 2 Torsion [C]-N--CA-[CB] |==|  0.49533
USER: genes 3 Torsion [N]-CA--CB-[CG] |==|  0.65892
USER: genes 4 Torsion [CA]-CB--CG-[CD1] |==|  0.23559
USER: genes 5 Torsion [CE1]-CZ--OH-[HH] |==|  0.80552
USER: genes 6 Torsion [N]-CA--C-[N] |==|  0.52971
USER: genes 7 Torsion [C]-N--CA-[CB] |==|  0.52778
USER: genes 8 Torsion [N]-CA--C-[N] |==|  0.81334
USER: genes 9 Torsion [C]-N--CA-[CB] |==|  0.22360
USER: genes 10 Torsion [N]-CA--CB-[CG] |==|  0.75860
USER: genes 11 Torsion [CA]-CB--CG-[CD] |==|  0.33948
USER: genes 12 Torsion [CB]-CG--CD-[NE] |==|  0.54803
USER: genes 13 Torsion [CG]-CD--NE-[HE] |==|  0.33495
USER: genes 14 Torsion [N]-CA--C-[O] |==|  0.39805
USER: genes 15 Torsion [N]-CA--CB-[CG] |==|  0.66690
USER: genes 16 Torsion [CA]-CB--CG-[CD1] |==|  0.91571
USER: genes 17 Torsion [N]-C--CA-[N] |==|  0.96657
USER: genes 18 Torsion [C]-CA--N-[C] |==|  0.78622
USER: genes 19 Torsion [N]-C--CA-[N] |==|  0.04458
USER: genes 20 Torsion [C]-CA--N-[C] |==|  0.17351
USER: genes 21 Torsion [N]-C--CA-[N] |==|  0.02649
USER: genes 22 Torsion [C]-CA--N-[C] |==|  0.21959
USER: genes 23 Torsion [N]-C--CA-[N] |==|  0.95168
USER: genes 24 Torsion [C]-CA--CB-[CG1] |==|  0.17199
USER: genes 25 Torsion [CA]-CB--CG1-[CD1] |==|  0.70539
USER: genes 26 Torsion [C]-CA--CB-[CG] |==|  0.39598
USER: genes 27 Torsion [CA]-CB--CG-[CD1] |==|  0.24848
ROOT
ATOM      1  C   TRP B1542      -2.801  40.158   3.753  1.00 26.55 LIG 0.24  C 
ATOM      2 O    TRP B1542      -1.582  40.105   3.671  1.00 27.86 LIG-0.27  OA
ATOM      3  N   TYR B1543      -3.582  40.320   2.692  1.00 24.62 LIG-0.35  N 
ATOM      4 H    TYR B1543      -4.434  40.436   2.731  1.00 24.62 LIG 0.16  HD
ENDROOT
BRANCH 3 5
ATOM      5  CA  TYR B1543      -3.034  40.310   1.348  1.00 22.31 LIG 0.18  C 
BRANCH 5 6
ATOM      6  CB  TYR B1543      -4.181  40.477   0.349  1.00 23.67 LIG 0.07  C 
BRANCH 6 7
ATOM      7  CG  TYR B1543      -4.314  39.373  -0.682  1.00 24.58 LIG-0.06  A 
ATOM      8  CD1 TYR B1543      -5.018  38.205  -0.389  1.00 24.59 LIG 0.01  A 
ATOM      9  CE1 TYR B1543      -5.083  37.161  -1.299  1.00 26.50 LIG 0.04  A 
ATOM     10  CZ  TYR B1543      -4.433  37.284  -2.511  1.00 24.60 LIG 0.07  A 
ATOM     11  CE2 TYR B1543      -3.732  38.446  -2.823  1.00 24.06 LIG 0.04  A 
ATOM     12  CD2 TYR B1543      -3.684  39.471  -1.917  1.00 22.62 LIG 0.01  A 
BRANCH 10 13
ATOM     13 OH   TYR B1543      -4.450  36.242  -3.393  1.00 26.51 LIG-0.36  OA
ATOM     14 HH   TYR B1543      -3.979  35.613  -3.093  1.00 26.51 LIG 0.22  HD
ENDBRANCH 10 13
ENDBRANCH 6 7
ENDBRANCH 5 6
BRANCH 5 15
ATOM     15  C   TYR B1543      -1.913  41.274   0.993  1.00 22.90 LIG 0.24  C 
ATOM     16  N   LEU B1544      -1.595  41.382  -0.289  1.00 22.60 LIG-0.35  N 
ATOM     17 H    LEU B1544      -1.998  40.972  -0.929  1.00 22.60 LIG 0.16  HD
ATOM     18 O    TYR B1543      -1.335  41.904   1.872  1.00 21.43 LIG-0.27  OA
BRANCH 16 19
ATOM     19  CA  LEU B1544      -0.496  42.240  -0.701  1.00 22.81 LIG 0.18  C 
BRANCH 19 20
ATOM     20  C   LEU B1544      -0.560  43.610  -0.034  1.00 21.53 LIG 0.24  C 
ATOM     21 O    LEU B1544       0.293  43.959   0.790  1.00 22.00 LIG-0.27  OA
ATOM     22  N   ARG B1545      -1.576  44.389  -0.388  1.00 20.14 LIG-0.35  N 
ATOM     23 H    ARG B1545      -2.187  44.177  -0.955  1.00 20.14 LIG 0.16  HD
BRANCH 22 24
ATOM     24  CA  ARG B1545      -1.708  45.710   0.204  1.00 18.95 LIG 0.16  C 
BRANCH 24 25
ATOM     25  CB  ARG B1545      -0.773  46.701  -0.503  1.00 20.51 LIG 0.04  C 
BRANCH 25 26
ATOM     26  CG  ARG B1545       0.613  46.669   0.142  1.00 20.78 LIG 0.02  C 
BRANCH 26 27
ATOM     27  CD  ARG B1545       1.727  46.324  -0.842  1.00 21.13 LIG 0.14  C 
BRANCH 27 28
ATOM     28  NE  ARG B1545       2.938  45.908  -0.126  1.00 20.56 LIG-0.23  N 
ATOM     29 HE   ARG B1545       3.249  45.121  -0.279  1.00 20.56 LIG 0.18  HD
ATOM     30  CZ  ARG B1545       3.583  46.677   0.745  1.00 23.27 LIG 0.67  C 
ATOM     31  NH2 ARG B1545       4.667  46.214   1.382  1.00 19.37 LIG-0.23  N 
ATOM     32  NH1 ARG B1545       3.130  47.899   0.996  1.00 20.25 LIG-0.23  N 
ATOM     33 1HH2 ARG B1545       4.948  45.417   1.229  1.00 19.37 LIG 0.17  HD
ATOM     34 2HH2 ARG B1545       5.081  46.715   1.945  1.00 19.37 LIG 0.17  HD
ATOM     35 1HH1 ARG B1545       2.425  48.186   0.597  1.00 20.25 LIG 0.17  HD
ATOM     36 2HH1 ARG B1545       3.542  48.403   1.558  1.00 20.25 LIG 0.17  HD
ENDBRANCH 27 28
ENDBRANCH 26 27
ENDBRANCH 25 26
ENDBRANCH 24 25
BRANCH 24 37
ATOM     37  C   ARG B1545      -3.150  46.202   0.218  1.00 20.11 LIG 0.22  C 
ATOM     38 O    ARG B1545      -3.510  46.869   1.217  1.00 20.61 LIG-0.29  OA
ENDBRANCH 24 37
ENDBRANCH 22 24
ENDBRANCH 19 20
BRANCH 19 39
ATOM     39  CB  LEU B1544      -0.497  42.382  -2.229  1.00 22.71 LIG 0.04  C 
BRANCH 39 40
ATOM     40  CG  LEU B1544       0.783  41.888  -2.921  1.00 23.46 LIG-0.02  C 
ATOM     41  CD1 LEU B1544       1.962  42.088  -1.965  1.00 24.99 LIG 0.01  C 
ATOM     42  CD2 LEU B1544       0.663  40.423  -3.321  1.00 22.67 LIG 0.01  C 
ENDBRANCH 39 40
ENDBRANCH 19 39
ENDBRANCH 16 19
ENDBRANCH 5 15
ENDBRANCH 3 5
BRANCH 1 43
ATOM     43  CA  TRP B1542      -3.486  40.072   5.112  1.00 29.62 LIG 0.18  C 
BRANCH 43 44
ATOM     44  N   TRP B1542      -4.894  40.461   5.067  1.00 31.24 LIG-0.35  N 
ATOM     45  C   ALA B1541      -5.239  41.736   5.003  1.00 34.20 LIG 0.24  C 
ATOM     46 O    ALA B1541      -4.405  42.637   4.940  1.00 33.88 LIG-0.27  OA
ATOM     47 H    TRP B1542      -5.452  39.806   5.085  1.00 31.24 LIG 0.16  HD
BRANCH 45 48
ATOM     48  CA  ALA B1541      -6.742  42.051   4.999  1.00 35.59 LIG 0.17  C 
ATOM     49  CB  ALA B1541      -7.019  43.302   5.866  1.00 37.24 LIG 0.04  C 
BRANCH 48 50
ATOM     50  N   ALA B1541      -7.625  40.958   5.430  1.00 36.68 LIG-0.35  N 
ATOM     51  C   ALA B1540      -7.570  40.445   6.656  1.00 36.41 LIG 0.24  C 
ATOM     52 O    ALA B1540      -6.815  40.883   7.530  1.00 35.55 LIG-0.27  OA
ATOM     53 H    ALA B1541      -8.170  40.686   4.823  1.00 36.68 LIG 0.16  HD
BRANCH 51 54
ATOM     54  CA  ALA B1540      -8.534  39.287   6.945  1.00 37.40 LIG 0.17  C 
ATOM     55  CB  ALA B1540      -7.785  38.127   7.619  1.00 38.11 LIG 0.04  C 
BRANCH 54 56
ATOM     56  N   ALA B1540      -9.196  38.804   5.734  1.00 38.31 LIG-0.35  N 
ATOM     57 H    ALA B1540     -10.000  39.092   5.637  1.00 38.31 LIG 0.16  HD
ATOM     58  C   ILE B1539      -8.598  37.995   4.871  1.00 39.48 LIG 0.26  C 
ATOM     59 O    ILE B1539      -7.455  37.587   5.029  1.00 40.50 LIG-0.27  OA
BRANCH 58 60
ATOM     60  CA  ILE B1539      -9.426  37.562   3.659  1.00 40.24 LIG 0.40  C 
ATOM     61  N   ILE B1539     -10.892  37.791   3.869  1.00 42.50 LIG 0.61  N 
BRANCH 60 62
ATOM     62  CB  ILE B1539      -8.891  38.341   2.421  1.00 40.48 LIG 0.03  C 
ATOM     63  CG2 ILE B1539      -9.031  39.844   2.652  1.00 38.85 LIG 0.01  C 
BRANCH 62 64
ATOM     64  CG1 ILE B1539      -7.424  37.987   2.151  1.00 39.99 LIG 0.00  C 
ATOM     65  CD1 ILE B1539      -6.445  39.101   2.546  1.00 39.67 LIG 0.01  C 
ENDBRANCH 62 64
ENDBRANCH 60 62
ENDBRANCH 58 60
ENDBRANCH 54 56
ENDBRANCH 51 54
ENDBRANCH 48 50
ENDBRANCH 45 48
ENDBRANCH 43 44
BRANCH 43 66
ATOM     66  CB  TRP B1542      -3.374  38.629   5.623  1.00 29.93 LIG 0.07  C 
BRANCH 66 67
ATOM     67  CG  TRP B1542      -3.147  38.528   7.133  1.00 31.09 LIG-0.03  A 
ATOM     68  CD1 TRP B1542      -4.116  38.457   8.103  1.00 35.00 LIG 0.10  A 
ATOM     69  NE1 TRP B1542      -3.537  38.340   9.352  1.00 35.42 LIG-0.36  N 
ATOM     70 HE1  TRP B1542      -3.962  38.280  10.097  1.00 35.42 LIG 0.17  HD
ATOM     71  CE2 TRP B1542      -2.171  38.336   9.211  1.00 34.23 LIG 0.04  A 
ATOM     72  CD2 TRP B1542      -1.885  38.455   7.827  1.00 31.85 LIG-0.00  A 
ATOM     73  CZ2 TRP B1542      -1.164  38.234  10.184  1.00 32.49 LIG 0.03  A 
ATOM     74  CE3 TRP B1542      -0.544  38.477   7.416  1.00 30.05 LIG 0.01  A 
ATOM     75  CZ3 TRP B1542       0.460  38.376   8.383  1.00 29.28 LIG 0.00  A 
ATOM     76  CH2 TRP B1542       0.138  38.255   9.756  1.00 32.34 LIG 0.00  A 
ENDBRANCH 66 67
ENDBRANCH 43 66
ENDBRANCH 1 43
TORSDOF 26
ENDMDL
MODEL 55
USER: ADFR SOLUTION from run 86
USER: SCORE 21.750618 LL:  -6.545 LR: -17.313 RR:   0.000 FEB:  -9.558
USER: RMSD 4.703735
USER: SEED 85
USER: STATUS no improvement in best in 4 clusters for 5 generations
USER: GENES 28
USER: genes 0 Translation |==|  0.39940 0.51237 0.47326
USER: genes 1 Rotation |==|  0.18367 0.68453 0.31115 0.78323
USER: genes 2 Torsion [C]-N--CA-[CB] |==|  0.77649
USER: genes 3 Torsion [N]-CA--CB-[CG] |==|  0.48602
USER: genes 4 Torsion [CA]-CB--CG-[CD1] |==|  0.64824
USER: genes 5 Torsion [CE1]-CZ--OH-[HH] |==|  0.43531
USER: genes 6 Torsion [N]-CA--C-[N] |==|  0.75152
USER: genes 7 Torsion [C]-N--CA-[CB] |==|  0.54502
USER: genes 8 Torsion [N]-CA--C-[N] |==|  0.36302
USER: genes 9 Torsion [C]-N--CA-[CB] |==|  0.43256
USER: genes 10 Torsion [N]-CA--CB-[CG] |==|  0.82381
USER: genes 11 Torsion [CA]-CB--CG-[CD] |==|  0.67526
USER: genes 12 Torsion [CB]-CG--CD-[NE] |==|  0.57152
USER: genes 13 Torsion [CG]-CD--NE-[HE] |==|  0.18327
USER: genes 14 Torsion [N]-CA--C-[O] |==|  0.68416
USER: genes 15 Torsion [N]-CA--CB-[CG] |==|  0.90009
USER: genes 16 Torsion [CA]-CB--CG-[CD1] |==|  0.39958
USER: genes 17 Torsion [N]-C--CA-[N] |==|  0.88668
USER: genes 18 Torsion [C]-CA--N-[C] |==|  0.85513
USER: genes 19 Torsion [N]-C--CA-[N] |==|  0.87906
USER: genes 20 Torsion [C]-CA--N-[C] |==|  0.87465
USER: genes 21 Torsion [N]-C--CA-[N] |==|  0.18512
USER: genes 22 Torsion [C]-CA--N-[C] |==|  0.17021
USER: genes 23 Torsion [N]-C--CA-[N] |==|  0.02760
USER: genes 24 Torsion [C]-CA--CB-[CG1] |==|  0.73448
USER: genes 25 Torsion [CA]-CB--CG1-[CD1] |==|  0.26294
USER: genes 26 Torsion [C]-CA--CB-[CG] |==|  0.88325
USER: genes 27 Torsion [CA]-CB--CG-[CD1] |==|  0.81164
ROOT
ATOM      1  C   TRP B1542      -4.797  44.203   1.969  1.00 26.55 LIG 0.24  C 
ATOM      2 O    TRP B1542      -4.733  43.007   1.723  1.00 27.86 LIG-0.27  OA
ATOM      3  N   TYR B1543      -3.940  44.813   2.778  1.00 24.62 LIG-0.35  N 
ATOM      4 H    TYR B1543      -4.008  45.634   3.027  1.00 24.62 LIG 0.16  HD
ENDROOT
BRANCH 3 5
ATOM      5  CA  TYR B1543      -2.789  44.111   3.318  1.00 22.31 LIG 0.18  C 
BRANCH 5 6
ATOM      6  CB  TYR B1543      -3.245  43.269   4.513  1.00 23.67 LIG 0.07  C 
BRANCH 6 7
ATOM      7  CG  TYR B1543      -2.184  42.375   5.124  1.00 24.58 LIG-0.06  A 
ATOM      8  CD1 TYR B1543      -2.413  41.010   5.294  1.00 24.59 LIG 0.01  A 
ATOM      9  CE1 TYR B1543      -1.478  40.199   5.919  1.00 26.50 LIG 0.04  A 
ATOM     10  CZ  TYR B1543      -0.304  40.761   6.383  1.00 24.60 LIG 0.07  A 
ATOM     11  CE2 TYR B1543      -0.056  42.121   6.213  1.00 24.06 LIG 0.04  A 
ATOM     12  CD2 TYR B1543      -0.986  42.906   5.588  1.00 22.62 LIG 0.01  A 
BRANCH 10 13
ATOM     13 OH   TYR B1543       0.601  39.980   7.042  1.00 26.51 LIG-0.36  OA
ATOM     14 HH   TYR B1543       1.364  40.328   6.987  1.00 26.51 LIG 0.22  HD
ENDBRANCH 10 13
ENDBRANCH 6 7
ENDBRANCH 5 6
BRANCH 5 15
ATOM     15  C   TYR B1543      -1.936  43.256   2.395  1.00 22.90 LIG 0.24  C 
ATOM     16  N   LEU B1544      -2.287  41.985   2.257  1.00 22.60 LIG-0.35  N 
ATOM     17 H    LEU B1544      -2.975  41.625   2.625  1.00 22.60 LIG 0.16  HD
ATOM     18 O    TYR B1543      -0.966  43.739   1.823  1.00 21.43 LIG-0.27  OA
BRANCH 16 19
ATOM     19  CA  LEU B1544      -1.487  41.090   1.436  1.00 22.81 LIG 0.18  C 
BRANCH 19 20
ATOM     20  C   LEU B1544      -1.008  41.765   0.155  1.00 21.53 LIG 0.24  C 
ATOM     21 O    LEU B1544      -1.794  42.381  -0.575  1.00 22.00 LIG-0.27  OA
ATOM     22  N   ARG B1545       0.286  41.648  -0.122  1.00 20.14 LIG-0.35  N 
ATOM     23 H    ARG B1545       0.858  41.226   0.362  1.00 20.14 LIG 0.16  HD
BRANCH 22 24
ATOM     24  CA  ARG B1545       0.821  42.263  -1.326  1.00 18.95 LIG 0.16  C 
BRANCH 24 25
ATOM     25  CB  ARG B1545       2.322  42.534  -1.156  1.00 20.51 LIG 0.04  C 
BRANCH 25 26
ATOM     26  CG  ARG B1545       2.552  43.542  -0.030  1.00 20.78 LIG 0.02  C 
BRANCH 26 27
ATOM     27  CD  ARG B1545       3.191  44.843  -0.507  1.00 21.13 LIG 0.14  C 
BRANCH 27 28
ATOM     28  NE  ARG B1545       3.928  45.488   0.585  1.00 20.56 LIG-0.23  N 
ATOM     29 HE   ARG B1545       4.624  45.088   0.895  1.00 20.56 LIG 0.18  HD
ATOM     30  CZ  ARG B1545       3.585  46.653   1.122  1.00 23.27 LIG 0.67  C 
ATOM     31  NH2 ARG B1545       4.292  47.164   2.140  1.00 19.37 LIG-0.23  N 
ATOM     32  NH1 ARG B1545       2.520  47.296   0.659  1.00 20.25 LIG-0.23  N 
ATOM     33 1HH2 ARG B1545       4.971  46.737   2.447  1.00 19.37 LIG 0.17  HD
ATOM     34 2HH2 ARG B1545       4.066  47.918   2.484  1.00 19.37 LIG 0.17  HD
ATOM     35 1HH1 ARG B1545       2.059  46.957   0.017  1.00 20.25 LIG 0.17  HD
ATOM     36 2HH1 ARG B1545       2.291  48.051   1.002  1.00 20.25 LIG 0.17  HD
ENDBRANCH 27 28
ENDBRANCH 26 27
ENDBRANCH 25 26
ENDBRANCH 24 25
BRANCH 24 37
ATOM     37  C   ARG B1545       0.530  41.445  -2.577  1.00 20.11 LIG 0.22  C 
ATOM     38 O    ARG B1545       1.516  40.937  -3.162  1.00 20.61 LIG-0.29  OA
ENDBRANCH 24 37
ENDBRANCH 22 24
ENDBRANCH 19 20
BRANCH 19 39
ATOM     39  CB  LEU B1544      -2.295  39.827   1.112  1.00 22.71 LIG 0.04  C 
BRANCH 39 40
ATOM     40  CG  LEU B1544      -3.214  39.344   2.245  1.00 23.46 LIG-0.02  C 
ATOM     41  CD1 LEU B1544      -4.498  38.783   1.626  1.00 24.99 LIG 0.01  C 
ATOM     42  CD2 LEU B1544      -2.528  38.286   3.100  1.00 22.67 LIG 0.01  C 
ENDBRANCH 39 40
ENDBRANCH 19 39
ENDBRANCH 16 19
ENDBRANCH 5 15
ENDBRANCH 3 5
BRANCH 1 43
ATOM     43  CA  TRP B1542      -5.908  45.055   1.367  1.00 29.62 LIG 0.18  C 
BRANCH 43 44
ATOM     44  N   TRP B1542      -6.481  46.003   2.321  1.00 31.24 LIG-0.35  N 
ATOM     45  C   ALA B1541      -6.914  45.591   3.502  1.00 34.20 LIG 0.24  C 
ATOM     46 O    ALA B1541      -6.820  44.419   3.860  1.00 33.88 LIG-0.27  OA
ATOM     47 H    TRP B1542      -6.508  46.819   2.051  1.00 31.24 LIG 0.16  HD
BRANCH 45 48
ATOM     48  CA  ALA B1541      -7.536  46.651   4.423  1.00 35.59 LIG 0.17  C 
ATOM     49  CB  ALA B1541      -9.003  46.911   4.010  1.00 37.24 LIG 0.04  C 
BRANCH 48 50
ATOM     50  N   ALA B1541      -6.818  47.931   4.498  1.00 36.68 LIG-0.35  N 
ATOM     51  C   ALA B1540      -5.497  47.996   4.635  1.00 36.41 LIG 0.24  C 
ATOM     52 O    ALA B1540      -4.778  46.991   4.657  1.00 35.55 LIG-0.27  OA
ATOM     53 H    ALA B1541      -7.326  48.623   4.445  1.00 36.68 LIG 0.16  HD
BRANCH 51 54
ATOM     54  CA  ALA B1540      -4.898  49.404   4.729  1.00 37.40 LIG 0.17  C 
ATOM     55  CB  ALA B1540      -3.364  49.336   4.657  1.00 38.11 LIG 0.04  C 
BRANCH 54 56
ATOM     56  N   ALA B1540      -5.299  50.094   5.954  1.00 38.31 LIG-0.35  N 
ATOM     57 H    ALA B1540      -5.745  50.818   5.817  1.00 38.31 LIG 0.16  HD
ATOM     58  C   ILE B1539      -4.998  49.636   7.161  1.00 39.48 LIG 0.26  C 
ATOM     59 O    ILE B1539      -4.355  48.611   7.337  1.00 40.50 LIG-0.27  OA
BRANCH 58 60
ATOM     60  CA  ILE B1539      -5.474  50.479   8.346  1.00 40.24 LIG 0.40  C 
ATOM     61  N   ILE B1539      -6.413  51.568   7.922  1.00 42.50 LIG 0.61  N 
BRANCH 60 62
ATOM     62  CB  ILE B1539      -6.135  49.514   9.374  1.00 40.48 LIG 0.03  C 
ATOM     63  CG2 ILE B1539      -5.805  49.965  10.796  1.00 38.85 LIG 0.01  C 
BRANCH 62 64
ATOM     64  CG1 ILE B1539      -7.655  49.472   9.177  1.00 39.99 LIG 0.00  C 
ATOM     65  CD1 ILE B1539      -8.121  48.317   8.281  1.00 39.67 LIG 0.01  C 
ENDBRANCH 62 64
ENDBRANCH 60 62
ENDBRANCH 58 60
ENDBRANCH 54 56
ENDBRANCH 51 54
ENDBRANCH 48 50
ENDBRANCH 45 48
ENDBRANCH 43 44
BRANCH 43 66
ATOM     66  CB  TRP B1542      -5.337  45.825   0.169  1.00 29.93 LIG 0.07  C 
BRANCH 66 67
ATOM     67  CG  TRP B1542      -3.942  46.403   0.419  1.00 31.09 LIG-0.03  A 
ATOM     68  CD1 TRP B1542      -3.619  47.414   1.290  1.00 35.00 LIG 0.10  A 
ATOM     69  NE1 TRP B1542      -2.257  47.645   1.273  1.00 35.42 LIG-0.36  N 
ATOM     70 HE1  TRP B1542      -1.843  48.233   1.745  1.00 35.42 LIG 0.17  HD
ATOM     71  CE2 TRP B1542      -1.669  46.782   0.382  1.00 34.23 LIG 0.04  A 
ATOM     72  CD2 TRP B1542      -2.699  45.984  -0.181  1.00 31.85 LIG-0.00  A 
ATOM     73  CZ2 TRP B1542      -0.320  46.634   0.024  1.00 32.49 LIG 0.03  A 
ATOM     74  CE3 TRP B1542      -2.355  45.013  -1.133  1.00 30.05 LIG 0.01  A 
ATOM     75  CZ3 TRP B1542      -1.012  44.865  -1.490  1.00 29.28 LIG 0.00  A 
ATOM     76  CH2 TRP B1542      -0.009  45.677  -0.907  1.00 32.34 LIG 0.00  A 
ENDBRANCH 66 67
ENDBRANCH 43 66
ENDBRANCH 1 43
TORSDOF 26
ENDMDL
MODEL 56
USER: ADFR SOLUTION from run 124
USER: SCORE 20.329491 LL:  -6.518 LR: -17.284 RR:   0.000 FEB:  -9.528
USER: RMSD 3.952365
USER: SEED 123
USER: STATUS no improvement in best in 14 clusters for 5 generations
USER: GENES 28
USER: genes 0 Translation |==|  0.40770 0.46458 0.52825
USER: genes 1 Rotation |==|  0.19015 0.76803 0.46100 0.78396
USER: genes 2 Torsion [C]-N--CA-[CB] |==|  0.84805
USER: genes 3 Torsion [N]-CA--CB-[CG] |==|  0.72774
USER: genes 4 Torsion [CA]-CB--CG-[CD1] |==|  0.52382
USER: genes 5 Torsion [CE1]-CZ--OH-[HH] |==|  0.98565
USER: genes 6 Torsion [N]-CA--C-[N] |==|  0.87929
USER: genes 7 Torsion [C]-N--CA-[CB] |==|  0.77707
USER: genes 8 Torsion [N]-CA--C-[N] |==|  0.61476
USER: genes 9 Torsion [C]-N--CA-[CB] |==|  0.81497
USER: genes 10 Torsion [N]-CA--CB-[CG] |==|  0.88431
USER: genes 11 Torsion [CA]-CB--CG-[CD] |==|  0.74393
USER: genes 12 Torsion [CB]-CG--CD-[NE] |==|  0.46789
USER: genes 13 Torsion [CG]-CD--NE-[HE] |==|  0.83287
USER: genes 14 Torsion [N]-CA--C-[O] |==|  0.14054
USER: genes 15 Torsion [N]-CA--CB-[CG] |==|  0.06461
USER: genes 16 Torsion [CA]-CB--CG-[CD1] |==|  0.30653
USER: genes 17 Torsion [N]-C--CA-[N] |==|  0.64055
USER: genes 18 Torsion [C]-CA--N-[C] |==|  0.46687
USER: genes 19 Torsion [N]-C--CA-[N] |==|  0.05340
USER: genes 20 Torsion [C]-CA--N-[C] |==|  0.17844
USER: genes 21 Torsion [N]-C--CA-[N] |==|  0.14410
USER: genes 22 Torsion [C]-CA--N-[C] |==|  0.15659
USER: genes 23 Torsion [N]-C--CA-[N] |==|  0.22488
USER: genes 24 Torsion [C]-CA--CB-[CG1] |==|  0.59153
USER: genes 25 Torsion [CA]-CB--CG1-[CD1] |==|  0.46005
USER: genes 26 Torsion [C]-CA--CB-[CG] |==|  0.24341
USER: genes 27 Torsion [CA]-CB--CG-[CD1] |==|  0.05850
ROOT
ATOM      1  C   TRP B1542      -4.604  43.271   3.000  1.00 26.55 LIG 0.24  C 
ATOM      2 O    TRP B1542      -4.672  42.252   2.327  1.00 27.86 LIG-0.27  OA
ATOM      3  N   TYR B1543      -3.451  43.770   3.428  1.00 24.62 LIG-0.35  N 
ATOM      4 H    TYR B1543      -3.382  44.439   3.964  1.00 24.62 LIG 0.16  HD
ENDROOT
BRANCH 3 5
ATOM      5  CA  TYR B1543      -2.185  43.199   3.006  1.00 22.31 LIG 0.18  C 
BRANCH 5 6
ATOM      6  CB  TYR B1543      -2.191  41.702   3.325  1.00 23.67 LIG 0.07  C 
BRANCH 6 7
ATOM      7  CG  TYR B1543      -1.493  41.306   4.612  1.00 24.58 LIG-0.06  A 
ATOM      8  CD1 TYR B1543      -1.277  39.963   4.921  1.00 24.59 LIG 0.01  A 
ATOM      9  CE1 TYR B1543      -0.707  39.589   6.129  1.00 26.50 LIG 0.04  A 
ATOM     10  CZ  TYR B1543      -0.354  40.568   7.037  1.00 24.60 LIG 0.07  A 
ATOM     11  CE2 TYR B1543      -0.556  41.914   6.741  1.00 24.06 LIG 0.04  A 
ATOM     12  CD2 TYR B1543      -1.113  42.266   5.542  1.00 22.62 LIG 0.01  A 
BRANCH 10 13
ATOM     13 OH   TYR B1543       0.163  40.207   8.248  1.00 26.51 LIG-0.36  OA
ATOM     14 HH   TYR B1543       0.141  39.371   8.324  1.00 26.51 LIG 0.22  HD
ENDBRANCH 10 13
ENDBRANCH 6 7
ENDBRANCH 5 6
BRANCH 5 15
ATOM     15  C   TYR B1543      -1.712  43.407   1.576  1.00 22.90 LIG 0.24  C 
ATOM     16  N   LEU B1544      -2.616  43.261   0.616  1.00 22.60 LIG-0.35  N 
ATOM     17 H    LEU B1544      -3.448  43.091   0.750  1.00 22.60 LIG 0.16  HD
ATOM     18 O    TYR B1543      -0.542  43.684   1.343  1.00 21.43 LIG-0.27  OA
BRANCH 16 19
ATOM     19  CA  LEU B1544      -2.228  43.388  -0.779  1.00 22.81 LIG 0.18  C 
BRANCH 19 20
ATOM     20  C   LEU B1544      -0.911  42.677  -1.073  1.00 21.53 LIG 0.24  C 
ATOM     21 O    LEU B1544      -0.660  41.570  -0.583  1.00 22.00 LIG-0.27  OA
ATOM     22  N   ARG B1545      -0.065  43.315  -1.874  1.00 20.14 LIG-0.35  N 
ATOM     23 H    ARG B1545      -0.207  44.086  -2.230  1.00 20.14 LIG 0.16  HD
BRANCH 22 24
ATOM     24  CA  ARG B1545       1.213  42.705  -2.203  1.00 18.95 LIG 0.16  C 
BRANCH 24 25
ATOM     25  CB  ARG B1545       2.093  42.617  -0.949  1.00 20.51 LIG 0.04  C 
BRANCH 25 26
ATOM     26  CG  ARG B1545       1.979  43.906  -0.134  1.00 20.78 LIG 0.02  C 
BRANCH 26 27
ATOM     27  CD  ARG B1545       3.041  44.941  -0.492  1.00 21.13 LIG 0.14  C 
BRANCH 27 28
ATOM     28  NE  ARG B1545       2.723  46.239   0.111  1.00 20.56 LIG-0.23  N 
ATOM     29 HE   ARG B1545       1.980  46.615  -0.106  1.00 20.56 LIG 0.18  HD
ATOM     30  CZ  ARG B1545       3.514  46.868   0.974  1.00 23.27 LIG 0.67  C 
ATOM     31  NH2 ARG B1545       3.167  48.068   1.459  1.00 19.37 LIG-0.23  N 
ATOM     32  NH1 ARG B1545       4.662  46.308   1.333  1.00 20.25 LIG-0.23  N 
ATOM     33 1HH2 ARG B1545       2.430  48.434   1.212  1.00 19.37 LIG 0.17  HD
ATOM     34 2HH2 ARG B1545       3.682  48.471   2.017  1.00 19.37 LIG 0.17  HD
ATOM     35 1HH1 ARG B1545       4.889  45.545   1.007  1.00 20.25 LIG 0.17  HD
ATOM     36 2HH1 ARG B1545       5.180  46.708   1.890  1.00 20.25 LIG 0.17  HD
ENDBRANCH 27 28
ENDBRANCH 26 27
ENDBRANCH 25 26
ENDBRANCH 24 25
BRANCH 24 37
ATOM     37  C   ARG B1545       1.054  41.350  -2.881  1.00 20.11 LIG 0.22  C 
ATOM     38 O    ARG B1545       0.275  41.297  -3.862  1.00 20.61 LIG-0.29  OA
ENDBRANCH 24 37
ENDBRANCH 22 24
ENDBRANCH 19 20
BRANCH 19 39
ATOM     39  CB  LEU B1544      -2.137  44.872  -1.157  1.00 22.71 LIG 0.04  C 
BRANCH 39 40
ATOM     40  CG  LEU B1544      -1.904  45.823   0.028  1.00 23.46 LIG-0.02  C 
ATOM     41  CD1 LEU B1544      -0.487  46.394  -0.077  1.00 24.99 LIG 0.01  C 
ATOM     42  CD2 LEU B1544      -2.932  46.947   0.044  1.00 22.67 LIG 0.01  C 
ENDBRANCH 39 40
ENDBRANCH 19 39
ENDBRANCH 16 19
ENDBRANCH 5 15
ENDBRANCH 3 5
BRANCH 1 43
ATOM     43  CA  TRP B1542      -5.873  44.009   3.411  1.00 29.62 LIG 0.18  C 
BRANCH 43 44
ATOM     44  N   TRP B1542      -6.883  43.127   3.993  1.00 31.24 LIG-0.35  N 
ATOM     45  C   ALA B1541      -7.938  43.629   4.613  1.00 34.20 LIG 0.24  C 
ATOM     46 O    ALA B1541      -8.135  44.839   4.693  1.00 33.88 LIG-0.27  OA
ATOM     47 H    TRP B1542      -6.729  42.286   3.897  1.00 31.24 LIG 0.16  HD
BRANCH 45 48
ATOM     48  CA  ALA B1541      -8.926  42.626   5.228  1.00 35.59 LIG 0.17  C 
ATOM     49  CB  ALA B1541      -9.484  43.186   6.557  1.00 37.24 LIG 0.04  C 
BRANCH 48 50
ATOM     50  N   ALA B1541      -8.403  41.272   5.454  1.00 36.68 LIG-0.35  N 
ATOM     51  C   ALA B1540      -7.416  41.028   6.310  1.00 36.41 LIG 0.24  C 
ATOM     52 O    ALA B1540      -6.906  41.909   7.010  1.00 35.55 LIG-0.27  OA
ATOM     53 H    ALA B1541      -8.791  40.663   4.987  1.00 36.68 LIG 0.16  HD
BRANCH 51 54
ATOM     54  CA  ALA B1540      -6.959  39.567   6.413  1.00 37.40 LIG 0.17  C 
ATOM     55  CB  ALA B1540      -5.727  39.457   7.326  1.00 38.11 LIG 0.04  C 
BRANCH 54 56
ATOM     56  N   ALA B1540      -6.651  38.992   5.105  1.00 38.31 LIG-0.35  N 
ATOM     57 H    ALA B1540      -7.095  38.278   4.924  1.00 38.31 LIG 0.16  HD
ATOM     58  C   ILE B1539      -5.763  39.531   4.281  1.00 39.48 LIG 0.26  C 
ATOM     59 O    ILE B1539      -5.132  40.541   4.559  1.00 40.50 LIG-0.27  OA
BRANCH 58 60
ATOM     60  CA  ILE B1539      -5.537  38.804   2.955  1.00 40.24 LIG 0.40  C 
ATOM     61  N   ILE B1539      -6.594  39.134   1.944  1.00 42.50 LIG 0.61  N 
BRANCH 60 62
ATOM     62  CB  ILE B1539      -4.114  39.182   2.446  1.00 40.48 LIG 0.03  C 
ATOM     63  CG2 ILE B1539      -3.094  38.168   2.959  1.00 38.85 LIG 0.01  C 
BRANCH 62 64
ATOM     64  CG1 ILE B1539      -4.082  39.229   0.914  1.00 39.99 LIG 0.00  C 
ATOM     65  CD1 ILE B1539      -2.835  39.925   0.352  1.00 39.67 LIG 0.01  C 
ENDBRANCH 62 64
ENDBRANCH 60 62
ENDBRANCH 58 60
ENDBRANCH 54 56
ENDBRANCH 51 54
ENDBRANCH 48 50
ENDBRANCH 45 48
ENDBRANCH 43 44
BRANCH 43 66
ATOM     66  CB  TRP B1542      -5.497  45.092   4.431  1.00 29.93 LIG 0.07  C 
BRANCH 66 67
ATOM     67  CG  TRP B1542      -5.098  46.425   3.793  1.00 31.09 LIG-0.03  A 
ATOM     68  CD1 TRP B1542      -5.419  46.856   2.530  1.00 35.00 LIG 0.10  A 
ATOM     69  NE1 TRP B1542      -4.915  48.124   2.313  1.00 35.42 LIG-0.36  N 
ATOM     70 HE1  TRP B1542      -5.003  48.580   1.588  1.00 35.42 LIG 0.17  HD
ATOM     71  CE2 TRP B1542      -4.251  48.538   3.440  1.00 34.23 LIG 0.04  A 
ATOM     72  CD2 TRP B1542      -4.341  47.494   4.396  1.00 31.85 LIG-0.00  A 
ATOM     73  CZ2 TRP B1542      -3.581  49.744   3.701  1.00 32.49 LIG 0.03  A 
ATOM     74  CE3 TRP B1542      -3.734  47.671   5.648  1.00 30.05 LIG 0.01  A 
ATOM     75  CZ3 TRP B1542      -3.066  48.872   5.909  1.00 29.28 LIG 0.00  A 
ATOM     76  CH2 TRP B1542      -2.998  49.895   4.933  1.00 32.34 LIG 0.00  A 
ENDBRANCH 66 67
ENDBRANCH 43 66
ENDBRANCH 1 43
TORSDOF 26
ENDMDL
MODEL 57
USER: ADFR SOLUTION from run 75
USER: SCORE 21.135006 LL:  -5.982 LR: -17.216 RR:   0.000 FEB:  -9.460
USER: RMSD 6.790396
USER: SEED 74
USER: STATUS no improvement in best in 11 clusters for 5 generations
USER: GENES 28
USER: genes 0 Translation |==|  0.43986 0.34831 0.52638
USER: genes 1 Rotation |==|  0.20956 0.54402 0.70763 0.84726
USER: genes 2 Torsion [C]-N--CA-[CB] |==|  0.71785
USER: genes 3 Torsion [N]-CA--CB-[CG] |==|  0.01740
USER: genes 4 Torsion [CA]-CB--CG-[CD1] |==|  0.20527
USER: genes 5 Torsion [CE1]-CZ--OH-[HH] |==|  0.75244
USER: genes 6 Torsion [N]-CA--C-[N] |==|  0.75892
USER: genes 7 Torsion [C]-N--CA-[CB] |==|  0.18079
USER: genes 8 Torsion [N]-CA--C-[N] |==|  0.53562
USER: genes 9 Torsion [C]-N--CA-[CB] |==|  0.82114
USER: genes 10 Torsion [N]-CA--CB-[CG] |==|  0.81733
USER: genes 11 Torsion [CA]-CB--CG-[CD] |==|  0.28769
USER: genes 12 Torsion [CB]-CG--CD-[NE] |==|  0.63354
USER: genes 13 Torsion [CG]-CD--NE-[HE] |==|  0.20880
USER: genes 14 Torsion [N]-CA--C-[O] |==|  0.49970
USER: genes 15 Torsion [N]-CA--CB-[CG] |==|  0.69295
USER: genes 16 Torsion [CA]-CB--CG-[CD1] |==|  0.59491
USER: genes 17 Torsion [N]-C--CA-[N] |==|  0.99681
USER: genes 18 Torsion [C]-CA--N-[C] |==|  0.73356
USER: genes 19 Torsion [N]-C--CA-[N] |==|  0.12219
USER: genes 20 Torsion [C]-CA--N-[C] |==|  0.13918
USER: genes 21 Torsion [N]-C--CA-[N] |==|  0.84444
USER: genes 22 Torsion [C]-CA--N-[C] |==|  0.85593
USER: genes 23 Torsion [N]-C--CA-[N] |==|  0.39351
USER: genes 24 Torsion [C]-CA--CB-[CG1] |==|  0.43433
USER: genes 25 Torsion [CA]-CB--CG1-[CD1] |==|  0.95777
USER: genes 26 Torsion [C]-CA--CB-[CG] |==|  0.47827
USER: genes 27 Torsion [CA]-CB--CG-[CD1] |==|  0.27523
ROOT
ATOM      1  C   TRP B1542      -3.856  41.004   2.965  1.00 26.55 LIG 0.24  C 
ATOM      2 O    TRP B1542      -3.236  41.117   1.917  1.00 27.86 LIG-0.27  OA
ATOM      3  N   TYR B1543      -3.678  41.825   3.993  1.00 24.62 LIG-0.35  N 
ATOM      4 H    TYR B1543      -4.044  41.721   4.764  1.00 24.62 LIG 0.16  HD
ENDROOT
BRANCH 3 5
ATOM      5  CA  TYR B1543      -2.822  42.992   3.881  1.00 22.31 LIG 0.18  C 
BRANCH 5 6
ATOM      6  CB  TYR B1543      -1.478  42.680   4.544  1.00 23.67 LIG 0.07  C 
BRANCH 6 7
ATOM      7  CG  TYR B1543      -1.295  41.248   5.008  1.00 24.58 LIG-0.06  A 
ATOM      8  CD1 TYR B1543      -1.070  40.224   4.088  1.00 24.59 LIG 0.01  A 
ATOM      9  CE1 TYR B1543      -0.975  38.902   4.496  1.00 26.50 LIG 0.04  A 
ATOM     10  CZ  TYR B1543      -1.112  38.602   5.838  1.00 24.60 LIG 0.07  A 
ATOM     11  CE2 TYR B1543      -1.329  39.613   6.770  1.00 24.06 LIG 0.04  A 
ATOM     12  CD2 TYR B1543      -1.413  40.913   6.352  1.00 22.62 LIG 0.01  A 
BRANCH 10 13
ATOM     13 OH   TYR B1543      -1.069  37.299   6.242  1.00 26.51 LIG-0.36  OA
ATOM     14 HH   TYR B1543      -1.844  36.973   6.222  1.00 26.51 LIG 0.22  HD
ENDBRANCH 10 13
ENDBRANCH 6 7
ENDBRANCH 5 6
BRANCH 5 15
ATOM     15  C   TYR B1543      -2.577  43.608   2.513  1.00 22.90 LIG 0.24  C 
ATOM     16  N   LEU B1544      -1.582  43.105   1.795  1.00 22.60 LIG-0.35  N 
ATOM     17 H    LEU B1544      -1.093  42.441   2.036  1.00 22.60 LIG 0.16  HD
ATOM     18 O    TYR B1543      -3.273  44.536   2.117  1.00 21.43 LIG-0.27  OA
BRANCH 16 19
ATOM     19  CA  LEU B1544      -1.249  43.680   0.501  1.00 22.81 LIG 0.18  C 
BRANCH 19 20
ATOM     20  C   LEU B1544      -0.220  42.841  -0.249  1.00 21.53 LIG 0.24  C 
ATOM     21 O    LEU B1544       0.066  41.697   0.124  1.00 22.00 LIG-0.27  OA
ATOM     22  N   ARG B1545       0.341  43.410  -1.310  1.00 20.14 LIG-0.35  N 
ATOM     23 H    ARG B1545       0.166  44.203  -1.595  1.00 20.14 LIG 0.16  HD
BRANCH 22 24
ATOM     24  CA  ARG B1545       1.332  42.676  -2.079  1.00 18.95 LIG 0.16  C 
BRANCH 24 25
ATOM     25  CB  ARG B1545       2.573  42.404  -1.217  1.00 20.51 LIG 0.04  C 
BRANCH 25 26
ATOM     26  CG  ARG B1545       3.271  43.719  -0.869  1.00 20.78 LIG 0.02  C 
BRANCH 26 27
ATOM     27  CD  ARG B1545       3.014  44.176   0.564  1.00 21.13 LIG 0.14  C 
BRANCH 27 28
ATOM     28  NE  ARG B1545       2.627  45.590   0.595  1.00 20.56 LIG-0.23  N 
ATOM     29 HE   ARG B1545       1.831  45.797   0.345  1.00 20.56 LIG 0.18  HD
ATOM     30  CZ  ARG B1545       3.435  46.569   0.987  1.00 23.27 LIG 0.67  C 
ATOM     31  NH2 ARG B1545       3.018  47.842   0.958  1.00 19.37 LIG-0.23  N 
ATOM     32  NH1 ARG B1545       4.667  46.278   1.385  1.00 20.25 LIG-0.23  N 
ATOM     33 1HH2 ARG B1545       2.225  48.029   0.685  1.00 19.37 LIG 0.17  HD
ATOM     34 2HH2 ARG B1545       3.544  48.473   1.213  1.00 19.37 LIG 0.17  HD
ATOM     35 1HH1 ARG B1545       4.937  45.461   1.387  1.00 20.25 LIG 0.17  HD
ATOM     36 2HH1 ARG B1545       5.196  46.906   1.640  1.00 20.25 LIG 0.17  HD
ENDBRANCH 27 28
ENDBRANCH 26 27
ENDBRANCH 25 26
ENDBRANCH 24 25
BRANCH 24 37
ATOM     37  C   ARG B1545       0.770  41.397  -2.685  1.00 20.11 LIG 0.22  C 
ATOM     38 O    ARG B1545       1.558  40.701  -3.368  1.00 20.61 LIG-0.29  OA
ENDBRANCH 24 37
ENDBRANCH 22 24
ENDBRANCH 19 20
BRANCH 19 39
ATOM     39  CB  LEU B1544      -0.743  45.116   0.689  1.00 22.71 LIG 0.04  C 
BRANCH 39 40
ATOM     40  CG  LEU B1544      -1.693  46.205   0.168  1.00 23.46 LIG-0.02  C 
ATOM     41  CD1 LEU B1544      -0.852  47.364  -0.377  1.00 24.99 LIG 0.01  C 
ATOM     42  CD2 LEU B1544      -2.616  45.661  -0.914  1.00 22.67 LIG 0.01  C 
ENDBRANCH 39 40
ENDBRANCH 19 39
ENDBRANCH 16 19
ENDBRANCH 5 15
ENDBRANCH 3 5
BRANCH 1 43
ATOM     43  CA  TRP B1542      -4.859  39.871   3.148  1.00 29.62 LIG 0.18  C 
BRANCH 43 44
ATOM     44  N   TRP B1542      -5.464  39.854   4.479  1.00 31.24 LIG-0.35  N 
ATOM     45  C   ALA B1541      -4.975  39.075   5.430  1.00 34.20 LIG 0.24  C 
ATOM     46 O    ALA B1541      -3.982  38.373   5.254  1.00 33.88 LIG-0.27  OA
ATOM     47 H    TRP B1542      -6.140  40.377   4.577  1.00 31.24 LIG 0.16  HD
BRANCH 45 48
ATOM     48  CA  ALA B1541      -5.699  39.094   6.784  1.00 35.59 LIG 0.17  C 
ATOM     49  CB  ALA B1541      -5.189  37.931   7.668  1.00 37.24 LIG 0.04  C 
BRANCH 48 50
ATOM     50  N   ALA B1541      -7.166  39.050   6.724  1.00 36.68 LIG-0.35  N 
ATOM     51  C   ALA B1540      -7.819  38.146   5.999  1.00 36.41 LIG 0.24  C 
ATOM     52 O    ALA B1540      -7.243  37.253   5.370  1.00 35.55 LIG-0.27  OA
ATOM     53 H    ALA B1541      -7.556  39.655   7.196  1.00 36.68 LIG 0.16  HD
BRANCH 51 54
ATOM     54  CA  ALA B1540      -9.349  38.248   6.013  1.00 37.40 LIG 0.17  C 
ATOM     55  CB  ALA B1540      -9.802  39.546   5.326  1.00 38.11 LIG 0.04  C 
BRANCH 54 56
ATOM     56  N   ALA B1540      -9.893  38.198   7.369  1.00 38.31 LIG-0.35  N 
ATOM     57 H    ALA B1540     -10.431  38.843   7.554  1.00 38.31 LIG 0.16  HD
ATOM     58  C   ILE B1539      -9.578  37.238   8.227  1.00 39.48 LIG 0.26  C 
ATOM     59 O    ILE B1539      -8.803  36.332   7.951  1.00 40.50 LIG-0.27  OA
BRANCH 58 60
ATOM     60  CA  ILE B1539     -10.216  37.330   9.615  1.00 40.24 LIG 0.40  C 
ATOM     61  N   ILE B1539     -10.606  35.983  10.146  1.00 42.50 LIG 0.61  N 
BRANCH 60 62
ATOM     62  CB  ILE B1539      -9.202  38.049  10.552  1.00 40.48 LIG 0.03  C 
ATOM     63  CG2 ILE B1539      -8.431  39.109   9.768  1.00 38.85 LIG 0.01  C 
BRANCH 62 64
ATOM     64  CG1 ILE B1539      -9.926  38.697  11.738  1.00 39.99 LIG 0.00  C 
ATOM     65  CD1 ILE B1539     -11.443  38.812  11.536  1.00 39.67 LIG 0.01  C 
ENDBRANCH 62 64
ENDBRANCH 60 62
ENDBRANCH 58 60
ENDBRANCH 54 56
ENDBRANCH 51 54
ENDBRANCH 48 50
ENDBRANCH 45 48
ENDBRANCH 43 44
BRANCH 43 66
ATOM     66  CB  TRP B1542      -5.963  40.022   2.091  1.00 29.93 LIG 0.07  C 
BRANCH 66 67
ATOM     67  CG  TRP B1542      -6.933  38.841   2.044  1.00 31.09 LIG-0.03  A 
ATOM     68  CD1 TRP B1542      -8.176  38.778   2.624  1.00 35.00 LIG 0.10  A 
ATOM     69  NE1 TRP B1542      -8.778  37.567   2.341  1.00 35.42 LIG-0.36  N 
ATOM     70 HE1  TRP B1542      -9.559  37.322   2.605  1.00 35.42 LIG 0.17  HD
ATOM     71  CE2 TRP B1542      -7.927  36.817   1.567  1.00 34.23 LIG 0.04  A 
ATOM     72  CD2 TRP B1542      -6.752  37.584   1.360  1.00 31.85 LIG-0.00  A 
ATOM     73  CZ2 TRP B1542      -8.093  35.530   1.031  1.00 32.49 LIG 0.03  A 
ATOM     74  CE3 TRP B1542      -5.714  37.033   0.594  1.00 30.05 LIG 0.01  A 
ATOM     75  CZ3 TRP B1542      -5.878  35.751   0.059  1.00 29.28 LIG 0.00  A 
ATOM     76  CH2 TRP B1542      -7.066  35.015   0.283  1.00 32.34 LIG 0.00  A 
ENDBRANCH 66 67
ENDBRANCH 43 66
ENDBRANCH 1 43
TORSDOF 26
ENDMDL
MODEL 58
USER: ADFR SOLUTION from run 38
USER: SCORE 21.583170 LL:  -6.233 LR: -17.212 RR:   0.000 FEB:  -9.456
USER: RMSD 6.248728
USER: SEED 37
USER: STATUS no improvement in best in 8 clusters for 5 generations
USER: GENES 28
USER: genes 0 Translation |==|  0.34888 0.41651 0.62858
USER: genes 1 Rotation |==|  0.02939 0.51723 0.33599 0.53647
USER: genes 2 Torsion [C]-N--CA-[CB] |==|  0.19112
USER: genes 3 Torsion [N]-CA--CB-[CG] |==|  0.64483
USER: genes 4 Torsion [CA]-CB--CG-[CD1] |==|  0.37185
USER: genes 5 Torsion [CE1]-CZ--OH-[HH] |==|  0.55486
USER: genes 6 Torsion [N]-CA--C-[N] |==|  0.03049
USER: genes 7 Torsion [C]-N--CA-[CB] |==|  0.86666
USER: genes 8 Torsion [N]-CA--C-[N] |==|  0.85075
USER: genes 9 Torsion [C]-N--CA-[CB] |==|  0.23035
USER: genes 10 Torsion [N]-CA--CB-[CG] |==|  0.25075
USER: genes 11 Torsion [CA]-CB--CG-[CD] |==|  0.31547
USER: genes 12 Torsion [CB]-CG--CD-[NE] |==|  0.51660
USER: genes 13 Torsion [CG]-CD--NE-[HE] |==|  0.32353
USER: genes 14 Torsion [N]-CA--C-[O] |==|  0.93586
USER: genes 15 Torsion [N]-CA--CB-[CG] |==|  0.74789
USER: genes 16 Torsion [CA]-CB--CG-[CD1] |==|  0.32837
USER: genes 17 Torsion [N]-C--CA-[N] |==|  0.19575
USER: genes 18 Torsion [C]-CA--N-[C] |==|  0.77306
USER: genes 19 Torsion [N]-C--CA-[N] |==|  0.88028
USER: genes 20 Torsion [C]-CA--N-[C] |==|  0.81491
USER: genes 21 Torsion [N]-C--CA-[N] |==|  0.75556
USER: genes 22 Torsion [C]-CA--N-[C] |==|  0.81590
USER: genes 23 Torsion [N]-C--CA-[N] |==|  0.37470
USER: genes 24 Torsion [C]-CA--CB-[CG1] |==|  0.48855
USER: genes 25 Torsion [CA]-CB--CG1-[CD1] |==|  0.28884
USER: genes 26 Torsion [C]-CA--CB-[CG] |==|  0.20258
USER: genes 27 Torsion [CA]-CB--CG-[CD1] |==|  0.06349
ROOT
ATOM      1  C   TRP B1542      -5.972  42.334   4.881  1.00 26.55 LIG 0.24  C 
ATOM      2 O    TRP B1542      -5.409  41.820   5.837  1.00 27.86 LIG-0.27  OA
ATOM      3  N   TYR B1543      -5.441  43.340   4.196  1.00 24.62 LIG-0.35  N 
ATOM      4 H    TYR B1543      -5.848  43.767   3.570  1.00 24.62 LIG 0.16  HD
ENDROOT
BRANCH 3 5
ATOM      5  CA  TYR B1543      -4.092  43.801   4.466  1.00 22.31 LIG 0.18  C 
BRANCH 5 6
ATOM      6  CB  TYR B1543      -3.105  42.719   4.020  1.00 23.67 LIG 0.07  C 
BRANCH 6 7
ATOM      7  CG  TYR B1543      -2.087  42.295   5.061  1.00 24.58 LIG-0.06  A 
ATOM      8  CD1 TYR B1543      -1.824  40.946   5.293  1.00 24.59 LIG 0.01  A 
ATOM      9  CE1 TYR B1543      -0.950  40.547   6.293  1.00 26.50 LIG 0.04  A 
ATOM     10  CZ  TYR B1543      -0.337  41.510   7.072  1.00 24.60 LIG 0.07  A 
ATOM     11  CE2 TYR B1543      -0.583  42.862   6.849  1.00 24.06 LIG 0.04  A 
ATOM     12  CD2 TYR B1543      -1.443  43.238   5.854  1.00 22.62 LIG 0.01  A 
BRANCH 10 13
ATOM     13 OH   TYR B1543       0.487  41.125   8.090  1.00 26.51 LIG-0.36  OA
ATOM     14 HH   TYR B1543       0.572  41.759   8.636  1.00 26.51 LIG 0.22  HD
ENDBRANCH 10 13
ENDBRANCH 6 7
ENDBRANCH 5 6
BRANCH 5 15
ATOM     15  C   TYR B1543      -3.642  45.148   3.922  1.00 22.90 LIG 0.24  C 
ATOM     16  N   LEU B1544      -4.579  45.936   3.414  1.00 22.60 LIG-0.35  N 
ATOM     17 H    LEU B1544      -5.419  45.752   3.401  1.00 22.60 LIG 0.16  HD
ATOM     18 O    TYR B1543      -2.458  45.465   3.952  1.00 21.43 LIG-0.27  OA
BRANCH 16 19
ATOM     19  CA  LEU B1544      -4.219  47.215   2.823  1.00 22.81 LIG 0.18  C 
BRANCH 19 20
ATOM     20  C   LEU B1544      -3.579  47.049   1.449  1.00 21.53 LIG 0.24  C 
ATOM     21 O    LEU B1544      -4.022  47.648   0.462  1.00 22.00 LIG-0.27  OA
ATOM     22  N   ARG B1545      -2.534  46.231   1.382  1.00 20.14 LIG-0.35  N 
ATOM     23 H    ARG B1545      -2.203  45.798   2.047  1.00 20.14 LIG 0.16  HD
BRANCH 22 24
ATOM     24  CA  ARG B1545      -1.869  46.019   0.107  1.00 18.95 LIG 0.16  C 
BRANCH 24 25
ATOM     25  CB  ARG B1545      -0.865  47.149  -0.158  1.00 20.51 LIG 0.04  C 
BRANCH 25 26
ATOM     26  CG  ARG B1545       0.507  46.778   0.406  1.00 20.78 LIG 0.02  C 
BRANCH 26 27
ATOM     27  CD  ARG B1545       1.568  46.579  -0.672  1.00 21.13 LIG 0.14  C 
BRANCH 27 28
ATOM     28  NE  ARG B1545       2.819  46.089  -0.084  1.00 20.56 LIG-0.23  N 
ATOM     29 HE   ARG B1545       3.097  45.309  -0.316  1.00 20.56 LIG 0.18  HD
ATOM     30  CZ  ARG B1545       3.547  46.780   0.787  1.00 23.27 LIG 0.67  C 
ATOM     31  NH2 ARG B1545       4.664  46.252   1.305  1.00 19.37 LIG-0.23  N 
ATOM     32  NH1 ARG B1545       3.145  47.989   1.158  1.00 20.25 LIG-0.23  N 
ATOM     33 1HH2 ARG B1545       4.912  45.462   1.074  1.00 19.37 LIG 0.17  HD
ATOM     34 2HH2 ARG B1545       5.132  46.703   1.867  1.00 19.37 LIG 0.17  HD
ATOM     35 1HH1 ARG B1545       2.419  48.319   0.835  1.00 20.25 LIG 0.17  HD
ATOM     36 2HH1 ARG B1545       3.610  48.443   1.720  1.00 20.25 LIG 0.17  HD
ENDBRANCH 27 28
ENDBRANCH 26 27
ENDBRANCH 25 26
ENDBRANCH 24 25
BRANCH 24 37
ATOM     37  C   ARG B1545      -1.216  44.646   0.011  1.00 20.11 LIG 0.22  C 
ATOM     38 O    ARG B1545      -0.930  44.079   1.093  1.00 20.61 LIG-0.29  OA
ENDBRANCH 24 37
ENDBRANCH 22 24
ENDBRANCH 19 20
BRANCH 19 39
ATOM     39  CB  LEU B1544      -3.279  47.974   3.769  1.00 22.71 LIG 0.04  C 
BRANCH 39 40
ATOM     40  CG  LEU B1544      -3.986  48.901   4.770  1.00 23.46 LIG-0.02  C 
ATOM     41  CD1 LEU B1544      -3.673  48.416   6.189  1.00 24.99 LIG 0.01  C 
ATOM     42  CD2 LEU B1544      -3.544  50.347   4.591  1.00 22.67 LIG 0.01  C 
ENDBRANCH 39 40
ENDBRANCH 19 39
ENDBRANCH 16 19
ENDBRANCH 5 15
ENDBRANCH 3 5
BRANCH 1 43
ATOM     43  CA  TRP B1542      -7.351  41.851   4.448  1.00 29.62 LIG 0.18  C 
BRANCH 43 44
ATOM     44  N   TRP B1542      -7.335  41.154   3.164  1.00 31.24 LIG-0.35  N 
ATOM     45  C   ALA B1541      -7.340  41.833   2.029  1.00 34.20 LIG 0.24  C 
ATOM     46 O    ALA B1541      -7.318  43.061   2.002  1.00 33.88 LIG-0.27  OA
ATOM     47 H    TRP B1542      -7.322  40.295   3.217  1.00 31.24 LIG 0.16  HD
BRANCH 45 48
ATOM     48  CA  ALA B1541      -7.361  41.015   0.729  1.00 35.59 LIG 0.17  C 
ATOM     49  CB  ALA B1541      -8.806  40.562   0.417  1.00 37.24 LIG 0.04  C 
BRANCH 48 50
ATOM     50  N   ALA B1541      -6.468  39.849   0.694  1.00 36.68 LIG-0.35  N 
ATOM     51  C   ALA B1540      -5.144  39.970   0.708  1.00 36.41 LIG 0.24  C 
ATOM     52 O    ALA B1540      -4.574  41.062   0.803  1.00 35.55 LIG-0.27  OA
ATOM     53 H    ALA B1541      -6.878  39.093   0.665  1.00 36.68 LIG 0.16  HD
BRANCH 51 54
ATOM     54  CA  ALA B1540      -4.348  38.661   0.636  1.00 37.40 LIG 0.17  C 
ATOM     55  CB  ALA B1540      -5.083  37.638  -0.243  1.00 38.11 LIG 0.04  C 
BRANCH 54 56
ATOM     56  N   ALA B1540      -4.108  38.087   1.959  1.00 38.31 LIG-0.35  N 
ATOM     57 H    ALA B1540      -4.509  37.338   2.093  1.00 38.31 LIG 0.16  HD
ATOM     58  C   ILE B1539      -3.340  38.678   2.863  1.00 39.48 LIG 0.26  C 
ATOM     59 O    ILE B1539      -2.785  39.749   2.661  1.00 40.50 LIG-0.27  OA
BRANCH 58 60
ATOM     60  CA  ILE B1539      -3.199  37.962   4.208  1.00 40.24 LIG 0.40  C 
ATOM     61  N   ILE B1539      -1.777  37.923   4.679  1.00 42.50 LIG 0.61  N 
BRANCH 60 62
ATOM     62  CB  ILE B1539      -4.126  38.689   5.228  1.00 40.48 LIG 0.03  C 
ATOM     63  CG2 ILE B1539      -5.550  38.755   4.680  1.00 38.85 LIG 0.01  C 
BRANCH 62 64
ATOM     64  CG1 ILE B1539      -4.117  37.964   6.579  1.00 39.99 LIG 0.00  C 
ATOM     65  CD1 ILE B1539      -3.278  38.677   7.647  1.00 39.67 LIG 0.01  C 
ENDBRANCH 62 64
ENDBRANCH 60 62
ENDBRANCH 58 60
ENDBRANCH 54 56
ENDBRANCH 51 54
ENDBRANCH 48 50
ENDBRANCH 45 48
ENDBRANCH 43 44
BRANCH 43 66
ATOM     66  CB  TRP B1542      -7.899  40.910   5.530  1.00 29.93 LIG 0.07  C 
BRANCH 66 67
ATOM     67  CG  TRP B1542      -8.335  41.630   6.807  1.00 31.09 LIG-0.03  A 
ATOM     68  CD1 TRP B1542      -8.695  42.950   6.920  1.00 35.00 LIG 0.10  A 
ATOM     69  NE1 TRP B1542      -9.063  43.238   8.221  1.00 35.42 LIG-0.36  N 
ATOM     70 HE1  TRP B1542      -9.324  44.005   8.509  1.00 35.42 LIG 0.17  HD
ATOM     71  CE2 TRP B1542      -8.945  42.100   8.979  1.00 34.23 LIG 0.04  A 
ATOM     72  CD2 TRP B1542      -8.486  41.064   8.125  1.00 31.85 LIG-0.00  A 
ATOM     73  CZ2 TRP B1542      -9.205  41.893  10.344  1.00 32.49 LIG 0.03  A 
ATOM     74  CE3 TRP B1542      -8.281  39.786   8.666  1.00 30.05 LIG 0.01  A 
ATOM     75  CZ3 TRP B1542      -8.539  39.579  10.024  1.00 29.28 LIG 0.00  A 
ATOM     76  CH2 TRP B1542      -8.999  40.635  10.847  1.00 32.34 LIG 0.00  A 
ENDBRANCH 66 67
ENDBRANCH 43 66
ENDBRANCH 1 43
TORSDOF 26
ENDMDL
MODEL 59
USER: ADFR SOLUTION from run 60
USER: SCORE 21.218543 LL:  -6.920 LR: -17.214 RR:   0.000 FEB:  -9.458
USER: RMSD 4.543071
USER: SEED 59
USER: STATUS no improvement in best in 1 clusters for 5 generations
USER: GENES 28
USER: genes 0 Translation |==|  0.45968 0.59900 0.58912
USER: genes 1 Rotation |==|  0.31601 0.88021 0.33176 0.70804
USER: genes 2 Torsion [C]-N--CA-[CB] |==|  0.80721
USER: genes 3 Torsion [N]-CA--CB-[CG] |==|  0.53893
USER: genes 4 Torsion [CA]-CB--CG-[CD1] |==|  0.63361
USER: genes 5 Torsion [CE1]-CZ--OH-[HH] |==|  0.28873
USER: genes 6 Torsion [N]-CA--C-[N] |==|  0.03170
USER: genes 7 Torsion [C]-N--CA-[CB] |==|  0.42864
USER: genes 8 Torsion [N]-CA--C-[N] |==|  0.55858
USER: genes 9 Torsion [C]-N--CA-[CB] |==|  0.84113
USER: genes 10 Torsion [N]-CA--CB-[CG] |==|  0.87569
USER: genes 11 Torsion [CA]-CB--CG-[CD] |==|  0.37447
USER: genes 12 Torsion [CB]-CG--CD-[NE] |==|  0.08526
USER: genes 13 Torsion [CG]-CD--NE-[HE] |==|  0.93214
USER: genes 14 Torsion [N]-CA--C-[O] |==|  0.30501
USER: genes 15 Torsion [N]-CA--CB-[CG] |==|  0.04248
USER: genes 16 Torsion [CA]-CB--CG-[CD1] |==|  0.24559
USER: genes 17 Torsion [N]-C--CA-[N] |==|  0.45302
USER: genes 18 Torsion [C]-CA--N-[C] |==|  0.62800
USER: genes 19 Torsion [N]-C--CA-[N] |==|  0.11197
USER: genes 20 Torsion [C]-CA--N-[C] |==|  0.14053
USER: genes 21 Torsion [N]-C--CA-[N] |==|  0.16097
USER: genes 22 Torsion [C]-CA--N-[C] |==|  0.15177
USER: genes 23 Torsion [N]-C--CA-[N] |==|  0.97285
USER: genes 24 Torsion [C]-CA--CB-[CG1] |==|  0.24626
USER: genes 25 Torsion [CA]-CB--CG1-[CD1] |==|  0.21421
USER: genes 26 Torsion [C]-CA--CB-[CG] |==|  0.43966
USER: genes 27 Torsion [CA]-CB--CG-[CD1] |==|  0.88599
ROOT
ATOM      1  C   TRP B1542      -3.395  45.892   4.141  1.00 26.55 LIG 0.24  C 
ATOM      2 O    TRP B1542      -4.302  45.248   3.633  1.00 27.86 LIG-0.27  OA
ATOM      3  N   TYR B1543      -2.241  45.343   4.499  1.00 24.62 LIG-0.35  N 
ATOM      4 H    TYR B1543      -1.620  45.756   4.926  1.00 24.62 LIG 0.16  HD
ENDROOT
BRANCH 3 5
ATOM      5  CA  TYR B1543      -1.941  43.958   4.183  1.00 22.31 LIG 0.18  C 
BRANCH 5 6
ATOM      6  CB  TYR B1543      -2.844  43.055   5.028  1.00 23.67 LIG 0.07  C 
BRANCH 6 7
ATOM      7  CG  TYR B1543      -2.446  41.593   5.075  1.00 24.58 LIG-0.06  A 
ATOM      8  CD1 TYR B1543      -3.389  40.590   4.859  1.00 24.59 LIG 0.01  A 
ATOM      9  CE1 TYR B1543      -3.050  39.250   4.973  1.00 26.50 LIG 0.04  A 
ATOM     10  CZ  TYR B1543      -1.754  38.912   5.312  1.00 24.60 LIG 0.07  A 
ATOM     11  CE2 TYR B1543      -0.797  39.902   5.524  1.00 24.06 LIG 0.04  A 
ATOM     12  CD2 TYR B1543      -1.147  41.219   5.400  1.00 22.62 LIG 0.01  A 
BRANCH 10 13
ATOM     13 OH   TYR B1543      -1.423  37.598   5.475  1.00 26.51 LIG-0.36  OA
ATOM     14 HH   TYR B1543      -0.992  37.333   4.803  1.00 26.51 LIG 0.22  HD
ENDBRANCH 10 13
ENDBRANCH 6 7
ENDBRANCH 5 6
BRANCH 5 15
ATOM     15  C   TYR B1543      -1.981  43.497   2.735  1.00 22.90 LIG 0.24  C 
ATOM     16  N   LEU B1544      -2.063  44.439   1.806  1.00 22.60 LIG-0.35  N 
ATOM     17 H    LEU B1544      -2.062  45.284   1.965  1.00 22.60 LIG 0.16  HD
ATOM     18 O    TYR B1543      -1.949  42.303   2.463  1.00 21.43 LIG-0.27  OA
BRANCH 16 19
ATOM     19  CA  LEU B1544      -2.163  44.075   0.402  1.00 22.81 LIG 0.18  C 
BRANCH 19 20
ATOM     20  C   LEU B1544      -0.799  43.771  -0.209  1.00 21.53 LIG 0.24  C 
ATOM     21 O    LEU B1544       0.165  43.468   0.503  1.00 22.00 LIG-0.27  OA
ATOM     22  N   ARG B1545      -0.715  43.856  -1.532  1.00 20.14 LIG-0.35  N 
ATOM     23 H    ARG B1545      -1.365  44.066  -2.055  1.00 20.14 LIG 0.16  HD
BRANCH 22 24
ATOM     24  CA  ARG B1545       0.551  43.582  -2.191  1.00 18.95 LIG 0.16  C 
BRANCH 24 25
ATOM     25  CB  ARG B1545       1.643  44.511  -1.642  1.00 20.51 LIG 0.04  C 
BRANCH 25 26
ATOM     26  CG  ARG B1545       1.114  45.942  -1.541  1.00 20.78 LIG 0.02  C 
BRANCH 26 27
ATOM     27  CD  ARG B1545       1.468  46.623  -0.222  1.00 21.13 LIG 0.14  C 
BRANCH 27 28
ATOM     28  NE  ARG B1545       2.744  46.117   0.295  1.00 20.56 LIG-0.23  N 
ATOM     29 HE   ARG B1545       2.999  45.333   0.049  1.00 20.56 LIG 0.18  HD
ATOM     30  CZ  ARG B1545       3.529  46.798   1.122  1.00 23.27 LIG 0.67  C 
ATOM     31  NH2 ARG B1545       4.667  46.255   1.577  1.00 19.37 LIG-0.23  N 
ATOM     32  NH1 ARG B1545       3.165  48.013   1.515  1.00 20.25 LIG-0.23  N 
ATOM     33 1HH2 ARG B1545       4.892  45.462   1.333  1.00 19.37 LIG 0.17  HD
ATOM     34 2HH2 ARG B1545       5.172  46.700   2.111  1.00 19.37 LIG 0.17  HD
ATOM     35 1HH1 ARG B1545       2.426  48.352   1.234  1.00 20.25 LIG 0.17  HD
ATOM     36 2HH1 ARG B1545       3.668  48.460   2.050  1.00 20.25 LIG 0.17  HD
ENDBRANCH 27 28
ENDBRANCH 26 27
ENDBRANCH 25 26
ENDBRANCH 24 25
BRANCH 24 37
ATOM     37  C   ARG B1545       0.953  42.115  -2.095  1.00 20.11 LIG 0.22  C 
ATOM     38 O    ARG B1545       0.907  41.447  -3.155  1.00 20.61 LIG-0.29  OA
ENDBRANCH 24 37
ENDBRANCH 22 24
ENDBRANCH 19 20
BRANCH 19 39
ATOM     39  CB  LEU B1544      -2.864  45.198  -0.373  1.00 22.71 LIG 0.04  C 
BRANCH 39 40
ATOM     40  CG  LEU B1544      -2.953  46.537   0.375  1.00 23.46 LIG-0.02  C 
ATOM     41  CD1 LEU B1544      -1.689  47.348   0.075  1.00 24.99 LIG 0.01  C 
ATOM     42  CD2 LEU B1544      -4.196  47.317  -0.034  1.00 22.67 LIG 0.01  C 
ENDBRANCH 39 40
ENDBRANCH 19 39
ENDBRANCH 16 19
ENDBRANCH 5 15
ENDBRANCH 3 5
BRANCH 1 43
ATOM     43  CA  TRP B1542      -3.570  47.381   4.420  1.00 29.62 LIG 0.18  C 
BRANCH 43 44
ATOM     44  N   TRP B1542      -4.668  47.979   3.662  1.00 31.24 LIG-0.35  N 
ATOM     45  C   ALA B1541      -4.502  49.130   3.032  1.00 34.20 LIG 0.24  C 
ATOM     46 O    ALA B1541      -3.424  49.721   3.023  1.00 33.88 LIG-0.27  OA
ATOM     47 H    TRP B1542      -5.400  47.527   3.666  1.00 31.24 LIG 0.16  HD
BRANCH 45 48
ATOM     48  CA  ALA B1541      -5.722  49.701   2.294  1.00 35.59 LIG 0.17  C 
ATOM     49  CB  ALA B1541      -5.480  51.191   1.955  1.00 37.24 LIG 0.04  C 
BRANCH 48 50
ATOM     50  N   ALA B1541      -7.009  49.565   2.988  1.00 36.68 LIG-0.35  N 
ATOM     51  C   ALA B1540      -7.175  49.941   4.253  1.00 36.41 LIG 0.24  C 
ATOM     52 O    ALA B1540      -6.279  50.475   4.914  1.00 35.55 LIG-0.27  OA
ATOM     53 H    ALA B1541      -7.635  49.224   2.506  1.00 36.68 LIG 0.16  HD
BRANCH 51 54
ATOM     54  CA  ALA B1540      -8.569  49.706   4.848  1.00 37.40 LIG 0.17  C 
ATOM     55  CB  ALA B1540      -8.616  50.194   6.305  1.00 38.11 LIG 0.04  C 
BRANCH 54 56
ATOM     56  N   ALA B1540      -8.964  48.300   4.791  1.00 38.31 LIG-0.35  N 
ATOM     57 H    ALA B1540      -9.718  48.164   4.398  1.00 38.31 LIG 0.16  HD
ATOM     58  C   ILE B1539      -8.219  47.330   5.302  1.00 39.48 LIG 0.26  C 
ATOM     59 O    ILE B1539      -7.155  47.541   5.866  1.00 40.50 LIG-0.27  OA
BRANCH 58 60
ATOM     60  CA  ILE B1539      -8.775  45.909   5.179  1.00 40.24 LIG 0.40  C 
ATOM     61  N   ILE B1539     -10.194  45.899   4.697  1.00 42.50 LIG 0.61  N 
BRANCH 60 62
ATOM     62  CB  ILE B1539      -7.834  45.117   4.222  1.00 40.48 LIG 0.03  C 
ATOM     63  CG2 ILE B1539      -7.266  46.055   3.159  1.00 38.85 LIG 0.01  C 
BRANCH 62 64
ATOM     64  CG1 ILE B1539      -6.692  44.461   5.007  1.00 39.99 LIG 0.00  C 
ATOM     65  CD1 ILE B1539      -7.120  43.196   5.763  1.00 39.67 LIG 0.01  C 
ENDBRANCH 62 64
ENDBRANCH 60 62
ENDBRANCH 58 60
ENDBRANCH 54 56
ENDBRANCH 51 54
ENDBRANCH 48 50
ENDBRANCH 45 48
ENDBRANCH 43 44
BRANCH 43 66
ATOM     66  CB  TRP B1542      -3.830  47.567   5.921  1.00 29.93 LIG 0.07  C 
BRANCH 66 67
ATOM     67  CG  TRP B1542      -3.508  48.974   6.430  1.00 31.09 LIG-0.03  A 
ATOM     68  CD1 TRP B1542      -2.427  49.743   6.079  1.00 35.00 LIG 0.10  A 
ATOM     69  NE1 TRP B1542      -2.485  50.970   6.713  1.00 35.42 LIG-0.36  N 
ATOM     70 HE1  TRP B1542      -1.908  51.603   6.631  1.00 35.42 LIG 0.17  HD
ATOM     71  CE2 TRP B1542      -3.613  51.016   7.493  1.00 34.23 LIG 0.04  A 
ATOM     72  CD2 TRP B1542      -4.284  49.775   7.345  1.00 31.85 LIG-0.00  A 
ATOM     73  CZ2 TRP B1542      -4.101  52.044   8.315  1.00 32.49 LIG 0.03  A 
ATOM     74  CE3 TRP B1542      -5.479  49.566   8.049  1.00 30.05 LIG 0.01  A 
ATOM     75  CZ3 TRP B1542      -5.966  50.590   8.868  1.00 29.28 LIG 0.00  A 
ATOM     76  CH2 TRP B1542      -5.272  51.817   8.991  1.00 32.34 LIG 0.00  A 
ENDBRANCH 66 67
ENDBRANCH 43 66
ENDBRANCH 1 43
TORSDOF 26
ENDMDL
MODEL 60
USER: ADFR SOLUTION from run 19
USER: SCORE 20.733863 LL:  -6.089 LR: -17.185 RR:   0.000 FEB:  -9.429
USER: RMSD 7.034356
USER: SEED 18
USER: STATUS searching
USER: GENES 28
USER: genes 0 Translation |==|  0.46572 0.36496 0.66015
USER: genes 1 Rotation |==|  0.01276 0.38916 0.51587 0.50771
USER: genes 2 Torsion [C]-N--CA-[CB] |==|  0.22616
USER: genes 3 Torsion [N]-CA--CB-[CG] |==|  0.98307
USER: genes 4 Torsion [CA]-CB--CG-[CD1] |==|  0.22779
USER: genes 5 Torsion [CE1]-CZ--OH-[HH] |==|  0.39314
USER: genes 6 Torsion [N]-CA--C-[N] |==|  0.39144
USER: genes 7 Torsion [C]-N--CA-[CB] |==|  0.40462
USER: genes 8 Torsion [N]-CA--C-[N] |==|  0.92778
USER: genes 9 Torsion [C]-N--CA-[CB] |==|  0.34093
USER: genes 10 Torsion [N]-CA--CB-[CG] |==|  0.17737
USER: genes 11 Torsion [CA]-CB--CG-[CD] |==|  0.35847
USER: genes 12 Torsion [CB]-CG--CD-[NE] |==|  0.43002
USER: genes 13 Torsion [CG]-CD--NE-[HE] |==|  0.31133
USER: genes 14 Torsion [N]-CA--C-[O] |==|  0.92393
USER: genes 15 Torsion [N]-CA--CB-[CG] |==|  0.72145
USER: genes 16 Torsion [CA]-CB--CG-[CD1] |==|  0.97562
USER: genes 17 Torsion [N]-C--CA-[N] |==|  0.00806
USER: genes 18 Torsion [C]-CA--N-[C] |==|  0.75330
USER: genes 19 Torsion [N]-C--CA-[N] |==|  0.46286
USER: genes 20 Torsion [C]-CA--N-[C] |==|  0.83536
USER: genes 21 Torsion [N]-C--CA-[N] |==|  0.93805
USER: genes 22 Torsion [C]-CA--N-[C] |==|  0.77923
USER: genes 23 Torsion [N]-C--CA-[N] |==|  0.36729
USER: genes 24 Torsion [C]-CA--CB-[CG1] |==|  0.07076
USER: genes 25 Torsion [CA]-CB--CG1-[CD1] |==|  0.63301
USER: genes 26 Torsion [C]-CA--CB-[CG] |==|  0.20175
USER: genes 27 Torsion [CA]-CB--CG-[CD1] |==|  0.71259
ROOT
ATOM      1  C   TRP B1542      -3.255  41.329   5.473  1.00 26.55 LIG 0.24  C 
ATOM      2 O    TRP B1542      -2.100  41.480   5.846  1.00 27.86 LIG-0.27  OA
ATOM      3  N   TYR B1543      -3.813  42.097   4.545  1.00 24.62 LIG-0.35  N 
ATOM      4 H    TYR B1543      -4.643  42.061   4.321  1.00 24.62 LIG 0.16  HD
ENDROOT
BRANCH 3 5
ATOM      5  CA  TYR B1543      -3.033  43.085   3.821  1.00 22.31 LIG 0.18  C 
BRANCH 5 6
ATOM      6  CB  TYR B1543      -2.280  42.381   2.689  1.00 23.67 LIG 0.07  C 
BRANCH 6 7
ATOM      7  CG  TYR B1543      -2.392  40.870   2.671  1.00 24.58 LIG-0.06  A 
ATOM      8  CD1 TYR B1543      -3.504  40.244   2.109  1.00 24.59 LIG 0.01  A 
ATOM      9  CE1 TYR B1543      -3.649  38.865   2.153  1.00 26.50 LIG 0.04  A 
ATOM     10  CZ  TYR B1543      -2.675  38.107   2.771  1.00 24.60 LIG 0.07  A 
ATOM     11  CE2 TYR B1543      -1.554  38.715   3.331  1.00 24.06 LIG 0.04  A 
ATOM     12  CD2 TYR B1543      -1.423  40.076   3.272  1.00 22.62 LIG 0.01  A 
BRANCH 10 13
ATOM     13 OH   TYR B1543      -2.833  36.754   2.863  1.00 26.51 LIG-0.36  OA
ATOM     14 HH   TYR B1543      -2.091  36.377   2.745  1.00 26.51 LIG 0.22  HD
ENDBRANCH 10 13
ENDBRANCH 6 7
ENDBRANCH 5 6
BRANCH 5 15
ATOM     15  C   TYR B1543      -3.722  44.324   3.274  1.00 22.90 LIG 0.24  C 
ATOM     16  N   LEU B1544      -3.058  45.469   3.357  1.00 22.60 LIG-0.35  N 
ATOM     17 H    LEU B1544      -2.260  45.550   3.666  1.00 22.60 LIG 0.16  HD
ATOM     18 O    TYR B1543      -4.847  44.247   2.793  1.00 21.43 LIG-0.27  OA
BRANCH 16 19
ATOM     19  CA  LEU B1544      -3.674  46.707   2.907  1.00 22.81 LIG 0.18  C 
BRANCH 19 20
ATOM     20  C   LEU B1544      -3.370  46.996   1.441  1.00 21.53 LIG 0.24  C 
ATOM     21 O    LEU B1544      -4.135  47.681   0.753  1.00 22.00 LIG-0.27  OA
ATOM     22  N   ARG B1545      -2.248  46.471   0.959  1.00 20.14 LIG-0.35  N 
ATOM     23 H    ARG B1545      -1.696  45.989   1.408  1.00 20.14 LIG 0.16  HD
BRANCH 22 24
ATOM     24  CA  ARG B1545      -1.887  46.700  -0.430  1.00 18.95 LIG 0.16  C 
BRANCH 24 25
ATOM     25  CB  ARG B1545      -0.503  47.357  -0.514  1.00 20.51 LIG 0.04  C 
BRANCH 25 26
ATOM     26  CG  ARG B1545       0.563  46.411   0.039  1.00 20.78 LIG 0.02  C 
BRANCH 26 27
ATOM     27  CD  ARG B1545       1.747  46.220  -0.905  1.00 21.13 LIG 0.14  C 
BRANCH 27 28
ATOM     28  NE  ARG B1545       2.949  45.838  -0.158  1.00 20.56 LIG-0.23  N 
ATOM     29 HE   ARG B1545       3.260  45.044  -0.269  1.00 20.56 LIG 0.18  HD
ATOM     30  CZ  ARG B1545       3.586  46.648   0.682  1.00 23.27 LIG 0.67  C 
ATOM     31  NH2 ARG B1545       4.662  46.215   1.353  1.00 19.37 LIG-0.23  N 
ATOM     32  NH1 ARG B1545       3.133  47.881   0.868  1.00 20.25 LIG-0.23  N 
ATOM     33 1HH2 ARG B1545       4.943  45.411   1.241  1.00 19.37 LIG 0.17  HD
ATOM     34 2HH2 ARG B1545       5.071  46.743   1.895  1.00 19.37 LIG 0.17  HD
ATOM     35 1HH1 ARG B1545       2.432  48.150   0.448  1.00 20.25 LIG 0.17  HD
ATOM     36 2HH1 ARG B1545       3.539  48.411   1.409  1.00 20.25 LIG 0.17  HD
ENDBRANCH 27 28
ENDBRANCH 26 27
ENDBRANCH 25 26
ENDBRANCH 24 25
BRANCH 24 37
ATOM     37  C   ARG B1545      -1.965  45.432  -1.271  1.00 20.11 LIG 0.22  C 
ATOM     38 O    ARG B1545      -1.791  44.345  -0.670  1.00 20.61 LIG-0.29  OA
ENDBRANCH 24 37
ENDBRANCH 22 24
ENDBRANCH 19 20
BRANCH 19 39
ATOM     39  CB  LEU B1544      -3.208  47.867   3.796  1.00 22.71 LIG 0.04  C 
BRANCH 39 40
ATOM     40  CG  LEU B1544      -4.212  48.290   4.879  1.00 23.46 LIG-0.02  C 
ATOM     41  CD1 LEU B1544      -5.533  47.556   4.632  1.00 24.99 LIG 0.01  C 
ATOM     42  CD2 LEU B1544      -3.682  47.981   6.274  1.00 22.67 LIG 0.01  C 
ENDBRANCH 39 40
ENDBRANCH 19 39
ENDBRANCH 16 19
ENDBRANCH 5 15
ENDBRANCH 3 5
BRANCH 1 43
ATOM     43  CA  TRP B1542      -4.131  40.248   6.096  1.00 29.62 LIG 0.18  C 
BRANCH 43 44
ATOM     44  N   TRP B1542      -5.467  40.186   5.508  1.00 31.24 LIG-0.35  N 
ATOM     45  C   ALA B1541      -6.452  40.924   5.994  1.00 34.20 LIG 0.24  C 
ATOM     46 O    ALA B1541      -6.281  41.712   6.922  1.00 33.88 LIG-0.27  OA
ATOM     47 H    TRP B1542      -5.546  39.646   4.843  1.00 31.24 LIG 0.16  HD
BRANCH 45 48
ATOM     48  CA  ALA B1541      -7.831  40.764   5.337  1.00 35.59 LIG 0.17  C 
ATOM     49  CB  ALA B1541      -7.800  41.346   3.904  1.00 37.24 LIG 0.04  C 
BRANCH 48 50
ATOM     50  N   ALA B1541      -8.960  41.349   6.074  1.00 36.68 LIG-0.35  N 
ATOM     51  C   ALA B1540      -9.270  40.971   7.311  1.00 36.41 LIG 0.24  C 
ATOM     52 O    ALA B1540      -8.605  40.144   7.943  1.00 35.55 LIG-0.27  OA
ATOM     53 H    ALA B1541      -9.392  41.950   5.636  1.00 36.68 LIG 0.16  HD
BRANCH 51 54
ATOM     54  CA  ALA B1540     -10.494  41.652   7.935  1.00 37.40 LIG 0.17  C 
ATOM     55  CB  ALA B1540     -11.721  40.731   7.841  1.00 38.11 LIG 0.04  C 
BRANCH 54 56
ATOM     56  N   ALA B1540     -10.796  42.934   7.302  1.00 38.31 LIG-0.35  N 
ATOM     57 H    ALA B1540     -11.439  42.900   6.732  1.00 38.31 LIG 0.16  HD
ATOM     58  C   ILE B1539     -10.132  44.044   7.592  1.00 39.48 LIG 0.26  C 
ATOM     59 O    ILE B1539      -9.213  44.074   8.399  1.00 40.50 LIG-0.27  OA
BRANCH 58 60
ATOM     60  CA  ILE B1539     -10.552  45.305   6.834  1.00 40.24 LIG 0.40  C 
ATOM     61  N   ILE B1539     -10.740  46.477   7.751  1.00 42.50 LIG 0.61  N 
BRANCH 60 62
ATOM     62  CB  ILE B1539      -9.469  45.587   5.751  1.00 40.48 LIG 0.03  C 
ATOM     63  CG2 ILE B1539      -8.463  46.609   6.276  1.00 38.85 LIG 0.01  C 
BRANCH 62 64
ATOM     64  CG1 ILE B1539      -8.747  44.293   5.358  1.00 39.99 LIG 0.00  C 
ATOM     65  CD1 ILE B1539      -7.219  44.430   5.342  1.00 39.67 LIG 0.01  C 
ENDBRANCH 62 64
ENDBRANCH 60 62
ENDBRANCH 58 60
ENDBRANCH 54 56
ENDBRANCH 51 54
ENDBRANCH 48 50
ENDBRANCH 45 48
ENDBRANCH 43 44
BRANCH 43 66
ATOM     66  CB  TRP B1542      -3.434  38.892   5.915  1.00 29.93 LIG 0.07  C 
BRANCH 66 67
ATOM     67  CG  TRP B1542      -2.210  38.706   6.815  1.00 31.09 LIG-0.03  A 
ATOM     68  CD1 TRP B1542      -0.894  38.795   6.436  1.00 35.00 LIG 0.10  A 
ATOM     69  NE1 TRP B1542      -0.066  38.601   7.525  1.00 35.42 LIG-0.36  N 
ATOM     70 HE1  TRP B1542       0.794  38.618   7.509  1.00 35.42 LIG 0.17  HD
ATOM     71  CE2 TRP B1542      -0.839  38.379   8.638  1.00 34.23 LIG 0.04  A 
ATOM     72  CD2 TRP B1542      -2.197  38.434   8.232  1.00 31.85 LIG-0.00  A 
ATOM     73  CZ2 TRP B1542      -0.458  38.136   9.968  1.00 32.49 LIG 0.03  A 
ATOM     74  CE3 TRP B1542      -3.197  38.234   9.194  1.00 30.05 LIG 0.01  A 
ATOM     75  CZ3 TRP B1542      -2.820  37.993  10.519  1.00 29.28 LIG 0.00  A 
ATOM     76  CH2 TRP B1542      -1.454  37.948  10.890  1.00 32.34 LIG 0.00  A 
ENDBRANCH 66 67
ENDBRANCH 43 66
ENDBRANCH 1 43
TORSDOF 26
ENDMDL
MODEL 61
USER: ADFR SOLUTION from run 9
USER: SCORE 21.656265 LL:  -6.319 LR: -17.187 RR:   0.000 FEB:  -9.431
USER: RMSD 6.903610
USER: SEED 686374
USER: STATUS no improvement in best in 16 clusters for 5 generations
USER: GENES 28
USER: genes 0 Translation |==|  0.51709 0.30147 0.63603
USER: genes 1 Rotation |==|  0.97726 0.42209 0.37905 0.53905
USER: genes 2 Torsion [C]-N--CA-[CB] |==|  0.18700
USER: genes 3 Torsion [N]-CA--CB-[CG] |==|  0.24342
USER: genes 4 Torsion [CA]-CB--CG-[CD1] |==|  0.24721
USER: genes 5 Torsion [CE1]-CZ--OH-[HH] |==|  0.56155
USER: genes 6 Torsion [N]-CA--C-[N] |==|  0.44629
USER: genes 7 Torsion [C]-N--CA-[CB] |==|  0.18697
USER: genes 8 Torsion [N]-CA--C-[N] |==|  0.02794
USER: genes 9 Torsion [C]-N--CA-[CB] |==|  0.32156
USER: genes 10 Torsion [N]-CA--CB-[CG] |==|  0.90473
USER: genes 11 Torsion [CA]-CB--CG-[CD] |==|  0.82044
USER: genes 12 Torsion [CB]-CG--CD-[NE] |==|  0.59748
USER: genes 13 Torsion [CG]-CD--NE-[HE] |==|  0.09966
USER: genes 14 Torsion [N]-CA--C-[O] |==|  0.14309
USER: genes 15 Torsion [N]-CA--CB-[CG] |==|  0.61476
USER: genes 16 Torsion [CA]-CB--CG-[CD1] |==|  0.66270
USER: genes 17 Torsion [N]-C--CA-[N] |==|  0.05335
USER: genes 18 Torsion [C]-CA--N-[C] |==|  0.18024
USER: genes 19 Torsion [N]-C--CA-[N] |==|  0.11097
USER: genes 20 Torsion [C]-CA--N-[C] |==|  0.18096
USER: genes 21 Torsion [N]-C--CA-[N] |==|  0.97881
USER: genes 22 Torsion [C]-CA--N-[C] |==|  0.82926
USER: genes 23 Torsion [N]-C--CA-[N] |==|  0.44161
USER: genes 24 Torsion [C]-CA--CB-[CG1] |==|  0.82780
USER: genes 25 Torsion [CA]-CB--CG1-[CD1] |==|  0.37600
USER: genes 26 Torsion [C]-CA--CB-[CG] |==|  0.35074
USER: genes 27 Torsion [CA]-CB--CG-[CD1] |==|  0.23418
ROOT
ATOM      1  C   TRP B1542      -2.061  40.091   5.021  1.00 26.55 LIG 0.24  C 
ATOM      2 O    TRP B1542      -1.027  39.436   5.015  1.00 27.86 LIG-0.27  OA
ATOM      3  N   TYR B1543      -2.402  40.896   4.022  1.00 24.62 LIG-0.35  N 
ATOM      4 H    TYR B1543      -3.082  41.423   4.036  1.00 24.62 LIG 0.16  HD
ENDROOT
BRANCH 3 5
ATOM      5  CA  TYR B1543      -1.623  40.944   2.798  1.00 22.31 LIG 0.18  C 
BRANCH 5 6
ATOM      6  CB  TYR B1543      -1.772  39.606   2.069  1.00 23.67 LIG 0.07  C 
BRANCH 6 7
ATOM      7  CG  TYR B1543      -2.956  39.503   1.128  1.00 24.58 LIG-0.06  A 
ATOM      8  CD1 TYR B1543      -2.841  39.888  -0.207  1.00 24.59 LIG 0.01  A 
ATOM      9  CE1 TYR B1543      -3.937  39.867  -1.056  1.00 26.50 LIG 0.04  A 
ATOM     10  CZ  TYR B1543      -5.162  39.462  -0.563  1.00 24.60 LIG 0.07  A 
ATOM     11  CE2 TYR B1543      -5.293  39.067   0.766  1.00 24.06 LIG 0.04  A 
ATOM     12  CD2 TYR B1543      -4.200  39.087   1.589  1.00 22.62 LIG 0.01  A 
BRANCH 10 13
ATOM     13 OH   TYR B1543      -6.256  39.484  -1.378  1.00 26.51 LIG-0.36  OA
ATOM     14 HH   TYR B1543      -6.954  39.515  -0.910  1.00 26.51 LIG 0.22  HD
ENDBRANCH 10 13
ENDBRANCH 6 7
ENDBRANCH 5 6
BRANCH 5 15
ATOM     15  C   TYR B1543      -1.850  42.081   1.814  1.00 22.90 LIG 0.24  C 
ATOM     16  N   LEU B1544      -0.886  42.316   0.934  1.00 22.60 LIG-0.35  N 
ATOM     17 H    LEU B1544      -0.165  41.853   0.863  1.00 22.60 LIG 0.16  HD
ATOM     18 O    TYR B1543      -2.879  42.745   1.859  1.00 21.43 LIG-0.27  OA
BRANCH 16 19
ATOM     19  CA  LEU B1544      -1.004  43.423  -0.001  1.00 22.81 LIG 0.18  C 
BRANCH 19 20
ATOM     20  C   LEU B1544       0.068  43.371  -1.086  1.00 21.53 LIG 0.24  C 
ATOM     21 O    LEU B1544       0.239  44.320  -1.859  1.00 22.00 LIG-0.27  OA
ATOM     22  N   ARG B1545       0.789  42.257  -1.145  1.00 20.14 LIG-0.35  N 
ATOM     23 H    ARG B1545       0.694  41.579  -0.625  1.00 20.14 LIG 0.16  HD
BRANCH 22 24
ATOM     24  CA  ARG B1545       1.830  42.128  -2.151  1.00 18.95 LIG 0.16  C 
BRANCH 24 25
ATOM     25  CB  ARG B1545       3.205  42.023  -1.477  1.00 20.51 LIG 0.04  C 
BRANCH 25 26
ATOM     26  CG  ARG B1545       3.235  42.873  -0.207  1.00 20.78 LIG 0.02  C 
BRANCH 26 27
ATOM     27  CD  ARG B1545       3.085  44.367  -0.478  1.00 21.13 LIG 0.14  C 
BRANCH 27 28
ATOM     28  NE  ARG B1545       3.890  45.148   0.467  1.00 20.56 LIG-0.23  N 
ATOM     29 HE   ARG B1545       4.649  44.828   0.714  1.00 20.56 LIG 0.18  HD
ATOM     30  CZ  ARG B1545       3.515  46.322   0.963  1.00 23.27 LIG 0.67  C 
ATOM     31  NH2 ARG B1545       4.292  46.962   1.848  1.00 19.37 LIG-0.23  N 
ATOM     32  NH1 ARG B1545       2.352  46.845   0.595  1.00 20.25 LIG-0.23  N 
ATOM     33 1HH2 ARG B1545       5.037  46.613   2.097  1.00 19.37 LIG 0.17  HD
ATOM     34 2HH2 ARG B1545       4.045  47.721   2.166  1.00 19.37 LIG 0.17  HD
ATOM     35 1HH1 ARG B1545       1.848  46.424   0.039  1.00 20.25 LIG 0.17  HD
ATOM     36 2HH1 ARG B1545       2.102  47.604   0.911  1.00 20.25 LIG 0.17  HD
ENDBRANCH 27 28
ENDBRANCH 26 27
ENDBRANCH 25 26
ENDBRANCH 24 25
BRANCH 24 37
ATOM     37  C   ARG B1545       1.577  40.971  -3.109  1.00 20.11 LIG 0.22  C 
ATOM     38 O    ARG B1545       0.449  40.925  -3.653  1.00 20.61 LIG-0.29  OA
ENDBRANCH 24 37
ENDBRANCH 22 24
ENDBRANCH 19 20
BRANCH 19 39
ATOM     39  CB  LEU B1544      -0.938  44.752   0.761  1.00 22.71 LIG 0.04  C 
BRANCH 39 40
ATOM     40  CG  LEU B1544      -1.932  45.820   0.279  1.00 23.46 LIG-0.02  C 
ATOM     41  CD1 LEU B1544      -1.144  47.059  -0.156  1.00 24.99 LIG 0.01  C 
ATOM     42  CD2 LEU B1544      -2.786  45.300  -0.871  1.00 22.67 LIG 0.01  C 
ENDBRANCH 39 40
ENDBRANCH 19 39
ENDBRANCH 16 19
ENDBRANCH 5 15
ENDBRANCH 3 5
BRANCH 1 43
ATOM     43  CA  TRP B1542      -3.003  40.031   6.217  1.00 29.62 LIG 0.18  C 
BRANCH 43 44
ATOM     44  N   TRP B1542      -4.347  40.518   5.910  1.00 31.24 LIG-0.35  N 
ATOM     45  C   ALA B1541      -5.113  39.877   5.042  1.00 34.20 LIG 0.24  C 
ATOM     46 O    ALA B1541      -4.752  38.839   4.494  1.00 33.88 LIG-0.27  OA
ATOM     47 H    TRP B1542      -4.580  41.231   6.331  1.00 31.24 LIG 0.16  HD
BRANCH 45 48
ATOM     48  CA  ALA B1541      -6.494  40.483   4.754  1.00 35.59 LIG 0.17  C 
ATOM     49  CB  ALA B1541      -7.082  39.862   3.465  1.00 37.24 LIG 0.04  C 
BRANCH 48 50
ATOM     50  N   ALA B1541      -6.539  41.948   4.650  1.00 36.68 LIG-0.35  N 
ATOM     51  C   ALA B1540      -5.914  42.609   3.679  1.00 36.41 LIG 0.24  C 
ATOM     52 O    ALA B1540      -5.299  42.039   2.773  1.00 35.55 LIG-0.27  OA
ATOM     53 H    ALA B1541      -7.001  42.331   5.266  1.00 36.68 LIG 0.16  HD
BRANCH 51 54
ATOM     54  CA  ALA B1540      -6.029  44.137   3.723  1.00 37.40 LIG 0.17  C 
ATOM     55  CB  ALA B1540      -4.650  44.768   3.975  1.00 38.11 LIG 0.04  C 
BRANCH 54 56
ATOM     56  N   ALA B1540      -6.969  44.592   4.746  1.00 38.31 LIG-0.35  N 
ATOM     57 H    ALA B1540      -6.612  45.082   5.356  1.00 38.31 LIG 0.16  HD
ATOM     58  C   ILE B1539      -8.255  44.269   4.725  1.00 39.48 LIG 0.26  C 
ATOM     59 O    ILE B1539      -8.745  43.562   3.855  1.00 40.50 LIG-0.27  OA
BRANCH 58 60
ATOM     60  CA  ILE B1539      -9.110  44.807   5.874  1.00 40.24 LIG 0.40  C 
ATOM     61  N   ILE B1539     -10.567  44.837   5.525  1.00 42.50 LIG 0.61  N 
BRANCH 60 62
ATOM     62  CB  ILE B1539      -8.833  43.918   7.123  1.00 40.48 LIG 0.03  C 
ATOM     63  CG2 ILE B1539      -9.594  44.466   8.329  1.00 38.85 LIG 0.01  C 
BRANCH 62 64
ATOM     64  CG1 ILE B1539      -9.248  42.467   6.856  1.00 39.99 LIG 0.00  C 
ATOM     65  CD1 ILE B1539      -8.212  41.440   7.333  1.00 39.67 LIG 0.01  C 
ENDBRANCH 62 64
ENDBRANCH 60 62
ENDBRANCH 58 60
ENDBRANCH 54 56
ENDBRANCH 51 54
ENDBRANCH 48 50
ENDBRANCH 45 48
ENDBRANCH 43 44
BRANCH 43 66
ATOM     66  CB  TRP B1542      -3.089  38.576   6.697  1.00 29.93 LIG 0.07  C 
BRANCH 66 67
ATOM     67  CG  TRP B1542      -2.776  38.401   8.185  1.00 31.09 LIG-0.03  A 
ATOM     68  CD1 TRP B1542      -3.654  38.556   9.229  1.00 35.00 LIG 0.10  A 
ATOM     69  NE1 TRP B1542      -3.025  38.283  10.429  1.00 35.42 LIG-0.36  N 
ATOM     70 HE1  TRP B1542      -3.392  38.319  11.206  1.00 35.42 LIG 0.17  HD
ATOM     71  CE2 TRP B1542      -1.718  37.945  10.181  1.00 34.23 LIG 0.04  A 
ATOM     72  CD2 TRP B1542      -1.520  38.010   8.777  1.00 31.85 LIG-0.00  A 
ATOM     73  CZ2 TRP B1542      -0.693  37.586  11.071  1.00 32.49 LIG 0.03  A 
ATOM     74  CE3 TRP B1542      -0.252  37.708   8.260  1.00 30.05 LIG 0.01  A 
ATOM     75  CZ3 TRP B1542       0.769  37.350   9.145  1.00 29.28 LIG 0.00  A 
ATOM     76  CH2 TRP B1542       0.536  37.292  10.541  1.00 32.34 LIG 0.00  A 
ENDBRANCH 66 67
ENDBRANCH 43 66
ENDBRANCH 1 43
TORSDOF 26
ENDMDL
MODEL 62
USER: ADFR SOLUTION from run 150
USER: SCORE 21.786732 LL:  -6.503 LR: -17.177 RR:   0.000 FEB:  -9.421
USER: RMSD 7.463445
USER: SEED 149
USER: STATUS no improvement in best in 9 clusters for 5 generations
USER: GENES 28
USER: genes 0 Translation |==|  0.53178 0.50082 0.45324
USER: genes 1 Rotation |==|  0.31550 0.23357 0.67549 0.83790
USER: genes 2 Torsion [C]-N--CA-[CB] |==|  0.82406
USER: genes 3 Torsion [N]-CA--CB-[CG] |==|  0.80749
USER: genes 4 Torsion [CA]-CB--CG-[CD1] |==|  0.10402
USER: genes 5 Torsion [CE1]-CZ--OH-[HH] |==|  0.48675
USER: genes 6 Torsion [N]-CA--C-[N] |==|  0.87348
USER: genes 7 Torsion [C]-N--CA-[CB] |==|  0.81103
USER: genes 8 Torsion [N]-CA--C-[N] |==|  0.10413
USER: genes 9 Torsion [C]-N--CA-[CB] |==|  0.79718
USER: genes 10 Torsion [N]-CA--CB-[CG] |==|  0.39443
USER: genes 11 Torsion [CA]-CB--CG-[CD] |==|  0.60148
USER: genes 12 Torsion [CB]-CG--CD-[NE] |==|  0.07114
USER: genes 13 Torsion [CG]-CD--NE-[HE] |==|  0.75858
USER: genes 14 Torsion [N]-CA--C-[O] |==|  0.25484
USER: genes 15 Torsion [N]-CA--CB-[CG] |==|  0.76434
USER: genes 16 Torsion [CA]-CB--CG-[CD1] |==|  0.03179
USER: genes 17 Torsion [N]-C--CA-[N] |==|  0.06667
USER: genes 18 Torsion [C]-CA--N-[C] |==|  0.17602
USER: genes 19 Torsion [N]-C--CA-[N] |==|  0.01370
USER: genes 20 Torsion [C]-CA--N-[C] |==|  0.18656
USER: genes 21 Torsion [N]-C--CA-[N] |==|  0.50202
USER: genes 22 Torsion [C]-CA--N-[C] |==|  0.78452
USER: genes 23 Torsion [N]-C--CA-[N] |==|  0.46846
USER: genes 24 Torsion [C]-CA--CB-[CG1] |==|  0.91976
USER: genes 25 Torsion [CA]-CB--CG1-[CD1] |==|  0.48332
USER: genes 26 Torsion [C]-CA--CB-[CG] |==|  0.13677
USER: genes 27 Torsion [CA]-CB--CG-[CD1] |==|  0.67684
ROOT
ATOM      1  C   TRP B1542      -1.719  43.978   1.593  1.00 26.55 LIG 0.24  C 
ATOM      2 O    TRP B1542      -1.106  45.029   1.720  1.00 27.86 LIG-0.27  OA
ATOM      3  N   TYR B1543      -2.624  43.568   2.473  1.00 24.62 LIG-0.35  N 
ATOM      4 H    TYR B1543      -3.012  42.801   2.447  1.00 24.62 LIG 0.16  HD
ENDROOT
BRANCH 3 5
ATOM      5  CA  TYR B1543      -3.035  44.416   3.577  1.00 22.31 LIG 0.18  C 
BRANCH 5 6
ATOM      6  CB  TYR B1543      -1.824  44.666   4.481  1.00 23.67 LIG 0.07  C 
BRANCH 6 7
ATOM      7  CG  TYR B1543      -1.332  43.462   5.261  1.00 24.58 LIG-0.06  A 
ATOM      8  CD1 TYR B1543      -1.342  42.190   4.690  1.00 24.59 LIG 0.01  A 
ATOM      9  CE1 TYR B1543      -0.964  41.074   5.420  1.00 26.50 LIG 0.04  A 
ATOM     10  CZ  TYR B1543      -0.577  41.232   6.737  1.00 24.60 LIG 0.07  A 
ATOM     11  CE2 TYR B1543      -0.554  42.497   7.321  1.00 24.06 LIG 0.04  A 
ATOM     12  CD2 TYR B1543      -0.924  43.589   6.583  1.00 22.62 LIG 0.01  A 
BRANCH 10 13
ATOM     13 OH   TYR B1543      -0.250  40.134   7.479  1.00 26.51 LIG-0.36  OA
ATOM     14 HH   TYR B1543       0.027  40.378   8.234  1.00 26.51 LIG 0.22  HD
ENDBRANCH 10 13
ENDBRANCH 6 7
ENDBRANCH 5 6
BRANCH 5 15
ATOM     15  C   TYR B1543      -3.726  45.739   3.285  1.00 22.90 LIG 0.24  C 
ATOM     16  N   LEU B1544      -3.194  46.500   2.339  1.00 22.60 LIG-0.35  N 
ATOM     17 H    LEU B1544      -2.512  46.283   1.863  1.00 22.60 LIG 0.16  HD
ATOM     18 O    TYR B1543      -4.722  46.071   3.917  1.00 21.43 LIG-0.27  OA
BRANCH 16 19
ATOM     19  CA  LEU B1544      -3.765  47.804   2.042  1.00 22.81 LIG 0.18  C 
BRANCH 19 20
ATOM     20  C   LEU B1544      -3.845  48.688   3.282  1.00 21.53 LIG 0.24  C 
ATOM     21 O    LEU B1544      -4.804  49.447   3.464  1.00 22.00 LIG-0.27  OA
ATOM     22  N   ARG B1545      -2.833  48.593   4.137  1.00 20.14 LIG-0.35  N 
ATOM     23 H    ARG B1545      -2.151  48.078   4.040  1.00 20.14 LIG 0.16  HD
BRANCH 22 24
ATOM     24  CA  ARG B1545      -2.834  49.404   5.344  1.00 18.95 LIG 0.16  C 
BRANCH 24 25
ATOM     25  CB  ARG B1545      -2.541  50.869   4.996  1.00 20.51 LIG 0.04  C 
BRANCH 25 26
ATOM     26  CG  ARG B1545      -3.386  51.797   5.869  1.00 20.78 LIG 0.02  C 
BRANCH 26 27
ATOM     27  CD  ARG B1545      -3.869  53.043   5.131  1.00 21.13 LIG 0.14  C 
BRANCH 27 28
ATOM     28  NE  ARG B1545      -3.946  52.793   3.689  1.00 20.56 LIG-0.23  N 
ATOM     29 HE   ARG B1545      -3.237  52.917   3.218  1.00 20.56 LIG 0.18  HD
ATOM     30  CZ  ARG B1545      -5.047  52.386   3.066  1.00 23.27 LIG 0.67  C 
ATOM     31  NH2 ARG B1545      -5.047  52.209   1.738  1.00 19.37 LIG-0.23  N 
ATOM     32  NH1 ARG B1545      -6.154  52.180   3.769  1.00 20.25 LIG-0.23  N 
ATOM     33 1HH2 ARG B1545      -4.333  52.358   1.285  1.00 19.37 LIG 0.17  HD
ATOM     34 2HH2 ARG B1545      -5.762  51.945   1.340  1.00 19.37 LIG 0.17  HD
ATOM     35 1HH1 ARG B1545      -6.155  52.311   4.619  1.00 20.25 LIG 0.17  HD
ATOM     36 2HH1 ARG B1545      -6.871  51.917   3.374  1.00 20.25 LIG 0.17  HD
ENDBRANCH 27 28
ENDBRANCH 26 27
ENDBRANCH 25 26
ENDBRANCH 24 25
BRANCH 24 37
ATOM     37  C   ARG B1545      -4.123  49.257   6.143  1.00 20.11 LIG 0.22  C 
ATOM     38 O    ARG B1545      -4.137  48.375   7.034  1.00 20.61 LIG-0.29  OA
ENDBRANCH 24 37
ENDBRANCH 22 24
ENDBRANCH 19 20
BRANCH 19 39
ATOM     39  CB  LEU B1544      -5.152  47.628   1.412  1.00 22.71 LIG 0.04  C 
BRANCH 39 40
ATOM     40  CG  LEU B1544      -5.144  47.395  -0.107  1.00 23.46 LIG-0.02  C 
ATOM     41  CD1 LEU B1544      -3.704  47.117  -0.549  1.00 24.99 LIG 0.01  C 
ATOM     42  CD2 LEU B1544      -6.053  46.235  -0.493  1.00 22.67 LIG 0.01  C 
ENDBRANCH 39 40
ENDBRANCH 19 39
ENDBRANCH 16 19
ENDBRANCH 5 15
ENDBRANCH 3 5
BRANCH 1 43
ATOM     43  CA  TRP B1542      -1.438  43.060   0.409  1.00 29.62 LIG 0.18  C 
BRANCH 43 44
ATOM     44  N   TRP B1542      -2.551  42.163   0.106  1.00 31.24 LIG-0.35  N 
ATOM     45  C   ALA B1541      -3.720  42.647  -0.281  1.00 34.20 LIG 0.24  C 
ATOM     46 O    ALA B1541      -3.909  43.851  -0.438  1.00 33.88 LIG-0.27  OA
ATOM     47 H    TRP B1542      -2.377  41.325   0.199  1.00 31.24 LIG 0.16  HD
BRANCH 45 48
ATOM     48  CA  ALA B1541      -4.842  41.631  -0.541  1.00 35.59 LIG 0.17  C 
ATOM     49  CB  ALA B1541      -6.118  42.051   0.225  1.00 37.24 LIG 0.04  C 
BRANCH 48 50
ATOM     50  N   ALA B1541      -4.523  40.232  -0.221  1.00 36.68 LIG-0.35  N 
ATOM     51  C   ALA B1540      -4.320  39.819   1.026  1.00 36.41 LIG 0.24  C 
ATOM     52 O    ALA B1540      -4.435  40.566   2.004  1.00 35.55 LIG-0.27  OA
ATOM     53 H    ALA B1541      -4.481  39.716  -0.907  1.00 36.68 LIG 0.16  HD
BRANCH 51 54
ATOM     54  CA  ALA B1540      -3.965  38.337   1.196  1.00 37.40 LIG 0.17  C 
ATOM     55  CB  ALA B1540      -5.059  37.453   0.576  1.00 38.11 LIG 0.04  C 
BRANCH 54 56
ATOM     56  N   ALA B1540      -3.778  37.971   2.599  1.00 38.31 LIG-0.35  N 
ATOM     57 H    ALA B1540      -4.445  37.552   2.943  1.00 38.31 LIG 0.16  HD
ATOM     58  C   ILE B1539      -2.672  38.264   3.269  1.00 39.48 LIG 0.26  C 
ATOM     59 O    ILE B1539      -1.735  38.870   2.767  1.00 40.50 LIG-0.27  OA
BRANCH 58 60
ATOM     60  CA  ILE B1539      -2.631  37.829   4.735  1.00 40.24 LIG 0.40  C 
ATOM     61  N   ILE B1539      -1.257  37.958   5.322  1.00 42.50 LIG 0.61  N 
BRANCH 60 62
ATOM     62  CB  ILE B1539      -3.673  38.688   5.511  1.00 40.48 LIG 0.03  C 
ATOM     63  CG2 ILE B1539      -3.223  38.868   6.960  1.00 38.85 LIG 0.01  C 
BRANCH 62 64
ATOM     64  CG1 ILE B1539      -3.850  40.057   4.843  1.00 39.99 LIG 0.00  C 
ATOM     65  CD1 ILE B1539      -4.969  40.900   5.469  1.00 39.67 LIG 0.01  C 
ENDBRANCH 62 64
ENDBRANCH 60 62
ENDBRANCH 58 60
ENDBRANCH 54 56
ENDBRANCH 51 54
ENDBRANCH 48 50
ENDBRANCH 45 48
ENDBRANCH 43 44
BRANCH 43 66
ATOM     66  CB  TRP B1542      -1.138  43.930  -0.820  1.00 29.93 LIG 0.07  C 
BRANCH 66 67
ATOM     67  CG  TRP B1542      -0.104  45.028  -0.558  1.00 31.09 LIG-0.03  A 
ATOM     68  CD1 TRP B1542      -0.316  46.382  -0.621  1.00 35.00 LIG 0.10  A 
ATOM     69  NE1 TRP B1542       0.840  47.064  -0.289  1.00 35.42 LIG-0.36  N 
ATOM     70 HE1  TRP B1542       0.926  47.920  -0.264  1.00 35.42 LIG 0.17  HD
ATOM     71  CE2 TRP B1542       1.828  46.155  -0.005  1.00 34.23 LIG 0.04  A 
ATOM     72  CD2 TRP B1542       1.273  44.859  -0.166  1.00 31.85 LIG-0.00  A 
ATOM     73  CZ2 TRP B1542       3.162  46.362   0.381  1.00 32.49 LIG 0.03  A 
ATOM     74  CE3 TRP B1542       2.091  43.743   0.065  1.00 30.05 LIG 0.01  A 
ATOM     75  CZ3 TRP B1542       3.419  43.948   0.450  1.00 29.28 LIG 0.00  A 
ATOM     76  CH2 TRP B1542       3.939  45.256   0.605  1.00 32.34 LIG 0.00  A 
ENDBRANCH 66 67
ENDBRANCH 43 66
ENDBRANCH 1 43
TORSDOF 26
ENDMDL
MODEL 63
USER: ADFR SOLUTION from run 75
USER: SCORE 21.656516 LL:  -6.583 LR: -17.150 RR:   0.000 FEB:  -9.394
USER: RMSD 6.272442
USER: SEED 74
USER: STATUS no improvement in best in 11 clusters for 5 generations
USER: GENES 28
USER: genes 0 Translation |==|  0.45195 0.34705 0.52716
USER: genes 1 Rotation |==|  0.18698 0.52807 0.69795 0.83474
USER: genes 2 Torsion [C]-N--CA-[CB] |==|  0.73307
USER: genes 3 Torsion [N]-CA--CB-[CG] |==|  0.00542
USER: genes 4 Torsion [CA]-CB--CG-[CD1] |==|  0.20629
USER: genes 5 Torsion [CE1]-CZ--OH-[HH] |==|  0.76507
USER: genes 6 Torsion [N]-CA--C-[N] |==|  0.76670
USER: genes 7 Torsion [C]-N--CA-[CB] |==|  0.17995
USER: genes 8 Torsion [N]-CA--C-[N] |==|  0.52746
USER: genes 9 Torsion [C]-N--CA-[CB] |==|  0.82316
USER: genes 10 Torsion [N]-CA--CB-[CG] |==|  0.83086
USER: genes 11 Torsion [CA]-CB--CG-[CD] |==|  0.28159
USER: genes 12 Torsion [CB]-CG--CD-[NE] |==|  0.62376
USER: genes 13 Torsion [CG]-CD--NE-[HE] |==|  0.22136
USER: genes 14 Torsion [N]-CA--C-[O] |==|  0.48569
USER: genes 15 Torsion [N]-CA--CB-[CG] |==|  0.69069
USER: genes 16 Torsion [CA]-CB--CG-[CD1] |==|  0.60582
USER: genes 17 Torsion [N]-C--CA-[N] |==|  0.99254
USER: genes 18 Torsion [C]-CA--N-[C] |==|  0.73452
USER: genes 19 Torsion [N]-C--CA-[N] |==|  0.12114
USER: genes 20 Torsion [C]-CA--N-[C] |==|  0.17931
USER: genes 21 Torsion [N]-C--CA-[N] |==|  0.85053
USER: genes 22 Torsion [C]-CA--N-[C] |==|  0.85726
USER: genes 23 Torsion [N]-C--CA-[N] |==|  0.39297
USER: genes 24 Torsion [C]-CA--CB-[CG1] |==|  0.05374
USER: genes 25 Torsion [CA]-CB--CG1-[CD1] |==|  0.27309
USER: genes 26 Torsion [C]-CA--CB-[CG] |==|  0.20999
USER: genes 27 Torsion [CA]-CB--CG-[CD1] |==|  0.25512
ROOT
ATOM      1  C   TRP B1542      -3.575  40.980   2.979  1.00 26.55 LIG 0.24  C 
ATOM      2 O    TRP B1542      -2.856  41.048   1.992  1.00 27.86 LIG-0.27  OA
ATOM      3  N   TYR B1543      -3.530  41.874   3.959  1.00 24.62 LIG-0.35  N 
ATOM      4 H    TYR B1543      -3.969  41.807   4.696  1.00 24.62 LIG 0.16  HD
ENDROOT
BRANCH 3 5
ATOM      5  CA  TYR B1543      -2.709  43.066   3.850  1.00 22.31 LIG 0.18  C 
BRANCH 5 6
ATOM      6  CB  TYR B1543      -1.372  42.806   4.548  1.00 23.67 LIG 0.07  C 
BRANCH 6 7
ATOM      7  CG  TYR B1543      -1.196  41.415   5.125  1.00 24.58 LIG-0.06  A 
ATOM      8  CD1 TYR B1543      -0.958  40.322   4.292  1.00 24.59 LIG 0.01  A 
ATOM      9  CE1 TYR B1543      -0.869  39.037   4.804  1.00 26.50 LIG 0.04  A 
ATOM     10  CZ  TYR B1543      -1.025  38.842   6.162  1.00 24.60 LIG 0.07  A 
ATOM     11  CE2 TYR B1543      -1.255  39.923   7.010  1.00 24.06 LIG 0.04  A 
ATOM     12  CD2 TYR B1543      -1.333  41.186   6.489  1.00 22.62 LIG 0.01  A 
BRANCH 10 13
ATOM     13 OH   TYR B1543      -0.988  37.575   6.669  1.00 26.51 LIG-0.36  OA
ATOM     14 HH   TYR B1543      -1.749  37.226   6.606  1.00 26.51 LIG 0.22  HD
ENDBRANCH 10 13
ENDBRANCH 6 7
ENDBRANCH 5 6
BRANCH 5 15
ATOM     15  C   TYR B1543      -2.453  43.672   2.479  1.00 22.90 LIG 0.24  C 
ATOM     16  N   LEU B1544      -1.463  43.153   1.767  1.00 22.60 LIG-0.35  N 
ATOM     17 H    LEU B1544      -0.983  42.483   2.013  1.00 22.60 LIG 0.16  HD
ATOM     18 O    TYR B1543      -3.137  44.606   2.077  1.00 21.43 LIG-0.27  OA
BRANCH 16 19
ATOM     19  CA  LEU B1544      -1.120  43.716   0.471  1.00 22.81 LIG 0.18  C 
BRANCH 19 20
ATOM     20  C   LEU B1544      -0.094  42.864  -0.269  1.00 21.53 LIG 0.24  C 
ATOM     21 O    LEU B1544       0.222  41.742   0.144  1.00 22.00 LIG-0.27  OA
ATOM     22  N   ARG B1545       0.432  43.398  -1.366  1.00 20.14 LIG-0.35  N 
ATOM     23 H    ARG B1545       0.237  44.175  -1.679  1.00 20.14 LIG 0.16  HD
BRANCH 22 24
ATOM     24  CA  ARG B1545       1.418  42.650  -2.127  1.00 18.95 LIG 0.16  C 
BRANCH 24 25
ATOM     25  CB  ARG B1545       2.676  42.419  -1.279  1.00 20.51 LIG 0.04  C 
BRANCH 25 26
ATOM     26  CG  ARG B1545       3.298  43.759  -0.884  1.00 20.78 LIG 0.02  C 
BRANCH 26 27
ATOM     27  CD  ARG B1545       2.977  44.173   0.549  1.00 21.13 LIG 0.14  C 
BRANCH 27 28
ATOM     28  NE  ARG B1545       2.601  45.589   0.606  1.00 20.56 LIG-0.23  N 
ATOM     29 HE   ARG B1545       1.799  45.804   0.381  1.00 20.56 LIG 0.18  HD
ATOM     30  CZ  ARG B1545       3.426  46.559   0.986  1.00 23.27 LIG 0.67  C 
ATOM     31  NH2 ARG B1545       3.017  47.835   0.983  1.00 19.37 LIG-0.23  N 
ATOM     32  NH1 ARG B1545       4.667  46.255   1.345  1.00 20.25 LIG-0.23  N 
ATOM     33 1HH2 ARG B1545       2.218  48.029   0.734  1.00 19.37 LIG 0.17  HD
ATOM     34 2HH2 ARG B1545       3.554  48.459   1.229  1.00 19.37 LIG 0.17  HD
ATOM     35 1HH1 ARG B1545       4.931  45.437   1.330  1.00 20.25 LIG 0.17  HD
ATOM     36 2HH1 ARG B1545       5.208  46.877   1.592  1.00 20.25 LIG 0.17  HD
ENDBRANCH 27 28
ENDBRANCH 26 27
ENDBRANCH 25 26
ENDBRANCH 24 25
BRANCH 24 37
ATOM     37  C   ARG B1545       0.860  41.345  -2.681  1.00 20.11 LIG 0.22  C 
ATOM     38 O    ARG B1545       1.612  40.684  -3.435  1.00 20.61 LIG-0.29  OA
ENDBRANCH 24 37
ENDBRANCH 22 24
ENDBRANCH 19 20
BRANCH 19 39
ATOM     39  CB  LEU B1544      -0.603  45.149   0.652  1.00 22.71 LIG 0.04  C 
BRANCH 39 40
ATOM     40  CG  LEU B1544      -1.533  46.241   0.101  1.00 23.46 LIG-0.02  C 
ATOM     41  CD1 LEU B1544      -0.674  47.341  -0.530  1.00 24.99 LIG 0.01  C 
ATOM     42  CD2 LEU B1544      -2.508  45.672  -0.922  1.00 22.67 LIG 0.01  C 
ENDBRANCH 39 40
ENDBRANCH 19 39
ENDBRANCH 16 19
ENDBRANCH 5 15
ENDBRANCH 3 5
BRANCH 1 43
ATOM     43  CA  TRP B1542      -4.551  39.820   3.142  1.00 29.62 LIG 0.18  C 
BRANCH 43 44
ATOM     44  N   TRP B1542      -5.260  39.846   4.420  1.00 31.24 LIG-0.35  N 
ATOM     45  C   ALA B1541      -4.819  39.140   5.449  1.00 34.20 LIG 0.24  C 
ATOM     46 O    ALA B1541      -3.789  38.473   5.391  1.00 33.88 LIG-0.27  OA
ATOM     47 H    TRP B1542      -5.961  40.344   4.436  1.00 31.24 LIG 0.16  HD
BRANCH 45 48
ATOM     48  CA  ALA B1541      -5.650  39.198   6.739  1.00 35.59 LIG 0.17  C 
ATOM     49  CB  ALA B1541      -5.175  38.101   7.720  1.00 37.24 LIG 0.04  C 
BRANCH 48 50
ATOM     50  N   ALA B1541      -7.106  39.097   6.566  1.00 36.68 LIG-0.35  N 
ATOM     51  C   ALA B1540      -7.687  38.000   6.088  1.00 36.41 LIG 0.24  C 
ATOM     52 O    ALA B1540      -7.054  36.977   5.807  1.00 35.55 LIG-0.27  OA
ATOM     53 H    ALA B1541      -7.538  39.802   6.800  1.00 36.68 LIG 0.16  HD
BRANCH 51 54
ATOM     54  CA  ALA B1540      -9.212  38.058   5.937  1.00 37.40 LIG 0.17  C 
ATOM     55  CB  ALA B1540      -9.599  39.040   4.819  1.00 38.11 LIG 0.04  C 
BRANCH 54 56
ATOM     56  N   ALA B1540      -9.876  38.445   7.180  1.00 38.31 LIG-0.35  N 
ATOM     57 H    ALA B1540     -10.433  39.096   7.091  1.00 38.31 LIG 0.16  HD
ATOM     58  C   ILE B1539      -9.635  37.840   8.334  1.00 39.48 LIG 0.26  C 
ATOM     59 O    ILE B1539      -8.833  36.923   8.445  1.00 40.50 LIG-0.27  OA
BRANCH 58 60
ATOM     60  CA  ILE B1539     -10.396  38.370   9.551  1.00 40.24 LIG 0.40  C 
ATOM     61  N   ILE B1539     -10.829  37.266  10.469  1.00 42.50 LIG 0.61  N 
BRANCH 60 62
ATOM     62  CB  ILE B1539      -9.473  39.394  10.275  1.00 40.48 LIG 0.03  C 
ATOM     63  CG2 ILE B1539      -8.849  38.748  11.511  1.00 38.85 LIG 0.01  C 
BRANCH 62 64
ATOM     64  CG1 ILE B1539      -8.371  39.891   9.332  1.00 39.99 LIG 0.00  C 
ATOM     65  CD1 ILE B1539      -8.687  41.248   8.688  1.00 39.67 LIG 0.01  C 
ENDBRANCH 62 64
ENDBRANCH 60 62
ENDBRANCH 58 60
ENDBRANCH 54 56
ENDBRANCH 51 54
ENDBRANCH 48 50
ENDBRANCH 45 48
ENDBRANCH 43 44
BRANCH 43 66
ATOM     66  CB  TRP B1542      -5.570  39.876   1.996  1.00 29.93 LIG 0.07  C 
BRANCH 66 67
ATOM     67  CG  TRP B1542      -5.012  39.397   0.654  1.00 31.09 LIG-0.03  A 
ATOM     68  CD1 TRP B1542      -5.065  38.119   0.156  1.00 35.00 LIG 0.10  A 
ATOM     69  NE1 TRP B1542      -4.489  38.069  -1.100  1.00 35.42 LIG-0.36  N 
ATOM     70 HE1  TRP B1542      -4.419  37.366  -1.590  1.00 35.42 LIG 0.17  HD
ATOM     71  CE2 TRP B1542      -4.047  39.324  -1.437  1.00 34.23 LIG 0.04  A 
ATOM     72  CD2 TRP B1542      -4.356  40.190  -0.356  1.00 31.85 LIG-0.00  A 
ATOM     73  CZ2 TRP B1542      -3.404  39.772  -2.603  1.00 32.49 LIG 0.03  A 
ATOM     74  CE3 TRP B1542      -4.001  41.543  -0.454  1.00 30.05 LIG 0.01  A 
ATOM     75  CZ3 TRP B1542      -3.360  41.990  -1.614  1.00 29.28 LIG 0.00  A 
ATOM     76  CH2 TRP B1542      -3.070  41.099  -2.675  1.00 32.34 LIG 0.00  A 
ENDBRANCH 66 67
ENDBRANCH 43 66
ENDBRANCH 1 43
TORSDOF 26
ENDMDL
MODEL 64
USER: ADFR SOLUTION from run 156
USER: SCORE 19.626351 LL:  -6.010 LR: -17.142 RR:   0.000 FEB:  -9.386
USER: RMSD 7.070918
USER: SEED 155
USER: STATUS no improvement in best in 12 clusters for 5 generations
USER: GENES 28
USER: genes 0 Translation |==|  0.45433 0.43629 0.55647
USER: genes 1 Rotation |==|  0.94148 0.39069 0.53660 0.70447
USER: genes 2 Torsion [C]-N--CA-[CB] |==|  0.25267
USER: genes 3 Torsion [N]-CA--CB-[CG] |==|  0.76681
USER: genes 4 Torsion [CA]-CB--CG-[CD1] |==|  0.91866
USER: genes 5 Torsion [CE1]-CZ--OH-[HH] |==|  0.44637
USER: genes 6 Torsion [N]-CA--C-[N] |==|  0.48826
USER: genes 7 Torsion [C]-N--CA-[CB] |==|  0.40772
USER: genes 8 Torsion [N]-CA--C-[N] |==|  0.91493
USER: genes 9 Torsion [C]-N--CA-[CB] |==|  0.81714
USER: genes 10 Torsion [N]-CA--CB-[CG] |==|  0.70310
USER: genes 11 Torsion [CA]-CB--CG-[CD] |==|  0.79367
USER: genes 12 Torsion [CB]-CG--CD-[NE] |==|  0.41277
USER: genes 13 Torsion [CG]-CD--NE-[HE] |==|  0.68967
USER: genes 14 Torsion [N]-CA--C-[O] |==|  0.01404
USER: genes 15 Torsion [N]-CA--CB-[CG] |==|  0.68088
USER: genes 16 Torsion [CA]-CB--CG-[CD1] |==|  0.01368
USER: genes 17 Torsion [N]-C--CA-[N] |==|  0.87510
USER: genes 18 Torsion [C]-CA--N-[C] |==|  0.20537
USER: genes 19 Torsion [N]-C--CA-[N] |==|  0.13729
USER: genes 20 Torsion [C]-CA--N-[C] |==|  0.14590
USER: genes 21 Torsion [N]-C--CA-[N] |==|  0.18132
USER: genes 22 Torsion [C]-CA--N-[C] |==|  0.76976
USER: genes 23 Torsion [N]-C--CA-[N] |==|  0.40944
USER: genes 24 Torsion [C]-CA--CB-[CG1] |==|  0.25922
USER: genes 25 Torsion [CA]-CB--CG1-[CD1] |==|  0.74073
USER: genes 26 Torsion [C]-CA--CB-[CG] |==|  0.29893
USER: genes 27 Torsion [CA]-CB--CG-[CD1] |==|  0.22821
ROOT
ATOM      1  C   TRP B1542      -3.520  42.720   3.529  1.00 26.55 LIG 0.24  C 
ATOM      2 O    TRP B1542      -2.683  42.508   4.395  1.00 27.86 LIG-0.27  OA
ATOM      3  N   TYR B1543      -3.276  42.531   2.238  1.00 24.62 LIG-0.35  N 
ATOM      4 H    TYR B1543      -3.820  42.744   1.606  1.00 24.62 LIG 0.16  HD
ENDROOT
BRANCH 3 5
ATOM      5  CA  TYR B1543      -2.032  41.931   1.790  1.00 22.31 LIG 0.18  C 
BRANCH 5 6
ATOM      6  CB  TYR B1543      -2.225  40.415   1.693  1.00 23.67 LIG 0.07  C 
BRANCH 6 7
ATOM      7  CG  TYR B1543      -2.043  39.650   2.989  1.00 24.58 LIG-0.06  A 
ATOM      8  CD1 TYR B1543      -1.180  40.120   3.979  1.00 24.59 LIG 0.01  A 
ATOM      9  CE1 TYR B1543      -0.951  39.390   5.136  1.00 26.50 LIG 0.04  A 
ATOM     10  CZ  TYR B1543      -1.588  38.175   5.300  1.00 24.60 LIG 0.07  A 
ATOM     11  CE2 TYR B1543      -2.458  37.695   4.325  1.00 24.06 LIG 0.04  A 
ATOM     12  CD2 TYR B1543      -2.678  38.431   3.193  1.00 22.62 LIG 0.01  A 
BRANCH 10 13
ATOM     13 OH   TYR B1543      -1.331  37.427   6.413  1.00 26.51 LIG-0.36  OA
ATOM     14 HH   TYR B1543      -1.950  36.869   6.524  1.00 26.51 LIG 0.22  HD
ENDBRANCH 10 13
ENDBRANCH 6 7
ENDBRANCH 5 6
BRANCH 5 15
ATOM     15  C   TYR B1543      -1.377  42.437   0.515  1.00 22.90 LIG 0.24  C 
ATOM     16  N   LEU B1544      -0.200  41.917   0.195  1.00 22.60 LIG-0.35  N 
ATOM     17 H    LEU B1544       0.197  41.296   0.638  1.00 22.60 LIG 0.16  HD
ATOM     18 O    TYR B1543      -1.925  43.297  -0.165  1.00 21.43 LIG-0.27  OA
BRANCH 16 19
ATOM     19  CA  LEU B1544       0.515  42.391  -0.979  1.00 22.81 LIG 0.18  C 
BRANCH 19 20
ATOM     20  C   LEU B1544       0.149  41.599  -2.230  1.00 21.53 LIG 0.24  C 
ATOM     21 O    LEU B1544       0.166  42.127  -3.347  1.00 22.00 LIG-0.27  OA
ATOM     22  N   ARG B1545      -0.186  40.327  -2.042  1.00 20.14 LIG-0.35  N 
ATOM     23 H    ARG B1545      -0.209  39.930  -1.280  1.00 20.14 LIG 0.16  HD
BRANCH 22 24
ATOM     24  CA  ARG B1545      -0.549  39.504  -3.184  1.00 18.95 LIG 0.16  C 
BRANCH 24 25
ATOM     25  CB  ARG B1545      -1.851  40.019  -3.813  1.00 20.51 LIG 0.04  C 
BRANCH 25 26
ATOM     26  CG  ARG B1545      -3.003  39.067  -3.490  1.00 20.78 LIG 0.02  C 
BRANCH 26 27
ATOM     27  CD  ARG B1545      -2.954  37.769  -4.290  1.00 21.13 LIG 0.14  C 
BRANCH 27 28
ATOM     28  NE  ARG B1545      -3.520  36.661  -3.514  1.00 20.56 LIG-0.23  N 
ATOM     29 HE   ARG B1545      -2.988  36.040  -3.247  1.00 20.56 LIG 0.18  HD
ATOM     30  CZ  ARG B1545      -4.807  36.560  -3.199  1.00 23.27 LIG 0.67  C 
ATOM     31  NH2 ARG B1545      -5.254  35.500  -2.512  1.00 19.37 LIG-0.23  N 
ATOM     32  NH1 ARG B1545      -5.650  37.507  -3.591  1.00 20.25 LIG-0.23  N 
ATOM     33 1HH2 ARG B1545      -4.708  34.881  -2.273  1.00 19.37 LIG 0.17  HD
ATOM     34 2HH2 ARG B1545      -6.088  35.439  -2.310  1.00 19.37 LIG 0.17  HD
ATOM     35 1HH1 ARG B1545      -5.362  38.178  -4.046  1.00 20.25 LIG 0.17  HD
ATOM     36 2HH1 ARG B1545      -6.484  37.450  -3.391  1.00 20.25 LIG 0.17  HD
ENDBRANCH 27 28
ENDBRANCH 26 27
ENDBRANCH 25 26
ENDBRANCH 24 25
BRANCH 24 37
ATOM     37  C   ARG B1545       0.574  39.401  -4.209  1.00 20.11 LIG 0.22  C 
ATOM     38 O    ARG B1545       1.667  39.935  -3.905  1.00 20.61 LIG-0.29  OA
ENDBRANCH 24 37
ENDBRANCH 22 24
ENDBRANCH 19 20
BRANCH 19 39
ATOM     39  CB  LEU B1544       2.026  42.328  -0.722  1.00 22.71 LIG 0.04  C 
BRANCH 39 40
ATOM     40  CG  LEU B1544       2.731  43.694  -0.693  1.00 23.46 LIG-0.02  C 
ATOM     41  CD1 LEU B1544       1.670  44.792  -0.816  1.00 24.99 LIG 0.01  C 
ATOM     42  CD2 LEU B1544       3.538  43.873   0.586  1.00 22.67 LIG 0.01  C 
ENDBRANCH 39 40
ENDBRANCH 19 39
ENDBRANCH 16 19
ENDBRANCH 5 15
ENDBRANCH 3 5
BRANCH 1 43
ATOM     43  CA  TRP B1542      -4.898  43.253   3.903  1.00 29.62 LIG 0.18  C 
BRANCH 43 44
ATOM     44  N   TRP B1542      -5.331  44.361   3.054  1.00 31.24 LIG-0.35  N 
ATOM     45  C   ALA B1541      -5.724  44.142   1.810  1.00 34.20 LIG 0.24  C 
ATOM     46 O    ALA B1541      -5.779  43.011   1.331  1.00 33.88 LIG-0.27  OA
ATOM     47 H    TRP B1542      -5.307  45.136   3.428  1.00 31.24 LIG 0.16  HD
BRANCH 45 48
ATOM     48  CA  ALA B1541      -6.125  45.371   0.981  1.00 35.59 LIG 0.17  C 
ATOM     49  CB  ALA B1541      -6.402  44.950  -0.481  1.00 37.24 LIG 0.04  C 
BRANCH 48 50
ATOM     50  N   ALA B1541      -5.170  46.487   0.992  1.00 36.68 LIG-0.35  N 
ATOM     51  C   ALA B1540      -3.884  46.322   0.697  1.00 36.41 LIG 0.24  C 
ATOM     52 O    ALA B1540      -3.414  45.235   0.346  1.00 35.55 LIG-0.27  OA
ATOM     53 H    ALA B1541      -5.517  47.245   1.203  1.00 36.68 LIG 0.16  HD
BRANCH 51 54
ATOM     54  CA  ALA B1540      -3.007  47.577   0.782  1.00 37.40 LIG 0.17  C 
ATOM     55  CB  ALA B1540      -1.601  47.282   0.236  1.00 38.11 LIG 0.04  C 
BRANCH 54 56
ATOM     56  N   ALA B1540      -2.904  48.087   2.148  1.00 38.31 LIG-0.35  N 
ATOM     57 H    ALA B1540      -2.194  47.834   2.564  1.00 38.31 LIG 0.16  HD
ATOM     58  C   ILE B1539      -3.828  48.869   2.688  1.00 39.48 LIG 0.26  C 
ATOM     59 O    ILE B1539      -4.838  49.211   2.087  1.00 40.50 LIG-0.27  OA
BRANCH 58 60
ATOM     60  CA  ILE B1539      -3.588  49.309   4.133  1.00 40.24 LIG 0.40  C 
ATOM     61  N   ILE B1539      -4.134  50.678   4.404  1.00 42.50 LIG 0.61  N 
BRANCH 60 62
ATOM     62  CB  ILE B1539      -4.228  48.237   5.065  1.00 40.48 LIG 0.03  C 
ATOM     63  CG2 ILE B1539      -5.404  47.568   4.355  1.00 38.85 LIG 0.01  C 
BRANCH 62 64
ATOM     64  CG1 ILE B1539      -3.192  47.183   5.470  1.00 39.99 LIG 0.00  C 
ATOM     65  CD1 ILE B1539      -3.181  45.954   4.551  1.00 39.67 LIG 0.01  C 
ENDBRANCH 62 64
ENDBRANCH 60 62
ENDBRANCH 58 60
ENDBRANCH 54 56
ENDBRANCH 51 54
ENDBRANCH 48 50
ENDBRANCH 45 48
ENDBRANCH 43 44
BRANCH 43 66
ATOM     66  CB  TRP B1542      -5.910  42.104   3.794  1.00 29.93 LIG 0.07  C 
BRANCH 66 67
ATOM     67  CG  TRP B1542      -6.402  41.588   5.148  1.00 31.09 LIG-0.03  A 
ATOM     68  CD1 TRP B1542      -7.396  42.136   5.920  1.00 35.00 LIG 0.10  A 
ATOM     69  NE1 TRP B1542      -7.590  41.379   7.060  1.00 35.42 LIG-0.36  N 
ATOM     70 HE1  TRP B1542      -8.165  41.544   7.678  1.00 35.42 LIG 0.17  HD
ATOM     71  CE2 TRP B1542      -6.716  40.321   7.047  1.00 34.23 LIG 0.04  A 
ATOM     72  CD2 TRP B1542      -5.947  40.418   5.858  1.00 31.85 LIG-0.00  A 
ATOM     73  CZ2 TRP B1542      -6.538  39.285   7.978  1.00 32.49 LIG 0.03  A 
ATOM     74  CE3 TRP B1542      -4.969  39.445   5.606  1.00 30.05 LIG 0.01  A 
ATOM     75  CZ3 TRP B1542      -4.791  38.413   6.533  1.00 29.28 LIG 0.00  A 
ATOM     76  CH2 TRP B1542      -5.578  38.344   7.708  1.00 32.34 LIG 0.00  A 
ENDBRANCH 66 67
ENDBRANCH 43 66
ENDBRANCH 1 43
TORSDOF 26
ENDMDL
MODEL 65
USER: ADFR SOLUTION from run 183
USER: SCORE 21.256329 LL:  -5.788 LR: -17.140 RR:   0.000 FEB:  -9.384
USER: RMSD 6.914466
USER: SEED 182
USER: STATUS no improvement in best in 15 clusters for 5 generations
USER: GENES 28
USER: genes 0 Translation |==|  0.47007 0.53061 0.57783
USER: genes 1 Rotation |==|  0.04685 0.31284 0.57452 0.56381
USER: genes 2 Torsion [C]-N--CA-[CB] |==|  0.84622
USER: genes 3 Torsion [N]-CA--CB-[CG] |==|  0.59434
USER: genes 4 Torsion [CA]-CB--CG-[CD1] |==|  0.01995
USER: genes 5 Torsion [CE1]-CZ--OH-[HH] |==|  0.71813
USER: genes 6 Torsion [N]-CA--C-[N] |==|  0.89375
USER: genes 7 Torsion [C]-N--CA-[CB] |==|  0.25255
USER: genes 8 Torsion [N]-CA--C-[N] |==|  0.40768
USER: genes 9 Torsion [C]-N--CA-[CB] |==|  0.42229
USER: genes 10 Torsion [N]-CA--CB-[CG] |==|  0.71605
USER: genes 11 Torsion [CA]-CB--CG-[CD] |==|  0.83785
USER: genes 12 Torsion [CB]-CG--CD-[NE] |==|  0.90888
USER: genes 13 Torsion [CG]-CD--NE-[HE] |==|  0.28598
USER: genes 14 Torsion [N]-CA--C-[O] |==|  0.54938
USER: genes 15 Torsion [N]-CA--CB-[CG] |==|  0.36197
USER: genes 16 Torsion [CA]-CB--CG-[CD1] |==|  0.21849
USER: genes 17 Torsion [N]-C--CA-[N] |==|  0.05226
USER: genes 18 Torsion [C]-CA--N-[C] |==|  0.75000
USER: genes 19 Torsion [N]-C--CA-[N] |==|  0.19005
USER: genes 20 Torsion [C]-CA--N-[C] |==|  0.77368
USER: genes 21 Torsion [N]-C--CA-[N] |==|  0.87945
USER: genes 22 Torsion [C]-CA--N-[C] |==|  0.84611
USER: genes 23 Torsion [N]-C--CA-[N] |==|  0.46357
USER: genes 24 Torsion [C]-CA--CB-[CG1] |==|  0.23271
USER: genes 25 Torsion [CA]-CB--CG1-[CD1] |==|  0.65631
USER: genes 26 Torsion [C]-CA--CB-[CG] |==|  0.31007
USER: genes 27 Torsion [CA]-CB--CG-[CD1] |==|  0.84241
ROOT
ATOM      1  C   TRP B1542      -3.154  44.559   3.929  1.00 26.55 LIG 0.24  C 
ATOM      2 O    TRP B1542      -2.037  45.045   4.036  1.00 27.86 LIG-0.27  OA
ATOM      3  N   TYR B1543      -4.162  45.204   3.355  1.00 24.62 LIG-0.35  N 
ATOM      4 H    TYR B1543      -4.972  44.917   3.335  1.00 24.62 LIG 0.16  HD
ENDROOT
BRANCH 3 5
ATOM      5  CA  TYR B1543      -3.957  46.482   2.698  1.00 22.31 LIG 0.18  C 
BRANCH 5 6
ATOM      6  CB  TYR B1543      -3.311  47.448   3.696  1.00 23.67 LIG 0.07  C 
BRANCH 6 7
ATOM      7  CG  TYR B1543      -3.721  48.901   3.557  1.00 24.58 LIG-0.06  A 
ATOM      8  CD1 TYR B1543      -4.737  49.274   2.678  1.00 24.59 LIG 0.01  A 
ATOM      9  CE1 TYR B1543      -5.068  50.607   2.490  1.00 26.50 LIG 0.04  A 
ATOM     10  CZ  TYR B1543      -4.373  51.577   3.186  1.00 24.60 LIG 0.07  A 
ATOM     11  CE2 TYR B1543      -3.361  51.221   4.075  1.00 24.06 LIG 0.04  A 
ATOM     12  CD2 TYR B1543      -3.051  49.900   4.253  1.00 22.62 LIG 0.01  A 
BRANCH 10 13
ATOM     13 OH   TYR B1543      -4.659  52.894   2.972  1.00 26.51 LIG-0.36  OA
ATOM     14 HH   TYR B1543      -4.075  53.229   2.468  1.00 26.51 LIG 0.22  HD
ENDBRANCH 10 13
ENDBRANCH 6 7
ENDBRANCH 5 6
BRANCH 5 15
ATOM     15  C   TYR B1543      -3.195  46.532   1.384  1.00 22.90 LIG 0.24  C 
ATOM     16  N   LEU B1544      -2.155  45.719   1.260  1.00 22.60 LIG-0.35  N 
ATOM     17 H    LEU B1544      -1.906  45.150   1.853  1.00 22.60 LIG 0.16  HD
ATOM     18 O    TYR B1543      -3.537  47.306   0.497  1.00 21.43 LIG-0.27  OA
BRANCH 16 19
ATOM     19  CA  LEU B1544      -1.342  45.749   0.054  1.00 22.81 LIG 0.18  C 
BRANCH 19 20
ATOM     20  C   LEU B1544      -0.810  44.367  -0.311  1.00 21.53 LIG 0.24  C 
ATOM     21 O    LEU B1544      -0.521  43.543   0.563  1.00 22.00 LIG-0.27  OA
ATOM     22  N   ARG B1545      -0.678  44.113  -1.609  1.00 20.14 LIG-0.35  N 
ATOM     23 H    ARG B1545      -0.867  44.664  -2.241  1.00 20.14 LIG 0.16  HD
BRANCH 22 24
ATOM     24  CA  ARG B1545      -0.176  42.819  -2.039  1.00 18.95 LIG 0.16  C 
BRANCH 24 25
ATOM     25  CB  ARG B1545      -0.730  42.474  -3.428  1.00 20.51 LIG 0.04  C 
BRANCH 25 26
ATOM     26  CG  ARG B1545      -1.873  41.467  -3.305  1.00 20.78 LIG 0.02  C 
BRANCH 26 27
ATOM     27  CD  ARG B1545      -1.461  40.170  -2.614  1.00 21.13 LIG 0.14  C 
BRANCH 27 28
ATOM     28  NE  ARG B1545      -0.063  39.845  -2.915  1.00 20.56 LIG-0.23  N 
ATOM     29 HE   ARG B1545       0.528  40.000  -2.310  1.00 20.56 LIG 0.18  HD
ATOM     30  CZ  ARG B1545       0.343  39.324  -4.068  1.00 23.27 LIG 0.67  C 
ATOM     31  NH2 ARG B1545       1.644  39.083  -4.280  1.00 19.37 LIG-0.23  N 
ATOM     32  NH1 ARG B1545      -0.548  39.069  -5.018  1.00 20.25 LIG-0.23  N 
ATOM     33 1HH2 ARG B1545       2.220  39.265  -3.669  1.00 19.37 LIG 0.17  HD
ATOM     34 2HH2 ARG B1545       1.902  38.747  -5.027  1.00 19.37 LIG 0.17  HD
ATOM     35 1HH1 ARG B1545      -1.380  39.240  -4.884  1.00 20.25 LIG 0.17  HD
ATOM     36 2HH1 ARG B1545      -0.293  38.732  -5.767  1.00 20.25 LIG 0.17  HD
ENDBRANCH 27 28
ENDBRANCH 26 27
ENDBRANCH 25 26
ENDBRANCH 24 25
BRANCH 24 37
ATOM     37  C   ARG B1545       1.344  42.739  -1.998  1.00 20.11 LIG 0.22  C 
ATOM     38 O    ARG B1545       1.880  41.817  -2.659  1.00 20.61 LIG-0.29  OA
ENDBRANCH 24 37
ENDBRANCH 22 24
ENDBRANCH 19 20
BRANCH 19 39
ATOM     39  CB  LEU B1544      -0.187  46.743   0.236  1.00 22.71 LIG 0.04  C 
BRANCH 39 40
ATOM     40  CG  LEU B1544       1.199  46.190  -0.130  1.00 23.46 LIG-0.02  C 
ATOM     41  CD1 LEU B1544       1.346  46.212  -1.654  1.00 24.99 LIG 0.01  C 
ATOM     42  CD2 LEU B1544       2.308  47.004   0.525  1.00 22.67 LIG 0.01  C 
ENDBRANCH 39 40
ENDBRANCH 19 39
ENDBRANCH 16 19
ENDBRANCH 5 15
ENDBRANCH 3 5
BRANCH 1 43
ATOM     43  CA  TRP B1542      -3.449  43.174   4.494  1.00 29.62 LIG 0.18  C 
BRANCH 43 44
ATOM     44  N   TRP B1542      -4.668  42.582   3.946  1.00 31.24 LIG-0.35  N 
ATOM     45  C   ALA B1541      -5.836  42.781   4.533  1.00 34.20 LIG 0.24  C 
ATOM     46 O    ALA B1541      -5.955  43.493   5.527  1.00 33.88 LIG-0.27  OA
ATOM     47 H    TRP B1542      -4.554  42.112   3.234  1.00 31.24 LIG 0.16  HD
BRANCH 45 48
ATOM     48  CA  ALA B1541      -7.056  42.087   3.909  1.00 35.59 LIG 0.17  C 
ATOM     49  CB  ALA B1541      -8.356  42.671   4.509  1.00 37.24 LIG 0.04  C 
BRANCH 48 50
ATOM     50  N   ALA B1541      -7.084  40.622   4.022  1.00 36.68 LIG-0.35  N 
ATOM     51  C   ALA B1540      -6.408  39.835   3.190  1.00 36.41 LIG 0.24  C 
ATOM     52 O    ALA B1540      -5.673  40.277   2.301  1.00 35.55 LIG-0.27  OA
ATOM     53 H    ALA B1541      -7.571  40.329   4.667  1.00 36.68 LIG 0.16  HD
BRANCH 51 54
ATOM     54  CA  ALA B1540      -6.563  38.326   3.417  1.00 37.40 LIG 0.17  C 
ATOM     55  CB  ALA B1540      -7.893  37.832   2.826  1.00 38.11 LIG 0.04  C 
BRANCH 54 56
ATOM     56  N   ALA B1540      -6.496  37.971   4.833  1.00 38.31 LIG-0.35  N 
ATOM     57 H    ALA B1540      -7.177  37.529   5.116  1.00 38.31 LIG 0.16  HD
ATOM     58  C   ILE B1539      -5.470  38.305   5.603  1.00 39.48 LIG 0.26  C 
ATOM     59 O    ILE B1539      -4.512  38.944   5.188  1.00 40.50 LIG-0.27  OA
BRANCH 58 60
ATOM     60  CA  ILE B1539      -5.551  37.876   7.069  1.00 40.24 LIG 0.40  C 
ATOM     61  N   ILE B1539      -4.234  38.016   7.771  1.00 42.50 LIG 0.61  N 
BRANCH 60 62
ATOM     62  CB  ILE B1539      -6.662  38.731   7.749  1.00 40.48 LIG 0.03  C 
ATOM     63  CG2 ILE B1539      -6.624  40.158   7.205  1.00 38.85 LIG 0.01  C 
BRANCH 62 64
ATOM     64  CG1 ILE B1539      -8.044  38.114   7.507  1.00 39.99 LIG 0.00  C 
ATOM     65  CD1 ILE B1539      -9.035  39.079   6.843  1.00 39.67 LIG 0.01  C 
ENDBRANCH 62 64
ENDBRANCH 60 62
ENDBRANCH 58 60
ENDBRANCH 54 56
ENDBRANCH 51 54
ENDBRANCH 48 50
ENDBRANCH 45 48
ENDBRANCH 43 44
BRANCH 43 66
ATOM     66  CB  TRP B1542      -2.256  42.258   4.185  1.00 29.93 LIG 0.07  C 
BRANCH 66 67
ATOM     67  CG  TRP B1542      -1.464  41.842   5.425  1.00 31.09 LIG-0.03  A 
ATOM     68  CD1 TRP B1542      -0.874  42.680   6.339  1.00 35.00 LIG 0.10  A 
ATOM     69  NE1 TRP B1542      -0.275  41.947   7.346  1.00 35.42 LIG-0.36  N 
ATOM     70 HE1  TRP B1542       0.149  42.275   8.019  1.00 35.42 LIG 0.17  HD
ATOM     71  CE2 TRP B1542      -0.467  40.611   7.099  1.00 34.23 LIG 0.04  A 
ATOM     72  CD2 TRP B1542      -1.210  40.502   5.895  1.00 31.85 LIG-0.00  A 
ATOM     73  CZ2 TRP B1542      -0.051  39.488   7.833  1.00 32.49 LIG 0.03  A 
ATOM     74  CE3 TRP B1542      -1.539  39.225   5.419  1.00 30.05 LIG 0.01  A 
ATOM     75  CZ3 TRP B1542      -1.126  38.106   6.149  1.00 29.28 LIG 0.00  A 
ATOM     76  CH2 TRP B1542      -0.388  38.250   7.348  1.00 32.34 LIG 0.00  A 
ENDBRANCH 66 67
ENDBRANCH 43 66
ENDBRANCH 1 43
TORSDOF 26
ENDMDL
MODEL 66
USER: ADFR SOLUTION from run 124
USER: SCORE 20.940536 LL:  -6.997 LR: -17.141 RR:   0.000 FEB:  -9.385
USER: RMSD 4.963332
USER: SEED 123
USER: STATUS no improvement in best in 14 clusters for 5 generations
USER: GENES 28
USER: genes 0 Translation |==|  0.40090 0.38999 0.47344
USER: genes 1 Rotation |==|  0.11713 0.61524 0.48088 0.79961
USER: genes 2 Torsion [C]-N--CA-[CB] |==|  0.83265
USER: genes 3 Torsion [N]-CA--CB-[CG] |==|  0.69099
USER: genes 4 Torsion [CA]-CB--CG-[CD1] |==|  0.50071
USER: genes 5 Torsion [CE1]-CZ--OH-[HH] |==|  0.00627
USER: genes 6 Torsion [N]-CA--C-[N] |==|  0.99596
USER: genes 7 Torsion [C]-N--CA-[CB] |==|  0.77777
USER: genes 8 Torsion [N]-CA--C-[N] |==|  0.59429
USER: genes 9 Torsion [C]-N--CA-[CB] |==|  0.82924
USER: genes 10 Torsion [N]-CA--CB-[CG] |==|  0.86286
USER: genes 11 Torsion [CA]-CB--CG-[CD] |==|  0.80435
USER: genes 12 Torsion [CB]-CG--CD-[NE] |==|  0.45823
USER: genes 13 Torsion [CG]-CD--NE-[HE] |==|  0.80545
USER: genes 14 Torsion [N]-CA--C-[O] |==|  0.09865
USER: genes 15 Torsion [N]-CA--CB-[CG] |==|  0.06801
USER: genes 16 Torsion [CA]-CB--CG-[CD1] |==|  0.33511
USER: genes 17 Torsion [N]-C--CA-[N] |==|  0.66559
USER: genes 18 Torsion [C]-CA--N-[C] |==|  0.60182
USER: genes 19 Torsion [N]-C--CA-[N] |==|  0.98659
USER: genes 20 Torsion [C]-CA--N-[C] |==|  0.19409
USER: genes 21 Torsion [N]-C--CA-[N] |==|  0.11361
USER: genes 22 Torsion [C]-CA--N-[C] |==|  0.15957
USER: genes 23 Torsion [N]-C--CA-[N] |==|  0.45283
USER: genes 24 Torsion [C]-CA--CB-[CG1] |==|  0.93654
USER: genes 25 Torsion [CA]-CB--CG1-[CD1] |==|  0.44520
USER: genes 26 Torsion [C]-CA--CB-[CG] |==|  0.76287
USER: genes 27 Torsion [CA]-CB--CG-[CD1] |==|  0.17096
ROOT
ATOM      1  C   TRP B1542      -4.762  41.817   1.972  1.00 26.55 LIG 0.24  C 
ATOM      2 O    TRP B1542      -4.053  40.920   1.539  1.00 27.86 LIG-0.27  OA
ATOM      3  N   TYR B1543      -4.266  42.899   2.560  1.00 24.62 LIG-0.35  N 
ATOM      4 H    TYR B1543      -4.744  43.505   2.940  1.00 24.62 LIG 0.16  HD
ENDROOT
BRANCH 3 5
ATOM      5  CA  TYR B1543      -2.836  43.140   2.603  1.00 22.31 LIG 0.18  C 
BRANCH 5 6
ATOM      6  CB  TYR B1543      -2.166  41.983   3.348  1.00 23.67 LIG 0.07  C 
BRANCH 6 7
ATOM      7  CG  TYR B1543      -1.576  42.332   4.701  1.00 24.58 LIG-0.06  A 
ATOM      8  CD1 TYR B1543      -0.936  41.362   5.471  1.00 24.59 LIG 0.01  A 
ATOM      9  CE1 TYR B1543      -0.459  41.654   6.740  1.00 26.50 LIG 0.04  A 
ATOM     10  CZ  TYR B1543      -0.630  42.928   7.245  1.00 24.60 LIG 0.07  A 
ATOM     11  CE2 TYR B1543      -1.261  43.911   6.486  1.00 24.06 LIG 0.04  A 
ATOM     12  CD2 TYR B1543      -1.719  43.608   5.233  1.00 22.62 LIG 0.01  A 
BRANCH 10 13
ATOM     13 OH   TYR B1543      -0.208  43.212   8.512  1.00 26.51 LIG-0.36  OA
ATOM     14 HH   TYR B1543       0.158  42.532   8.844  1.00 26.51 LIG 0.22  HD
ENDBRANCH 10 13
ENDBRANCH 6 7
ENDBRANCH 5 6
BRANCH 5 15
ATOM     15  C   TYR B1543      -2.085  43.407   1.308  1.00 22.90 LIG 0.24  C 
ATOM     16  N   LEU B1544      -2.790  43.375   0.186  1.00 22.60 LIG-0.35  N 
ATOM     17 H    LEU B1544      -3.639  43.247   0.145  1.00 22.60 LIG 0.16  HD
ATOM     18 O    TYR B1543      -0.880  43.628   1.324  1.00 21.43 LIG-0.27  OA
BRANCH 16 19
ATOM     19  CA  LEU B1544      -2.132  43.564  -1.097  1.00 22.81 LIG 0.18  C 
BRANCH 19 20
ATOM     20  C   LEU B1544      -0.821  42.789  -1.187  1.00 21.53 LIG 0.24  C 
ATOM     21 O    LEU B1544      -0.685  41.697  -0.624  1.00 22.00 LIG-0.27  OA
ATOM     22  N   ARG B1545       0.150  43.358  -1.894  1.00 20.14 LIG-0.35  N 
ATOM     23 H    ARG B1545       0.089  44.116  -2.295  1.00 20.14 LIG 0.16  HD
BRANCH 22 24
ATOM     24  CA  ARG B1545       1.430  42.684  -2.027  1.00 18.95 LIG 0.16  C 
BRANCH 24 25
ATOM     25  CB  ARG B1545       2.078  42.505  -0.647  1.00 20.51 LIG 0.04  C 
BRANCH 25 26
ATOM     26  CG  ARG B1545       2.063  43.830   0.118  1.00 20.78 LIG 0.02  C 
BRANCH 26 27
ATOM     27  CD  ARG B1545       3.023  44.868  -0.458  1.00 21.13 LIG 0.14  C 
BRANCH 27 28
ATOM     28  NE  ARG B1545       2.718  46.202   0.069  1.00 20.56 LIG-0.23  N 
ATOM     29 HE   ARG B1545       1.992  46.583  -0.190  1.00 20.56 LIG 0.18  HD
ATOM     30  CZ  ARG B1545       3.498  46.856   0.923  1.00 23.27 LIG 0.67  C 
ATOM     31  NH2 ARG B1545       3.167  48.087   1.336  1.00 19.37 LIG-0.23  N 
ATOM     32  NH1 ARG B1545       4.622  46.289   1.345  1.00 20.25 LIG-0.23  N 
ATOM     33 1HH2 ARG B1545       2.447  48.457   1.048  1.00 19.37 LIG 0.17  HD
ATOM     34 2HH2 ARG B1545       3.674  48.506   1.889  1.00 19.37 LIG 0.17  HD
ATOM     35 1HH1 ARG B1545       4.839  45.505   1.065  1.00 20.25 LIG 0.17  HD
ATOM     36 2HH1 ARG B1545       5.132  46.705   1.897  1.00 20.25 LIG 0.17  HD
ENDBRANCH 27 28
ENDBRANCH 26 27
ENDBRANCH 25 26
ENDBRANCH 24 25
BRANCH 24 37
ATOM     37  C   ARG B1545       1.319  41.363  -2.777  1.00 20.11 LIG 0.22  C 
ATOM     38 O    ARG B1545       0.487  41.314  -3.713  1.00 20.61 LIG-0.29  OA
ENDBRANCH 24 37
ENDBRANCH 22 24
ENDBRANCH 19 20
BRANCH 19 39
ATOM     39  CB  LEU B1544      -1.895  45.060  -1.340  1.00 22.71 LIG 0.04  C 
BRANCH 39 40
ATOM     40  CG  LEU B1544      -1.820  45.913  -0.065  1.00 23.46 LIG-0.02  C 
ATOM     41  CD1 LEU B1544      -0.452  46.602  -0.019  1.00 24.99 LIG 0.01  C 
ATOM     42  CD2 LEU B1544      -2.938  46.947  -0.025  1.00 22.67 LIG 0.01  C 
ENDBRANCH 39 40
ENDBRANCH 19 39
ENDBRANCH 16 19
ENDBRANCH 5 15
ENDBRANCH 3 5
BRANCH 1 43
ATOM     43  CA  TRP B1542      -6.280  41.710   1.882  1.00 29.62 LIG 0.18  C 
BRANCH 43 44
ATOM     44  N   TRP B1542      -6.810  40.525   2.555  1.00 31.24 LIG-0.35  N 
ATOM     45  C   ALA B1541      -7.843  39.871   2.050  1.00 34.20 LIG 0.24  C 
ATOM     46 O    ALA B1541      -8.370  40.199   0.990  1.00 33.88 LIG-0.27  OA
ATOM     47 H    TRP B1542      -6.401  40.306   3.279  1.00 31.24 LIG 0.16  HD
BRANCH 45 48
ATOM     48  CA  ALA B1541      -8.355  38.661   2.845  1.00 35.59 LIG 0.17  C 
ATOM     49  CB  ALA B1541      -9.827  38.891   3.261  1.00 37.24 LIG 0.04  C 
BRANCH 48 50
ATOM     50  N   ALA B1541      -7.568  38.296   4.030  1.00 36.68 LIG-0.35  N 
ATOM     51  C   ALA B1540      -7.539  39.055   5.122  1.00 36.41 LIG 0.24  C 
ATOM     52 O    ALA B1540      -8.209  40.086   5.237  1.00 35.55 LIG-0.27  OA
ATOM     53 H    ALA B1541      -7.135  37.558   3.951  1.00 36.68 LIG 0.16  HD
BRANCH 51 54
ATOM     54  CA  ALA B1540      -6.646  38.556   6.265  1.00 37.40 LIG 0.17  C 
ATOM     55  CB  ALA B1540      -6.377  39.692   7.265  1.00 38.11 LIG 0.04  C 
BRANCH 54 56
ATOM     56  N   ALA B1540      -5.375  38.021   5.780  1.00 38.31 LIG-0.35  N 
ATOM     57 H    ALA B1540      -5.227  37.206   6.012  1.00 38.31 LIG 0.16  HD
ATOM     58  C   ILE B1539      -4.534  38.738   5.048  1.00 39.48 LIG 0.26  C 
ATOM     59 O    ILE B1539      -4.754  39.900   4.735  1.00 40.50 LIG-0.27  OA
BRANCH 58 60
ATOM     60  CA  ILE B1539      -3.236  38.045   4.629  1.00 40.24 LIG 0.40  C 
ATOM     61  N   ILE B1539      -2.557  38.757   3.499  1.00 42.50 LIG 0.61  N 
BRANCH 60 62
ATOM     62  CB  ILE B1539      -2.323  37.955   5.887  1.00 40.48 LIG 0.03  C 
ATOM     63  CG2 ILE B1539      -0.861  38.130   5.481  1.00 38.85 LIG 0.01  C 
BRANCH 62 64
ATOM     64  CG1 ILE B1539      -2.713  39.022   6.916  1.00 39.99 LIG 0.00  C 
ATOM     65  CD1 ILE B1539      -2.215  38.712   8.334  1.00 39.67 LIG 0.01  C 
ENDBRANCH 62 64
ENDBRANCH 60 62
ENDBRANCH 58 60
ENDBRANCH 54 56
ENDBRANCH 51 54
ENDBRANCH 48 50
ENDBRANCH 45 48
ENDBRANCH 43 44
BRANCH 43 66
ATOM     66  CB  TRP B1542      -6.894  42.968   2.512  1.00 29.93 LIG 0.07  C 
BRANCH 66 67
ATOM     67  CG  TRP B1542      -7.065  42.874   4.030  1.00 31.09 LIG-0.03  A 
ATOM     68  CD1 TRP B1542      -6.066  42.711   4.957  1.00 35.00 LIG 0.10  A 
ATOM     69  NE1 TRP B1542      -6.594  42.704   6.235  1.00 35.42 LIG-0.36  N 
ATOM     70 HE1  TRP B1542      -6.142  42.616   6.962  1.00 35.42 LIG 0.17  HD
ATOM     71  CE2 TRP B1542      -7.955  42.862   6.155  1.00 34.23 LIG 0.04  A 
ATOM     72  CD2 TRP B1542      -8.292  42.970   4.781  1.00 31.85 LIG-0.00  A 
ATOM     73  CZ2 TRP B1542      -8.918  42.920   7.176  1.00 32.49 LIG 0.03  A 
ATOM     74  CE3 TRP B1542      -9.640  43.137   4.429  1.00 30.05 LIG 0.01  A 
ATOM     75  CZ3 TRP B1542     -10.600  43.196   5.444  1.00 29.28 LIG 0.00  A 
ATOM     76  CH2 TRP B1542     -10.227  43.087   6.806  1.00 32.34 LIG 0.00  A 
ENDBRANCH 66 67
ENDBRANCH 43 66
ENDBRANCH 1 43
TORSDOF 26
ENDMDL
MODEL 67
USER: ADFR SOLUTION from run 88
USER: SCORE 21.021646 LL:  -6.252 LR: -17.096 RR:   0.000 FEB:  -9.341
USER: RMSD 4.877532
USER: SEED 87
USER: STATUS no improvement in best in 6 clusters for 5 generations
USER: GENES 28
USER: genes 0 Translation |==|  0.39945 0.44967 0.56198
USER: genes 1 Rotation |==|  0.29220 0.70517 0.66252 0.87190
USER: genes 2 Torsion [C]-N--CA-[CB] |==|  0.51691
USER: genes 3 Torsion [N]-CA--CB-[CG] |==|  0.15923
USER: genes 4 Torsion [CA]-CB--CG-[CD1] |==|  0.56601
USER: genes 5 Torsion [CE1]-CZ--OH-[HH] |==|  0.12049
USER: genes 6 Torsion [N]-CA--C-[N] |==|  0.95700
USER: genes 7 Torsion [C]-N--CA-[CB] |==|  0.56977
USER: genes 8 Torsion [N]-CA--C-[N] |==|  0.35039
USER: genes 9 Torsion [C]-N--CA-[CB] |==|  0.30648
USER: genes 10 Torsion [N]-CA--CB-[CG] |==|  0.68909
USER: genes 11 Torsion [CA]-CB--CG-[CD] |==|  0.43769
USER: genes 12 Torsion [CB]-CG--CD-[NE] |==|  0.05806
USER: genes 13 Torsion [CG]-CD--NE-[HE] |==|  0.98724
USER: genes 14 Torsion [N]-CA--C-[O] |==|  0.32665
USER: genes 15 Torsion [N]-CA--CB-[CG] |==|  0.87809
USER: genes 16 Torsion [CA]-CB--CG-[CD1] |==|  0.51717
USER: genes 17 Torsion [N]-C--CA-[N] |==|  0.28584
USER: genes 18 Torsion [C]-CA--N-[C] |==|  0.65632
USER: genes 19 Torsion [N]-C--CA-[N] |==|  0.33120
USER: genes 20 Torsion [C]-CA--N-[C] |==|  0.75893
USER: genes 21 Torsion [N]-C--CA-[N] |==|  0.85556
USER: genes 22 Torsion [C]-CA--N-[C] |==|  0.81945
USER: genes 23 Torsion [N]-C--CA-[N] |==|  0.43720
USER: genes 24 Torsion [C]-CA--CB-[CG1] |==|  0.89997
USER: genes 25 Torsion [CA]-CB--CG1-[CD1] |==|  0.78479
USER: genes 26 Torsion [C]-CA--CB-[CG] |==|  0.34359
USER: genes 27 Torsion [CA]-CB--CG-[CD1] |==|  0.34411
ROOT
ATOM      1  C   TRP B1542      -4.796  42.980   3.632  1.00 26.55 LIG 0.24  C 
ATOM      2 O    TRP B1542      -4.743  42.890   2.414  1.00 27.86 LIG-0.27  OA
ATOM      3  N   TYR B1543      -3.782  43.432   4.360  1.00 24.62 LIG-0.35  N 
ATOM      4 H    TYR B1543      -3.766  43.433   5.220  1.00 24.62 LIG 0.16  HD
ENDROOT
BRANCH 3 5
ATOM      5  CA  TYR B1543      -2.590  43.973   3.731  1.00 22.31 LIG 0.18  C 
BRANCH 5 6
ATOM      6  CB  TYR B1543      -1.552  44.264   4.818  1.00 23.67 LIG 0.07  C 
BRANCH 6 7
ATOM      7  CG  TYR B1543      -1.158  43.080   5.679  1.00 24.58 LIG-0.06  A 
ATOM      8  CD1 TYR B1543      -0.639  43.271   6.959  1.00 24.59 LIG 0.01  A 
ATOM      9  CE1 TYR B1543      -0.208  42.198   7.725  1.00 26.50 LIG 0.04  A 
ATOM     10  CZ  TYR B1543      -0.293  40.922   7.202  1.00 24.60 LIG 0.07  A 
ATOM     11  CE2 TYR B1543      -0.816  40.713   5.928  1.00 24.06 LIG 0.04  A 
ATOM     12  CD2 TYR B1543      -1.243  41.782   5.188  1.00 22.62 LIG 0.01  A 
BRANCH 10 13
ATOM     13 OH   TYR B1543       0.174  39.865   7.929  1.00 26.51 LIG-0.36  OA
ATOM     14 HH   TYR B1543      -0.069  39.947   8.729  1.00 26.51 LIG 0.22  HD
ENDBRANCH 10 13
ENDBRANCH 6 7
ENDBRANCH 5 6
BRANCH 5 15
ATOM     15  C   TYR B1543      -1.931  43.204   2.597  1.00 22.90 LIG 0.24  C 
ATOM     16  N   LEU B1544      -2.284  41.935   2.445  1.00 22.60 LIG-0.35  N 
ATOM     17 H    LEU B1544      -2.878  41.533   2.918  1.00 22.60 LIG 0.16  HD
ATOM     18 O    TYR B1543      -1.103  43.749   1.877  1.00 21.43 LIG-0.27  OA
BRANCH 16 19
ATOM     19  CA  LEU B1544      -1.655  41.118   1.419  1.00 22.81 LIG 0.18  C 
BRANCH 19 20
ATOM     20  C   LEU B1544      -1.258  41.941   0.198  1.00 21.53 LIG 0.24  C 
ATOM     21 O    LEU B1544      -2.083  42.648  -0.392  1.00 22.00 LIG-0.27  OA
ATOM     22  N   ARG B1545       0.011  41.847  -0.186  1.00 20.14 LIG-0.35  N 
ATOM     23 H    ARG B1545       0.609  41.365   0.201  1.00 20.14 LIG 0.16  HD
BRANCH 22 24
ATOM     24  CA  ARG B1545       0.469  42.600  -1.341  1.00 18.95 LIG 0.16  C 
BRANCH 24 25
ATOM     25  CB  ARG B1545       1.415  43.724  -0.898  1.00 20.51 LIG 0.04  C 
BRANCH 25 26
ATOM     26  CG  ARG B1545       0.760  45.086  -1.131  1.00 20.78 LIG 0.02  C 
BRANCH 26 27
ATOM     27  CD  ARG B1545       1.346  46.194  -0.259  1.00 21.13 LIG 0.14  C 
BRANCH 27 28
ATOM     28  NE  ARG B1545       2.684  45.825   0.216  1.00 20.56 LIG-0.23  N 
ATOM     29 HE   ARG B1545       2.978  45.039   0.026  1.00 20.56 LIG 0.18  HD
ATOM     30  CZ  ARG B1545       3.468  46.633   0.920  1.00 23.27 LIG 0.67  C 
ATOM     31  NH2 ARG B1545       4.667  46.212   1.345  1.00 19.37 LIG-0.23  N 
ATOM     32  NH1 ARG B1545       3.043  47.854   1.221  1.00 20.25 LIG-0.23  N 
ATOM     33 1HH2 ARG B1545       4.932  45.416   1.162  1.00 19.37 LIG 0.17  HD
ATOM     34 2HH2 ARG B1545       5.171  46.739   1.800  1.00 19.37 LIG 0.17  HD
ATOM     35 1HH1 ARG B1545       2.266  48.115   0.961  1.00 20.25 LIG 0.17  HD
ATOM     36 2HH1 ARG B1545       3.544  48.384   1.677  1.00 20.25 LIG 0.17  HD
ENDBRANCH 27 28
ENDBRANCH 26 27
ENDBRANCH 25 26
ENDBRANCH 24 25
BRANCH 24 37
ATOM     37  C   ARG B1545       1.103  41.711  -2.403  1.00 20.11 LIG 0.22  C 
ATOM     38 O    ARG B1545       0.539  41.678  -3.523  1.00 20.61 LIG-0.29  OA
ENDBRANCH 24 37
ENDBRANCH 22 24
ENDBRANCH 19 20
BRANCH 19 39
ATOM     39  CB  LEU B1544      -2.599  39.977   1.019  1.00 22.71 LIG 0.04  C 
BRANCH 39 40
ATOM     40  CG  LEU B1544      -3.288  39.270   2.196  1.00 23.46 LIG-0.02  C 
ATOM     41  CD1 LEU B1544      -4.067  38.067   1.654  1.00 24.99 LIG 0.01  C 
ATOM     42  CD2 LEU B1544      -2.274  38.821   3.241  1.00 22.67 LIG 0.01  C 
ENDBRANCH 39 40
ENDBRANCH 19 39
ENDBRANCH 16 19
ENDBRANCH 5 15
ENDBRANCH 3 5
BRANCH 1 43
ATOM     43  CA  TRP B1542      -6.045  42.537   4.384  1.00 29.62 LIG 0.18  C 
BRANCH 43 44
ATOM     44  N   TRP B1542      -7.128  43.517   4.322  1.00 31.24 LIG-0.35  N 
ATOM     45  C   ALA B1541      -7.662  44.000   5.432  1.00 34.20 LIG 0.24  C 
ATOM     46 O    ALA B1541      -7.254  43.682   6.547  1.00 33.88 LIG-0.27  OA
ATOM     47 H    TRP B1542      -7.371  43.739   3.528  1.00 31.24 LIG 0.16  HD
BRANCH 45 48
ATOM     48  CA  ALA B1541      -8.820  44.996   5.270  1.00 35.59 LIG 0.17  C 
ATOM     49  CB  ALA B1541      -8.411  46.374   5.840  1.00 37.24 LIG 0.04  C 
BRANCH 48 50
ATOM     50  N   ALA B1541     -10.101  44.586   5.862  1.00 36.68 LIG-0.35  N 
ATOM     51  C   ALA B1540     -10.982  43.842   5.200  1.00 36.41 LIG 0.24  C 
ATOM     52 O    ALA B1540     -10.765  43.401   4.067  1.00 35.55 LIG-0.27  OA
ATOM     53 H    ALA B1541     -10.224  44.870   6.665  1.00 36.68 LIG 0.16  HD
BRANCH 51 54
ATOM     54  CA  ALA B1540     -12.286  43.523   5.941  1.00 37.40 LIG 0.17  C 
ATOM     55  CB  ALA B1540     -13.149  44.788   6.068  1.00 38.11 LIG 0.04  C 
BRANCH 54 56
ATOM     56  N   ALA B1540     -12.044  42.960   7.268  1.00 38.31 LIG-0.35  N 
ATOM     57 H    ALA B1540     -12.316  43.459   7.915  1.00 38.31 LIG 0.16  HD
ATOM     58  C   ILE B1539     -11.457  41.785   7.447  1.00 39.48 LIG 0.26  C 
ATOM     59 O    ILE B1539     -11.066  41.093   6.517  1.00 40.50 LIG-0.27  OA
BRANCH 58 60
ATOM     60  CA  ILE B1539     -11.258  41.338   8.897  1.00 40.24 LIG 0.40  C 
ATOM     61  N   ILE B1539     -11.110  39.851   9.013  1.00 42.50 LIG 0.61  N 
BRANCH 60 62
ATOM     62  CB  ILE B1539     -10.011  42.088   9.454  1.00 40.48 LIG 0.03  C 
ATOM     63  CG2 ILE B1539      -9.431  41.320  10.640  1.00 38.85 LIG 0.01  C 
BRANCH 62 64
ATOM     64  CG1 ILE B1539      -8.946  42.250   8.363  1.00 39.99 LIG 0.00  C 
ATOM     65  CD1 ILE B1539      -8.145  40.969   8.097  1.00 39.67 LIG 0.01  C 
ENDBRANCH 62 64
ENDBRANCH 60 62
ENDBRANCH 58 60
ENDBRANCH 54 56
ENDBRANCH 51 54
ENDBRANCH 48 50
ENDBRANCH 45 48
ENDBRANCH 43 44
BRANCH 43 66
ATOM     66  CB  TRP B1542      -6.529  41.209   3.783  1.00 29.93 LIG 0.07  C 
BRANCH 66 67
ATOM     67  CG  TRP B1542      -6.647  40.079   4.808  1.00 31.09 LIG-0.03  A 
ATOM     68  CD1 TRP B1542      -7.768  39.334   5.078  1.00 35.00 LIG 0.10  A 
ATOM     69  NE1 TRP B1542      -7.491  38.380   6.039  1.00 35.42 LIG-0.36  N 
ATOM     70 HE1  TRP B1542      -8.051  37.808   6.352  1.00 35.42 LIG 0.17  HD
ATOM     71  CE2 TRP B1542      -6.175  38.493   6.411  1.00 34.23 LIG 0.04  A 
ATOM     72  CD2 TRP B1542      -5.608  39.555   5.660  1.00 31.85 LIG-0.00  A 
ATOM     73  CZ2 TRP B1542      -5.433  37.750   7.345  1.00 32.49 LIG 0.03  A 
ATOM     74  CE3 TRP B1542      -4.258  39.877   5.860  1.00 30.05 LIG 0.01  A 
ATOM     75  CZ3 TRP B1542      -3.519  39.138   6.789  1.00 29.28 LIG 0.00  A 
ATOM     76  CH2 TRP B1542      -4.115  38.082   7.519  1.00 32.34 LIG 0.00  A 
ENDBRANCH 66 67
ENDBRANCH 43 66
ENDBRANCH 1 43
TORSDOF 26
ENDMDL
MODEL 68
USER: ADFR SOLUTION from run 7
USER: SCORE 21.582736 LL:  -6.780 LR: -17.103 RR:   0.000 FEB:  -9.347
USER: RMSD 7.772086
USER: SEED 287945
USER: STATUS no improvement in best in 7 clusters for 5 generations
USER: GENES 28
USER: genes 0 Translation |==|  0.48159 0.42418 0.48750
USER: genes 1 Rotation |==|  0.24962 0.35420 0.72981 0.83651
USER: genes 2 Torsion [C]-N--CA-[CB] |==|  0.80308
USER: genes 3 Torsion [N]-CA--CB-[CG] |==|  0.83871
USER: genes 4 Torsion [CA]-CB--CG-[CD1] |==|  0.65346
USER: genes 5 Torsion [CE1]-CZ--OH-[HH] |==|  0.98523
USER: genes 6 Torsion [N]-CA--C-[N] |==|  0.55510
USER: genes 7 Torsion [C]-N--CA-[CB] |==|  0.49636
USER: genes 8 Torsion [N]-CA--C-[N] |==|  0.90367
USER: genes 9 Torsion [C]-N--CA-[CB] |==|  0.36948
USER: genes 10 Torsion [N]-CA--CB-[CG] |==|  0.22833
USER: genes 11 Torsion [CA]-CB--CG-[CD] |==|  0.40328
USER: genes 12 Torsion [CB]-CG--CD-[NE] |==|  0.38694
USER: genes 13 Torsion [CG]-CD--NE-[HE] |==|  0.27001
USER: genes 14 Torsion [N]-CA--C-[O] |==|  0.04659
USER: genes 15 Torsion [N]-CA--CB-[CG] |==|  0.88709
USER: genes 16 Torsion [CA]-CB--CG-[CD1] |==|  0.48438
USER: genes 17 Torsion [N]-C--CA-[N] |==|  0.38166
USER: genes 18 Torsion [C]-CA--N-[C] |==|  0.65054
USER: genes 19 Torsion [N]-C--CA-[N] |==|  0.96809
USER: genes 20 Torsion [C]-CA--N-[C] |==|  0.78801
USER: genes 21 Torsion [N]-C--CA-[N] |==|  0.93197
USER: genes 22 Torsion [C]-CA--N-[C] |==|  0.81210
USER: genes 23 Torsion [N]-C--CA-[N] |==|  0.43385
USER: genes 24 Torsion [C]-CA--CB-[CG1] |==|  0.25107
USER: genes 25 Torsion [CA]-CB--CG1-[CD1] |==|  0.50497
USER: genes 26 Torsion [C]-CA--CB-[CG] |==|  0.25978
USER: genes 27 Torsion [CA]-CB--CG-[CD1] |==|  0.51196
ROOT
ATOM      1  C   TRP B1542      -2.886  42.483   2.236  1.00 26.55 LIG 0.24  C 
ATOM      2 O    TRP B1542      -2.174  43.315   1.690  1.00 27.86 LIG-0.27  OA
ATOM      3  N   TYR B1543      -3.475  42.704   3.404  1.00 24.62 LIG-0.35  N 
ATOM      4 H    TYR B1543      -3.917  42.111   3.844  1.00 24.62 LIG 0.16  HD
ENDROOT
BRANCH 3 5
ATOM      5  CA  TYR B1543      -3.412  44.007   4.042  1.00 22.31 LIG 0.18  C 
BRANCH 5 6
ATOM      6  CB  TYR B1543      -1.984  44.239   4.543  1.00 23.67 LIG 0.07  C 
BRANCH 6 7
ATOM      7  CG  TYR B1543      -1.459  43.204   5.520  1.00 24.58 LIG-0.06  A 
ATOM      8  CD1 TYR B1543      -0.970  43.587   6.768  1.00 24.59 LIG 0.01  A 
ATOM      9  CE1 TYR B1543      -0.420  42.657   7.638  1.00 26.50 LIG 0.04  A 
ATOM     10  CZ  TYR B1543      -0.356  41.332   7.252  1.00 24.60 LIG 0.07  A 
ATOM     11  CE2 TYR B1543      -0.847  40.932   6.012  1.00 24.06 LIG 0.04  A 
ATOM     12  CD2 TYR B1543      -1.393  41.861   5.168  1.00 22.62 LIG 0.01  A 
BRANCH 10 13
ATOM     13 OH   TYR B1543       0.227  40.418   8.081  1.00 26.51 LIG-0.36  OA
ATOM     14 HH   TYR B1543       0.560  40.813   8.744  1.00 26.51 LIG 0.22  HD
ENDBRANCH 10 13
ENDBRANCH 6 7
ENDBRANCH 5 6
BRANCH 5 15
ATOM     15  C   TYR B1543      -3.882  45.235   3.278  1.00 22.90 LIG 0.24  C 
ATOM     16  N   LEU B1544      -3.449  46.412   3.706  1.00 22.60 LIG-0.35  N 
ATOM     17 H    LEU B1544      -2.900  46.524   4.358  1.00 22.60 LIG 0.16  HD
ATOM     18 O    TYR B1543      -4.638  45.118   2.320  1.00 21.43 LIG-0.27  OA
BRANCH 16 19
ATOM     19  CA  LEU B1544      -3.901  47.636   3.063  1.00 22.81 LIG 0.18  C 
BRANCH 19 20
ATOM     20  C   LEU B1544      -3.574  47.653   1.573  1.00 21.53 LIG 0.24  C 
ATOM     21 O    LEU B1544      -4.336  48.185   0.758  1.00 22.00 LIG-0.27  OA
ATOM     22  N   ARG B1545      -2.437  47.065   1.214  1.00 20.14 LIG-0.35  N 
ATOM     23 H    ARG B1545      -1.886  46.685   1.755  1.00 20.14 LIG 0.16  HD
BRANCH 22 24
ATOM     24  CA  ARG B1545      -2.054  47.038  -0.187  1.00 18.95 LIG 0.16  C 
BRANCH 24 25
ATOM     25  CB  ARG B1545      -0.584  47.453  -0.340  1.00 20.51 LIG 0.04  C 
BRANCH 25 26
ATOM     26  CG  ARG B1545       0.331  46.259  -0.065  1.00 20.78 LIG 0.02  C 
BRANCH 26 27
ATOM     27  CD  ARG B1545       1.588  46.252  -0.931  1.00 21.13 LIG 0.14  C 
BRANCH 27 28
ATOM     28  NE  ARG B1545       2.756  45.843  -0.144  1.00 20.56 LIG-0.23  N 
ATOM     29 HE   ARG B1545       3.004  45.020  -0.185  1.00 20.56 LIG 0.18  HD
ATOM     30  CZ  ARG B1545       3.453  46.669   0.630  1.00 23.27 LIG 0.67  C 
ATOM     31  NH2 ARG B1545       4.491  46.212   1.344  1.00 19.37 LIG-0.23  N 
ATOM     32  NH1 ARG B1545       3.097  47.944   0.708  1.00 20.25 LIG-0.23  N 
ATOM     33 1HH2 ARG B1545       4.709  45.382   1.303  1.00 19.37 LIG 0.17  HD
ATOM     34 2HH2 ARG B1545       4.939  46.750   1.842  1.00 19.37 LIG 0.17  HD
ATOM     35 1HH1 ARG B1545       2.420  48.230   0.261  1.00 20.25 LIG 0.17  HD
ATOM     36 2HH1 ARG B1545       3.542  48.485   1.206  1.00 20.25 LIG 0.17  HD
ENDBRANCH 27 28
ENDBRANCH 26 27
ENDBRANCH 25 26
ENDBRANCH 24 25
BRANCH 24 37
ATOM     37  C   ARG B1545      -2.335  45.693  -0.843  1.00 20.11 LIG 0.22  C 
ATOM     38 O    ARG B1545      -3.123  44.925  -0.241  1.00 20.61 LIG-0.29  OA
ENDBRANCH 24 37
ENDBRANCH 22 24
ENDBRANCH 19 20
BRANCH 19 39
ATOM     39  CB  LEU B1544      -3.279  48.849   3.767  1.00 22.71 LIG 0.04  C 
BRANCH 39 40
ATOM     40  CG  LEU B1544      -3.225  48.745   5.299  1.00 23.46 LIG-0.02  C 
ATOM     41  CD1 LEU B1544      -2.458  49.953   5.843  1.00 24.99 LIG 0.01  C 
ATOM     42  CD2 LEU B1544      -4.625  48.688   5.897  1.00 22.67 LIG 0.01  C 
ENDBRANCH 39 40
ENDBRANCH 19 39
ENDBRANCH 16 19
ENDBRANCH 5 15
ENDBRANCH 3 5
BRANCH 1 43
ATOM     43  CA  TRP B1542      -3.104  41.117   1.597  1.00 29.62 LIG 0.18  C 
BRANCH 43 44
ATOM     44  N   TRP B1542      -3.356  41.192   0.159  1.00 31.24 LIG-0.35  N 
ATOM     45  C   ALA B1541      -4.433  40.632  -0.366  1.00 34.20 LIG 0.24  C 
ATOM     46 O    ALA B1541      -5.278  40.065   0.325  1.00 33.88 LIG-0.27  OA
ATOM     47 H    TRP B1542      -2.760  41.618  -0.292  1.00 31.24 LIG 0.16  HD
BRANCH 45 48
ATOM     48  CA  ALA B1541      -4.595  40.728  -1.890  1.00 35.59 LIG 0.17  C 
ATOM     49  CB  ALA B1541      -4.466  39.322  -2.522  1.00 37.24 LIG 0.04  C 
BRANCH 48 50
ATOM     50  N   ALA B1541      -3.679  41.652  -2.572  1.00 36.68 LIG-0.35  N 
ATOM     51  C   ALA B1540      -3.849  42.971  -2.538  1.00 36.41 LIG 0.24  C 
ATOM     52 O    ALA B1540      -4.753  43.512  -1.894  1.00 35.55 LIG-0.27  OA
ATOM     53 H    ALA B1541      -3.033  41.265  -2.987  1.00 36.68 LIG 0.16  HD
BRANCH 51 54
ATOM     54  CA  ALA B1540      -2.827  43.802  -3.324  1.00 37.40 LIG 0.17  C 
ATOM     55  CB  ALA B1540      -3.394  44.179  -4.702  1.00 38.11 LIG 0.04  C 
BRANCH 54 56
ATOM     56  N   ALA B1540      -1.557  43.098  -3.495  1.00 38.31 LIG-0.35  N 
ATOM     57 H    ALA B1540      -1.387  42.875  -4.308  1.00 38.31 LIG 0.16  HD
ATOM     58  C   ILE B1539      -0.748  42.834  -2.478  1.00 39.48 LIG 0.26  C 
ATOM     59 O    ILE B1539      -1.009  43.150  -1.326  1.00 40.50 LIG-0.27  OA
BRANCH 58 60
ATOM     60  CA  ILE B1539       0.538  42.076  -2.812  1.00 40.24 LIG 0.40  C 
ATOM     61  N   ILE B1539       1.613  42.313  -1.795  1.00 42.50 LIG 0.61  N 
BRANCH 60 62
ATOM     62  CB  ILE B1539       0.177  40.565  -2.929  1.00 40.48 LIG 0.03  C 
ATOM     63  CG2 ILE B1539      -0.979  40.233  -1.988  1.00 38.85 LIG 0.01  C 
BRANCH 62 64
ATOM     64  CG1 ILE B1539      -0.201  40.209  -4.372  1.00 39.99 LIG 0.00  C 
ATOM     65  CD1 ILE B1539      -0.611  38.742  -4.550  1.00 39.67 LIG 0.01  C 
ENDBRANCH 62 64
ENDBRANCH 60 62
ENDBRANCH 58 60
ENDBRANCH 54 56
ENDBRANCH 51 54
ENDBRANCH 48 50
ENDBRANCH 45 48
ENDBRANCH 43 44
BRANCH 43 66
ATOM     66  CB  TRP B1542      -1.857  40.258   1.849  1.00 29.93 LIG 0.07  C 
BRANCH 66 67
ATOM     67  CG  TRP B1542      -1.957  39.381   3.099  1.00 31.09 LIG-0.03  A 
ATOM     68  CD1 TRP B1542      -0.971  38.578   3.616  1.00 35.00 LIG 0.10  A 
ATOM     69  NE1 TRP B1542      -1.411  37.962   4.773  1.00 35.42 LIG-0.36  N 
ATOM     70 HE1  TRP B1542      -0.952  37.420   5.257  1.00 35.42 LIG 0.17  HD
ATOM     71  CE2 TRP B1542      -2.701  38.359   5.025  1.00 34.23 LIG 0.04  A 
ATOM     72  CD2 TRP B1542      -3.083  39.252   3.991  1.00 31.85 LIG-0.00  A 
ATOM     73  CZ2 TRP B1542      -3.564  38.009   6.077  1.00 32.49 LIG 0.03  A 
ATOM     74  CE3 TRP B1542      -4.372  39.802   4.018  1.00 30.05 LIG 0.01  A 
ATOM     75  CZ3 TRP B1542      -5.233  39.455   5.064  1.00 29.28 LIG 0.00  A 
ATOM     76  CH2 TRP B1542      -4.818  38.563   6.082  1.00 32.34 LIG 0.00  A 
ENDBRANCH 66 67
ENDBRANCH 43 66
ENDBRANCH 1 43
TORSDOF 26
ENDMDL
MODEL 69
USER: ADFR SOLUTION from run 15
USER: SCORE 21.108660 LL:  -6.269 LR: -17.102 RR:   0.000 FEB:  -9.347
USER: RMSD 6.888762
USER: SEED 554404
USER: STATUS no improvement in best in 8 clusters for 5 generations
USER: GENES 28
USER: genes 0 Translation |==|  0.51703 0.47484 0.44998
USER: genes 1 Rotation |==|  0.95865 0.66578 0.42109 0.57699
USER: genes 2 Torsion [C]-N--CA-[CB] |==|  0.83711
USER: genes 3 Torsion [N]-CA--CB-[CG] |==|  0.82294
USER: genes 4 Torsion [CA]-CB--CG-[CD1] |==|  0.29219
USER: genes 5 Torsion [CE1]-CZ--OH-[HH] |==|  0.61327
USER: genes 6 Torsion [N]-CA--C-[N] |==|  0.86947
USER: genes 7 Torsion [C]-N--CA-[CB] |==|  0.50000
USER: genes 8 Torsion [N]-CA--C-[N] |==|  0.78150
USER: genes 9 Torsion [C]-N--CA-[CB] |==|  0.82715
USER: genes 10 Torsion [N]-CA--CB-[CG] |==|  0.78169
USER: genes 11 Torsion [CA]-CB--CG-[CD] |==|  0.57165
USER: genes 12 Torsion [CB]-CG--CD-[NE] |==|  0.37156
USER: genes 13 Torsion [CG]-CD--NE-[HE] |==|  0.28438
USER: genes 14 Torsion [N]-CA--C-[O] |==|  0.02162
USER: genes 15 Torsion [N]-CA--CB-[CG] |==|  0.75459
USER: genes 16 Torsion [CA]-CB--CG-[CD1] |==|  0.08447
USER: genes 17 Torsion [N]-C--CA-[N] |==|  0.89642
USER: genes 18 Torsion [C]-CA--N-[C] |==|  0.76821
USER: genes 19 Torsion [N]-C--CA-[N] |==|  0.23472
USER: genes 20 Torsion [C]-CA--N-[C] |==|  0.55031
USER: genes 21 Torsion [N]-C--CA-[N] |==|  0.94151
USER: genes 22 Torsion [C]-CA--N-[C] |==|  0.72234
USER: genes 23 Torsion [N]-C--CA-[N] |==|  0.41184
USER: genes 24 Torsion [C]-CA--CB-[CG1] |==|  0.00579
USER: genes 25 Torsion [CA]-CB--CG1-[CD1] |==|  0.71285
USER: genes 26 Torsion [C]-CA--CB-[CG] |==|  0.38020
USER: genes 27 Torsion [CA]-CB--CG-[CD1] |==|  0.49072
ROOT
ATOM      1  C   TRP B1542      -2.062  43.471   1.532  1.00 26.55 LIG 0.24  C 
ATOM      2 O    TRP B1542      -0.959  43.999   1.574  1.00 27.86 LIG-0.27  OA
ATOM      3  N   TYR B1543      -2.917  43.681   0.539  1.00 24.62 LIG-0.35  N 
ATOM      4 H    TYR B1543      -3.724  43.384   0.524  1.00 24.62 LIG 0.16  HD
ENDROOT
BRANCH 3 5
ATOM      5  CA  TYR B1543      -2.534  44.453  -0.629  1.00 22.31 LIG 0.18  C 
BRANCH 5 6
ATOM      6  CB  TYR B1543      -2.109  45.852  -0.175  1.00 23.67 LIG 0.07  C 
BRANCH 6 7
ATOM      7  CG  TYR B1543      -3.196  46.686   0.473  1.00 24.58 LIG-0.06  A 
ATOM      8  CD1 TYR B1543      -3.212  46.889   1.852  1.00 24.59 LIG 0.01  A 
ATOM      9  CE1 TYR B1543      -4.242  47.589   2.462  1.00 26.50 LIG 0.04  A 
ATOM     10  CZ  TYR B1543      -5.270  48.086   1.683  1.00 24.60 LIG 0.07  A 
ATOM     11  CE2 TYR B1543      -5.265  47.899   0.303  1.00 24.06 LIG 0.04  A 
ATOM     12  CD2 TYR B1543      -4.237  47.212  -0.283  1.00 22.62 LIG 0.01  A 
BRANCH 10 13
ATOM     13 OH   TYR B1543      -6.313  48.734   2.280  1.00 26.51 LIG-0.36  OA
ATOM     14 HH   TYR B1543      -7.032  48.504   1.912  1.00 26.51 LIG 0.22  HD
ENDBRANCH 10 13
ENDBRANCH 6 7
ENDBRANCH 5 6
BRANCH 5 15
ATOM     15  C   TYR B1543      -1.491  43.894  -1.584  1.00 22.90 LIG 0.24  C 
ATOM     16  N   LEU B1544      -0.386  43.398  -1.044  1.00 22.60 LIG-0.35  N 
ATOM     17 H    LEU B1544      -0.237  43.343  -0.200  1.00 22.60 LIG 0.16  HD
ATOM     18 O    TYR B1543      -1.679  43.923  -2.794  1.00 21.43 LIG-0.27  OA
BRANCH 16 19
ATOM     19  CA  LEU B1544       0.683  42.898  -1.894  1.00 22.81 LIG 0.18  C 
BRANCH 19 20
ATOM     20  C   LEU B1544       0.196  41.805  -2.841  1.00 21.53 LIG 0.24  C 
ATOM     21 O    LEU B1544      -0.049  42.051  -4.027  1.00 22.00 LIG-0.27  OA
ATOM     22  N   ARG B1545       0.051  40.594  -2.314  1.00 20.14 LIG-0.35  N 
ATOM     23 H    ARG B1545       0.210  40.390  -1.494  1.00 20.14 LIG 0.16  HD
BRANCH 22 24
ATOM     24  CA  ARG B1545      -0.410  39.498  -3.151  1.00 18.95 LIG 0.16  C 
BRANCH 24 25
ATOM     25  CB  ARG B1545      -1.821  39.793  -3.677  1.00 20.51 LIG 0.04  C 
BRANCH 25 26
ATOM     26  CG  ARG B1545      -2.858  39.512  -2.589  1.00 20.78 LIG 0.02  C 
BRANCH 26 27
ATOM     27  CD  ARG B1545      -4.237  39.169  -3.145  1.00 21.13 LIG 0.14  C 
BRANCH 27 28
ATOM     28  NE  ARG B1545      -4.791  37.994  -2.465  1.00 20.56 LIG-0.23  N 
ATOM     29 HE   ARG B1545      -5.392  38.121  -1.863  1.00 20.56 LIG 0.18  HD
ATOM     30  CZ  ARG B1545      -4.420  36.745  -2.724  1.00 23.27 LIG 0.67  C 
ATOM     31  NH2 ARG B1545      -4.951  35.724  -2.037  1.00 19.37 LIG-0.23  N 
ATOM     32  NH1 ARG B1545      -3.499  36.518  -3.653  1.00 20.25 LIG-0.23  N 
ATOM     33 1HH2 ARG B1545      -5.536  35.876  -1.426  1.00 19.37 LIG 0.17  HD
ATOM     34 2HH2 ARG B1545      -4.708  34.918  -2.209  1.00 19.37 LIG 0.17  HD
ATOM     35 1HH1 ARG B1545      -3.148  37.177  -4.080  1.00 20.25 LIG 0.17  HD
ATOM     36 2HH1 ARG B1545      -3.253  35.713  -3.827  1.00 20.25 LIG 0.17  HD
ENDBRANCH 27 28
ENDBRANCH 26 27
ENDBRANCH 25 26
ENDBRANCH 24 25
BRANCH 24 37
ATOM     37  C   ARG B1545       0.561  39.178  -4.280  1.00 20.11 LIG 0.22  C 
ATOM     38 O    ARG B1545       1.667  39.770  -4.259  1.00 20.61 LIG-0.29  OA
ENDBRANCH 24 37
ENDBRANCH 22 24
ENDBRANCH 19 20
BRANCH 19 39
ATOM     39  CB  LEU B1544       1.836  42.385  -1.024  1.00 22.71 LIG 0.04  C 
BRANCH 39 40
ATOM     40  CG  LEU B1544       2.878  43.449  -0.645  1.00 23.46 LIG-0.02  C 
ATOM     41  CD1 LEU B1544       2.178  44.808  -0.560  1.00 24.99 LIG 0.01  C 
ATOM     42  CD2 LEU B1544       3.554  43.113   0.679  1.00 22.67 LIG 0.01  C 
ENDBRANCH 39 40
ENDBRANCH 19 39
ENDBRANCH 16 19
ENDBRANCH 5 15
ENDBRANCH 3 5
BRANCH 1 43
ATOM     43  CA  TRP B1542      -2.522  42.557   2.661  1.00 29.62 LIG 0.18  C 
BRANCH 43 44
ATOM     44  N   TRP B1542      -3.937  42.719   2.987  1.00 31.24 LIG-0.35  N 
ATOM     45  C   ALA B1541      -4.334  43.684   3.801  1.00 34.20 LIG 0.24  C 
ATOM     46 O    ALA B1541      -3.549  44.499   4.280  1.00 33.88 LIG-0.27  OA
ATOM     47 H    TRP B1542      -4.463  42.150   2.614  1.00 31.24 LIG 0.16  HD
BRANCH 45 48
ATOM     48  CA  ALA B1541      -5.836  43.754   4.116  1.00 35.59 LIG 0.17  C 
ATOM     49  CB  ALA B1541      -6.241  45.215   4.421  1.00 37.24 LIG 0.04  C 
BRANCH 48 50
ATOM     50  N   ALA B1541      -6.300  42.885   5.207  1.00 36.68 LIG-0.35  N 
ATOM     51  C   ALA B1540      -7.582  42.569   5.364  1.00 36.41 LIG 0.24  C 
ATOM     52 O    ALA B1540      -8.462  42.939   4.579  1.00 35.55 LIG-0.27  OA
ATOM     53 H    ALA B1541      -5.673  42.605   5.724  1.00 36.68 LIG 0.16  HD
BRANCH 51 54
ATOM     54  CA  ALA B1540      -7.913  41.678   6.567  1.00 37.40 LIG 0.17  C 
ATOM     55  CB  ALA B1540      -8.488  42.524   7.714  1.00 38.11 LIG 0.04  C 
BRANCH 54 56
ATOM     56  N   ALA B1540      -6.747  40.936   7.043  1.00 38.31 LIG-0.35  N 
ATOM     57 H    ALA B1540      -6.217  41.398   7.539  1.00 38.31 LIG 0.16  HD
ATOM     58  C   ILE B1539      -6.535  39.666   6.731  1.00 39.48 LIG 0.26  C 
ATOM     59 O    ILE B1539      -7.293  39.025   6.016  1.00 40.50 LIG-0.27  OA
BRANCH 58 60
ATOM     60  CA  ILE B1539      -5.261  39.031   7.292  1.00 40.24 LIG 0.40  C 
ATOM     61  N   ILE B1539      -5.435  37.569   7.571  1.00 42.50 LIG 0.61  N 
BRANCH 60 62
ATOM     62  CB  ILE B1539      -4.115  39.292   6.269  1.00 40.48 LIG 0.03  C 
ATOM     63  CG2 ILE B1539      -3.556  37.962   5.767  1.00 38.85 LIG 0.01  C 
BRANCH 62 64
ATOM     64  CG1 ILE B1539      -4.624  40.126   5.089  1.00 39.99 LIG 0.00  C 
ATOM     65  CD1 ILE B1539      -4.864  39.301   3.818  1.00 39.67 LIG 0.01  C 
ENDBRANCH 62 64
ENDBRANCH 60 62
ENDBRANCH 58 60
ENDBRANCH 54 56
ENDBRANCH 51 54
ENDBRANCH 48 50
ENDBRANCH 45 48
ENDBRANCH 43 44
BRANCH 43 66
ATOM     66  CB  TRP B1542      -2.261  41.102   2.246  1.00 29.93 LIG 0.07  C 
BRANCH 66 67
ATOM     67  CG  TRP B1542      -1.667  40.241   3.363  1.00 31.09 LIG-0.03  A 
ATOM     68  CD1 TRP B1542      -1.391  38.898   3.302  1.00 35.00 LIG 0.10  A 
ATOM     69  NE1 TRP B1542      -0.829  38.469   4.490  1.00 35.42 LIG-0.36  N 
ATOM     70 HE1  TRP B1542      -0.580  37.664   4.664  1.00 35.42 LIG 0.17  HD
ATOM     71  CE2 TRP B1542      -0.732  39.536   5.348  1.00 34.23 LIG 0.04  A 
ATOM     72  CD2 TRP B1542      -1.252  40.672   4.676  1.00 31.85 LIG-0.00  A 
ATOM     73  CZ2 TRP B1542      -0.228  39.599   6.657  1.00 32.49 LIG 0.03  A 
ATOM     74  CE3 TRP B1542      -1.268  41.904   5.347  1.00 30.05 LIG 0.01  A 
ATOM     75  CZ3 TRP B1542      -0.767  41.968   6.651  1.00 29.28 LIG 0.00  A 
ATOM     76  CH2 TRP B1542      -0.252  40.815   7.290  1.00 32.34 LIG 0.00  A 
ENDBRANCH 66 67
ENDBRANCH 43 66
ENDBRANCH 1 43
TORSDOF 26
ENDMDL
MODEL 70
USER: ADFR SOLUTION from run 162
USER: SCORE 22.458247 LL:  -6.733 LR: -17.099 RR:   0.000 FEB:  -9.343
USER: RMSD 6.639964
USER: SEED 161
USER: STATUS no improvement in best in 5 clusters for 5 generations
USER: GENES 28
USER: genes 0 Translation |==|  0.46729 0.45575 0.46040
USER: genes 1 Rotation |==|  0.99619 0.55224 0.46886 0.50987
USER: genes 2 Torsion [C]-N--CA-[CB] |==|  0.77741
USER: genes 3 Torsion [N]-CA--CB-[CG] |==|  0.83148
USER: genes 4 Torsion [CA]-CB--CG-[CD1] |==|  0.89511
USER: genes 5 Torsion [CE1]-CZ--OH-[HH] |==|  0.50198
USER: genes 6 Torsion [N]-CA--C-[N] |==|  0.52459
USER: genes 7 Torsion [C]-N--CA-[CB] |==|  0.81507
USER: genes 8 Torsion [N]-CA--C-[N] |==|  0.09896
USER: genes 9 Torsion [C]-N--CA-[CB] |==|  0.23918
USER: genes 10 Torsion [N]-CA--CB-[CG] |==|  0.52376
USER: genes 11 Torsion [CA]-CB--CG-[CD] |==|  0.31171
USER: genes 12 Torsion [CB]-CG--CD-[NE] |==|  0.79609
USER: genes 13 Torsion [CG]-CD--NE-[HE] |==|  0.75488
USER: genes 14 Torsion [N]-CA--C-[O] |==|  0.84672
USER: genes 15 Torsion [N]-CA--CB-[CG] |==|  0.64251
USER: genes 16 Torsion [CA]-CB--CG-[CD1] |==|  0.33295
USER: genes 17 Torsion [N]-C--CA-[N] |==|  0.38731
USER: genes 18 Torsion [C]-CA--N-[C] |==|  0.83884
USER: genes 19 Torsion [N]-C--CA-[N] |==|  0.95765
USER: genes 20 Torsion [C]-CA--N-[C] |==|  0.80299
USER: genes 21 Torsion [N]-C--CA-[N] |==|  0.95969
USER: genes 22 Torsion [C]-CA--N-[C] |==|  0.79680
USER: genes 23 Torsion [N]-C--CA-[N] |==|  0.38732
USER: genes 24 Torsion [C]-CA--CB-[CG1] |==|  0.83329
USER: genes 25 Torsion [CA]-CB--CG1-[CD1] |==|  0.38886
USER: genes 26 Torsion [C]-CA--CB-[CG] |==|  0.91159
USER: genes 27 Torsion [CA]-CB--CG-[CD1] |==|  0.29056
ROOT
ATOM      1  C   TRP B1542      -3.219  43.099   1.728  1.00 26.55 LIG 0.24  C 
ATOM      2 O    TRP B1542      -2.041  43.007   2.043  1.00 27.86 LIG-0.27  OA
ATOM      3  N   TYR B1543      -3.637  43.896   0.752  1.00 24.62 LIG-0.35  N 
ATOM      4 H    TYR B1543      -4.464  44.035   0.562  1.00 24.62 LIG 0.16  HD
ENDROOT
BRANCH 3 5
ATOM      5  CA  TYR B1543      -2.694  44.610  -0.089  1.00 22.31 LIG 0.18  C 
BRANCH 5 6
ATOM      6  CB  TYR B1543      -2.209  45.852   0.662  1.00 23.67 LIG 0.07  C 
BRANCH 6 7
ATOM      7  CG  TYR B1543      -3.287  46.851   1.036  1.00 24.58 LIG-0.06  A 
ATOM      8  CD1 TYR B1543      -4.347  47.113   0.169  1.00 24.59 LIG 0.01  A 
ATOM      9  CE1 TYR B1543      -5.297  48.078   0.470  1.00 26.50 LIG 0.04  A 
ATOM     10  CZ  TYR B1543      -5.181  48.790   1.648  1.00 24.60 LIG 0.07  A 
ATOM     11  CE2 TYR B1543      -4.133  48.535   2.529  1.00 24.06 LIG 0.04  A 
ATOM     12  CD2 TYR B1543      -3.208  47.575   2.220  1.00 22.62 LIG 0.01  A 
BRANCH 10 13
ATOM     13 OH   TYR B1543      -6.083  49.775   1.930  1.00 26.51 LIG-0.36  OA
ATOM     14 HH   TYR B1543      -5.890  50.130   2.667  1.00 26.51 LIG 0.22  HD
ENDBRANCH 10 13
ENDBRANCH 6 7
ENDBRANCH 5 6
BRANCH 5 15
ATOM     15  C   TYR B1543      -1.496  43.869  -0.663  1.00 22.90 LIG 0.24  C 
ATOM     16  N   LEU B1544      -0.572  44.599  -1.271  1.00 22.60 LIG-0.35  N 
ATOM     17 H    LEU B1544      -0.588  45.456  -1.334  1.00 22.60 LIG 0.16  HD
ATOM     18 O    TYR B1543      -1.416  42.650  -0.565  1.00 21.43 LIG-0.27  OA
BRANCH 16 19
ATOM     19  CA  LEU B1544       0.575  43.957  -1.895  1.00 22.81 LIG 0.18  C 
BRANCH 19 20
ATOM     20  C   LEU B1544       0.155  42.923  -2.935  1.00 21.53 LIG 0.24  C 
ATOM     21 O    LEU B1544       0.800  41.882  -3.097  1.00 22.00 LIG-0.27  OA
ATOM     22  N   ARG B1545      -0.931  43.213  -3.645  1.00 20.14 LIG-0.35  N 
ATOM     23 H    ARG B1545      -1.401  43.928  -3.559  1.00 20.14 LIG 0.16  HD
BRANCH 22 24
ATOM     24  CA  ARG B1545      -1.396  42.279  -4.657  1.00 18.95 LIG 0.16  C 
BRANCH 24 25
ATOM     25  CB  ARG B1545      -2.309  41.223  -4.020  1.00 20.51 LIG 0.04  C 
BRANCH 25 26
ATOM     26  CG  ARG B1545      -2.628  40.123  -5.033  1.00 20.78 LIG 0.02  C 
BRANCH 26 27
ATOM     27  CD  ARG B1545      -2.006  38.776  -4.675  1.00 21.13 LIG 0.14  C 
BRANCH 27 28
ATOM     28  NE  ARG B1545      -0.559  38.794  -4.915  1.00 20.56 LIG-0.23  N 
ATOM     29 HE   ARG B1545      -0.276  38.580  -5.698  1.00 20.56 LIG 0.18  HD
ATOM     30  CZ  ARG B1545       0.339  39.124  -3.993  1.00 23.27 LIG 0.67  C 
ATOM     31  NH2 ARG B1545       1.648  39.087  -4.280  1.00 19.37 LIG-0.23  N 
ATOM     32  NH1 ARG B1545      -0.069  39.466  -2.778  1.00 20.25 LIG-0.23  N 
ATOM     33 1HH2 ARG B1545       1.909  38.849  -5.064  1.00 19.37 LIG 0.17  HD
ATOM     34 2HH2 ARG B1545       2.225  39.301  -3.681  1.00 19.37 LIG 0.17  HD
ATOM     35 1HH1 ARG B1545      -0.909  39.472  -2.592  1.00 20.25 LIG 0.17  HD
ATOM     36 2HH1 ARG B1545       0.506  39.680  -2.175  1.00 20.25 LIG 0.17  HD
ENDBRANCH 27 28
ENDBRANCH 26 27
ENDBRANCH 25 26
ENDBRANCH 24 25
BRANCH 24 37
ATOM     37  C   ARG B1545      -2.070  42.979  -5.831  1.00 20.11 LIG 0.22  C 
ATOM     38 O    ARG B1545      -3.026  43.744  -5.559  1.00 20.61 LIG-0.29  OA
ENDBRANCH 24 37
ENDBRANCH 22 24
ENDBRANCH 19 20
BRANCH 19 39
ATOM     39  CB  LEU B1544       1.454  43.312  -0.816  1.00 22.71 LIG 0.04  C 
BRANCH 39 40
ATOM     40  CG  LEU B1544       2.942  43.689  -0.890  1.00 23.46 LIG-0.02  C 
ATOM     41  CD1 LEU B1544       3.337  44.375   0.422  1.00 24.99 LIG 0.01  C 
ATOM     42  CD2 LEU B1544       3.811  42.462  -1.133  1.00 22.67 LIG 0.01  C 
ENDBRANCH 39 40
ENDBRANCH 19 39
ENDBRANCH 16 19
ENDBRANCH 5 15
ENDBRANCH 3 5
BRANCH 1 43
ATOM     43  CA  TRP B1542      -4.282  42.309   2.481  1.00 29.62 LIG 0.18  C 
BRANCH 43 44
ATOM     44  N   TRP B1542      -3.871  40.938   2.777  1.00 31.24 LIG-0.35  N 
ATOM     45  C   ALA B1541      -3.530  40.112   1.802  1.00 34.20 LIG 0.24  C 
ATOM     46 O    ALA B1541      -3.504  40.465   0.625  1.00 33.88 LIG-0.27  OA
ATOM     47 H    TRP B1542      -3.874  40.730   3.612  1.00 31.24 LIG 0.16  HD
BRANCH 45 48
ATOM     48  CA  ALA B1541      -3.150  38.679   2.204  1.00 35.59 LIG 0.17  C 
ATOM     49  CB  ALA B1541      -4.255  37.696   1.753  1.00 37.24 LIG 0.04  C 
BRANCH 48 50
ATOM     50  N   ALA B1541      -2.869  38.471   3.631  1.00 36.68 LIG-0.35  N 
ATOM     51  C   ALA B1540      -1.774  38.950   4.215  1.00 36.41 LIG 0.24  C 
ATOM     52 O    ALA B1540      -0.947  39.645   3.615  1.00 35.55 LIG-0.27  OA
ATOM     53 H    ALA B1541      -3.470  38.017   4.046  1.00 36.68 LIG 0.16  HD
BRANCH 51 54
ATOM     54  CA  ALA B1540      -1.607  38.623   5.704  1.00 37.40 LIG 0.17  C 
ATOM     55  CB  ALA B1540      -0.489  37.587   5.899  1.00 38.11 LIG 0.04  C 
BRANCH 54 56
ATOM     56  N   ALA B1540      -2.844  38.126   6.303  1.00 38.31 LIG-0.35  N 
ATOM     57 H    ALA B1540      -2.837  37.282   6.470  1.00 38.31 LIG 0.16  HD
ATOM     58  C   ILE B1539      -3.877  38.915   6.561  1.00 39.48 LIG 0.26  C 
ATOM     59 O    ILE B1539      -3.875  40.112   6.307  1.00 40.50 LIG-0.27  OA
BRANCH 58 60
ATOM     60  CA  ILE B1539      -5.108  38.245   7.174  1.00 40.24 LIG 0.40  C 
ATOM     61  N   ILE B1539      -5.732  39.086   8.246  1.00 42.50 LIG 0.61  N 
BRANCH 60 62
ATOM     62  CB  ILE B1539      -6.109  37.949   6.017  1.00 40.48 LIG 0.03  C 
ATOM     63  CG2 ILE B1539      -7.344  37.239   6.567  1.00 38.85 LIG 0.01  C 
BRANCH 62 64
ATOM     64  CG1 ILE B1539      -6.520  39.247   5.312  1.00 39.99 LIG 0.00  C 
ATOM     65  CD1 ILE B1539      -6.622  39.107   3.788  1.00 39.67 LIG 0.01  C 
ENDBRANCH 62 64
ENDBRANCH 60 62
ENDBRANCH 58 60
ENDBRANCH 54 56
ENDBRANCH 51 54
ENDBRANCH 48 50
ENDBRANCH 45 48
ENDBRANCH 43 44
BRANCH 43 66
ATOM     66  CB  TRP B1542      -4.592  43.040   3.795  1.00 29.93 LIG 0.07  C 
BRANCH 66 67
ATOM     67  CG  TRP B1542      -3.391  43.786   4.381  1.00 31.09 LIG-0.03  A 
ATOM     68  CD1 TRP B1542      -3.179  45.142   4.357  1.00 35.00 LIG 0.10  A 
ATOM     69  NE1 TRP B1542      -2.003  45.455   5.014  1.00 35.42 LIG-0.36  N 
ATOM     70 HE1  TRP B1542      -1.684  46.248   5.117  1.00 35.42 LIG 0.17  HD
ATOM     71  CE2 TRP B1542      -1.429  44.298   5.476  1.00 34.23 LIG 0.04  A 
ATOM     72  CD2 TRP B1542      -2.272  43.222   5.095  1.00 31.85 LIG-0.00  A 
ATOM     73  CZ2 TRP B1542      -0.240  44.106   6.199  1.00 32.49 LIG 0.03  A 
ATOM     74  CE3 TRP B1542      -1.901  41.917   5.450  1.00 30.05 LIG 0.01  A 
ATOM     75  CZ3 TRP B1542      -0.718  41.724   6.170  1.00 29.28 LIG 0.00  A 
ATOM     76  CH2 TRP B1542       0.098  42.821   6.537  1.00 32.34 LIG 0.00  A 
ENDBRANCH 66 67
ENDBRANCH 43 66
ENDBRANCH 1 43
TORSDOF 26
ENDMDL
MODEL 71
USER: ADFR SOLUTION from run 9
USER: SCORE 21.712962 LL:  -6.500 LR: -17.084 RR:   0.000 FEB:  -9.328
USER: RMSD 6.649014
USER: SEED 686374
USER: STATUS no improvement in best in 16 clusters for 5 generations
USER: GENES 28
USER: genes 0 Translation |==|  0.46031 0.35697 0.64178
USER: genes 1 Rotation |==|  0.98702 0.52661 0.52367 0.60743
USER: genes 2 Torsion [C]-N--CA-[CB] |==|  0.23813
USER: genes 3 Torsion [N]-CA--CB-[CG] |==|  0.17332
USER: genes 4 Torsion [CA]-CB--CG-[CD1] |==|  0.22596
USER: genes 5 Torsion [CE1]-CZ--OH-[HH] |==|  0.84751
USER: genes 6 Torsion [N]-CA--C-[N] |==|  0.53492
USER: genes 7 Torsion [C]-N--CA-[CB] |==|  0.17819
USER: genes 8 Torsion [N]-CA--C-[N] |==|  0.06111
USER: genes 9 Torsion [C]-N--CA-[CB] |==|  0.31068
USER: genes 10 Torsion [N]-CA--CB-[CG] |==|  0.86697
USER: genes 11 Torsion [CA]-CB--CG-[CD] |==|  0.82079
USER: genes 12 Torsion [CB]-CG--CD-[NE] |==|  0.56811
USER: genes 13 Torsion [CG]-CD--NE-[HE] |==|  0.15350
USER: genes 14 Torsion [N]-CA--C-[O] |==|  0.16706
USER: genes 15 Torsion [N]-CA--CB-[CG] |==|  0.59978
USER: genes 16 Torsion [CA]-CB--CG-[CD1] |==|  0.69513
USER: genes 17 Torsion [N]-C--CA-[N] |==|  0.96828
USER: genes 18 Torsion [C]-CA--N-[C] |==|  0.79499
USER: genes 19 Torsion [N]-C--CA-[N] |==|  0.09929
USER: genes 20 Torsion [C]-CA--N-[C] |==|  0.13769
USER: genes 21 Torsion [N]-C--CA-[N] |==|  0.10466
USER: genes 22 Torsion [C]-CA--N-[C] |==|  0.20547
USER: genes 23 Torsion [N]-C--CA-[N] |==|  0.94340
USER: genes 24 Torsion [C]-CA--CB-[CG1] |==|  0.82025
USER: genes 25 Torsion [CA]-CB--CG1-[CD1] |==|  0.35737
USER: genes 26 Torsion [C]-CA--CB-[CG] |==|  0.05598
USER: genes 27 Torsion [CA]-CB--CG-[CD1] |==|  0.75898
ROOT
ATOM      1  C   TRP B1542      -3.381  41.173   5.128  1.00 26.55 LIG 0.24  C 
ATOM      2 O    TRP B1542      -2.331  41.182   5.755  1.00 27.86 LIG-0.27  OA
ATOM      3  N   TYR B1543      -3.460  41.559   3.861  1.00 24.62 LIG-0.35  N 
ATOM      4 H    TYR B1543      -4.196  41.634   3.422  1.00 24.62 LIG 0.16  HD
ENDROOT
BRANCH 3 5
ATOM      5  CA  TYR B1543      -2.267  41.892   3.103  1.00 22.31 LIG 0.18  C 
BRANCH 5 6
ATOM      6  CB  TYR B1543      -1.690  40.606   2.507  1.00 23.67 LIG 0.07  C 
BRANCH 6 7
ATOM      7  CG  TYR B1543      -2.589  39.881   1.524  1.00 24.58 LIG-0.06  A 
ATOM      8  CD1 TYR B1543      -2.667  40.291   0.194  1.00 24.59 LIG 0.01  A 
ATOM      9  CE1 TYR B1543      -3.541  39.681  -0.694  1.00 26.50 LIG 0.04  A 
ATOM     10  CZ  TYR B1543      -4.348  38.654  -0.243  1.00 24.60 LIG 0.07  A 
ATOM     11  CE2 TYR B1543      -4.277  38.227   1.080  1.00 24.06 LIG 0.04  A 
ATOM     12  CD2 TYR B1543      -3.404  38.835   1.941  1.00 22.62 LIG 0.01  A 
BRANCH 10 13
ATOM     13 OH   TYR B1543      -5.246  38.081  -1.097  1.00 26.51 LIG-0.36  OA
ATOM     14 HH   TYR B1543      -5.742  38.676  -1.423  1.00 26.51 LIG 0.22  HD
ENDBRANCH 10 13
ENDBRANCH 6 7
ENDBRANCH 5 6
BRANCH 5 15
ATOM     15  C   TYR B1543      -2.344  42.958   2.022  1.00 22.90 LIG 0.24  C 
ATOM     16  N   LEU B1544      -1.315  43.048   1.191  1.00 22.60 LIG-0.35  N 
ATOM     17 H    LEU B1544      -0.630  42.529   1.203  1.00 22.60 LIG 0.16  HD
ATOM     18 O    TYR B1543      -3.319  43.698   1.948  1.00 21.43 LIG-0.27  OA
BRANCH 16 19
ATOM     19  CA  LEU B1544      -1.289  44.080   0.167  1.00 22.81 LIG 0.18  C 
BRANCH 19 20
ATOM     20  C   LEU B1544      -0.116  43.904  -0.793  1.00 21.53 LIG 0.24  C 
ATOM     21 O    LEU B1544       0.312  44.854  -1.458  1.00 22.00 LIG-0.27  OA
ATOM     22  N   ARG B1545       0.403  42.683  -0.867  1.00 20.14 LIG-0.35  N 
ATOM     23 H    ARG B1545       0.128  42.002  -0.420  1.00 20.14 LIG 0.16  HD
BRANCH 22 24
ATOM     24  CA  ARG B1545       1.523  42.433  -1.759  1.00 18.95 LIG 0.16  C 
BRANCH 24 25
ATOM     25  CB  ARG B1545       2.788  42.131  -0.944  1.00 20.51 LIG 0.04  C 
BRANCH 25 26
ATOM     26  CG  ARG B1545       2.964  43.171   0.162  1.00 20.78 LIG 0.02  C 
BRANCH 26 27
ATOM     27  CD  ARG B1545       3.207  44.581  -0.370  1.00 21.13 LIG 0.14  C 
BRANCH 27 28
ATOM     28  NE  ARG B1545       3.922  45.392   0.621  1.00 20.56 LIG-0.23  N 
ATOM     29 HE   ARG B1545       4.669  45.094   0.925  1.00 20.56 LIG 0.18  HD
ATOM     30  CZ  ARG B1545       3.482  46.560   1.076  1.00 23.27 LIG 0.67  C 
ATOM     31  NH2 ARG B1545       4.177  47.228   2.007  1.00 19.37 LIG-0.23  N 
ATOM     32  NH1 ARG B1545       2.335  47.047   0.620  1.00 20.25 LIG-0.23  N 
ATOM     33 1HH2 ARG B1545       4.911  46.902   2.311  1.00 19.37 LIG 0.17  HD
ATOM     34 2HH2 ARG B1545       3.889  47.984   2.298  1.00 19.37 LIG 0.17  HD
ATOM     35 1HH1 ARG B1545       1.883  46.608   0.035  1.00 20.25 LIG 0.17  HD
ATOM     36 2HH1 ARG B1545       2.043  47.802   0.910  1.00 20.25 LIG 0.17  HD
ENDBRANCH 27 28
ENDBRANCH 26 27
ENDBRANCH 25 26
ENDBRANCH 24 25
BRANCH 24 37
ATOM     37  C   ARG B1545       1.226  41.337  -2.774  1.00 20.11 LIG 0.22  C 
ATOM     38 O    ARG B1545       0.263  41.534  -3.553  1.00 20.61 LIG-0.29  OA
ENDBRANCH 24 37
ENDBRANCH 22 24
ENDBRANCH 19 20
BRANCH 19 39
ATOM     39  CB  LEU B1544      -1.243  45.463   0.829  1.00 22.71 LIG 0.04  C 
BRANCH 39 40
ATOM     40  CG  LEU B1544      -2.033  46.556   0.092  1.00 23.46 LIG-0.02  C 
ATOM     41  CD1 LEU B1544      -1.039  47.541  -0.530  1.00 24.99 LIG 0.01  C 
ATOM     42  CD2 LEU B1544      -2.933  45.957  -0.982  1.00 22.67 LIG 0.01  C 
ENDBRANCH 39 40
ENDBRANCH 19 39
ENDBRANCH 16 19
ENDBRANCH 5 15
ENDBRANCH 3 5
BRANCH 1 43
ATOM     43  CA  TRP B1542      -4.677  40.739   5.803  1.00 29.62 LIG 0.18  C 
BRANCH 43 44
ATOM     44  N   TRP B1542      -5.866  41.067   5.019  1.00 31.24 LIG-0.35  N 
ATOM     45  C   ALA B1541      -6.294  42.316   4.934  1.00 34.20 LIG 0.24  C 
ATOM     46 O    ALA B1541      -5.698  43.248   5.469  1.00 33.88 LIG-0.27  OA
ATOM     47 H    TRP B1542      -6.244  40.396   4.634  1.00 31.24 LIG 0.16  HD
BRANCH 45 48
ATOM     48  CA  ALA B1541      -7.573  42.559   4.120  1.00 35.59 LIG 0.17  C 
ATOM     49  CB  ALA B1541      -8.200  43.915   4.521  1.00 37.24 LIG 0.04  C 
BRANCH 48 50
ATOM     50  N   ALA B1541      -8.595  41.507   4.207  1.00 36.68 LIG-0.35  N 
ATOM     51  C   ALA B1540      -9.009  41.017   5.373  1.00 36.41 LIG 0.24  C 
ATOM     52 O    ALA B1540      -8.604  41.445   6.458  1.00 35.55 LIG-0.27  OA
ATOM     53 H    ALA B1541      -8.895  41.244   3.446  1.00 36.68 LIG 0.16  HD
BRANCH 51 54
ATOM     54  CA  ALA B1540     -10.058  39.901   5.299  1.00 37.40 LIG 0.17  C 
ATOM     55  CB  ALA B1540     -10.081  39.104   6.613  1.00 38.11 LIG 0.04  C 
BRANCH 54 56
ATOM     56  N   ALA B1540      -9.820  38.992   4.179  1.00 38.31 LIG-0.35  N 
ATOM     57 H    ALA B1540     -10.368  39.093   3.524  1.00 38.31 LIG 0.16  HD
ATOM     58  C   ILE B1539      -8.843  38.096   4.186  1.00 39.48 LIG 0.26  C 
ATOM     59 O    ILE B1539      -8.078  37.959   5.130  1.00 40.50 LIG-0.27  OA
BRANCH 58 60
ATOM     60  CA  ILE B1539      -8.730  37.205   2.948  1.00 40.24 LIG 0.40  C 
ATOM     61  N   ILE B1539     -10.009  37.160   2.167  1.00 42.50 LIG 0.61  N 
BRANCH 60 62
ATOM     62  CB  ILE B1539      -7.547  37.740   2.087  1.00 40.48 LIG 0.03  C 
ATOM     63  CG2 ILE B1539      -7.286  36.794   0.917  1.00 38.85 LIG 0.01  C 
BRANCH 62 64
ATOM     64  CG1 ILE B1539      -7.853  39.149   1.565  1.00 39.99 LIG 0.00  C 
ATOM     65  CD1 ILE B1539      -6.736  40.161   1.851  1.00 39.67 LIG 0.01  C 
ENDBRANCH 62 64
ENDBRANCH 60 62
ENDBRANCH 58 60
ENDBRANCH 54 56
ENDBRANCH 51 54
ENDBRANCH 48 50
ENDBRANCH 45 48
ENDBRANCH 43 44
BRANCH 43 66
ATOM     66  CB  TRP B1542      -4.622  39.222   6.032  1.00 29.93 LIG 0.07  C 
BRANCH 66 67
ATOM     67  CG  TRP B1542      -3.204  38.648   6.008  1.00 31.09 LIG-0.03  A 
ATOM     68  CD1 TRP B1542      -2.509  38.231   4.900  1.00 35.00 LIG 0.10  A 
ATOM     69  NE1 TRP B1542      -1.244  37.805   5.259  1.00 35.42 LIG-0.36  N 
ATOM     70 HE1  TRP B1542      -0.645  37.505   4.720  1.00 35.42 LIG 0.17  HD
ATOM     71  CE2 TRP B1542      -1.099  37.937   6.618  1.00 34.23 LIG 0.04  A 
ATOM     72  CD2 TRP B1542      -2.314  38.463   7.127  1.00 31.85 LIG-0.00  A 
ATOM     73  CZ2 TRP B1542      -0.001  37.640   7.442  1.00 32.49 LIG 0.03  A 
ATOM     74  CE3 TRP B1542      -2.424  38.692   8.507  1.00 30.05 LIG 0.01  A 
ATOM     75  CZ3 TRP B1542      -1.331  38.397   9.328  1.00 29.28 LIG 0.00  A 
ATOM     76  CH2 TRP B1542      -0.132  37.876   8.786  1.00 32.34 LIG 0.00  A 
ENDBRANCH 66 67
ENDBRANCH 43 66
ENDBRANCH 1 43
TORSDOF 26
ENDMDL
MODEL 72
USER: ADFR SOLUTION from run 9
USER: SCORE 22.020642 LL:  -7.198 LR: -17.067 RR:   0.000 FEB:  -9.311
USER: RMSD 7.144986
USER: SEED 686374
USER: STATUS no improvement in best in 16 clusters for 5 generations
USER: GENES 28
USER: genes 0 Translation |==|  0.50320 0.30396 0.64201
USER: genes 1 Rotation |==|  0.98940 0.48190 0.42926 0.57179
USER: genes 2 Torsion [C]-N--CA-[CB] |==|  0.22337
USER: genes 3 Torsion [N]-CA--CB-[CG] |==|  0.20211
USER: genes 4 Torsion [CA]-CB--CG-[CD1] |==|  0.21196
USER: genes 5 Torsion [CE1]-CZ--OH-[HH] |==|  0.56111
USER: genes 6 Torsion [N]-CA--C-[N] |==|  0.47228
USER: genes 7 Torsion [C]-N--CA-[CB] |==|  0.17567
USER: genes 8 Torsion [N]-CA--C-[N] |==|  0.03545
USER: genes 9 Torsion [C]-N--CA-[CB] |==|  0.33815
USER: genes 10 Torsion [N]-CA--CB-[CG] |==|  0.85004
USER: genes 11 Torsion [CA]-CB--CG-[CD] |==|  0.85773
USER: genes 12 Torsion [CB]-CG--CD-[NE] |==|  0.55240
USER: genes 13 Torsion [CG]-CD--NE-[HE] |==|  0.11942
USER: genes 14 Torsion [N]-CA--C-[O] |==|  0.13463
USER: genes 15 Torsion [N]-CA--CB-[CG] |==|  0.62444
USER: genes 16 Torsion [CA]-CB--CG-[CD1] |==|  0.67558
USER: genes 17 Torsion [N]-C--CA-[N] |==|  0.03333
USER: genes 18 Torsion [C]-CA--N-[C] |==|  0.18880
USER: genes 19 Torsion [N]-C--CA-[N] |==|  0.21976
USER: genes 20 Torsion [C]-CA--N-[C] |==|  0.55364
USER: genes 21 Torsion [N]-C--CA-[N] |==|  0.89331
USER: genes 22 Torsion [C]-CA--N-[C] |==|  0.80525
USER: genes 23 Torsion [N]-C--CA-[N] |==|  0.28938
USER: genes 24 Torsion [C]-CA--CB-[CG1] |==|  0.47179
USER: genes 25 Torsion [CA]-CB--CG1-[CD1] |==|  0.64361
USER: genes 26 Torsion [C]-CA--CB-[CG] |==|  0.31629
USER: genes 27 Torsion [CA]-CB--CG-[CD1] |==|  0.21921
ROOT
ATOM      1  C   TRP B1542      -2.384  40.139   5.133  1.00 26.55 LIG 0.24  C 
ATOM      2 O    TRP B1542      -1.227  39.810   5.357  1.00 27.86 LIG-0.27  OA
ATOM      3  N   TYR B1543      -2.750  40.741   4.008  1.00 24.62 LIG-0.35  N 
ATOM      4 H    TYR B1543      -3.539  41.050   3.859  1.00 24.62 LIG 0.16  HD
ENDROOT
BRANCH 3 5
ATOM      5  CA  TYR B1543      -1.812  40.924   2.915  1.00 22.31 LIG 0.18  C 
BRANCH 5 6
ATOM      6  CB  TYR B1543      -1.713  39.615   2.128  1.00 23.67 LIG 0.07  C 
BRANCH 6 7
ATOM      7  CG  TYR B1543      -2.916  39.277   1.270  1.00 24.58 LIG-0.06  A 
ATOM      8  CD1 TYR B1543      -3.133  39.930   0.058  1.00 24.59 LIG 0.01  A 
ATOM      9  CE1 TYR B1543      -4.269  39.680  -0.698  1.00 26.50 LIG 0.04  A 
ATOM     10  CZ  TYR B1543      -5.199  38.771  -0.232  1.00 24.60 LIG 0.07  A 
ATOM     11  CE2 TYR B1543      -4.994  38.105   0.973  1.00 24.06 LIG 0.04  A 
ATOM     12  CD2 TYR B1543      -3.865  38.358   1.703  1.00 22.62 LIG 0.01  A 
BRANCH 10 13
ATOM     13 OH   TYR B1543      -6.343  38.555  -0.945  1.00 26.51 LIG-0.36  OA
ATOM     14 HH   TYR B1543      -6.933  38.238  -0.437  1.00 26.51 LIG 0.22  HD
ENDBRANCH 10 13
ENDBRANCH 6 7
ENDBRANCH 5 6
BRANCH 5 15
ATOM     15  C   TYR B1543      -2.010  42.080   1.948  1.00 22.90 LIG 0.24  C 
ATOM     16  N   LEU B1544      -1.024  42.328   1.096  1.00 22.60 LIG-0.35  N 
ATOM     17 H    LEU B1544      -0.303  41.865   1.034  1.00 22.60 LIG 0.16  HD
ATOM     18 O    TYR B1543      -3.038  42.746   1.980  1.00 21.43 LIG-0.27  OA
BRANCH 16 19
ATOM     19  CA  LEU B1544      -1.116  43.453   0.179  1.00 22.81 LIG 0.18  C 
BRANCH 19 20
ATOM     20  C   LEU B1544       0.039  43.472  -0.818  1.00 21.53 LIG 0.24  C 
ATOM     21 O    LEU B1544       0.260  44.466  -1.519  1.00 22.00 LIG-0.27  OA
ATOM     22  N   ARG B1545       0.777  42.369  -0.883  1.00 20.14 LIG-0.35  N 
ATOM     23 H    ARG B1545       0.649  41.661  -0.412  1.00 20.14 LIG 0.16  HD
BRANCH 22 24
ATOM     24  CA  ARG B1545       1.895  42.308  -1.809  1.00 18.95 LIG 0.16  C 
BRANCH 24 25
ATOM     25  CB  ARG B1545       3.196  42.024  -1.045  1.00 20.51 LIG 0.04  C 
BRANCH 25 26
ATOM     26  CG  ARG B1545       3.384  43.049   0.074  1.00 20.78 LIG 0.02  C 
BRANCH 26 27
ATOM     27  CD  ARG B1545       3.249  44.493  -0.402  1.00 21.13 LIG 0.14  C 
BRANCH 27 28
ATOM     28  NE  ARG B1545       3.861  45.414   0.560  1.00 20.56 LIG-0.23  N 
ATOM     29 HE   ARG B1545       4.622  45.199   0.900  1.00 20.56 LIG 0.18  HD
ATOM     30  CZ  ARG B1545       3.310  46.562   0.939  1.00 23.27 LIG 0.67  C 
ATOM     31  NH2 ARG B1545       3.917  47.337   1.848  1.00 19.37 LIG-0.23  N 
ATOM     32  NH1 ARG B1545       2.140  46.924   0.427  1.00 20.25 LIG-0.23  N 
ATOM     33 1HH2 ARG B1545       4.667  47.092   2.189  1.00 19.37 LIG 0.17  HD
ATOM     34 2HH2 ARG B1545       3.557  48.079   2.089  1.00 19.37 LIG 0.17  HD
ATOM     35 1HH1 ARG B1545       1.746  46.416  -0.144  1.00 20.25 LIG 0.17  HD
ATOM     36 2HH1 ARG B1545       1.776  47.665   0.666  1.00 20.25 LIG 0.17  HD
ENDBRANCH 27 28
ENDBRANCH 26 27
ENDBRANCH 25 26
ENDBRANCH 24 25
BRANCH 24 37
ATOM     37  C   ARG B1545       1.668  41.306  -2.934  1.00 20.11 LIG 0.22  C 
ATOM     38 O    ARG B1545       0.567  41.368  -3.532  1.00 20.61 LIG-0.29  OA
ENDBRANCH 24 37
ENDBRANCH 22 24
ENDBRANCH 19 20
BRANCH 19 39
ATOM     39  CB  LEU B1544      -1.167  44.764   0.973  1.00 22.71 LIG 0.04  C 
BRANCH 39 40
ATOM     40  CG  LEU B1544      -2.224  45.768   0.488  1.00 23.46 LIG-0.02  C 
ATOM     41  CD1 LEU B1544      -1.509  47.029  -0.006  1.00 24.99 LIG 0.01  C 
ATOM     42  CD2 LEU B1544      -3.083  45.173  -0.621  1.00 22.67 LIG 0.01  C 
ENDBRANCH 39 40
ENDBRANCH 19 39
ENDBRANCH 16 19
ENDBRANCH 5 15
ENDBRANCH 3 5
BRANCH 1 43
ATOM     43  CA  TRP B1542      -3.469  39.896   6.174  1.00 29.62 LIG 0.18  C 
BRANCH 43 44
ATOM     44  N   TRP B1542      -4.818  40.118   5.656  1.00 31.24 LIG-0.35  N 
ATOM     45  C   ALA B1541      -5.330  39.310   4.743  1.00 34.20 LIG 0.24  C 
ATOM     46 O    ALA B1541      -4.721  38.328   4.324  1.00 33.88 LIG-0.27  OA
ATOM     47 H    TRP B1542      -5.228  40.797   5.990  1.00 31.24 LIG 0.16  HD
BRANCH 45 48
ATOM     48  CA  ALA B1541      -6.738  39.643   4.229  1.00 35.59 LIG 0.17  C 
ATOM     49  CB  ALA B1541      -7.407  38.368   3.664  1.00 37.24 LIG 0.04  C 
BRANCH 48 50
ATOM     50  N   ALA B1541      -6.814  40.715   3.227  1.00 36.68 LIG-0.35  N 
ATOM     51  C   ALA B1540      -7.946  41.366   2.970  1.00 36.41 LIG 0.24  C 
ATOM     52 O    ALA B1540      -8.994  41.152   3.588  1.00 35.55 LIG-0.27  OA
ATOM     53 H    ALA B1541      -6.069  40.879   2.830  1.00 36.68 LIG 0.16  HD
BRANCH 51 54
ATOM     54  CA  ALA B1540      -7.873  42.437   1.876  1.00 37.40 LIG 0.17  C 
ATOM     55  CB  ALA B1540      -8.043  41.795   0.490  1.00 38.11 LIG 0.04  C 
BRANCH 54 56
ATOM     56  N   ALA B1540      -6.617  43.185   1.917  1.00 38.31 LIG-0.35  N 
ATOM     57 H    ALA B1540      -6.089  43.019   1.258  1.00 38.31 LIG 0.16  HD
ATOM     58  C   ILE B1539      -6.329  44.039   2.889  1.00 39.48 LIG 0.26  C 
ATOM     59 O    ILE B1539      -7.086  44.256   3.825  1.00 40.50 LIG-0.27  OA
BRANCH 58 60
ATOM     60  CA  ILE B1539      -4.968  44.733   2.803  1.00 40.24 LIG 0.40  C 
ATOM     61  N   ILE B1539      -5.090  46.156   2.346  1.00 42.50 LIG 0.61  N 
BRANCH 60 62
ATOM     62  CB  ILE B1539      -4.299  44.632   4.205  1.00 40.48 LIG 0.03  C 
ATOM     63  CG2 ILE B1539      -4.384  43.196   4.719  1.00 38.85 LIG 0.01  C 
BRANCH 62 64
ATOM     64  CG1 ILE B1539      -2.834  45.080   4.139  1.00 39.99 LIG 0.00  C 
ATOM     65  CD1 ILE B1539      -1.858  44.063   4.745  1.00 39.67 LIG 0.01  C 
ENDBRANCH 62 64
ENDBRANCH 60 62
ENDBRANCH 58 60
ENDBRANCH 54 56
ENDBRANCH 51 54
ENDBRANCH 48 50
ENDBRANCH 45 48
ENDBRANCH 43 44
BRANCH 43 66
ATOM     66  CB  TRP B1542      -3.350  38.449   6.673  1.00 29.93 LIG 0.07  C 
BRANCH 66 67
ATOM     67  CG  TRP B1542      -2.942  38.337   8.143  1.00 31.09 LIG-0.03  A 
ATOM     68  CD1 TRP B1542      -3.760  38.503   9.234  1.00 35.00 LIG 0.10  A 
ATOM     69  NE1 TRP B1542      -3.050  38.293  10.401  1.00 35.42 LIG-0.36  N 
ATOM     70 HE1  TRP B1542      -3.372  38.345  11.198  1.00 35.42 LIG 0.17  HD
ATOM     71  CE2 TRP B1542      -1.751  37.987  10.084  1.00 34.23 LIG 0.04  A 
ATOM     72  CD2 TRP B1542      -1.641  38.008   8.670  1.00 31.85 LIG-0.00  A 
ATOM     73  CZ2 TRP B1542      -0.662  37.692  10.921  1.00 32.49 LIG 0.03  A 
ATOM     74  CE3 TRP B1542      -0.397  37.727   8.086  1.00 30.05 LIG 0.01  A 
ATOM     75  CZ3 TRP B1542       0.688  37.433   8.919  1.00 29.28 LIG 0.00  A 
ATOM     76  CH2 TRP B1542       0.542  37.418  10.327  1.00 32.34 LIG 0.00  A 
ENDBRANCH 66 67
ENDBRANCH 43 66
ENDBRANCH 1 43
TORSDOF 26
ENDMDL
MODEL 73
USER: ADFR SOLUTION from run 88
USER: SCORE 20.733126 LL:  -5.684 LR: -17.065 RR:   0.000 FEB:  -9.310
USER: RMSD 5.378179
USER: SEED 87
USER: STATUS no improvement in best in 6 clusters for 5 generations
USER: GENES 28
USER: genes 0 Translation |==|  0.40042 0.45448 0.56218
USER: genes 1 Rotation |==|  0.28849 0.70631 0.65853 0.87090
USER: genes 2 Torsion [C]-N--CA-[CB] |==|  0.51887
USER: genes 3 Torsion [N]-CA--CB-[CG] |==|  0.16505
USER: genes 4 Torsion [CA]-CB--CG-[CD1] |==|  0.57755
USER: genes 5 Torsion [CE1]-CZ--OH-[HH] |==|  0.12074
USER: genes 6 Torsion [N]-CA--C-[N] |==|  0.95713
USER: genes 7 Torsion [C]-N--CA-[CB] |==|  0.56727
USER: genes 8 Torsion [N]-CA--C-[N] |==|  0.34628
USER: genes 9 Torsion [C]-N--CA-[CB] |==|  0.30646
USER: genes 10 Torsion [N]-CA--CB-[CG] |==|  0.69237
USER: genes 11 Torsion [CA]-CB--CG-[CD] |==|  0.46434
USER: genes 12 Torsion [CB]-CG--CD-[NE] |==|  0.03277
USER: genes 13 Torsion [CG]-CD--NE-[HE] |==|  0.02616
USER: genes 14 Torsion [N]-CA--C-[O] |==|  0.33491
USER: genes 15 Torsion [N]-CA--CB-[CG] |==|  0.87023
USER: genes 16 Torsion [CA]-CB--CG-[CD1] |==|  0.52517
USER: genes 17 Torsion [N]-C--CA-[N] |==|  0.28666
USER: genes 18 Torsion [C]-CA--N-[C] |==|  0.63955
USER: genes 19 Torsion [N]-C--CA-[N] |==|  0.42148
USER: genes 20 Torsion [C]-CA--N-[C] |==|  0.84444
USER: genes 21 Torsion [N]-C--CA-[N] |==|  0.91417
USER: genes 22 Torsion [C]-CA--N-[C] |==|  0.82726
USER: genes 23 Torsion [N]-C--CA-[N] |==|  0.51024
USER: genes 24 Torsion [C]-CA--CB-[CG1] |==|  0.80059
USER: genes 25 Torsion [CA]-CB--CG1-[CD1] |==|  0.73575
USER: genes 26 Torsion [C]-CA--CB-[CG] |==|  0.33074
USER: genes 27 Torsion [CA]-CB--CG-[CD1] |==|  0.35094
ROOT
ATOM      1  C   TRP B1542      -4.773  43.074   3.636  1.00 26.55 LIG 0.24  C 
ATOM      2 O    TRP B1542      -4.714  42.959   2.420  1.00 27.86 LIG-0.27  OA
ATOM      3  N   TYR B1543      -3.761  43.534   4.361  1.00 24.62 LIG-0.35  N 
ATOM      4 H    TYR B1543      -3.750  43.553   5.221  1.00 24.62 LIG 0.16  HD
ENDROOT
BRANCH 3 5
ATOM      5  CA  TYR B1543      -2.562  44.054   3.729  1.00 22.31 LIG 0.18  C 
BRANCH 5 6
ATOM      6  CB  TYR B1543      -1.522  44.345   4.814  1.00 23.67 LIG 0.07  C 
BRANCH 6 7
ATOM      7  CG  TYR B1543      -1.107  43.155   5.656  1.00 24.58 LIG-0.06  A 
ATOM      8  CD1 TYR B1543      -0.665  43.328   6.967  1.00 24.59 LIG 0.01  A 
ATOM      9  CE1 TYR B1543      -0.215  42.254   7.720  1.00 26.50 LIG 0.04  A 
ATOM     10  CZ  TYR B1543      -0.201  40.995   7.153  1.00 24.60 LIG 0.07  A 
ATOM     11  CE2 TYR B1543      -0.647  40.802   5.847  1.00 24.06 LIG 0.04  A 
ATOM     12  CD2 TYR B1543      -1.095  41.872   5.121  1.00 22.62 LIG 0.01  A 
BRANCH 10 13
ATOM     13 OH   TYR B1543       0.286  39.940   7.869  1.00 26.51 LIG-0.36  OA
ATOM     14 HH   TYR B1543      -0.002  39.980   8.657  1.00 26.51 LIG 0.22  HD
ENDBRANCH 10 13
ENDBRANCH 6 7
ENDBRANCH 5 6
BRANCH 5 15
ATOM     15  C   TYR B1543      -1.909  43.266   2.604  1.00 22.90 LIG 0.24  C 
ATOM     16  N   LEU B1544      -2.278  42.000   2.464  1.00 22.60 LIG-0.35  N 
ATOM     17 H    LEU B1544      -2.878  41.610   2.940  1.00 22.60 LIG 0.16  HD
ATOM     18 O    TYR B1543      -1.073  43.794   1.880  1.00 21.43 LIG-0.27  OA
BRANCH 16 19
ATOM     19  CA  LEU B1544      -1.657  41.165   1.448  1.00 22.81 LIG 0.18  C 
BRANCH 19 20
ATOM     20  C   LEU B1544      -1.267  41.966   0.210  1.00 21.53 LIG 0.24  C 
ATOM     21 O    LEU B1544      -2.101  42.643  -0.402  1.00 22.00 LIG-0.27  OA
ATOM     22  N   ARG B1545       0.007  41.889  -0.162  1.00 20.14 LIG-0.35  N 
ATOM     23 H    ARG B1545       0.611  41.427   0.240  1.00 20.14 LIG 0.16  HD
BRANCH 22 24
ATOM     24  CA  ARG B1545       0.459  42.623  -1.332  1.00 18.95 LIG 0.16  C 
BRANCH 24 25
ATOM     25  CB  ARG B1545       1.379  43.776  -0.908  1.00 20.51 LIG 0.04  C 
BRANCH 25 26
ATOM     26  CG  ARG B1545       0.688  45.118  -1.151  1.00 20.78 LIG 0.02  C 
BRANCH 26 27
ATOM     27  CD  ARG B1545       1.396  46.290  -0.478  1.00 21.13 LIG 0.14  C 
BRANCH 27 28
ATOM     28  NE  ARG B1545       2.719  45.886   0.007  1.00 20.56 LIG-0.23  N 
ATOM     29 HE   ARG B1545       3.018  45.114  -0.228  1.00 20.56 LIG 0.18  HD
ATOM     30  CZ  ARG B1545       3.484  46.642   0.787  1.00 23.27 LIG 0.67  C 
ATOM     31  NH2 ARG B1545       4.671  46.189   1.214  1.00 19.37 LIG-0.23  N 
ATOM     32  NH1 ARG B1545       3.052  47.840   1.160  1.00 20.25 LIG-0.23  N 
ATOM     33 1HH2 ARG B1545       4.940  45.407   0.984  1.00 19.37 LIG 0.17  HD
ATOM     34 2HH2 ARG B1545       5.162  46.682   1.719  1.00 19.37 LIG 0.17  HD
ATOM     35 1HH1 ARG B1545       2.282  48.120   0.897  1.00 20.25 LIG 0.17  HD
ATOM     36 2HH1 ARG B1545       3.540  48.335   1.665  1.00 20.25 LIG 0.17  HD
ENDBRANCH 27 28
ENDBRANCH 26 27
ENDBRANCH 25 26
ENDBRANCH 24 25
BRANCH 24 37
ATOM     37  C   ARG B1545       1.118  41.721  -2.368  1.00 20.11 LIG 0.22  C 
ATOM     38 O    ARG B1545       0.596  41.695  -3.508  1.00 20.61 LIG-0.29  OA
ENDBRANCH 24 37
ENDBRANCH 22 24
ENDBRANCH 19 20
BRANCH 19 39
ATOM     39  CB  LEU B1544      -2.604  40.018   1.073  1.00 22.71 LIG 0.04  C 
BRANCH 39 40
ATOM     40  CG  LEU B1544      -3.234  39.288   2.270  1.00 23.46 LIG-0.02  C 
ATOM     41  CD1 LEU B1544      -3.962  38.043   1.753  1.00 24.99 LIG 0.01  C 
ATOM     42  CD2 LEU B1544      -2.179  38.900   3.298  1.00 22.67 LIG 0.01  C 
ENDBRANCH 39 40
ENDBRANCH 19 39
ENDBRANCH 16 19
ENDBRANCH 5 15
ENDBRANCH 3 5
BRANCH 1 43
ATOM     43  CA  TRP B1542      -6.030  42.654   4.389  1.00 29.62 LIG 0.18  C 
BRANCH 43 44
ATOM     44  N   TRP B1542      -7.108  43.637   4.294  1.00 31.24 LIG-0.35  N 
ATOM     45  C   ALA B1541      -7.730  44.060   5.382  1.00 34.20 LIG 0.24  C 
ATOM     46 O    ALA B1541      -7.410  43.683   6.507  1.00 33.88 LIG-0.27  OA
ATOM     47 H    TRP B1542      -7.290  43.900   3.496  1.00 31.24 LIG 0.16  HD
BRANCH 45 48
ATOM     48  CA  ALA B1541      -8.875  45.064   5.182  1.00 35.59 LIG 0.17  C 
ATOM     49  CB  ALA B1541      -8.305  46.497   5.074  1.00 37.24 LIG 0.04  C 
BRANCH 48 50
ATOM     50  N   ALA B1541      -9.931  45.038   6.204  1.00 36.68 LIG-0.35  N 
ATOM     51  C   ALA B1540     -10.605  43.930   6.498  1.00 36.41 LIG 0.24  C 
ATOM     52 O    ALA B1540     -10.358  42.839   5.973  1.00 35.55 LIG-0.27  OA
ATOM     53 H    ALA B1541     -10.069  45.795   6.587  1.00 36.68 LIG 0.16  HD
BRANCH 51 54
ATOM     54  CA  ALA B1540     -11.698  44.069   7.565  1.00 37.40 LIG 0.17  C 
ATOM     55  CB  ALA B1540     -13.048  44.394   6.905  1.00 38.11 LIG 0.04  C 
BRANCH 54 56
ATOM     56  N   ALA B1540     -11.377  45.097   8.553  1.00 38.31 LIG-0.35  N 
ATOM     57 H    ALA B1540     -11.937  45.751   8.573  1.00 38.31 LIG 0.16  HD
ATOM     58  C   ILE B1539     -10.316  45.019   9.343  1.00 39.48 LIG 0.26  C 
ATOM     59 O    ILE B1539      -9.524  44.087   9.296  1.00 40.50 LIG-0.27  OA
BRANCH 58 60
ATOM     60  CA  ILE B1539     -10.104  46.181  10.315  1.00 40.24 LIG 0.40  C 
ATOM     61  N   ILE B1539      -8.833  46.037  11.097  1.00 42.50 LIG 0.61  N 
BRANCH 60 62
ATOM     62  CB  ILE B1539     -10.126  47.499   9.485  1.00 40.48 LIG 0.03  C 
ATOM     63  CG2 ILE B1539     -10.254  48.700  10.421  1.00 38.85 LIG 0.01  C 
BRANCH 62 64
ATOM     64  CG1 ILE B1539      -8.853  47.627   8.640  1.00 39.99 LIG 0.00  C 
ATOM     65  CD1 ILE B1539      -7.756  48.462   9.313  1.00 39.67 LIG 0.01  C 
ENDBRANCH 62 64
ENDBRANCH 60 62
ENDBRANCH 58 60
ENDBRANCH 54 56
ENDBRANCH 51 54
ENDBRANCH 48 50
ENDBRANCH 45 48
ENDBRANCH 43 44
BRANCH 43 66
ATOM     66  CB  TRP B1542      -6.514  41.314   3.818  1.00 29.93 LIG 0.07  C 
BRANCH 66 67
ATOM     67  CG  TRP B1542      -6.539  40.181   4.846  1.00 31.09 LIG-0.03  A 
ATOM     68  CD1 TRP B1542      -7.608  39.376   5.151  1.00 35.00 LIG 0.10  A 
ATOM     69  NE1 TRP B1542      -7.248  38.441   6.103  1.00 35.42 LIG-0.36  N 
ATOM     70 HE1  TRP B1542      -7.766  37.839   6.434  1.00 35.42 LIG 0.17  HD
ATOM     71  CE2 TRP B1542      -5.930  38.627   6.435  1.00 34.23 LIG 0.04  A 
ATOM     72  CD2 TRP B1542      -5.446  39.718   5.666  1.00 31.85 LIG-0.00  A 
ATOM     73  CZ2 TRP B1542      -5.120  37.929   7.346  1.00 32.49 LIG 0.03  A 
ATOM     74  CE3 TRP B1542      -4.111  40.115   5.825  1.00 30.05 LIG 0.01  A 
ATOM     75  CZ3 TRP B1542      -3.303  39.420   6.731  1.00 29.28 LIG 0.00  A 
ATOM     76  CH2 TRP B1542      -3.817  38.335   7.480  1.00 32.34 LIG 0.00  A 
ENDBRANCH 66 67
ENDBRANCH 43 66
ENDBRANCH 1 43
TORSDOF 26
ENDMDL
MODEL 74
USER: ADFR SOLUTION from run 85
USER: SCORE 20.744540 LL:  -5.734 LR: -17.058 RR:   0.000 FEB:  -9.302
USER: RMSD 6.637589
USER: SEED 84
USER: STATUS no improvement in best in 21 clusters for 5 generations
USER: GENES 28
USER: genes 0 Translation |==|  0.45098 0.40694 0.59328
USER: genes 1 Rotation |==|  0.97498 0.46218 0.52376 0.64965
USER: genes 2 Torsion [C]-N--CA-[CB] |==|  0.26524
USER: genes 3 Torsion [N]-CA--CB-[CG] |==|  0.82666
USER: genes 4 Torsion [CA]-CB--CG-[CD1] |==|  0.30784
USER: genes 5 Torsion [CE1]-CZ--OH-[HH] |==|  0.19485
USER: genes 6 Torsion [N]-CA--C-[N] |==|  0.83199
USER: genes 7 Torsion [C]-N--CA-[CB] |==|  0.77925
USER: genes 8 Torsion [N]-CA--C-[N] |==|  0.12408
USER: genes 9 Torsion [C]-N--CA-[CB] |==|  0.27533
USER: genes 10 Torsion [N]-CA--CB-[CG] |==|  0.80301
USER: genes 11 Torsion [CA]-CB--CG-[CD] |==|  0.79601
USER: genes 12 Torsion [CB]-CG--CD-[NE] |==|  0.46445
USER: genes 13 Torsion [CG]-CD--NE-[HE] |==|  0.79521
USER: genes 14 Torsion [N]-CA--C-[O] |==|  0.54144
USER: genes 15 Torsion [N]-CA--CB-[CG] |==|  0.18541
USER: genes 16 Torsion [CA]-CB--CG-[CD1] |==|  0.31256
USER: genes 17 Torsion [N]-C--CA-[N] |==|  0.88587
USER: genes 18 Torsion [C]-CA--N-[C] |==|  0.87175
USER: genes 19 Torsion [N]-C--CA-[N] |==|  0.38659
USER: genes 20 Torsion [C]-CA--N-[C] |==|  0.77007
USER: genes 21 Torsion [N]-C--CA-[N] |==|  0.92778
USER: genes 22 Torsion [C]-CA--N-[C] |==|  0.84028
USER: genes 23 Torsion [N]-C--CA-[N] |==|  0.77984
USER: genes 24 Torsion [C]-CA--CB-[CG1] |==|  0.52394
USER: genes 25 Torsion [CA]-CB--CG1-[CD1] |==|  0.40597
USER: genes 26 Torsion [C]-CA--CB-[CG] |==|  0.27654
USER: genes 27 Torsion [CA]-CB--CG-[CD1] |==|  0.36467
ROOT
ATOM      1  C   TRP B1542      -3.598  42.147   4.219  1.00 26.55 LIG 0.24  C 
ATOM      2 O    TRP B1542      -2.611  42.002   4.926  1.00 27.86 LIG-0.27  OA
ATOM      3  N   TYR B1543      -3.516  42.321   2.905  1.00 24.62 LIG-0.35  N 
ATOM      4 H    TYR B1543      -4.188  42.501   2.398  1.00 24.62 LIG 0.16  HD
ENDROOT
BRANCH 3 5
ATOM      5  CA  TYR B1543      -2.245  42.215   2.213  1.00 22.31 LIG 0.18  C 
BRANCH 5 6
ATOM      6  CB  TYR B1543      -2.107  40.795   1.658  1.00 23.67 LIG 0.07  C 
BRANCH 6 7
ATOM      7  CG  TYR B1543      -2.081  39.688   2.694  1.00 24.58 LIG-0.06  A 
ATOM      8  CD1 TYR B1543      -3.145  38.794   2.808  1.00 24.59 LIG 0.01  A 
ATOM      9  CE1 TYR B1543      -3.163  37.826   3.800  1.00 26.50 LIG 0.04  A 
ATOM     10  CZ  TYR B1543      -2.108  37.755   4.690  1.00 24.60 LIG 0.07  A 
ATOM     11  CE2 TYR B1543      -1.034  38.635   4.585  1.00 24.06 LIG 0.04  A 
ATOM     12  CD2 TYR B1543      -1.029  39.581   3.596  1.00 22.62 LIG 0.01  A 
BRANCH 10 13
ATOM     13 OH   TYR B1543      -2.141  36.837   5.700  1.00 26.51 LIG-0.36  OA
ATOM     14 HH   TYR B1543      -2.048  36.065   5.380  1.00 26.51 LIG 0.22  HD
ENDBRANCH 10 13
ENDBRANCH 6 7
ENDBRANCH 5 6
BRANCH 5 15
ATOM     15  C   TYR B1543      -1.904  43.218   1.122  1.00 22.90 LIG 0.24  C 
ATOM     16  N   LEU B1544      -2.714  43.264   0.073  1.00 22.60 LIG-0.35  N 
ATOM     17 H    LEU B1544      -3.428  42.794  -0.015  1.00 22.60 LIG 0.16  HD
ATOM     18 O    TYR B1543      -0.914  43.932   1.223  1.00 21.43 LIG-0.27  OA
BRANCH 16 19
ATOM     19  CA  LEU B1544      -2.422  44.157  -1.037  1.00 22.81 LIG 0.18  C 
BRANCH 19 20
ATOM     20  C   LEU B1544      -0.947  44.124  -1.425  1.00 21.53 LIG 0.24  C 
ATOM     21 O    LEU B1544      -0.323  45.166  -1.652  1.00 22.00 LIG-0.27  OA
ATOM     22  N   ARG B1545      -0.388  42.921  -1.504  1.00 20.14 LIG-0.35  N 
ATOM     23 H    ARG B1545      -0.794  42.177  -1.354  1.00 20.14 LIG 0.16  HD
BRANCH 22 24
ATOM     24  CA  ARG B1545       1.014  42.804  -1.868  1.00 18.95 LIG 0.16  C 
BRANCH 24 25
ATOM     25  CB  ARG B1545       1.872  42.613  -0.609  1.00 20.51 LIG 0.04  C 
BRANCH 25 26
ATOM     26  CG  ARG B1545       1.920  43.912   0.197  1.00 20.78 LIG 0.02  C 
BRANCH 26 27
ATOM     27  CD  ARG B1545       2.797  44.985  -0.443  1.00 21.13 LIG 0.14  C 
BRANCH 27 28
ATOM     28  NE  ARG B1545       2.569  46.286   0.195  1.00 20.56 LIG-0.23  N 
ATOM     29 HE   ARG B1545       1.836  46.700   0.020  1.00 20.56 LIG 0.18  HD
ATOM     30  CZ  ARG B1545       3.430  46.861   1.028  1.00 23.27 LIG 0.67  C 
ATOM     31  NH2 ARG B1545       3.164  48.068   1.547  1.00 19.37 LIG-0.23  N 
ATOM     32  NH1 ARG B1545       4.566  46.242   1.322  1.00 20.25 LIG-0.23  N 
ATOM     33 1HH2 ARG B1545       2.435  48.473   1.342  1.00 19.37 LIG 0.17  HD
ATOM     34 2HH2 ARG B1545       3.724  48.436   2.085  1.00 19.37 LIG 0.17  HD
ATOM     35 1HH1 ARG B1545       4.741  45.475   0.974  1.00 20.25 LIG 0.17  HD
ATOM     36 2HH1 ARG B1545       5.128  46.608   1.860  1.00 20.25 LIG 0.17  HD
ENDBRANCH 27 28
ENDBRANCH 26 27
ENDBRANCH 25 26
ENDBRANCH 24 25
BRANCH 24 37
ATOM     37  C   ARG B1545       1.260  41.706  -2.894  1.00 20.11 LIG 0.22  C 
ATOM     38 O    ARG B1545       2.449  41.337  -3.053  1.00 20.61 LIG-0.29  OA
ENDBRANCH 24 37
ENDBRANCH 22 24
ENDBRANCH 19 20
BRANCH 19 39
ATOM     39  CB  LEU B1544      -2.855  45.585  -0.679  1.00 22.71 LIG 0.04  C 
BRANCH 39 40
ATOM     40  CG  LEU B1544      -2.046  46.236   0.454  1.00 23.46 LIG-0.02  C 
ATOM     41  CD1 LEU B1544      -1.231  47.392  -0.132  1.00 24.99 LIG 0.01  C 
ATOM     42  CD2 LEU B1544      -2.959  46.737   1.566  1.00 22.67 LIG 0.01  C 
ENDBRANCH 39 40
ENDBRANCH 19 39
ENDBRANCH 16 19
ENDBRANCH 5 15
ENDBRANCH 3 5
BRANCH 1 43
ATOM     43  CA  TRP B1542      -4.991  42.169   4.836  1.00 29.62 LIG 0.18  C 
BRANCH 43 44
ATOM     44  N   TRP B1542      -5.851  43.207   4.270  1.00 31.24 LIG-0.35  N 
ATOM     45  C   ALA B1541      -5.398  44.439   4.105  1.00 34.20 LIG 0.24  C 
ATOM     46 O    ALA B1541      -4.242  44.753   4.378  1.00 33.88 LIG-0.27  OA
ATOM     47 H    TRP B1542      -6.645  42.948   4.064  1.00 31.24 LIG 0.16  HD
BRANCH 45 48
ATOM     48  CA  ALA B1541      -6.384  45.472   3.539  1.00 35.59 LIG 0.17  C 
ATOM     49  CB  ALA B1541      -6.184  45.607   2.011  1.00 37.24 LIG 0.04  C 
BRANCH 48 50
ATOM     50  N   ALA B1541      -6.334  46.805   4.155  1.00 36.68 LIG-0.35  N 
ATOM     51  C   ALA B1540      -6.971  47.086   5.288  1.00 36.41 LIG 0.24  C 
ATOM     52 O    ALA B1540      -7.603  46.239   5.927  1.00 35.55 LIG-0.27  OA
ATOM     53 H    ALA B1541      -5.861  47.376   3.719  1.00 36.68 LIG 0.16  HD
BRANCH 51 54
ATOM     54  CA  ALA B1540      -6.848  48.530   5.789  1.00 37.40 LIG 0.17  C 
ATOM     55  CB  ALA B1540      -8.068  49.353   5.344  1.00 38.11 LIG 0.04  C 
BRANCH 54 56
ATOM     56  N   ALA B1540      -5.624  49.177   5.318  1.00 38.31 LIG-0.35  N 
ATOM     57 H    ALA B1540      -5.760  49.899   4.870  1.00 38.31 LIG 0.16  HD
ATOM     58  C   ILE B1539      -4.419  48.683   5.565  1.00 39.48 LIG 0.26  C 
ATOM     59 O    ILE B1539      -4.244  47.649   6.195  1.00 40.50 LIG-0.27  OA
BRANCH 58 60
ATOM     60  CA  ILE B1539      -3.234  49.464   4.992  1.00 40.24 LIG 0.40  C 
ATOM     61  N   ILE B1539      -3.029  49.185   3.534  1.00 42.50 LIG 0.61  N 
BRANCH 60 62
ATOM     62  CB  ILE B1539      -3.493  50.976   5.260  1.00 40.48 LIG 0.03  C 
ATOM     63  CG2 ILE B1539      -3.439  51.254   6.761  1.00 38.85 LIG 0.01  C 
BRANCH 62 64
ATOM     64  CG1 ILE B1539      -2.458  51.840   4.529  1.00 39.99 LIG 0.00  C 
ATOM     65  CD1 ILE B1539      -3.021  53.179   4.036  1.00 39.67 LIG 0.01  C 
ENDBRANCH 62 64
ENDBRANCH 60 62
ENDBRANCH 58 60
ENDBRANCH 54 56
ENDBRANCH 51 54
ENDBRANCH 48 50
ENDBRANCH 45 48
ENDBRANCH 43 44
BRANCH 43 66
ATOM     66  CB  TRP B1542      -5.642  40.796   4.616  1.00 29.93 LIG 0.07  C 
BRANCH 66 67
ATOM     67  CG  TRP B1542      -5.569  39.879   5.839  1.00 31.09 LIG-0.03  A 
ATOM     68  CD1 TRP B1542      -6.605  39.170   6.393  1.00 35.00 LIG 0.10  A 
ATOM     69  NE1 TRP B1542      -6.157  38.424   7.467  1.00 35.42 LIG-0.36  N 
ATOM     70 HE1  TRP B1542      -6.642  37.907   7.954  1.00 35.42 LIG 0.17  HD
ATOM     71  CE2 TRP B1542      -4.812  38.641   7.629  1.00 34.23 LIG 0.04  A 
ATOM     72  CD2 TRP B1542      -4.403  39.555   6.624  1.00 31.85 LIG-0.00  A 
ATOM     73  CZ2 TRP B1542      -3.919  38.110   8.574  1.00 32.49 LIG 0.03  A 
ATOM     74  CE3 TRP B1542      -3.057  39.946   6.575  1.00 30.05 LIG 0.01  A 
ATOM     75  CZ3 TRP B1542      -2.166  39.417   7.515  1.00 29.28 LIG 0.00  A 
ATOM     76  CH2 TRP B1542      -2.608  38.505   8.503  1.00 32.34 LIG 0.00  A 
ENDBRANCH 66 67
ENDBRANCH 43 66
ENDBRANCH 1 43
TORSDOF 26
ENDMDL
MODEL 75
USER: ADFR SOLUTION from run 165
USER: SCORE 20.439343 LL:  -6.256 LR: -17.053 RR:   0.000 FEB:  -9.297
USER: RMSD 6.123023
USER: SEED 164
USER: STATUS no improvement in best in 8 clusters for 5 generations
USER: GENES 28
USER: genes 0 Translation |==|  0.43634 0.35578 0.61273
USER: genes 1 Rotation |==|  0.09823 0.60865 0.72250 0.66513
USER: genes 2 Torsion [C]-N--CA-[CB] |==|  0.71924
USER: genes 3 Torsion [N]-CA--CB-[CG] |==|  0.06280
USER: genes 4 Torsion [CA]-CB--CG-[CD1] |==|  0.17812
USER: genes 5 Torsion [CE1]-CZ--OH-[HH] |==|  0.36582
USER: genes 6 Torsion [N]-CA--C-[N] |==|  0.64711
USER: genes 7 Torsion [C]-N--CA-[CB] |==|  0.15002
USER: genes 8 Torsion [N]-CA--C-[N] |==|  0.61001
USER: genes 9 Torsion [C]-N--CA-[CB] |==|  0.81973
USER: genes 10 Torsion [N]-CA--CB-[CG] |==|  0.33567
USER: genes 11 Torsion [CA]-CB--CG-[CD] |==|  0.63151
USER: genes 12 Torsion [CB]-CG--CD-[NE] |==|  0.87630
USER: genes 13 Torsion [CG]-CD--NE-[HE] |==|  0.16256
USER: genes 14 Torsion [N]-CA--C-[O] |==|  0.26013
USER: genes 15 Torsion [N]-CA--CB-[CG] |==|  0.62937
USER: genes 16 Torsion [CA]-CB--CG-[CD1] |==|  0.00190
USER: genes 17 Torsion [N]-C--CA-[N] |==|  0.16590
USER: genes 18 Torsion [C]-CA--N-[C] |==|  0.52464
USER: genes 19 Torsion [N]-C--CA-[N] |==|  0.88435
USER: genes 20 Torsion [C]-CA--N-[C] |==|  0.73045
USER: genes 21 Torsion [N]-C--CA-[N] |==|  0.95252
USER: genes 22 Torsion [C]-CA--N-[C] |==|  0.82340
USER: genes 23 Torsion [N]-C--CA-[N] |==|  0.09217
USER: genes 24 Torsion [C]-CA--CB-[CG1] |==|  0.84054
USER: genes 25 Torsion [CA]-CB--CG1-[CD1] |==|  0.37430
USER: genes 26 Torsion [C]-CA--CB-[CG] |==|  0.20072
USER: genes 27 Torsion [CA]-CB--CG-[CD1] |==|  0.69209
ROOT
ATOM      1  C   TRP B1542      -3.938  41.150   4.584  1.00 26.55 LIG 0.24  C 
ATOM      2 O    TRP B1542      -3.351  40.527   3.710  1.00 27.86 LIG-0.27  OA
ATOM      3  N   TYR B1543      -3.982  42.476   4.609  1.00 24.62 LIG-0.35  N 
ATOM      4 H    TYR B1543      -4.322  42.937   5.252  1.00 24.62 LIG 0.16  HD
ENDROOT
BRANCH 3 5
ATOM      5  CA  TYR B1543      -3.442  43.266   3.518  1.00 22.31 LIG 0.18  C 
BRANCH 5 6
ATOM      6  CB  TYR B1543      -2.066  43.796   3.930  1.00 23.67 LIG 0.07  C 
BRANCH 6 7
ATOM      7  CG  TYR B1543      -1.366  43.014   5.024  1.00 24.58 LIG-0.06  A 
ATOM      8  CD1 TYR B1543      -0.978  41.690   4.817  1.00 24.59 LIG 0.01  A 
ATOM      9  CE1 TYR B1543      -0.404  40.945   5.836  1.00 26.50 LIG 0.04  A 
ATOM     10  CZ  TYR B1543      -0.221  41.528   7.075  1.00 24.60 LIG 0.07  A 
ATOM     11  CE2 TYR B1543      -0.596  42.851   7.296  1.00 24.06 LIG 0.04  A 
ATOM     12  CD2 TYR B1543      -1.155  43.575   6.278  1.00 22.62 LIG 0.01  A 
BRANCH 10 13
ATOM     13 OH   TYR B1543       0.298  40.787   8.097  1.00 26.51 LIG-0.36  OA
ATOM     14 HH   TYR B1543       0.917  41.217   8.468  1.00 26.51 LIG 0.22  HD
ENDBRANCH 10 13
ENDBRANCH 6 7
ENDBRANCH 5 6
BRANCH 5 15
ATOM     15  C   TYR B1543      -3.350  42.654   2.129  1.00 22.90 LIG 0.24  C 
ATOM     16  N   LEU B1544      -2.169  42.698   1.528  1.00 22.60 LIG-0.35  N 
ATOM     17 H    LEU B1544      -1.453  43.017   1.881  1.00 22.60 LIG 0.16  HD
ATOM     18 O    TYR B1543      -4.340  42.158   1.603  1.00 21.43 LIG-0.27  OA
BRANCH 16 19
ATOM     19  CA  LEU B1544      -2.016  42.185   0.176  1.00 22.81 LIG 0.18  C 
BRANCH 19 20
ATOM     20  C   LEU B1544      -0.601  42.390  -0.356  1.00 21.53 LIG 0.24  C 
ATOM     21 O    LEU B1544       0.384  42.232   0.374  1.00 22.00 LIG-0.27  OA
ATOM     22  N   ARG B1545      -0.500  42.747  -1.632  1.00 20.14 LIG-0.35  N 
ATOM     23 H    ARG B1545      -1.164  42.867  -2.165  1.00 20.14 LIG 0.16  HD
BRANCH 22 24
ATOM     24  CA  ARG B1545       0.814  42.962  -2.215  1.00 18.95 LIG 0.16  C 
BRANCH 24 25
ATOM     25  CB  ARG B1545       1.499  44.160  -1.543  1.00 20.51 LIG 0.04  C 
BRANCH 25 26
ATOM     26  CG  ARG B1545       2.818  43.722  -0.905  1.00 20.78 LIG 0.02  C 
BRANCH 26 27
ATOM     27  CD  ARG B1545       2.994  44.230   0.524  1.00 21.13 LIG 0.14  C 
BRANCH 27 28
ATOM     28  NE  ARG B1545       2.609  45.641   0.622  1.00 20.56 LIG-0.23  N 
ATOM     29 HE   ARG B1545       1.807  45.859   0.400  1.00 20.56 LIG 0.18  HD
ATOM     30  CZ  ARG B1545       3.426  46.604   1.035  1.00 23.27 LIG 0.67  C 
ATOM     31  NH2 ARG B1545       3.010  47.877   1.069  1.00 19.37 LIG-0.23  N 
ATOM     32  NH1 ARG B1545       4.667  46.297   1.391  1.00 20.25 LIG-0.23  N 
ATOM     33 1HH2 ARG B1545       2.210  48.074   0.822  1.00 19.37 LIG 0.17  HD
ATOM     34 2HH2 ARG B1545       3.542  48.496   1.337  1.00 19.37 LIG 0.17  HD
ATOM     35 1HH1 ARG B1545       4.936  45.481   1.353  1.00 20.25 LIG 0.17  HD
ATOM     36 2HH1 ARG B1545       5.203  46.914   1.659  1.00 20.25 LIG 0.17  HD
ENDBRANCH 27 28
ENDBRANCH 26 27
ENDBRANCH 25 26
ENDBRANCH 24 25
BRANCH 24 37
ATOM     37  C   ARG B1545       1.684  41.712  -2.170  1.00 20.11 LIG 0.22  C 
ATOM     38 O    ARG B1545       1.667  40.975  -3.184  1.00 20.61 LIG-0.29  OA
ENDBRANCH 24 37
ENDBRANCH 22 24
ENDBRANCH 19 20
BRANCH 19 39
ATOM     39  CB  LEU B1544      -3.043  42.852  -0.748  1.00 22.71 LIG 0.04  C 
BRANCH 39 40
ATOM     40  CG  LEU B1544      -3.801  41.885  -1.671  1.00 23.46 LIG-0.02  C 
ATOM     41  CD1 LEU B1544      -3.312  40.461  -1.390  1.00 24.99 LIG 0.01  C 
ATOM     42  CD2 LEU B1544      -5.306  41.984  -1.459  1.00 22.67 LIG 0.01  C 
ENDBRANCH 39 40
ENDBRANCH 19 39
ENDBRANCH 16 19
ENDBRANCH 5 15
ENDBRANCH 3 5
BRANCH 1 43
ATOM     43  CA  TRP B1542      -4.630  40.411   5.723  1.00 29.62 LIG 0.18  C 
BRANCH 43 44
ATOM     44  N   TRP B1542      -6.059  40.706   5.810  1.00 31.24 LIG-0.35  N 
ATOM     45  C   ALA B1541      -6.771  40.287   6.843  1.00 34.20 LIG 0.24  C 
ATOM     46 O    ALA B1541      -6.265  39.674   7.781  1.00 33.88 LIG-0.27  OA
ATOM     47 H    TRP B1542      -6.377  41.159   5.152  1.00 31.24 LIG 0.16  HD
BRANCH 45 48
ATOM     48  CA  ALA B1541      -8.272  40.610   6.831  1.00 35.59 LIG 0.17  C 
ATOM     49  CB  ALA B1541      -9.028  39.564   5.979  1.00 37.24 LIG 0.04  C 
BRANCH 48 50
ATOM     50  N   ALA B1541      -8.631  41.959   6.372  1.00 36.68 LIG-0.35  N 
ATOM     51  C   ALA B1540      -8.864  42.957   7.220  1.00 36.41 LIG 0.24  C 
ATOM     52 O    ALA B1540      -8.747  42.834   8.444  1.00 35.55 LIG-0.27  OA
ATOM     53 H    ALA B1541      -8.673  42.041   5.517  1.00 36.68 LIG 0.16  HD
BRANCH 51 54
ATOM     54  CA  ALA B1540      -9.257  44.299   6.590  1.00 37.40 LIG 0.17  C 
ATOM     55  CB  ALA B1540     -10.761  44.555   6.777  1.00 38.11 LIG 0.04  C 
BRANCH 54 56
ATOM     56  N   ALA B1540      -8.924  44.359   5.168  1.00 38.31 LIG-0.35  N 
ATOM     57 H    ALA B1540      -9.608  44.438   4.652  1.00 38.31 LIG 0.16  HD
ATOM     58  C   ILE B1539      -7.676  44.298   4.726  1.00 39.48 LIG 0.26  C 
ATOM     59 O    ILE B1539      -6.715  44.176   5.473  1.00 40.50 LIG-0.27  OA
BRANCH 58 60
ATOM     60  CA  ILE B1539      -7.489  44.358   3.209  1.00 40.24 LIG 0.40  C 
ATOM     61  N   ILE B1539      -8.521  45.220   2.547  1.00 42.50 LIG 0.61  N 
BRANCH 60 62
ATOM     62  CB  ILE B1539      -6.044  44.871   2.932  1.00 40.48 LIG 0.03  C 
ATOM     63  CG2 ILE B1539      -5.809  44.972   1.427  1.00 38.85 LIG 0.01  C 
BRANCH 62 64
ATOM     64  CG1 ILE B1539      -5.820  46.237   3.591  1.00 39.99 LIG 0.00  C 
ATOM     65  CD1 ILE B1539      -4.483  46.342   4.336  1.00 39.67 LIG 0.01  C 
ENDBRANCH 62 64
ENDBRANCH 60 62
ENDBRANCH 58 60
ENDBRANCH 54 56
ENDBRANCH 51 54
ENDBRANCH 48 50
ENDBRANCH 45 48
ENDBRANCH 43 44
BRANCH 43 66
ATOM     66  CB  TRP B1542      -4.436  38.902   5.513  1.00 29.93 LIG 0.07  C 
BRANCH 66 67
ATOM     67  CG  TRP B1542      -3.009  38.423   5.788  1.00 31.09 LIG-0.03  A 
ATOM     68  CD1 TRP B1542      -2.106  37.968   4.860  1.00 35.00 LIG 0.10  A 
ATOM     69  NE1 TRP B1542      -0.906  37.655   5.471  1.00 35.42 LIG-0.36  N 
ATOM     70 HE1  TRP B1542      -0.205  37.355   5.072  1.00 35.42 LIG 0.17  HD
ATOM     71  CE2 TRP B1542      -1.014  37.902   6.816  1.00 34.23 LIG 0.04  A 
ATOM     72  CD2 TRP B1542      -2.326  38.385   7.058  1.00 31.85 LIG-0.00  A 
ATOM     73  CZ2 TRP B1542      -0.068  37.743   7.842  1.00 32.49 LIG 0.03  A 
ATOM     74  CE3 TRP B1542      -2.693  38.712   8.371  1.00 30.05 LIG 0.01  A 
ATOM     75  CZ3 TRP B1542      -1.752  38.555   9.394  1.00 29.28 LIG 0.00  A 
ATOM     76  CH2 TRP B1542      -0.450  38.073   9.117  1.00 32.34 LIG 0.00  A 
ENDBRANCH 66 67
ENDBRANCH 43 66
ENDBRANCH 1 43
TORSDOF 26
ENDMDL
MODEL 76
USER: ADFR SOLUTION from run 125
USER: SCORE 22.344054 LL:  -7.636 LR: -17.033 RR:   0.000 FEB:  -9.277
USER: RMSD 6.181540
USER: SEED 124
USER: STATUS searching
USER: GENES 28
USER: genes 0 Translation |==|  0.43628 0.41946 0.57469
USER: genes 1 Rotation |==|  0.98130 0.59785 0.44857 0.57831
USER: genes 2 Torsion [C]-N--CA-[CB] |==|  0.81923
USER: genes 3 Torsion [N]-CA--CB-[CG] |==|  0.48676
USER: genes 4 Torsion [CA]-CB--CG-[CD1] |==|  0.78533
USER: genes 5 Torsion [CE1]-CZ--OH-[HH] |==|  0.66946
USER: genes 6 Torsion [N]-CA--C-[N] |==|  0.32778
USER: genes 7 Torsion [C]-N--CA-[CB] |==|  0.45857
USER: genes 8 Torsion [N]-CA--C-[N] |==|  0.38896
USER: genes 9 Torsion [C]-N--CA-[CB] |==|  0.32352
USER: genes 10 Torsion [N]-CA--CB-[CG] |==|  0.67780
USER: genes 11 Torsion [CA]-CB--CG-[CD] |==|  0.89908
USER: genes 12 Torsion [CB]-CG--CD-[NE] |==|  0.43602
USER: genes 13 Torsion [CG]-CD--NE-[HE] |==|  0.70599
USER: genes 14 Torsion [N]-CA--C-[O] |==|  0.03556
USER: genes 15 Torsion [N]-CA--CB-[CG] |==|  0.46840
USER: genes 16 Torsion [CA]-CB--CG-[CD1] |==|  0.35882
USER: genes 17 Torsion [N]-C--CA-[N] |==|  0.94469
USER: genes 18 Torsion [C]-CA--N-[C] |==|  0.59456
USER: genes 19 Torsion [N]-C--CA-[N] |==|  0.07505
USER: genes 20 Torsion [C]-CA--N-[C] |==|  0.15348
USER: genes 21 Torsion [N]-C--CA-[N] |==|  0.32904
USER: genes 22 Torsion [C]-CA--N-[C] |==|  0.85020
USER: genes 23 Torsion [N]-C--CA-[N] |==|  0.40313
USER: genes 24 Torsion [C]-CA--CB-[CG1] |==|  0.66402
USER: genes 25 Torsion [CA]-CB--CG1-[CD1] |==|  0.43620
USER: genes 26 Torsion [C]-CA--CB-[CG] |==|  0.29798
USER: genes 27 Torsion [CA]-CB--CG-[CD1] |==|  0.32126
ROOT
ATOM      1  C   TRP B1542      -3.940  42.391   3.870  1.00 26.55 LIG 0.24  C 
ATOM      2 O    TRP B1542      -2.759  42.617   4.097  1.00 27.86 LIG-0.27  OA
ATOM      3  N   TYR B1543      -4.544  42.797   2.761  1.00 24.62 LIG-0.35  N 
ATOM      4 H    TYR B1543      -5.388  42.718   2.612  1.00 24.62 LIG 0.16  HD
ENDROOT
BRANCH 3 5
ATOM      5  CA  TYR B1543      -3.797  43.423   1.685  1.00 22.31 LIG 0.18  C 
BRANCH 5 6
ATOM      6  CB  TYR B1543      -3.234  44.755   2.189  1.00 23.67 LIG 0.07  C 
BRANCH 6 7
ATOM      7  CG  TYR B1543      -2.328  45.489   1.220  1.00 24.58 LIG-0.06  A 
ATOM      8  CD1 TYR B1543      -1.008  45.082   1.031  1.00 24.59 LIG 0.01  A 
ATOM      9  CE1 TYR B1543      -0.151  45.792   0.204  1.00 26.50 LIG 0.04  A 
ATOM     10  CZ  TYR B1543      -0.619  46.922  -0.437  1.00 24.60 LIG 0.07  A 
ATOM     11  CE2 TYR B1543      -1.937  47.338  -0.266  1.00 24.06 LIG 0.04  A 
ATOM     12  CD2 TYR B1543      -2.771  46.622   0.549  1.00 22.62 LIG 0.01  A 
BRANCH 10 13
ATOM     13 OH   TYR B1543       0.231  47.655  -1.215  1.00 26.51 LIG-0.36  OA
ATOM     14 HH   TYR B1543       0.294  48.433  -0.905  1.00 26.51 LIG 0.22  HD
ENDBRANCH 10 13
ENDBRANCH 6 7
ENDBRANCH 5 6
BRANCH 5 15
ATOM     15  C   TYR B1543      -2.693  42.640   0.991  1.00 22.90 LIG 0.24  C 
ATOM     16  N   LEU B1544      -2.847  42.404  -0.305  1.00 22.60 LIG-0.35  N 
ATOM     17 H    LEU B1544      -3.505  42.687  -0.779  1.00 22.60 LIG 0.16  HD
ATOM     18 O    TYR B1543      -1.720  42.246   1.623  1.00 21.43 LIG-0.27  OA
BRANCH 16 19
ATOM     19  CA  LEU B1544      -1.862  41.613  -1.026  1.00 22.81 LIG 0.18  C 
BRANCH 19 20
ATOM     20  C   LEU B1544      -0.553  42.371  -1.221  1.00 21.53 LIG 0.24  C 
ATOM     21 O    LEU B1544      -0.548  43.575  -1.502  1.00 22.00 LIG-0.27  OA
ATOM     22  N   ARG B1545       0.563  41.664  -1.074  1.00 20.14 LIG-0.35  N 
ATOM     23 H    ARG B1545       0.594  40.827  -0.881  1.00 20.14 LIG 0.16  HD
BRANCH 22 24
ATOM     24  CA  ARG B1545       1.852  42.313  -1.244  1.00 18.95 LIG 0.16  C 
BRANCH 24 25
ATOM     25  CB  ARG B1545       2.635  42.284   0.075  1.00 20.51 LIG 0.04  C 
BRANCH 25 26
ATOM     26  CG  ARG B1545       2.856  43.708   0.588  1.00 20.78 LIG 0.02  C 
BRANCH 26 27
ATOM     27  CD  ARG B1545       3.103  44.719  -0.529  1.00 21.13 LIG 0.14  C 
BRANCH 27 28
ATOM     28  NE  ARG B1545       2.769  46.075  -0.081  1.00 20.56 LIG-0.23  N 
ATOM     29 HE   ARG B1545       2.045  46.432  -0.377  1.00 20.56 LIG 0.18  HD
ATOM     30  CZ  ARG B1545       3.520  46.783   0.755  1.00 23.27 LIG 0.67  C 
ATOM     31  NH2 ARG B1545       3.164  48.030   1.094  1.00 19.37 LIG-0.23  N 
ATOM     32  NH1 ARG B1545       4.639  46.255   1.234  1.00 20.25 LIG-0.23  N 
ATOM     33 1HH2 ARG B1545       2.447  48.375   0.769  1.00 19.37 LIG 0.17  HD
ATOM     34 2HH2 ARG B1545       3.653  48.484   1.635  1.00 19.37 LIG 0.17  HD
ATOM     35 1HH1 ARG B1545       4.873  45.460   1.001  1.00 20.25 LIG 0.17  HD
ATOM     36 2HH1 ARG B1545       5.131  46.706   1.775  1.00 20.25 LIG 0.17  HD
ENDBRANCH 27 28
ENDBRANCH 26 27
ENDBRANCH 25 26
ENDBRANCH 24 25
BRANCH 24 37
ATOM     37  C   ARG B1545       2.656  41.722  -2.395  1.00 20.11 LIG 0.22  C 
ATOM     38 O    ARG B1545       2.042  40.962  -3.181  1.00 20.61 LIG-0.29  OA
ENDBRANCH 24 37
ENDBRANCH 22 24
ENDBRANCH 19 20
BRANCH 19 39
ATOM     39  CB  LEU B1544      -2.441  41.177  -2.378  1.00 22.71 LIG 0.04  C 
BRANCH 39 40
ATOM     40  CG  LEU B1544      -1.416  40.572  -3.350  1.00 23.46 LIG-0.02  C 
ATOM     41  CD1 LEU B1544      -1.960  39.235  -3.862  1.00 24.99 LIG 0.01  C 
ATOM     42  CD2 LEU B1544      -1.137  41.515  -4.514  1.00 22.67 LIG 0.01  C 
ENDBRANCH 39 40
ENDBRANCH 19 39
ENDBRANCH 16 19
ENDBRANCH 5 15
ENDBRANCH 3 5
BRANCH 1 43
ATOM     43  CA  TRP B1542      -4.792  41.647   4.892  1.00 29.62 LIG 0.18  C 
BRANCH 43 44
ATOM     44  N   TRP B1542      -6.224  41.885   4.722  1.00 31.24 LIG-0.35  N 
ATOM     45  C   ALA B1541      -7.028  41.928   5.772  1.00 34.20 LIG 0.24  C 
ATOM     46 O    ALA B1541      -6.609  41.813   6.922  1.00 33.88 LIG-0.27  OA
ATOM     47 H    TRP B1542      -6.481  41.989   3.908  1.00 31.24 LIG 0.16  HD
BRANCH 45 48
ATOM     48  CA  ALA B1541      -8.523  42.144   5.495  1.00 35.59 LIG 0.17  C 
ATOM     49  CB  ALA B1541      -9.365  41.483   6.611  1.00 37.24 LIG 0.04  C 
BRANCH 48 50
ATOM     50  N   ALA B1541      -9.003  41.680   4.186  1.00 36.68 LIG-0.35  N 
ATOM     51  C   ALA B1540      -8.829  40.428   3.772  1.00 36.41 LIG 0.24  C 
ATOM     52 O    ALA B1540      -8.300  39.560   4.473  1.00 35.55 LIG-0.27  OA
ATOM     53 H    ALA B1541      -9.400  42.285   3.722  1.00 36.68 LIG 0.16  HD
BRANCH 51 54
ATOM     54  CA  ALA B1540      -9.358  40.104   2.369  1.00 37.40 LIG 0.17  C 
ATOM     55  CB  ALA B1540     -10.435  39.010   2.447  1.00 38.11 LIG 0.04  C 
BRANCH 54 56
ATOM     56  N   ALA B1540      -8.293  39.679   1.462  1.00 38.31 LIG-0.35  N 
ATOM     57 H    ALA B1540      -8.441  38.922   1.079  1.00 38.31 LIG 0.16  HD
ATOM     58  C   ILE B1539      -7.203  40.404   1.255  1.00 39.48 LIG 0.26  C 
ATOM     59 O    ILE B1539      -7.004  41.473   1.815  1.00 40.50 LIG-0.27  OA
BRANCH 58 60
ATOM     60  CA  ILE B1539      -6.171  39.818   0.290  1.00 40.24 LIG 0.40  C 
ATOM     61  N   ILE B1539      -5.484  40.882  -0.514  1.00 42.50 LIG 0.61  N 
BRANCH 60 62
ATOM     62  CB  ILE B1539      -5.158  38.986   1.131  1.00 40.48 LIG 0.03  C 
ATOM     63  CG2 ILE B1539      -5.217  37.518   0.710  1.00 38.85 LIG 0.01  C 
BRANCH 62 64
ATOM     64  CG1 ILE B1539      -3.734  39.526   0.952  1.00 39.99 LIG 0.00  C 
ATOM     65  CD1 ILE B1539      -2.796  39.166   2.113  1.00 39.67 LIG 0.01  C 
ENDBRANCH 62 64
ENDBRANCH 60 62
ENDBRANCH 58 60
ENDBRANCH 54 56
ENDBRANCH 51 54
ENDBRANCH 48 50
ENDBRANCH 45 48
ENDBRANCH 43 44
BRANCH 43 66
ATOM     66  CB  TRP B1542      -4.508  40.145   4.760  1.00 29.93 LIG 0.07  C 
BRANCH 66 67
ATOM     67  CG  TRP B1542      -3.680  39.572   5.913  1.00 31.09 LIG-0.03  A 
ATOM     68  CD1 TRP B1542      -4.089  38.633   6.826  1.00 35.00 LIG 0.10  A 
ATOM     69  NE1 TRP B1542      -3.061  38.333   7.700  1.00 35.42 LIG-0.36  N 
ATOM     70 HE1  TRP B1542      -3.104  37.769   8.348  1.00 35.42 LIG 0.17  HD
ATOM     71  CE2 TRP B1542      -1.960  39.082   7.366  1.00 34.23 LIG 0.04  A 
ATOM     72  CD2 TRP B1542      -2.310  39.878   6.245  1.00 31.85 LIG-0.00  A 
ATOM     73  CZ2 TRP B1542      -0.685  39.124   7.953  1.00 32.49 LIG 0.03  A 
ATOM     74  CE3 TRP B1542      -1.347  40.744   5.706  1.00 30.05 LIG 0.01  A 
ATOM     75  CZ3 TRP B1542      -0.077  40.787   6.290  1.00 29.28 LIG 0.00  A 
ATOM     76  CH2 TRP B1542       0.239  39.976   7.406  1.00 32.34 LIG 0.00  A 
ENDBRANCH 66 67
ENDBRANCH 43 66
ENDBRANCH 1 43
TORSDOF 26
ENDMDL
MODEL 77
USER: ADFR SOLUTION from run 197
USER: SCORE 20.467073 LL:  -5.595 LR: -17.019 RR:   0.000 FEB:  -9.263
USER: RMSD 6.827147
USER: SEED 196
USER: STATUS no improvement in best in 4 clusters for 5 generations
USER: GENES 28
USER: genes 0 Translation |==|  0.51143 0.49321 0.49349
USER: genes 1 Rotation |==|  0.85977 0.18163 0.36149 0.50474
USER: genes 2 Torsion [C]-N--CA-[CB] |==|  0.74076
USER: genes 3 Torsion [N]-CA--CB-[CG] |==|  0.83252
USER: genes 4 Torsion [CA]-CB--CG-[CD1] |==|  0.46030
USER: genes 5 Torsion [CE1]-CZ--OH-[HH] |==|  0.18523
USER: genes 6 Torsion [N]-CA--C-[N] |==|  0.74787
USER: genes 7 Torsion [C]-N--CA-[CB] |==|  0.78769
USER: genes 8 Torsion [N]-CA--C-[N] |==|  0.24336
USER: genes 9 Torsion [C]-N--CA-[CB] |==|  0.37403
USER: genes 10 Torsion [N]-CA--CB-[CG] |==|  0.75248
USER: genes 11 Torsion [CA]-CB--CG-[CD] |==|  0.19714
USER: genes 12 Torsion [CB]-CG--CD-[NE] |==|  0.21491
USER: genes 13 Torsion [CG]-CD--NE-[HE] |==|  0.21331
USER: genes 14 Torsion [N]-CA--C-[O] |==|  0.75302
USER: genes 15 Torsion [N]-CA--CB-[CG] |==|  0.82338
USER: genes 16 Torsion [CA]-CB--CG-[CD1] |==|  0.57598
USER: genes 17 Torsion [N]-C--CA-[N] |==|  0.16647
USER: genes 18 Torsion [C]-CA--N-[C] |==|  0.56869
USER: genes 19 Torsion [N]-C--CA-[N] |==|  0.40103
USER: genes 20 Torsion [C]-CA--N-[C] |==|  0.69368
USER: genes 21 Torsion [N]-C--CA-[N] |==|  0.00337
USER: genes 22 Torsion [C]-CA--N-[C] |==|  0.70497
USER: genes 23 Torsion [N]-C--CA-[N] |==|  0.41382
USER: genes 24 Torsion [C]-CA--CB-[CG1] |==|  0.32962
USER: genes 25 Torsion [CA]-CB--CG1-[CD1] |==|  0.71412
USER: genes 26 Torsion [C]-CA--CB-[CG] |==|  0.21974
USER: genes 27 Torsion [CA]-CB--CG-[CD1] |==|  0.15043
ROOT
ATOM      1  C   TRP B1542      -2.192  43.830   2.348  1.00 26.55 LIG 0.24  C 
ATOM      2 O    TRP B1542      -2.284  42.613   2.435  1.00 27.86 LIG-0.27  OA
ATOM      3  N   TYR B1543      -1.785  44.438   1.241  1.00 24.62 LIG-0.35  N 
ATOM      4 H    TYR B1543      -1.639  45.284   1.178  1.00 24.62 LIG 0.16  HD
ENDROOT
BRANCH 3 5
ATOM      5  CA  TYR B1543      -1.548  43.691   0.019  1.00 22.31 LIG 0.18  C 
BRANCH 5 6
ATOM      6  CB  TYR B1543      -0.069  43.303  -0.040  1.00 23.67 LIG 0.07  C 
BRANCH 6 7
ATOM      7  CG  TYR B1543       0.911  44.460  -0.044  1.00 24.58 LIG-0.06  A 
ATOM      8  CD1 TYR B1543       2.266  44.247   0.202  1.00 24.59 LIG 0.01  A 
ATOM      9  CE1 TYR B1543       3.157  45.307   0.274  1.00 26.50 LIG 0.04  A 
ATOM     10  CZ  TYR B1543       2.684  46.594   0.103  1.00 24.60 LIG 0.07  A 
ATOM     11  CE2 TYR B1543       1.335  46.824  -0.150  1.00 24.06 LIG 0.04  A 
ATOM     12  CD2 TYR B1543       0.470  45.766  -0.225  1.00 22.62 LIG 0.01  A 
BRANCH 10 13
ATOM     13 OH   TYR B1543       3.545  47.648   0.221  1.00 26.51 LIG-0.36  OA
ATOM     14 HH   TYR B1543       4.103  47.624  -0.407  1.00 26.51 LIG 0.22  HD
ENDBRANCH 10 13
ENDBRANCH 6 7
ENDBRANCH 5 6
BRANCH 5 15
ATOM     15  C   TYR B1543      -2.402  42.471  -0.287  1.00 22.90 LIG 0.24  C 
ATOM     16  N   LEU B1544      -1.956  41.300   0.147  1.00 22.60 LIG-0.35  N 
ATOM     17 H    LEU B1544      -1.242  41.191   0.612  1.00 22.60 LIG 0.16  HD
ATOM     18 O    TYR B1543      -3.446  42.586  -0.918  1.00 21.43 LIG-0.27  OA
BRANCH 16 19
ATOM     19  CA  LEU B1544      -2.688  40.081  -0.155  1.00 22.81 LIG 0.18  C 
BRANCH 19 20
ATOM     20  C   LEU B1544      -3.089  40.005  -1.625  1.00 21.53 LIG 0.24  C 
ATOM     21 O    LEU B1544      -4.187  40.422  -2.009  1.00 22.00 LIG-0.27  OA
ATOM     22  N   ARG B1545      -2.197  39.467  -2.450  1.00 20.14 LIG-0.35  N 
ATOM     23 H    ARG B1545      -1.427  39.166  -2.215  1.00 20.14 LIG 0.16  HD
BRANCH 22 24
ATOM     24  CA  ARG B1545      -2.504  39.357  -3.866  1.00 18.95 LIG 0.16  C 
BRANCH 24 25
ATOM     25  CB  ARG B1545      -1.302  39.816  -4.703  1.00 20.51 LIG 0.04  C 
BRANCH 25 26
ATOM     26  CG  ARG B1545      -1.385  41.320  -4.965  1.00 20.78 LIG 0.02  C 
BRANCH 26 27
ATOM     27  CD  ARG B1545      -1.123  42.163  -3.721  1.00 21.13 LIG 0.14  C 
BRANCH 27 28
ATOM     28  NE  ARG B1545       0.313  42.221  -3.428  1.00 20.56 LIG-0.23  N 
ATOM     29 HE   ARG B1545       0.803  42.740  -3.907  1.00 20.56 LIG 0.18  HD
ATOM     30  CZ  ARG B1545       0.900  41.518  -2.465  1.00 23.27 LIG 0.67  C 
ATOM     31  NH2 ARG B1545       2.224  41.602  -2.278  1.00 19.37 LIG-0.23  N 
ATOM     32  NH1 ARG B1545       0.167  40.714  -1.706  1.00 20.25 LIG-0.23  N 
ATOM     33 1HH2 ARG B1545       2.698  42.112  -2.782  1.00 19.37 LIG 0.17  HD
ATOM     34 2HH2 ARG B1545       2.600  41.145  -1.654  1.00 19.37 LIG 0.17  HD
ATOM     35 1HH1 ARG B1545      -0.680  40.650  -1.839  1.00 20.25 LIG 0.17  HD
ATOM     36 2HH1 ARG B1545       0.539  40.255  -1.081  1.00 20.25 LIG 0.17  HD
ENDBRANCH 27 28
ENDBRANCH 26 27
ENDBRANCH 25 26
ENDBRANCH 24 25
BRANCH 24 37
ATOM     37  C   ARG B1545      -2.968  37.960  -4.257  1.00 20.11 LIG 0.22  C 
ATOM     38 O    ARG B1545      -2.078  37.141  -4.588  1.00 20.61 LIG-0.29  OA
ENDBRANCH 24 37
ENDBRANCH 22 24
ENDBRANCH 19 20
BRANCH 19 39
ATOM     39  CB  LEU B1544      -3.924  39.983   0.749  1.00 22.71 LIG 0.04  C 
BRANCH 39 40
ATOM     40  CG  LEU B1544      -3.615  39.865   2.249  1.00 23.46 LIG-0.02  C 
ATOM     41  CD1 LEU B1544      -4.767  39.118   2.927  1.00 24.99 LIG 0.01  C 
ATOM     42  CD2 LEU B1544      -2.296  39.139   2.486  1.00 22.67 LIG 0.01  C 
ENDBRANCH 39 40
ENDBRANCH 19 39
ENDBRANCH 16 19
ENDBRANCH 5 15
ENDBRANCH 3 5
BRANCH 1 43
ATOM     43  CA  TRP B1542      -2.519  44.715   3.545  1.00 29.62 LIG 0.18  C 
BRANCH 43 44
ATOM     44  N   TRP B1542      -3.587  45.675   3.271  1.00 31.24 LIG-0.35  N 
ATOM     45  C   ALA B1541      -3.675  46.798   3.963  1.00 34.20 LIG 0.24  C 
ATOM     46 O    ALA B1541      -2.854  47.101   4.827  1.00 33.88 LIG-0.27  OA
ATOM     47 H    TRP B1542      -4.128  45.446   2.643  1.00 31.24 LIG 0.16  HD
BRANCH 45 48
ATOM     48  CA  ALA B1541      -4.851  47.729   3.633  1.00 35.59 LIG 0.17  C 
ATOM     49  CB  ALA B1541      -4.428  48.746   2.548  1.00 37.24 LIG 0.04  C 
BRANCH 48 50
ATOM     50  N   ALA B1541      -5.434  48.450   4.773  1.00 36.68 LIG-0.35  N 
ATOM     51  C   ALA B1540      -6.647  48.171   5.242  1.00 36.41 LIG 0.24  C 
ATOM     52 O    ALA B1540      -7.344  47.258   4.789  1.00 35.55 LIG-0.27  OA
ATOM     53 H    ALA B1541      -4.924  49.059   5.102  1.00 36.68 LIG 0.16  HD
BRANCH 51 54
ATOM     54  CA  ALA B1540      -7.128  49.032   6.417  1.00 37.40 LIG 0.17  C 
ATOM     55  CB  ALA B1540      -8.462  49.710   6.068  1.00 38.11 LIG 0.04  C 
BRANCH 54 56
ATOM     56  N   ALA B1540      -6.148  50.047   6.796  1.00 38.31 LIG-0.35  N 
ATOM     57 H    ALA B1540      -6.094  50.705   6.244  1.00 38.31 LIG 0.16  HD
ATOM     58  C   ILE B1539      -5.414  49.952   7.896  1.00 39.48 LIG 0.26  C 
ATOM     59 O    ILE B1539      -5.496  49.005   8.666  1.00 40.50 LIG-0.27  OA
BRANCH 58 60
ATOM     60  CA  ILE B1539      -4.419  51.086   8.149  1.00 40.24 LIG 0.40  C 
ATOM     61  N   ILE B1539      -4.201  51.328   9.612  1.00 42.50 LIG 0.61  N 
BRANCH 60 62
ATOM     62  CB  ILE B1539      -3.091  50.719   7.421  1.00 40.48 LIG 0.03  C 
ATOM     63  CG2 ILE B1539      -3.216  49.339   6.778  1.00 38.85 LIG 0.01  C 
BRANCH 62 64
ATOM     64  CG1 ILE B1539      -2.753  51.766   6.353  1.00 39.99 LIG 0.00  C 
ATOM     65  CD1 ILE B1539      -3.067  51.303   4.925  1.00 39.67 LIG 0.01  C 
ENDBRANCH 62 64
ENDBRANCH 60 62
ENDBRANCH 58 60
ENDBRANCH 54 56
ENDBRANCH 51 54
ENDBRANCH 48 50
ENDBRANCH 45 48
ENDBRANCH 43 44
BRANCH 43 66
ATOM     66  CB  TRP B1542      -2.935  43.814   4.717  1.00 29.93 LIG 0.07  C 
BRANCH 66 67
ATOM     67  CG  TRP B1542      -1.754  43.168   5.444  1.00 31.09 LIG-0.03  A 
ATOM     68  CD1 TRP B1542      -0.671  43.817   5.983  1.00 35.00 LIG 0.10  A 
ATOM     69  NE1 TRP B1542       0.177  42.911   6.592  1.00 35.42 LIG-0.36  N 
ATOM     70 HE1  TRP B1542       0.913  43.106   6.993  1.00 35.42 LIG 0.17  HD
ATOM     71  CE2 TRP B1542      -0.346  41.649   6.455  1.00 34.23 LIG 0.04  A 
ATOM     72  CD2 TRP B1542      -1.563  41.768   5.734  1.00 31.85 LIG-0.00  A 
ATOM     73  CZ2 TRP B1542       0.147  40.414   6.905  1.00 32.49 LIG 0.03  A 
ATOM     74  CE3 TRP B1542      -2.298  40.607   5.457  1.00 30.05 LIG 0.01  A 
ATOM     75  CZ3 TRP B1542      -1.809  39.376   5.905  1.00 29.28 LIG 0.00  A 
ATOM     76  CH2 TRP B1542      -0.592  39.294   6.625  1.00 32.34 LIG 0.00  A 
ENDBRANCH 66 67
ENDBRANCH 43 66
ENDBRANCH 1 43
TORSDOF 26
ENDMDL
MODEL 78
USER: ADFR SOLUTION from run 187
USER: SCORE 22.587071 LL:  -6.342 LR: -17.016 RR:   0.000 FEB:  -9.261
USER: RMSD 5.048292
USER: SEED 186
USER: STATUS no improvement in best in 13 clusters for 5 generations
USER: GENES 28
USER: genes 0 Translation |==|  0.42770 0.32470 0.53000
USER: genes 1 Rotation |==|  0.17623 0.60279 0.59490 0.85441
USER: genes 2 Torsion [C]-N--CA-[CB] |==|  0.83251
USER: genes 3 Torsion [N]-CA--CB-[CG] |==|  0.82851
USER: genes 4 Torsion [CA]-CB--CG-[CD1] |==|  0.36498
USER: genes 5 Torsion [CE1]-CZ--OH-[HH] |==|  0.91997
USER: genes 6 Torsion [N]-CA--C-[N] |==|  0.91326
USER: genes 7 Torsion [C]-N--CA-[CB] |==|  0.84996
USER: genes 8 Torsion [N]-CA--C-[N] |==|  0.41667
USER: genes 9 Torsion [C]-N--CA-[CB] |==|  0.83056
USER: genes 10 Torsion [N]-CA--CB-[CG] |==|  0.30044
USER: genes 11 Torsion [CA]-CB--CG-[CD] |==|  0.47273
USER: genes 12 Torsion [CB]-CG--CD-[NE] |==|  0.11778
USER: genes 13 Torsion [CG]-CD--NE-[HE] |==|  0.92236
USER: genes 14 Torsion [N]-CA--C-[O] |==|  0.36310
USER: genes 15 Torsion [N]-CA--CB-[CG] |==|  0.47061
USER: genes 16 Torsion [CA]-CB--CG-[CD1] |==|  0.37415
USER: genes 17 Torsion [N]-C--CA-[N] |==|  0.90107
USER: genes 18 Torsion [C]-CA--N-[C] |==|  0.84945
USER: genes 19 Torsion [N]-C--CA-[N] |==|  0.03067
USER: genes 20 Torsion [C]-CA--N-[C] |==|  0.79360
USER: genes 21 Torsion [N]-C--CA-[N] |==|  0.05167
USER: genes 22 Torsion [C]-CA--N-[C] |==|  0.14822
USER: genes 23 Torsion [N]-C--CA-[N] |==|  0.82834
USER: genes 24 Torsion [C]-CA--CB-[CG1] |==|  0.42817
USER: genes 25 Torsion [CA]-CB--CG1-[CD1] |==|  0.49587
USER: genes 26 Torsion [C]-CA--CB-[CG] |==|  0.75784
USER: genes 27 Torsion [CA]-CB--CG-[CD1] |==|  0.75887
ROOT
ATOM      1  C   TRP B1542      -4.139  40.544   3.033  1.00 26.55 LIG 0.24  C 
ATOM      2 O    TRP B1542      -3.430  40.130   2.126  1.00 27.86 LIG-0.27  OA
ATOM      3  N   TYR B1543      -3.717  41.436   3.920  1.00 24.62 LIG-0.35  N 
ATOM      4 H    TYR B1543      -4.168  41.684   4.609  1.00 24.62 LIG 0.16  HD
ENDROOT
BRANCH 3 5
ATOM      5  CA  TYR B1543      -2.420  42.074   3.783  1.00 22.31 LIG 0.18  C 
BRANCH 5 6
ATOM      6  CB  TYR B1543      -1.336  40.993   3.812  1.00 23.67 LIG 0.07  C 
BRANCH 6 7
ATOM      7  CG  TYR B1543      -1.256  40.183   5.091  1.00 24.58 LIG-0.06  A 
ATOM      8  CD1 TYR B1543      -1.199  38.791   5.051  1.00 24.59 LIG 0.01  A 
ATOM      9  CE1 TYR B1543      -1.200  38.039   6.217  1.00 26.50 LIG 0.04  A 
ATOM     10  CZ  TYR B1543      -1.262  38.689   7.434  1.00 24.60 LIG 0.07  A 
ATOM     11  CE2 TYR B1543      -1.311  40.079   7.493  1.00 24.06 LIG 0.04  A 
ATOM     12  CD2 TYR B1543      -1.303  40.806   6.333  1.00 22.62 LIG 0.01  A 
BRANCH 10 13
ATOM     13 OH   TYR B1543      -1.312  37.956   8.585  1.00 26.51 LIG-0.36  OA
ATOM     14 HH   TYR B1543      -1.682  37.218   8.431  1.00 26.51 LIG 0.22  HD
ENDBRANCH 10 13
ENDBRANCH 6 7
ENDBRANCH 5 6
BRANCH 5 15
ATOM     15  C   TYR B1543      -2.168  43.008   2.610  1.00 22.90 LIG 0.24  C 
ATOM     16  N   LEU B1544      -2.813  42.744   1.482  1.00 22.60 LIG-0.35  N 
ATOM     17 H    LEU B1544      -3.381  42.107   1.380  1.00 22.60 LIG 0.16  HD
ATOM     18 O    TYR B1543      -1.391  43.949   2.723  1.00 21.43 LIG-0.27  OA
BRANCH 16 19
ATOM     19  CA  LEU B1544      -2.581  43.559   0.300  1.00 22.81 LIG 0.18  C 
BRANCH 19 20
ATOM     20  C   LEU B1544      -1.184  43.345  -0.276  1.00 21.53 LIG 0.24  C 
ATOM     21 O    LEU B1544      -0.233  43.043   0.453  1.00 22.00 LIG-0.27  OA
ATOM     22  N   ARG B1545      -1.060  43.505  -1.589  1.00 20.14 LIG-0.35  N 
ATOM     23 H    ARG B1545      -1.700  43.716  -2.124  1.00 20.14 LIG 0.16  HD
BRANCH 22 24
ATOM     24  CA  ARG B1545       0.239  43.319  -2.215  1.00 18.95 LIG 0.16  C 
BRANCH 24 25
ATOM     25  CB  ARG B1545       1.247  44.327  -1.646  1.00 20.51 LIG 0.04  C 
BRANCH 25 26
ATOM     26  CG  ARG B1545       2.253  43.612  -0.743  1.00 20.78 LIG 0.02  C 
BRANCH 26 27
ATOM     27  CD  ARG B1545       3.425  44.496  -0.328  1.00 21.13 LIG 0.14  C 
BRANCH 27 28
ATOM     28  NE  ARG B1545       2.959  45.841   0.024  1.00 20.56 LIG-0.23  N 
ATOM     29 HE   ARG B1545       2.241  46.132  -0.350  1.00 20.56 LIG 0.18  HD
ATOM     30  CZ  ARG B1545       3.581  46.637   0.888  1.00 23.27 LIG 0.67  C 
ATOM     31  NH2 ARG B1545       3.109  47.866   1.136  1.00 19.37 LIG-0.23  N 
ATOM     32  NH1 ARG B1545       4.687  46.212   1.486  1.00 20.25 LIG-0.23  N 
ATOM     33 1HH2 ARG B1545       2.402  48.144   0.735  1.00 19.37 LIG 0.17  HD
ATOM     34 2HH2 ARG B1545       3.515  48.377   1.696  1.00 19.37 LIG 0.17  HD
ATOM     35 1HH1 ARG B1545       4.996  45.428   1.312  1.00 20.25 LIG 0.17  HD
ATOM     36 2HH1 ARG B1545       5.096  46.720   2.046  1.00 20.25 LIG 0.17  HD
ENDBRANCH 27 28
ENDBRANCH 26 27
ENDBRANCH 25 26
ENDBRANCH 24 25
BRANCH 24 37
ATOM     37  C   ARG B1545       0.742  41.886  -2.101  1.00 20.11 LIG 0.22  C 
ATOM     38 O    ARG B1545       1.154  41.347  -3.155  1.00 20.61 LIG-0.29  OA
ENDBRANCH 24 37
ENDBRANCH 22 24
ENDBRANCH 19 20
BRANCH 19 39
ATOM     39  CB  LEU B1544      -2.805  45.037   0.640  1.00 22.71 LIG 0.04  C 
BRANCH 39 40
ATOM     40  CG  LEU B1544      -2.348  46.023  -0.447  1.00 23.46 LIG-0.02  C 
ATOM     41  CD1 LEU B1544      -3.444  47.075  -0.643  1.00 24.99 LIG 0.01  C 
ATOM     42  CD2 LEU B1544      -1.031  46.689  -0.070  1.00 22.67 LIG 0.01  C 
ENDBRANCH 39 40
ENDBRANCH 19 39
ENDBRANCH 16 19
ENDBRANCH 5 15
ENDBRANCH 3 5
BRANCH 1 43
ATOM     43  CA  TRP B1542      -5.558  40.014   3.203  1.00 29.62 LIG 0.18  C 
BRANCH 43 44
ATOM     44  N   TRP B1542      -5.949  39.868   4.604  1.00 31.24 LIG-0.35  N 
ATOM     45  C   ALA B1541      -5.207  39.158   5.439  1.00 34.20 LIG 0.24  C 
ATOM     46 O    ALA B1541      -4.153  38.631   5.091  1.00 33.88 LIG-0.27  OA
ATOM     47 H    TRP B1542      -6.676  40.272   4.822  1.00 31.24 LIG 0.16  HD
BRANCH 45 48
ATOM     48  CA  ALA B1541      -5.716  39.028   6.882  1.00 35.59 LIG 0.17  C 
ATOM     49  CB  ALA B1541      -5.582  37.562   7.356  1.00 37.24 LIG 0.04  C 
BRANCH 48 50
ATOM     50  N   ALA B1541      -7.090  39.490   7.119  1.00 36.68 LIG-0.35  N 
ATOM     51  C   ALA B1540      -7.406  40.781   7.159  1.00 36.41 LIG 0.24  C 
ATOM     52 O    ALA B1540      -6.581  41.677   6.952  1.00 35.55 LIG-0.27  OA
ATOM     53 H    ALA B1541      -7.661  38.856   7.226  1.00 36.68 LIG 0.16  HD
BRANCH 51 54
ATOM     54  CA  ALA B1540      -8.877  41.106   7.446  1.00 37.40 LIG 0.17  C 
ATOM     55  CB  ALA B1540      -8.982  42.329   8.371  1.00 38.11 LIG 0.04  C 
BRANCH 54 56
ATOM     56  N   ALA B1540      -9.585  39.977   8.046  1.00 38.31 LIG-0.35  N 
ATOM     57 H    ALA B1540     -10.305  39.755   7.632  1.00 38.31 LIG 0.16  HD
ATOM     58  C   ILE B1539      -9.146  39.358   9.133  1.00 39.48 LIG 0.26  C 
ATOM     59 O    ILE B1539      -8.124  39.692   9.718  1.00 40.50 LIG-0.27  OA
BRANCH 58 60
ATOM     60  CA  ILE B1539     -10.005  38.203   9.652  1.00 40.24 LIG 0.40  C 
ATOM     61  N   ILE B1539     -11.377  38.658  10.053  1.00 42.50 LIG 0.61  N 
BRANCH 60 62
ATOM     62  CB  ILE B1539     -10.060  37.118   8.536  1.00 40.48 LIG 0.03  C 
ATOM     63  CG2 ILE B1539      -8.748  37.113   7.753  1.00 38.85 LIG 0.01  C 
BRANCH 62 64
ATOM     64  CG1 ILE B1539     -10.315  35.733   9.141  1.00 39.99 LIG 0.00  C 
ATOM     65  CD1 ILE B1539     -10.417  34.619   8.091  1.00 39.67 LIG 0.01  C 
ENDBRANCH 62 64
ENDBRANCH 60 62
ENDBRANCH 58 60
ENDBRANCH 54 56
ENDBRANCH 51 54
ENDBRANCH 48 50
ENDBRANCH 45 48
ENDBRANCH 43 44
BRANCH 43 66
ATOM     66  CB  TRP B1542      -6.525  40.981   2.506  1.00 29.93 LIG 0.07  C 
BRANCH 66 67
ATOM     67  CG  TRP B1542      -6.988  42.136   3.396  1.00 31.09 LIG-0.03  A 
ATOM     68  CD1 TRP B1542      -8.054  42.126   4.261  1.00 35.00 LIG 0.10  A 
ATOM     69  NE1 TRP B1542      -8.147  43.336   4.923  1.00 35.42 LIG-0.36  N 
ATOM     70 HE1  TRP B1542      -8.741  43.541   5.510  1.00 35.42 LIG 0.17  HD
ATOM     71  CE2 TRP B1542      -7.135  44.158   4.492  1.00 34.23 LIG 0.04  A 
ATOM     72  CD2 TRP B1542      -6.384  43.439   3.527  1.00 31.85 LIG-0.00  A 
ATOM     73  CZ2 TRP B1542      -6.816  45.472   4.871  1.00 32.49 LIG 0.03  A 
ATOM     74  CE3 TRP B1542      -5.283  44.067   2.926  1.00 30.05 LIG 0.01  A 
ATOM     75  CZ3 TRP B1542      -4.964  45.375   3.302  1.00 29.28 LIG 0.00  A 
ATOM     76  CH2 TRP B1542      -5.734  46.062   4.272  1.00 32.34 LIG 0.00  A 
ENDBRANCH 66 67
ENDBRANCH 43 66
ENDBRANCH 1 43
TORSDOF 26
ENDMDL
MODEL 79
USER: ADFR SOLUTION from run 164
USER: SCORE 20.756285 LL:  -6.684 LR: -17.008 RR:   0.000 FEB:  -9.253
USER: RMSD 7.020681
USER: SEED 163
USER: STATUS no improvement in best in 14 clusters for 5 generations
USER: GENES 28
USER: genes 0 Translation |==|  0.50075 0.32584 0.55784
USER: genes 1 Rotation |==|  0.95302 0.60411 0.38513 0.64401
USER: genes 2 Torsion [C]-N--CA-[CB] |==|  0.47876
USER: genes 3 Torsion [N]-CA--CB-[CG] |==|  0.62085
USER: genes 4 Torsion [CA]-CB--CG-[CD1] |==|  0.86274
USER: genes 5 Torsion [CE1]-CZ--OH-[HH] |==|  0.02114
USER: genes 6 Torsion [N]-CA--C-[N] |==|  0.71073
USER: genes 7 Torsion [C]-N--CA-[CB] |==|  0.78538
USER: genes 8 Torsion [N]-CA--C-[N] |==|  0.08366
USER: genes 9 Torsion [C]-N--CA-[CB] |==|  0.19415
USER: genes 10 Torsion [N]-CA--CB-[CG] |==|  0.69644
USER: genes 11 Torsion [CA]-CB--CG-[CD] |==|  0.36615
USER: genes 12 Torsion [CB]-CG--CD-[NE] |==|  0.65814
USER: genes 13 Torsion [CG]-CD--NE-[HE] |==|  0.15704
USER: genes 14 Torsion [N]-CA--C-[O] |==|  0.58340
USER: genes 15 Torsion [N]-CA--CB-[CG] |==|  0.92940
USER: genes 16 Torsion [CA]-CB--CG-[CD1] |==|  0.30139
USER: genes 17 Torsion [N]-C--CA-[N] |==|  0.01812
USER: genes 18 Torsion [C]-CA--N-[C] |==|  0.17481
USER: genes 19 Torsion [N]-C--CA-[N] |==|  0.96189
USER: genes 20 Torsion [C]-CA--N-[C] |==|  0.79046
USER: genes 21 Torsion [N]-C--CA-[N] |==|  0.94357
USER: genes 22 Torsion [C]-CA--N-[C] |==|  0.83532
USER: genes 23 Torsion [N]-C--CA-[N] |==|  0.29764
USER: genes 24 Torsion [C]-CA--CB-[CG1] |==|  0.12523
USER: genes 25 Torsion [CA]-CB--CG1-[CD1] |==|  0.52370
USER: genes 26 Torsion [C]-CA--CB-[CG] |==|  0.46453
USER: genes 27 Torsion [CA]-CB--CG-[CD1] |==|  0.12151
ROOT
ATOM      1  C   TRP B1542      -2.441  40.566   3.555  1.00 26.55 LIG 0.24  C 
ATOM      2 O    TRP B1542      -1.256  40.851   3.447  1.00 27.86 LIG-0.27  OA
ATOM      3  N   TYR B1543      -3.280  40.601   2.527  1.00 24.62 LIG-0.35  N 
ATOM      4 H    TYR B1543      -4.129  40.480   2.591  1.00 24.62 LIG 0.16  HD
ENDROOT
BRANCH 3 5
ATOM      5  CA  TYR B1543      -2.804  40.855   1.179  1.00 22.31 LIG 0.18  C 
BRANCH 5 6
ATOM      6  CB  TYR B1543      -3.964  40.644   0.202  1.00 23.67 LIG 0.07  C 
BRANCH 6 7
ATOM      7  CG  TYR B1543      -3.623  39.876  -1.060  1.00 24.58 LIG-0.06  A 
ATOM      8  CD1 TYR B1543      -2.514  40.227  -1.830  1.00 24.59 LIG 0.01  A 
ATOM      9  CE1 TYR B1543      -2.237  39.578  -3.024  1.00 26.50 LIG 0.04  A 
ATOM     10  CZ  TYR B1543      -3.080  38.572  -3.454  1.00 24.60 LIG 0.07  A 
ATOM     11  CE2 TYR B1543      -4.188  38.205  -2.693  1.00 24.06 LIG 0.04  A 
ATOM     12  CD2 TYR B1543      -4.443  38.850  -1.514  1.00 22.62 LIG 0.01  A 
BRANCH 10 13
ATOM     13 OH   TYR B1543      -2.843  37.962  -4.652  1.00 26.51 LIG-0.36  OA
ATOM     14 HH   TYR B1543      -2.106  38.224  -4.958  1.00 26.51 LIG 0.22  HD
ENDBRANCH 10 13
ENDBRANCH 6 7
ENDBRANCH 5 6
BRANCH 5 15
ATOM     15  C   TYR B1543      -2.117  42.175   0.867  1.00 22.90 LIG 0.24  C 
ATOM     16  N   LEU B1544      -2.822  43.078   0.200  1.00 22.60 LIG-0.35  N 
ATOM     17 H    LEU B1544      -3.642  42.980  -0.037  1.00 22.60 LIG 0.16  HD
ATOM     18 O    TYR B1543      -0.958  42.368   1.216  1.00 21.43 LIG-0.27  OA
BRANCH 16 19
ATOM     19  CA  LEU B1544      -2.214  44.341  -0.186  1.00 22.81 LIG 0.18  C 
BRANCH 19 20
ATOM     20  C   LEU B1544      -0.829  44.147  -0.795  1.00 21.53 LIG 0.24  C 
ATOM     21 O    LEU B1544       0.044  45.015  -0.683  1.00 22.00 LIG-0.27  OA
ATOM     22  N   ARG B1545      -0.628  43.006  -1.444  1.00 20.14 LIG-0.35  N 
ATOM     23 H    ARG B1545      -1.213  42.383  -1.541  1.00 20.14 LIG 0.16  HD
BRANCH 22 24
ATOM     24  CA  ARG B1545       0.666  42.745  -2.053  1.00 18.95 LIG 0.16  C 
BRANCH 24 25
ATOM     25  CB  ARG B1545       1.723  42.511  -0.966  1.00 20.51 LIG 0.04  C 
BRANCH 25 26
ATOM     26  CG  ARG B1545       2.692  43.693  -0.910  1.00 20.78 LIG 0.02  C 
BRANCH 26 27
ATOM     27  CD  ARG B1545       2.926  44.214   0.505  1.00 21.13 LIG 0.14  C 
BRANCH 27 28
ATOM     28  NE  ARG B1545       2.590  45.638   0.595  1.00 20.56 LIG-0.23  N 
ATOM     29 HE   ARG B1545       1.797  45.882   0.369  1.00 20.56 LIG 0.18  HD
ATOM     30  CZ  ARG B1545       3.439  46.574   1.006  1.00 23.27 LIG 0.67  C 
ATOM     31  NH2 ARG B1545       3.067  47.861   1.032  1.00 19.37 LIG-0.23  N 
ATOM     32  NH1 ARG B1545       4.667  46.226   1.369  1.00 20.25 LIG-0.23  N 
ATOM     33 1HH2 ARG B1545       2.276  48.084   0.781  1.00 19.37 LIG 0.17  HD
ATOM     34 2HH2 ARG B1545       3.619  48.463   1.299  1.00 19.37 LIG 0.17  HD
ATOM     35 1HH1 ARG B1545       4.908  45.401   1.336  1.00 20.25 LIG 0.17  HD
ATOM     36 2HH1 ARG B1545       5.223  46.825   1.636  1.00 20.25 LIG 0.17  HD
ENDBRANCH 27 28
ENDBRANCH 26 27
ENDBRANCH 25 26
ENDBRANCH 24 25
BRANCH 24 37
ATOM     37  C   ARG B1545       0.618  41.598  -3.055  1.00 20.11 LIG 0.22  C 
ATOM     38 O    ARG B1545       1.667  40.924  -3.192  1.00 20.61 LIG-0.29  OA
ENDBRANCH 24 37
ENDBRANCH 22 24
ENDBRANCH 19 20
BRANCH 19 39
ATOM     39  CB  LEU B1544      -2.144  45.272   1.032  1.00 22.71 LIG 0.04  C 
BRANCH 39 40
ATOM     40  CG  LEU B1544      -3.195  44.990   2.117  1.00 23.46 LIG-0.02  C 
ATOM     41  CD1 LEU B1544      -2.490  44.377   3.330  1.00 24.99 LIG 0.01  C 
ATOM     42  CD2 LEU B1544      -3.932  46.263   2.516  1.00 22.67 LIG 0.01  C 
ENDBRANCH 39 40
ENDBRANCH 19 39
ENDBRANCH 16 19
ENDBRANCH 5 15
ENDBRANCH 3 5
BRANCH 1 43
ATOM     43  CA  TRP B1542      -3.021  40.182   4.911  1.00 29.62 LIG 0.18  C 
BRANCH 43 44
ATOM     44  N   TRP B1542      -4.418  39.759   4.835  1.00 31.24 LIG-0.35  N 
ATOM     45  C   ALA B1541      -4.759  38.683   4.144  1.00 34.20 LIG 0.24  C 
ATOM     46 O    ALA B1541      -3.926  37.980   3.576  1.00 33.88 LIG-0.27  OA
ATOM     47 H    TRP B1542      -4.972  40.257   5.266  1.00 31.24 LIG 0.16  HD
BRANCH 45 48
ATOM     48  CA  ALA B1541      -6.254  38.337   4.089  1.00 35.59 LIG 0.17  C 
ATOM     49  CB  ALA B1541      -6.796  38.573   2.659  1.00 37.24 LIG 0.04  C 
BRANCH 48 50
ATOM     50  N   ALA B1541      -7.109  39.043   5.054  1.00 36.68 LIG-0.35  N 
ATOM     51  C   ALA B1540      -7.135  38.720   6.344  1.00 36.41 LIG 0.24  C 
ATOM     52 O    ALA B1540      -6.411  37.845   6.829  1.00 35.55 LIG-0.27  OA
ATOM     53 H    ALA B1541      -7.581  39.673   4.710  1.00 36.68 LIG 0.16  HD
BRANCH 51 54
ATOM     54  CA  ALA B1540      -8.101  39.528   7.220  1.00 37.40 LIG 0.17  C 
ATOM     55  CB  ALA B1540      -9.369  38.709   7.509  1.00 38.11 LIG 0.04  C 
BRANCH 54 56
ATOM     56  N   ALA B1540      -8.471  40.802   6.604  1.00 38.31 LIG-0.35  N 
ATOM     57 H    ALA B1540      -9.316  40.893   6.471  1.00 38.31 LIG 0.16  HD
ATOM     58  C   ILE B1539      -7.575  41.725   6.285  1.00 39.48 LIG 0.26  C 
ATOM     59 O    ILE B1539      -6.376  41.575   6.473  1.00 40.50 LIG-0.27  OA
BRANCH 58 60
ATOM     60  CA  ILE B1539      -8.115  42.999   5.632  1.00 40.24 LIG 0.40  C 
ATOM     61  N   ILE B1539      -8.077  44.170   6.567  1.00 42.50 LIG 0.61  N 
BRANCH 60 62
ATOM     62  CB  ILE B1539      -7.278  43.259   4.345  1.00 40.48 LIG 0.03  C 
ATOM     63  CG2 ILE B1539      -5.914  43.836   4.720  1.00 38.85 LIG 0.01  C 
BRANCH 62 64
ATOM     64  CG1 ILE B1539      -7.097  41.964   3.546  1.00 39.99 LIG 0.00  C 
ATOM     65  CD1 ILE B1539      -6.112  42.100   2.377  1.00 39.67 LIG 0.01  C 
ENDBRANCH 62 64
ENDBRANCH 60 62
ENDBRANCH 58 60
ENDBRANCH 54 56
ENDBRANCH 51 54
ENDBRANCH 48 50
ENDBRANCH 45 48
ENDBRANCH 43 44
BRANCH 43 66
ATOM     66  CB  TRP B1542      -2.177  39.042   5.496  1.00 29.93 LIG 0.07  C 
BRANCH 66 67
ATOM     67  CG  TRP B1542      -2.455  38.769   6.976  1.00 31.09 LIG-0.03  A 
ATOM     68  CD1 TRP B1542      -3.686  38.707   7.580  1.00 35.00 LIG 0.10  A 
ATOM     69  NE1 TRP B1542      -3.548  38.407   8.922  1.00 35.42 LIG-0.36  N 
ATOM     70 HE1  TRP B1542      -4.194  38.319   9.484  1.00 35.42 LIG 0.17  HD
ATOM     71  CE2 TRP B1542      -2.214  38.270   9.213  1.00 34.23 LIG 0.04  A 
ATOM     72  CD2 TRP B1542      -1.490  38.494   8.013  1.00 31.85 LIG-0.00  A 
ATOM     73  CZ2 TRP B1542      -1.582  37.967  10.430  1.00 32.49 LIG 0.03  A 
ATOM     74  CE3 TRP B1542      -0.091  38.413   8.045  1.00 30.05 LIG 0.01  A 
ATOM     75  CZ3 TRP B1542       0.540  38.111   9.256  1.00 29.28 LIG 0.00  A 
ATOM     76  CH2 TRP B1542      -0.213  37.891  10.434  1.00 32.34 LIG 0.00  A 
ENDBRANCH 66 67
ENDBRANCH 43 66
ENDBRANCH 1 43
TORSDOF 26
ENDMDL
MODEL 80
USER: ADFR SOLUTION from run 138
USER: SCORE 21.766384 LL:  -6.555 LR: -17.015 RR:   0.000 FEB:  -9.259
USER: RMSD 9.432681
USER: SEED 137
USER: STATUS no improvement in best in 4 clusters for 5 generations
USER: GENES 28
USER: genes 0 Translation |==|  0.51172 0.47987 0.49520
USER: genes 1 Rotation |==|  0.29576 0.30392 0.66110 0.87932
USER: genes 2 Torsion [C]-N--CA-[CB] |==|  0.78211
USER: genes 3 Torsion [N]-CA--CB-[CG] |==|  0.87992
USER: genes 4 Torsion [CA]-CB--CG-[CD1] |==|  0.96041
USER: genes 5 Torsion [CE1]-CZ--OH-[HH] |==|  0.19977
USER: genes 6 Torsion [N]-CA--C-[N] |==|  0.04043
USER: genes 7 Torsion [C]-N--CA-[CB] |==|  0.53889
USER: genes 8 Torsion [N]-CA--C-[N] |==|  0.34340
USER: genes 9 Torsion [C]-N--CA-[CB] |==|  0.22441
USER: genes 10 Torsion [N]-CA--CB-[CG] |==|  0.73031
USER: genes 11 Torsion [CA]-CB--CG-[CD] |==|  0.72004
USER: genes 12 Torsion [CB]-CG--CD-[NE] |==|  0.94861
USER: genes 13 Torsion [CG]-CD--NE-[HE] |==|  0.14362
USER: genes 14 Torsion [N]-CA--C-[O] |==|  0.05310
USER: genes 15 Torsion [N]-CA--CB-[CG] |==|  0.87153
USER: genes 16 Torsion [CA]-CB--CG-[CD1] |==|  0.42460
USER: genes 17 Torsion [N]-C--CA-[N] |==|  0.42942
USER: genes 18 Torsion [C]-CA--N-[C] |==|  0.72645
USER: genes 19 Torsion [N]-C--CA-[N] |==|  0.05626
USER: genes 20 Torsion [C]-CA--N-[C] |==|  0.13683
USER: genes 21 Torsion [N]-C--CA-[N] |==|  0.17491
USER: genes 22 Torsion [C]-CA--N-[C] |==|  0.13125
USER: genes 23 Torsion [N]-C--CA-[N] |==|  0.92638
USER: genes 24 Torsion [C]-CA--CB-[CG1] |==|  0.91322
USER: genes 25 Torsion [CA]-CB--CG1-[CD1] |==|  0.39873
USER: genes 26 Torsion [C]-CA--CB-[CG] |==|  0.33084
USER: genes 27 Torsion [CA]-CB--CG-[CD1] |==|  0.65468
ROOT
ATOM      1  C   TRP B1542      -2.186  43.570   2.380  1.00 26.55 LIG 0.24  C 
ATOM      2 O    TRP B1542      -1.333  44.440   2.278  1.00 27.86 LIG-0.27  OA
ATOM      3  N   TYR B1543      -2.930  43.423   3.469  1.00 24.62 LIG-0.35  N 
ATOM      4 H    TYR B1543      -3.481  42.775   3.596  1.00 24.62 LIG 0.16  HD
ENDROOT
BRANCH 3 5
ATOM      5  CA  TYR B1543      -2.862  44.381   4.558  1.00 22.31 LIG 0.18  C 
BRANCH 5 6
ATOM      6  CB  TYR B1543      -1.606  44.096   5.384  1.00 23.67 LIG 0.07  C 
BRANCH 6 7
ATOM      7  CG  TYR B1543      -1.332  42.633   5.674  1.00 24.58 LIG-0.06  A 
ATOM      8  CD1 TYR B1543      -2.319  41.669   5.469  1.00 24.59 LIG 0.01  A 
ATOM      9  CE1 TYR B1543      -2.102  40.340   5.800  1.00 26.50 LIG 0.04  A 
ATOM     10  CZ  TYR B1543      -0.887  39.974   6.347  1.00 24.60 LIG 0.07  A 
ATOM     11  CE2 TYR B1543       0.112  40.922   6.551  1.00 24.06 LIG 0.04  A 
ATOM     12  CD2 TYR B1543      -0.116  42.228   6.211  1.00 22.62 LIG 0.01  A 
BRANCH 10 13
ATOM     13 OH   TYR B1543      -0.683  38.677   6.721  1.00 26.51 LIG-0.36  OA
ATOM     14 HH   TYR B1543      -0.606  38.197   6.036  1.00 26.51 LIG 0.22  HD
ENDBRANCH 10 13
ENDBRANCH 6 7
ENDBRANCH 5 6
BRANCH 5 15
ATOM     15  C   TYR B1543      -2.936  45.868   4.249  1.00 22.90 LIG 0.24  C 
ATOM     16  N   LEU B1544      -3.353  46.211   3.038  1.00 22.60 LIG-0.35  N 
ATOM     17 H    LEU B1544      -3.612  45.657   2.435  1.00 22.60 LIG 0.16  HD
ATOM     18 O    TYR B1543      -2.608  46.694   5.093  1.00 21.43 LIG-0.27  OA
BRANCH 16 19
ATOM     19  CA  LEU B1544      -3.396  47.612   2.649  1.00 22.81 LIG 0.18  C 
BRANCH 19 20
ATOM     20  C   LEU B1544      -3.953  48.497   3.760  1.00 21.53 LIG 0.24  C 
ATOM     21 O    LEU B1544      -5.069  48.284   4.246  1.00 22.00 LIG-0.27  OA
ATOM     22  N   ARG B1545      -3.174  49.496   4.161  1.00 20.14 LIG-0.35  N 
ATOM     23 H    ARG B1545      -2.395  49.672   3.843  1.00 20.14 LIG 0.16  HD
BRANCH 22 24
ATOM     24  CA  ARG B1545      -3.633  50.385   5.215  1.00 18.95 LIG 0.16  C 
BRANCH 24 25
ATOM     25  CB  ARG B1545      -3.407  49.737   6.587  1.00 20.51 LIG 0.04  C 
BRANCH 25 26
ATOM     26  CG  ARG B1545      -4.693  49.066   7.072  1.00 20.78 LIG 0.02  C 
BRANCH 26 27
ATOM     27  CD  ARG B1545      -5.456  49.899   8.098  1.00 21.13 LIG 0.14  C 
BRANCH 27 28
ATOM     28  NE  ARG B1545      -4.581  50.914   8.694  1.00 20.56 LIG-0.23  N 
ATOM     29 HE   ARG B1545      -4.138  51.427   8.166  1.00 20.56 LIG 0.18  HD
ATOM     30  CZ  ARG B1545      -4.435  51.087  10.004  1.00 23.27 LIG 0.67  C 
ATOM     31  NH2 ARG B1545      -3.592  52.017  10.473  1.00 19.37 LIG-0.23  N 
ATOM     32  NH1 ARG B1545      -5.111  50.314  10.843  1.00 20.25 LIG-0.23  N 
ATOM     33 1HH2 ARG B1545      -3.143  52.505   9.926  1.00 19.37 LIG 0.17  HD
ATOM     34 2HH2 ARG B1545      -3.500  52.125  11.320  1.00 19.37 LIG 0.17  HD
ATOM     35 1HH1 ARG B1545      -5.639  49.706  10.539  1.00 20.25 LIG 0.17  HD
ATOM     36 2HH1 ARG B1545      -5.022  50.418  11.692  1.00 20.25 LIG 0.17  HD
ENDBRANCH 27 28
ENDBRANCH 26 27
ENDBRANCH 25 26
ENDBRANCH 24 25
BRANCH 24 37
ATOM     37  C   ARG B1545      -3.000  51.768   5.128  1.00 20.11 LIG 0.22  C 
ATOM     38 O    ARG B1545      -2.496  52.091   4.026  1.00 20.61 LIG-0.29  OA
ENDBRANCH 24 37
ENDBRANCH 22 24
ENDBRANCH 19 20
BRANCH 19 39
ATOM     39  CB  LEU B1544      -4.225  47.766   1.367  1.00 22.71 LIG 0.04  C 
BRANCH 39 40
ATOM     40  CG  LEU B1544      -3.895  46.749   0.263  1.00 23.46 LIG-0.02  C 
ATOM     41  CD1 LEU B1544      -5.142  46.549  -0.603  1.00 24.99 LIG 0.01  C 
ATOM     42  CD2 LEU B1544      -2.724  47.220  -0.589  1.00 22.67 LIG 0.01  C 
ENDBRANCH 39 40
ENDBRANCH 19 39
ENDBRANCH 16 19
ENDBRANCH 5 15
ENDBRANCH 3 5
BRANCH 1 43
ATOM     43  CA  TRP B1542      -2.410  42.574   1.248  1.00 29.62 LIG 0.18  C 
BRANCH 43 44
ATOM     44  N   TRP B1542      -2.038  43.105  -0.062  1.00 31.24 LIG-0.35  N 
ATOM     45  C   ALA B1541      -2.958  43.598  -0.875  1.00 34.20 LIG 0.24  C 
ATOM     46 O    ALA B1541      -4.143  43.667  -0.556  1.00 33.88 LIG-0.27  OA
ATOM     47 H    TRP B1542      -1.198  43.068  -0.244  1.00 31.24 LIG 0.16  HD
BRANCH 45 48
ATOM     48  CA  ALA B1541      -2.479  44.098  -2.246  1.00 35.59 LIG 0.17  C 
ATOM     49  CB  ALA B1541      -3.553  43.799  -3.318  1.00 37.24 LIG 0.04  C 
BRANCH 48 50
ATOM     50  N   ALA B1541      -1.183  43.575  -2.699  1.00 36.68 LIG-0.35  N 
ATOM     51  C   ALA B1540      -0.896  42.277  -2.675  1.00 36.41 LIG 0.24  C 
ATOM     52 O    ALA B1540      -1.711  41.419  -2.322  1.00 35.55 LIG-0.27  OA
ATOM     53 H    ALA B1541      -0.638  44.179  -2.976  1.00 36.68 LIG 0.16  HD
BRANCH 51 54
ATOM     54  CA  ALA B1540       0.510  41.890  -3.151  1.00 37.40 LIG 0.17  C 
ATOM     55  CB  ALA B1540       0.654  40.360  -3.197  1.00 38.11 LIG 0.04  C 
BRANCH 54 56
ATOM     56  N   ALA B1540       1.556  42.454  -2.301  1.00 38.31 LIG-0.35  N 
ATOM     57 H    ALA B1540       2.196  42.831  -2.736  1.00 38.31 LIG 0.16  HD
ATOM     58  C   ILE B1539       1.512  42.386  -0.978  1.00 39.48 LIG 0.26  C 
ATOM     59 O    ILE B1539       0.600  41.838  -0.374  1.00 40.50 LIG-0.27  OA
BRANCH 58 60
ATOM     60  CA  ILE B1539       2.689  43.009  -0.225  1.00 40.24 LIG 0.40  C 
ATOM     61  N   ILE B1539       3.942  43.017  -1.048  1.00 42.50 LIG 0.61  N 
BRANCH 60 62
ATOM     62  CB  ILE B1539       2.268  44.446   0.201  1.00 40.48 LIG 0.03  C 
ATOM     63  CG2 ILE B1539       3.506  45.333   0.330  1.00 38.85 LIG 0.01  C 
BRANCH 62 64
ATOM     64  CG1 ILE B1539       1.294  45.049  -0.817  1.00 39.99 LIG 0.00  C 
ATOM     65  CD1 ILE B1539       0.206  45.922  -0.177  1.00 39.67 LIG 0.01  C 
ENDBRANCH 62 64
ENDBRANCH 60 62
ENDBRANCH 58 60
ENDBRANCH 54 56
ENDBRANCH 51 54
ENDBRANCH 48 50
ENDBRANCH 45 48
ENDBRANCH 43 44
BRANCH 43 66
ATOM     66  CB  TRP B1542      -1.583  41.314   1.537  1.00 29.93 LIG 0.07  C 
BRANCH 66 67
ATOM     67  CG  TRP B1542      -2.427  40.046   1.686  1.00 31.09 LIG-0.03  A 
ATOM     68  CD1 TRP B1542      -2.438  39.192   2.761  1.00 35.00 LIG 0.10  A 
ATOM     69  NE1 TRP B1542      -3.351  38.174   2.556  1.00 35.42 LIG-0.36  N 
ATOM     70 HE1  TRP B1542      -3.517  37.534   3.106  1.00 35.42 LIG 0.17  HD
ATOM     71  CE2 TRP B1542      -3.949  38.352   1.334  1.00 34.23 LIG 0.04  A 
ATOM     72  CD2 TRP B1542      -3.392  39.520   0.752  1.00 31.85 LIG-0.00  A 
ATOM     73  CZ2 TRP B1542      -4.934  37.585   0.691  1.00 32.49 LIG 0.03  A 
ATOM     74  CE3 TRP B1542      -3.840  39.921  -0.515  1.00 30.05 LIG 0.01  A 
ATOM     75  CZ3 TRP B1542      -4.821  39.159  -1.156  1.00 29.28 LIG 0.00  A 
ATOM     76  CH2 TRP B1542      -5.358  38.000  -0.545  1.00 32.34 LIG 0.00  A 
ENDBRANCH 66 67
ENDBRANCH 43 66
ENDBRANCH 1 43
TORSDOF 26
ENDMDL
MODEL 81
USER: ADFR SOLUTION from run 124
USER: SCORE 20.410729 LL:  -6.576 LR: -16.986 RR:   0.000 FEB:  -9.231
USER: RMSD 4.400452
USER: SEED 123
USER: STATUS no improvement in best in 14 clusters for 5 generations
USER: GENES 28
USER: genes 0 Translation |==|  0.40750 0.39208 0.47597
USER: genes 1 Rotation |==|  0.12184 0.61976 0.48837 0.80417
USER: genes 2 Torsion [C]-N--CA-[CB] |==|  0.82516
USER: genes 3 Torsion [N]-CA--CB-[CG] |==|  0.70155
USER: genes 4 Torsion [CA]-CB--CG-[CD1] |==|  0.50578
USER: genes 5 Torsion [CE1]-CZ--OH-[HH] |==|  0.00403
USER: genes 6 Torsion [N]-CA--C-[N] |==|  0.99741
USER: genes 7 Torsion [C]-N--CA-[CB] |==|  0.77709
USER: genes 8 Torsion [N]-CA--C-[N] |==|  0.59956
USER: genes 9 Torsion [C]-N--CA-[CB] |==|  0.82570
USER: genes 10 Torsion [N]-CA--CB-[CG] |==|  0.86911
USER: genes 11 Torsion [CA]-CB--CG-[CD] |==|  0.80060
USER: genes 12 Torsion [CB]-CG--CD-[NE] |==|  0.45939
USER: genes 13 Torsion [CG]-CD--NE-[HE] |==|  0.80757
USER: genes 14 Torsion [N]-CA--C-[O] |==|  0.10023
USER: genes 15 Torsion [N]-CA--CB-[CG] |==|  0.07957
USER: genes 16 Torsion [CA]-CB--CG-[CD1] |==|  0.32474
USER: genes 17 Torsion [N]-C--CA-[N] |==|  0.66533
USER: genes 18 Torsion [C]-CA--N-[C] |==|  0.60643
USER: genes 19 Torsion [N]-C--CA-[N] |==|  0.99144
USER: genes 20 Torsion [C]-CA--N-[C] |==|  0.18412
USER: genes 21 Torsion [N]-C--CA-[N] |==|  0.11898
USER: genes 22 Torsion [C]-CA--N-[C] |==|  0.16462
USER: genes 23 Torsion [N]-C--CA-[N] |==|  0.45209
USER: genes 24 Torsion [C]-CA--CB-[CG1] |==|  0.93931
USER: genes 25 Torsion [CA]-CB--CG1-[CD1] |==|  0.44441
USER: genes 26 Torsion [C]-CA--CB-[CG] |==|  0.18574
USER: genes 27 Torsion [CA]-CB--CG-[CD1] |==|  0.16339
ROOT
ATOM      1  C   TRP B1542      -4.609  41.858   2.019  1.00 26.55 LIG 0.24  C 
ATOM      2 O    TRP B1542      -3.912  40.976   1.536  1.00 27.86 LIG-0.27  OA
ATOM      3  N   TYR B1543      -4.096  42.920   2.628  1.00 24.62 LIG-0.35  N 
ATOM      4 H    TYR B1543      -4.563  43.514   3.041  1.00 24.62 LIG 0.16  HD
ENDROOT
BRANCH 3 5
ATOM      5  CA  TYR B1543      -2.665  43.161   2.637  1.00 22.31 LIG 0.18  C 
BRANCH 5 6
ATOM      6  CB  TYR B1543      -1.979  42.014   3.384  1.00 23.67 LIG 0.07  C 
BRANCH 6 7
ATOM      7  CG  TYR B1543      -1.441  42.359   4.759  1.00 24.58 LIG-0.06  A 
ATOM      8  CD1 TYR B1543      -0.758  41.408   5.517  1.00 24.59 LIG 0.01  A 
ATOM      9  CE1 TYR B1543      -0.327  41.693   6.803  1.00 26.50 LIG 0.04  A 
ATOM     10  CZ  TYR B1543      -0.586  42.940   7.339  1.00 24.60 LIG 0.07  A 
ATOM     11  CE2 TYR B1543      -1.259  43.904   6.593  1.00 24.06 LIG 0.04  A 
ATOM     12  CD2 TYR B1543      -1.672  43.609   5.322  1.00 22.62 LIG 0.01  A 
BRANCH 10 13
ATOM     13 OH   TYR B1543      -0.208  43.212   8.622  1.00 26.51 LIG-0.36  OA
ATOM     14 HH   TYR B1543       0.182  42.542   8.947  1.00 26.51 LIG 0.22  HD
ENDBRANCH 10 13
ENDBRANCH 6 7
ENDBRANCH 5 6
BRANCH 5 15
ATOM     15  C   TYR B1543      -1.941  43.410   1.323  1.00 22.90 LIG 0.24  C 
ATOM     16  N   LEU B1544      -2.672  43.374   0.218  1.00 22.60 LIG-0.35  N 
ATOM     17 H    LEU B1544      -3.523  43.252   0.198  1.00 22.60 LIG 0.16  HD
ATOM     18 O    TYR B1543      -0.734  43.621   1.310  1.00 21.43 LIG-0.27  OA
BRANCH 16 19
ATOM     19  CA  LEU B1544      -2.042  43.545  -1.081  1.00 22.81 LIG 0.18  C 
BRANCH 19 20
ATOM     20  C   LEU B1544      -0.736  42.764  -1.191  1.00 21.53 LIG 0.24  C 
ATOM     21 O    LEU B1544      -0.605  41.661  -0.648  1.00 22.00 LIG-0.27  OA
ATOM     22  N   ARG B1545       0.235  43.339  -1.893  1.00 20.14 LIG-0.35  N 
ATOM     23 H    ARG B1545       0.177  44.104  -2.281  1.00 20.14 LIG 0.16  HD
BRANCH 22 24
ATOM     24  CA  ARG B1545       1.510  42.659  -2.044  1.00 18.95 LIG 0.16  C 
BRANCH 24 25
ATOM     25  CB  ARG B1545       2.178  42.480  -0.674  1.00 20.51 LIG 0.04  C 
BRANCH 25 26
ATOM     26  CG  ARG B1545       2.131  43.792   0.110  1.00 20.78 LIG 0.02  C 
BRANCH 26 27
ATOM     27  CD  ARG B1545       3.076  44.857  -0.441  1.00 21.13 LIG 0.14  C 
BRANCH 27 28
ATOM     28  NE  ARG B1545       2.748  46.175   0.111  1.00 20.56 LIG-0.23  N 
ATOM     29 HE   ARG B1545       2.012  46.545  -0.136  1.00 20.56 LIG 0.18  HD
ATOM     30  CZ  ARG B1545       3.521  46.831   0.970  1.00 23.27 LIG 0.67  C 
ATOM     31  NH2 ARG B1545       3.167  48.048   1.406  1.00 19.37 LIG-0.23  N 
ATOM     32  NH1 ARG B1545       4.659  46.281   1.373  1.00 20.25 LIG-0.23  N 
ATOM     33 1HH2 ARG B1545       2.437  48.407   1.130  1.00 19.37 LIG 0.17  HD
ATOM     34 2HH2 ARG B1545       3.670  48.468   1.961  1.00 19.37 LIG 0.17  HD
ATOM     35 1HH1 ARG B1545       4.891  45.507   1.079  1.00 20.25 LIG 0.17  HD
ATOM     36 2HH1 ARG B1545       5.165  46.699   1.929  1.00 20.25 LIG 0.17  HD
ENDBRANCH 27 28
ENDBRANCH 26 27
ENDBRANCH 25 26
ENDBRANCH 24 25
BRANCH 24 37
ATOM     37  C   ARG B1545       1.382  41.337  -2.790  1.00 20.11 LIG 0.22  C 
ATOM     38 O    ARG B1545       0.542  41.292  -3.720  1.00 20.61 LIG-0.29  OA
ENDBRANCH 24 37
ENDBRANCH 22 24
ENDBRANCH 19 20
BRANCH 19 39
ATOM     39  CB  LEU B1544      -1.803  45.038  -1.346  1.00 22.71 LIG 0.04  C 
BRANCH 39 40
ATOM     40  CG  LEU B1544      -1.596  45.889  -0.083  1.00 23.46 LIG-0.02  C 
ATOM     41  CD1 LEU B1544      -0.183  46.479  -0.120  1.00 24.99 LIG 0.01  C 
ATOM     42  CD2 LEU B1544      -2.636  46.998   0.012  1.00 22.67 LIG 0.01  C 
ENDBRANCH 39 40
ENDBRANCH 19 39
ENDBRANCH 16 19
ENDBRANCH 5 15
ENDBRANCH 3 5
BRANCH 1 43
ATOM     43  CA  TRP B1542      -6.128  41.753   1.970  1.00 29.62 LIG 0.18  C 
BRANCH 43 44
ATOM     44  N   TRP B1542      -6.639  40.545   2.616  1.00 31.24 LIG-0.35  N 
ATOM     45  C   ALA B1541      -7.665  39.888   2.101  1.00 34.20 LIG 0.24  C 
ATOM     46 O    ALA B1541      -8.203  40.235   1.052  1.00 33.88 LIG-0.27  OA
ATOM     47 H    TRP B1542      -6.223  40.314   3.333  1.00 31.24 LIG 0.16  HD
BRANCH 45 48
ATOM     48  CA  ALA B1541      -8.157  38.653   2.869  1.00 35.59 LIG 0.17  C 
ATOM     49  CB  ALA B1541      -9.643  38.834   3.260  1.00 37.24 LIG 0.04  C 
BRANCH 48 50
ATOM     50  N   ALA B1541      -7.381  38.294   4.064  1.00 36.68 LIG-0.35  N 
ATOM     51  C   ALA B1540      -7.340  39.073   5.142  1.00 36.41 LIG 0.24  C 
ATOM     52 O    ALA B1540      -7.988  40.120   5.234  1.00 35.55 LIG-0.27  OA
ATOM     53 H    ALA B1541      -6.964  37.545   4.001  1.00 36.68 LIG 0.16  HD
BRANCH 51 54
ATOM     54  CA  ALA B1540      -6.462  38.577   6.297  1.00 37.40 LIG 0.17  C 
ATOM     55  CB  ALA B1540      -6.212  39.713   7.301  1.00 38.11 LIG 0.04  C 
BRANCH 54 56
ATOM     56  N   ALA B1540      -5.182  38.047   5.830  1.00 38.31 LIG-0.35  N 
ATOM     57 H    ALA B1540      -5.046  37.224   6.043  1.00 38.31 LIG 0.16  HD
ATOM     58  C   ILE B1539      -4.318  38.778   5.141  1.00 39.48 LIG 0.26  C 
ATOM     59 O    ILE B1539      -4.523  39.950   4.856  1.00 40.50 LIG-0.27  OA
BRANCH 58 60
ATOM     60  CA  ILE B1539      -3.014  38.087   4.737  1.00 40.24 LIG 0.40  C 
ATOM     61  N   ILE B1539      -2.304  38.823   3.640  1.00 42.50 LIG 0.61  N 
BRANCH 60 62
ATOM     62  CB  ILE B1539      -2.131  37.962   6.014  1.00 40.48 LIG 0.03  C 
ATOM     63  CG2 ILE B1539      -0.661  38.163   5.651  1.00 38.85 LIG 0.01  C 
BRANCH 62 64
ATOM     64  CG1 ILE B1539      -2.557  38.990   7.069  1.00 39.99 LIG 0.00  C 
ATOM     65  CD1 ILE B1539      -2.098  38.632   8.488  1.00 39.67 LIG 0.01  C 
ENDBRANCH 62 64
ENDBRANCH 60 62
ENDBRANCH 58 60
ENDBRANCH 54 56
ENDBRANCH 51 54
ENDBRANCH 48 50
ENDBRANCH 45 48
ENDBRANCH 43 44
BRANCH 43 66
ATOM     66  CB  TRP B1542      -6.724  42.987   2.660  1.00 29.93 LIG 0.07  C 
BRANCH 66 67
ATOM     67  CG  TRP B1542      -6.462  44.296   1.912  1.00 31.09 LIG-0.03  A 
ATOM     68  CD1 TRP B1542      -6.838  44.592   0.625  1.00 35.00 LIG 0.10  A 
ATOM     69  NE1 TRP B1542      -6.459  45.881   0.299  1.00 35.42 LIG-0.36  N 
ATOM     70 HE1  TRP B1542      -6.599  46.268  -0.456  1.00 35.42 LIG 0.17  HD
ATOM     71  CE2 TRP B1542      -5.825  46.445   1.378  1.00 34.23 LIG 0.04  A 
ATOM     72  CD2 TRP B1542      -5.803  45.477   2.415  1.00 31.85 LIG-0.00  A 
ATOM     73  CZ2 TRP B1542      -5.270  47.726   1.531  1.00 32.49 LIG 0.03  A 
ATOM     74  CE3 TRP B1542      -5.201  45.810   3.636  1.00 30.05 LIG 0.01  A 
ATOM     75  CZ3 TRP B1542      -4.648  47.086   3.790  1.00 29.28 LIG 0.00  A 
ATOM     76  CH2 TRP B1542      -4.690  48.029   2.735  1.00 32.34 LIG 0.00  A 
ENDBRANCH 66 67
ENDBRANCH 43 66
ENDBRANCH 1 43
TORSDOF 26
ENDMDL
MODEL 82
USER: ADFR SOLUTION from run 178
USER: SCORE 21.973130 LL:  -6.035 LR: -16.989 RR:   0.000 FEB:  -9.233
USER: RMSD 8.729791
USER: SEED 177
USER: STATUS no improvement in best in 9 clusters for 5 generations
USER: GENES 28
USER: genes 0 Translation |==|  0.51712 0.48884 0.48991
USER: genes 1 Rotation |==|  0.27773 0.22696 0.64490 0.82411
USER: genes 2 Torsion [C]-N--CA-[CB] |==|  0.83016
USER: genes 3 Torsion [N]-CA--CB-[CG] |==|  0.88202
USER: genes 4 Torsion [CA]-CB--CG-[CD1] |==|  0.95284
USER: genes 5 Torsion [CE1]-CZ--OH-[HH] |==|  0.94026
USER: genes 6 Torsion [N]-CA--C-[N] |==|  0.83890
USER: genes 7 Torsion [C]-N--CA-[CB] |==|  0.84245
USER: genes 8 Torsion [N]-CA--C-[N] |==|  0.38813
USER: genes 9 Torsion [C]-N--CA-[CB] |==|  0.19341
USER: genes 10 Torsion [N]-CA--CB-[CG] |==|  0.67164
USER: genes 11 Torsion [CA]-CB--CG-[CD] |==|  0.74123
USER: genes 12 Torsion [CB]-CG--CD-[NE] |==|  0.54813
USER: genes 13 Torsion [CG]-CD--NE-[HE] |==|  0.15915
USER: genes 14 Torsion [N]-CA--C-[O] |==|  0.74321
USER: genes 15 Torsion [N]-CA--CB-[CG] |==|  0.78477
USER: genes 16 Torsion [CA]-CB--CG-[CD1] |==|  0.22671
USER: genes 17 Torsion [N]-C--CA-[N] |==|  0.99374
USER: genes 18 Torsion [C]-CA--N-[C] |==|  0.76885
USER: genes 19 Torsion [N]-C--CA-[N] |==|  0.13612
USER: genes 20 Torsion [C]-CA--N-[C] |==|  0.67778
USER: genes 21 Torsion [N]-C--CA-[N] |==|  0.87263
USER: genes 22 Torsion [C]-CA--N-[C] |==|  0.85540
USER: genes 23 Torsion [N]-C--CA-[N] |==|  0.29784
USER: genes 24 Torsion [C]-CA--CB-[CG1] |==|  0.50095
USER: genes 25 Torsion [CA]-CB--CG1-[CD1] |==|  0.60806
USER: genes 26 Torsion [C]-CA--CB-[CG] |==|  0.14345
USER: genes 27 Torsion [CA]-CB--CG-[CD1] |==|  0.68701
ROOT
ATOM      1  C   TRP B1542      -2.060  43.744   2.281  1.00 26.55 LIG 0.24  C 
ATOM      2 O    TRP B1542      -1.333  44.712   2.457  1.00 27.86 LIG-0.27  OA
ATOM      3  N   TYR B1543      -3.128  43.507   3.032  1.00 24.62 LIG-0.35  N 
ATOM      4 H    TYR B1543      -3.610  42.796   2.978  1.00 24.62 LIG 0.16  HD
ENDROOT
BRANCH 3 5
ATOM      5  CA  TYR B1543      -3.571  44.463   4.031  1.00 22.31 LIG 0.18  C 
BRANCH 5 6
ATOM      6  CB  TYR B1543      -2.455  44.646   5.063  1.00 23.67 LIG 0.07  C 
BRANCH 6 7
ATOM      7  CG  TYR B1543      -1.759  43.374   5.504  1.00 24.58 LIG-0.06  A 
ATOM      8  CD1 TYR B1543      -2.339  42.127   5.273  1.00 24.59 LIG 0.01  A 
ATOM      9  CE1 TYR B1543      -1.746  40.963   5.739  1.00 26.50 LIG 0.04  A 
ATOM     10  CZ  TYR B1543      -0.563  41.049   6.447  1.00 24.60 LIG 0.07  A 
ATOM     11  CE2 TYR B1543       0.034  42.285   6.680  1.00 24.06 LIG 0.04  A 
ATOM     12  CD2 TYR B1543      -0.561  43.424   6.207  1.00 22.62 LIG 0.01  A 
BRANCH 10 13
ATOM     13 OH   TYR B1543       0.003  39.913   6.951  1.00 26.51 LIG-0.36  OA
ATOM     14 HH   TYR B1543      -0.583  39.315   7.020  1.00 26.51 LIG 0.22  HD
ENDBRANCH 10 13
ENDBRANCH 6 7
ENDBRANCH 5 6
BRANCH 5 15
ATOM     15  C   TYR B1543      -4.073  45.827   3.585  1.00 22.90 LIG 0.24  C 
ATOM     16  N   LEU B1544      -3.239  46.574   2.876  1.00 22.60 LIG-0.35  N 
ATOM     17 H    LEU B1544      -2.454  46.328   2.626  1.00 22.60 LIG 0.16  HD
ATOM     18 O    TYR B1543      -5.199  46.203   3.891  1.00 21.43 LIG-0.27  OA
BRANCH 16 19
ATOM     19  CA  LEU B1544      -3.627  47.913   2.462  1.00 22.81 LIG 0.18  C 
BRANCH 19 20
ATOM     20  C   LEU B1544      -3.777  48.857   3.652  1.00 21.53 LIG 0.24  C 
ATOM     21 O    LEU B1544      -4.302  48.478   4.704  1.00 22.00 LIG-0.27  OA
ATOM     22  N   ARG B1545      -3.318  50.093   3.483  1.00 20.14 LIG-0.35  N 
ATOM     23 H    ARG B1545      -2.950  50.388   2.764  1.00 20.14 LIG 0.16  HD
BRANCH 22 24
ATOM     24  CA  ARG B1545      -3.424  51.053   4.569  1.00 18.95 LIG 0.16  C 
BRANCH 24 25
ATOM     25  CB  ARG B1545      -2.474  50.666   5.710  1.00 20.51 LIG 0.04  C 
BRANCH 25 26
ATOM     26  CG  ARG B1545      -3.270  50.376   6.983  1.00 20.78 LIG 0.02  C 
BRANCH 26 27
ATOM     27  CD  ARG B1545      -3.415  51.593   7.892  1.00 21.13 LIG 0.14  C 
BRANCH 27 28
ATOM     28  NE  ARG B1545      -3.807  51.184   9.245  1.00 20.56 LIG-0.23  N 
ATOM     29 HE   ARG B1545      -3.300  50.630   9.663  1.00 20.56 LIG 0.18  HD
ATOM     30  CZ  ARG B1545      -4.900  51.620   9.862  1.00 23.27 LIG 0.67  C 
ATOM     31  NH2 ARG B1545      -5.208  51.176  11.088  1.00 19.37 LIG-0.23  N 
ATOM     32  NH1 ARG B1545      -5.698  52.482   9.243  1.00 20.25 LIG-0.23  N 
ATOM     33 1HH2 ARG B1545      -4.697  50.606  11.479  1.00 19.37 LIG 0.17  HD
ATOM     34 2HH2 ARG B1545      -5.916  51.461  11.483  1.00 19.37 LIG 0.17  HD
ATOM     35 1HH1 ARG B1545      -5.506  52.752   8.449  1.00 20.25 LIG 0.17  HD
ATOM     36 2HH1 ARG B1545      -6.407  52.769   9.635  1.00 20.25 LIG 0.17  HD
ENDBRANCH 27 28
ENDBRANCH 26 27
ENDBRANCH 25 26
ENDBRANCH 24 25
BRANCH 24 37
ATOM     37  C   ARG B1545      -3.200  52.486   4.104  1.00 20.11 LIG 0.22  C 
ATOM     38 O    ARG B1545      -2.028  52.927   4.178  1.00 20.61 LIG-0.29  OA
ENDBRANCH 24 37
ENDBRANCH 22 24
ENDBRANCH 19 20
BRANCH 19 39
ATOM     39  CB  LEU B1544      -4.930  47.847   1.656  1.00 22.71 LIG 0.04  C 
BRANCH 39 40
ATOM     40  CG  LEU B1544      -4.763  47.373   0.204  1.00 23.46 LIG-0.02  C 
ATOM     41  CD1 LEU B1544      -4.694  45.843   0.196  1.00 24.99 LIG 0.01  C 
ATOM     42  CD2 LEU B1544      -5.912  47.859  -0.671  1.00 22.67 LIG 0.01  C 
ENDBRANCH 39 40
ENDBRANCH 19 39
ENDBRANCH 16 19
ENDBRANCH 5 15
ENDBRANCH 3 5
BRANCH 1 43
ATOM     43  CA  TRP B1542      -1.742  42.732   1.187  1.00 29.62 LIG 0.18  C 
BRANCH 43 44
ATOM     44  N   TRP B1542      -2.665  41.598   1.173  1.00 31.24 LIG-0.35  N 
ATOM     45  C   ALA B1541      -2.481  40.570   1.985  1.00 34.20 LIG 0.24  C 
ATOM     46 O    ALA B1541      -1.564  40.539   2.802  1.00 33.88 LIG-0.27  OA
ATOM     47 H    TRP B1542      -3.312  41.663   0.609  1.00 31.24 LIG 0.16  HD
BRANCH 45 48
ATOM     48  CA  ALA B1541      -3.478  39.407   1.873  1.00 35.59 LIG 0.17  C 
ATOM     49  CB  ALA B1541      -3.017  38.232   2.767  1.00 37.24 LIG 0.04  C 
BRANCH 48 50
ATOM     50  N   ALA B1541      -3.731  38.912   0.513  1.00 36.68 LIG-0.35  N 
ATOM     51  C   ALA B1540      -4.927  39.000  -0.062  1.00 36.41 LIG 0.24  C 
ATOM     52 O    ALA B1540      -5.891  39.547   0.483  1.00 35.55 LIG-0.27  OA
ATOM     53 H    ALA B1541      -3.042  38.567   0.131  1.00 36.68 LIG 0.16  HD
BRANCH 51 54
ATOM     54  CA  ALA B1540      -5.040  38.411  -1.474  1.00 37.40 LIG 0.17  C 
ATOM     55  CB  ALA B1540      -5.111  36.877  -1.406  1.00 38.11 LIG 0.04  C 
BRANCH 54 56
ATOM     56  N   ALA B1540      -3.926  38.812  -2.331  1.00 38.31 LIG-0.35  N 
ATOM     57 H    ALA B1540      -3.529  38.155  -2.718  1.00 38.31 LIG 0.16  HD
ATOM     58  C   ILE B1539      -3.571  40.079  -2.489  1.00 39.48 LIG 0.26  C 
ATOM     59 O    ILE B1539      -4.140  41.002  -1.923  1.00 40.50 LIG-0.27  OA
BRANCH 58 60
ATOM     60  CA  ILE B1539      -2.374  40.340  -3.406  1.00 40.24 LIG 0.40  C 
ATOM     61  N   ILE B1539      -2.788  40.940  -4.716  1.00 42.50 LIG 0.61  N 
BRANCH 60 62
ATOM     62  CB  ILE B1539      -1.383  41.262  -2.636  1.00 40.48 LIG 0.03  C 
ATOM     63  CG2 ILE B1539      -0.949  40.587  -1.336  1.00 38.85 LIG 0.01  C 
BRANCH 62 64
ATOM     64  CG1 ILE B1539      -0.155  41.576  -3.498  1.00 39.99 LIG 0.00  C 
ATOM     65  CD1 ILE B1539       1.158  41.597  -2.705  1.00 39.67 LIG 0.01  C 
ENDBRANCH 62 64
ENDBRANCH 60 62
ENDBRANCH 58 60
ENDBRANCH 54 56
ENDBRANCH 51 54
ENDBRANCH 48 50
ENDBRANCH 45 48
ENDBRANCH 43 44
BRANCH 43 66
ATOM     66  CB  TRP B1542      -1.798  43.447  -0.170  1.00 29.93 LIG 0.07  C 
BRANCH 66 67
ATOM     67  CG  TRP B1542      -0.953  44.722  -0.227  1.00 31.09 LIG-0.03  A 
ATOM     68  CD1 TRP B1542      -1.420  46.008  -0.341  1.00 35.00 LIG 0.10  A 
ATOM     69  NE1 TRP B1542      -0.367  46.903  -0.326  1.00 35.42 LIG-0.36  N 
ATOM     70 HE1  TRP B1542      -0.437  47.759  -0.384  1.00 35.42 LIG 0.17  HD
ATOM     71  CE2 TRP B1542       0.809  46.207  -0.202  1.00 34.23 LIG 0.04  A 
ATOM     72  CD2 TRP B1542       0.483  44.827  -0.139  1.00 31.85 LIG-0.00  A 
ATOM     73  CZ2 TRP B1542       2.132  46.672  -0.138  1.00 32.49 LIG 0.03  A 
ATOM     74  CE3 TRP B1542       1.522  43.894  -0.013  1.00 30.05 LIG 0.01  A 
ATOM     75  CZ3 TRP B1542       2.840  44.356   0.051  1.00 29.28 LIG 0.00  A 
ATOM     76  CH2 TRP B1542       3.130  45.740  -0.012  1.00 32.34 LIG 0.00  A 
ENDBRANCH 66 67
ENDBRANCH 43 66
ENDBRANCH 1 43
TORSDOF 26
ENDMDL
