MODEL 1
USER: ADFR SOLUTION from run 141
USER: SCORE 22.522388 LL:  -3.968 LR: -21.447 RR:   0.000 FEB: -12.498
USER: RMSD 9.105716
USER: SEED 140
USER: STATUS searching
USER: GENES 32
USER: genes 0 Translation |==|  0.77384 0.60834 0.47708
USER: genes 1 Rotation |==|  0.35610 0.87275 0.79971 0.52285
USER: genes 2 Torsion [N]-CA--C-[N] |==|  0.13889
USER: genes 3 Torsion [C]-N--CA-[CB] |==|  0.26928
USER: genes 4 Torsion [N]-CA--CB-[CG] |==|  0.66238
USER: genes 5 Torsion [CA]-CB--CG-[CD] |==|  0.82102
USER: genes 6 Torsion [CB]-CG--CD-[OE1] |==|  0.00486
USER: genes 7 Torsion [N]-CA--C-[N] |==|  0.25091
USER: genes 8 Torsion [C]-N--CA-[CB] |==|  0.77355
USER: genes 9 Torsion [N]-CA--C-[N] |==|  0.25129
USER: genes 10 Torsion [C]-N--CA-[CB] |==|  0.21120
USER: genes 11 Torsion [N]-CA--C-[O] |==|  0.99185
USER: genes 12 Torsion [N]-CA--CB-[CG2] |==|  0.49017
USER: genes 13 Torsion [CA]-CB--OG1-[HG1] |==|  0.99885
USER: genes 14 Torsion [C]-CA--CB-[CG] |==|  0.60343
USER: genes 15 Torsion [CA]-CB--CG-[CD] |==|  0.26525
USER: genes 16 Torsion [CB]-CG--CD-[CE] |==|  0.04441
USER: genes 17 Torsion [CG]-CD--CE-[NZ] |==|  0.46978
USER: genes 18 Torsion [CD]-CE--NZ-[HZ2] |==|  0.64927
USER: genes 19 Torsion [C]-CA--N-[C] |==|  0.71066
USER: genes 20 Torsion [N]-C--CA-[N] |==|  0.98092
USER: genes 21 Torsion [C]-CA--CB-[CG2] |==|  0.43676
USER: genes 22 Torsion [CA]-CB--OG1-[HG1] |==|  0.46408
USER: genes 23 Torsion [C]-CA--N-[C] |==|  0.79246
USER: genes 24 Torsion [N]-C--CA-[N] |==|  0.58748
USER: genes 25 Torsion [C]-CA--CB-[CG] |==|  0.49194
USER: genes 26 Torsion [CA]-CB--CG-[CD] |==|  0.69888
USER: genes 27 Torsion [CB]-CG--CD-[NE] |==|  0.63920
USER: genes 28 Torsion [CG]-CD--NE-[HE] |==|  0.91878
USER: genes 29 Torsion [C]-CA--N-[C] |==|  0.61527
USER: genes 30 Torsion [N]-C--CA-[N] |==|  0.13712
USER: genes 31 Torsion [C]-CA--N-[H2] |==|  0.57310
ROOT
ATOM      1  CA  LYS B   4      -6.170  12.257  13.127  1.00 37.28 LIG 0.18  C 
ENDROOT
BRANCH 1 2
ATOM      2  C   LYS B   4      -5.913  13.634  13.698  1.00 39.57 LIG 0.24  C 
ATOM      3 O    LYS B   4      -5.203  14.451  13.108  1.00 42.15 LIG-0.27  OA
ATOM      4  N   GLN B   5      -6.503  13.894  14.851  1.00 37.54 LIG-0.35  N 
ATOM      5 H    GLN B   5      -6.981  13.335  15.296  1.00 37.54 LIG 0.16  HD
BRANCH 4 6
ATOM      6  CA  GLN B   5      -6.363  15.204  15.451  1.00 44.43 LIG 0.18  C 
BRANCH 6 7
ATOM      7  CB  GLN B   5      -7.557  16.081  15.122  1.00 42.91 LIG 0.04  C 
BRANCH 7 8
ATOM      8  CG  GLN B   5      -7.147  17.327  14.414  1.00 46.61 LIG 0.10  C 
BRANCH 8 9
ATOM      9  CD  GLN B   5      -6.301  18.194  15.276  1.00 50.89 LIG 0.21  C 
ATOM     10  NE2 GLN B   5      -5.921  19.357  14.743  1.00 54.67 LIG-0.37  N 
ATOM     11 21HE GLN B   5      -6.162  19.563  13.944  1.00 54.67 LIG 0.16  HD
ATOM     12 22HE GLN B   5      -5.436  19.901  15.199  1.00 54.67 LIG 0.16  HD
ATOM     13 OE1  GLN B   5      -5.986  17.841  16.423  1.00 48.99 LIG-0.27  OA
ENDBRANCH 8 9
ENDBRANCH 7 8
ENDBRANCH 6 7
BRANCH 6 14
ATOM     14  C   GLN B   5      -6.151  15.106  16.959  1.00 45.34 LIG 0.24  C 
ATOM     15 O    GLN B   5      -7.109  15.131  17.725  1.00 47.84 LIG-0.27  OA
ATOM     16  N   THR B   6      -4.897  15.026  17.388  1.00 44.99 LIG-0.34  N 
ATOM     17 H    THR B   6      -4.204  15.056  16.881  1.00 44.99 LIG 0.16  HD
BRANCH 16 18
ATOM     18  CA  THR B   6      -4.620  14.876  18.809  1.00 47.63 LIG 0.20  C 
BRANCH 18 19
ATOM     19  C   THR B   6      -5.530  13.837  19.467  1.00 49.11 LIG 0.24  C 
ATOM     20 O    THR B   6      -6.601  14.173  19.966  1.00 51.64 LIG-0.27  OA
ATOM     21  N   ALA B   7      -5.089  12.584  19.489  1.00 46.55 LIG-0.35  N 
ATOM     22 H    ALA B   7      -4.357  12.327  19.119  1.00 46.55 LIG 0.16  HD
BRANCH 21 23
ATOM     23  CA  ALA B   7      -5.831  11.522  20.159  1.00 49.58 LIG 0.16  C 
ATOM     24  CB  ALA B   7      -7.048  11.090  19.313  1.00 45.32 LIG 0.04  C 
BRANCH 23 25
ATOM     25  C   ALA B   7      -4.910  10.332  20.448  1.00 53.19 LIG 0.22  C 
ATOM     26 O    ALA B   7      -3.724  10.343  20.069  1.00 57.48 LIG-0.29  OA
ENDBRANCH 23 25
ENDBRANCH 21 23
ENDBRANCH 18 19
BRANCH 18 27
ATOM     27  CB  THR B   6      -4.675  16.228  19.560  1.00 48.13 LIG 0.15  C 
ATOM     28  CG2 THR B   6      -4.466  16.009  21.049  1.00 44.70 LIG 0.04  C 
BRANCH 27 29
ATOM     29 OG1  THR B   6      -3.672  17.122  19.049  1.00 42.78 LIG-0.39  OA
ATOM     30 HG1  THR B   6      -3.239  16.739  18.440  1.00 42.78 LIG 0.21  HD
ENDBRANCH 27 29
ENDBRANCH 18 27
ENDBRANCH 16 18
ENDBRANCH 6 14
ENDBRANCH 4 6
ENDBRANCH 1 2
BRANCH 1 31
ATOM     31  CB  LYS B   4      -5.596  12.206  11.709  1.00 35.55 LIG 0.04  C 
BRANCH 31 32
ATOM     32  CG  LYS B   4      -6.408  11.426  10.752  1.00 39.70 LIG 0.00  C 
BRANCH 32 33
ATOM     33  CD  LYS B   4      -7.326  12.345   9.985  1.00 40.13 LIG 0.03  C 
BRANCH 33 34
ATOM     34  CE  LYS B   4      -6.877  13.773  10.131  1.00 42.33 LIG 0.23  C 
BRANCH 34 35
ATOM     35  NZ  LYS B   4      -7.588  14.667   9.194  1.00 43.53 LIG-0.08  N 
ATOM     36 HZ3  LYS B   4      -8.093  14.180   8.646  1.00 43.53 LIG 0.27  HD
ATOM     37 HZ1  LYS B   4      -8.103  15.229   9.653  1.00 43.53 LIG 0.27  HD
ATOM     38 HZ2  LYS B   4      -6.996  15.130   8.718  1.00 43.53 LIG 0.27  HD
ENDBRANCH 34 35
ENDBRANCH 33 34
ENDBRANCH 32 33
ENDBRANCH 31 32
ENDBRANCH 1 31
BRANCH 1 39
ATOM     39  N   LYS B   4      -7.600  11.985  13.121  1.00 32.65 LIG-0.35  N 
ATOM     40  C   THR B   3      -8.161  11.175  14.012  1.00 34.58 LIG 0.24  C 
ATOM     41 O    THR B   3      -7.506  10.528  14.814  1.00 36.58 LIG-0.27  OA
ATOM     42 H    LYS B   4      -8.036  12.391  12.501  1.00 32.65 LIG 0.16  HD
BRANCH 40 43
ATOM     43  CA  THR B   3      -9.676  11.055  13.978  1.00 32.52 LIG 0.20  C 
BRANCH 43 44
ATOM     44  CB  THR B   3     -10.054   9.630  13.617  1.00 35.15 LIG 0.15  C 
ATOM     45  CG2 THR B   3     -11.454   9.321  14.103  1.00 35.84 LIG 0.04  C 
BRANCH 44 46
ATOM     46 OG1  THR B   3      -9.989   9.484  12.194  1.00 37.78 LIG-0.39  OA
ATOM     47 HG1  THR B   3     -10.021   8.669  11.995  1.00 37.78 LIG 0.21  HD
ENDBRANCH 44 46
ENDBRANCH 43 44
BRANCH 43 48
ATOM     48  N   THR B   3     -10.217  12.021  13.032  1.00 36.19 LIG-0.34  N 
ATOM     49  C   ARG B   2     -10.275  13.313  13.318  1.00 33.52 LIG 0.24  C 
ATOM     50 O    ARG B   2     -10.030  13.760  14.420  1.00 34.90 LIG-0.27  OA
ATOM     51 H    THR B   3     -10.487  11.679  12.290  1.00 36.19 LIG 0.16  HD
BRANCH 49 52
ATOM     52  CA  ARG B   2     -10.641  14.247  12.183  1.00 37.04 LIG 0.18  C 
BRANCH 52 53
ATOM     53  CB  ARG B   2     -10.197  13.590  10.890  1.00 37.98 LIG 0.04  C 
BRANCH 53 54
ATOM     54  CG  ARG B   2     -10.548  14.360   9.639  1.00 44.54 LIG 0.02  C 
BRANCH 54 55
ATOM     55  CD  ARG B   2     -11.645  13.600   8.954  1.00 45.57 LIG 0.14  C 
BRANCH 55 56
ATOM     56  NE  ARG B   2     -11.294  13.413   7.556  1.00 45.97 LIG-0.23  N 
ATOM     57  CZ  ARG B   2     -11.688  12.387   6.815  1.00 44.90 LIG 0.67  C 
ATOM     58  NH1 ARG B   2     -12.445  11.423   7.335  1.00 46.97 LIG-0.23  N 
ATOM     59  NH2 ARG B   2     -11.301  12.322   5.557  1.00 41.82 LIG-0.23  N 
ATOM     60 2HH1 ARG B   2     -12.696  10.761   6.845  1.00 46.97 LIG 0.17  HD
ATOM     61 1HH1 ARG B   2     -12.683  11.461   8.161  1.00 46.97 LIG 0.17  HD
ATOM     62 2HH2 ARG B   2     -11.549  11.662   5.065  1.00 41.82 LIG 0.17  HD
ATOM     63 1HH2 ARG B   2     -10.800  12.939   5.229  1.00 41.82 LIG 0.17  HD
ATOM     64 HE   ARG B   2     -10.796  14.008   7.186  1.00 45.97 LIG 0.18  HD
ENDBRANCH 55 56
ENDBRANCH 54 55
ENDBRANCH 53 54
ENDBRANCH 52 53
BRANCH 52 65
ATOM     65  N   ARG B   2      -9.983  15.531  12.370  1.00 35.35 LIG-0.35  N 
ATOM     66 H    ARG B   2      -9.167  15.482  12.639  1.00 35.35 LIG 0.16  HD
ATOM     67  C   ALA B   1     -10.623  16.665  12.135  1.00 38.28 LIG 0.25  C 
ATOM     68 O    ALA B   1     -11.765  16.692  11.678  1.00 39.08 LIG-0.27  OA
BRANCH 67 69
ATOM     69  CA  ALA B   1      -9.874  17.958  12.429  1.00 38.95 LIG 0.27  C 
ATOM     70  CB  ALA B   1     -10.650  19.166  11.927  1.00 37.91 LIG 0.05  C 
BRANCH 69 71
ATOM     71  N   ALA B   1      -8.546  17.919  11.819  1.00 44.33 LIG-0.07  N 
ATOM     72 H1   ALA B   1      -8.597  18.202  10.977  1.00 44.33 LIG 0.28  HD
ATOM     73 H2   ALA B   1      -7.994  18.447  12.275  1.00 44.33 LIG 0.28  HD
ATOM     74 H3   ALA B   1      -8.237  17.084  11.833  1.00 44.33 LIG 0.28  HD
ENDBRANCH 69 71
ENDBRANCH 67 69
ENDBRANCH 52 65
ENDBRANCH 49 52
ENDBRANCH 43 48
ENDBRANCH 40 43
ENDBRANCH 1 39
TORSDOF 30
ENDMDL
MODEL 2
USER: ADFR SOLUTION from run 71
USER: SCORE 23.279518 LL:  -4.934 LR: -21.428 RR:   0.000 FEB: -12.479
USER: RMSD 8.080546
USER: SEED 70
USER: STATUS no improvement in best in 9 clusters for 5 generations
USER: GENES 32
USER: genes 0 Translation |==|  0.68172 0.60641 0.44491
USER: genes 1 Rotation |==|  0.38819 0.46077 0.92101 0.74230
USER: genes 2 Torsion [N]-CA--C-[N] |==|  0.75811
USER: genes 3 Torsion [C]-N--CA-[CB] |==|  0.14623
USER: genes 4 Torsion [N]-CA--CB-[CG] |==|  0.68490
USER: genes 5 Torsion [CA]-CB--CG-[CD] |==|  0.97564
USER: genes 6 Torsion [CB]-CG--CD-[OE1] |==|  0.79823
USER: genes 7 Torsion [N]-CA--C-[N] |==|  0.62654
USER: genes 8 Torsion [C]-N--CA-[CB] |==|  0.22889
USER: genes 9 Torsion [N]-CA--C-[N] |==|  0.86126
USER: genes 10 Torsion [C]-N--CA-[CB] |==|  0.53276
USER: genes 11 Torsion [N]-CA--C-[O] |==|  0.61638
USER: genes 12 Torsion [N]-CA--CB-[CG2] |==|  0.71969
USER: genes 13 Torsion [CA]-CB--OG1-[HG1] |==|  0.04692
USER: genes 14 Torsion [C]-CA--CB-[CG] |==|  0.42971
USER: genes 15 Torsion [CA]-CB--CG-[CD] |==|  0.95127
USER: genes 16 Torsion [CB]-CG--CD-[CE] |==|  0.30068
USER: genes 17 Torsion [CG]-CD--CE-[NZ] |==|  0.59550
USER: genes 18 Torsion [CD]-CE--NZ-[HZ2] |==|  0.41315
USER: genes 19 Torsion [C]-CA--N-[C] |==|  0.71855
USER: genes 20 Torsion [N]-C--CA-[N] |==|  0.14053
USER: genes 21 Torsion [C]-CA--CB-[CG2] |==|  0.54067
USER: genes 22 Torsion [CA]-CB--OG1-[HG1] |==|  0.63531
USER: genes 23 Torsion [C]-CA--N-[C] |==|  0.76477
USER: genes 24 Torsion [N]-C--CA-[N] |==|  0.76952
USER: genes 25 Torsion [C]-CA--CB-[CG] |==|  0.52786
USER: genes 26 Torsion [CA]-CB--CG-[CD] |==|  0.33804
USER: genes 27 Torsion [CB]-CG--CD-[NE] |==|  0.13684
USER: genes 28 Torsion [CG]-CD--NE-[HE] |==|  0.23272
USER: genes 29 Torsion [C]-CA--N-[C] |==|  0.66330
USER: genes 30 Torsion [N]-C--CA-[N] |==|  0.39279
USER: genes 31 Torsion [C]-CA--N-[H2] |==|  0.68623
ROOT
ATOM      1  CA  LYS B   4      -8.105  12.217  12.331  1.00 37.28 LIG 0.18  C 
ENDROOT
BRANCH 1 2
ATOM      2  C   LYS B   4      -8.573  11.208  13.356  1.00 39.57 LIG 0.24  C 
ATOM      3 O    LYS B   4      -8.866  10.054  13.035  1.00 42.15 LIG-0.27  OA
ATOM      4  N   GLN B   5      -8.634  11.646  14.602  1.00 37.54 LIG-0.35  N 
ATOM      5 H    GLN B   5      -8.460  12.451  14.850  1.00 37.54 LIG 0.16  HD
BRANCH 4 6
ATOM      6  CA  GLN B   5      -9.017  10.741  15.664  1.00 44.43 LIG 0.18  C 
BRANCH 6 7
ATOM      7  CB  GLN B   5      -8.163   9.486  15.641  1.00 42.91 LIG 0.04  C 
BRANCH 7 8
ATOM      8  CG  GLN B   5      -8.966   8.280  15.293  1.00 46.61 LIG 0.10  C 
BRANCH 8 9
ATOM      9  CD  GLN B   5     -10.422   8.579  15.265  1.00 50.89 LIG 0.21  C 
ATOM     10  NE2 GLN B   5     -10.990   8.617  14.057  1.00 54.67 LIG-0.37  N 
ATOM     11 21HE GLN B   5     -10.515   8.478  13.354  1.00 54.67 LIG 0.16  HD
ATOM     12 22HE GLN B   5     -11.830   8.780  13.982  1.00 54.67 LIG 0.16  HD
ATOM     13 OE1  GLN B   5     -11.055   8.771  16.315  1.00 48.99 LIG-0.27  OA
ENDBRANCH 8 9
ENDBRANCH 7 8
ENDBRANCH 6 7
BRANCH 6 14
ATOM     14  C   GLN B   5      -8.954  11.423  17.027  1.00 45.34 LIG 0.24  C 
ATOM     15 O    GLN B   5      -9.401  12.557  17.177  1.00 47.84 LIG-0.27  OA
ATOM     16  N   THR B   6      -8.373  10.750  18.013  1.00 44.99 LIG-0.34  N 
ATOM     17 H    THR B   6      -8.007   9.977  17.928  1.00 44.99 LIG 0.16  HD
BRANCH 16 18
ATOM     18  CA  THR B   6      -8.325  11.315  19.353  1.00 47.63 LIG 0.20  C 
BRANCH 18 19
ATOM     19  C   THR B   6      -7.109  10.825  20.142  1.00 49.11 LIG 0.24  C 
ATOM     20 O    THR B   6      -6.363  11.626  20.699  1.00 51.64 LIG-0.27  OA
ATOM     21  N   ALA B   7      -6.901   9.514  20.165  1.00 46.55 LIG-0.35  N 
ATOM     22 H    ALA B   7      -7.429   8.937  19.806  1.00 46.55 LIG 0.16  HD
BRANCH 21 23
ATOM     23  CA  ALA B   7      -5.731   8.935  20.816  1.00 49.58 LIG 0.16  C 
ATOM     24  CB  ALA B   7      -5.582   7.443  20.445  1.00 45.32 LIG 0.04  C 
BRANCH 23 25
ATOM     25  C   ALA B   7      -4.470   9.724  20.444  1.00 53.19 LIG 0.22  C 
ATOM     26 O    ALA B   7      -3.408   9.131  20.178  1.00 57.48 LIG-0.29  OA
ENDBRANCH 23 25
ENDBRANCH 21 23
ENDBRANCH 18 19
BRANCH 18 27
ATOM     27  CB  THR B   6      -9.639  11.075  20.136  1.00 48.13 LIG 0.15  C 
ATOM     28  CG2 THR B   6     -10.493  12.330  20.124  1.00 44.70 LIG 0.04  C 
BRANCH 27 29
ATOM     29 OG1  THR B   6     -10.367   9.977  19.560  1.00 42.78 LIG-0.39  OA
ATOM     30 HG1  THR B   6      -9.856   9.530  19.067  1.00 42.78 LIG 0.21  HD
ENDBRANCH 27 29
ENDBRANCH 18 27
ENDBRANCH 16 18
ENDBRANCH 6 14
ENDBRANCH 4 6
ENDBRANCH 1 2
BRANCH 1 31
ATOM     31  CB  LYS B   4      -7.062  13.126  12.986  1.00 35.55 LIG 0.04  C 
BRANCH 31 32
ATOM     32  CG  LYS B   4      -6.110  13.740  12.038  1.00 39.70 LIG 0.00  C 
BRANCH 32 33
ATOM     33  CD  LYS B   4      -6.133  12.994  10.728  1.00 40.13 LIG 0.03  C 
BRANCH 33 34
ATOM     34  CE  LYS B   4      -6.804  13.822   9.666  1.00 42.33 LIG 0.23  C 
BRANCH 34 35
ATOM     35  NZ  LYS B   4      -7.562  12.982   8.717  1.00 43.53 LIG-0.08  N 
ATOM     36 HZ3  LYS B   4      -7.038  12.760   8.033  1.00 43.53 LIG 0.27  HD
ATOM     37 HZ1  LYS B   4      -7.840  12.244   9.130  1.00 43.53 LIG 0.27  HD
ATOM     38 HZ2  LYS B   4      -8.266  13.435   8.415  1.00 43.53 LIG 0.27  HD
ENDBRANCH 34 35
ENDBRANCH 33 34
ENDBRANCH 32 33
ENDBRANCH 31 32
ENDBRANCH 1 31
BRANCH 1 39
ATOM     39  N   LYS B   4      -9.239  12.988  11.844  1.00 32.65 LIG-0.35  N 
ATOM     40  C   THR B   3      -9.810  12.730  10.673  1.00 34.58 LIG 0.24  C 
ATOM     41 O    THR B   3      -9.357  11.910   9.889  1.00 36.58 LIG-0.27  OA
ATOM     42 H    LYS B   4      -9.498  13.612  12.377  1.00 32.65 LIG 0.16  HD
BRANCH 40 43
ATOM     43  CA  THR B   3     -11.056  13.527  10.321  1.00 32.52 LIG 0.20  C 
BRANCH 43 44
ATOM     44  CB  THR B   3     -11.462  13.209   8.894  1.00 35.15 LIG 0.15  C 
ATOM     45  CG2 THR B   3     -12.461  14.231   8.395  1.00 35.84 LIG 0.04  C 
BRANCH 44 46
ATOM     46 OG1  THR B   3     -10.293  13.227   8.068  1.00 37.78 LIG-0.39  OA
ATOM     47 HG1  THR B   3     -10.440  13.693   7.385  1.00 37.78 LIG 0.21  HD
ENDBRANCH 44 46
ENDBRANCH 43 44
BRANCH 43 48
ATOM     48  N   THR B   3     -10.792  14.946  10.511  1.00 36.19 LIG-0.34  N 
ATOM     49  C   ARG B   2     -10.919  15.522  11.698  1.00 33.52 LIG 0.24  C 
ATOM     50 O    ARG B   2     -11.400  14.958  12.661  1.00 34.90 LIG-0.27  OA
ATOM     51 H    THR B   3     -10.552  15.363   9.798  1.00 36.19 LIG 0.16  HD
BRANCH 49 52
ATOM     52  CA  ARG B   2     -10.402  16.940  11.828  1.00 37.04 LIG 0.18  C 
BRANCH 52 53
ATOM     53  CB  ARG B   2     -10.728  17.664  10.536  1.00 37.98 LIG 0.04  C 
BRANCH 53 54
ATOM     54  CG  ARG B   2     -10.078  19.020  10.393  1.00 44.54 LIG 0.02  C 
BRANCH 54 55
ATOM     55  CD  ARG B   2      -9.251  18.976   9.142  1.00 45.57 LIG 0.14  C 
BRANCH 55 56
ATOM     56  NE  ARG B   2     -10.057  18.446   8.056  1.00 45.97 LIG-0.23  N 
ATOM     57  CZ  ARG B   2     -10.057  17.177   7.671  1.00 44.90 LIG 0.67  C 
ATOM     58  NH1 ARG B   2      -9.274  16.284   8.272  1.00 46.97 LIG-0.23  N 
ATOM     59  NH2 ARG B   2     -10.829  16.814   6.666  1.00 41.82 LIG-0.23  N 
ATOM     60 2HH1 ARG B   2      -9.281  15.463   8.015  1.00 46.97 LIG 0.17  HD
ATOM     61 1HH1 ARG B   2      -8.759  16.528   8.918  1.00 46.97 LIG 0.17  HD
ATOM     62 2HH2 ARG B   2     -10.839  15.995   6.406  1.00 41.82 LIG 0.17  HD
ATOM     63 1HH2 ARG B   2     -11.322  17.397   6.271  1.00 41.82 LIG 0.17  HD
ATOM     64 HE   ARG B   2     -10.569  18.993   7.634  1.00 45.97 LIG 0.18  HD
ENDBRANCH 55 56
ENDBRANCH 54 55
ENDBRANCH 53 54
ENDBRANCH 52 53
BRANCH 52 65
ATOM     65  N   ARG B   2      -8.969  16.922  12.072  1.00 35.35 LIG-0.35  N 
ATOM     66 H    ARG B   2      -8.505  16.532  11.461  1.00 35.35 LIG 0.16  HD
ATOM     67  C   ALA B   1      -8.456  17.473  13.161  1.00 38.28 LIG 0.25  C 
ATOM     68 O    ALA B   1      -9.145  18.088  13.972  1.00 39.08 LIG-0.27  OA
BRANCH 67 69
ATOM     69  CA  ALA B   1      -6.953  17.340  13.362  1.00 38.95 LIG 0.27  C 
ATOM     70  CB  ALA B   1      -6.625  16.163  14.269  1.00 37.91 LIG 0.05  C 
BRANCH 69 71
ATOM     71  N   ALA B   1      -6.408  18.577  13.919  1.00 44.33 LIG-0.07  N 
ATOM     72 H1   ALA B   1      -5.939  18.391  14.652  1.00 44.33 LIG 0.28  HD
ATOM     73 H2   ALA B   1      -5.879  18.965  13.319  1.00 44.33 LIG 0.28  HD
ATOM     74 H3   ALA B   1      -7.076  19.128  14.127  1.00 44.33 LIG 0.28  HD
ENDBRANCH 69 71
ENDBRANCH 67 69
ENDBRANCH 52 65
ENDBRANCH 49 52
ENDBRANCH 43 48
ENDBRANCH 40 43
ENDBRANCH 1 39
TORSDOF 30
ENDMDL
MODEL 3
USER: ADFR SOLUTION from run 135
USER: SCORE 23.173472 LL:  -5.099 LR: -21.008 RR:   0.000 FEB: -12.059
USER: RMSD 7.121104
USER: SEED 134
USER: STATUS no improvement in best in 2 clusters for 5 generations
USER: GENES 32
USER: genes 0 Translation |==|  0.61953 0.65026 0.37430
USER: genes 1 Rotation |==|  0.40865 0.34360 0.95037 0.61983
USER: genes 2 Torsion [N]-CA--C-[N] |==|  0.89608
USER: genes 3 Torsion [C]-N--CA-[CB] |==|  0.17861
USER: genes 4 Torsion [N]-CA--CB-[CG] |==|  0.24560
USER: genes 5 Torsion [CA]-CB--CG-[CD] |==|  0.32179
USER: genes 6 Torsion [CB]-CG--CD-[OE1] |==|  0.42998
USER: genes 7 Torsion [N]-CA--C-[N] |==|  0.43393
USER: genes 8 Torsion [C]-N--CA-[CB] |==|  0.47470
USER: genes 9 Torsion [N]-CA--C-[N] |==|  0.86122
USER: genes 10 Torsion [C]-N--CA-[CB] |==|  0.83809
USER: genes 11 Torsion [N]-CA--C-[O] |==|  0.31964
USER: genes 12 Torsion [N]-CA--CB-[CG2] |==|  0.70981
USER: genes 13 Torsion [CA]-CB--OG1-[HG1] |==|  0.21609
USER: genes 14 Torsion [C]-CA--CB-[CG] |==|  0.26663
USER: genes 15 Torsion [CA]-CB--CG-[CD] |==|  0.93839
USER: genes 16 Torsion [CB]-CG--CD-[CE] |==|  0.25638
USER: genes 17 Torsion [CG]-CD--CE-[NZ] |==|  0.68540
USER: genes 18 Torsion [CD]-CE--NZ-[HZ2] |==|  0.29335
USER: genes 19 Torsion [C]-CA--N-[C] |==|  0.77786
USER: genes 20 Torsion [N]-C--CA-[N] |==|  0.29305
USER: genes 21 Torsion [C]-CA--CB-[CG2] |==|  0.31010
USER: genes 22 Torsion [CA]-CB--OG1-[HG1] |==|  0.45974
USER: genes 23 Torsion [C]-CA--N-[C] |==|  0.63817
USER: genes 24 Torsion [N]-C--CA-[N] |==|  0.86396
USER: genes 25 Torsion [C]-CA--CB-[CG] |==|  0.08230
USER: genes 26 Torsion [CA]-CB--CG-[CD] |==|  0.57813
USER: genes 27 Torsion [CB]-CG--CD-[NE] |==|  0.23732
USER: genes 28 Torsion [CG]-CD--NE-[HE] |==|  0.21598
USER: genes 29 Torsion [C]-CA--N-[C] |==|  0.85282
USER: genes 30 Torsion [N]-C--CA-[N] |==|  0.69289
USER: genes 31 Torsion [C]-CA--N-[H2] |==|  0.41118
ROOT
ATOM      1  CA  LYS B   4      -9.411  13.137  10.583  1.00 37.28 LIG 0.18  C 
ENDROOT
BRANCH 1 2
ATOM      2  C   LYS B   4      -9.286  11.752  11.176  1.00 39.57 LIG 0.24  C 
ATOM      3 O    LYS B   4      -8.238  11.108  11.088  1.00 42.15 LIG-0.27  OA
ATOM      4  N   GLN B   5     -10.362  11.294  11.792  1.00 37.54 LIG-0.35  N 
ATOM      5 H    GLN B   5     -11.113  11.711  11.846  1.00 37.54 LIG 0.16  HD
BRANCH 4 6
ATOM      6  CA  GLN B   5     -10.324  10.001  12.440  1.00 44.43 LIG 0.18  C 
BRANCH 6 7
ATOM      7  CB  GLN B   5      -9.339  10.002  13.595  1.00 42.91 LIG 0.04  C 
BRANCH 7 8
ATOM      8  CG  GLN B   5      -9.980  10.441  14.866  1.00 46.61 LIG 0.10  C 
BRANCH 8 9
ATOM      9  CD  GLN B   5      -9.992   9.352  15.879  1.00 50.89 LIG 0.21  C 
ATOM     10  NE2 GLN B   5      -9.941   8.107  15.402  1.00 54.67 LIG-0.37  N 
ATOM     11 21HE GLN B   5      -9.910   7.973  14.554  1.00 54.67 LIG 0.16  HD
ATOM     12 22HE GLN B   5      -9.939   7.439  15.943  1.00 54.67 LIG 0.16  HD
ATOM     13 OE1  GLN B   5     -10.037   9.610  17.093  1.00 48.99 LIG-0.27  OA
ENDBRANCH 8 9
ENDBRANCH 7 8
ENDBRANCH 6 7
BRANCH 6 14
ATOM     14  C   GLN B   5     -11.713   9.569  12.902  1.00 45.34 LIG 0.24  C 
ATOM     15 O    GLN B   5     -12.578  10.405  13.142  1.00 47.84 LIG-0.27  OA
ATOM     16  N   THR B   6     -11.918   8.266  13.056  1.00 44.99 LIG-0.34  N 
ATOM     17 H    THR B   6     -11.320   7.659  12.945  1.00 44.99 LIG 0.16  HD
BRANCH 16 18
ATOM     18  CA  THR B   6     -13.234   7.776  13.442  1.00 47.63 LIG 0.20  C 
BRANCH 18 19
ATOM     19  C   THR B   6     -13.654   8.279  14.825  1.00 49.11 LIG 0.24  C 
ATOM     20 O    THR B   6     -14.747   8.817  14.987  1.00 51.64 LIG-0.27  OA
ATOM     21  N   ALA B   7     -12.776   8.127  15.809  1.00 46.55 LIG-0.35  N 
ATOM     22 H    ALA B   7     -12.020   7.726  15.719  1.00 46.55 LIG 0.16  HD
BRANCH 21 23
ATOM     23  CA  ALA B   7     -13.032   8.639  17.150  1.00 49.58 LIG 0.16  C 
ATOM     24  CB  ALA B   7     -13.271  10.164  17.115  1.00 45.32 LIG 0.04  C 
BRANCH 23 25
ATOM     25  C   ALA B   7     -14.223   7.908  17.780  1.00 53.19 LIG 0.22  C 
ATOM     26 O    ALA B   7     -14.065   7.190  18.786  1.00 57.48 LIG-0.29  OA
ENDBRANCH 23 25
ENDBRANCH 21 23
ENDBRANCH 18 19
BRANCH 18 27
ATOM     27  CB  THR B   6     -13.331   6.233  13.351  1.00 48.13 LIG 0.15  C 
ATOM     28  CG2 THR B   6     -14.126   5.831  12.121  1.00 44.70 LIG 0.04  C 
BRANCH 27 29
ATOM     29 OG1  THR B   6     -12.017   5.654  13.299  1.00 42.78 LIG-0.39  OA
ATOM     30 HG1  THR B   6     -11.683   5.647  14.069  1.00 42.78 LIG 0.21  HD
ENDBRANCH 27 29
ENDBRANCH 18 27
ENDBRANCH 16 18
ENDBRANCH 6 14
ENDBRANCH 4 6
ENDBRANCH 1 2
BRANCH 1 31
ATOM     31  CB  LYS B   4      -9.125  14.162  11.684  1.00 35.55 LIG 0.04  C 
BRANCH 31 32
ATOM     32  CG  LYS B   4      -7.731  14.653  11.708  1.00 39.70 LIG 0.00  C 
BRANCH 32 33
ATOM     33  CD  LYS B   4      -6.823  13.662  11.026  1.00 40.13 LIG 0.03  C 
BRANCH 33 34
ATOM     34  CE  LYS B   4      -6.672  14.006   9.569  1.00 42.33 LIG 0.23  C 
BRANCH 34 35
ATOM     35  NZ  LYS B   4      -7.285  12.982   8.700  1.00 43.53 LIG-0.08  N 
ATOM     36 HZ3  LYS B   4      -6.727  12.786   8.035  1.00 43.53 LIG 0.27  HD
ATOM     37 HZ1  LYS B   4      -7.449  12.248   9.176  1.00 43.53 LIG 0.27  HD
ATOM     38 HZ2  LYS B   4      -8.048  13.294   8.365  1.00 43.53 LIG 0.27  HD
ENDBRANCH 34 35
ENDBRANCH 33 34
ENDBRANCH 32 33
ENDBRANCH 31 32
ENDBRANCH 1 31
BRANCH 1 39
ATOM     39  N   LYS B   4     -10.746  13.320  10.033  1.00 32.65 LIG-0.35  N 
ATOM     40  C   THR B   3     -11.084  12.837   8.843  1.00 34.58 LIG 0.24  C 
ATOM     41 O    THR B   3     -10.275  12.310   8.095  1.00 36.58 LIG-0.27  OA
ATOM     42 H    LYS B   4     -11.282  13.761  10.542  1.00 32.65 LIG 0.16  HD
BRANCH 40 43
ATOM     43  CA  THR B   3     -12.537  12.993   8.422  1.00 32.52 LIG 0.20  C 
BRANCH 43 44
ATOM     44  CB  THR B   3     -13.051  11.660   7.910  1.00 35.15 LIG 0.15  C 
ATOM     45  CG2 THR B   3     -14.084  11.098   8.863  1.00 35.84 LIG 0.04  C 
BRANCH 44 46
ATOM     46 OG1  THR B   3     -13.636  11.857   6.618  1.00 37.78 LIG-0.39  OA
ATOM     47 HG1  THR B   3     -13.743  11.114   6.243  1.00 37.78 LIG 0.21  HD
ENDBRANCH 44 46
ENDBRANCH 43 44
BRANCH 43 48
ATOM     48  N   THR B   3     -12.640  14.040   7.416  1.00 36.19 LIG-0.34  N 
ATOM     49  C   ARG B   2     -13.527  15.018   7.522  1.00 33.52 LIG 0.24  C 
ATOM     50 O    ARG B   2     -14.402  15.031   8.365  1.00 34.90 LIG-0.27  OA
ATOM     51 H    THR B   3     -12.083  13.965   6.764  1.00 36.19 LIG 0.16  HD
BRANCH 49 52
ATOM     52  CA  ARG B   2     -13.395  16.170   6.547  1.00 37.04 LIG 0.18  C 
BRANCH 52 53
ATOM     53  CB  ARG B   2     -13.826  15.665   5.183  1.00 37.98 LIG 0.04  C 
BRANCH 53 54
ATOM     54  CG  ARG B   2     -14.860  14.566   5.217  1.00 44.54 LIG 0.02  C 
BRANCH 54 55
ATOM     55  CD  ARG B   2     -14.663  13.745   3.977  1.00 45.57 LIG 0.14  C 
BRANCH 55 56
ATOM     56  NE  ARG B   2     -13.640  12.744   4.226  1.00 45.97 LIG-0.23  N 
ATOM     57  CZ  ARG B   2     -12.386  12.833   3.804  1.00 44.90 LIG 0.67  C 
ATOM     58  NH1 ARG B   2     -11.982  13.878   3.084  1.00 46.97 LIG-0.23  N 
ATOM     59  NH2 ARG B   2     -11.546  11.857   4.086  1.00 41.82 LIG-0.23  N 
ATOM     60 2HH1 ARG B   2     -11.166  13.926   2.815  1.00 46.97 LIG 0.17  HD
ATOM     61 1HH1 ARG B   2     -12.537  14.506   2.889  1.00 46.97 LIG 0.17  HD
ATOM     62 2HH2 ARG B   2     -10.730  11.901   3.819  1.00 41.82 LIG 0.17  HD
ATOM     63 1HH2 ARG B   2     -11.814  11.176   4.538  1.00 41.82 LIG 0.17  HD
ATOM     64 HE   ARG B   2     -13.862  12.047   4.677  1.00 45.97 LIG 0.18  HD
ENDBRANCH 55 56
ENDBRANCH 54 55
ENDBRANCH 53 54
ENDBRANCH 52 53
BRANCH 52 65
ATOM     65  N   ARG B   2     -12.018  16.637   6.522  1.00 35.35 LIG-0.35  N 
ATOM     66 H    ARG B   2     -11.665  16.676   5.738  1.00 35.35 LIG 0.16  HD
ATOM     67  C   ALA B   1     -11.390  16.968   7.639  1.00 38.28 LIG 0.25  C 
ATOM     68 O    ALA B   1     -11.953  16.973   8.732  1.00 39.08 LIG-0.27  OA
BRANCH 67 69
ATOM     69  CA  ALA B   1      -9.928  17.377   7.518  1.00 38.95 LIG 0.27  C 
ATOM     70  CB  ALA B   1      -9.543  17.604   6.064  1.00 37.91 LIG 0.05  C 
BRANCH 69 71
ATOM     71  N   ALA B   1      -9.070  16.357   8.117  1.00 44.33 LIG-0.07  N 
ATOM     72 H1   ALA B   1      -9.470  15.564   8.065  1.00 44.33 LIG 0.28  HD
ATOM     73 H2   ALA B   1      -8.295  16.327   7.680  1.00 44.33 LIG 0.28  HD
ATOM     74 H3   ALA B   1      -8.920  16.558   8.971  1.00 44.33 LIG 0.28  HD
ENDBRANCH 69 71
ENDBRANCH 67 69
ENDBRANCH 52 65
ENDBRANCH 49 52
ENDBRANCH 43 48
ENDBRANCH 40 43
ENDBRANCH 1 39
TORSDOF 30
ENDMDL
MODEL 4
USER: ADFR SOLUTION from run 146
USER: SCORE 23.025107 LL:  -4.834 LR: -20.877 RR:   0.000 FEB: -11.928
USER: RMSD 9.512941
USER: SEED 145
USER: STATUS no improvement in best in 4 clusters for 5 generations
USER: GENES 32
USER: genes 0 Translation |==|  0.74195 0.65758 0.51530
USER: genes 1 Rotation |==|  0.31400 0.80408 0.84808 0.54226
USER: genes 2 Torsion [N]-CA--C-[N] |==|  0.58477
USER: genes 3 Torsion [C]-N--CA-[CB] |==|  0.83761
USER: genes 4 Torsion [N]-CA--CB-[CG] |==|  0.81154
USER: genes 5 Torsion [CA]-CB--CG-[CD] |==|  0.23614
USER: genes 6 Torsion [CB]-CG--CD-[OE1] |==|  0.19821
USER: genes 7 Torsion [N]-CA--C-[N] |==|  0.12738
USER: genes 8 Torsion [C]-N--CA-[CB] |==|  0.84521
USER: genes 9 Torsion [N]-CA--C-[N] |==|  0.35856
USER: genes 10 Torsion [C]-N--CA-[CB] |==|  0.13768
USER: genes 11 Torsion [N]-CA--C-[O] |==|  0.99793
USER: genes 12 Torsion [N]-CA--CB-[CG2] |==|  0.40372
USER: genes 13 Torsion [CA]-CB--OG1-[HG1] |==|  0.27198
USER: genes 14 Torsion [C]-CA--CB-[CG] |==|  0.42450
USER: genes 15 Torsion [CA]-CB--CG-[CD] |==|  0.25936
USER: genes 16 Torsion [CB]-CG--CD-[CE] |==|  0.13186
USER: genes 17 Torsion [CG]-CD--CE-[NZ] |==|  0.39792
USER: genes 18 Torsion [CD]-CE--NZ-[HZ2] |==|  0.04463
USER: genes 19 Torsion [C]-CA--N-[C] |==|  0.65998
USER: genes 20 Torsion [N]-C--CA-[N] |==|  0.07534
USER: genes 21 Torsion [C]-CA--CB-[CG2] |==|  0.23012
USER: genes 22 Torsion [CA]-CB--OG1-[HG1] |==|  0.53006
USER: genes 23 Torsion [C]-CA--N-[C] |==|  0.19264
USER: genes 24 Torsion [N]-C--CA-[N] |==|  0.76854
USER: genes 25 Torsion [C]-CA--CB-[CG] |==|  0.30317
USER: genes 26 Torsion [CA]-CB--CG-[CD] |==|  0.98040
USER: genes 27 Torsion [CB]-CG--CD-[NE] |==|  0.31773
USER: genes 28 Torsion [CG]-CD--NE-[HE] |==|  0.70974
USER: genes 29 Torsion [C]-CA--N-[C] |==|  0.61996
USER: genes 30 Torsion [N]-C--CA-[N] |==|  0.62462
USER: genes 31 Torsion [C]-CA--N-[H2] |==|  0.10871
ROOT
ATOM      1  CA  LYS B   4      -6.840  13.291  14.073  1.00 37.28 LIG 0.18  C 
ENDROOT
BRANCH 1 2
ATOM      2  C   LYS B   4      -6.889  14.427  15.070  1.00 39.57 LIG 0.24  C 
ATOM      3 O    LYS B   4      -7.776  14.494  15.924  1.00 42.15 LIG-0.27  OA
ATOM      4  N   GLN B   5      -5.921  15.321  14.966  1.00 37.54 LIG-0.35  N 
ATOM      5 H    GLN B   5      -5.305  15.313  14.365  1.00 37.54 LIG 0.16  HD
BRANCH 4 6
ATOM      6  CA  GLN B   5      -5.848  16.415  15.910  1.00 44.43 LIG 0.18  C 
BRANCH 6 7
ATOM      7  CB  GLN B   5      -7.123  17.239  15.885  1.00 42.91 LIG 0.04  C 
BRANCH 7 8
ATOM      8  CG  GLN B   5      -7.278  17.975  14.599  1.00 46.61 LIG 0.10  C 
BRANCH 8 9
ATOM      9  CD  GLN B   5      -7.914  17.127  13.555  1.00 50.89 LIG 0.21  C 
ATOM     10  NE2 GLN B   5      -7.115  16.715  12.569  1.00 54.67 LIG-0.37  N 
ATOM     11 21HE GLN B   5      -6.288  16.946  12.561  1.00 54.67 LIG 0.16  HD
ATOM     12 22HE GLN B   5      -7.429  16.217  11.942  1.00 54.67 LIG 0.16  HD
ATOM     13 OE1  GLN B   5      -9.116  16.827  13.622  1.00 48.99 LIG-0.27  OA
ENDBRANCH 8 9
ENDBRANCH 7 8
ENDBRANCH 6 7
BRANCH 6 14
ATOM     14  C   GLN B   5      -5.544  15.916  17.319  1.00 45.34 LIG 0.24  C 
ATOM     15 O    GLN B   5      -6.161  16.357  18.284  1.00 47.84 LIG-0.27  OA
ATOM     16  N   THR B   6      -4.572  15.020  17.445  1.00 44.99 LIG-0.34  N 
ATOM     17 H    THR B   6      -4.088  14.729  16.797  1.00 44.99 LIG 0.16  HD
BRANCH 16 18
ATOM     18  CA  THR B   6      -4.261  14.458  18.751  1.00 47.63 LIG 0.20  C 
BRANCH 18 19
ATOM     19  C   THR B   6      -5.360  13.517  19.250  1.00 49.11 LIG 0.24  C 
ATOM     20 O    THR B   6      -6.531  13.887  19.280  1.00 51.64 LIG-0.27  OA
ATOM     21  N   ALA B   7      -4.976  12.316  19.665  1.00 46.55 LIG-0.35  N 
ATOM     22 H    ALA B   7      -4.165  12.031  19.623  1.00 46.55 LIG 0.16  HD
BRANCH 21 23
ATOM     23  CA  ALA B   7      -5.921  11.364  20.236  1.00 49.58 LIG 0.16  C 
ATOM     24  CB  ALA B   7      -7.163  11.219  19.330  1.00 45.32 LIG 0.04  C 
BRANCH 23 25
ATOM     25  C   ALA B   7      -5.240  10.008  20.460  1.00 53.19 LIG 0.22  C 
ATOM     26 O    ALA B   7      -4.046   9.842  20.149  1.00 57.48 LIG-0.29  OA
ENDBRANCH 23 25
ENDBRANCH 21 23
ENDBRANCH 18 19
BRANCH 18 27
ATOM     27  CB  THR B   6      -3.941  15.554  19.797  1.00 48.13 LIG 0.15  C 
ATOM     28  CG2 THR B   6      -4.445  15.135  21.166  1.00 44.70 LIG 0.04  C 
BRANCH 27 29
ATOM     29 OG1  THR B   6      -2.524  15.795  19.847  1.00 42.78 LIG-0.39  OA
ATOM     30 HG1  THR B   6      -2.337  16.467  19.380  1.00 42.78 LIG 0.21  HD
ENDBRANCH 27 29
ENDBRANCH 18 27
ENDBRANCH 16 18
ENDBRANCH 6 14
ENDBRANCH 4 6
ENDBRANCH 1 2
BRANCH 1 31
ATOM     31  CB  LYS B   4      -6.145  13.791  12.804  1.00 35.55 LIG 0.04  C 
BRANCH 31 32
ATOM     32  CG  LYS B   4      -5.467  12.733  12.026  1.00 39.70 LIG 0.00  C 
BRANCH 32 33
ATOM     33  CD  LYS B   4      -6.393  12.200  10.962  1.00 40.13 LIG 0.03  C 
BRANCH 33 34
ATOM     34  CE  LYS B   4      -7.040  13.335  10.216  1.00 42.33 LIG 0.23  C 
BRANCH 34 35
ATOM     35  NZ  LYS B   4      -7.200  13.023   8.781  1.00 43.53 LIG-0.08  N 
ATOM     36 HZ3  LYS B   4      -8.010  13.274   8.512  1.00 43.53 LIG 0.27  HD
ATOM     37 HZ1  LYS B   4      -6.583  13.461   8.312  1.00 43.53 LIG 0.27  HD
ATOM     38 HZ2  LYS B   4      -7.103  12.148   8.655  1.00 43.53 LIG 0.27  HD
ENDBRANCH 34 35
ENDBRANCH 33 34
ENDBRANCH 32 33
ENDBRANCH 31 32
ENDBRANCH 1 31
BRANCH 1 39
ATOM     39  N   LYS B   4      -8.190  12.831  13.783  1.00 32.65 LIG-0.35  N 
ATOM     40  C   THR B   3      -8.556  11.570  13.980  1.00 34.58 LIG 0.24  C 
ATOM     41 O    THR B   3      -7.764  10.700  14.308  1.00 36.58 LIG-0.27  OA
ATOM     42 H    LYS B   4      -8.715  13.442  13.480  1.00 32.65 LIG 0.16  HD
BRANCH 40 43
ATOM     43  CA  THR B   3     -10.021  11.232  13.748  1.00 32.52 LIG 0.20  C 
BRANCH 43 44
ATOM     44  CB  THR B   3     -10.131   9.790  13.289  1.00 35.15 LIG 0.15  C 
ATOM     45  CG2 THR B   3     -10.109   8.858  14.481  1.00 35.84 LIG 0.04  C 
BRANCH 44 46
ATOM     46 OG1  THR B   3     -11.358   9.629  12.568  1.00 37.78 LIG-0.39  OA
ATOM     47 HG1  THR B   3     -11.502   8.812  12.438  1.00 37.78 LIG 0.21  HD
ENDBRANCH 44 46
ENDBRANCH 43 44
BRANCH 43 48
ATOM     48  N   THR B   3     -10.584  12.159  12.777  1.00 36.19 LIG-0.34  N 
ATOM     49  C   ARG B   2     -10.224  12.130  11.502  1.00 33.52 LIG 0.24  C 
ATOM     50 O    ARG B   2      -9.310  11.448  11.086  1.00 34.90 LIG-0.27  OA
ATOM     51 H    THR B   3     -11.156  12.712  13.103  1.00 36.19 LIG 0.16  HD
BRANCH 49 52
ATOM     52  CA  ARG B   2     -11.035  12.980  10.545  1.00 37.04 LIG 0.18  C 
BRANCH 52 53
ATOM     53  CB  ARG B   2     -11.387  14.268  11.265  1.00 37.98 LIG 0.04  C 
BRANCH 53 54
ATOM     54  CG  ARG B   2     -10.662  15.491  10.758  1.00 44.54 LIG 0.02  C 
BRANCH 54 55
ATOM     55  CD  ARG B   2      -9.645  15.014   9.765  1.00 45.57 LIG 0.14  C 
BRANCH 55 56
ATOM     56  NE  ARG B   2      -9.995  15.515   8.446  1.00 45.97 LIG-0.23  N 
ATOM     57  CZ  ARG B   2      -9.815  16.767   8.048  1.00 44.90 LIG 0.67  C 
ATOM     58  NH1 ARG B   2      -9.299  17.676   8.873  1.00 46.97 LIG-0.23  N 
ATOM     59  NH2 ARG B   2     -10.177  17.107   6.828  1.00 41.82 LIG-0.23  N 
ATOM     60 2HH1 ARG B   2      -9.187  18.486   8.605  1.00 46.97 LIG 0.17  HD
ATOM     61 1HH1 ARG B   2      -9.078  17.454   9.675  1.00 46.97 LIG 0.17  HD
ATOM     62 2HH2 ARG B   2     -10.067  17.915   6.556  1.00 41.82 LIG 0.17  HD
ATOM     63 1HH2 ARG B   2     -10.524  16.521   6.303  1.00 41.82 LIG 0.17  HD
ATOM     64 HE   ARG B   2     -10.342  14.962   7.887  1.00 45.97 LIG 0.18  HD
ENDBRANCH 55 56
ENDBRANCH 54 55
ENDBRANCH 53 54
ENDBRANCH 52 53
BRANCH 52 65
ATOM     65  N   ARG B   2     -12.232  12.261  10.141  1.00 35.35 LIG-0.35  N 
ATOM     66 H    ARG B   2     -12.640  11.853  10.779  1.00 35.35 LIG 0.16  HD
ATOM     67  C   ALA B   1     -12.632  12.258   8.878  1.00 38.28 LIG 0.25  C 
ATOM     68 O    ALA B   1     -12.064  12.917   8.009  1.00 39.08 LIG-0.27  OA
BRANCH 67 69
ATOM     69  CA  ALA B   1     -13.856  11.418   8.541  1.00 38.95 LIG 0.27  C 
ATOM     70  CB  ALA B   1     -14.212  10.485   9.689  1.00 37.91 LIG 0.05  C 
BRANCH 69 71
ATOM     71  N   ALA B   1     -13.618  10.652   7.319  1.00 44.33 LIG-0.07  N 
ATOM     72 H1   ALA B   1     -13.752  11.173   6.610  1.00 44.33 LIG 0.28  HD
ATOM     73 H2   ALA B   1     -12.780  10.354   7.313  1.00 44.33 LIG 0.28  HD
ATOM     74 H3   ALA B   1     -14.178   9.961   7.288  1.00 44.33 LIG 0.28  HD
ENDBRANCH 69 71
ENDBRANCH 67 69
ENDBRANCH 52 65
ENDBRANCH 49 52
ENDBRANCH 43 48
ENDBRANCH 40 43
ENDBRANCH 1 39
TORSDOF 30
ENDMDL
MODEL 5
USER: ADFR SOLUTION from run 196
USER: SCORE 22.972703 LL:  -4.675 LR: -20.819 RR:   0.000 FEB: -11.870
USER: RMSD 8.563318
USER: SEED 195
USER: STATUS no improvement in best in 4 clusters for 5 generations
USER: GENES 32
USER: genes 0 Translation |==|  0.72667 0.68470 0.47765
USER: genes 1 Rotation |==|  0.66069 0.24123 0.10412 0.52226
USER: genes 2 Torsion [N]-CA--C-[N] |==|  0.49909
USER: genes 3 Torsion [C]-N--CA-[CB] |==|  0.82071
USER: genes 4 Torsion [N]-CA--CB-[CG] |==|  0.88813
USER: genes 5 Torsion [CA]-CB--CG-[CD] |==|  0.31850
USER: genes 6 Torsion [CB]-CG--CD-[OE1] |==|  0.09654
USER: genes 7 Torsion [N]-CA--C-[N] |==|  0.11848
USER: genes 8 Torsion [C]-N--CA-[CB] |==|  0.78825
USER: genes 9 Torsion [N]-CA--C-[N] |==|  0.16667
USER: genes 10 Torsion [C]-N--CA-[CB] |==|  0.32418
USER: genes 11 Torsion [N]-CA--C-[O] |==|  0.89954
USER: genes 12 Torsion [N]-CA--CB-[CG2] |==|  0.58114
USER: genes 13 Torsion [CA]-CB--OG1-[HG1] |==|  0.83973
USER: genes 14 Torsion [C]-CA--CB-[CG] |==|  0.35392
USER: genes 15 Torsion [CA]-CB--CG-[CD] |==|  0.11365
USER: genes 16 Torsion [CB]-CG--CD-[CE] |==|  0.19768
USER: genes 17 Torsion [CG]-CD--CE-[NZ] |==|  0.15747
USER: genes 18 Torsion [CD]-CE--NZ-[HZ2] |==|  0.21279
USER: genes 19 Torsion [C]-CA--N-[C] |==|  0.64899
USER: genes 20 Torsion [N]-C--CA-[N] |==|  0.17408
USER: genes 21 Torsion [C]-CA--CB-[CG2] |==|  0.25295
USER: genes 22 Torsion [CA]-CB--OG1-[HG1] |==|  0.48742
USER: genes 23 Torsion [C]-CA--N-[C] |==|  0.76520
USER: genes 24 Torsion [N]-C--CA-[N] |==|  0.65728
USER: genes 25 Torsion [C]-CA--CB-[CG] |==|  0.52117
USER: genes 26 Torsion [CA]-CB--CG-[CD] |==|  0.36487
USER: genes 27 Torsion [CB]-CG--CD-[NE] |==|  0.39787
USER: genes 28 Torsion [CG]-CD--NE-[HE] |==|  0.73751
USER: genes 29 Torsion [C]-CA--N-[C] |==|  0.18519
USER: genes 30 Torsion [N]-C--CA-[N] |==|  0.62192
USER: genes 31 Torsion [C]-CA--N-[H2] |==|  0.59886
ROOT
ATOM      1  CA  LYS B   4      -7.161  13.861  13.141  1.00 37.28 LIG 0.18  C 
ENDROOT
BRANCH 1 2
ATOM      2  C   LYS B   4      -7.114  14.826  14.304  1.00 39.57 LIG 0.24  C 
ATOM      3 O    LYS B   4      -8.059  14.933  15.089  1.00 42.15 LIG-0.27  OA
ATOM      4  N   GLN B   5      -5.999  15.527  14.421  1.00 37.54 LIG-0.35  N 
ATOM      5 H    GLN B   5      -5.336  15.491  13.875  1.00 37.54 LIG 0.16  HD
BRANCH 4 6
ATOM      6  CA  GLN B   5      -5.835  16.436  15.534  1.00 44.43 LIG 0.18  C 
BRANCH 6 7
ATOM      7  CB  GLN B   5      -6.846  17.567  15.465  1.00 42.91 LIG 0.04  C 
BRANCH 7 8
ATOM      8  CG  GLN B   5      -7.034  18.053  14.069  1.00 46.61 LIG 0.10  C 
BRANCH 8 9
ATOM      9  CD  GLN B   5      -8.410  17.783  13.575  1.00 50.89 LIG 0.21  C 
ATOM     10  NE2 GLN B   5      -8.519  17.478  12.281  1.00 54.67 LIG-0.37  N 
ATOM     11 21HE GLN B   5      -7.817  17.452  11.785  1.00 54.67 LIG 0.16  HD
ATOM     12 22HE GLN B   5      -9.291  17.307  11.942  1.00 54.67 LIG 0.16  HD
ATOM     13 OE1  GLN B   5      -9.386  17.837  14.341  1.00 48.99 LIG-0.27  OA
ENDBRANCH 8 9
ENDBRANCH 7 8
ENDBRANCH 6 7
BRANCH 6 14
ATOM     14  C   GLN B   5      -5.920  15.703  16.870  1.00 45.34 LIG 0.24  C 
ATOM     15 O    GLN B   5      -6.526  16.198  17.815  1.00 47.84 LIG-0.27  OA
ATOM     16  N   THR B   6      -5.286  14.540  16.960  1.00 44.99 LIG-0.34  N 
ATOM     17 H    THR B   6      -4.812  14.190  16.334  1.00 44.99 LIG 0.16  HD
BRANCH 16 18
ATOM     18  CA  THR B   6      -5.368  13.758  18.186  1.00 47.63 LIG 0.20  C 
BRANCH 18 19
ATOM     19  C   THR B   6      -6.811  13.582  18.663  1.00 49.11 LIG 0.24  C 
ATOM     20 O    THR B   6      -7.152  13.976  19.775  1.00 51.64 LIG-0.27  OA
ATOM     21  N   ALA B   7      -7.644  12.968  17.831  1.00 46.55 LIG-0.35  N 
ATOM     22 H    ALA B   7      -7.429  12.713  17.038  1.00 46.55 LIG 0.16  HD
BRANCH 21 23
ATOM     23  CA  ALA B   7      -9.022  12.671  18.208  1.00 49.58 LIG 0.16  C 
ATOM     24  CB  ALA B   7     -10.011  13.432  17.298  1.00 45.32 LIG 0.04  C 
BRANCH 23 25
ATOM     25  C   ALA B   7      -9.274  11.160  18.154  1.00 53.19 LIG 0.22  C 
ATOM     26 O    ALA B   7      -8.734  10.459  17.277  1.00 57.48 LIG-0.29  OA
ENDBRANCH 23 25
ENDBRANCH 21 23
ENDBRANCH 18 19
BRANCH 18 27
ATOM     27  CB  THR B   6      -4.471  14.337  19.308  1.00 48.13 LIG 0.15  C 
ATOM     28  CG2 THR B   6      -4.007  13.225  20.233  1.00 44.70 LIG 0.04  C 
BRANCH 27 29
ATOM     29 OG1  THR B   6      -3.335  15.009  18.739  1.00 42.78 LIG-0.39  OA
ATOM     30 HG1  THR B   6      -2.904  14.474  18.257  1.00 42.78 LIG 0.21  HD
ENDBRANCH 27 29
ENDBRANCH 18 27
ENDBRANCH 16 18
ENDBRANCH 6 14
ENDBRANCH 4 6
ENDBRANCH 1 2
BRANCH 1 31
ATOM     31  CB  LYS B   4      -6.969  14.654  11.846  1.00 35.55 LIG 0.04  C 
BRANCH 31 32
ATOM     32  CG  LYS B   4      -5.896  14.138  10.972  1.00 39.70 LIG 0.00  C 
BRANCH 32 33
ATOM     33  CD  LYS B   4      -5.930  12.631  10.946  1.00 40.13 LIG 0.03  C 
BRANCH 33 34
ATOM     34  CE  LYS B   4      -7.131  12.148  10.178  1.00 42.33 LIG 0.23  C 
BRANCH 34 35
ATOM     35  NZ  LYS B   4      -7.153  12.688   8.804  1.00 43.53 LIG-0.08  N 
ATOM     36 HZ3  LYS B   4      -7.968  12.592   8.461  1.00 43.53 LIG 0.27  HD
ATOM     37 HZ1  LYS B   4      -6.938  13.552   8.821  1.00 43.53 LIG 0.27  HD
ATOM     38 HZ2  LYS B   4      -6.565  12.248   8.302  1.00 43.53 LIG 0.27  HD
ENDBRANCH 34 35
ENDBRANCH 33 34
ENDBRANCH 32 33
ENDBRANCH 31 32
ENDBRANCH 1 31
BRANCH 1 39
ATOM     39  N   LYS B   4      -8.434  13.154  13.138  1.00 32.65 LIG-0.35  N 
ATOM     40  C   THR B   3      -8.497  11.828  13.114  1.00 34.58 LIG 0.24  C 
ATOM     41 O    THR B   3      -7.506  11.126  12.984  1.00 36.58 LIG-0.27  OA
ATOM     42 H    LYS B   4      -9.124  13.668  13.152  1.00 32.65 LIG 0.16  HD
BRANCH 40 43
ATOM     43  CA  THR B   3      -9.878  11.201  13.226  1.00 32.52 LIG 0.20  C 
BRANCH 43 44
ATOM     44  CB  THR B   3      -9.732   9.693  13.319  1.00 35.15 LIG 0.15  C 
ATOM     45  CG2 THR B   3      -9.636   9.266  14.768  1.00 35.84 LIG 0.04  C 
BRANCH 44 46
ATOM     46 OG1  THR B   3     -10.873   9.083  12.706  1.00 37.78 LIG-0.39  OA
ATOM     47 HG1  THR B   3     -10.773   8.249  12.697  1.00 37.78 LIG 0.21  HD
ENDBRANCH 44 46
ENDBRANCH 43 44
BRANCH 43 48
ATOM     48  N   THR B   3     -10.686  11.603  12.084  1.00 36.19 LIG-0.34  N 
ATOM     49  C   ARG B   2     -11.350  12.749  12.074  1.00 33.52 LIG 0.24  C 
ATOM     50 O    ARG B   2     -11.455  13.464  13.051  1.00 34.90 LIG-0.27  OA
ATOM     51 H    THR B   3     -10.690  11.039  11.435  1.00 36.19 LIG 0.16  HD
BRANCH 49 52
ATOM     52  CA  ARG B   2     -11.968  13.169  10.756  1.00 37.04 LIG 0.18  C 
BRANCH 52 53
ATOM     53  CB  ARG B   2     -11.590  12.125   9.722  1.00 37.98 LIG 0.04  C 
BRANCH 53 54
ATOM     54  CG  ARG B   2     -11.972  12.477   8.304  1.00 44.54 LIG 0.02  C 
BRANCH 54 55
ATOM     55  CD  ARG B   2     -10.758  12.240   7.456  1.00 45.57 LIG 0.14  C 
BRANCH 55 56
ATOM     56  NE  ARG B   2     -11.173  11.709   6.168  1.00 45.97 LIG-0.23  N 
ATOM     57  CZ  ARG B   2     -11.546  12.453   5.136  1.00 44.90 LIG 0.67  C 
ATOM     58  NH1 ARG B   2     -11.580  13.781   5.230  1.00 46.97 LIG-0.23  N 
ATOM     59  NH2 ARG B   2     -11.908  11.857   4.017  1.00 41.82 LIG-0.23  N 
ATOM     60 2HH1 ARG B   2     -11.824  14.254   4.554  1.00 46.97 LIG 0.17  HD
ATOM     61 1HH1 ARG B   2     -11.358  14.165   5.967  1.00 46.97 LIG 0.17  HD
ATOM     62 2HH2 ARG B   2     -12.152  12.327   3.340  1.00 41.82 LIG 0.17  HD
ATOM     63 1HH2 ARG B   2     -11.899  10.999   3.965  1.00 41.82 LIG 0.17  HD
ATOM     64 HE   ARG B   2     -11.176  10.855   6.069  1.00 45.97 LIG 0.18  HD
ENDBRANCH 55 56
ENDBRANCH 54 55
ENDBRANCH 53 54
ENDBRANCH 52 53
BRANCH 52 65
ATOM     65  N   ARG B   2     -11.475  14.484  10.377  1.00 35.35 LIG-0.35  N 
ATOM     66 H    ARG B   2     -12.069  15.105  10.379  1.00 35.35 LIG 0.16  HD
ATOM     67  C   ALA B   1     -10.203  14.669  10.061  1.00 38.28 LIG 0.25  C 
ATOM     68 O    ALA B   1      -9.368  13.770  10.144  1.00 39.08 LIG-0.27  OA
BRANCH 67 69
ATOM     69  CA  ALA B   1      -9.798  16.065   9.608  1.00 38.95 LIG 0.27  C 
ATOM     70  CB  ALA B   1     -11.020  16.912   9.290  1.00 37.91 LIG 0.05  C 
BRANCH 69 71
ATOM     71  N   ALA B   1      -8.921  15.981   8.441  1.00 44.33 LIG-0.07  N 
ATOM     72 H1   ALA B   1      -9.403  16.076   7.699  1.00 44.33 LIG 0.28  HD
ATOM     73 H2   ALA B   1      -8.310  16.627   8.481  1.00 44.33 LIG 0.28  HD
ATOM     74 H3   ALA B   1      -8.515  15.189   8.431  1.00 44.33 LIG 0.28  HD
ENDBRANCH 69 71
ENDBRANCH 67 69
ENDBRANCH 52 65
ENDBRANCH 49 52
ENDBRANCH 43 48
ENDBRANCH 40 43
ENDBRANCH 1 39
TORSDOF 30
ENDMDL
MODEL 6
USER: ADFR SOLUTION from run 165
USER: SCORE 22.249733 LL:  -4.042 LR: -20.652 RR:   0.000 FEB: -11.703
USER: RMSD 8.603313
USER: SEED 164
USER: STATUS 1 or 2 clusters left
USER: GENES 32
USER: genes 0 Translation |==|  0.67545 0.69082 0.51260
USER: genes 1 Rotation |==|  0.81689 0.55744 0.11862 0.52888
USER: genes 2 Torsion [N]-CA--C-[N] |==|  0.21044
USER: genes 3 Torsion [C]-N--CA-[CB] |==|  0.41882
USER: genes 4 Torsion [N]-CA--CB-[CG] |==|  0.88898
USER: genes 5 Torsion [CA]-CB--CG-[CD] |==|  0.83015
USER: genes 6 Torsion [CB]-CG--CD-[OE1] |==|  0.01608
USER: genes 7 Torsion [N]-CA--C-[N] |==|  0.61133
USER: genes 8 Torsion [C]-N--CA-[CB] |==|  0.22731
USER: genes 9 Torsion [N]-CA--C-[N] |==|  0.99649
USER: genes 10 Torsion [C]-N--CA-[CB] |==|  0.80056
USER: genes 11 Torsion [N]-CA--C-[O] |==|  0.47954
USER: genes 12 Torsion [N]-CA--CB-[CG2] |==|  0.07260
USER: genes 13 Torsion [CA]-CB--OG1-[HG1] |==|  0.20293
USER: genes 14 Torsion [C]-CA--CB-[CG] |==|  0.52666
USER: genes 15 Torsion [CA]-CB--CG-[CD] |==|  0.76457
USER: genes 16 Torsion [CB]-CG--CD-[CE] |==|  0.82539
USER: genes 17 Torsion [CG]-CD--CE-[NZ] |==|  0.60287
USER: genes 18 Torsion [CD]-CE--NZ-[HZ2] |==|  0.35538
USER: genes 19 Torsion [C]-CA--N-[C] |==|  0.76785
USER: genes 20 Torsion [N]-C--CA-[N] |==|  0.00573
USER: genes 21 Torsion [C]-CA--CB-[CG2] |==|  0.79356
USER: genes 22 Torsion [CA]-CB--OG1-[HG1] |==|  0.73251
USER: genes 23 Torsion [C]-CA--N-[C] |==|  0.76570
USER: genes 24 Torsion [N]-C--CA-[N] |==|  0.00112
USER: genes 25 Torsion [C]-CA--CB-[CG] |==|  0.53060
USER: genes 26 Torsion [CA]-CB--CG-[CD] |==|  0.44516
USER: genes 27 Torsion [CB]-CG--CD-[NE] |==|  0.85546
USER: genes 28 Torsion [CG]-CD--NE-[HE] |==|  0.35637
USER: genes 29 Torsion [C]-CA--N-[C] |==|  0.75230
USER: genes 30 Torsion [N]-C--CA-[N] |==|  0.85250
USER: genes 31 Torsion [C]-CA--N-[H2] |==|  0.46306
ROOT
ATOM      1  CA  LYS B   4      -8.237  13.989  14.006  1.00 37.28 LIG 0.18  C 
ENDROOT
BRANCH 1 2
ATOM      2  C   LYS B   4      -8.918  13.164  15.074  1.00 39.57 LIG 0.24  C 
ATOM      3 O    LYS B   4      -9.972  13.534  15.597  1.00 42.15 LIG-0.27  OA
ATOM      4  N   GLN B   5      -8.316  12.031  15.393  1.00 37.54 LIG-0.35  N 
ATOM      5 H    GLN B   5      -7.569  11.761  15.063  1.00 37.54 LIG 0.16  HD
BRANCH 4 6
ATOM      6  CA  GLN B   5      -8.920  11.144  16.364  1.00 44.43 LIG 0.18  C 
BRANCH 6 7
ATOM      7  CB  GLN B   5      -8.542   9.700  16.088  1.00 42.91 LIG 0.04  C 
BRANCH 7 8
ATOM      8  CG  GLN B   5      -8.544   9.399  14.629  1.00 46.61 LIG 0.10  C 
BRANCH 8 9
ATOM      9  CD  GLN B   5      -9.889   9.600  14.029  1.00 50.89 LIG 0.21  C 
ATOM     10  NE2 GLN B   5     -10.023   9.232  12.753  1.00 54.67 LIG-0.37  N 
ATOM     11 21HE GLN B   5      -9.351   8.907  12.327  1.00 54.67 LIG 0.16  HD
ATOM     12 22HE GLN B   5     -10.781   9.320  12.357  1.00 54.67 LIG 0.16  HD
ATOM     13 OE1  GLN B   5     -10.822  10.075  14.696  1.00 48.99 LIG-0.27  OA
ENDBRANCH 8 9
ENDBRANCH 7 8
ENDBRANCH 6 7
BRANCH 6 14
ATOM     14  C   GLN B   5      -8.553  11.547  17.789  1.00 45.34 LIG 0.24  C 
ATOM     15 O    GLN B   5      -8.485  12.730  18.104  1.00 47.84 LIG-0.27  OA
ATOM     16  N   THR B   6      -8.285  10.565  18.642  1.00 44.99 LIG-0.34  N 
ATOM     17 H    THR B   6      -8.275   9.730  18.441  1.00 44.99 LIG 0.16  HD
BRANCH 16 18
ATOM     18  CA  THR B   6      -7.980  10.870  20.033  1.00 47.63 LIG 0.20  C 
BRANCH 18 19
ATOM     19  C   THR B   6      -7.075   9.814  20.670  1.00 49.11 LIG 0.24  C 
ATOM     20 O    THR B   6      -6.684   9.944  21.827  1.00 51.64 LIG-0.27  OA
ATOM     21  N   ALA B   7      -6.725   8.787  19.905  1.00 46.55 LIG-0.35  N 
ATOM     22 H    ALA B   7      -7.014   8.665  19.104  1.00 46.55 LIG 0.16  HD
BRANCH 21 23
ATOM     23  CA  ALA B   7      -5.802   7.760  20.375  1.00 49.58 LIG 0.16  C 
ATOM     24  CB  ALA B   7      -4.364   8.316  20.456  1.00 45.32 LIG 0.04  C 
BRANCH 23 25
ATOM     25  C   ALA B   7      -6.260   7.216  21.733  1.00 53.19 LIG 0.22  C 
ATOM     26 O    ALA B   7      -5.688   6.236  22.248  1.00 57.48 LIG-0.29  OA
ENDBRANCH 23 25
ENDBRANCH 21 23
ENDBRANCH 18 19
BRANCH 18 27
ATOM     27  CB  THR B   6      -9.260  11.097  20.875  1.00 48.13 LIG 0.15  C 
ATOM     28  CG2 THR B   6     -10.430  10.348  20.262  1.00 44.70 LIG 0.04  C 
BRANCH 27 29
ATOM     29 OG1  THR B   6      -9.049  10.658  22.228  1.00 42.78 LIG-0.39  OA
ATOM     30 HG1  THR B   6      -8.547  11.202  22.624  1.00 42.78 LIG 0.21  HD
ENDBRANCH 27 29
ENDBRANCH 18 27
ENDBRANCH 16 18
ENDBRANCH 6 14
ENDBRANCH 4 6
ENDBRANCH 1 2
BRANCH 1 31
ATOM     31  CB  LYS B   4      -8.793  15.414  14.067  1.00 35.55 LIG 0.04  C 
BRANCH 31 32
ATOM     32  CG  LYS B   4      -8.383  16.275  12.938  1.00 39.70 LIG 0.00  C 
BRANCH 32 33
ATOM     33  CD  LYS B   4      -7.035  16.890  13.221  1.00 40.13 LIG 0.03  C 
BRANCH 33 34
ATOM     34  CE  LYS B   4      -7.111  17.781  14.431  1.00 42.33 LIG 0.23  C 
BRANCH 34 35
ATOM     35  NZ  LYS B   4      -6.265  18.982  14.278  1.00 43.53 LIG-0.08  N 
ATOM     36 HZ3  LYS B   4      -5.586  18.941  14.851  1.00 43.53 LIG 0.27  HD
ATOM     37 HZ1  LYS B   4      -5.950  19.019  13.446  1.00 43.53 LIG 0.27  HD
ATOM     38 HZ2  LYS B   4      -6.749  19.710  14.443  1.00 43.53 LIG 0.27  HD
ENDBRANCH 34 35
ENDBRANCH 33 34
ENDBRANCH 32 33
ENDBRANCH 31 32
ENDBRANCH 1 31
BRANCH 1 39
ATOM     39  N   LYS B   4      -8.469  13.393  12.699  1.00 32.65 LIG-0.35  N 
ATOM     40  C   THR B   3      -7.718  12.397  12.241  1.00 34.58 LIG 0.24  C 
ATOM     41 O    THR B   3      -6.728  11.996  12.834  1.00 36.58 LIG-0.27  OA
ATOM     42 H    LYS B   4      -9.124  13.740  12.262  1.00 32.65 LIG 0.16  HD
BRANCH 40 43
ATOM     43  CA  THR B   3      -8.124  11.780  10.912  1.00 32.52 LIG 0.20  C 
BRANCH 43 44
ATOM     44  CB  THR B   3      -6.944  11.830   9.960  1.00 35.15 LIG 0.15  C 
ATOM     45  CG2 THR B   3      -6.735  13.243   9.459  1.00 35.84 LIG 0.04  C 
BRANCH 44 46
ATOM     46 OG1  THR B   3      -5.774  11.381  10.653  1.00 37.78 LIG-0.39  OA
ATOM     47 HG1  THR B   3      -5.348  12.045  10.942  1.00 37.78 LIG 0.21  HD
ENDBRANCH 44 46
ENDBRANCH 43 44
BRANCH 43 48
ATOM     48  N   THR B   3      -9.283  12.487  10.384  1.00 36.19 LIG-0.34  N 
ATOM     49  C   ARG B   2     -10.514  12.177  10.762  1.00 33.52 LIG 0.24  C 
ATOM     50 O    ARG B   2     -10.775  11.205  11.441  1.00 34.90 LIG-0.27  OA
ATOM     51 H    THR B   3      -9.094  13.109   9.820  1.00 36.19 LIG 0.16  HD
BRANCH 49 52
ATOM     52  CA  ARG B   2     -11.619  13.120  10.329  1.00 37.04 LIG 0.18  C 
BRANCH 52 53
ATOM     53  CB  ARG B   2     -12.611  12.315   9.511  1.00 37.98 LIG 0.04  C 
BRANCH 53 54
ATOM     54  CG  ARG B   2     -13.641  13.142   8.779  1.00 44.54 LIG 0.02  C 
BRANCH 54 55
ATOM     55  CD  ARG B   2     -14.192  12.279   7.684  1.00 45.57 LIG 0.14  C 
BRANCH 55 56
ATOM     56  NE  ARG B   2     -13.092  11.736   6.905  1.00 45.97 LIG-0.23  N 
ATOM     57  CZ  ARG B   2     -12.115  12.462   6.380  1.00 44.90 LIG 0.67  C 
ATOM     58  NH1 ARG B   2     -12.095  13.785   6.528  1.00 46.97 LIG-0.23  N 
ATOM     59  NH2 ARG B   2     -11.171  11.857   5.687  1.00 41.82 LIG-0.23  N 
ATOM     60 2HH1 ARG B   2     -11.456  14.247   6.183  1.00 46.97 LIG 0.17  HD
ATOM     61 1HH1 ARG B   2     -12.721  14.178   6.969  1.00 46.97 LIG 0.17  HD
ATOM     62 2HH2 ARG B   2     -10.532  12.315   5.340  1.00 41.82 LIG 0.17  HD
ATOM     63 1HH2 ARG B   2     -11.195  11.004   5.580  1.00 41.82 LIG 0.17  HD
ATOM     64 HE   ARG B   2     -13.074  10.886   6.776  1.00 45.97 LIG 0.18  HD
ENDBRANCH 55 56
ENDBRANCH 54 55
ENDBRANCH 53 54
ENDBRANCH 52 53
BRANCH 52 65
ATOM     65  N   ARG B   2     -11.057  14.210   9.546  1.00 35.35 LIG-0.35  N 
ATOM     66 H    ARG B   2     -11.029  14.067   8.699  1.00 35.35 LIG 0.16  HD
ATOM     67  C   ALA B   1     -10.634  15.320  10.130  1.00 38.28 LIG 0.25  C 
ATOM     68 O    ALA B   1     -10.762  15.517  11.337  1.00 39.08 LIG-0.27  OA
BRANCH 67 69
ATOM     69  CA  ALA B   1      -9.996  16.374   9.235  1.00 38.95 LIG 0.27  C 
ATOM     70  CB  ALA B   1     -11.030  17.014   8.323  1.00 37.91 LIG 0.05  C 
BRANCH 69 71
ATOM     71  N   ALA B   1      -8.921  15.777   8.444  1.00 44.33 LIG-0.07  N 
ATOM     72 H1   ALA B   1      -9.204  15.013   8.087  1.00 44.33 LIG 0.28  HD
ATOM     73 H2   ALA B   1      -8.684  16.338   7.794  1.00 44.33 LIG 0.28  HD
ATOM     74 H3   ALA B   1      -8.219  15.618   8.968  1.00 44.33 LIG 0.28  HD
ENDBRANCH 69 71
ENDBRANCH 67 69
ENDBRANCH 52 65
ENDBRANCH 49 52
ENDBRANCH 43 48
ENDBRANCH 40 43
ENDBRANCH 1 39
TORSDOF 30
ENDMDL
MODEL 7
USER: ADFR SOLUTION from run 71
USER: SCORE 22.921069 LL:  -5.011 LR: -20.628 RR:   0.000 FEB: -11.679
USER: RMSD 8.656662
USER: SEED 70
USER: STATUS no improvement in best in 9 clusters for 5 generations
USER: GENES 32
USER: genes 0 Translation |==|  0.68164 0.60452 0.44207
USER: genes 1 Rotation |==|  0.36467 0.45416 0.91454 0.74030
USER: genes 2 Torsion [N]-CA--C-[N] |==|  0.73568
USER: genes 3 Torsion [C]-N--CA-[CB] |==|  0.16097
USER: genes 4 Torsion [N]-CA--CB-[CG] |==|  0.67863
USER: genes 5 Torsion [CA]-CB--CG-[CD] |==|  0.97432
USER: genes 6 Torsion [CB]-CG--CD-[OE1] |==|  0.79900
USER: genes 7 Torsion [N]-CA--C-[N] |==|  0.63527
USER: genes 8 Torsion [C]-N--CA-[CB] |==|  0.23333
USER: genes 9 Torsion [N]-CA--C-[N] |==|  0.86250
USER: genes 10 Torsion [C]-N--CA-[CB] |==|  0.53111
USER: genes 11 Torsion [N]-CA--C-[O] |==|  0.62037
USER: genes 12 Torsion [N]-CA--CB-[CG2] |==|  0.71964
USER: genes 13 Torsion [CA]-CB--OG1-[HG1] |==|  0.04708
USER: genes 14 Torsion [C]-CA--CB-[CG] |==|  0.45435
USER: genes 15 Torsion [CA]-CB--CG-[CD] |==|  0.93486
USER: genes 16 Torsion [CB]-CG--CD-[CE] |==|  0.30271
USER: genes 17 Torsion [CG]-CD--CE-[NZ] |==|  0.58993
USER: genes 18 Torsion [CD]-CE--NZ-[HZ2] |==|  0.39250
USER: genes 19 Torsion [C]-CA--N-[C] |==|  0.72741
USER: genes 20 Torsion [N]-C--CA-[N] |==|  0.18233
USER: genes 21 Torsion [C]-CA--CB-[CG2] |==|  0.51169
USER: genes 22 Torsion [CA]-CB--OG1-[HG1] |==|  0.74470
USER: genes 23 Torsion [C]-CA--N-[C] |==|  0.75845
USER: genes 24 Torsion [N]-C--CA-[N] |==|  0.15437
USER: genes 25 Torsion [C]-CA--CB-[CG] |==|  0.30630
USER: genes 26 Torsion [CA]-CB--CG-[CD] |==|  0.68285
USER: genes 27 Torsion [CB]-CG--CD-[NE] |==|  0.35020
USER: genes 28 Torsion [CG]-CD--NE-[HE] |==|  0.67673
USER: genes 29 Torsion [C]-CA--N-[C] |==|  0.74538
USER: genes 30 Torsion [N]-C--CA-[N] |==|  0.39950
USER: genes 31 Torsion [C]-CA--N-[H2] |==|  0.68773
ROOT
ATOM      1  CA  LYS B   4      -8.107  12.177  12.260  1.00 37.28 LIG 0.18  C 
ENDROOT
BRANCH 1 2
ATOM      2  C   LYS B   4      -8.682  11.196  13.257  1.00 39.57 LIG 0.24  C 
ATOM      3 O    LYS B   4      -9.088  10.086  12.905  1.00 42.15 LIG-0.27  OA
ATOM      4  N   GLN B   5      -8.707  11.606  14.513  1.00 37.54 LIG-0.35  N 
ATOM      5 H    GLN B   5      -8.454  12.383  14.783  1.00 37.54 LIG 0.16  HD
BRANCH 4 6
ATOM      6  CA  GLN B   5      -9.187  10.718  15.550  1.00 44.43 LIG 0.18  C 
BRANCH 6 7
ATOM      7  CB  GLN B   5      -8.377   9.434  15.582  1.00 42.91 LIG 0.04  C 
BRANCH 7 8
ATOM      8  CG  GLN B   5      -9.211   8.248  15.238  1.00 46.61 LIG 0.10  C 
BRANCH 8 9
ATOM      9  CD  GLN B   5     -10.655   8.594  15.169  1.00 50.89 LIG 0.21  C 
ATOM     10  NE2 GLN B   5     -11.194   8.621  13.949  1.00 54.67 LIG-0.37  N 
ATOM     11 21HE GLN B   5     -10.709   8.450  13.260  1.00 54.67 LIG 0.16  HD
ATOM     12 22HE GLN B   5     -12.027   8.809  13.850  1.00 54.67 LIG 0.16  HD
ATOM     13 OE1  GLN B   5     -11.305   8.832  16.200  1.00 48.99 LIG-0.27  OA
ENDBRANCH 8 9
ENDBRANCH 7 8
ENDBRANCH 6 7
BRANCH 6 14
ATOM     14  C   GLN B   5      -9.187  11.402  16.914  1.00 45.34 LIG 0.24  C 
ATOM     15 O    GLN B   5      -9.655  12.529  17.045  1.00 47.84 LIG-0.27  OA
ATOM     16  N   THR B   6      -8.634  10.738  17.922  1.00 44.99 LIG-0.34  N 
ATOM     17 H    THR B   6      -8.254   9.970  17.853  1.00 44.99 LIG 0.16  HD
BRANCH 16 18
ATOM     18  CA  THR B   6      -8.646  11.305  19.263  1.00 47.63 LIG 0.20  C 
BRANCH 18 19
ATOM     19  C   THR B   6      -7.434  10.863  20.086  1.00 49.11 LIG 0.24  C 
ATOM     20 O    THR B   6      -6.741  11.694  20.669  1.00 51.64 LIG-0.27  OA
ATOM     21  N   ALA B   7      -7.168   9.563  20.108  1.00 46.55 LIG-0.35  N 
ATOM     22 H    ALA B   7      -7.659   8.966  19.730  1.00 46.55 LIG 0.16  HD
BRANCH 21 23
ATOM     23  CA  ALA B   7      -5.993   9.032  20.792  1.00 49.58 LIG 0.16  C 
ATOM     24  CB  ALA B   7      -5.776   7.547  20.429  1.00 45.32 LIG 0.04  C 
BRANCH 23 25
ATOM     25  C   ALA B   7      -4.756   9.870  20.450  1.00 53.19 LIG 0.22  C 
ATOM     26 O    ALA B   7      -3.671   9.318  20.187  1.00 57.48 LIG-0.29  OA
ENDBRANCH 23 25
ENDBRANCH 21 23
ENDBRANCH 18 19
BRANCH 18 27
ATOM     27  CB  THR B   6      -9.970  11.011  20.009  1.00 48.13 LIG 0.15  C 
ATOM     28  CG2 THR B   6     -10.874  12.231  19.972  1.00 44.70 LIG 0.04  C 
BRANCH 27 29
ATOM     29 OG1  THR B   6     -10.638   9.886  19.414  1.00 42.78 LIG-0.39  OA
ATOM     30 HG1  THR B   6     -10.095   9.458  18.936  1.00 42.78 LIG 0.21  HD
ENDBRANCH 27 29
ENDBRANCH 18 27
ENDBRANCH 16 18
ENDBRANCH 6 14
ENDBRANCH 4 6
ENDBRANCH 1 2
BRANCH 1 31
ATOM     31  CB  LYS B   4      -7.126  13.095  12.994  1.00 35.55 LIG 0.04  C 
BRANCH 31 32
ATOM     32  CG  LYS B   4      -6.211  13.841  12.106  1.00 39.70 LIG 0.00  C 
BRANCH 32 33
ATOM     33  CD  LYS B   4      -6.070  13.120  10.789  1.00 40.13 LIG 0.03  C 
BRANCH 33 34
ATOM     34  CE  LYS B   4      -6.769  13.885   9.697  1.00 42.33 LIG 0.23  C 
BRANCH 34 35
ATOM     35  NZ  LYS B   4      -7.326  12.982   8.670  1.00 43.53 LIG-0.08  N 
ATOM     36 HZ3  LYS B   4      -6.771  12.945   7.975  1.00 43.53 LIG 0.27  HD
ATOM     37 HZ1  LYS B   4      -7.427  12.167   9.013  1.00 43.53 LIG 0.27  HD
ATOM     38 HZ2  LYS B   4      -8.117  13.289   8.401  1.00 43.53 LIG 0.27  HD
ENDBRANCH 34 35
ENDBRANCH 33 34
ENDBRANCH 32 33
ENDBRANCH 31 32
ENDBRANCH 1 31
BRANCH 1 39
ATOM     39  N   LYS B   4      -9.181  12.944  11.647  1.00 32.65 LIG-0.35  N 
ATOM     40  C   THR B   3      -9.679  12.623  10.458  1.00 34.58 LIG 0.24  C 
ATOM     41 O    THR B   3      -9.199  11.742   9.762  1.00 36.58 LIG-0.27  OA
ATOM     42 H    LYS B   4      -9.456  13.608  12.119  1.00 32.65 LIG 0.16  HD
BRANCH 40 43
ATOM     43  CA  THR B   3     -10.873  13.428   9.970  1.00 32.52 LIG 0.20  C 
BRANCH 43 44
ATOM     44  CB  THR B   3     -11.423  12.785   8.710  1.00 35.15 LIG 0.15  C 
ATOM     45  CG2 THR B   3     -12.549  13.623   8.144  1.00 35.84 LIG 0.04  C 
BRANCH 44 46
ATOM     46 OG1  THR B   3     -10.366  12.676   7.750  1.00 37.78 LIG-0.39  OA
ATOM     47 HG1  THR B   3     -10.361  13.359   7.261  1.00 37.78 LIG 0.21  HD
ENDBRANCH 44 46
ENDBRANCH 43 44
BRANCH 43 48
ATOM     48  N   THR B   3     -10.468  14.808   9.746  1.00 36.19 LIG-0.34  N 
ATOM     49  C   ARG B   2     -10.486  15.702  10.724  1.00 33.52 LIG 0.24  C 
ATOM     50 O    ARG B   2     -10.975  15.483  11.814  1.00 34.90 LIG-0.27  OA
ATOM     51 H    THR B   3     -10.222  14.982   8.941  1.00 36.19 LIG 0.16  HD
BRANCH 49 52
ATOM     52  CA  ARG B   2      -9.833  17.039  10.439  1.00 37.04 LIG 0.18  C 
BRANCH 52 53
ATOM     53  CB  ARG B   2     -10.049  17.921  11.655  1.00 37.98 LIG 0.04  C 
BRANCH 53 54
ATOM     54  CG  ARG B   2      -8.800  18.209  12.453  1.00 44.54 LIG 0.02  C 
BRANCH 54 55
ATOM     55  CD  ARG B   2      -8.979  17.553  13.790  1.00 45.57 LIG 0.14  C 
BRANCH 55 56
ATOM     56  NE  ARG B   2      -7.842  16.686  14.051  1.00 45.97 LIG-0.23  N 
ATOM     57  CZ  ARG B   2      -6.592  17.107  14.185  1.00 44.90 LIG 0.67  C 
ATOM     58  NH1 ARG B   2      -6.293  18.399  14.066  1.00 46.97 LIG-0.23  N 
ATOM     59  NH2 ARG B   2      -5.641  16.224  14.414  1.00 41.82 LIG-0.23  N 
ATOM     60 2HH1 ARG B   2      -5.479  18.663  14.155  1.00 46.97 LIG 0.17  HD
ATOM     61 1HH1 ARG B   2      -6.915  18.971  13.901  1.00 46.97 LIG 0.17  HD
ATOM     62 2HH2 ARG B   2      -4.826  16.483  14.503  1.00 41.82 LIG 0.17  HD
ATOM     63 1HH2 ARG B   2      -5.836  15.389  14.475  1.00 41.82 LIG 0.17  HD
ATOM     64 HE   ARG B   2      -7.991  15.842  14.123  1.00 45.97 LIG 0.18  HD
ENDBRANCH 55 56
ENDBRANCH 54 55
ENDBRANCH 53 54
ENDBRANCH 52 53
BRANCH 52 65
ATOM     65  N   ARG B   2     -10.423  17.633   9.250  1.00 35.35 LIG-0.35  N 
ATOM     66 H    ARG B   2     -11.118  18.118   9.397  1.00 35.35 LIG 0.16  HD
ATOM     67  C   ALA B   1      -9.902  17.419   8.052  1.00 38.28 LIG 0.25  C 
ATOM     68 O    ALA B   1      -8.862  16.782   7.892  1.00 39.08 LIG-0.27  OA
BRANCH 67 69
ATOM     69  CA  ALA B   1     -10.633  18.024   6.861  1.00 38.95 LIG 0.27  C 
ATOM     70  CB  ALA B   1     -11.605  17.025   6.252  1.00 37.91 LIG 0.05  C 
BRANCH 69 71
ATOM     71  N   ALA B   1      -9.671  18.474   5.856  1.00 44.33 LIG-0.07  N 
ATOM     72 H1   ALA B   1      -9.884  18.126   5.065  1.00 44.33 LIG 0.28  HD
ATOM     73 H2   ALA B   1      -9.689  19.362   5.804  1.00 44.33 LIG 0.28  HD
ATOM     74 H3   ALA B   1      -8.854  18.207   6.087  1.00 44.33 LIG 0.28  HD
ENDBRANCH 69 71
ENDBRANCH 67 69
ENDBRANCH 52 65
ENDBRANCH 49 52
ENDBRANCH 43 48
ENDBRANCH 40 43
ENDBRANCH 1 39
TORSDOF 30
ENDMDL
MODEL 8
USER: ADFR SOLUTION from run 83
USER: SCORE 22.487174 LL:  -4.916 LR: -20.551 RR:   0.000 FEB: -11.602
USER: RMSD 9.432016
USER: SEED 82
USER: STATUS 1 or 2 clusters left
USER: GENES 32
USER: genes 0 Translation |==|  0.77248 0.61744 0.47828
USER: genes 1 Rotation |==|  0.37854 0.92225 0.73596 0.53574
USER: genes 2 Torsion [N]-CA--C-[N] |==|  0.14299
USER: genes 3 Torsion [C]-N--CA-[CB] |==|  0.22655
USER: genes 4 Torsion [N]-CA--CB-[CG] |==|  0.15846
USER: genes 5 Torsion [CA]-CB--CG-[CD] |==|  0.72330
USER: genes 6 Torsion [CB]-CG--CD-[OE1] |==|  0.98756
USER: genes 7 Torsion [N]-CA--C-[N] |==|  0.43909
USER: genes 8 Torsion [C]-N--CA-[CB] |==|  0.79881
USER: genes 9 Torsion [N]-CA--C-[N] |==|  0.20797
USER: genes 10 Torsion [C]-N--CA-[CB] |==|  0.42347
USER: genes 11 Torsion [N]-CA--C-[O] |==|  0.95007
USER: genes 12 Torsion [N]-CA--CB-[CG2] |==|  0.87026
USER: genes 13 Torsion [CA]-CB--OG1-[HG1] |==|  0.03596
USER: genes 14 Torsion [C]-CA--CB-[CG] |==|  0.63376
USER: genes 15 Torsion [CA]-CB--CG-[CD] |==|  0.29266
USER: genes 16 Torsion [CB]-CG--CD-[CE] |==|  0.94916
USER: genes 17 Torsion [CG]-CD--CE-[NZ] |==|  0.55445
USER: genes 18 Torsion [CD]-CE--NZ-[HZ2] |==|  0.03788
USER: genes 19 Torsion [C]-CA--N-[C] |==|  0.58440
USER: genes 20 Torsion [N]-C--CA-[N] |==|  0.08046
USER: genes 21 Torsion [C]-CA--CB-[CG2] |==|  0.22427
USER: genes 22 Torsion [CA]-CB--OG1-[HG1] |==|  0.39944
USER: genes 23 Torsion [C]-CA--N-[C] |==|  0.18851
USER: genes 24 Torsion [N]-C--CA-[N] |==|  0.21237
USER: genes 25 Torsion [C]-CA--CB-[CG] |==|  0.36250
USER: genes 26 Torsion [CA]-CB--CG-[CD] |==|  0.45689
USER: genes 27 Torsion [CB]-CG--CD-[NE] |==|  0.77138
USER: genes 28 Torsion [CG]-CD--NE-[HE] |==|  0.01423
USER: genes 29 Torsion [C]-CA--N-[C] |==|  0.52222
USER: genes 30 Torsion [N]-C--CA-[N] |==|  0.29606
USER: genes 31 Torsion [C]-CA--N-[H2] |==|  0.00828
ROOT
ATOM      1  CA  LYS B   4      -6.199  12.448  13.157  1.00 37.28 LIG 0.18  C 
ENDROOT
BRANCH 1 2
ATOM      2  C   LYS B   4      -5.723  13.873  13.334  1.00 39.57 LIG 0.24  C 
ATOM      3 O    LYS B   4      -4.890  14.371  12.574  1.00 42.15 LIG-0.27  OA
ATOM      4  N   GLN B   5      -6.265  14.536  14.340  1.00 37.54 LIG-0.35  N 
ATOM      5 H    GLN B   5      -6.829  14.206  14.900  1.00 37.54 LIG 0.16  HD
BRANCH 4 6
ATOM      6  CA  GLN B   5      -5.917  15.923  14.559  1.00 44.43 LIG 0.18  C 
BRANCH 6 7
ATOM      7  CB  GLN B   5      -6.718  16.834  13.645  1.00 42.91 LIG 0.04  C 
BRANCH 7 8
ATOM      8  CG  GLN B   5      -8.185  16.645  13.827  1.00 46.61 LIG 0.10  C 
BRANCH 8 9
ATOM      9  CD  GLN B   5      -8.761  15.772  12.769  1.00 50.89 LIG 0.21  C 
ATOM     10  NE2 GLN B   5     -10.056  15.476  12.895  1.00 54.67 LIG-0.37  N 
ATOM     11 21HE GLN B   5     -10.504  15.781  13.562  1.00 54.67 LIG 0.16  HD
ATOM     12 22HE GLN B   5     -10.442  14.980  12.309  1.00 54.67 LIG 0.16  HD
ATOM     13 OE1  GLN B   5      -8.062  15.362  11.829  1.00 48.99 LIG-0.27  OA
ENDBRANCH 8 9
ENDBRANCH 7 8
ENDBRANCH 6 7
BRANCH 6 14
ATOM     14  C   GLN B   5      -6.094  16.319  16.021  1.00 45.34 LIG 0.24  C 
ATOM     15 O    GLN B   5      -6.859  15.692  16.748  1.00 47.84 LIG-0.27  OA
ATOM     16  N   THR B   6      -5.413  17.376  16.447  1.00 44.99 LIG-0.34  N 
ATOM     17 H    THR B   6      -4.909  17.865  15.952  1.00 44.99 LIG 0.16  HD
BRANCH 16 18
ATOM     18  CA  THR B   6      -5.490  17.780  17.844  1.00 47.63 LIG 0.20  C 
BRANCH 18 19
ATOM     19  C   THR B   6      -5.153  16.630  18.796  1.00 49.11 LIG 0.24  C 
ATOM     20 O    THR B   6      -6.039  16.076  19.441  1.00 51.64 LIG-0.27  OA
ATOM     21  N   ALA B   7      -3.873  16.296  18.899  1.00 46.55 LIG-0.35  N 
ATOM     22 H    ALA B   7      -3.244  16.653  18.433  1.00 46.55 LIG 0.16  HD
BRANCH 21 23
ATOM     23  CA  ALA B   7      -3.422  15.271  19.834  1.00 49.58 LIG 0.16  C 
ATOM     24  CB  ALA B   7      -2.130  14.598  19.323  1.00 45.32 LIG 0.04  C 
BRANCH 23 25
ATOM     25  C   ALA B   7      -3.214  15.876  21.227  1.00 53.19 LIG 0.22  C 
ATOM     26 O    ALA B   7      -3.099  17.108  21.370  1.00 57.48 LIG-0.29  OA
ENDBRANCH 23 25
ENDBRANCH 21 23
ENDBRANCH 18 19
BRANCH 18 27
ATOM     27  CB  THR B   6      -6.857  18.417  18.192  1.00 48.13 LIG 0.15  C 
ATOM     28  CG2 THR B   6      -7.242  19.440  17.137  1.00 44.70 LIG 0.04  C 
BRANCH 27 29
ATOM     29 OG1  THR B   6      -7.870  17.402  18.287  1.00 42.78 LIG-0.39  OA
ATOM     30 HG1  THR B   6      -7.507  16.645  18.311  1.00 42.78 LIG 0.21  HD
ENDBRANCH 27 29
ENDBRANCH 18 27
ENDBRANCH 16 18
ENDBRANCH 6 14
ENDBRANCH 4 6
ENDBRANCH 1 2
BRANCH 1 31
ATOM     31  CB  LYS B   4      -5.608  11.899  11.856  1.00 35.55 LIG 0.04  C 
BRANCH 31 32
ATOM     32  CG  LYS B   4      -6.589  11.227  10.979  1.00 39.70 LIG 0.00  C 
BRANCH 32 33
ATOM     33  CD  LYS B   4      -6.921  12.110   9.803  1.00 40.13 LIG 0.03  C 
BRANCH 33 34
ATOM     34  CE  LYS B   4      -6.528  13.534  10.091  1.00 42.33 LIG 0.23  C 
BRANCH 34 35
ATOM     35  NZ  LYS B   4      -7.231  14.484   9.206  1.00 43.53 LIG-0.08  N 
ATOM     36 HZ3  LYS B   4      -7.551  15.159   9.689  1.00 43.53 LIG 0.27  HD
ATOM     37 HZ1  LYS B   4      -6.664  14.798   8.596  1.00 43.53 LIG 0.27  HD
ATOM     38 HZ2  LYS B   4      -7.903  14.067   8.797  1.00 43.53 LIG 0.27  HD
ENDBRANCH 34 35
ENDBRANCH 33 34
ENDBRANCH 32 33
ENDBRANCH 31 32
ENDBRANCH 1 31
BRANCH 1 39
ATOM     39  N   LYS B   4      -7.654  12.414  13.125  1.00 32.65 LIG-0.35  N 
ATOM     40  C   THR B   3      -8.338  11.364  13.563  1.00 34.58 LIG 0.24  C 
ATOM     41 O    THR B   3      -7.796  10.328  13.915  1.00 36.58 LIG-0.27  OA
ATOM     42 H    LYS B   4      -8.018  13.124  12.803  1.00 32.65 LIG 0.16  HD
BRANCH 40 43
ATOM     43  CA  THR B   3      -9.854  11.487  13.584  1.00 32.52 LIG 0.20  C 
BRANCH 43 44
ATOM     44  CB  THR B   3     -10.467  10.109  13.421  1.00 35.15 LIG 0.15  C 
ATOM     45  CG2 THR B   3     -10.463   9.375  14.744  1.00 35.84 LIG 0.04  C 
BRANCH 44 46
ATOM     46 OG1  THR B   3     -11.811  10.257  12.949  1.00 37.78 LIG-0.39  OA
ATOM     47 HG1  THR B   3     -11.990   9.635  12.414  1.00 37.78 LIG 0.21  HD
ENDBRANCH 44 46
ENDBRANCH 43 44
BRANCH 43 48
ATOM     48  N   THR B   3     -10.279  12.403  12.535  1.00 36.19 LIG-0.34  N 
ATOM     49  C   ARG B   2     -10.150  12.095  11.253  1.00 33.52 LIG 0.24  C 
ATOM     50 O    ARG B   2      -9.544  11.118  10.863  1.00 34.90 LIG-0.27  OA
ATOM     51 H    THR B   3     -10.613  13.142  12.821  1.00 36.19 LIG 0.16  HD
BRANCH 49 52
ATOM     52  CA  ARG B   2     -10.830  13.014  10.258  1.00 37.04 LIG 0.18  C 
BRANCH 52 53
ATOM     53  CB  ARG B   2     -10.931  12.268   8.942  1.00 37.98 LIG 0.04  C 
BRANCH 53 54
ATOM     54  CG  ARG B   2     -12.303  12.285   8.312  1.00 44.54 LIG 0.02  C 
BRANCH 54 55
ATOM     55  CD  ARG B   2     -12.132  11.855   6.886  1.00 45.57 LIG 0.14  C 
BRANCH 55 56
ATOM     56  NE  ARG B   2     -11.711  12.997   6.091  1.00 45.97 LIG-0.23  N 
ATOM     57  CZ  ARG B   2     -11.565  12.980   4.773  1.00 44.90 LIG 0.67  C 
ATOM     58  NH1 ARG B   2     -11.788  11.867   4.077  1.00 46.97 LIG-0.23  N 
ATOM     59  NH2 ARG B   2     -11.171  14.078   4.160  1.00 41.82 LIG-0.23  N 
ATOM     60 2HH1 ARG B   2     -11.690  11.866   3.223  1.00 46.97 LIG 0.17  HD
ATOM     61 1HH1 ARG B   2     -12.030  11.147   4.483  1.00 46.97 LIG 0.17  HD
ATOM     62 2HH2 ARG B   2     -11.072  14.082   3.306  1.00 41.82 LIG 0.17  HD
ATOM     63 1HH2 ARG B   2     -11.013  14.791   4.614  1.00 41.82 LIG 0.17  HD
ATOM     64 HE   ARG B   2     -11.545  13.732   6.503  1.00 45.97 LIG 0.18  HD
ENDBRANCH 55 56
ENDBRANCH 54 55
ENDBRANCH 53 54
ENDBRANCH 52 53
BRANCH 52 65
ATOM     65  N   ARG B   2     -10.056  14.237  10.109  1.00 35.35 LIG-0.35  N 
ATOM     66 H    ARG B   2      -9.291  14.229  10.502  1.00 35.35 LIG 0.16  HD
ATOM     67  C   ALA B   1     -10.527  15.260   9.414  1.00 38.28 LIG 0.25  C 
ATOM     68 O    ALA B   1     -11.592  15.204   8.802  1.00 39.08 LIG-0.27  OA
BRANCH 67 69
ATOM     69  CA  ALA B   1      -9.675  16.521   9.375  1.00 38.95 LIG 0.27  C 
ATOM     70  CB  ALA B   1     -10.506  17.753   9.701  1.00 37.91 LIG 0.05  C 
BRANCH 69 71
ATOM     71  N   ALA B   1      -9.049  16.665   8.062  1.00 44.33 LIG-0.07  N 
ATOM     72 H1   ALA B   1      -8.164  16.625   8.149  1.00 44.33 LIG 0.28  HD
ATOM     73 H2   ALA B   1      -9.323  16.008   7.528  1.00 44.33 LIG 0.28  HD
ATOM     74 H3   ALA B   1      -9.276  17.449   7.708  1.00 44.33 LIG 0.28  HD
ENDBRANCH 69 71
ENDBRANCH 67 69
ENDBRANCH 52 65
ENDBRANCH 49 52
ENDBRANCH 43 48
ENDBRANCH 40 43
ENDBRANCH 1 39
TORSDOF 30
ENDMDL
MODEL 9
USER: ADFR SOLUTION from run 26
USER: SCORE 22.939830 LL:  -4.672 LR: -20.500 RR:   0.000 FEB: -11.551
USER: RMSD 8.867167
USER: SEED 25
USER: STATUS no improvement in best in 3 clusters for 5 generations
USER: GENES 32
USER: genes 0 Translation |==|  0.71423 0.69580 0.49716
USER: genes 1 Rotation |==|  0.67758 0.34997 0.05760 0.51550
USER: genes 2 Torsion [N]-CA--C-[N] |==|  0.38459
USER: genes 3 Torsion [C]-N--CA-[CB] |==|  0.78889
USER: genes 4 Torsion [N]-CA--CB-[CG] |==|  0.70824
USER: genes 5 Torsion [CA]-CB--CG-[CD] |==|  0.74232
USER: genes 6 Torsion [CB]-CG--CD-[OE1] |==|  0.95069
USER: genes 7 Torsion [N]-CA--C-[N] |==|  0.23221
USER: genes 8 Torsion [C]-N--CA-[CB] |==|  0.24837
USER: genes 9 Torsion [N]-CA--C-[N] |==|  0.60808
USER: genes 10 Torsion [C]-N--CA-[CB] |==|  0.83027
USER: genes 11 Torsion [N]-CA--C-[O] |==|  0.63892
USER: genes 12 Torsion [N]-CA--CB-[CG2] |==|  0.81754
USER: genes 13 Torsion [CA]-CB--OG1-[HG1] |==|  0.23997
USER: genes 14 Torsion [C]-CA--CB-[CG] |==|  0.82261
USER: genes 15 Torsion [CA]-CB--CG-[CD] |==|  0.31746
USER: genes 16 Torsion [CB]-CG--CD-[CE] |==|  0.98679
USER: genes 17 Torsion [CG]-CD--CE-[NZ] |==|  0.42151
USER: genes 18 Torsion [CD]-CE--NZ-[HZ2] |==|  0.41794
USER: genes 19 Torsion [C]-CA--N-[C] |==|  0.80187
USER: genes 20 Torsion [N]-C--CA-[N] |==|  0.11088
USER: genes 21 Torsion [C]-CA--CB-[CG2] |==|  0.37596
USER: genes 22 Torsion [CA]-CB--OG1-[HG1] |==|  0.60628
USER: genes 23 Torsion [C]-CA--N-[C] |==|  0.60648
USER: genes 24 Torsion [N]-C--CA-[N] |==|  0.99548
USER: genes 25 Torsion [C]-CA--CB-[CG] |==|  0.33683
USER: genes 26 Torsion [CA]-CB--CG-[CD] |==|  0.24996
USER: genes 27 Torsion [CB]-CG--CD-[NE] |==|  0.09322
USER: genes 28 Torsion [CG]-CD--NE-[HE] |==|  0.12850
USER: genes 29 Torsion [C]-CA--N-[C] |==|  0.78125
USER: genes 30 Torsion [N]-C--CA-[N] |==|  0.38803
USER: genes 31 Torsion [C]-CA--N-[H2] |==|  0.12604
ROOT
ATOM      1  CA  LYS B   4      -7.422  14.094  13.624  1.00 37.28 LIG 0.18  C 
ENDROOT
BRANCH 1 2
ATOM      2  C   LYS B   4      -7.457  14.447  15.094  1.00 39.57 LIG 0.24  C 
ATOM      3 O    LYS B   4      -8.508  14.770  15.652  1.00 42.15 LIG-0.27  OA
ATOM      4  N   GLN B   5      -6.300  14.375  15.727  1.00 37.54 LIG-0.35  N 
ATOM      5 H    GLN B   5      -5.548  14.177  15.358  1.00 37.54 LIG 0.16  HD
BRANCH 4 6
ATOM      6  CA  GLN B   5      -6.240  14.639  17.149  1.00 44.43 LIG 0.18  C 
BRANCH 6 7
ATOM      7  CB  GLN B   5      -6.332  16.128  17.428  1.00 42.91 LIG 0.04  C 
BRANCH 7 8
ATOM      8  CG  GLN B   5      -5.010  16.701  17.808  1.00 46.61 LIG 0.10  C 
BRANCH 8 9
ATOM      9  CD  GLN B   5      -4.817  16.707  19.282  1.00 50.89 LIG 0.21  C 
ATOM     10  NE2 GLN B   5      -3.562  16.855  19.708  1.00 54.67 LIG-0.37  N 
ATOM     11 21HE GLN B   5      -2.921  16.935  19.140  1.00 54.67 LIG 0.16  HD
ATOM     12 22HE GLN B   5      -3.393  16.871  20.551  1.00 54.67 LIG 0.16  HD
ATOM     13 OE1  GLN B   5      -5.783  16.587  20.053  1.00 48.99 LIG-0.27  OA
ENDBRANCH 8 9
ENDBRANCH 7 8
ENDBRANCH 6 7
BRANCH 6 14
ATOM     14  C   GLN B   5      -7.319  13.870  17.904  1.00 45.34 LIG 0.24  C 
ATOM     15 O    GLN B   5      -8.371  14.417  18.217  1.00 47.84 LIG-0.27  OA
ATOM     16  N   THR B   6      -7.048  12.610  18.226  1.00 44.99 LIG-0.34  N 
ATOM     17 H    THR B   6      -6.302  12.213  18.066  1.00 44.99 LIG 0.16  HD
BRANCH 16 18
ATOM     18  CA  THR B   6      -8.050  11.797  18.900  1.00 47.63 LIG 0.20  C 
BRANCH 18 19
ATOM     19  C   THR B   6      -7.426  10.833  19.911  1.00 49.11 LIG 0.24  C 
ATOM     20 O    THR B   6      -6.463  11.179  20.590  1.00 51.64 LIG-0.27  OA
ATOM     21  N   ALA B   7      -7.959   9.619  19.986  1.00 46.55 LIG-0.35  N 
ATOM     22 H    ALA B   7      -8.651   9.370  19.540  1.00 46.55 LIG 0.16  HD
BRANCH 21 23
ATOM     23  CA  ALA B   7      -7.399   8.589  20.854  1.00 49.58 LIG 0.16  C 
ATOM     24  CB  ALA B   7      -5.947   8.262  20.445  1.00 45.32 LIG 0.04  C 
BRANCH 23 25
ATOM     25  C   ALA B   7      -7.472   9.031  22.320  1.00 53.19 LIG 0.22  C 
ATOM     26 O    ALA B   7      -6.466   8.968  23.051  1.00 57.48 LIG-0.29  OA
ENDBRANCH 23 25
ENDBRANCH 21 23
ENDBRANCH 18 19
BRANCH 18 27
ATOM     27  CB  THR B   6      -8.965  11.050  17.899  1.00 48.13 LIG 0.15  C 
ATOM     28  CG2 THR B   6      -9.799  12.043  17.109  1.00 44.70 LIG 0.04  C 
BRANCH 27 29
ATOM     29 OG1  THR B   6      -8.174  10.250  17.004  1.00 42.78 LIG-0.39  OA
ATOM     30 HG1  THR B   6      -8.028   9.500  17.353  1.00 42.78 LIG 0.21  HD
ENDBRANCH 27 29
ENDBRANCH 18 27
ENDBRANCH 16 18
ENDBRANCH 6 14
ENDBRANCH 4 6
ENDBRANCH 1 2
BRANCH 1 31
ATOM     31  CB  LYS B   4      -7.399  15.393  12.815  1.00 35.55 LIG 0.04  C 
BRANCH 31 32
ATOM     32  CG  LYS B   4      -8.610  16.225  12.968  1.00 39.70 LIG 0.00  C 
BRANCH 32 33
ATOM     33  CD  LYS B   4      -8.262  17.522  13.654  1.00 40.13 LIG 0.03  C 
BRANCH 33 34
ATOM     34  CE  LYS B   4      -6.817  17.520  14.074  1.00 42.33 LIG 0.23  C 
BRANCH 34 35
ATOM     35  NZ  LYS B   4      -6.260  18.887  14.115  1.00 43.53 LIG-0.08  N 
ATOM     36 HZ3  LYS B   4      -5.921  19.093  13.319  1.00 43.53 LIG 0.27  HD
ATOM     37 HZ1  LYS B   4      -6.905  19.465  14.322  1.00 43.53 LIG 0.27  HD
ATOM     38 HZ2  LYS B   4      -5.618  18.928  14.730  1.00 43.53 LIG 0.27  HD
ENDBRANCH 34 35
ENDBRANCH 33 34
ENDBRANCH 32 33
ENDBRANCH 31 32
ENDBRANCH 1 31
BRANCH 1 39
ATOM     39  N   LYS B   4      -8.584  13.286  13.283  1.00 32.65 LIG-0.35  N 
ATOM     40  C   THR B   3      -8.704  12.027  13.688  1.00 34.58 LIG 0.24  C 
ATOM     41 O    THR B   3      -7.808  11.439  14.274  1.00 36.58 LIG-0.27  OA
ATOM     42 H    LYS B   4      -9.171  13.694  12.805  1.00 32.65 LIG 0.16  HD
BRANCH 40 43
ATOM     43  CA  THR B   3     -10.010  11.319  13.366  1.00 32.52 LIG 0.20  C 
BRANCH 43 44
ATOM     44  CB  THR B   3      -9.812   9.822  13.511  1.00 35.15 LIG 0.15  C 
ATOM     45  CG2 THR B   3     -10.976   9.211  14.261  1.00 35.84 LIG 0.04  C 
BRANCH 44 46
ATOM     46 OG1  THR B   3      -9.716   9.242  12.205  1.00 37.78 LIG-0.39  OA
ATOM     47 HG1  THR B   3     -10.112   8.501  12.198  1.00 37.78 LIG 0.21  HD
ENDBRANCH 44 46
ENDBRANCH 43 44
BRANCH 43 48
ATOM     48  N   THR B   3     -10.441  11.686  12.024  1.00 36.19 LIG-0.34  N 
ATOM     49  C   ARG B   2     -11.719  11.886  11.738  1.00 33.52 LIG 0.24  C 
ATOM     50 O    ARG B   2     -12.620  11.636  12.514  1.00 34.90 LIG-0.27  OA
ATOM     51 H    THR B   3      -9.803  11.759  11.453  1.00 36.19 LIG 0.16  HD
BRANCH 49 52
ATOM     52  CA  ARG B   2     -12.029  12.482  10.380  1.00 37.04 LIG 0.18  C 
BRANCH 52 53
ATOM     53  CB  ARG B   2     -12.887  11.482   9.628  1.00 37.98 LIG 0.04  C 
BRANCH 53 54
ATOM     54  CG  ARG B   2     -14.236  12.007   9.198  1.00 44.54 LIG 0.02  C 
BRANCH 54 55
ATOM     55  CD  ARG B   2     -14.055  12.603   7.834  1.00 45.57 LIG 0.14  C 
BRANCH 55 56
ATOM     56  NE  ARG B   2     -13.049  11.844   7.111  1.00 45.97 LIG-0.23  N 
ATOM     57  CZ  ARG B   2     -12.052  12.383   6.423  1.00 44.90 LIG 0.67  C 
ATOM     58  NH1 ARG B   2     -11.921  13.706   6.339  1.00 46.97 LIG-0.23  N 
ATOM     59  NH2 ARG B   2     -11.201  11.591   5.802  1.00 41.82 LIG-0.23  N 
ATOM     60 2HH1 ARG B   2     -11.271  14.046   5.890  1.00 46.97 LIG 0.17  HD
ATOM     61 1HH1 ARG B   2     -12.487  14.220   6.733  1.00 46.97 LIG 0.17  HD
ATOM     62 2HH2 ARG B   2     -10.550  11.927   5.352  1.00 41.82 LIG 0.17  HD
ATOM     63 1HH2 ARG B   2     -11.297  10.738   5.846  1.00 41.82 LIG 0.17  HD
ATOM     64 HE   ARG B   2     -13.104  10.986   7.131  1.00 45.97 LIG 0.18  HD
ENDBRANCH 55 56
ENDBRANCH 54 55
ENDBRANCH 53 54
ENDBRANCH 52 53
BRANCH 52 65
ATOM     65  N   ARG B   2     -10.792  12.752   9.666  1.00 35.35 LIG-0.35  N 
ATOM     66 H    ARG B   2     -10.587  12.170   9.068  1.00 35.35 LIG 0.16  HD
ATOM     67  C   ALA B   1     -10.064  13.823   9.945  1.00 38.28 LIG 0.25  C 
ATOM     68 O    ALA B   1     -10.430  14.673  10.755  1.00 39.08 LIG-0.27  OA
BRANCH 67 69
ATOM     69  CA  ALA B   1      -8.749  13.981   9.195  1.00 38.95 LIG 0.27  C 
ATOM     70  CB  ALA B   1      -7.579  13.487  10.033  1.00 37.91 LIG 0.05  C 
BRANCH 69 71
ATOM     71  N   ALA B   1      -8.550  15.379   8.819  1.00 44.33 LIG-0.07  N 
ATOM     72 H1   ALA B   1      -9.086  15.583   8.139  1.00 44.33 LIG 0.28  HD
ATOM     73 H2   ALA B   1      -8.739  15.904   9.513  1.00 44.33 LIG 0.28  HD
ATOM     74 H3   ALA B   1      -7.702  15.504   8.576  1.00 44.33 LIG 0.28  HD
ENDBRANCH 69 71
ENDBRANCH 67 69
ENDBRANCH 52 65
ENDBRANCH 49 52
ENDBRANCH 43 48
ENDBRANCH 40 43
ENDBRANCH 1 39
TORSDOF 30
ENDMDL
MODEL 10
USER: ADFR SOLUTION from run 82
USER: SCORE 24.425729 LL:  -4.723 LR: -20.421 RR:   0.000 FEB: -11.472
USER: RMSD 9.412063
USER: SEED 81
USER: STATUS searching
USER: GENES 32
USER: genes 0 Translation |==|  0.71683 0.67201 0.52145
USER: genes 1 Rotation |==|  0.26175 0.68023 0.90061 0.51630
USER: genes 2 Torsion [N]-CA--C-[N] |==|  0.39246
USER: genes 3 Torsion [C]-N--CA-[CB] |==|  0.20819
USER: genes 4 Torsion [N]-CA--CB-[CG] |==|  0.23138
USER: genes 5 Torsion [CA]-CB--CG-[CD] |==|  0.60305
USER: genes 6 Torsion [CB]-CG--CD-[OE1] |==|  0.63400
USER: genes 7 Torsion [N]-CA--C-[N] |==|  0.99515
USER: genes 8 Torsion [C]-N--CA-[CB] |==|  0.86667
USER: genes 9 Torsion [N]-CA--C-[N] |==|  0.89984
USER: genes 10 Torsion [C]-N--CA-[CB] |==|  0.49121
USER: genes 11 Torsion [N]-CA--C-[O] |==|  0.69987
USER: genes 12 Torsion [N]-CA--CB-[CG2] |==|  0.47220
USER: genes 13 Torsion [CA]-CB--OG1-[HG1] |==|  0.63658
USER: genes 14 Torsion [C]-CA--CB-[CG] |==|  0.96661
USER: genes 15 Torsion [CA]-CB--CG-[CD] |==|  0.27819
USER: genes 16 Torsion [CB]-CG--CD-[CE] |==|  0.51586
USER: genes 17 Torsion [CG]-CD--CE-[NZ] |==|  0.71564
USER: genes 18 Torsion [CD]-CE--NZ-[HZ2] |==|  0.72561
USER: genes 19 Torsion [C]-CA--N-[C] |==|  0.83543
USER: genes 20 Torsion [N]-C--CA-[N] |==|  0.05889
USER: genes 21 Torsion [C]-CA--CB-[CG2] |==|  0.22750
USER: genes 22 Torsion [CA]-CB--OG1-[HG1] |==|  0.52901
USER: genes 23 Torsion [C]-CA--N-[C] |==|  0.71099
USER: genes 24 Torsion [N]-C--CA-[N] |==|  0.96026
USER: genes 25 Torsion [C]-CA--CB-[CG] |==|  0.29031
USER: genes 26 Torsion [CA]-CB--CG-[CD] |==|  0.47037
USER: genes 27 Torsion [CB]-CG--CD-[NE] |==|  0.87419
USER: genes 28 Torsion [CG]-CD--NE-[HE] |==|  0.33464
USER: genes 29 Torsion [C]-CA--N-[C] |==|  0.80953
USER: genes 30 Torsion [N]-C--CA-[N] |==|  0.20286
USER: genes 31 Torsion [C]-CA--N-[H2] |==|  0.16225
ROOT
ATOM      1  CA  LYS B   4      -7.368  13.594  14.225  1.00 37.28 LIG 0.18  C 
ENDROOT
BRANCH 1 2
ATOM      2  C   LYS B   4      -7.820  14.115  15.571  1.00 39.57 LIG 0.24  C 
ATOM      3 O    LYS B   4      -8.973  14.515  15.750  1.00 42.15 LIG-0.27  OA
ATOM      4  N   GLN B   5      -6.907  14.102  16.526  1.00 37.54 LIG-0.35  N 
ATOM      5 H    GLN B   5      -6.090  13.853  16.422  1.00 37.54 LIG 0.16  HD
BRANCH 4 6
ATOM      6  CA  GLN B   5      -7.258  14.528  17.863  1.00 44.43 LIG 0.18  C 
BRANCH 6 7
ATOM      7  CB  GLN B   5      -8.085  13.469  18.570  1.00 42.91 LIG 0.04  C 
BRANCH 7 8
ATOM      8  CG  GLN B   5      -7.227  12.416  19.181  1.00 46.61 LIG 0.10  C 
BRANCH 8 9
ATOM      9  CD  GLN B   5      -7.848  11.070  19.072  1.00 50.89 LIG 0.21  C 
ATOM     10  NE2 GLN B   5      -8.306  10.731  17.865  1.00 54.67 LIG-0.37  N 
ATOM     11 21HE GLN B   5      -8.237  11.282  17.209  1.00 54.67 LIG 0.16  HD
ATOM     12 22HE GLN B   5      -8.670   9.962  17.743  1.00 54.67 LIG 0.16  HD
ATOM     13 OE1  GLN B   5      -7.919  10.317  20.057  1.00 48.99 LIG-0.27  OA
ENDBRANCH 8 9
ENDBRANCH 7 8
ENDBRANCH 6 7
BRANCH 6 14
ATOM     14  C   GLN B   5      -6.019  14.891  18.676  1.00 45.34 LIG 0.24  C 
ATOM     15 O    GLN B   5      -6.129  15.333  19.815  1.00 47.84 LIG-0.27  OA
ATOM     16  N   THR B   6      -4.842  14.737  18.081  1.00 44.99 LIG-0.34  N 
ATOM     17 H    THR B   6      -4.734  14.479  17.268  1.00 44.99 LIG 0.16  HD
BRANCH 16 18
ATOM     18  CA  THR B   6      -3.614  15.013  18.813  1.00 47.63 LIG 0.20  C 
BRANCH 18 19
ATOM     19  C   THR B   6      -3.241  13.874  19.764  1.00 49.11 LIG 0.24  C 
ATOM     20 O    THR B   6      -2.065  13.558  19.928  1.00 51.64 LIG-0.27  OA
ATOM     21  N   ALA B   7      -4.244  13.246  20.366  1.00 46.55 LIG-0.35  N 
ATOM     22 H    ALA B   7      -5.070  13.473  20.285  1.00 46.55 LIG 0.16  HD
BRANCH 21 23
ATOM     23  CA  ALA B   7      -4.018  12.094  21.231  1.00 49.58 LIG 0.16  C 
ATOM     24  CB  ALA B   7      -5.345  11.613  21.858  1.00 45.32 LIG 0.04  C 
BRANCH 23 25
ATOM     25  C   ALA B   7      -3.338  10.965  20.447  1.00 53.19 LIG 0.22  C 
ATOM     26 O    ALA B   7      -3.971   9.938  20.140  1.00 57.48 LIG-0.29  OA
ENDBRANCH 23 25
ENDBRANCH 21 23
ENDBRANCH 18 19
BRANCH 18 27
ATOM     27  CB  THR B   6      -3.668  16.371  19.554  1.00 48.13 LIG 0.15  C 
ATOM     28  CG2 THR B   6      -2.481  16.502  20.493  1.00 44.70 LIG 0.04  C 
BRANCH 27 29
ATOM     29 OG1  THR B   6      -3.671  17.454  18.609  1.00 42.78 LIG-0.39  OA
ATOM     30 HG1  THR B   6      -3.092  18.021  18.831  1.00 42.78 LIG 0.21  HD
ENDBRANCH 27 29
ENDBRANCH 18 27
ENDBRANCH 16 18
ENDBRANCH 6 14
ENDBRANCH 4 6
ENDBRANCH 1 2
BRANCH 1 31
ATOM     31  CB  LYS B   4      -6.976  14.788  13.350  1.00 35.55 LIG 0.04  C 
BRANCH 31 32
ATOM     32  CG  LYS B   4      -7.388  16.099  13.893  1.00 39.70 LIG 0.00  C 
BRANCH 32 33
ATOM     33  CD  LYS B   4      -6.217  16.770  14.564  1.00 40.13 LIG 0.03  C 
BRANCH 33 34
ATOM     34  CE  LYS B   4      -6.658  18.040  15.240  1.00 42.33 LIG 0.23  C 
BRANCH 34 35
ATOM     35  NZ  LYS B   4      -6.292  19.234  14.452  1.00 43.53 LIG-0.08  N 
ATOM     36 HZ3  LYS B   4      -6.160  19.000  13.604  1.00 43.53 LIG 0.27  HD
ATOM     37 HZ1  LYS B   4      -6.950  19.832  14.496  1.00 43.53 LIG 0.27  HD
ATOM     38 HZ2  LYS B   4      -5.546  19.590  14.781  1.00 43.53 LIG 0.27  HD
ENDBRANCH 34 35
ENDBRANCH 33 34
ENDBRANCH 32 33
ENDBRANCH 31 32
ENDBRANCH 1 31
BRANCH 1 39
ATOM     39  N   LYS B   4      -8.438  12.824  13.609  1.00 32.65 LIG-0.35  N 
ATOM     40  C   THR B   3      -8.953  11.749  14.196  1.00 34.58 LIG 0.24  C 
ATOM     41 O    THR B   3      -8.493  11.281  15.226  1.00 36.58 LIG-0.27  OA
ATOM     42 H    LYS B   4      -8.698  13.125  12.847  1.00 32.65 LIG 0.16  HD
BRANCH 40 43
ATOM     43  CA  THR B   3     -10.141  11.092  13.513  1.00 32.52 LIG 0.20  C 
BRANCH 43 44
ATOM     44  CB  THR B   3     -10.049   9.588  13.694  1.00 35.15 LIG 0.15  C 
ATOM     45  CG2 THR B   3     -10.587   9.191  15.051  1.00 35.84 LIG 0.04  C 
BRANCH 44 46
ATOM     46 OG1  THR B   3     -10.812   8.952  12.662  1.00 37.78 LIG-0.39  OA
ATOM     47 HG1  THR B   3     -10.887   8.133  12.833  1.00 37.78 LIG 0.21  HD
ENDBRANCH 44 46
ENDBRANCH 43 44
BRANCH 43 48
ATOM     48  N   THR B   3     -10.162  11.472  12.107  1.00 36.19 LIG-0.34  N 
ATOM     49  C   ARG B   2     -11.020  12.371  11.647  1.00 33.52 LIG 0.24  C 
ATOM     50 O    ARG B   2     -11.931  12.821  12.312  1.00 34.90 LIG-0.27  OA
ATOM     51 H    THR B   3      -9.580  11.069  11.620  1.00 36.19 LIG 0.16  HD
BRANCH 49 52
ATOM     52  CA  ARG B   2     -10.804  12.856  10.227  1.00 37.04 LIG 0.18  C 
BRANCH 52 53
ATOM     53  CB  ARG B   2     -11.883  12.232   9.363  1.00 37.98 LIG 0.04  C 
BRANCH 53 54
ATOM     54  CG  ARG B   2     -12.993  13.175   8.963  1.00 44.54 LIG 0.02  C 
BRANCH 54 55
ATOM     55  CD  ARG B   2     -13.805  12.471   7.917  1.00 45.57 LIG 0.14  C 
BRANCH 55 56
ATOM     56  NE  ARG B   2     -12.909  11.857   6.951  1.00 45.97 LIG-0.23  N 
ATOM     57  CZ  ARG B   2     -12.028  12.523   6.218  1.00 44.90 LIG 0.67  C 
ATOM     58  NH1 ARG B   2     -11.921  13.847   6.316  1.00 46.97 LIG-0.23  N 
ATOM     59  NH2 ARG B   2     -11.271  11.857   5.369  1.00 41.82 LIG-0.23  N 
ATOM     60 2HH1 ARG B   2     -11.346  14.269   5.836  1.00 46.97 LIG 0.17  HD
ATOM     61 1HH1 ARG B   2     -12.428  14.280   6.861  1.00 46.97 LIG 0.17  HD
ATOM     62 2HH2 ARG B   2     -10.695  12.276   4.887  1.00 41.82 LIG 0.17  HD
ATOM     63 1HH2 ARG B   2     -11.353  11.004   5.297  1.00 41.82 LIG 0.17  HD
ATOM     64 HE   ARG B   2     -12.954  11.005   6.849  1.00 45.97 LIG 0.18  HD
ENDBRANCH 55 56
ENDBRANCH 54 55
ENDBRANCH 53 54
ENDBRANCH 52 53
BRANCH 52 65
ATOM     65  N   ARG B   2      -9.478  12.468   9.771  1.00 35.35 LIG-0.35  N 
ATOM     66 H    ARG B   2      -9.471  11.872   9.152  1.00 35.35 LIG 0.16  HD
ATOM     67  C   ALA B   1      -8.392  13.015  10.294  1.00 38.28 LIG 0.25  C 
ATOM     68 O    ALA B   1      -8.446  13.921  11.124  1.00 39.08 LIG-0.27  OA
BRANCH 67 69
ATOM     69  CA  ALA B   1      -7.049  12.492   9.802  1.00 38.95 LIG 0.27  C 
ATOM     70  CB  ALA B   1      -5.923  12.917  10.733  1.00 37.91 LIG 0.05  C 
BRANCH 69 71
ATOM     71  N   ALA B   1      -6.791  12.968   8.444  1.00 44.33 LIG-0.07  N 
ATOM     72 H1   ALA B   1      -7.421  12.659   7.896  1.00 44.33 LIG 0.28  HD
ATOM     73 H2   ALA B   1      -6.800  13.858   8.434  1.00 44.33 LIG 0.28  HD
ATOM     74 H3   ALA B   1      -5.994  12.677   8.173  1.00 44.33 LIG 0.28  HD
ENDBRANCH 69 71
ENDBRANCH 67 69
ENDBRANCH 52 65
ENDBRANCH 49 52
ENDBRANCH 43 48
ENDBRANCH 40 43
ENDBRANCH 1 39
TORSDOF 30
ENDMDL
MODEL 11
USER: ADFR SOLUTION from run 99
USER: SCORE 23.134848 LL:  -4.202 LR: -20.320 RR:   0.000 FEB: -11.371
USER: RMSD 10.313076
USER: SEED 98
USER: STATUS no improvement in best in 3 clusters for 5 generations
USER: GENES 32
USER: genes 0 Translation |==|  0.58985 0.55183 0.42545
USER: genes 1 Rotation |==|  0.33605 0.24349 0.11310 0.58736
USER: genes 2 Torsion [N]-CA--C-[N] |==|  0.87802
USER: genes 3 Torsion [C]-N--CA-[CB] |==|  0.16963
USER: genes 4 Torsion [N]-CA--CB-[CG] |==|  0.65002
USER: genes 5 Torsion [CA]-CB--CG-[CD] |==|  0.96269
USER: genes 6 Torsion [CB]-CG--CD-[OE1] |==|  0.26529
USER: genes 7 Torsion [N]-CA--C-[N] |==|  0.53539
USER: genes 8 Torsion [C]-N--CA-[CB] |==|  0.82986
USER: genes 9 Torsion [N]-CA--C-[N] |==|  0.39580
USER: genes 10 Torsion [C]-N--CA-[CB] |==|  0.82642
USER: genes 11 Torsion [N]-CA--C-[O] |==|  0.65487
USER: genes 12 Torsion [N]-CA--CB-[CG2] |==|  0.51894
USER: genes 13 Torsion [CA]-CB--OG1-[HG1] |==|  0.72175
USER: genes 14 Torsion [C]-CA--CB-[CG] |==|  0.84791
USER: genes 15 Torsion [CA]-CB--CG-[CD] |==|  0.35959
USER: genes 16 Torsion [CB]-CG--CD-[CE] |==|  0.83752
USER: genes 17 Torsion [CG]-CD--CE-[NZ] |==|  0.59586
USER: genes 18 Torsion [CD]-CE--NZ-[HZ2] |==|  0.50295
USER: genes 19 Torsion [C]-CA--N-[C] |==|  0.78635
USER: genes 20 Torsion [N]-C--CA-[N] |==|  0.29079
USER: genes 21 Torsion [C]-CA--CB-[CG2] |==|  0.19777
USER: genes 22 Torsion [CA]-CB--OG1-[HG1] |==|  0.42971
USER: genes 23 Torsion [C]-CA--N-[C] |==|  0.63711
USER: genes 24 Torsion [N]-C--CA-[N] |==|  0.93492
USER: genes 25 Torsion [C]-CA--CB-[CG] |==|  0.19303
USER: genes 26 Torsion [CA]-CB--CG-[CD] |==|  0.41605
USER: genes 27 Torsion [CB]-CG--CD-[NE] |==|  0.12460
USER: genes 28 Torsion [CG]-CD--NE-[HE] |==|  0.97473
USER: genes 29 Torsion [C]-CA--N-[C] |==|  0.78924
USER: genes 30 Torsion [N]-C--CA-[N] |==|  0.86852
USER: genes 31 Torsion [C]-CA--N-[H2] |==|  0.53271
ROOT
ATOM      1  CA  LYS B   4     -10.034  11.070  11.849  1.00 37.28 LIG 0.18  C 
ENDROOT
BRANCH 1 2
ATOM      2  C   LYS B   4      -8.674  11.730  11.815  1.00 39.57 LIG 0.24  C 
ATOM      3 O    LYS B   4      -7.755  11.273  11.130  1.00 42.15 LIG-0.27  OA
ATOM      4  N   GLN B   5      -8.547  12.819  12.553  1.00 37.54 LIG-0.35  N 
ATOM      5 H    GLN B   5      -9.162  13.145  13.059  1.00 37.54 LIG 0.16  HD
BRANCH 4 6
ATOM      6  CA  GLN B   5      -7.301  13.554  12.543  1.00 44.43 LIG 0.18  C 
BRANCH 6 7
ATOM      7  CB  GLN B   5      -6.985  14.067  11.149  1.00 42.91 LIG 0.04  C 
BRANCH 7 8
ATOM      8  CG  GLN B   5      -5.628  13.644  10.701  1.00 46.61 LIG 0.10  C 
BRANCH 8 9
ATOM      9  CD  GLN B   5      -4.817  13.115  11.829  1.00 50.89 LIG 0.21  C 
ATOM     10  NE2 GLN B   5      -4.179  14.023  12.569  1.00 54.67 LIG-0.37  N 
ATOM     11 21HE GLN B   5      -4.246  14.859  12.376  1.00 54.67 LIG 0.16  HD
ATOM     12 22HE GLN B   5      -3.700  13.774  13.238  1.00 54.67 LIG 0.16  HD
ATOM     13 OE1  GLN B   5      -4.759  11.896  12.057  1.00 48.99 LIG-0.27  OA
ENDBRANCH 8 9
ENDBRANCH 7 8
ENDBRANCH 6 7
BRANCH 6 14
ATOM     14  C   GLN B   5      -7.317  14.693  13.557  1.00 45.34 LIG 0.24  C 
ATOM     15 O    GLN B   5      -8.213  14.769  14.393  1.00 47.84 LIG-0.27  OA
ATOM     16  N   THR B   6      -6.348  15.595  13.467  1.00 44.99 LIG-0.34  N 
ATOM     17 H    THR B   6      -5.736  15.598  12.863  1.00 44.99 LIG 0.16  HD
BRANCH 16 18
ATOM     18  CA  THR B   6      -6.268  16.680  14.434  1.00 47.63 LIG 0.20  C 
BRANCH 18 19
ATOM     19  C   THR B   6      -5.981  16.172  15.849  1.00 49.11 LIG 0.24  C 
ATOM     20 O    THR B   6      -6.501  15.136  16.257  1.00 51.64 LIG-0.27  OA
ATOM     21  N   ALA B   7      -5.176  16.915  16.599  1.00 46.55 LIG-0.35  N 
ATOM     22 H    ALA B   7      -4.780  17.626  16.319  1.00 46.55 LIG 0.16  HD
BRANCH 21 23
ATOM     23  CA  ALA B   7      -4.893  16.575  17.989  1.00 49.58 LIG 0.16  C 
ATOM     24  CB  ALA B   7      -6.184  16.618  18.834  1.00 45.32 LIG 0.04  C 
BRANCH 23 25
ATOM     25  C   ALA B   7      -4.224  15.198  18.073  1.00 53.19 LIG 0.22  C 
ATOM     26 O    ALA B   7      -4.717  14.297  18.777  1.00 57.48 LIG-0.29  OA
ENDBRANCH 23 25
ENDBRANCH 21 23
ENDBRANCH 18 19
BRANCH 18 27
ATOM     27  CB  THR B   6      -7.526  17.582  14.405  1.00 48.13 LIG 0.15  C 
ATOM     28  CG2 THR B   6      -7.327  18.789  15.305  1.00 44.70 LIG 0.04  C 
BRANCH 27 29
ATOM     29 OG1  THR B   6      -7.800  18.011  13.061  1.00 42.78 LIG-0.39  OA
ATOM     30 HG1  THR B   6      -7.517  18.794  12.953  1.00 42.78 LIG 0.21  HD
ENDBRANCH 27 29
ENDBRANCH 18 27
ENDBRANCH 16 18
ENDBRANCH 6 14
ENDBRANCH 4 6
ENDBRANCH 1 2
BRANCH 1 31
ATOM     31  CB  LYS B   4     -10.984  11.873  10.957  1.00 35.55 LIG 0.04  C 
BRANCH 31 32
ATOM     32  CG  LYS B   4     -11.065  13.309  11.294  1.00 39.70 LIG 0.00  C 
BRANCH 32 33
ATOM     33  CD  LYS B   4     -10.861  14.143  10.055  1.00 40.13 LIG 0.03  C 
BRANCH 33 34
ATOM     34  CE  LYS B   4      -9.525  13.837   9.433  1.00 42.33 LIG 0.23  C 
BRANCH 34 35
ATOM     35  NZ  LYS B   4      -8.921  15.036   8.819  1.00 43.53 LIG-0.08  N 
ATOM     36 HZ3  LYS B   4      -9.468  15.358   8.195  1.00 43.53 LIG 0.27  HD
ATOM     37 HZ1  LYS B   4      -8.788  15.655   9.445  1.00 43.53 LIG 0.27  HD
ATOM     38 HZ2  LYS B   4      -8.142  14.820   8.447  1.00 43.53 LIG 0.27  HD
ENDBRANCH 34 35
ENDBRANCH 33 34
ENDBRANCH 32 33
ENDBRANCH 31 32
ENDBRANCH 1 31
BRANCH 1 39
ATOM     39  N   LYS B   4     -10.522  11.019  13.219  1.00 32.65 LIG-0.35  N 
ATOM     40  C   THR B   3     -10.064  10.128  14.091  1.00 34.58 LIG 0.24  C 
ATOM     41 O    THR B   3      -9.293   9.236  13.774  1.00 36.58 LIG-0.27  OA
ATOM     42 H    LYS B   4     -11.122  11.607  13.404  1.00 32.65 LIG 0.16  HD
BRANCH 40 43
ATOM     43  CA  THR B   3     -10.566  10.242  15.522  1.00 32.52 LIG 0.20  C 
BRANCH 43 44
ATOM     44  CB  THR B   3      -9.385  10.157  16.471  1.00 35.15 LIG 0.15  C 
ATOM     45  CG2 THR B   3      -8.553  11.419  16.385  1.00 35.84 LIG 0.04  C 
BRANCH 44 46
ATOM     46 OG1  THR B   3      -9.877   9.989  17.805  1.00 37.78 LIG-0.39  OA
ATOM     47 HG1  THR B   3      -9.294   9.606  18.273  1.00 37.78 LIG 0.21  HD
ENDBRANCH 44 46
ENDBRANCH 43 44
BRANCH 43 48
ATOM     48  N   THR B   3     -11.546   9.195  15.776  1.00 36.19 LIG-0.34  N 
ATOM     49  C   ARG B   2     -12.722   9.466  16.324  1.00 33.52 LIG 0.24  C 
ATOM     50 O    ARG B   2     -13.004  10.553  16.786  1.00 34.90 LIG-0.27  OA
ATOM     51 H    THR B   3     -11.295   8.407  15.541  1.00 36.19 LIG 0.16  HD
BRANCH 49 52
ATOM     52  CA  ARG B   2     -13.745   8.348  16.332  1.00 37.04 LIG 0.18  C 
BRANCH 52 53
ATOM     53  CB  ARG B   2     -13.685   7.684  17.694  1.00 37.98 LIG 0.04  C 
BRANCH 53 54
ATOM     54  CG  ARG B   2     -14.204   8.532  18.831  1.00 44.54 LIG 0.02  C 
BRANCH 54 55
ATOM     55  CD  ARG B   2     -14.767   7.591  19.854  1.00 45.57 LIG 0.14  C 
BRANCH 55 56
ATOM     56  NE  ARG B   2     -13.842   6.487  20.045  1.00 45.97 LIG-0.23  N 
ATOM     57  CZ  ARG B   2     -13.952   5.573  21.000  1.00 44.90 LIG 0.67  C 
ATOM     58  NH1 ARG B   2     -14.948   5.627  21.883  1.00 46.97 LIG-0.23  N 
ATOM     59  NH2 ARG B   2     -13.046   4.619  21.079  1.00 41.82 LIG-0.23  N 
ATOM     60 2HH1 ARG B   2     -15.010   5.030  22.498  1.00 46.97 LIG 0.17  HD
ATOM     61 1HH1 ARG B   2     -15.528   6.261  21.837  1.00 46.97 LIG 0.17  HD
ATOM     62 2HH2 ARG B   2     -13.105   4.020  21.693  1.00 41.82 LIG 0.17  HD
ATOM     63 1HH2 ARG B   2     -12.396   4.596  20.517  1.00 41.82 LIG 0.17  HD
ATOM     64 HE   ARG B   2     -13.177   6.422  19.503  1.00 45.97 LIG 0.18  HD
ENDBRANCH 55 56
ENDBRANCH 54 55
ENDBRANCH 53 54
ENDBRANCH 52 53
BRANCH 52 65
ATOM     65  N   ARG B   2     -13.444   7.398  15.273  1.00 35.35 LIG-0.35  N 
ATOM     66 H    ARG B   2     -13.086   6.663  15.539  1.00 35.35 LIG 0.16  HD
ATOM     67  C   ALA B   1     -13.717   7.680  14.008  1.00 38.28 LIG 0.25  C 
ATOM     68 O    ALA B   1     -14.300   8.710  13.675  1.00 39.08 LIG-0.27  OA
BRANCH 67 69
ATOM     69  CA  ALA B   1     -13.299   6.653  12.964  1.00 38.95 LIG 0.27  C 
ATOM     70  CB  ALA B   1     -14.232   5.451  12.976  1.00 37.91 LIG 0.05  C 
BRANCH 69 71
ATOM     71  N   ALA B   1     -11.921   6.227  13.201  1.00 44.33 LIG-0.07  N 
ATOM     72 H1   ALA B   1     -11.889   5.714  13.928  1.00 44.33 LIG 0.28  HD
ATOM     73 H2   ALA B   1     -11.629   5.764  12.499  1.00 44.33 LIG 0.28  HD
ATOM     74 H3   ALA B   1     -11.405   6.943  13.319  1.00 44.33 LIG 0.28  HD
ENDBRANCH 69 71
ENDBRANCH 67 69
ENDBRANCH 52 65
ENDBRANCH 49 52
ENDBRANCH 43 48
ENDBRANCH 40 43
ENDBRANCH 1 39
TORSDOF 30
ENDMDL
MODEL 12
USER: ADFR SOLUTION from run 9
USER: SCORE 21.749132 LL:  -3.869 LR: -20.212 RR:   0.000 FEB: -11.263
USER: RMSD 9.231986
USER: SEED 634093
USER: STATUS no improvement in best in 3 clusters for 5 generations
USER: GENES 32
USER: genes 0 Translation |==|  0.75544 0.79300 0.50464
USER: genes 1 Rotation |==|  0.65377 0.53857 0.04369 0.62902
USER: genes 2 Torsion [N]-CA--C-[N] |==|  0.92114
USER: genes 3 Torsion [C]-N--CA-[CB] |==|  0.13852
USER: genes 4 Torsion [N]-CA--CB-[CG] |==|  0.61652
USER: genes 5 Torsion [CA]-CB--CG-[CD] |==|  0.04988
USER: genes 6 Torsion [CB]-CG--CD-[OE1] |==|  0.79646
USER: genes 7 Torsion [N]-CA--C-[N] |==|  0.14439
USER: genes 8 Torsion [C]-N--CA-[CB] |==|  0.51111
USER: genes 9 Torsion [N]-CA--C-[N] |==|  0.77224
USER: genes 10 Torsion [C]-N--CA-[CB] |==|  0.45707
USER: genes 11 Torsion [N]-CA--C-[O] |==|  0.91824
USER: genes 12 Torsion [N]-CA--CB-[CG2] |==|  0.60006
USER: genes 13 Torsion [CA]-CB--OG1-[HG1] |==|  0.53475
USER: genes 14 Torsion [C]-CA--CB-[CG] |==|  0.92212
USER: genes 15 Torsion [CA]-CB--CG-[CD] |==|  0.26459
USER: genes 16 Torsion [CB]-CG--CD-[CE] |==|  0.13301
USER: genes 17 Torsion [CG]-CD--CE-[NZ] |==|  0.75320
USER: genes 18 Torsion [CD]-CE--NZ-[HZ2] |==|  0.66755
USER: genes 19 Torsion [C]-CA--N-[C] |==|  0.78631
USER: genes 20 Torsion [N]-C--CA-[N] |==|  0.06222
USER: genes 21 Torsion [C]-CA--CB-[CG2] |==|  0.19793
USER: genes 22 Torsion [CA]-CB--OG1-[HG1] |==|  0.42887
USER: genes 23 Torsion [C]-CA--N-[C] |==|  0.54575
USER: genes 24 Torsion [N]-C--CA-[N] |==|  0.08272
USER: genes 25 Torsion [C]-CA--CB-[CG] |==|  0.62758
USER: genes 26 Torsion [CA]-CB--CG-[CD] |==|  0.35208
USER: genes 27 Torsion [CB]-CG--CD-[NE] |==|  0.63477
USER: genes 28 Torsion [CG]-CD--NE-[HE] |==|  0.16965
USER: genes 29 Torsion [C]-CA--N-[C] |==|  0.15599
USER: genes 30 Torsion [N]-C--CA-[N] |==|  0.41830
USER: genes 31 Torsion [C]-CA--N-[H2] |==|  0.68588
ROOT
ATOM      1  CA  LYS B   4      -6.557  16.135  13.809  1.00 37.28 LIG 0.18  C 
ENDROOT
BRANCH 1 2
ATOM      2  C   LYS B   4      -6.169  15.780  15.227  1.00 39.57 LIG 0.24  C 
ATOM      3 O    LYS B   4      -5.231  16.343  15.796  1.00 42.15 LIG-0.27  OA
ATOM      4  N   GLN B   5      -6.902  14.844  15.803  1.00 37.54 LIG-0.35  N 
ATOM      5 H    GLN B   5      -7.545  14.418  15.422  1.00 37.54 LIG 0.16  HD
BRANCH 4 6
ATOM      6  CA  GLN B   5      -6.646  14.475  17.179  1.00 44.43 LIG 0.18  C 
BRANCH 6 7
ATOM      7  CB  GLN B   5      -6.573  15.704  18.066  1.00 42.91 LIG 0.04  C 
BRANCH 7 8
ATOM      8  CG  GLN B   5      -5.460  15.607  19.052  1.00 46.61 LIG 0.10  C 
BRANCH 8 9
ATOM      9  CD  GLN B   5      -4.463  14.577  18.654  1.00 50.89 LIG 0.21  C 
ATOM     10  NE2 GLN B   5      -3.294  15.037  18.203  1.00 54.67 LIG-0.37  N 
ATOM     11 21HE GLN B   5      -3.157  15.883  18.150  1.00 54.67 LIG 0.16  HD
ATOM     12 22HE GLN B   5      -2.679  14.486  17.964  1.00 54.67 LIG 0.16  HD
ATOM     13 OE1  GLN B   5      -4.721  13.367  18.753  1.00 48.99 LIG-0.27  OA
ENDBRANCH 8 9
ENDBRANCH 7 8
ENDBRANCH 6 7
BRANCH 6 14
ATOM     14  C   GLN B   5      -7.687  13.485  17.693  1.00 45.34 LIG 0.24  C 
ATOM     15 O    GLN B   5      -8.268  13.688  18.755  1.00 47.84 LIG-0.27  OA
ATOM     16  N   THR B   6      -7.902  12.400  16.959  1.00 44.99 LIG-0.34  N 
ATOM     17 H    THR B   6      -7.476  12.204  16.238  1.00 44.99 LIG 0.16  HD
BRANCH 16 18
ATOM     18  CA  THR B   6      -8.919  11.438  17.359  1.00 47.63 LIG 0.20  C 
BRANCH 18 19
ATOM     19  C   THR B   6      -8.782  11.031  18.827  1.00 49.11 LIG 0.24  C 
ATOM     20 O    THR B   6      -9.461  11.578  19.692  1.00 51.64 LIG-0.27  OA
ATOM     21  N   ALA B   7      -7.887  10.091  19.106  1.00 46.55 LIG-0.35  N 
ATOM     22 H    ALA B   7      -7.425   9.676  18.510  1.00 46.55 LIG 0.16  HD
BRANCH 21 23
ATOM     23  CA  ALA B   7      -7.610   9.678  20.477  1.00 49.58 LIG 0.16  C 
ATOM     24  CB  ALA B   7      -6.841   8.339  20.499  1.00 45.32 LIG 0.04  C 
BRANCH 23 25
ATOM     25  C   ALA B   7      -6.833  10.773  21.216  1.00 53.19 LIG 0.22  C 
ATOM     26 O    ALA B   7      -6.071  11.537  20.593  1.00 57.48 LIG-0.29  OA
ENDBRANCH 23 25
ENDBRANCH 21 23
ENDBRANCH 18 19
BRANCH 18 27
ATOM     27  CB  THR B   6      -8.947  10.198  16.431  1.00 48.13 LIG 0.15  C 
ATOM     28  CG2 THR B   6     -10.374   9.716  16.245  1.00 44.70 LIG 0.04  C 
BRANCH 27 29
ATOM     29 OG1  THR B   6      -8.365  10.518  15.156  1.00 42.78 LIG-0.39  OA
ATOM     30 HG1  THR B   6      -8.536   9.905  14.608  1.00 42.78 LIG 0.21  HD
ENDBRANCH 27 29
ENDBRANCH 18 27
ENDBRANCH 16 18
ENDBRANCH 6 14
ENDBRANCH 4 6
ENDBRANCH 1 2
BRANCH 1 31
ATOM     31  CB  LYS B   4      -7.526  17.319  13.854  1.00 35.55 LIG 0.04  C 
BRANCH 31 32
ATOM     32  CG  LYS B   4      -8.328  17.400  15.092  1.00 39.70 LIG 0.00  C 
BRANCH 32 33
ATOM     33  CD  LYS B   4      -7.666  18.331  16.076  1.00 40.13 LIG 0.03  C 
BRANCH 33 34
ATOM     34  CE  LYS B   4      -7.275  19.616  15.399  1.00 42.33 LIG 0.23  C 
BRANCH 34 35
ATOM     35  NZ  LYS B   4      -5.921  19.535  14.816  1.00 43.53 LIG-0.08  N 
ATOM     36 HZ3  LYS B   4      -5.580  18.728  14.969  1.00 43.53 LIG 0.27  HD
ATOM     37 HZ1  LYS B   4      -5.967  19.676  13.938  1.00 43.53 LIG 0.27  HD
ATOM     38 HZ2  LYS B   4      -5.400  20.153  15.188  1.00 43.53 LIG 0.27  HD
ENDBRANCH 34 35
ENDBRANCH 33 34
ENDBRANCH 32 33
ENDBRANCH 31 32
ENDBRANCH 1 31
BRANCH 1 39
ATOM     39  N   LYS B   4      -7.168  14.983  13.162  1.00 32.65 LIG-0.35  N 
ATOM     40  C   THR B   3      -6.442  13.966  12.712  1.00 34.58 LIG 0.24  C 
ATOM     41 O    THR B   3      -5.221  13.981  12.714  1.00 36.58 LIG-0.27  OA
ATOM     42 H    LYS B   4      -8.025  15.025  13.101  1.00 32.65 LIG 0.16  HD
BRANCH 40 43
ATOM     43  CA  THR B   3      -7.198  12.770  12.157  1.00 32.52 LIG 0.20  C 
BRANCH 43 44
ATOM     44  CB  THR B   3      -6.410  12.176  11.004  1.00 35.15 LIG 0.15  C 
ATOM     45  CG2 THR B   3      -5.169  11.482  11.521  1.00 35.84 LIG 0.04  C 
BRANCH 44 46
ATOM     46 OG1  THR B   3      -7.242  11.237  10.314  1.00 37.78 LIG-0.39  OA
ATOM     47 HG1  THR B   3      -6.984  11.167   9.518  1.00 37.78 LIG 0.21  HD
ENDBRANCH 44 46
ENDBRANCH 43 44
BRANCH 43 48
ATOM     48  N   THR B   3      -8.532  13.188  11.749  1.00 36.19 LIG-0.34  N 
ATOM     49  C   ARG B   2      -9.498  12.307  11.536  1.00 33.52 LIG 0.24  C 
ATOM     50 O    ARG B   2      -9.310  11.107  11.515  1.00 34.90 LIG-0.27  OA
ATOM     51 H    THR B   3      -8.628  14.038  11.664  1.00 36.19 LIG 0.16  HD
BRANCH 49 52
ATOM     52  CA  ARG B   2     -10.895  12.860  11.341  1.00 37.04 LIG 0.18  C 
BRANCH 52 53
ATOM     53  CB  ARG B   2     -11.645  11.897  10.440  1.00 37.98 LIG 0.04  C 
BRANCH 53 54
ATOM     54  CG  ARG B   2     -12.422  12.554   9.324  1.00 44.54 LIG 0.02  C 
BRANCH 54 55
ATOM     55  CD  ARG B   2     -11.990  11.895   8.048  1.00 45.57 LIG 0.14  C 
BRANCH 55 56
ATOM     56  NE  ARG B   2     -11.675  12.920   7.067  1.00 45.97 LIG-0.23  N 
ATOM     57  CZ  ARG B   2     -12.298  13.063   5.905  1.00 44.90 LIG 0.67  C 
ATOM     58  NH1 ARG B   2     -13.277  12.232   5.551  1.00 46.97 LIG-0.23  N 
ATOM     59  NH2 ARG B   2     -11.920  14.028   5.092  1.00 41.82 LIG-0.23  N 
ATOM     60 2HH1 ARG B   2     -13.675  12.334   4.795  1.00 46.97 LIG 0.17  HD
ATOM     61 1HH1 ARG B   2     -13.511  11.593   6.078  1.00 46.97 LIG 0.17  HD
ATOM     62 2HH2 ARG B   2     -12.315  14.133   4.336  1.00 41.82 LIG 0.17  HD
ATOM     63 1HH2 ARG B   2     -11.278  14.554   5.317  1.00 41.82 LIG 0.17  HD
ATOM     64 HE   ARG B   2     -11.041  13.470   7.252  1.00 45.97 LIG 0.18  HD
ENDBRANCH 55 56
ENDBRANCH 54 55
ENDBRANCH 53 54
ENDBRANCH 52 53
BRANCH 52 65
ATOM     65  N   ARG B   2     -10.822  14.184  10.745  1.00 35.35 LIG-0.35  N 
ATOM     66 H    ARG B   2     -11.215  14.803  11.194  1.00 35.35 LIG 0.16  HD
ATOM     67  C   ALA B   1     -10.188  14.382   9.599  1.00 38.28 LIG 0.25  C 
ATOM     68 O    ALA B   1      -9.572  13.485   9.027  1.00 39.08 LIG-0.27  OA
BRANCH 67 69
ATOM     69  CA  ALA B   1     -10.228  15.789   9.020  1.00 38.95 LIG 0.27  C 
ATOM     70  CB  ALA B   1     -11.467  15.992   8.161  1.00 37.91 LIG 0.05  C 
BRANCH 69 71
ATOM     71  N   ALA B   1      -9.020  16.044   8.236  1.00 44.33 LIG-0.07  N 
ATOM     72 H1   ALA B   1      -9.248  16.326   7.423  1.00 44.33 LIG 0.28  HD
ATOM     73 H2   ALA B   1      -8.531  16.669   8.639  1.00 44.33 LIG 0.28  HD
ATOM     74 H3   ALA B   1      -8.546  15.294   8.168  1.00 44.33 LIG 0.28  HD
ENDBRANCH 69 71
ENDBRANCH 67 69
ENDBRANCH 52 65
ENDBRANCH 49 52
ENDBRANCH 43 48
ENDBRANCH 40 43
ENDBRANCH 1 39
TORSDOF 30
ENDMDL
MODEL 13
USER: ADFR SOLUTION from run 181
USER: SCORE 23.792507 LL:  -5.385 LR: -20.137 RR:   0.000 FEB: -11.188
USER: RMSD 6.185263
USER: SEED 180
USER: STATUS 1 or 2 clusters left
USER: GENES 32
USER: genes 0 Translation |==|  0.68573 0.57154 0.45471
USER: genes 1 Rotation |==|  0.41428 0.50633 0.91599 0.76375
USER: genes 2 Torsion [N]-CA--C-[N] |==|  0.05063
USER: genes 3 Torsion [C]-N--CA-[CB] |==|  0.20235
USER: genes 4 Torsion [N]-CA--CB-[CG] |==|  0.13771
USER: genes 5 Torsion [CA]-CB--CG-[CD] |==|  0.72320
USER: genes 6 Torsion [CB]-CG--CD-[OE1] |==|  0.35943
USER: genes 7 Torsion [N]-CA--C-[N] |==|  0.46420
USER: genes 8 Torsion [C]-N--CA-[CB] |==|  0.80103
USER: genes 9 Torsion [N]-CA--C-[N] |==|  0.17784
USER: genes 10 Torsion [C]-N--CA-[CB] |==|  0.42383
USER: genes 11 Torsion [N]-CA--C-[O] |==|  0.94916
USER: genes 12 Torsion [N]-CA--CB-[CG2] |==|  0.85205
USER: genes 13 Torsion [CA]-CB--OG1-[HG1] |==|  0.68955
USER: genes 14 Torsion [C]-CA--CB-[CG] |==|  0.37791
USER: genes 15 Torsion [CA]-CB--CG-[CD] |==|  0.05542
USER: genes 16 Torsion [CB]-CG--CD-[CE] |==|  0.26282
USER: genes 17 Torsion [CG]-CD--CE-[NZ] |==|  0.53834
USER: genes 18 Torsion [CD]-CE--NZ-[HZ2] |==|  0.78708
USER: genes 19 Torsion [C]-CA--N-[C] |==|  0.68470
USER: genes 20 Torsion [N]-C--CA-[N] |==|  0.09006
USER: genes 21 Torsion [C]-CA--CB-[CG2] |==|  0.54887
USER: genes 22 Torsion [CA]-CB--OG1-[HG1] |==|  0.62153
USER: genes 23 Torsion [C]-CA--N-[C] |==|  0.16564
USER: genes 24 Torsion [N]-C--CA-[N] |==|  0.39413
USER: genes 25 Torsion [C]-CA--CB-[CG] |==|  0.86176
USER: genes 26 Torsion [CA]-CB--CG-[CD] |==|  0.39736
USER: genes 27 Torsion [CB]-CG--CD-[NE] |==|  0.55264
USER: genes 28 Torsion [CG]-CD--NE-[HE] |==|  0.22391
USER: genes 29 Torsion [C]-CA--N-[C] |==|  0.72732
USER: genes 30 Torsion [N]-C--CA-[N] |==|  0.24413
USER: genes 31 Torsion [C]-CA--N-[H2] |==|  0.71117
ROOT
ATOM      1  CA  LYS B   4      -8.021  11.484  12.573  1.00 37.28 LIG 0.18  C 
ENDROOT
BRANCH 1 2
ATOM      2  C   LYS B   4      -8.399  10.616  13.752  1.00 39.57 LIG 0.24  C 
ATOM      3 O    LYS B   4      -7.541  10.058  14.440  1.00 42.15 LIG-0.27  OA
ATOM      4  N   GLN B   5      -9.694  10.509  13.992  1.00 37.54 LIG-0.35  N 
ATOM      5 H    GLN B   5     -10.314  10.866  13.514  1.00 37.54 LIG 0.16  HD
BRANCH 4 6
ATOM      6  CA  GLN B   5     -10.154   9.746  15.132  1.00 44.43 LIG 0.18  C 
BRANCH 6 7
ATOM      7  CB  GLN B   5      -9.881  10.488  16.427  1.00 42.91 LIG 0.04  C 
BRANCH 7 8
ATOM      8  CG  GLN B   5     -10.357  11.899  16.365  1.00 46.61 LIG 0.10  C 
BRANCH 8 9
ATOM      9  CD  GLN B   5      -9.243  12.842  16.080  1.00 50.89 LIG 0.21  C 
ATOM     10  NE2 GLN B   5      -8.158  12.716  16.846  1.00 54.67 LIG-0.37  N 
ATOM     11 21HE GLN B   5      -8.135  12.120  17.465  1.00 54.67 LIG 0.16  HD
ATOM     12 22HE GLN B   5      -7.481  13.231  16.722  1.00 54.67 LIG 0.16  HD
ATOM     13 OE1  GLN B   5      -9.334  13.683  15.172  1.00 48.99 LIG-0.27  OA
ENDBRANCH 8 9
ENDBRANCH 7 8
ENDBRANCH 6 7
BRANCH 6 14
ATOM     14  C   GLN B   5     -11.632   9.389  15.003  1.00 45.34 LIG 0.24  C 
ATOM     15 O    GLN B   5     -12.339   9.953  14.174  1.00 47.84 LIG-0.27  OA
ATOM     16  N   THR B   6     -12.107   8.477  15.843  1.00 44.99 LIG-0.34  N 
ATOM     17 H    THR B   6     -11.651   8.100  16.467  1.00 44.99 LIG 0.16  HD
BRANCH 16 18
ATOM     18  CA  THR B   6     -13.495   8.047  15.744  1.00 47.63 LIG 0.20  C 
BRANCH 18 19
ATOM     19  C   THR B   6     -13.847   7.554  14.339  1.00 49.11 LIG 0.24  C 
ATOM     20 O    THR B   6     -14.698   8.135  13.670  1.00 51.64 LIG-0.27  OA
ATOM     21  N   ALA B   7     -13.212   6.470  13.909  1.00 46.55 LIG-0.35  N 
ATOM     22 H    ALA B   7     -12.593   6.069  14.353  1.00 46.55 LIG 0.16  HD
BRANCH 21 23
ATOM     23  CA  ALA B   7     -13.522   5.861  12.621  1.00 49.58 LIG 0.16  C 
ATOM     24  CB  ALA B   7     -12.291   5.118  12.059  1.00 45.32 LIG 0.04  C 
BRANCH 23 25
ATOM     25  C   ALA B   7     -14.722   4.916  12.754  1.00 53.19 LIG 0.22  C 
ATOM     26 O    ALA B   7     -15.073   4.493  13.872  1.00 57.48 LIG-0.29  OA
ENDBRANCH 23 25
ENDBRANCH 21 23
ENDBRANCH 18 19
BRANCH 18 27
ATOM     27  CB  THR B   6     -14.480   9.141  16.220  1.00 48.13 LIG 0.15  C 
ATOM     28  CG2 THR B   6     -14.104   9.614  17.614  1.00 44.70 LIG 0.04  C 
BRANCH 27 29
ATOM     29 OG1  THR B   6     -14.472  10.250  15.305  1.00 42.78 LIG-0.39  OA
ATOM     30 HG1  THR B   6     -14.132  10.920  15.680  1.00 42.78 LIG 0.21  HD
ENDBRANCH 27 29
ENDBRANCH 18 27
ENDBRANCH 16 18
ENDBRANCH 6 14
ENDBRANCH 4 6
ENDBRANCH 1 2
BRANCH 1 31
ATOM     31  CB  LYS B   4      -6.785  12.305  12.953  1.00 35.55 LIG 0.04  C 
BRANCH 31 32
ATOM     32  CG  LYS B   4      -5.749  12.363  11.902  1.00 39.70 LIG 0.00  C 
BRANCH 32 33
ATOM     33  CD  LYS B   4      -6.352  12.020  10.563  1.00 40.13 LIG 0.03  C 
BRANCH 33 34
ATOM     34  CE  LYS B   4      -6.753  13.274   9.834  1.00 42.33 LIG 0.23  C 
BRANCH 34 35
ATOM     35  NZ  LYS B   4      -7.632  12.979   8.684  1.00 43.53 LIG-0.08  N 
ATOM     36 HZ3  LYS B   4      -8.240  12.374   8.923  1.00 43.53 LIG 0.27  HD
ATOM     37 HZ1  LYS B   4      -8.042  13.725   8.424  1.00 43.53 LIG 0.27  HD
ATOM     38 HZ2  LYS B   4      -7.145  12.660   8.012  1.00 43.53 LIG 0.27  HD
ENDBRANCH 34 35
ENDBRANCH 33 34
ENDBRANCH 32 33
ENDBRANCH 31 32
ENDBRANCH 1 31
BRANCH 1 39
ATOM     39  N   LYS B   4      -9.136  12.351  12.221  1.00 32.65 LIG-0.35  N 
ATOM     40  C   THR B   3      -9.786  12.222  11.070  1.00 34.58 LIG 0.24  C 
ATOM     41 O    THR B   3      -9.425  11.449  10.196  1.00 36.58 LIG-0.27  OA
ATOM     42 H    LYS B   4      -9.328  12.940  12.817  1.00 32.65 LIG 0.16  HD
BRANCH 40 43
ATOM     43  CA  THR B   3     -11.003  13.108  10.861  1.00 32.52 LIG 0.20  C 
BRANCH 43 44
ATOM     44  CB  THR B   3     -11.236  13.289   9.372  1.00 35.15 LIG 0.15  C 
ATOM     45  CG2 THR B   3     -12.139  14.478   9.125  1.00 35.84 LIG 0.04  C 
BRANCH 44 46
ATOM     46 OG1  THR B   3      -9.973  13.495   8.731  1.00 37.78 LIG-0.39  OA
ATOM     47 HG1  THR B   3     -10.040  14.120   8.173  1.00 37.78 LIG 0.21  HD
ENDBRANCH 44 46
ENDBRANCH 43 44
BRANCH 43 48
ATOM     48  N   THR B   3     -10.798  14.380  11.540  1.00 36.19 LIG-0.34  N 
ATOM     49  C   ARG B   2      -9.783  15.173  11.234  1.00 33.52 LIG 0.24  C 
ATOM     50 O    ARG B   2      -8.882  14.840  10.490  1.00 34.90 LIG-0.27  OA
ATOM     51 H    THR B   3     -11.385  14.560  12.143  1.00 36.19 LIG 0.16  HD
BRANCH 49 52
ATOM     52  CA  ARG B   2      -9.796  16.563  11.837  1.00 37.04 LIG 0.18  C 
BRANCH 52 53
ATOM     53  CB  ARG B   2     -10.370  17.506  10.797  1.00 37.98 LIG 0.04  C 
BRANCH 53 54
ATOM     54  CG  ARG B   2      -9.742  17.391   9.428  1.00 44.54 LIG 0.02  C 
BRANCH 54 55
ATOM     55  CD  ARG B   2     -10.842  17.587   8.428  1.00 45.57 LIG 0.14  C 
BRANCH 55 56
ATOM     56  NE  ARG B   2     -10.419  17.055   7.143  1.00 45.97 LIG-0.23  N 
ATOM     57  CZ  ARG B   2      -9.947  17.791   6.146  1.00 44.90 LIG 0.67  C 
ATOM     58  NH1 ARG B   2      -9.846  19.114   6.265  1.00 46.97 LIG-0.23  N 
ATOM     59  NH2 ARG B   2      -9.599  17.197   5.023  1.00 41.82 LIG-0.23  N 
ATOM     60 2HH1 ARG B   2      -9.539  19.582   5.612  1.00 46.97 LIG 0.17  HD
ATOM     61 1HH1 ARG B   2     -10.089  19.500   6.994  1.00 46.97 LIG 0.17  HD
ATOM     62 2HH2 ARG B   2      -9.291  17.661   4.368  1.00 41.82 LIG 0.17  HD
ATOM     63 1HH2 ARG B   2      -9.679  16.344   4.944  1.00 41.82 LIG 0.17  HD
ATOM     64 HE   ARG B   2     -10.479  16.206   7.022  1.00 45.97 LIG 0.18  HD
ENDBRANCH 55 56
ENDBRANCH 54 55
ENDBRANCH 53 54
ENDBRANCH 52 53
BRANCH 52 65
ATOM     65  N   ARG B   2      -8.444  16.952  12.208  1.00 35.35 LIG-0.35  N 
ATOM     66 H    ARG B   2      -7.967  17.256  11.561  1.00 35.35 LIG 0.16  HD
ATOM     67  C   ALA B   1      -8.020  16.831  13.456  1.00 38.28 LIG 0.25  C 
ATOM     68 O    ALA B   1      -8.758  16.463  14.368  1.00 39.08 LIG-0.27  OA
BRANCH 67 69
ATOM     69  CA  ALA B   1      -6.567  17.196  13.732  1.00 38.95 LIG 0.27  C 
ATOM     70  CB  ALA B   1      -6.006  16.373  14.881  1.00 37.91 LIG 0.05  C 
BRANCH 69 71
ATOM     71  N   ALA B   1      -6.455  18.623  14.027  1.00 44.33 LIG-0.07  N 
ATOM     72 H1   ALA B   1      -5.915  18.741  14.724  1.00 44.33 LIG 0.28  HD
ATOM     73 H2   ALA B   1      -6.121  19.047  13.319  1.00 44.33 LIG 0.28  HD
ATOM     74 H3   ALA B   1      -7.260  18.952  14.216  1.00 44.33 LIG 0.28  HD
ENDBRANCH 69 71
ENDBRANCH 67 69
ENDBRANCH 52 65
ENDBRANCH 49 52
ENDBRANCH 43 48
ENDBRANCH 40 43
ENDBRANCH 1 39
TORSDOF 30
ENDMDL
MODEL 14
USER: ADFR SOLUTION from run 72
USER: SCORE 21.402729 LL:  -3.947 LR: -20.137 RR:   0.000 FEB: -11.188
USER: RMSD 9.346001
USER: SEED 71
USER: STATUS searching
USER: GENES 32
USER: genes 0 Translation |==|  0.73052 0.56235 0.42323
USER: genes 1 Rotation |==|  0.44183 0.85787 0.84048 0.55115
USER: genes 2 Torsion [N]-CA--C-[N] |==|  0.01777
USER: genes 3 Torsion [C]-N--CA-[CB] |==|  0.27772
USER: genes 4 Torsion [N]-CA--CB-[CG] |==|  0.34810
USER: genes 5 Torsion [CA]-CB--CG-[CD] |==|  0.26509
USER: genes 6 Torsion [CB]-CG--CD-[OE1] |==|  0.79126
USER: genes 7 Torsion [N]-CA--C-[N] |==|  0.37673
USER: genes 8 Torsion [C]-N--CA-[CB] |==|  0.20184
USER: genes 9 Torsion [N]-CA--C-[N] |==|  0.79540
USER: genes 10 Torsion [C]-N--CA-[CB] |==|  0.13939
USER: genes 11 Torsion [N]-CA--C-[O] |==|  0.90122
USER: genes 12 Torsion [N]-CA--CB-[CG2] |==|  0.48494
USER: genes 13 Torsion [CA]-CB--OG1-[HG1] |==|  0.47028
USER: genes 14 Torsion [C]-CA--CB-[CG] |==|  0.85772
USER: genes 15 Torsion [CA]-CB--CG-[CD] |==|  0.77259
USER: genes 16 Torsion [CB]-CG--CD-[CE] |==|  0.37501
USER: genes 17 Torsion [CG]-CD--CE-[NZ] |==|  0.26056
USER: genes 18 Torsion [CD]-CE--NZ-[HZ2] |==|  0.51483
USER: genes 19 Torsion [C]-CA--N-[C] |==|  0.73373
USER: genes 20 Torsion [N]-C--CA-[N] |==|  0.08889
USER: genes 21 Torsion [C]-CA--CB-[CG2] |==|  0.23637
USER: genes 22 Torsion [CA]-CB--OG1-[HG1] |==|  0.78333
USER: genes 23 Torsion [C]-CA--N-[C] |==|  0.68844
USER: genes 24 Torsion [N]-C--CA-[N] |==|  0.18447
USER: genes 25 Torsion [C]-CA--CB-[CG] |==|  0.41195
USER: genes 26 Torsion [CA]-CB--CG-[CD] |==|  0.16782
USER: genes 27 Torsion [CB]-CG--CD-[NE] |==|  0.62177
USER: genes 28 Torsion [CG]-CD--NE-[HE] |==|  0.92750
USER: genes 29 Torsion [C]-CA--N-[C] |==|  0.64987
USER: genes 30 Torsion [N]-C--CA-[N] |==|  0.51193
USER: genes 31 Torsion [C]-CA--N-[H2] |==|  0.75048
ROOT
ATOM      1  CA  LYS B   4      -7.080  11.291  11.794  1.00 37.28 LIG 0.18  C 
ENDROOT
BRANCH 1 2
ATOM      2  C   LYS B   4      -6.336  12.377  12.539  1.00 39.57 LIG 0.24  C 
ATOM      3 O    LYS B   4      -5.121  12.535  12.399  1.00 42.15 LIG-0.27  OA
ATOM      4  N   GLN B   5      -7.073  13.137  13.329  1.00 37.54 LIG-0.35  N 
ATOM      5 H    GLN B   5      -7.917  13.034  13.465  1.00 37.54 LIG 0.16  HD
BRANCH 4 6
ATOM      6  CA  GLN B   5      -6.463  14.239  14.041  1.00 44.43 LIG 0.18  C 
BRANCH 6 7
ATOM      7  CB  GLN B   5      -6.730  15.556  13.334  1.00 42.91 LIG 0.04  C 
BRANCH 7 8
ATOM      8  CG  GLN B   5      -7.357  16.554  14.245  1.00 46.61 LIG 0.10  C 
BRANCH 8 9
ATOM      9  CD  GLN B   5      -6.343  17.458  14.850  1.00 50.89 LIG 0.21  C 
ATOM     10  NE2 GLN B   5      -6.296  18.698  14.359  1.00 54.67 LIG-0.37  N 
ATOM     11 21HE GLN B   5      -6.829  18.930  13.725  1.00 54.67 LIG 0.16  HD
ATOM     12 22HE GLN B   5      -5.733  19.265  14.675  1.00 54.67 LIG 0.16  HD
ATOM     13 OE1  GLN B   5      -5.600  17.065  15.763  1.00 48.99 LIG-0.27  OA
ENDBRANCH 8 9
ENDBRANCH 7 8
ENDBRANCH 6 7
BRANCH 6 14
ATOM     14  C   GLN B   5      -6.930  14.291  15.493  1.00 45.34 LIG 0.24  C 
ATOM     15 O    GLN B   5      -8.119  14.170  15.770  1.00 47.84 LIG-0.27  OA
ATOM     16  N   THR B   6      -6.000  14.501  16.417  1.00 44.99 LIG-0.34  N 
ATOM     17 H    THR B   6      -5.168  14.640  16.253  1.00 44.99 LIG 0.16  HD
BRANCH 16 18
ATOM     18  CA  THR B   6      -6.363  14.509  17.828  1.00 47.63 LIG 0.20  C 
BRANCH 18 19
ATOM     19  C   THR B   6      -5.306  15.203  18.690  1.00 49.11 LIG 0.24  C 
ATOM     20 O    THR B   6      -5.508  16.329  19.138  1.00 51.64 LIG-0.27  OA
ATOM     21  N   ALA B   7      -4.175  14.540  18.898  1.00 46.55 LIG-0.35  N 
ATOM     22 H    ALA B   7      -4.029  13.740  18.618  1.00 46.55 LIG 0.16  HD
BRANCH 21 23
ATOM     23  CA  ALA B   7      -3.065  15.131  19.636  1.00 49.58 LIG 0.16  C 
ATOM     24  CB  ALA B   7      -3.554  15.720  20.977  1.00 45.32 LIG 0.04  C 
BRANCH 23 25
ATOM     25  C   ALA B   7      -1.961  14.091  19.861  1.00 53.19 LIG 0.22  C 
ATOM     26 O    ALA B   7      -2.250  12.897  20.067  1.00 57.48 LIG-0.29  OA
ENDBRANCH 23 25
ENDBRANCH 21 23
ENDBRANCH 18 19
BRANCH 18 27
ATOM     27  CB  THR B   6      -6.678  13.089  18.357  1.00 48.13 LIG 0.15  C 
ATOM     28  CG2 THR B   6      -6.918  13.131  19.856  1.00 44.70 LIG 0.04  C 
BRANCH 27 29
ATOM     29 OG1  THR B   6      -7.832  12.553  17.688  1.00 42.78 LIG-0.39  OA
ATOM     30 HG1  THR B   6      -7.909  11.737  17.872  1.00 42.78 LIG 0.21  HD
ENDBRANCH 27 29
ENDBRANCH 18 27
ENDBRANCH 16 18
ENDBRANCH 6 14
ENDBRANCH 4 6
ENDBRANCH 1 2
BRANCH 1 31
ATOM     31  CB  LYS B   4      -6.741  11.406  10.306  1.00 35.55 LIG 0.04  C 
BRANCH 31 32
ATOM     32  CG  LYS B   4      -6.920  12.761   9.745  1.00 39.70 LIG 0.00  C 
BRANCH 32 33
ATOM     33  CD  LYS B   4      -8.371  12.990   9.402  1.00 40.13 LIG 0.03  C 
BRANCH 33 34
ATOM     34  CE  LYS B   4      -8.813  14.346   9.880  1.00 42.33 LIG 0.23  C 
BRANCH 34 35
ATOM     35  NZ  LYS B   4      -8.688  15.366   8.819  1.00 43.53 LIG-0.08  N 
ATOM     36 HZ3  LYS B   4      -7.854  15.369   8.508  1.00 43.53 LIG 0.27  HD
ATOM     37 HZ1  LYS B   4      -9.251  15.177   8.156  1.00 43.53 LIG 0.27  HD
ATOM     38 HZ2  LYS B   4      -8.882  16.167   9.153  1.00 43.53 LIG 0.27  HD
ENDBRANCH 34 35
ENDBRANCH 33 34
ENDBRANCH 32 33
ENDBRANCH 31 32
ENDBRANCH 1 31
BRANCH 1 39
ATOM     39  N   LYS B   4      -8.512  11.433  12.017  1.00 32.65 LIG-0.35  N 
ATOM     40  C   THR B   3      -9.145  10.741  12.957  1.00 34.58 LIG 0.24  C 
ATOM     41 O    THR B   3      -8.594   9.872  13.615  1.00 36.58 LIG-0.27  OA
ATOM     42 H    LYS B   4      -8.898  11.995  11.492  1.00 32.65 LIG 0.16  HD
BRANCH 40 43
ATOM     43  CA  THR B   3     -10.617  11.054  13.172  1.00 32.52 LIG 0.20  C 
BRANCH 43 44
ATOM     44  CB  THR B   3     -11.301   9.839  13.769  1.00 35.15 LIG 0.15  C 
ATOM     45  CG2 THR B   3     -11.141   9.835  15.274  1.00 35.84 LIG 0.04  C 
BRANCH 44 46
ATOM     46 OG1  THR B   3     -12.691   9.880  13.427  1.00 37.78 LIG-0.39  OA
ATOM     47 HG1  THR B   3     -13.086  10.429  13.925  1.00 37.78 LIG 0.21  HD
ENDBRANCH 44 46
ENDBRANCH 43 44
BRANCH 43 48
ATOM     48  N   THR B   3     -11.216  11.452  11.906  1.00 36.19 LIG-0.34  N 
ATOM     49  C   ARG B   2     -11.636  12.692  11.697  1.00 33.52 LIG 0.24  C 
ATOM     50 O    ARG B   2     -11.691  13.530  12.574  1.00 34.90 LIG-0.27  OA
ATOM     51 H    THR B   3     -11.270  10.822  11.323  1.00 36.19 LIG 0.16  HD
BRANCH 49 52
ATOM     52  CA  ARG B   2     -12.029  13.050  10.279  1.00 37.04 LIG 0.18  C 
BRANCH 52 53
ATOM     53  CB  ARG B   2     -12.293  14.543  10.241  1.00 37.98 LIG 0.04  C 
BRANCH 53 54
ATOM     54  CG  ARG B   2     -11.964  15.208   8.926  1.00 44.54 LIG 0.02  C 
BRANCH 54 55
ATOM     55  CD  ARG B   2     -12.825  14.559   7.884  1.00 45.57 LIG 0.14  C 
BRANCH 55 56
ATOM     56  NE  ARG B   2     -12.023  14.291   6.702  1.00 45.97 LIG-0.23  N 
ATOM     57  CZ  ARG B   2     -12.280  13.333   5.823  1.00 44.90 LIG 0.67  C 
ATOM     58  NH1 ARG B   2     -13.320  12.518   5.988  1.00 46.97 LIG-0.23  N 
ATOM     59  NH2 ARG B   2     -11.475  13.181   4.790  1.00 41.82 LIG-0.23  N 
ATOM     60 2HH1 ARG B   2     -13.478  11.899   5.412  1.00 46.97 LIG 0.17  HD
ATOM     61 1HH1 ARG B   2     -13.834  12.611   6.672  1.00 46.97 LIG 0.17  HD
ATOM     62 2HH2 ARG B   2     -11.630  12.564   4.212  1.00 41.82 LIG 0.17  HD
ATOM     63 1HH2 ARG B   2     -10.796  13.699   4.694  1.00 41.82 LIG 0.17  HD
ATOM     64 HE   ARG B   2     -11.334  14.788   6.564  1.00 45.97 LIG 0.18  HD
ENDBRANCH 55 56
ENDBRANCH 54 55
ENDBRANCH 53 54
ENDBRANCH 52 53
BRANCH 52 65
ATOM     65  N   ARG B   2     -13.213  12.298   9.891  1.00 35.35 LIG-0.35  N 
ATOM     66 H    ARG B   2     -13.880  12.377  10.427  1.00 35.35 LIG 0.16  HD
ATOM     67  C   ALA B   1     -13.222  11.563   8.791  1.00 38.28 LIG 0.25  C 
ATOM     68 O    ALA B   1     -12.273  11.538   8.009  1.00 39.08 LIG-0.27  OA
BRANCH 67 69
ATOM     69  CA  ALA B   1     -14.482  10.756   8.508  1.00 38.95 LIG 0.27  C 
ATOM     70  CB  ALA B   1     -14.857   9.891   9.701  1.00 37.91 LIG 0.05  C 
BRANCH 69 71
ATOM     71  N   ALA B   1     -14.292   9.927   7.319  1.00 44.33 LIG-0.07  N 
ATOM     72 H1   ALA B   1     -14.786   9.189   7.389  1.00 44.33 LIG 0.28  HD
ATOM     73 H2   ALA B   1     -14.542  10.382   6.596  1.00 44.33 LIG 0.28  HD
ATOM     74 H3   ALA B   1     -13.434   9.703   7.247  1.00 44.33 LIG 0.28  HD
ENDBRANCH 69 71
ENDBRANCH 67 69
ENDBRANCH 52 65
ENDBRANCH 49 52
ENDBRANCH 43 48
ENDBRANCH 40 43
ENDBRANCH 1 39
TORSDOF 30
ENDMDL
MODEL 15
USER: ADFR SOLUTION from run 51
USER: SCORE 22.126530 LL:  -5.134 LR: -20.118 RR:   0.000 FEB: -11.169
USER: RMSD 7.504541
USER: SEED 50
USER: STATUS no improvement in best in 9 clusters for 5 generations
USER: GENES 32
USER: genes 0 Translation |==|  0.62826 0.61941 0.35347
USER: genes 1 Rotation |==|  0.45604 0.49448 0.95726 0.69737
USER: genes 2 Torsion [N]-CA--C-[N] |==|  0.02278
USER: genes 3 Torsion [C]-N--CA-[CB] |==|  0.20813
USER: genes 4 Torsion [N]-CA--CB-[CG] |==|  0.68102
USER: genes 5 Torsion [CA]-CB--CG-[CD] |==|  0.82091
USER: genes 6 Torsion [CB]-CG--CD-[OE1] |==|  0.40599
USER: genes 7 Torsion [N]-CA--C-[N] |==|  0.38337
USER: genes 8 Torsion [C]-N--CA-[CB] |==|  0.45336
USER: genes 9 Torsion [N]-CA--C-[N] |==|  0.89252
USER: genes 10 Torsion [C]-N--CA-[CB] |==|  0.23946
USER: genes 11 Torsion [N]-CA--C-[O] |==|  0.02525
USER: genes 12 Torsion [N]-CA--CB-[CG2] |==|  0.53104
USER: genes 13 Torsion [CA]-CB--OG1-[HG1] |==|  0.20684
USER: genes 14 Torsion [C]-CA--CB-[CG] |==|  0.22743
USER: genes 15 Torsion [CA]-CB--CG-[CD] |==|  0.56369
USER: genes 16 Torsion [CB]-CG--CD-[CE] |==|  0.19502
USER: genes 17 Torsion [CG]-CD--CE-[NZ] |==|  0.52757
USER: genes 18 Torsion [CD]-CE--NZ-[HZ2] |==|  0.83932
USER: genes 19 Torsion [C]-CA--N-[C] |==|  0.18567
USER: genes 20 Torsion [N]-C--CA-[N] |==|  0.03573
USER: genes 21 Torsion [C]-CA--CB-[CG2] |==|  0.22766
USER: genes 22 Torsion [CA]-CB--OG1-[HG1] |==|  0.53561
USER: genes 23 Torsion [C]-CA--N-[C] |==|  0.18027
USER: genes 24 Torsion [N]-C--CA-[N] |==|  0.18912
USER: genes 25 Torsion [C]-CA--CB-[CG] |==|  0.34538
USER: genes 26 Torsion [CA]-CB--CG-[CD] |==|  0.09180
USER: genes 27 Torsion [CB]-CG--CD-[NE] |==|  0.25810
USER: genes 28 Torsion [CG]-CD--NE-[HE] |==|  0.80112
USER: genes 29 Torsion [C]-CA--N-[C] |==|  0.77637
USER: genes 30 Torsion [N]-C--CA-[N] |==|  0.91699
USER: genes 31 Torsion [C]-CA--N-[H2] |==|  0.42915
ROOT
ATOM      1  CA  LYS B   4      -9.228  12.490  10.067  1.00 37.28 LIG 0.18  C 
ENDROOT
BRANCH 1 2
ATOM      2  C   LYS B   4      -9.136  11.477  11.187  1.00 39.57 LIG 0.24  C 
ATOM      3 O    LYS B   4      -8.048  11.042  11.572  1.00 42.15 LIG-0.27  OA
ATOM      4  N   GLN B   5     -10.287  11.108  11.720  1.00 37.54 LIG-0.35  N 
ATOM      5 H    GLN B   5     -11.061  11.376  11.456  1.00 37.54 LIG 0.16  HD
BRANCH 4 6
ATOM      6  CA  GLN B   5     -10.301  10.186  12.836  1.00 44.43 LIG 0.18  C 
BRANCH 6 7
ATOM      7  CB  GLN B   5      -9.872  10.878  14.117  1.00 42.91 LIG 0.04  C 
BRANCH 7 8
ATOM      8  CG  GLN B   5      -8.589  10.328  14.637  1.00 46.61 LIG 0.10  C 
BRANCH 8 9
ATOM      9  CD  GLN B   5      -8.725   8.903  15.038  1.00 50.89 LIG 0.21  C 
ATOM     10  NE2 GLN B   5      -9.910   8.545  15.537  1.00 54.67 LIG-0.37  N 
ATOM     11 21HE GLN B   5     -10.537   9.128  15.616  1.00 54.67 LIG 0.16  HD
ATOM     12 22HE GLN B   5     -10.047   7.732  15.780  1.00 54.67 LIG 0.16  HD
ATOM     13 OE1  GLN B   5      -7.783   8.107  14.900  1.00 48.99 LIG-0.27  OA
ENDBRANCH 8 9
ENDBRANCH 7 8
ENDBRANCH 6 7
BRANCH 6 14
ATOM     14  C   GLN B   5     -11.667   9.527  12.997  1.00 45.34 LIG 0.24  C 
ATOM     15 O    GLN B   5     -12.694  10.192  12.904  1.00 47.84 LIG-0.27  OA
ATOM     16  N   THR B   6     -11.681   8.228  13.271  1.00 44.99 LIG-0.34  N 
ATOM     17 H    THR B   6     -10.981   7.745  13.392  1.00 44.99 LIG 0.16  HD
BRANCH 16 18
ATOM     18  CA  THR B   6     -12.949   7.520  13.385  1.00 47.63 LIG 0.20  C 
BRANCH 18 19
ATOM     19  C   THR B   6     -13.717   7.914  14.648  1.00 49.11 LIG 0.24  C 
ATOM     20 O    THR B   6     -14.936   8.062  14.616  1.00 51.64 LIG-0.27  OA
ATOM     21  N   ALA B   7     -12.999   8.107  15.749  1.00 46.55 LIG-0.35  N 
ATOM     22 H    ALA B   7     -12.150   7.979  15.796  1.00 46.55 LIG 0.16  HD
BRANCH 21 23
ATOM     23  CA  ALA B   7     -13.611   8.562  16.992  1.00 49.58 LIG 0.16  C 
ATOM     24  CB  ALA B   7     -14.153   7.366  17.803  1.00 45.32 LIG 0.04  C 
BRANCH 23 25
ATOM     25  C   ALA B   7     -12.602   9.374  17.814  1.00 53.19 LIG 0.22  C 
ATOM     26 O    ALA B   7     -11.507   9.705  17.323  1.00 57.48 LIG-0.29  OA
ENDBRANCH 23 25
ENDBRANCH 21 23
ENDBRANCH 18 19
BRANCH 18 27
ATOM     27  CB  THR B   6     -12.770   5.985  13.290  1.00 48.13 LIG 0.15  C 
ATOM     28  CG2 THR B   6     -14.122   5.310  13.138  1.00 44.70 LIG 0.04  C 
BRANCH 27 29
ATOM     29 OG1  THR B   6     -11.925   5.650  12.177  1.00 42.78 LIG-0.39  OA
ATOM     30 HG1  THR B   6     -11.127   5.834  12.366  1.00 42.78 LIG 0.21  HD
ENDBRANCH 27 29
ENDBRANCH 18 27
ENDBRANCH 16 18
ENDBRANCH 6 14
ENDBRANCH 4 6
ENDBRANCH 1 2
BRANCH 1 31
ATOM     31  CB  LYS B   4      -8.255  13.633  10.368  1.00 35.55 LIG 0.04  C 
BRANCH 31 32
ATOM     32  CG  LYS B   4      -6.855  13.356   9.986  1.00 39.70 LIG 0.00  C 
BRANCH 32 33
ATOM     33  CD  LYS B   4      -5.920  14.226  10.786  1.00 40.13 LIG 0.03  C 
BRANCH 33 34
ATOM     34  CE  LYS B   4      -5.900  13.788  12.226  1.00 42.33 LIG 0.23  C 
BRANCH 34 35
ATOM     35  NZ  LYS B   4      -5.183  14.756  13.081  1.00 43.53 LIG-0.08  N 
ATOM     36 HZ3  LYS B   4      -5.604  15.539  13.059  1.00 43.53 LIG 0.27  HD
ATOM     37 HZ1  LYS B   4      -5.161  14.453  13.918  1.00 43.53 LIG 0.27  HD
ATOM     38 HZ2  LYS B   4      -4.351  14.858  12.781  1.00 43.53 LIG 0.27  HD
ENDBRANCH 34 35
ENDBRANCH 33 34
ENDBRANCH 32 33
ENDBRANCH 31 32
ENDBRANCH 1 31
BRANCH 1 39
ATOM     39  N   LYS B   4     -10.594  12.980   9.957  1.00 32.65 LIG-0.35  N 
ATOM     40  C   THR B   3     -11.152  13.715  10.912  1.00 34.58 LIG 0.24  C 
ATOM     41 O    THR B   3     -10.600  13.933  11.979  1.00 36.58 LIG-0.27  OA
ATOM     42 H    LYS B   4     -10.994  12.753   9.230  1.00 32.65 LIG 0.16  HD
BRANCH 40 43
ATOM     43  CA  THR B   3     -12.543  14.264  10.636  1.00 32.52 LIG 0.20  C 
BRANCH 43 44
ATOM     44  CB  THR B   3     -13.407  14.069  11.868  1.00 35.15 LIG 0.15  C 
ATOM     45  CG2 THR B   3     -13.150  15.176  12.868  1.00 35.84 LIG 0.04  C 
BRANCH 44 46
ATOM     46 OG1  THR B   3     -14.783  14.080  11.472  1.00 37.78 LIG-0.39  OA
ATOM     47 HG1  THR B   3     -15.270  14.150  12.152  1.00 37.78 LIG 0.21  HD
ENDBRANCH 44 46
ENDBRANCH 43 44
BRANCH 43 48
ATOM     48  N   THR B   3     -13.102  13.601   9.466  1.00 36.19 LIG-0.34  N 
ATOM     49  C   ARG B   2     -13.371  12.304   9.468  1.00 33.52 LIG 0.24  C 
ATOM     50 O    ARG B   2     -13.040  11.559  10.368  1.00 34.90 LIG-0.27  OA
ATOM     51 H    THR B   3     -13.236  14.120   8.794  1.00 36.19 LIG 0.16  HD
BRANCH 49 52
ATOM     52  CA  ARG B   2     -14.156  11.768   8.288  1.00 37.04 LIG 0.18  C 
BRANCH 52 53
ATOM     53  CB  ARG B   2     -14.540  10.336   8.607  1.00 37.98 LIG 0.04  C 
BRANCH 53 54
ATOM     54  CG  ARG B   2     -16.020  10.049   8.531  1.00 44.54 LIG 0.02  C 
BRANCH 54 55
ATOM     55  CD  ARG B   2     -16.577  10.922   7.447  1.00 45.57 LIG 0.14  C 
BRANCH 55 56
ATOM     56  NE  ARG B   2     -16.579  10.185   6.195  1.00 45.97 LIG-0.23  N 
ATOM     57  CZ  ARG B   2     -17.669   9.727   5.596  1.00 44.90 LIG 0.67  C 
ATOM     58  NH1 ARG B   2     -18.872   9.909   6.139  1.00 46.97 LIG-0.23  N 
ATOM     59  NH2 ARG B   2     -17.546   9.065   4.463  1.00 41.82 LIG-0.23  N 
ATOM     60 2HH1 ARG B   2     -19.573   9.608   5.742  1.00 46.97 LIG 0.17  HD
ATOM     61 1HH1 ARG B   2     -18.947  10.328   6.886  1.00 46.97 LIG 0.17  HD
ATOM     62 2HH2 ARG B   2     -18.244   8.762   4.064  1.00 41.82 LIG 0.17  HD
ATOM     63 1HH2 ARG B   2     -16.767   8.935   4.123  1.00 41.82 LIG 0.17  HD
ATOM     64 HE   ARG B   2     -15.821  10.035   5.817  1.00 45.97 LIG 0.18  HD
ENDBRANCH 55 56
ENDBRANCH 54 55
ENDBRANCH 53 54
ENDBRANCH 52 53
BRANCH 52 65
ATOM     65  N   ARG B   2     -13.343  11.837   7.084  1.00 35.35 LIG-0.35  N 
ATOM     66 H    ARG B   2     -12.969  11.096   6.859  1.00 35.35 LIG 0.16  HD
ATOM     67  C   ALA B   1     -13.214  12.971   6.413  1.00 38.28 LIG 0.25  C 
ATOM     68 O    ALA B   1     -13.827  13.991   6.724  1.00 39.08 LIG-0.27  OA
BRANCH 67 69
ATOM     69  CA  ALA B   1     -12.285  12.960   5.207  1.00 38.95 LIG 0.27  C 
ATOM     70  CB  ALA B   1     -13.051  12.650   3.930  1.00 37.91 LIG 0.05  C 
BRANCH 69 71
ATOM     71  N   ALA B   1     -11.214  11.986   5.406  1.00 44.33 LIG-0.07  N 
ATOM     72 H1   ALA B   1     -11.527  11.288   5.861  1.00 44.33 LIG 0.28  HD
ATOM     73 H2   ALA B   1     -10.911  11.712   4.616  1.00 44.33 LIG 0.28  HD
ATOM     74 H3   ALA B   1     -10.550  12.363   5.864  1.00 44.33 LIG 0.28  HD
ENDBRANCH 69 71
ENDBRANCH 67 69
ENDBRANCH 52 65
ENDBRANCH 49 52
ENDBRANCH 43 48
ENDBRANCH 40 43
ENDBRANCH 1 39
TORSDOF 30
ENDMDL
MODEL 16
USER: ADFR SOLUTION from run 99
USER: SCORE 23.127288 LL:  -4.318 LR: -20.099 RR:   0.000 FEB: -11.150
USER: RMSD 9.744908
USER: SEED 98
USER: STATUS no improvement in best in 3 clusters for 5 generations
USER: GENES 32
USER: genes 0 Translation |==|  0.58384 0.56151 0.40881
USER: genes 1 Rotation |==|  0.33400 0.27514 0.09705 0.59750
USER: genes 2 Torsion [N]-CA--C-[N] |==|  0.86667
USER: genes 3 Torsion [C]-N--CA-[CB] |==|  0.16370
USER: genes 4 Torsion [N]-CA--CB-[CG] |==|  0.60358
USER: genes 5 Torsion [CA]-CB--CG-[CD] |==|  0.02257
USER: genes 6 Torsion [CB]-CG--CD-[OE1] |==|  0.20161
USER: genes 7 Torsion [N]-CA--C-[N] |==|  0.53429
USER: genes 8 Torsion [C]-N--CA-[CB] |==|  0.83394
USER: genes 9 Torsion [N]-CA--C-[N] |==|  0.39474
USER: genes 10 Torsion [C]-N--CA-[CB] |==|  0.82346
USER: genes 11 Torsion [N]-CA--C-[O] |==|  0.64965
USER: genes 12 Torsion [N]-CA--CB-[CG2] |==|  0.52155
USER: genes 13 Torsion [CA]-CB--OG1-[HG1] |==|  0.73756
USER: genes 14 Torsion [C]-CA--CB-[CG] |==|  0.84223
USER: genes 15 Torsion [CA]-CB--CG-[CD] |==|  0.34703
USER: genes 16 Torsion [CB]-CG--CD-[CE] |==|  0.89083
USER: genes 17 Torsion [CG]-CD--CE-[NZ] |==|  0.58929
USER: genes 18 Torsion [CD]-CE--NZ-[HZ2] |==|  0.42838
USER: genes 19 Torsion [C]-CA--N-[C] |==|  0.79554
USER: genes 20 Torsion [N]-C--CA-[N] |==|  0.31057
USER: genes 21 Torsion [C]-CA--CB-[CG2] |==|  0.15955
USER: genes 22 Torsion [CA]-CB--OG1-[HG1] |==|  0.42145
USER: genes 23 Torsion [C]-CA--N-[C] |==|  0.77185
USER: genes 24 Torsion [N]-C--CA-[N] |==|  0.35600
USER: genes 25 Torsion [C]-CA--CB-[CG] |==|  0.23790
USER: genes 26 Torsion [CA]-CB--CG-[CD] |==|  0.32490
USER: genes 27 Torsion [CB]-CG--CD-[NE] |==|  0.23028
USER: genes 28 Torsion [CG]-CD--NE-[HE] |==|  0.96370
USER: genes 29 Torsion [C]-CA--N-[C] |==|  0.81325
USER: genes 30 Torsion [N]-C--CA-[N] |==|  0.80726
USER: genes 31 Torsion [C]-CA--N-[H2] |==|  0.54226
ROOT
ATOM      1  CA  LYS B   4     -10.160  11.274  11.437  1.00 37.28 LIG 0.18  C 
ENDROOT
BRANCH 1 2
ATOM      2  C   LYS B   4      -8.784  11.900  11.456  1.00 39.57 LIG 0.24  C 
ATOM      3 O    LYS B   4      -7.875  11.475  10.738  1.00 42.15 LIG-0.27  OA
ATOM      4  N   GLN B   5      -8.632  12.924  12.277  1.00 37.54 LIG-0.35  N 
ATOM      5 H    GLN B   5      -9.240  13.224  12.807  1.00 37.54 LIG 0.16  HD
BRANCH 4 6
ATOM      6  CA  GLN B   5      -7.367  13.625  12.326  1.00 44.43 LIG 0.18  C 
BRANCH 6 7
ATOM      7  CB  GLN B   5      -7.009  14.193  10.964  1.00 42.91 LIG 0.04  C 
BRANCH 7 8
ATOM      8  CG  GLN B   5      -5.546  14.103  10.697  1.00 46.61 LIG 0.10  C 
BRANCH 8 9
ATOM      9  CD  GLN B   5      -4.846  13.309  11.742  1.00 50.89 LIG 0.21  C 
ATOM     10  NE2 GLN B   5      -4.095  14.003  12.599  1.00 54.67 LIG-0.37  N 
ATOM     11 21HE GLN B   5      -4.034  14.857  12.524  1.00 54.67 LIG 0.16  HD
ATOM     12 22HE GLN B   5      -3.672  13.596  13.227  1.00 54.67 LIG 0.16  HD
ATOM     13 OE1  GLN B   5      -4.973  12.076  11.799  1.00 48.99 LIG-0.27  OA
ENDBRANCH 8 9
ENDBRANCH 7 8
ENDBRANCH 6 7
BRANCH 6 14
ATOM     14  C   GLN B   5      -7.377  14.717  13.392  1.00 45.34 LIG 0.24  C 
ATOM     15 O    GLN B   5      -8.291  14.783  14.208  1.00 47.84 LIG-0.27  OA
ATOM     16  N   THR B   6      -6.379  15.592  13.368  1.00 44.99 LIG-0.34  N 
ATOM     17 H    THR B   6      -5.751  15.603  12.780  1.00 44.99 LIG 0.16  HD
BRANCH 16 18
ATOM     18  CA  THR B   6      -6.292  16.629  14.386  1.00 47.63 LIG 0.20  C 
BRANCH 18 19
ATOM     19  C   THR B   6      -6.022  16.050  15.777  1.00 49.11 LIG 0.24  C 
ATOM     20 O    THR B   6      -6.563  15.007  16.134  1.00 51.64 LIG-0.27  OA
ATOM     21  N   ALA B   7      -5.207  16.742  16.564  1.00 46.55 LIG-0.35  N 
ATOM     22 H    ALA B   7      -4.797  17.458  16.319  1.00 46.55 LIG 0.16  HD
BRANCH 21 23
ATOM     23  CA  ALA B   7      -4.937  16.332  17.937  1.00 49.58 LIG 0.16  C 
ATOM     24  CB  ALA B   7      -6.227  16.386  18.785  1.00 45.32 LIG 0.04  C 
BRANCH 23 25
ATOM     25  C   ALA B   7      -4.319  14.930  17.962  1.00 53.19 LIG 0.22  C 
ATOM     26 O    ALA B   7      -4.826  14.027  18.655  1.00 57.48 LIG-0.29  OA
ENDBRANCH 23 25
ENDBRANCH 21 23
ENDBRANCH 18 19
BRANCH 18 27
ATOM     27  CB  THR B   6      -7.539  17.547  14.391  1.00 48.13 LIG 0.15  C 
ATOM     28  CG2 THR B   6      -7.321  18.720  15.332  1.00 44.70 LIG 0.04  C 
BRANCH 27 29
ATOM     29 OG1  THR B   6      -7.810  18.025  13.063  1.00 42.78 LIG-0.39  OA
ATOM     30 HG1  THR B   6      -7.450  18.776  12.956  1.00 42.78 LIG 0.21  HD
ENDBRANCH 27 29
ENDBRANCH 18 27
ENDBRANCH 16 18
ENDBRANCH 6 14
ENDBRANCH 4 6
ENDBRANCH 1 2
BRANCH 1 31
ATOM     31  CB  LYS B   4     -11.111  12.218  10.697  1.00 35.55 LIG 0.04  C 
BRANCH 31 32
ATOM     32  CG  LYS B   4     -11.180  13.579  11.266  1.00 39.70 LIG 0.00  C 
BRANCH 32 33
ATOM     33  CD  LYS B   4     -10.869  14.601  10.201  1.00 40.13 LIG 0.03  C 
BRANCH 33 34
ATOM     34  CE  LYS B   4      -9.757  14.109   9.314  1.00 42.33 LIG 0.23  C 
BRANCH 34 35
ATOM     35  NZ  LYS B   4      -8.926  15.222   8.813  1.00 43.53 LIG-0.08  N 
ATOM     36 HZ3  LYS B   4      -9.295  15.560   8.077  1.00 43.53 LIG 0.27  HD
ATOM     37 HZ1  LYS B   4      -8.873  15.857   9.436  1.00 43.53 LIG 0.27  HD
ATOM     38 HZ2  LYS B   4      -8.110  14.923   8.626  1.00 43.53 LIG 0.27  HD
ENDBRANCH 34 35
ENDBRANCH 33 34
ENDBRANCH 32 33
ENDBRANCH 31 32
ENDBRANCH 1 31
BRANCH 1 39
ATOM     39  N   LYS B   4     -10.614  11.038  12.800  1.00 32.65 LIG-0.35  N 
ATOM     40  C   THR B   3     -10.110  10.061  13.545  1.00 34.58 LIG 0.24  C 
ATOM     41 O    THR B   3      -9.323   9.239  13.104  1.00 36.58 LIG-0.27  OA
ATOM     42 H    LYS B   4     -11.224  11.581  13.069  1.00 32.65 LIG 0.16  HD
BRANCH 40 43
ATOM     43  CA  THR B   3     -10.580   9.982  14.989  1.00 32.52 LIG 0.20  C 
BRANCH 43 44
ATOM     44  CB  THR B   3      -9.371   9.994  15.906  1.00 35.15 LIG 0.15  C 
ATOM     45  CG2 THR B   3      -8.543  11.237  15.663  1.00 35.84 LIG 0.04  C 
BRANCH 44 46
ATOM     46 OG1  THR B   3      -9.824   9.968  17.264  1.00 37.78 LIG-0.39  OA
ATOM     47 HG1  THR B   3      -9.243   9.598  17.746  1.00 37.78 LIG 0.21  HD
ENDBRANCH 44 46
ENDBRANCH 43 44
BRANCH 43 48
ATOM     48  N   THR B   3     -11.390   8.786  15.169  1.00 36.19 LIG-0.34  N 
ATOM     49  C   ARG B   2     -12.673   8.762  14.840  1.00 33.52 LIG 0.24  C 
ATOM     50 O    ARG B   2     -13.293   9.755  14.514  1.00 34.90 LIG-0.27  OA
ATOM     51 H    THR B   3     -10.967   8.115  15.501  1.00 36.19 LIG 0.16  HD
BRANCH 49 52
ATOM     52  CA  ARG B   2     -13.358   7.411  14.855  1.00 37.04 LIG 0.18  C 
BRANCH 52 53
ATOM     53  CB  ARG B   2     -13.668   7.040  13.417  1.00 37.98 LIG 0.04  C 
BRANCH 53 54
ATOM     54  CG  ARG B   2     -12.538   6.359  12.684  1.00 44.54 LIG 0.02  C 
BRANCH 54 55
ATOM     55  CD  ARG B   2     -13.018   4.984  12.326  1.00 45.57 LIG 0.14  C 
BRANCH 55 56
ATOM     56  NE  ARG B   2     -13.800   5.055  11.104  1.00 45.97 LIG-0.23  N 
ATOM     57  CZ  ARG B   2     -14.160   4.003  10.382  1.00 44.90 LIG 0.67  C 
ATOM     58  NH1 ARG B   2     -13.796   2.773  10.742  1.00 46.97 LIG-0.23  N 
ATOM     59  NH2 ARG B   2     -14.867   4.192   9.285  1.00 41.82 LIG-0.23  N 
ATOM     60 2HH1 ARG B   2     -14.035   2.097  10.266  1.00 46.97 LIG 0.17  HD
ATOM     61 1HH1 ARG B   2     -13.322   2.655  11.450  1.00 46.97 LIG 0.17  HD
ATOM     62 2HH2 ARG B   2     -15.107   3.519   8.807  1.00 41.82 LIG 0.17  HD
ATOM     63 1HH2 ARG B   2     -15.087   4.988   9.048  1.00 41.82 LIG 0.17  HD
ATOM     64 HE   ARG B   2     -14.046   5.832  10.830  1.00 45.97 LIG 0.18  HD
ENDBRANCH 55 56
ENDBRANCH 54 55
ENDBRANCH 53 54
ENDBRANCH 52 53
BRANCH 52 65
ATOM     65  N   ARG B   2     -14.572   7.482  15.651  1.00 35.35 LIG-0.35  N 
ATOM     66 H    ARG B   2     -15.302   7.391  15.205  1.00 35.35 LIG 0.16  HD
ATOM     67  C   ALA B   1     -14.518   7.674  16.960  1.00 38.28 LIG 0.25  C 
ATOM     68 O    ALA B   1     -13.453   7.724  17.573  1.00 39.08 LIG-0.27  OA
BRANCH 67 69
ATOM     69  CA  ALA B   1     -15.844   7.807  17.696  1.00 38.95 LIG 0.27  C 
ATOM     70  CB  ALA B   1     -16.759   6.631  17.391  1.00 37.91 LIG 0.05  C 
BRANCH 69 71
ATOM     71  N   ALA B   1     -16.496   9.065  17.335  1.00 44.33 LIG-0.07  N 
ATOM     72 H1   ALA B   1     -16.843   8.995  16.518  1.00 44.33 LIG 0.28  HD
ATOM     73 H2   ALA B   1     -17.145   9.241  17.918  1.00 44.33 LIG 0.28  HD
ATOM     74 H3   ALA B   1     -15.898   9.724  17.348  1.00 44.33 LIG 0.28  HD
ENDBRANCH 69 71
ENDBRANCH 67 69
ENDBRANCH 52 65
ENDBRANCH 49 52
ENDBRANCH 43 48
ENDBRANCH 40 43
ENDBRANCH 1 39
TORSDOF 30
ENDMDL
MODEL 17
USER: ADFR SOLUTION from run 181
USER: SCORE 24.706723 LL:  -6.017 LR: -20.104 RR:   0.000 FEB: -11.155
USER: RMSD 6.126610
USER: SEED 180
USER: STATUS 1 or 2 clusters left
USER: GENES 32
USER: genes 0 Translation |==|  0.68272 0.56783 0.45407
USER: genes 1 Rotation |==|  0.40975 0.49142 0.91340 0.76624
USER: genes 2 Torsion [N]-CA--C-[N] |==|  0.11823
USER: genes 3 Torsion [C]-N--CA-[CB] |==|  0.16457
USER: genes 4 Torsion [N]-CA--CB-[CG] |==|  0.20905
USER: genes 5 Torsion [CA]-CB--CG-[CD] |==|  0.80981
USER: genes 6 Torsion [CB]-CG--CD-[OE1] |==|  0.26943
USER: genes 7 Torsion [N]-CA--C-[N] |==|  0.10439
USER: genes 8 Torsion [C]-N--CA-[CB] |==|  0.79435
USER: genes 9 Torsion [N]-CA--C-[N] |==|  0.08953
USER: genes 10 Torsion [C]-N--CA-[CB] |==|  0.26863
USER: genes 11 Torsion [N]-CA--C-[O] |==|  0.95168
USER: genes 12 Torsion [N]-CA--CB-[CG2] |==|  0.81702
USER: genes 13 Torsion [CA]-CB--OG1-[HG1] |==|  0.69147
USER: genes 14 Torsion [C]-CA--CB-[CG] |==|  0.37410
USER: genes 15 Torsion [CA]-CB--CG-[CD] |==|  0.05583
USER: genes 16 Torsion [CB]-CG--CD-[CE] |==|  0.25710
USER: genes 17 Torsion [CG]-CD--CE-[NZ] |==|  0.54677
USER: genes 18 Torsion [CD]-CE--NZ-[HZ2] |==|  0.78927
USER: genes 19 Torsion [C]-CA--N-[C] |==|  0.68407
USER: genes 20 Torsion [N]-C--CA-[N] |==|  0.09655
USER: genes 21 Torsion [C]-CA--CB-[CG2] |==|  0.54900
USER: genes 22 Torsion [CA]-CB--OG1-[HG1] |==|  0.62691
USER: genes 23 Torsion [C]-CA--N-[C] |==|  0.16102
USER: genes 24 Torsion [N]-C--CA-[N] |==|  0.40210
USER: genes 25 Torsion [C]-CA--CB-[CG] |==|  0.86272
USER: genes 26 Torsion [CA]-CB--CG-[CD] |==|  0.40315
USER: genes 27 Torsion [CB]-CG--CD-[NE] |==|  0.55596
USER: genes 28 Torsion [CG]-CD--NE-[HE] |==|  0.21975
USER: genes 29 Torsion [C]-CA--N-[C] |==|  0.72193
USER: genes 30 Torsion [N]-C--CA-[N] |==|  0.24717
USER: genes 31 Torsion [C]-CA--N-[H2] |==|  0.71447
ROOT
ATOM      1  CA  LYS B   4      -8.084  11.406  12.557  1.00 37.28 LIG 0.18  C 
ENDROOT
BRANCH 1 2
ATOM      2  C   LYS B   4      -8.521  10.492  13.680  1.00 39.57 LIG 0.24  C 
ATOM      3 O    LYS B   4      -7.784  10.255  14.639  1.00 42.15 LIG-0.27  OA
ATOM      4  N   GLN B   5      -9.734   9.981  13.562  1.00 37.54 LIG-0.35  N 
ATOM      5 H    GLN B   5     -10.259  10.108  12.892  1.00 37.54 LIG 0.16  HD
BRANCH 4 6
ATOM      6  CA  GLN B   5     -10.265   9.138  14.612  1.00 44.43 LIG 0.18  C 
BRANCH 6 7
ATOM      7  CB  GLN B   5     -10.316   9.885  15.932  1.00 42.91 LIG 0.04  C 
BRANCH 7 8
ATOM      8  CG  GLN B   5     -11.438  10.864  15.969  1.00 46.61 LIG 0.10  C 
BRANCH 8 9
ATOM      9  CD  GLN B   5     -11.210  11.995  15.030  1.00 50.89 LIG 0.21  C 
ATOM     10  NE2 GLN B   5     -10.431  12.981  15.479  1.00 54.67 LIG-0.37  N 
ATOM     11 21HE GLN B   5     -10.099  12.940  16.271  1.00 54.67 LIG 0.16  HD
ATOM     12 22HE GLN B   5     -10.260  13.657  14.976  1.00 54.67 LIG 0.16  HD
ATOM     13 OE1  GLN B   5     -11.718  11.997  13.898  1.00 48.99 LIG-0.27  OA
ENDBRANCH 8 9
ENDBRANCH 7 8
ENDBRANCH 6 7
BRANCH 6 14
ATOM     14  C   GLN B   5     -11.636   8.583  14.240  1.00 45.34 LIG 0.24  C 
ATOM     15 O    GLN B   5     -12.503   8.439  15.097  1.00 47.84 LIG-0.27  OA
ATOM     16  N   THR B   6     -11.825   8.241  12.971  1.00 44.99 LIG-0.34  N 
ATOM     17 H    THR B   6     -11.224   8.283  12.358  1.00 44.99 LIG 0.16  HD
BRANCH 16 18
ATOM     18  CA  THR B   6     -13.125   7.755  12.532  1.00 47.63 LIG 0.20  C 
BRANCH 18 19
ATOM     19  C   THR B   6     -14.260   8.700  12.932  1.00 49.11 LIG 0.24  C 
ATOM     20 O    THR B   6     -15.381   8.260  13.173  1.00 51.64 LIG-0.27  OA
ATOM     21  N   ALA B   7     -13.972   9.995  12.976  1.00 46.55 LIG-0.35  N 
ATOM     22 H    ALA B   7     -13.185  10.316  12.840  1.00 46.55 LIG 0.16  HD
BRANCH 21 23
ATOM     23  CA  ALA B   7     -14.991  10.997  13.266  1.00 49.58 LIG 0.16  C 
ATOM     24  CB  ALA B   7     -14.967  11.381  14.762  1.00 45.32 LIG 0.04  C 
BRANCH 23 25
ATOM     25  C   ALA B   7     -14.792  12.230  12.377  1.00 53.19 LIG 0.22  C 
ATOM     26 O    ALA B   7     -13.707  12.423  11.796  1.00 57.48 LIG-0.29  OA
ENDBRANCH 23 25
ENDBRANCH 21 23
ENDBRANCH 18 19
BRANCH 18 27
ATOM     27  CB  THR B   6     -13.400   6.309  13.013  1.00 48.13 LIG 0.15  C 
ATOM     28  CG2 THR B   6     -12.432   5.344  12.351  1.00 44.70 LIG 0.04  C 
BRANCH 27 29
ATOM     29 OG1  THR B   6     -13.275   6.228  14.442  1.00 42.78 LIG-0.39  OA
ATOM     30 HG1  THR B   6     -12.597   5.775  14.640  1.00 42.78 LIG 0.21  HD
ENDBRANCH 27 29
ENDBRANCH 18 27
ENDBRANCH 16 18
ENDBRANCH 6 14
ENDBRANCH 4 6
ENDBRANCH 1 2
BRANCH 1 31
ATOM     31  CB  LYS B   4      -6.866  12.205  13.030  1.00 35.55 LIG 0.04  C 
BRANCH 31 32
ATOM     32  CG  LYS B   4      -5.767  12.275  12.046  1.00 39.70 LIG 0.00  C 
BRANCH 32 33
ATOM     33  CD  LYS B   4      -6.291  11.972  10.665  1.00 40.13 LIG 0.03  C 
BRANCH 33 34
ATOM     34  CE  LYS B   4      -6.680  13.245   9.962  1.00 42.33 LIG 0.23  C 
BRANCH 34 35
ATOM     35  NZ  LYS B   4      -7.550  12.981   8.798  1.00 43.53 LIG-0.08  N 
ATOM     36 HZ3  LYS B   4      -8.169  12.382   9.021  1.00 43.53 LIG 0.27  HD
ATOM     37 HZ1  LYS B   4      -7.946  13.737   8.546  1.00 43.53 LIG 0.27  HD
ATOM     38 HZ2  LYS B   4      -7.060  12.665   8.126  1.00 43.53 LIG 0.27  HD
ENDBRANCH 34 35
ENDBRANCH 33 34
ENDBRANCH 32 33
ENDBRANCH 31 32
ENDBRANCH 1 31
BRANCH 1 39
ATOM     39  N   LYS B   4      -9.179  12.292  12.188  1.00 32.65 LIG-0.35  N 
ATOM     40  C   THR B   3      -9.769  12.216  11.001  1.00 34.58 LIG 0.24  C 
ATOM     41 O    THR B   3      -9.365  11.481  10.113  1.00 36.58 LIG-0.27  OA
ATOM     42 H    LYS B   4      -9.400  12.855  12.799  1.00 32.65 LIG 0.16  HD
BRANCH 40 43
ATOM     43  CA  THR B   3     -10.973  13.115  10.770  1.00 32.52 LIG 0.20  C 
BRANCH 43 44
ATOM     44  CB  THR B   3     -11.165  13.316   9.278  1.00 35.15 LIG 0.15  C 
ATOM     45  CG2 THR B   3     -12.050  14.516   9.021  1.00 35.84 LIG 0.04  C 
BRANCH 44 46
ATOM     46 OG1  THR B   3      -9.883  13.518   8.673  1.00 37.78 LIG-0.39  OA
ATOM     47 HG1  THR B   3      -9.923  14.167   8.141  1.00 37.78 LIG 0.21  HD
ENDBRANCH 44 46
ENDBRANCH 43 44
BRANCH 43 48
ATOM     48  N   THR B   3     -10.777  14.376  11.471  1.00 36.19 LIG-0.34  N 
ATOM     49  C   ARG B   2      -9.729  15.149  11.224  1.00 33.52 LIG 0.24  C 
ATOM     50 O    ARG B   2      -8.798  14.803  10.525  1.00 34.90 LIG-0.27  OA
ATOM     51 H    THR B   3     -11.390  14.565  12.043  1.00 36.19 LIG 0.16  HD
BRANCH 49 52
ATOM     52  CA  ARG B   2      -9.744  16.534  11.838  1.00 37.04 LIG 0.18  C 
BRANCH 52 53
ATOM     53  CB  ARG B   2     -10.309  17.487  10.801  1.00 37.98 LIG 0.04  C 
BRANCH 53 54
ATOM     54  CG  ARG B   2      -9.679  17.375   9.433  1.00 44.54 LIG 0.02  C 
BRANCH 54 55
ATOM     55  CD  ARG B   2     -10.765  17.634   8.432  1.00 45.57 LIG 0.14  C 
BRANCH 55 56
ATOM     56  NE  ARG B   2     -10.368  17.088   7.146  1.00 45.97 LIG-0.23  N 
ATOM     57  CZ  ARG B   2      -9.882  17.807   6.144  1.00 44.90 LIG 0.67  C 
ATOM     58  NH1 ARG B   2      -9.741  19.127   6.258  1.00 46.97 LIG-0.23  N 
ATOM     59  NH2 ARG B   2      -9.560  17.201   5.019  1.00 41.82 LIG-0.23  N 
ATOM     60 2HH1 ARG B   2      -9.425  19.584   5.602  1.00 46.97 LIG 0.17  HD
ATOM     61 1HH1 ARG B   2      -9.967  19.522   6.989  1.00 46.97 LIG 0.17  HD
ATOM     62 2HH2 ARG B   2      -9.244  17.655   4.361  1.00 41.82 LIG 0.17  HD
ATOM     63 1HH2 ARG B   2      -9.666  16.351   4.943  1.00 41.82 LIG 0.17  HD
ATOM     64 HE   ARG B   2     -10.454  16.241   7.026  1.00 45.97 LIG 0.18  HD
ENDBRANCH 55 56
ENDBRANCH 54 55
ENDBRANCH 53 54
ENDBRANCH 52 53
BRANCH 52 65
ATOM     65  N   ARG B   2      -8.394  16.918  12.220  1.00 35.35 LIG-0.35  N 
ATOM     66 H    ARG B   2      -7.904  17.202  11.573  1.00 35.35 LIG 0.16  HD
ATOM     67  C   ALA B   1      -7.989  16.822  13.477  1.00 38.28 LIG 0.25  C 
ATOM     68 O    ALA B   1      -8.745  16.484  14.387  1.00 39.08 LIG-0.27  OA
BRANCH 67 69
ATOM     69  CA  ALA B   1      -6.538  17.179  13.766  1.00 38.95 LIG 0.27  C 
ATOM     70  CB  ALA B   1      -5.994  16.359  14.926  1.00 37.91 LIG 0.05  C 
BRANCH 69 71
ATOM     71  N   ALA B   1      -6.418  18.607  14.054  1.00 44.33 LIG-0.07  N 
ATOM     72 H1   ALA B   1      -5.872  18.726  14.747  1.00 44.33 LIG 0.28  HD
ATOM     73 H2   ALA B   1      -6.090  19.028  13.342  1.00 44.33 LIG 0.28  HD
ATOM     74 H3   ALA B   1      -7.221  18.939  14.250  1.00 44.33 LIG 0.28  HD
ENDBRANCH 69 71
ENDBRANCH 67 69
ENDBRANCH 52 65
ENDBRANCH 49 52
ENDBRANCH 43 48
ENDBRANCH 40 43
ENDBRANCH 1 39
TORSDOF 30
ENDMDL
MODEL 18
USER: ADFR SOLUTION from run 154
USER: SCORE 21.194314 LL:  -4.146 LR: -19.968 RR:   0.000 FEB: -11.019
USER: RMSD 9.026719
USER: SEED 153
USER: STATUS no improvement in best in 5 clusters for 5 generations
USER: GENES 32
USER: genes 0 Translation |==|  0.68347 0.64012 0.36706
USER: genes 1 Rotation |==|  0.49313 0.67568 0.77252 0.88056
USER: genes 2 Torsion [N]-CA--C-[N] |==|  0.95488
USER: genes 3 Torsion [C]-N--CA-[CB] |==|  0.52960
USER: genes 4 Torsion [N]-CA--CB-[CG] |==|  0.91393
USER: genes 5 Torsion [CA]-CB--CG-[CD] |==|  0.69016
USER: genes 6 Torsion [CB]-CG--CD-[OE1] |==|  0.09374
USER: genes 7 Torsion [N]-CA--C-[N] |==|  0.28123
USER: genes 8 Torsion [C]-N--CA-[CB] |==|  0.39110
USER: genes 9 Torsion [N]-CA--C-[N] |==|  0.90357
USER: genes 10 Torsion [C]-N--CA-[CB] |==|  0.35863
USER: genes 11 Torsion [N]-CA--C-[O] |==|  0.76805
USER: genes 12 Torsion [N]-CA--CB-[CG2] |==|  0.12972
USER: genes 13 Torsion [CA]-CB--OG1-[HG1] |==|  0.34681
USER: genes 14 Torsion [C]-CA--CB-[CG] |==|  0.04431
USER: genes 15 Torsion [CA]-CB--CG-[CD] |==|  0.69523
USER: genes 16 Torsion [CB]-CG--CD-[CE] |==|  0.29110
USER: genes 17 Torsion [CG]-CD--CE-[NZ] |==|  0.64939
USER: genes 18 Torsion [CD]-CE--NZ-[HZ2] |==|  0.15275
USER: genes 19 Torsion [C]-CA--N-[C] |==|  0.69997
USER: genes 20 Torsion [N]-C--CA-[N] |==|  0.43347
USER: genes 21 Torsion [C]-CA--CB-[CG2] |==|  0.86505
USER: genes 22 Torsion [CA]-CB--OG1-[HG1] |==|  0.16224
USER: genes 23 Torsion [C]-CA--N-[C] |==|  0.63635
USER: genes 24 Torsion [N]-C--CA-[N] |==|  0.63531
USER: genes 25 Torsion [C]-CA--CB-[CG] |==|  0.55664
USER: genes 26 Torsion [CA]-CB--CG-[CD] |==|  0.48008
USER: genes 27 Torsion [CB]-CG--CD-[NE] |==|  0.63178
USER: genes 28 Torsion [CG]-CD--NE-[HE] |==|  0.72552
USER: genes 29 Torsion [C]-CA--N-[C] |==|  0.69964
USER: genes 30 Torsion [N]-C--CA-[N] |==|  0.61623
USER: genes 31 Torsion [C]-CA--N-[H2] |==|  0.65996
ROOT
ATOM      1  CA  LYS B   4      -8.068  12.924  10.404  1.00 37.28 LIG 0.18  C 
ENDROOT
BRANCH 1 2
ATOM      2  C   LYS B   4      -8.127  12.767  11.907  1.00 39.57 LIG 0.24  C 
ATOM      3 O    LYS B   4      -8.219  11.655  12.433  1.00 42.15 LIG-0.27  OA
ATOM      4  N   GLN B   5      -8.065  13.889  12.602  1.00 37.54 LIG-0.35  N 
ATOM      5 H    GLN B   5      -8.026  14.678  12.262  1.00 37.54 LIG 0.16  HD
BRANCH 4 6
ATOM      6  CA  GLN B   5      -8.057  13.839  14.049  1.00 44.43 LIG 0.18  C 
BRANCH 6 7
ATOM      7  CB  GLN B   5      -8.245  15.225  14.640  1.00 42.91 LIG 0.04  C 
BRANCH 7 8
ATOM      8  CG  GLN B   5      -7.669  16.281  13.761  1.00 46.61 LIG 0.10  C 
BRANCH 8 9
ATOM      9  CD  GLN B   5      -6.475  16.918  14.378  1.00 50.89 LIG 0.21  C 
ATOM     10  NE2 GLN B   5      -6.305  18.216  14.121  1.00 54.67 LIG-0.37  N 
ATOM     11 21HE GLN B   5      -6.866  18.632  13.619  1.00 54.67 LIG 0.16  HD
ATOM     12 22HE GLN B   5      -5.635  18.637  14.457  1.00 54.67 LIG 0.16  HD
ATOM     13 OE1  GLN B   5      -5.701  16.264  15.094  1.00 48.99 LIG-0.27  OA
ENDBRANCH 8 9
ENDBRANCH 7 8
ENDBRANCH 6 7
BRANCH 6 14
ATOM     14  C   GLN B   5      -9.108  12.868  14.578  1.00 45.34 LIG 0.24  C 
ATOM     15 O    GLN B   5     -10.285  13.207  14.658  1.00 47.84 LIG-0.27  OA
ATOM     16  N   THR B   6      -8.682  11.673  14.970  1.00 44.99 LIG-0.34  N 
ATOM     17 H    THR B   6      -7.860  11.424  14.974  1.00 44.99 LIG 0.16  HD
BRANCH 16 18
ATOM     18  CA  THR B   6      -9.635  10.676  15.436  1.00 47.63 LIG 0.20  C 
BRANCH 18 19
ATOM     19  C   THR B   6      -9.814  10.715  16.955  1.00 49.11 LIG 0.24  C 
ATOM     20 O    THR B   6     -10.914  10.499  17.459  1.00 51.64 LIG-0.27  OA
ATOM     21  N   ALA B   7      -8.741  11.016  17.676  1.00 46.55 LIG-0.35  N 
ATOM     22 H    ALA B   7      -7.958  11.140  17.342  1.00 46.55 LIG 0.16  HD
BRANCH 21 23
ATOM     23  CA  ALA B   7      -8.808  11.162  19.126  1.00 49.58 LIG 0.16  C 
ATOM     24  CB  ALA B   7      -7.716  10.311  19.810  1.00 45.32 LIG 0.04  C 
BRANCH 23 25
ATOM     25  C   ALA B   7      -8.682  12.639  19.517  1.00 53.19 LIG 0.22  C 
ATOM     26 O    ALA B   7      -7.562  13.173  19.621  1.00 57.48 LIG-0.29  OA
ENDBRANCH 23 25
ENDBRANCH 21 23
ENDBRANCH 18 19
BRANCH 18 27
ATOM     27  CB  THR B   6      -9.274   9.251  14.949  1.00 48.13 LIG 0.15  C 
ATOM     28  CG2 THR B   6      -7.796   8.980  15.174  1.00 44.70 LIG 0.04  C 
BRANCH 27 29
ATOM     29 OG1  THR B   6     -10.065   8.272  15.643  1.00 42.78 LIG-0.39  OA
ATOM     30 HG1  THR B   6     -10.471   7.793  15.085  1.00 42.78 LIG 0.21  HD
ENDBRANCH 27 29
ENDBRANCH 18 27
ENDBRANCH 16 18
ENDBRANCH 6 14
ENDBRANCH 4 6
ENDBRANCH 1 2
BRANCH 1 31
ATOM     31  CB  LYS B   4      -6.680  12.491   9.926  1.00 35.55 LIG 0.04  C 
BRANCH 31 32
ATOM     32  CG  LYS B   4      -5.914  11.708  10.917  1.00 39.70 LIG 0.00  C 
BRANCH 32 33
ATOM     33  CD  LYS B   4      -4.763  12.527  11.444  1.00 40.13 LIG 0.03  C 
BRANCH 33 34
ATOM     34  CE  LYS B   4      -5.063  13.017  12.835  1.00 42.33 LIG 0.23  C 
BRANCH 34 35
ATOM     35  NZ  LYS B   4      -4.909  14.482  12.941  1.00 43.53 LIG-0.08  N 
ATOM     36 HZ3  LYS B   4      -5.162  14.749  13.752  1.00 43.53 LIG 0.27  HD
ATOM     37 HZ1  LYS B   4      -4.057  14.702  12.809  1.00 43.53 LIG 0.27  HD
ATOM     38 HZ2  LYS B   4      -5.415  14.880  12.327  1.00 43.53 LIG 0.27  HD
ENDBRANCH 34 35
ENDBRANCH 33 34
ENDBRANCH 32 33
ENDBRANCH 31 32
ENDBRANCH 1 31
BRANCH 1 39
ATOM     39  N   LYS B   4      -8.337  14.308  10.042  1.00 32.65 LIG-0.35  N 
ATOM     40  C   THR B   3      -9.477  14.672   9.467  1.00 34.58 LIG 0.24  C 
ATOM     41 O    THR B   3     -10.318  13.862   9.108  1.00 36.58 LIG-0.27  OA
ATOM     42 H    LYS B   4      -7.701  14.855  10.233  1.00 32.65 LIG 0.16  HD
BRANCH 40 43
ATOM     43  CA  THR B   3      -9.692  16.159   9.237  1.00 32.52 LIG 0.20  C 
BRANCH 43 44
ATOM     44  CB  THR B   3     -10.172  16.797  10.528  1.00 35.15 LIG 0.15  C 
ATOM     45  CG2 THR B   3     -11.309  15.992  11.118  1.00 35.84 LIG 0.04  C 
BRANCH 44 46
ATOM     46 OG1  THR B   3      -9.079  16.845  11.451  1.00 37.78 LIG-0.39  OA
ATOM     47 HG1  THR B   3      -8.446  17.282  11.114  1.00 37.78 LIG 0.21  HD
ENDBRANCH 44 46
ENDBRANCH 43 44
BRANCH 43 48
ATOM     48  N   THR B   3     -10.640  16.349   8.148  1.00 36.19 LIG-0.34  N 
ATOM     49  C   ARG B   2     -10.388  17.180   7.147  1.00 33.52 LIG 0.24  C 
ATOM     50 O    ARG B   2      -9.441  17.940   7.139  1.00 34.90 LIG-0.27  OA
ATOM     51 H    THR B   3     -11.359  15.883   8.217  1.00 36.19 LIG 0.16  HD
BRANCH 49 52
ATOM     52  CA  ARG B   2     -11.332  17.128   5.963  1.00 37.04 LIG 0.18  C 
BRANCH 52 53
ATOM     53  CB  ARG B   2     -12.218  15.910   6.139  1.00 37.98 LIG 0.04  C 
BRANCH 53 54
ATOM     54  CG  ARG B   2     -12.872  15.419   4.870  1.00 44.54 LIG 0.02  C 
BRANCH 54 55
ATOM     55  CD  ARG B   2     -13.552  14.124   5.204  1.00 45.57 LIG 0.14  C 
BRANCH 55 56
ATOM     56  NE  ARG B   2     -13.218  13.136   4.192  1.00 45.97 LIG-0.23  N 
ATOM     57  CZ  ARG B   2     -12.092  12.437   4.170  1.00 44.90 LIG 0.67  C 
ATOM     58  NH1 ARG B   2     -11.158  12.622   5.101  1.00 46.97 LIG-0.23  N 
ATOM     59  NH2 ARG B   2     -11.897  11.570   3.196  1.00 41.82 LIG-0.23  N 
ATOM     60 2HH1 ARG B   2     -10.430  12.163   5.077  1.00 46.97 LIG 0.17  HD
ATOM     61 1HH1 ARG B   2     -11.282  13.200   5.726  1.00 46.97 LIG 0.17  HD
ATOM     62 2HH2 ARG B   2     -11.171  11.111   3.169  1.00 41.82 LIG 0.17  HD
ATOM     63 1HH2 ARG B   2     -12.496  11.465   2.588  1.00 41.82 LIG 0.17  HD
ATOM     64 HE   ARG B   2     -13.790  12.995   3.566  1.00 45.97 LIG 0.18  HD
ENDBRANCH 55 56
ENDBRANCH 54 55
ENDBRANCH 53 54
ENDBRANCH 52 53
BRANCH 52 65
ATOM     65  N   ARG B   2     -10.569  17.047   4.728  1.00 35.35 LIG-0.35  N 
ATOM     66 H    ARG B   2     -10.185  16.290   4.591  1.00 35.35 LIG 0.16  HD
ATOM     67  C   ALA B   1     -10.495  18.081   3.904  1.00 38.28 LIG 0.25  C 
ATOM     68 O    ALA B   1     -11.122  19.121   4.098  1.00 39.08 LIG-0.27  OA
BRANCH 67 69
ATOM     69  CA  ALA B   1      -9.614  17.923   2.673  1.00 38.95 LIG 0.27  C 
ATOM     70  CB  ALA B   1      -8.679  16.732   2.818  1.00 37.91 LIG 0.05  C 
BRANCH 69 71
ATOM     71  N   ALA B   1      -8.846  19.146   2.444  1.00 44.33 LIG-0.07  N 
ATOM     72 H1   ALA B   1      -7.976  18.968   2.511  1.00 44.33 LIG 0.28  HD
ATOM     73 H2   ALA B   1      -9.022  19.459   1.630  1.00 44.33 LIG 0.28  HD
ATOM     74 H3   ALA B   1      -9.071  19.756   3.052  1.00 44.33 LIG 0.28  HD
ENDBRANCH 69 71
ENDBRANCH 67 69
ENDBRANCH 52 65
ENDBRANCH 49 52
ENDBRANCH 43 48
ENDBRANCH 40 43
ENDBRANCH 1 39
TORSDOF 30
ENDMDL
MODEL 19
USER: ADFR SOLUTION from run 72
USER: SCORE 20.810271 LL:  -3.819 LR: -19.957 RR:   0.000 FEB: -11.008
USER: RMSD 9.449722
USER: SEED 71
USER: STATUS searching
USER: GENES 32
USER: genes 0 Translation |==|  0.74853 0.58876 0.43077
USER: genes 1 Rotation |==|  0.43389 0.86005 0.84000 0.51973
USER: genes 2 Torsion [N]-CA--C-[N] |==|  0.02420
USER: genes 3 Torsion [C]-N--CA-[CB] |==|  0.26828
USER: genes 4 Torsion [N]-CA--CB-[CG] |==|  0.16863
USER: genes 5 Torsion [CA]-CB--CG-[CD] |==|  0.35177
USER: genes 6 Torsion [CB]-CG--CD-[OE1] |==|  0.57721
USER: genes 7 Torsion [N]-CA--C-[N] |==|  0.33966
USER: genes 8 Torsion [C]-N--CA-[CB] |==|  0.19604
USER: genes 9 Torsion [N]-CA--C-[N] |==|  0.78901
USER: genes 10 Torsion [C]-N--CA-[CB] |==|  0.13645
USER: genes 11 Torsion [N]-CA--C-[O] |==|  0.90175
USER: genes 12 Torsion [N]-CA--CB-[CG2] |==|  0.48713
USER: genes 13 Torsion [CA]-CB--OG1-[HG1] |==|  0.47032
USER: genes 14 Torsion [C]-CA--CB-[CG] |==|  0.86198
USER: genes 15 Torsion [CA]-CB--CG-[CD] |==|  0.75568
USER: genes 16 Torsion [CB]-CG--CD-[CE] |==|  0.38959
USER: genes 17 Torsion [CG]-CD--CE-[NZ] |==|  0.25702
USER: genes 18 Torsion [CD]-CE--NZ-[HZ2] |==|  0.51735
USER: genes 19 Torsion [C]-CA--N-[C] |==|  0.69626
USER: genes 20 Torsion [N]-C--CA-[N] |==|  0.03558
USER: genes 21 Torsion [C]-CA--CB-[CG2] |==|  0.23926
USER: genes 22 Torsion [CA]-CB--OG1-[HG1] |==|  0.74761
USER: genes 23 Torsion [C]-CA--N-[C] |==|  0.15836
USER: genes 24 Torsion [N]-C--CA-[N] |==|  0.52418
USER: genes 25 Torsion [C]-CA--CB-[CG] |==|  0.80767
USER: genes 26 Torsion [CA]-CB--CG-[CD] |==|  0.70028
USER: genes 27 Torsion [CB]-CG--CD-[NE] |==|  0.43175
USER: genes 28 Torsion [CG]-CD--NE-[HE] |==|  0.18258
USER: genes 29 Torsion [C]-CA--N-[C] |==|  0.54083
USER: genes 30 Torsion [N]-C--CA-[N] |==|  0.57242
USER: genes 31 Torsion [C]-CA--N-[H2] |==|  0.71299
ROOT
ATOM      1  CA  LYS B   4      -6.702  11.846  11.981  1.00 37.28 LIG 0.18  C 
ENDROOT
BRANCH 1 2
ATOM      2  C   LYS B   4      -6.031  13.026  12.648  1.00 39.57 LIG 0.24  C 
ATOM      3 O    LYS B   4      -4.865  13.332  12.388  1.00 42.15 LIG-0.27  OA
ATOM      4  N   GLN B   5      -6.776  13.697  13.507  1.00 37.54 LIG-0.35  N 
ATOM      5 H    GLN B   5      -7.582  13.491  13.726  1.00 37.54 LIG 0.16  HD
BRANCH 4 6
ATOM      6  CA  GLN B   5      -6.243  14.876  14.156  1.00 44.43 LIG 0.18  C 
BRANCH 6 7
ATOM      7  CB  GLN B   5      -6.673  16.137  13.428  1.00 42.91 LIG 0.04  C 
BRANCH 7 8
ATOM      8  CG  GLN B   5      -8.156  16.283  13.410  1.00 46.61 LIG 0.10  C 
BRANCH 8 9
ATOM      9  CD  GLN B   5      -8.583  17.607  13.935  1.00 50.89 LIG 0.21  C 
ATOM     10  NE2 GLN B   5      -7.713  18.607  13.781  1.00 54.67 LIG-0.37  N 
ATOM     11 21HE GLN B   5      -6.955  18.463  13.402  1.00 54.67 LIG 0.16  HD
ATOM     12 22HE GLN B   5      -7.911  19.396  14.061  1.00 54.67 LIG 0.16  HD
ATOM     13 OE1  GLN B   5      -9.692  17.753  14.474  1.00 48.99 LIG-0.27  OA
ENDBRANCH 8 9
ENDBRANCH 7 8
ENDBRANCH 6 7
BRANCH 6 14
ATOM     14  C   GLN B   5      -6.637  14.928  15.628  1.00 45.34 LIG 0.24  C 
ATOM     15 O    GLN B   5      -7.819  14.945  15.956  1.00 47.84 LIG-0.27  OA
ATOM     16  N   THR B   6      -5.650  14.986  16.515  1.00 44.99 LIG-0.34  N 
ATOM     17 H    THR B   6      -4.815  15.026  16.316  1.00 44.99 LIG 0.16  HD
BRANCH 16 18
ATOM     18  CA  THR B   6      -5.949  14.984  17.940  1.00 47.63 LIG 0.20  C 
BRANCH 18 19
ATOM     19  C   THR B   6      -4.761  15.459  18.779  1.00 49.11 LIG 0.24  C 
ATOM     20 O    THR B   6      -4.742  16.596  19.246  1.00 51.64 LIG-0.27  OA
ATOM     21  N   ALA B   7      -3.764  14.598  18.944  1.00 46.55 LIG-0.35  N 
ATOM     22 H    ALA B   7      -3.774  13.790  18.650  1.00 46.55 LIG 0.16  HD
BRANCH 21 23
ATOM     23  CA  ALA B   7      -2.544  14.965  19.656  1.00 49.58 LIG 0.16  C 
ATOM     24  CB  ALA B   7      -2.881  15.634  21.006  1.00 45.32 LIG 0.04  C 
BRANCH 23 25
ATOM     25  C   ALA B   7      -1.655  13.733  19.857  1.00 53.19 LIG 0.22  C 
ATOM     26 O    ALA B   7      -2.162  12.615  20.069  1.00 57.48 LIG-0.29  OA
ENDBRANCH 23 25
ENDBRANCH 21 23
ENDBRANCH 18 19
BRANCH 18 27
ATOM     27  CB  THR B   6      -6.467  13.609  18.426  1.00 48.13 LIG 0.15  C 
ATOM     28  CG2 THR B   6      -6.655  13.623  19.933  1.00 44.70 LIG 0.04  C 
BRANCH 27 29
ATOM     29 OG1  THR B   6      -7.709  13.287  17.778  1.00 42.78 LIG-0.39  OA
ATOM     30 HG1  THR B   6      -7.907  12.486  17.933  1.00 42.78 LIG 0.21  HD
ENDBRANCH 27 29
ENDBRANCH 18 27
ENDBRANCH 16 18
ENDBRANCH 6 14
ENDBRANCH 4 6
ENDBRANCH 1 2
BRANCH 1 31
ATOM     31  CB  LYS B   4      -6.478  11.953  10.470  1.00 35.55 LIG 0.04  C 
BRANCH 31 32
ATOM     32  CG  LYS B   4      -6.806  13.275   9.900  1.00 39.70 LIG 0.00  C 
BRANCH 32 33
ATOM     33  CD  LYS B   4      -8.265  13.327   9.520  1.00 40.13 LIG 0.03  C 
BRANCH 33 34
ATOM     34  CE  LYS B   4      -8.849  14.669   9.866  1.00 42.33 LIG 0.23  C 
BRANCH 34 35
ATOM     35  NZ  LYS B   4      -8.774  15.607   8.728  1.00 43.53 LIG-0.08  N 
ATOM     36 HZ3  LYS B   4      -7.935  15.653   8.437  1.00 43.53 LIG 0.27  HD
ATOM     37 HZ1  LYS B   4      -9.301  15.319   8.071  1.00 43.53 LIG 0.27  HD
ATOM     38 HZ2  LYS B   4      -9.042  16.414   8.990  1.00 43.53 LIG 0.27  HD
ENDBRANCH 34 35
ENDBRANCH 33 34
ENDBRANCH 32 33
ENDBRANCH 31 32
ENDBRANCH 1 31
BRANCH 1 39
ATOM     39  N   LYS B   4      -8.122  11.841  12.300  1.00 32.65 LIG-0.35  N 
ATOM     40  C   THR B   3      -8.654  10.932  13.109  1.00 34.58 LIG 0.24  C 
ATOM     41 O    THR B   3      -8.014   9.987  13.544  1.00 36.58 LIG-0.27  OA
ATOM     42 H    LYS B   4      -8.572  12.470  11.923  1.00 32.65 LIG 0.16  HD
BRANCH 40 43
ATOM     43  CA  THR B   3     -10.125  11.094  13.458  1.00 32.52 LIG 0.20  C 
BRANCH 43 44
ATOM     44  CB  THR B   3     -10.810   9.743  13.361  1.00 35.15 LIG 0.15  C 
ATOM     45  CG2 THR B   3     -10.667   8.989  14.665  1.00 35.84 LIG 0.04  C 
BRANCH 44 46
ATOM     46 OG1  THR B   3     -12.196   9.951  13.068  1.00 37.78 LIG-0.39  OA
ATOM     47 HG1  THR B   3     -12.629  10.005  13.785  1.00 37.78 LIG 0.21  HD
ENDBRANCH 44 46
ENDBRANCH 43 44
BRANCH 43 48
ATOM     48  N   THR B   3     -10.727  12.077  12.569  1.00 36.19 LIG-0.34  N 
ATOM     49  C   ARG B   2     -10.694  11.934  11.253  1.00 33.52 LIG 0.24  C 
ATOM     50 O    ARG B   2     -10.043  11.073  10.695  1.00 34.90 LIG-0.27  OA
ATOM     51 H    THR B   3     -11.097  12.741  12.971  1.00 36.19 LIG 0.16  HD
BRANCH 49 52
ATOM     52  CA  ARG B   2     -11.543  12.890  10.440  1.00 37.04 LIG 0.18  C 
BRANCH 52 53
ATOM     53  CB  ARG B   2     -12.940  12.872  11.029  1.00 37.98 LIG 0.04  C 
BRANCH 53 54
ATOM     54  CG  ARG B   2     -13.698  11.583  10.817  1.00 44.54 LIG 0.02  C 
BRANCH 54 55
ATOM     55  CD  ARG B   2     -14.762  11.868   9.799  1.00 45.57 LIG 0.14  C 
BRANCH 55 56
ATOM     56  NE  ARG B   2     -15.125  10.629   9.131  1.00 45.97 LIG-0.23  N 
ATOM     57  CZ  ARG B   2     -14.910  10.380   7.846  1.00 44.90 LIG 0.67  C 
ATOM     58  NH1 ARG B   2     -14.341  11.293   7.061  1.00 46.97 LIG-0.23  N 
ATOM     59  NH2 ARG B   2     -15.288   9.220   7.348  1.00 41.82 LIG-0.23  N 
ATOM     60 2HH1 ARG B   2     -14.206  11.121   6.229  1.00 46.97 LIG 0.17  HD
ATOM     61 1HH1 ARG B   2     -14.109  12.056   7.386  1.00 46.97 LIG 0.17  HD
ATOM     62 2HH2 ARG B   2     -15.155   9.045   6.518  1.00 41.82 LIG 0.17  HD
ATOM     63 1HH2 ARG B   2     -15.669   8.638   7.855  1.00 41.82 LIG 0.17  HD
ATOM     64 HE   ARG B   2     -15.505  10.017   9.600  1.00 45.97 LIG 0.18  HD
ENDBRANCH 55 56
ENDBRANCH 54 55
ENDBRANCH 53 54
ENDBRANCH 52 53
BRANCH 52 65
ATOM     65  N   ARG B   2     -11.557  12.473   9.047  1.00 35.35 LIG-0.35  N 
ATOM     66 H    ARG B   2     -11.273  11.674   8.907  1.00 35.35 LIG 0.16  HD
ATOM     67  C   ALA B   1     -11.982  13.291   8.096  1.00 38.28 LIG 0.25  C 
ATOM     68 O    ALA B   1     -12.453  14.400   8.345  1.00 39.08 LIG-0.27  OA
BRANCH 67 69
ATOM     69  CA  ALA B   1     -11.891  12.791   6.661  1.00 38.95 LIG 0.27  C 
ATOM     70  CB  ALA B   1     -10.705  11.855   6.482  1.00 37.91 LIG 0.05  C 
BRANCH 69 71
ATOM     71  N   ALA B   1     -11.789  13.921   5.740  1.00 44.33 LIG-0.07  N 
ATOM     72 H1   ALA B   1     -11.172  13.747   5.123  1.00 44.33 LIG 0.28  HD
ATOM     73 H2   ALA B   1     -12.575  14.053   5.343  1.00 44.33 LIG 0.28  HD
ATOM     74 H3   ALA B   1     -11.559  14.653   6.191  1.00 44.33 LIG 0.28  HD
ENDBRANCH 69 71
ENDBRANCH 67 69
ENDBRANCH 52 65
ENDBRANCH 49 52
ENDBRANCH 43 48
ENDBRANCH 40 43
ENDBRANCH 1 39
TORSDOF 30
ENDMDL
MODEL 20
USER: ADFR SOLUTION from run 51
USER: SCORE 22.741656 LL:  -5.241 LR: -19.940 RR:   0.000 FEB: -10.991
USER: RMSD 7.997613
USER: SEED 50
USER: STATUS no improvement in best in 9 clusters for 5 generations
USER: GENES 32
USER: genes 0 Translation |==|  0.63561 0.62157 0.35889
USER: genes 1 Rotation |==|  0.45066 0.48210 0.95649 0.69714
USER: genes 2 Torsion [N]-CA--C-[N] |==|  0.01233
USER: genes 3 Torsion [C]-N--CA-[CB] |==|  0.21443
USER: genes 4 Torsion [N]-CA--CB-[CG] |==|  0.68697
USER: genes 5 Torsion [CA]-CB--CG-[CD] |==|  0.80427
USER: genes 6 Torsion [CB]-CG--CD-[OE1] |==|  0.42886
USER: genes 7 Torsion [N]-CA--C-[N] |==|  0.39467
USER: genes 8 Torsion [C]-N--CA-[CB] |==|  0.44404
USER: genes 9 Torsion [N]-CA--C-[N] |==|  0.89645
USER: genes 10 Torsion [C]-N--CA-[CB] |==|  0.23719
USER: genes 11 Torsion [N]-CA--C-[O] |==|  0.01955
USER: genes 12 Torsion [N]-CA--CB-[CG2] |==|  0.52516
USER: genes 13 Torsion [CA]-CB--OG1-[HG1] |==|  0.19351
USER: genes 14 Torsion [C]-CA--CB-[CG] |==|  0.24357
USER: genes 15 Torsion [CA]-CB--CG-[CD] |==|  0.55797
USER: genes 16 Torsion [CB]-CG--CD-[CE] |==|  0.18503
USER: genes 17 Torsion [CG]-CD--CE-[NZ] |==|  0.54498
USER: genes 18 Torsion [CD]-CE--NZ-[HZ2] |==|  0.83204
USER: genes 19 Torsion [C]-CA--N-[C] |==|  0.68891
USER: genes 20 Torsion [N]-C--CA-[N] |==|  0.39825
USER: genes 21 Torsion [C]-CA--CB-[CG2] |==|  0.31400
USER: genes 22 Torsion [CA]-CB--OG1-[HG1] |==|  0.51545
USER: genes 23 Torsion [C]-CA--N-[C] |==|  0.80564
USER: genes 24 Torsion [N]-C--CA-[N] |==|  0.04907
USER: genes 25 Torsion [C]-CA--CB-[CG] |==|  0.33259
USER: genes 26 Torsion [CA]-CB--CG-[CD] |==|  0.72291
USER: genes 27 Torsion [CB]-CG--CD-[NE] |==|  0.15509
USER: genes 28 Torsion [CG]-CD--NE-[HE] |==|  0.00967
USER: genes 29 Torsion [C]-CA--N-[C] |==|  0.73256
USER: genes 30 Torsion [N]-C--CA-[N] |==|  0.76647
USER: genes 31 Torsion [C]-CA--N-[H2] |==|  0.20081
ROOT
ATOM      1  CA  LYS B   4      -9.073  12.535  10.202  1.00 37.28 LIG 0.18  C 
ENDROOT
BRANCH 1 2
ATOM      2  C   LYS B   4      -9.021  11.482  11.286  1.00 39.57 LIG 0.24  C 
ATOM      3 O    LYS B   4      -7.952  10.987  11.649  1.00 42.15 LIG-0.27  OA
ATOM      4  N   GLN B   5     -10.185  11.146  11.814  1.00 37.54 LIG-0.35  N 
ATOM      5 H    GLN B   5     -10.947  11.457  11.563  1.00 37.54 LIG 0.16  HD
BRANCH 4 6
ATOM      6  CA  GLN B   5     -10.234  10.189  12.898  1.00 44.43 LIG 0.18  C 
BRANCH 6 7
ATOM      7  CB  GLN B   5      -9.822  10.833  14.209  1.00 42.91 LIG 0.04  C 
BRANCH 7 8
ATOM      8  CG  GLN B   5      -8.532  10.283  14.711  1.00 46.61 LIG 0.10  C 
BRANCH 8 9
ATOM      9  CD  GLN B   5      -8.679   8.881  15.184  1.00 50.89 LIG 0.21  C 
ATOM     10  NE2 GLN B   5      -9.901   8.522  15.581  1.00 54.67 LIG-0.37  N 
ATOM     11 21HE GLN B   5     -10.544   9.091  15.560  1.00 54.67 LIG 0.16  HD
ATOM     12 22HE GLN B   5     -10.044   7.721  15.859  1.00 54.67 LIG 0.16  HD
ATOM     13 OE1  GLN B   5      -7.710   8.105  15.191  1.00 48.99 LIG-0.27  OA
ENDBRANCH 8 9
ENDBRANCH 7 8
ENDBRANCH 6 7
BRANCH 6 14
ATOM     14  C   GLN B   5     -11.613   9.545  13.010  1.00 45.34 LIG 0.24  C 
ATOM     15 O    GLN B   5     -12.628  10.213  12.843  1.00 47.84 LIG-0.27  OA
ATOM     16  N   THR B   6     -11.652   8.255  13.322  1.00 44.99 LIG-0.34  N 
ATOM     17 H    THR B   6     -10.962   7.771  13.494  1.00 44.99 LIG 0.16  HD
BRANCH 16 18
ATOM     18  CA  THR B   6     -12.929   7.560  13.394  1.00 47.63 LIG 0.20  C 
BRANCH 18 19
ATOM     19  C   THR B   6     -13.721   7.937  14.647  1.00 49.11 LIG 0.24  C 
ATOM     20 O    THR B   6     -14.941   8.075  14.596  1.00 51.64 LIG-0.27  OA
ATOM     21  N   ALA B   7     -13.023   8.128  15.761  1.00 46.55 LIG-0.35  N 
ATOM     22 H    ALA B   7     -12.174   8.007  15.821  1.00 46.55 LIG 0.16  HD
BRANCH 21 23
ATOM     23  CA  ALA B   7     -13.659   8.569  16.997  1.00 49.58 LIG 0.16  C 
ATOM     24  CB  ALA B   7     -14.222   7.363  17.780  1.00 45.32 LIG 0.04  C 
BRANCH 23 25
ATOM     25  C   ALA B   7     -12.665   9.366  17.851  1.00 53.19 LIG 0.22  C 
ATOM     26 O    ALA B   7     -11.544   9.667  17.400  1.00 57.48 LIG-0.29  OA
ENDBRANCH 23 25
ENDBRANCH 21 23
ENDBRANCH 18 19
BRANCH 18 27
ATOM     27  CB  THR B   6     -12.766   6.025  13.272  1.00 48.13 LIG 0.15  C 
ATOM     28  CG2 THR B   6     -14.126   5.364  13.128  1.00 44.70 LIG 0.04  C 
BRANCH 27 29
ATOM     29 OG1  THR B   6     -11.939   5.701  12.142  1.00 42.78 LIG-0.39  OA
ATOM     30 HG1  THR B   6     -11.148   5.935  12.297  1.00 42.78 LIG 0.21  HD
ENDBRANCH 27 29
ENDBRANCH 18 27
ENDBRANCH 16 18
ENDBRANCH 6 14
ENDBRANCH 4 6
ENDBRANCH 1 2
BRANCH 1 31
ATOM     31  CB  LYS B   4      -8.119  13.670  10.582  1.00 35.55 LIG 0.04  C 
BRANCH 31 32
ATOM     32  CG  LYS B   4      -6.727  13.471  10.126  1.00 39.70 LIG 0.00  C 
BRANCH 32 33
ATOM     33  CD  LYS B   4      -5.790  14.322  10.945  1.00 40.13 LIG 0.03  C 
BRANCH 33 34
ATOM     34  CE  LYS B   4      -5.759  13.844  12.371  1.00 42.33 LIG 0.23  C 
BRANCH 34 35
ATOM     35  NZ  LYS B   4      -5.173  14.856  13.273  1.00 43.53 LIG-0.08  N 
ATOM     36 HZ3  LYS B   4      -5.653  15.603  13.232  1.00 43.53 LIG 0.27  HD
ATOM     37 HZ1  LYS B   4      -5.175  14.546  14.108  1.00 43.53 LIG 0.27  HD
ATOM     38 HZ2  LYS B   4      -4.336  15.027  13.023  1.00 43.53 LIG 0.27  HD
ENDBRANCH 34 35
ENDBRANCH 33 34
ENDBRANCH 32 33
ENDBRANCH 31 32
ENDBRANCH 1 31
BRANCH 1 39
ATOM     39  N   LYS B   4     -10.436  13.025  10.055  1.00 32.65 LIG-0.35  N 
ATOM     40  C   THR B   3     -11.154  12.778   8.966  1.00 34.58 LIG 0.24  C 
ATOM     41 O    THR B   3     -10.686  12.225   7.983  1.00 36.58 LIG-0.27  OA
ATOM     42 H    LYS B   4     -10.723  13.479  10.727  1.00 32.65 LIG 0.16  HD
BRANCH 40 43
ATOM     43  CA  THR B   3     -12.601  13.245   8.973  1.00 32.52 LIG 0.20  C 
BRANCH 43 44
ATOM     44  CB  THR B   3     -13.488  12.105   9.439  1.00 35.15 LIG 0.15  C 
ATOM     45  CG2 THR B   3     -14.106  12.438  10.780  1.00 35.84 LIG 0.04  C 
BRANCH 44 46
ATOM     46 OG1  THR B   3     -14.518  11.896   8.467  1.00 37.78 LIG-0.39  OA
ATOM     47 HG1  THR B   3     -15.059  11.319   8.751  1.00 37.78 LIG 0.21  HD
ENDBRANCH 44 46
ENDBRANCH 43 44
BRANCH 43 48
ATOM     48  N   THR B   3     -12.966  13.711   7.642  1.00 36.19 LIG-0.34  N 
ATOM     49  C   ARG B   2     -12.466  14.831   7.140  1.00 33.52 LIG 0.24  C 
ATOM     50 O    ARG B   2     -11.802  15.612   7.792  1.00 34.90 LIG-0.27  OA
ATOM     51 H    THR B   3     -13.521  13.203   7.226  1.00 36.19 LIG 0.16  HD
BRANCH 49 52
ATOM     52  CA  ARG B   2     -12.733  15.100   5.673  1.00 37.04 LIG 0.18  C 
BRANCH 52 53
ATOM     53  CB  ARG B   2     -13.061  16.574   5.532  1.00 37.98 LIG 0.04  C 
BRANCH 53 54
ATOM     54  CG  ARG B   2     -12.122  17.346   4.637  1.00 44.54 LIG 0.02  C 
BRANCH 54 55
ATOM     55  CD  ARG B   2     -11.156  18.061   5.534  1.00 45.57 LIG 0.14  C 
BRANCH 55 56
ATOM     56  NE  ARG B   2     -10.501  17.093   6.398  1.00 45.97 LIG-0.23  N 
ATOM     57  CZ  ARG B   2      -9.638  17.405   7.354  1.00 44.90 LIG 0.67  C 
ATOM     58  NH1 ARG B   2      -9.295  18.672   7.575  1.00 46.97 LIG-0.23  N 
ATOM     59  NH2 ARG B   2      -9.103  16.437   8.072  1.00 41.82 LIG-0.23  N 
ATOM     60 2HH1 ARG B   2      -8.733  18.864   8.198  1.00 46.97 LIG 0.17  HD
ATOM     61 1HH1 ARG B   2      -9.634  19.300   7.094  1.00 46.97 LIG 0.17  HD
ATOM     62 2HH2 ARG B   2      -8.541  16.625   8.695  1.00 41.82 LIG 0.17  HD
ATOM     63 1HH2 ARG B   2      -9.315  15.619   7.917  1.00 41.82 LIG 0.17  HD
ATOM     64 HE   ARG B   2     -10.687  16.261   6.280  1.00 45.97 LIG 0.18  HD
ENDBRANCH 55 56
ENDBRANCH 54 55
ENDBRANCH 53 54
ENDBRANCH 52 53
BRANCH 52 65
ATOM     65  N   ARG B   2     -13.835  14.271   5.213  1.00 35.35 LIG-0.35  N 
ATOM     66 H    ARG B   2     -14.617  14.592   5.371  1.00 35.35 LIG 0.16  HD
ATOM     67  C   ALA B   1     -13.612  13.118   4.602  1.00 38.28 LIG 0.25  C 
ATOM     68 O    ALA B   1     -12.478  12.730   4.326  1.00 39.08 LIG-0.27  OA
BRANCH 67 69
ATOM     69  CA  ALA B   1     -14.830  12.288   4.222  1.00 38.95 LIG 0.27  C 
ATOM     70  CB  ALA B   1     -15.967  13.175   3.738  1.00 37.91 LIG 0.05  C 
BRANCH 69 71
ATOM     71  N   ALA B   1     -15.265  11.482   5.362  1.00 44.33 LIG-0.07  N 
ATOM     72 H1   ALA B   1     -14.562  11.071   5.721  1.00 44.33 LIG 0.28  HD
ATOM     73 H2   ALA B   1     -15.642  12.009   5.971  1.00 44.33 LIG 0.28  HD
ATOM     74 H3   ALA B   1     -15.855  10.875   5.088  1.00 44.33 LIG 0.28  HD
ENDBRANCH 69 71
ENDBRANCH 67 69
ENDBRANCH 52 65
ENDBRANCH 49 52
ENDBRANCH 43 48
ENDBRANCH 40 43
ENDBRANCH 1 39
TORSDOF 30
ENDMDL
MODEL 21
USER: ADFR SOLUTION from run 17
USER: SCORE 21.922165 LL:  -3.523 LR: -19.921 RR:   0.000 FEB: -10.972
USER: RMSD 8.829184
USER: SEED 16
USER: STATUS 1 or 2 clusters left
USER: GENES 32
USER: genes 0 Translation |==|  0.69208 0.75741 0.46148
USER: genes 1 Rotation |==|  0.35082 0.17929 0.84294 0.58535
USER: genes 2 Torsion [N]-CA--C-[N] |==|  0.11094
USER: genes 3 Torsion [C]-N--CA-[CB] |==|  0.77004
USER: genes 4 Torsion [N]-CA--CB-[CG] |==|  0.11431
USER: genes 5 Torsion [CA]-CB--CG-[CD] |==|  0.75713
USER: genes 6 Torsion [CB]-CG--CD-[OE1] |==|  0.01677
USER: genes 7 Torsion [N]-CA--C-[N] |==|  0.75182
USER: genes 8 Torsion [C]-N--CA-[CB] |==|  0.55002
USER: genes 9 Torsion [N]-CA--C-[N] |==|  0.37778
USER: genes 10 Torsion [C]-N--CA-[CB] |==|  0.42080
USER: genes 11 Torsion [N]-CA--C-[O] |==|  0.99175
USER: genes 12 Torsion [N]-CA--CB-[CG2] |==|  0.23650
USER: genes 13 Torsion [CA]-CB--OG1-[HG1] |==|  0.43751
USER: genes 14 Torsion [C]-CA--CB-[CG] |==|  0.29767
USER: genes 15 Torsion [CA]-CB--CG-[CD] |==|  0.30874
USER: genes 16 Torsion [CB]-CG--CD-[CE] |==|  0.82140
USER: genes 17 Torsion [CG]-CD--CE-[NZ] |==|  0.74913
USER: genes 18 Torsion [CD]-CE--NZ-[HZ2] |==|  0.01721
USER: genes 19 Torsion [C]-CA--N-[C] |==|  0.17482
USER: genes 20 Torsion [N]-C--CA-[N] |==|  0.35705
USER: genes 21 Torsion [C]-CA--CB-[CG2] |==|  0.22189
USER: genes 22 Torsion [CA]-CB--OG1-[HG1] |==|  0.31685
USER: genes 23 Torsion [C]-CA--N-[C] |==|  0.84076
USER: genes 24 Torsion [N]-C--CA-[N] |==|  0.40231
USER: genes 25 Torsion [C]-CA--CB-[CG] |==|  0.40235
USER: genes 26 Torsion [CA]-CB--CG-[CD] |==|  0.04437
USER: genes 27 Torsion [CB]-CG--CD-[NE] |==|  0.34178
USER: genes 28 Torsion [CG]-CD--NE-[HE] |==|  0.72845
USER: genes 29 Torsion [C]-CA--N-[C] |==|  0.67147
USER: genes 30 Torsion [N]-C--CA-[N] |==|  0.20648
USER: genes 31 Torsion [C]-CA--N-[H2] |==|  0.57514
ROOT
ATOM      1  CA  LYS B   4      -7.887  15.388  12.741  1.00 37.28 LIG 0.18  C 
ENDROOT
BRANCH 1 2
ATOM      2  C   LYS B   4      -7.723  13.923  12.403  1.00 39.57 LIG 0.24  C 
ATOM      3 O    LYS B   4      -7.607  13.069  13.286  1.00 42.15 LIG-0.27  OA
ATOM      4  N   GLN B   5      -7.723  13.629  11.115  1.00 37.54 LIG-0.35  N 
ATOM      5 H    GLN B   5      -7.776  14.206  10.478  1.00 37.54 LIG 0.16  HD
BRANCH 4 6
ATOM      6  CA  GLN B   5      -7.628  12.249  10.691  1.00 44.43 LIG 0.18  C 
BRANCH 6 7
ATOM      7  CB  GLN B   5      -6.183  11.783  10.680  1.00 42.91 LIG 0.04  C 
BRANCH 7 8
ATOM      8  CG  GLN B   5      -5.433  12.286  11.865  1.00 46.61 LIG 0.10  C 
BRANCH 8 9
ATOM      9  CD  GLN B   5      -4.849  13.630  11.615  1.00 50.89 LIG 0.21  C 
ATOM     10  NE2 GLN B   5      -4.046  14.107  12.569  1.00 54.67 LIG-0.37  N 
ATOM     11 21HE GLN B   5      -3.899  13.644  13.278  1.00 54.67 LIG 0.16  HD
ATOM     12 22HE GLN B   5      -3.676  14.877  12.474  1.00 54.67 LIG 0.16  HD
ATOM     13 OE1  GLN B   5      -5.100  14.251  10.570  1.00 48.99 LIG-0.27  OA
ENDBRANCH 8 9
ENDBRANCH 7 8
ENDBRANCH 6 7
BRANCH 6 14
ATOM     14  C   GLN B   5      -8.492  11.339  11.559  1.00 45.34 LIG 0.24  C 
ATOM     15 O    GLN B   5      -9.664  11.126  11.265  1.00 47.84 LIG-0.27  OA
ATOM     16  N   THR B   6      -7.926  10.827  12.646  1.00 44.99 LIG-0.34  N 
ATOM     17 H    THR B   6      -7.125  10.996  12.907  1.00 44.99 LIG 0.16  HD
BRANCH 16 18
ATOM     18  CA  THR B   6      -8.672   9.908  13.493  1.00 47.63 LIG 0.20  C 
BRANCH 18 19
ATOM     19  C   THR B   6     -10.155  10.276  13.578  1.00 49.11 LIG 0.24  C 
ATOM     20 O    THR B   6     -10.499  11.442  13.758  1.00 51.64 LIG-0.27  OA
ATOM     21  N   ALA B   7     -11.025   9.279  13.474  1.00 46.55 LIG-0.35  N 
ATOM     22 H    ALA B   7     -10.803   8.462  13.318  1.00 46.55 LIG 0.16  HD
BRANCH 21 23
ATOM     23  CA  ALA B   7     -12.460   9.496  13.619  1.00 49.58 LIG 0.16  C 
ATOM     24  CB  ALA B   7     -13.254   8.455  12.801  1.00 45.32 LIG 0.04  C 
BRANCH 23 25
ATOM     25  C   ALA B   7     -12.857   9.452  15.100  1.00 53.19 LIG 0.22  C 
ATOM     26 O    ALA B   7     -12.008   9.198  15.975  1.00 57.48 LIG-0.29  OA
ENDBRANCH 23 25
ENDBRANCH 21 23
ENDBRANCH 18 19
BRANCH 18 27
ATOM     27  CB  THR B   6      -8.045   9.772  14.902  1.00 48.13 LIG 0.15  C 
ATOM     28  CG2 THR B   6      -8.549  10.882  15.809  1.00 44.70 LIG 0.04  C 
BRANCH 27 29
ATOM     29 OG1  THR B   6      -8.365   8.490  15.468  1.00 42.78 LIG-0.39  OA
ATOM     30 HG1  THR B   6      -7.800   8.296  16.059  1.00 42.78 LIG 0.21  HD
ENDBRANCH 27 29
ENDBRANCH 18 27
ENDBRANCH 16 18
ENDBRANCH 6 14
ENDBRANCH 4 6
ENDBRANCH 1 2
BRANCH 1 31
ATOM     31  CB  LYS B   4      -8.328  15.501  14.202  1.00 35.55 LIG 0.04  C 
BRANCH 31 32
ATOM     32  CG  LYS B   4      -7.277  15.996  15.116  1.00 39.70 LIG 0.00  C 
BRANCH 32 33
ATOM     33  CD  LYS B   4      -7.632  17.375  15.612  1.00 40.13 LIG 0.03  C 
BRANCH 33 34
ATOM     34  CE  LYS B   4      -7.654  18.352  14.468  1.00 42.33 LIG 0.23  C 
BRANCH 34 35
ATOM     35  NZ  LYS B   4      -6.334  18.981  14.262  1.00 43.53 LIG-0.08  N 
ATOM     36 HZ3  LYS B   4      -6.084  18.874  13.415  1.00 43.53 LIG 0.27  HD
ATOM     37 HZ1  LYS B   4      -6.387  19.850  14.448  1.00 43.53 LIG 0.27  HD
ATOM     38 HZ2  LYS B   4      -5.736  18.600  14.799  1.00 43.53 LIG 0.27  HD
ENDBRANCH 34 35
ENDBRANCH 33 34
ENDBRANCH 32 33
ENDBRANCH 31 32
ENDBRANCH 1 31
BRANCH 1 39
ATOM     39  N   LYS B   4      -8.868  15.992  11.851  1.00 32.65 LIG-0.35  N 
ATOM     40  C   THR B   3     -10.137  15.598  11.838  1.00 34.58 LIG 0.24  C 
ATOM     41 O    THR B   3     -10.533  14.642  12.485  1.00 36.58 LIG-0.27  OA
ATOM     42 H    LYS B   4      -8.554  16.614  11.347  1.00 32.65 LIG 0.16  HD
BRANCH 40 43
ATOM     43  CA  THR B   3     -11.092  16.377  10.948  1.00 32.52 LIG 0.20  C 
BRANCH 43 44
ATOM     44  CB  THR B   3     -12.020  17.204  11.820  1.00 35.15 LIG 0.15  C 
ATOM     45  CG2 THR B   3     -11.319  18.464  12.280  1.00 35.84 LIG 0.04  C 
BRANCH 44 46
ATOM     46 OG1  THR B   3     -13.184  17.544  11.058  1.00 37.78 LIG-0.39  OA
ATOM     47 HG1  THR B   3     -13.856  17.166  11.390  1.00 37.78 LIG 0.21  HD
ENDBRANCH 44 46
ENDBRANCH 43 44
BRANCH 43 48
ATOM     48  N   THR B   3     -11.824  15.450  10.096  1.00 36.19 LIG-0.34  N 
ATOM     49  C   ARG B   2     -11.197  14.616   9.281  1.00 33.52 LIG 0.24  C 
ATOM     50 O    ARG B   2     -10.001  14.664   9.074  1.00 34.90 LIG-0.27  OA
ATOM     51 H    THR B   3     -12.680  15.496  10.173  1.00 36.19 LIG 0.16  HD
BRANCH 49 52
ATOM     52  CA  ARG B   2     -12.040  13.547   8.616  1.00 37.04 LIG 0.18  C 
BRANCH 52 53
ATOM     53  CB  ARG B   2     -11.954  12.299   9.473  1.00 37.98 LIG 0.04  C 
BRANCH 53 54
ATOM     54  CG  ARG B   2     -13.223  11.482   9.525  1.00 44.54 LIG 0.02  C 
BRANCH 54 55
ATOM     55  CD  ARG B   2     -14.086  11.947   8.390  1.00 45.57 LIG 0.14  C 
BRANCH 55 56
ATOM     56  NE  ARG B   2     -14.408  10.813   7.541  1.00 45.97 LIG-0.23  N 
ATOM     57  CZ  ARG B   2     -15.381   9.945   7.785  1.00 44.90 LIG 0.67  C 
ATOM     58  NH1 ARG B   2     -16.137  10.059   8.875  1.00 46.97 LIG-0.23  N 
ATOM     59  NH2 ARG B   2     -15.575   8.950   6.943  1.00 41.82 LIG-0.23  N 
ATOM     60 2HH1 ARG B   2     -16.765   9.491   9.025  1.00 46.97 LIG 0.17  HD
ATOM     61 1HH1 ARG B   2     -15.997  10.701   9.431  1.00 46.97 LIG 0.17  HD
ATOM     62 2HH2 ARG B   2     -16.202   8.380   7.089  1.00 41.82 LIG 0.17  HD
ATOM     63 1HH2 ARG B   2     -15.076   8.871   6.248  1.00 41.82 LIG 0.17  HD
ATOM     64 HE   ARG B   2     -13.936  10.697   6.832  1.00 45.97 LIG 0.18  HD
ENDBRANCH 55 56
ENDBRANCH 54 55
ENDBRANCH 53 54
ENDBRANCH 52 53
BRANCH 52 65
ATOM     65  N   ARG B   2     -11.546  13.295   7.272  1.00 35.35 LIG-0.35  N 
ATOM     66 H    ARG B   2     -10.738  13.001   7.234  1.00 35.35 LIG 0.16  HD
ATOM     67  C   ALA B   1     -12.310  13.513   6.213  1.00 38.28 LIG 0.25  C 
ATOM     68 O    ALA B   1     -13.486  13.861   6.312  1.00 39.08 LIG-0.27  OA
BRANCH 67 69
ATOM     69  CA  ALA B   1     -11.679  13.288   4.846  1.00 38.95 LIG 0.27  C 
ATOM     70  CB  ALA B   1     -12.498  13.953   3.750  1.00 37.91 LIG 0.05  C 
BRANCH 69 71
ATOM     71  N   ALA B   1     -11.547  11.856   4.582  1.00 44.33 LIG-0.07  N 
ATOM     72 H1   ALA B   1     -12.299  11.551   4.216  1.00 44.33 LIG 0.28  HD
ATOM     73 H2   ALA B   1     -10.869  11.719   4.023  1.00 44.33 LIG 0.28  HD
ATOM     74 H3   ALA B   1     -11.393  11.427   5.346  1.00 44.33 LIG 0.28  HD
ENDBRANCH 69 71
ENDBRANCH 67 69
ENDBRANCH 52 65
ENDBRANCH 49 52
ENDBRANCH 43 48
ENDBRANCH 40 43
ENDBRANCH 1 39
TORSDOF 30
ENDMDL
MODEL 22
USER: ADFR SOLUTION from run 59
USER: SCORE 23.352264 LL:  -4.517 LR: -19.895 RR:   0.000 FEB: -10.946
USER: RMSD 5.934898
USER: SEED 58
USER: STATUS no improvement in best in 6 clusters for 5 generations
USER: GENES 32
USER: genes 0 Translation |==|  0.65098 0.55844 0.43206
USER: genes 1 Rotation |==|  0.48564 0.53309 0.88600 0.81576
USER: genes 2 Torsion [N]-CA--C-[N] |==|  0.16406
USER: genes 3 Torsion [C]-N--CA-[CB] |==|  0.20392
USER: genes 4 Torsion [N]-CA--CB-[CG] |==|  0.73614
USER: genes 5 Torsion [CA]-CB--CG-[CD] |==|  0.47132
USER: genes 6 Torsion [CB]-CG--CD-[OE1] |==|  0.85774
USER: genes 7 Torsion [N]-CA--C-[N] |==|  0.12778
USER: genes 8 Torsion [C]-N--CA-[CB] |==|  0.86081
USER: genes 9 Torsion [N]-CA--C-[N] |==|  0.89904
USER: genes 10 Torsion [C]-N--CA-[CB] |==|  0.31019
USER: genes 11 Torsion [N]-CA--C-[O] |==|  0.09106
USER: genes 12 Torsion [N]-CA--CB-[CG2] |==|  0.51838
USER: genes 13 Torsion [CA]-CB--OG1-[HG1] |==|  0.17664
USER: genes 14 Torsion [C]-CA--CB-[CG] |==|  0.33125
USER: genes 15 Torsion [CA]-CB--CG-[CD] |==|  0.22830
USER: genes 16 Torsion [CB]-CG--CD-[CE] |==|  0.06479
USER: genes 17 Torsion [CG]-CD--CE-[NZ] |==|  0.50811
USER: genes 18 Torsion [CD]-CE--NZ-[HZ2] |==|  0.82698
USER: genes 19 Torsion [C]-CA--N-[C] |==|  0.15331
USER: genes 20 Torsion [N]-C--CA-[N] |==|  0.96953
USER: genes 21 Torsion [C]-CA--CB-[CG2] |==|  0.94875
USER: genes 22 Torsion [CA]-CB--OG1-[HG1] |==|  0.33003
USER: genes 23 Torsion [C]-CA--N-[C] |==|  0.78065
USER: genes 24 Torsion [N]-C--CA-[N] |==|  0.45151
USER: genes 25 Torsion [C]-CA--CB-[CG] |==|  0.34954
USER: genes 26 Torsion [CA]-CB--CG-[CD] |==|  0.38737
USER: genes 27 Torsion [CB]-CG--CD-[NE] |==|  0.56117
USER: genes 28 Torsion [CG]-CD--NE-[HE] |==|  0.77895
USER: genes 29 Torsion [C]-CA--N-[C] |==|  0.78651
USER: genes 30 Torsion [N]-C--CA-[N] |==|  0.18278
USER: genes 31 Torsion [C]-CA--N-[H2] |==|  0.01397
ROOT
ATOM      1  CA  LYS B   4      -8.751  11.209  12.013  1.00 37.28 LIG 0.18  C 
ENDROOT
BRANCH 1 2
ATOM      2  C   LYS B   4      -9.035  10.313  13.197  1.00 39.57 LIG 0.24  C 
ATOM      3 O    LYS B   4      -8.166  10.060  14.035  1.00 42.15 LIG-0.27  OA
ATOM      4  N   GLN B   5     -10.265   9.836  13.271  1.00 37.54 LIG-0.35  N 
ATOM      5 H    GLN B   5     -10.883   9.975  12.689  1.00 37.54 LIG 0.16  HD
BRANCH 4 6
ATOM      6  CA  GLN B   5     -10.652   9.015  14.398  1.00 44.43 LIG 0.18  C 
BRANCH 6 7
ATOM      7  CB  GLN B   5     -10.814   9.855  15.652  1.00 42.91 LIG 0.04  C 
BRANCH 7 8
ATOM      8  CG  GLN B   5      -9.573   9.858  16.477  1.00 46.61 LIG 0.10  C 
BRANCH 8 9
ATOM      9  CD  GLN B   5      -9.642  10.868  17.567  1.00 50.89 LIG 0.21  C 
ATOM     10  NE2 GLN B   5      -9.350  10.427  18.793  1.00 54.67 LIG-0.37  N 
ATOM     11 21HE GLN B   5      -9.143   9.602  18.915  1.00 54.67 LIG 0.16  HD
ATOM     12 22HE GLN B   5      -9.368  10.969  19.460  1.00 54.67 LIG 0.16  HD
ATOM     13 OE1  GLN B   5      -9.947  12.047  17.327  1.00 48.99 LIG-0.27  OA
ENDBRANCH 8 9
ENDBRANCH 7 8
ENDBRANCH 6 7
BRANCH 6 14
ATOM     14  C   GLN B   5     -11.920   8.221  14.100  1.00 45.34 LIG 0.24  C 
ATOM     15 O    GLN B   5     -12.819   8.147  14.932  1.00 47.84 LIG-0.27  OA
ATOM     16  N   THR B   6     -11.982   7.602  12.927  1.00 44.99 LIG-0.34  N 
ATOM     17 H    THR B   6     -11.350   7.593  12.344  1.00 44.99 LIG 0.16  HD
BRANCH 16 18
ATOM     18  CA  THR B   6     -13.183   6.870  12.550  1.00 47.63 LIG 0.20  C 
BRANCH 18 19
ATOM     19  C   THR B   6     -14.318   7.804  12.125  1.00 49.11 LIG 0.24  C 
ATOM     20 O    THR B   6     -15.066   7.495  11.201  1.00 51.64 LIG-0.27  OA
ATOM     21  N   ALA B   7     -14.425   8.952  12.783  1.00 46.55 LIG-0.35  N 
ATOM     22 H    ALA B   7     -13.928   9.171  13.451  1.00 46.55 LIG 0.16  HD
BRANCH 21 23
ATOM     23  CA  ALA B   7     -15.416   9.957  12.414  1.00 49.58 LIG 0.16  C 
ATOM     24  CB  ALA B   7     -16.496  10.085  13.511  1.00 45.32 LIG 0.04  C 
BRANCH 23 25
ATOM     25  C   ALA B   7     -14.734  11.305  12.152  1.00 53.19 LIG 0.22  C 
ATOM     26 O    ALA B   7     -13.587  11.350  11.670  1.00 57.48 LIG-0.29  OA
ENDBRANCH 23 25
ENDBRANCH 21 23
ENDBRANCH 18 19
BRANCH 18 27
ATOM     27  CB  THR B   6     -13.643   5.893  13.660  1.00 48.13 LIG 0.15  C 
ATOM     28  CG2 THR B   6     -14.796   5.040  13.161  1.00 44.70 LIG 0.04  C 
BRANCH 27 29
ATOM     29 OG1  THR B   6     -12.550   5.054  14.069  1.00 42.78 LIG-0.39  OA
ATOM     30 HG1  THR B   6     -11.946   5.527  14.410  1.00 42.78 LIG 0.21  HD
ENDBRANCH 27 29
ENDBRANCH 18 27
ENDBRANCH 16 18
ENDBRANCH 6 14
ENDBRANCH 4 6
ENDBRANCH 1 2
BRANCH 1 31
ATOM     31  CB  LYS B   4      -7.287  11.653  12.081  1.00 35.55 LIG 0.04  C 
BRANCH 31 32
ATOM     32  CG  LYS B   4      -6.472  11.238  10.921  1.00 39.70 LIG 0.00  C 
BRANCH 32 33
ATOM     33  CD  LYS B   4      -6.672  12.202   9.779  1.00 40.13 LIG 0.03  C 
BRANCH 33 34
ATOM     34  CE  LYS B   4      -7.140  13.535  10.296  1.00 42.33 LIG 0.23  C 
BRANCH 34 35
ATOM     35  NZ  LYS B   4      -7.412  14.482   9.195  1.00 43.53 LIG-0.08  N 
ATOM     36 HZ3  LYS B   4      -8.021  14.134   8.649  1.00 43.53 LIG 0.27  HD
ATOM     37 HZ1  LYS B   4      -7.717  15.248   9.531  1.00 43.53 LIG 0.27  HD
ATOM     38 HZ2  LYS B   4      -6.661  14.635   8.743  1.00 43.53 LIG 0.27  HD
ENDBRANCH 34 35
ENDBRANCH 33 34
ENDBRANCH 32 33
ENDBRANCH 31 32
ENDBRANCH 1 31
BRANCH 1 39
ATOM     39  N   LYS B   4      -9.646  12.357  12.036  1.00 32.65 LIG-0.35  N 
ATOM     40  C   THR B   3      -9.730  13.156  13.093  1.00 34.58 LIG 0.24  C 
ATOM     41 O    THR B   3      -9.150  12.921  14.141  1.00 36.58 LIG-0.27  OA
ATOM     42 H    LYS B   4     -10.104  12.463  11.316  1.00 32.65 LIG 0.16  HD
BRANCH 40 43
ATOM     43  CA  THR B   3     -10.615  14.385  12.960  1.00 32.52 LIG 0.20  C 
BRANCH 43 44
ATOM     44  CB  THR B   3     -11.822  14.229  13.866  1.00 35.15 LIG 0.15  C 
ATOM     45  CG2 THR B   3     -12.005  12.775  14.247  1.00 35.84 LIG 0.04  C 
BRANCH 44 46
ATOM     46 OG1  THR B   3     -11.620  15.019  15.043  1.00 37.78 LIG-0.39  OA
ATOM     47 HG1  THR B   3     -12.223  15.601  15.097  1.00 37.78 LIG 0.21  HD
ENDBRANCH 44 46
ENDBRANCH 43 44
BRANCH 43 48
ATOM     48  N   THR B   3     -10.997  14.558  11.566  1.00 36.19 LIG-0.34  N 
ATOM     49  C   ARG B   2     -10.167  15.093  10.682  1.00 33.52 LIG 0.24  C 
ATOM     50 O    ARG B   2      -9.111  15.606  10.989  1.00 34.90 LIG-0.27  OA
ATOM     51 H    THR B   3     -11.791  14.287  11.378  1.00 36.19 LIG 0.16  HD
BRANCH 49 52
ATOM     52  CA  ARG B   2     -10.579  15.015   9.226  1.00 37.04 LIG 0.18  C 
BRANCH 52 53
ATOM     53  CB  ARG B   2     -10.323  13.596   8.754  1.00 37.98 LIG 0.04  C 
BRANCH 53 54
ATOM     54  CG  ARG B   2     -11.518  12.913   8.134  1.00 44.54 LIG 0.02  C 
BRANCH 54 55
ATOM     55  CD  ARG B   2     -11.013  12.144   6.949  1.00 45.57 LIG 0.14  C 
BRANCH 55 56
ATOM     56  NE  ARG B   2     -12.114  11.907   6.031  1.00 45.97 LIG-0.23  N 
ATOM     57  CZ  ARG B   2     -12.339  12.612   4.931  1.00 44.90 LIG 0.67  C 
ATOM     58  NH1 ARG B   2     -11.546  13.629   4.601  1.00 46.97 LIG-0.23  N 
ATOM     59  NH2 ARG B   2     -13.376  12.306   4.177  1.00 41.82 LIG-0.23  N 
ATOM     60 2HH1 ARG B   2     -11.700  14.081   3.885  1.00 46.97 LIG 0.17  HD
ATOM     61 1HH1 ARG B   2     -10.879  13.836   5.104  1.00 46.97 LIG 0.17  HD
ATOM     62 2HH2 ARG B   2     -13.533  12.755   3.461  1.00 41.82 LIG 0.17  HD
ATOM     63 1HH2 ARG B   2     -13.894  11.658   4.401  1.00 41.82 LIG 0.17  HD
ATOM     64 HE   ARG B   2     -12.657  11.266   6.214  1.00 45.97 LIG 0.18  HD
ENDBRANCH 55 56
ENDBRANCH 54 55
ENDBRANCH 53 54
ENDBRANCH 52 53
BRANCH 52 65
ATOM     65  N   ARG B   2      -9.813  15.973   8.445  1.00 35.35 LIG-0.35  N 
ATOM     66 H    ARG B   2      -9.174  15.631   7.982  1.00 35.35 LIG 0.16  HD
ATOM     67  C   ALA B   1     -10.106  17.264   8.472  1.00 38.28 LIG 0.25  C 
ATOM     68 O    ALA B   1     -11.076  17.704   9.088  1.00 39.08 LIG-0.27  OA
BRANCH 67 69
ATOM     69  CA  ALA B   1      -9.202  18.197   7.679  1.00 38.95 LIG 0.27  C 
ATOM     70  CB  ALA B   1      -9.533  19.653   7.965  1.00 37.91 LIG 0.05  C 
BRANCH 69 71
ATOM     71  N   ALA B   1      -9.324  17.920   6.249  1.00 44.33 LIG-0.07  N 
ATOM     72 H1   ALA B   1      -8.548  17.613   5.938  1.00 44.33 LIG 0.28  HD
ATOM     73 H2   ALA B   1      -9.958  17.309   6.117  1.00 44.33 LIG 0.28  HD
ATOM     74 H3   ALA B   1      -9.540  18.668   5.818  1.00 44.33 LIG 0.28  HD
ENDBRANCH 69 71
ENDBRANCH 67 69
ENDBRANCH 52 65
ENDBRANCH 49 52
ENDBRANCH 43 48
ENDBRANCH 40 43
ENDBRANCH 1 39
TORSDOF 30
ENDMDL
MODEL 23
USER: ADFR SOLUTION from run 93
USER: SCORE 23.066968 LL:  -4.773 LR: -19.890 RR:   0.000 FEB: -10.941
USER: RMSD 7.285756
USER: SEED 92
USER: STATUS no improvement in best in 6 clusters for 5 generations
USER: GENES 32
USER: genes 0 Translation |==|  0.66240 0.64377 0.34758
USER: genes 1 Rotation |==|  0.46120 0.42296 0.96612 0.65903
USER: genes 2 Torsion [N]-CA--C-[N] |==|  0.93492
USER: genes 3 Torsion [C]-N--CA-[CB] |==|  0.18879
USER: genes 4 Torsion [N]-CA--CB-[CG] |==|  0.27718
USER: genes 5 Torsion [CA]-CB--CG-[CD] |==|  0.31742
USER: genes 6 Torsion [CB]-CG--CD-[OE1] |==|  0.96129
USER: genes 7 Torsion [N]-CA--C-[N] |==|  0.50488
USER: genes 8 Torsion [C]-N--CA-[CB] |==|  0.86097
USER: genes 9 Torsion [N]-CA--C-[N] |==|  0.35953
USER: genes 10 Torsion [C]-N--CA-[CB] |==|  0.81478
USER: genes 11 Torsion [N]-CA--C-[O] |==|  0.11977
USER: genes 12 Torsion [N]-CA--CB-[CG2] |==|  0.54139
USER: genes 13 Torsion [CA]-CB--OG1-[HG1] |==|  0.41206
USER: genes 14 Torsion [C]-CA--CB-[CG] |==|  0.18243
USER: genes 15 Torsion [CA]-CB--CG-[CD] |==|  0.69670
USER: genes 16 Torsion [CB]-CG--CD-[CE] |==|  0.46899
USER: genes 17 Torsion [CG]-CD--CE-[NZ] |==|  0.18637
USER: genes 18 Torsion [CD]-CE--NZ-[HZ2] |==|  0.90428
USER: genes 19 Torsion [C]-CA--N-[C] |==|  0.74115
USER: genes 20 Torsion [N]-C--CA-[N] |==|  0.28200
USER: genes 21 Torsion [C]-CA--CB-[CG2] |==|  0.40051
USER: genes 22 Torsion [CA]-CB--OG1-[HG1] |==|  0.38394
USER: genes 23 Torsion [C]-CA--N-[C] |==|  0.59266
USER: genes 24 Torsion [N]-C--CA-[N] |==|  0.90085
USER: genes 25 Torsion [C]-CA--CB-[CG] |==|  0.77156
USER: genes 26 Torsion [CA]-CB--CG-[CD] |==|  0.29394
USER: genes 27 Torsion [CB]-CG--CD-[NE] |==|  0.48382
USER: genes 28 Torsion [CG]-CD--NE-[HE] |==|  0.77004
USER: genes 29 Torsion [C]-CA--N-[C] |==|  0.84594
USER: genes 30 Torsion [N]-C--CA-[N] |==|  0.66229
USER: genes 31 Torsion [C]-CA--N-[H2] |==|  0.75983
ROOT
ATOM      1  CA  LYS B   4      -8.511  13.001   9.922  1.00 37.28 LIG 0.18  C 
ENDROOT
BRANCH 1 2
ATOM      2  C   LYS B   4      -8.306  11.761  10.763  1.00 39.57 LIG 0.24  C 
ATOM      3 O    LYS B   4      -7.269  11.099  10.689  1.00 42.15 LIG-0.27  OA
ATOM      4  N   GLN B   5      -9.299  11.452  11.578  1.00 37.54 LIG-0.35  N 
ATOM      5 H    GLN B   5     -10.043  11.882  11.632  1.00 37.54 LIG 0.16  HD
BRANCH 4 6
ATOM      6  CA  GLN B   5      -9.176  10.316  12.465  1.00 44.43 LIG 0.18  C 
BRANCH 6 7
ATOM      7  CB  GLN B   5      -8.126  10.573  13.532  1.00 42.91 LIG 0.04  C 
BRANCH 7 8
ATOM      8  CG  GLN B   5      -8.743  10.984  14.824  1.00 46.61 LIG 0.10  C 
BRANCH 8 9
ATOM      9  CD  GLN B   5      -8.519   9.969  15.887  1.00 50.89 LIG 0.21  C 
ATOM     10  NE2 GLN B   5      -8.782  10.360  17.135  1.00 54.67 LIG-0.37  N 
ATOM     11 21HE GLN B   5      -9.058  11.160  17.286  1.00 54.67 LIG 0.16  HD
ATOM     12 22HE GLN B   5      -8.675   9.812  17.789  1.00 54.67 LIG 0.16  HD
ATOM     13 OE1  GLN B   5      -8.118   8.828  15.606  1.00 48.99 LIG-0.27  OA
ENDBRANCH 8 9
ENDBRANCH 7 8
ENDBRANCH 6 7
BRANCH 6 14
ATOM     14  C   GLN B   5     -10.518   9.949  13.090  1.00 45.34 LIG 0.24  C 
ATOM     15 O    GLN B   5     -11.529  10.589  12.817  1.00 47.84 LIG-0.27  OA
ATOM     16  N   THR B   6     -10.525   8.940  13.954  1.00 44.99 LIG-0.34  N 
ATOM     17 H    THR B   6      -9.827   8.505  14.205  1.00 44.99 LIG 0.16  HD
BRANCH 16 18
ATOM     18  CA  THR B   6     -11.777   8.499  14.550  1.00 47.63 LIG 0.20  C 
BRANCH 18 19
ATOM     19  C   THR B   6     -12.622   7.677  13.574  1.00 49.11 LIG 0.24  C 
ATOM     20 O    THR B   6     -12.877   8.110  12.453  1.00 51.64 LIG-0.27  OA
ATOM     21  N   ALA B   7     -13.074   6.508  14.012  1.00 46.55 LIG-0.35  N 
ATOM     22 H    ALA B   7     -12.880   6.177  14.782  1.00 46.55 LIG 0.16  HD
BRANCH 21 23
ATOM     23  CA  ALA B   7     -13.955   5.674  13.202  1.00 49.58 LIG 0.16  C 
ATOM     24  CB  ALA B   7     -15.325   6.358  13.007  1.00 45.32 LIG 0.04  C 
BRANCH 23 25
ATOM     25  C   ALA B   7     -13.298   5.362  11.852  1.00 53.19 LIG 0.22  C 
ATOM     26 O    ALA B   7     -12.093   5.050  11.793  1.00 57.48 LIG-0.29  OA
ENDBRANCH 23 25
ENDBRANCH 21 23
ENDBRANCH 18 19
BRANCH 18 27
ATOM     27  CB  THR B   6     -12.589   9.676  15.144  1.00 48.13 LIG 0.15  C 
ATOM     28  CG2 THR B   6     -13.680   9.151  16.060  1.00 44.70 LIG 0.04  C 
BRANCH 27 29
ATOM     29 OG1  THR B   6     -11.720  10.563  15.870  1.00 42.78 LIG-0.39  OA
ATOM     30 HG1  THR B   6     -12.012  11.348  15.815  1.00 42.78 LIG 0.21  HD
ENDBRANCH 27 29
ENDBRANCH 18 27
ENDBRANCH 16 18
ENDBRANCH 6 14
ENDBRANCH 4 6
ENDBRANCH 1 2
BRANCH 1 31
ATOM     31  CB  LYS B   4      -7.795  14.171  10.601  1.00 35.55 LIG 0.04  C 
BRANCH 31 32
ATOM     32  CG  LYS B   4      -6.324  14.038  10.648  1.00 39.70 LIG 0.00  C 
BRANCH 32 33
ATOM     33  CD  LYS B   4      -5.875  13.775  12.064  1.00 40.13 LIG 0.03  C 
BRANCH 33 34
ATOM     34  CE  LYS B   4      -4.426  13.370  12.085  1.00 42.33 LIG 0.23  C 
BRANCH 34 35
ATOM     35  NZ  LYS B   4      -3.543  14.482  11.681  1.00 43.53 LIG-0.08  N 
ATOM     36 HZ3  LYS B   4      -3.361  14.989  12.389  1.00 43.53 LIG 0.27  HD
ATOM     37 HZ1  LYS B   4      -2.785  14.154  11.348  1.00 43.53 LIG 0.27  HD
ATOM     38 HZ2  LYS B   4      -3.949  14.974  11.061  1.00 43.53 LIG 0.27  HD
ENDBRANCH 34 35
ENDBRANCH 33 34
ENDBRANCH 32 33
ENDBRANCH 31 32
ENDBRANCH 1 31
BRANCH 1 39
ATOM     39  N   LYS B   4      -9.934  13.271   9.779  1.00 32.65 LIG-0.35  N 
ATOM     40  C   THR B   3     -10.631  12.814   8.745  1.00 34.58 LIG 0.24  C 
ATOM     41 O    THR B   3     -10.108  12.239   7.803  1.00 36.58 LIG-0.27  OA
ATOM     42 H    LYS B   4     -10.270  13.742  10.414  1.00 32.65 LIG 0.16  HD
BRANCH 40 43
ATOM     43  CA  THR B   3     -12.131  13.063   8.760  1.00 32.52 LIG 0.20  C 
BRANCH 43 44
ATOM     44  CB  THR B   3     -12.850  11.793   8.344  1.00 35.15 LIG 0.15  C 
ATOM     45  CG2 THR B   3     -14.143  11.647   9.116  1.00 35.84 LIG 0.04  C 
BRANCH 44 46
ATOM     46 OG1  THR B   3     -13.126  11.860   6.940  1.00 37.78 LIG-0.39  OA
ATOM     47 HG1  THR B   3     -12.972  11.113   6.589  1.00 37.78 LIG 0.21  HD
ENDBRANCH 44 46
ENDBRANCH 43 44
BRANCH 43 48
ATOM     48  N   THR B   3     -12.445  14.182   7.882  1.00 36.19 LIG-0.34  N 
ATOM     49  C   ARG B   2     -13.439  15.015   8.150  1.00 33.52 LIG 0.24  C 
ATOM     50 O    ARG B   2     -14.240  14.827   9.043  1.00 34.90 LIG-0.27  OA
ATOM     51 H    THR B   3     -11.936  14.246   7.192  1.00 36.19 LIG 0.16  HD
BRANCH 49 52
ATOM     52  CA  ARG B   2     -13.530  16.265   7.299  1.00 37.04 LIG 0.18  C 
BRANCH 52 53
ATOM     53  CB  ARG B   2     -14.303  15.906   6.043  1.00 37.98 LIG 0.04  C 
BRANCH 53 54
ATOM     54  CG  ARG B   2     -13.478  15.247   4.964  1.00 44.54 LIG 0.02  C 
BRANCH 54 55
ATOM     55  CD  ARG B   2     -13.851  13.794   4.959  1.00 45.57 LIG 0.14  C 
BRANCH 55 56
ATOM     56  NE  ARG B   2     -13.188  13.135   3.846  1.00 45.97 LIG-0.23  N 
ATOM     57  CZ  ARG B   2     -12.053  12.457   3.944  1.00 44.90 LIG 0.67  C 
ATOM     58  NH1 ARG B   2     -11.422  12.351   5.112  1.00 46.97 LIG-0.23  N 
ATOM     59  NH2 ARG B   2     -11.542  11.906   2.861  1.00 41.82 LIG-0.23  N 
ATOM     60 2HH1 ARG B   2     -10.686  11.908   5.165  1.00 46.97 LIG 0.17  HD
ATOM     61 1HH1 ARG B   2     -11.751  12.725   5.814  1.00 46.97 LIG 0.17  HD
ATOM     62 2HH2 ARG B   2     -10.807  11.464   2.910  1.00 41.82 LIG 0.17  HD
ATOM     63 1HH2 ARG B   2     -11.944  11.990   2.106  1.00 41.82 LIG 0.17  HD
ATOM     64 HE   ARG B   2     -13.556  13.190   3.071  1.00 45.97 LIG 0.18  HD
ENDBRANCH 55 56
ENDBRANCH 54 55
ENDBRANCH 53 54
ENDBRANCH 52 53
BRANCH 52 65
ATOM     65  N   ARG B   2     -12.194  16.739   6.974  1.00 35.35 LIG-0.35  N 
ATOM     66 H    ARG B   2     -12.039  16.830   6.133  1.00 35.35 LIG 0.16  HD
ATOM     67  C   ALA B   1     -11.314  16.998   7.928  1.00 38.28 LIG 0.25  C 
ATOM     68 O    ALA B   1     -11.599  16.929   9.122  1.00 39.08 LIG-0.27  OA
BRANCH 67 69
ATOM     69  CA  ALA B   1      -9.919  17.420   7.487  1.00 38.95 LIG 0.27  C 
ATOM     70  CB  ALA B   1      -9.821  17.482   5.970  1.00 37.91 LIG 0.05  C 
BRANCH 69 71
ATOM     71  N   ALA B   1      -8.921  16.496   8.022  1.00 44.33 LIG-0.07  N 
ATOM     72 H1   ALA B   1      -8.205  16.492   7.493  1.00 44.33 LIG 0.28  HD
ATOM     73 H2   ALA B   1      -8.683  16.757   8.839  1.00 44.33 LIG 0.28  HD
ATOM     74 H3   ALA B   1      -9.265  15.677   8.062  1.00 44.33 LIG 0.28  HD
ENDBRANCH 69 71
ENDBRANCH 67 69
ENDBRANCH 52 65
ENDBRANCH 49 52
ENDBRANCH 43 48
ENDBRANCH 40 43
ENDBRANCH 1 39
TORSDOF 30
ENDMDL
MODEL 24
USER: ADFR SOLUTION from run 146
USER: SCORE 21.801531 LL:  -4.289 LR: -19.876 RR:   0.000 FEB: -10.927
USER: RMSD 9.351055
USER: SEED 145
USER: STATUS no improvement in best in 4 clusters for 5 generations
USER: GENES 32
USER: genes 0 Translation |==|  0.74072 0.68591 0.50127
USER: genes 1 Rotation |==|  0.67406 0.21576 0.12819 0.52584
USER: genes 2 Torsion [N]-CA--C-[N] |==|  0.55711
USER: genes 3 Torsion [C]-N--CA-[CB] |==|  0.80983
USER: genes 4 Torsion [N]-CA--CB-[CG] |==|  0.86318
USER: genes 5 Torsion [CA]-CB--CG-[CD] |==|  0.27405
USER: genes 6 Torsion [CB]-CG--CD-[OE1] |==|  0.09975
USER: genes 7 Torsion [N]-CA--C-[N] |==|  0.11012
USER: genes 8 Torsion [C]-N--CA-[CB] |==|  0.86664
USER: genes 9 Torsion [N]-CA--C-[N] |==|  0.36446
USER: genes 10 Torsion [C]-N--CA-[CB] |==|  0.16689
USER: genes 11 Torsion [N]-CA--C-[O] |==|  0.96854
USER: genes 12 Torsion [N]-CA--CB-[CG2] |==|  0.38761
USER: genes 13 Torsion [CA]-CB--OG1-[HG1] |==|  0.11270
USER: genes 14 Torsion [C]-CA--CB-[CG] |==|  0.39308
USER: genes 15 Torsion [CA]-CB--CG-[CD] |==|  0.24980
USER: genes 16 Torsion [CB]-CG--CD-[CE] |==|  0.10762
USER: genes 17 Torsion [CG]-CD--CE-[NZ] |==|  0.19265
USER: genes 18 Torsion [CD]-CE--NZ-[HZ2] |==|  0.04728
USER: genes 19 Torsion [C]-CA--N-[C] |==|  0.63593
USER: genes 20 Torsion [N]-C--CA-[N] |==|  0.10000
USER: genes 21 Torsion [C]-CA--CB-[CG2] |==|  0.22401
USER: genes 22 Torsion [CA]-CB--OG1-[HG1] |==|  0.52731
USER: genes 23 Torsion [C]-CA--N-[C] |==|  0.20921
USER: genes 24 Torsion [N]-C--CA-[N] |==|  0.51620
USER: genes 25 Torsion [C]-CA--CB-[CG] |==|  0.75298
USER: genes 26 Torsion [CA]-CB--CG-[CD] |==|  0.71271
USER: genes 27 Torsion [CB]-CG--CD-[NE] |==|  0.41911
USER: genes 28 Torsion [CG]-CD--NE-[HE] |==|  0.10099
USER: genes 29 Torsion [C]-CA--N-[C] |==|  0.57907
USER: genes 30 Torsion [N]-C--CA-[N] |==|  0.58684
USER: genes 31 Torsion [C]-CA--N-[H2] |==|  0.10762
ROOT
ATOM      1  CA  LYS B   4      -6.866  13.886  13.726  1.00 37.28 LIG 0.18  C 
ENDROOT
BRANCH 1 2
ATOM      2  C   LYS B   4      -6.907  14.997  14.751  1.00 39.57 LIG 0.24  C 
ATOM      3 O    LYS B   4      -7.707  14.976  15.689  1.00 42.15 LIG-0.27  OA
ATOM      4  N   GLN B   5      -6.031  15.970  14.575  1.00 37.54 LIG-0.35  N 
ATOM      5 H    GLN B   5      -5.479  16.024  13.917  1.00 37.54 LIG 0.16  HD
BRANCH 4 6
ATOM      6  CA  GLN B   5      -5.953  17.051  15.535  1.00 44.43 LIG 0.18  C 
BRANCH 6 7
ATOM      7  CB  GLN B   5      -7.199  17.916  15.479  1.00 42.91 LIG 0.04  C 
BRANCH 7 8
ATOM      8  CG  GLN B   5      -7.533  18.313  14.083  1.00 46.61 LIG 0.10  C 
BRANCH 8 9
ATOM      9  CD  GLN B   5      -8.592  17.445  13.503  1.00 50.89 LIG 0.21  C 
ATOM     10  NE2 GLN B   5      -8.471  17.160  12.205  1.00 54.67 LIG-0.37  N 
ATOM     11 21HE GLN B   5      -7.811  17.479  11.754  1.00 54.67 LIG 0.16  HD
ATOM     12 22HE GLN B   5      -9.052  16.658  11.819  1.00 54.67 LIG 0.16  HD
ATOM     13 OE1  GLN B   5      -9.520  17.015  14.205  1.00 48.99 LIG-0.27  OA
ENDBRANCH 8 9
ENDBRANCH 7 8
ENDBRANCH 6 7
BRANCH 6 14
ATOM     14  C   GLN B   5      -5.710  16.526  16.946  1.00 45.34 LIG 0.24  C 
ATOM     15 O    GLN B   5      -6.259  17.051  17.910  1.00 47.84 LIG-0.27  OA
ATOM     16  N   THR B   6      -4.864  15.510  17.074  1.00 44.99 LIG-0.34  N 
ATOM     17 H    THR B   6      -4.426  15.153  16.427  1.00 44.99 LIG 0.16  HD
BRANCH 16 18
ATOM     18  CA  THR B   6      -4.624  14.922  18.384  1.00 47.63 LIG 0.20  C 
BRANCH 18 19
ATOM     19  C   THR B   6      -5.756  13.985  18.812  1.00 49.11 LIG 0.24  C 
ATOM     20 O    THR B   6      -6.926  14.355  18.755  1.00 51.64 LIG-0.27  OA
ATOM     21  N   ALA B   7      -5.402  12.788  19.263  1.00 46.55 LIG-0.35  N 
ATOM     22 H    ALA B   7      -4.591  12.502  19.282  1.00 46.55 LIG 0.16  HD
BRANCH 21 23
ATOM     23  CA  ALA B   7      -6.387  11.840  19.775  1.00 49.58 LIG 0.16  C 
ATOM     24  CB  ALA B   7      -7.420  11.487  18.683  1.00 45.32 LIG 0.04  C 
BRANCH 23 25
ATOM     25  C   ALA B   7      -5.689  10.582  20.302  1.00 53.19 LIG 0.22  C 
ATOM     26 O    ALA B   7      -4.481  10.383  20.069  1.00 57.48 LIG-0.29  OA
ENDBRANCH 23 25
ENDBRANCH 21 23
ENDBRANCH 18 19
BRANCH 18 27
ATOM     27  CB  THR B   6      -4.342  15.995  19.464  1.00 48.13 LIG 0.15  C 
ATOM     28  CG2 THR B   6      -5.039  15.626  20.762  1.00 44.70 LIG 0.04  C 
BRANCH 27 29
ATOM     29 OG1  THR B   6      -2.927  16.121  19.683  1.00 42.78 LIG-0.39  OA
ATOM     30 HG1  THR B   6      -2.525  16.083  18.947  1.00 42.78 LIG 0.21  HD
ENDBRANCH 27 29
ENDBRANCH 18 27
ENDBRANCH 16 18
ENDBRANCH 6 14
ENDBRANCH 4 6
ENDBRANCH 1 2
BRANCH 1 31
ATOM     31  CB  LYS B   4      -6.587  14.504  12.353  1.00 35.55 LIG 0.04  C 
BRANCH 31 32
ATOM     32  CG  LYS B   4      -5.687  13.704  11.499  1.00 39.70 LIG 0.00  C 
BRANCH 32 33
ATOM     33  CD  LYS B   4      -6.490  12.737  10.665  1.00 40.13 LIG 0.03  C 
BRANCH 33 34
ATOM     34  CE  LYS B   4      -7.763  13.386  10.194  1.00 42.33 LIG 0.23  C 
BRANCH 34 35
ATOM     35  NZ  LYS B   4      -7.500  14.441   9.194  1.00 43.53 LIG-0.08  N 
ATOM     36 HZ3  LYS B   4      -8.091  14.376   8.533  1.00 43.53 LIG 0.27  HD
ATOM     37 HZ1  LYS B   4      -7.572  15.240   9.580  1.00 43.53 LIG 0.27  HD
ATOM     38 HZ2  LYS B   4      -6.678  14.343   8.868  1.00 43.53 LIG 0.27  HD
ENDBRANCH 34 35
ENDBRANCH 33 34
ENDBRANCH 32 33
ENDBRANCH 31 32
ENDBRANCH 1 31
BRANCH 1 39
ATOM     39  N   LYS B   4      -8.131  13.166  13.728  1.00 32.65 LIG-0.35  N 
ATOM     40  C   THR B   3      -8.181  11.840  13.783  1.00 34.58 LIG 0.24  C 
ATOM     41 O    THR B   3      -7.180  11.143  13.727  1.00 36.58 LIG-0.27  OA
ATOM     42 H    LYS B   4      -8.826  13.672  13.690  1.00 32.65 LIG 0.16  HD
BRANCH 40 43
ATOM     43  CA  THR B   3      -9.558  11.205  13.893  1.00 32.52 LIG 0.20  C 
BRANCH 43 44
ATOM     44  CB  THR B   3      -9.478   9.763  13.428  1.00 35.15 LIG 0.15  C 
ATOM     45  CG2 THR B   3      -8.934   8.886  14.535  1.00 35.84 LIG 0.04  C 
BRANCH 44 46
ATOM     46 OG1  THR B   3     -10.791   9.325  13.061  1.00 37.78 LIG-0.39  OA
ATOM     47 HG1  THR B   3     -10.784   8.495  12.931  1.00 37.78 LIG 0.21  HD
ENDBRANCH 44 46
ENDBRANCH 43 44
BRANCH 43 48
ATOM     48  N   THR B   3     -10.512  11.980  13.111  1.00 36.19 LIG-0.34  N 
ATOM     49  C   ARG B   2     -10.541  11.910  11.788  1.00 33.52 LIG 0.24  C 
ATOM     50 O    ARG B   2      -9.697  11.329  11.135  1.00 34.90 LIG-0.27  OA
ATOM     51 H    THR B   3     -11.039  12.472  13.579  1.00 36.19 LIG 0.16  HD
BRANCH 49 52
ATOM     52  CA  ARG B   2     -11.712  12.576  11.095  1.00 37.04 LIG 0.18  C 
BRANCH 52 53
ATOM     53  CB  ARG B   2     -12.982  12.031  11.721  1.00 37.98 LIG 0.04  C 
BRANCH 53 54
ATOM     54  CG  ARG B   2     -13.519  10.780  11.068  1.00 44.54 LIG 0.02  C 
BRANCH 54 55
ATOM     55  CD  ARG B   2     -14.690  11.197  10.229  1.00 45.57 LIG 0.14  C 
BRANCH 55 56
ATOM     56  NE  ARG B   2     -14.817  10.287   9.102  1.00 45.97 LIG-0.23  N 
ATOM     57  CZ  ARG B   2     -15.196  10.649   7.885  1.00 44.90 LIG 0.67  C 
ATOM     58  NH1 ARG B   2     -15.511  11.916   7.618  1.00 46.97 LIG-0.23  N 
ATOM     59  NH2 ARG B   2     -15.280   9.732   6.942  1.00 41.82 LIG-0.23  N 
ATOM     60 2HH1 ARG B   2     -15.756  12.141   6.825  1.00 46.97 LIG 0.17  HD
ATOM     61 1HH1 ARG B   2     -15.470  12.509   8.240  1.00 46.97 LIG 0.17  HD
ATOM     62 2HH2 ARG B   2     -15.525   9.953   6.148  1.00 41.82 LIG 0.17  HD
ATOM     63 1HH2 ARG B   2     -15.091   8.913   7.121  1.00 41.82 LIG 0.17  HD
ATOM     64 HE   ARG B   2     -14.634   9.457   9.235  1.00 45.97 LIG 0.18  HD
ENDBRANCH 55 56
ENDBRANCH 54 55
ENDBRANCH 53 54
ENDBRANCH 52 53
BRANCH 52 65
ATOM     65  N   ARG B   2     -11.667  12.292   9.670  1.00 35.35 LIG-0.35  N 
ATOM     66 H    ARG B   2     -11.290  11.548   9.462  1.00 35.35 LIG 0.16  HD
ATOM     67  C   ALA B   1     -12.179  13.139   8.790  1.00 38.28 LIG 0.25  C 
ATOM     68 O    ALA B   1     -12.779  14.158   9.131  1.00 39.08 LIG-0.27  OA
BRANCH 67 69
ATOM     69  CA  ALA B   1     -12.020  12.789   7.317  1.00 38.95 LIG 0.27  C 
ATOM     70  CB  ALA B   1     -10.798  11.911   7.093  1.00 37.91 LIG 0.05  C 
BRANCH 69 71
ATOM     71  N   ALA B   1     -11.921  14.009   6.518  1.00 44.33 LIG-0.07  N 
ATOM     72 H1   ALA B   1     -12.736  14.334   6.371  1.00 44.33 LIG 0.28  HD
ATOM     73 H2   ALA B   1     -11.436  14.613   6.956  1.00 44.33 LIG 0.28  HD
ATOM     74 H3   ALA B   1     -11.531  13.823   5.739  1.00 44.33 LIG 0.28  HD
ENDBRANCH 69 71
ENDBRANCH 67 69
ENDBRANCH 52 65
ENDBRANCH 49 52
ENDBRANCH 43 48
ENDBRANCH 40 43
ENDBRANCH 1 39
TORSDOF 30
ENDMDL
MODEL 25
USER: ADFR SOLUTION from run 4
USER: SCORE 22.463401 LL:  -4.626 LR: -19.851 RR:   0.000 FEB: -10.902
USER: RMSD 7.993667
USER: SEED 30894
USER: STATUS searching
USER: GENES 32
USER: genes 0 Translation |==|  0.53935 0.62096 0.33473
USER: genes 1 Rotation |==|  0.26580 0.52857 0.87107 0.73799
USER: genes 2 Torsion [N]-CA--C-[N] |==|  0.49302
USER: genes 3 Torsion [C]-N--CA-[CB] |==|  0.22681
USER: genes 4 Torsion [N]-CA--CB-[CG] |==|  0.21763
USER: genes 5 Torsion [CA]-CB--CG-[CD] |==|  0.35126
USER: genes 6 Torsion [CB]-CG--CD-[OE1] |==|  0.93393
USER: genes 7 Torsion [N]-CA--C-[N] |==|  0.00341
USER: genes 8 Torsion [C]-N--CA-[CB] |==|  0.20819
USER: genes 9 Torsion [N]-CA--C-[N] |==|  0.89091
USER: genes 10 Torsion [C]-N--CA-[CB] |==|  0.40261
USER: genes 11 Torsion [N]-CA--C-[O] |==|  0.75295
USER: genes 12 Torsion [N]-CA--CB-[CG2] |==|  0.13565
USER: genes 13 Torsion [CA]-CB--OG1-[HG1] |==|  0.32301
USER: genes 14 Torsion [C]-CA--CB-[CG] |==|  0.41036
USER: genes 15 Torsion [CA]-CB--CG-[CD] |==|  0.74651
USER: genes 16 Torsion [CB]-CG--CD-[CE] |==|  0.45528
USER: genes 17 Torsion [CG]-CD--CE-[NZ] |==|  0.98952
USER: genes 18 Torsion [CD]-CE--NZ-[HZ2] |==|  0.53110
USER: genes 19 Torsion [C]-CA--N-[C] |==|  0.61514
USER: genes 20 Torsion [N]-C--CA-[N] |==|  0.17631
USER: genes 21 Torsion [C]-CA--CB-[CG2] |==|  0.39567
USER: genes 22 Torsion [CA]-CB--OG1-[HG1] |==|  0.07508
USER: genes 23 Torsion [C]-CA--N-[C] |==|  0.64897
USER: genes 24 Torsion [N]-C--CA-[N] |==|  0.96306
USER: genes 25 Torsion [C]-CA--CB-[CG] |==|  0.87372
USER: genes 26 Torsion [CA]-CB--CG-[CD] |==|  0.72189
USER: genes 27 Torsion [CB]-CG--CD-[NE] |==|  0.38498
USER: genes 28 Torsion [CG]-CD--NE-[HE] |==|  0.00849
USER: genes 29 Torsion [C]-CA--N-[C] |==|  0.78002
USER: genes 30 Torsion [N]-C--CA-[N] |==|  0.71531
USER: genes 31 Torsion [C]-CA--N-[H2] |==|  0.02930
ROOT
ATOM      1  CA  LYS B   4     -11.095  12.522   9.604  1.00 37.28 LIG 0.18  C 
ENDROOT
BRANCH 1 2
ATOM      2  C   LYS B   4     -12.058  12.156  10.711  1.00 39.57 LIG 0.24  C 
ATOM      3 O    LYS B   4     -13.267  12.379  10.610  1.00 42.15 LIG-0.27  OA
ATOM      4  N   GLN B   5     -11.518  11.581  11.771  1.00 37.54 LIG-0.35  N 
ATOM      5 H    GLN B   5     -10.677  11.437  11.879  1.00 37.54 LIG 0.16  HD
BRANCH 4 6
ATOM      6  CA  GLN B   5     -12.364  11.143  12.860  1.00 44.43 LIG 0.18  C 
BRANCH 6 7
ATOM      7  CB  GLN B   5     -12.983   9.790  12.556  1.00 42.91 LIG 0.04  C 
BRANCH 7 8
ATOM      8  CG  GLN B   5     -12.015   8.679  12.775  1.00 46.61 LIG 0.10  C 
BRANCH 8 9
ATOM      9  CD  GLN B   5     -12.567   7.642  13.687  1.00 50.89 LIG 0.21  C 
ATOM     10  NE2 GLN B   5     -12.033   6.424  13.579  1.00 54.67 LIG-0.37  N 
ATOM     11 21HE GLN B   5     -11.413   6.275  13.003  1.00 54.67 LIG 0.16  HD
ATOM     12 22HE GLN B   5     -12.311   5.787  14.086  1.00 54.67 LIG 0.16  HD
ATOM     13 OE1  GLN B   5     -13.465   7.918  14.498  1.00 48.99 LIG-0.27  OA
ENDBRANCH 8 9
ENDBRANCH 7 8
ENDBRANCH 6 7
BRANCH 6 14
ATOM     14  C   GLN B   5     -11.602  11.114  14.181  1.00 45.34 LIG 0.24  C 
ATOM     15 O    GLN B   5     -12.163  10.771  15.217  1.00 47.84 LIG-0.27  OA
ATOM     16  N   THR B   6     -10.332  11.503  14.153  1.00 44.99 LIG-0.34  N 
ATOM     17 H    THR B   6      -9.925  11.795  13.455  1.00 44.99 LIG 0.16  HD
BRANCH 16 18
ATOM     18  CA  THR B   6      -9.526  11.451  15.365  1.00 47.63 LIG 0.20  C 
BRANCH 18 19
ATOM     19  C   THR B   6      -8.313  12.380  15.290  1.00 49.11 LIG 0.24  C 
ATOM     20 O    THR B   6      -7.972  13.039  16.269  1.00 51.64 LIG-0.27  OA
ATOM     21  N   ALA B   7      -7.684  12.449  14.123  1.00 46.55 LIG-0.35  N 
ATOM     22 H    ALA B   7      -7.891  11.973  13.437  1.00 46.55 LIG 0.16  HD
BRANCH 21 23
ATOM     23  CA  ALA B   7      -6.565  13.360  13.909  1.00 49.58 LIG 0.16  C 
ATOM     24  CB  ALA B   7      -5.520  12.727  12.964  1.00 45.32 LIG 0.04  C 
BRANCH 23 25
ATOM     25  C   ALA B   7      -7.067  14.699  13.357  1.00 53.19 LIG 0.22  C 
ATOM     26 O    ALA B   7      -7.183  14.873  12.129  1.00 57.48 LIG-0.29  OA
ENDBRANCH 23 25
ENDBRANCH 21 23
ENDBRANCH 18 19
BRANCH 18 27
ATOM     27  CB  THR B   6      -9.106  10.005  15.725  1.00 48.13 LIG 0.15  C 
ATOM     28  CG2 THR B   6      -8.531   9.307  14.504  1.00 44.70 LIG 0.04  C 
BRANCH 27 29
ATOM     29 OG1  THR B   6      -8.137  10.018  16.786  1.00 42.78 LIG-0.39  OA
ATOM     30 HG1  THR B   6      -8.457   9.637  17.463  1.00 42.78 LIG 0.21  HD
ENDBRANCH 27 29
ENDBRANCH 18 27
ENDBRANCH 16 18
ENDBRANCH 6 14
ENDBRANCH 4 6
ENDBRANCH 1 2
BRANCH 1 31
ATOM     31  CB  LYS B   4     -10.078  13.523  10.158  1.00 35.55 LIG 0.04  C 
BRANCH 31 32
ATOM     32  CG  LYS B   4      -8.733  13.419   9.555  1.00 39.70 LIG 0.00  C 
BRANCH 32 33
ATOM     33  CD  LYS B   4      -7.879  12.472  10.360  1.00 40.13 LIG 0.03  C 
BRANCH 33 34
ATOM     34  CE  LYS B   4      -6.671  12.053   9.566  1.00 42.33 LIG 0.23  C 
BRANCH 34 35
ATOM     35  NZ  LYS B   4      -6.700  12.607   8.197  1.00 43.53 LIG-0.08  N 
ATOM     36 HZ3  LYS B   4      -7.497  12.454   7.832  1.00 43.53 LIG 0.27  HD
ATOM     37 HZ1  LYS B   4      -6.551  13.484   8.228  1.00 43.53 LIG 0.27  HD
ATOM     38 HZ2  LYS B   4      -6.069  12.217   7.706  1.00 43.53 LIG 0.27  HD
ENDBRANCH 34 35
ENDBRANCH 33 34
ENDBRANCH 32 33
ENDBRANCH 31 32
ENDBRANCH 1 31
BRANCH 1 39
ATOM     39  N   LYS B   4     -11.827  13.089   8.481  1.00 32.65 LIG-0.35  N 
ATOM     40  C   THR B   3     -11.531  12.777   7.224  1.00 34.58 LIG 0.24  C 
ATOM     41 O    THR B   3     -10.566  12.089   6.929  1.00 36.58 LIG-0.27  OA
ATOM     42 H    LYS B   4     -12.455  13.632   8.705  1.00 32.65 LIG 0.16  HD
BRANCH 40 43
ATOM     43  CA  THR B   3     -12.435  13.343   6.141  1.00 32.52 LIG 0.20  C 
BRANCH 43 44
ATOM     44  CB  THR B   3     -12.034  12.753   4.801  1.00 35.15 LIG 0.15  C 
ATOM     45  CG2 THR B   3     -13.263  12.491   3.957  1.00 35.84 LIG 0.04  C 
BRANCH 44 46
ATOM     46 OG1  THR B   3     -11.171  13.678   4.131  1.00 37.78 LIG-0.39  OA
ATOM     47 HG1  THR B   3     -10.769  14.148   4.699  1.00 37.78 LIG 0.21  HD
ENDBRANCH 44 46
ENDBRANCH 43 44
BRANCH 43 48
ATOM     48  N   THR B   3     -12.347  14.796   6.146  1.00 36.19 LIG-0.34  N 
ATOM     49  C   ARG B   2     -13.429  15.555   6.237  1.00 33.52 LIG 0.24  C 
ATOM     50 O    ARG B   2     -14.558  15.113   6.169  1.00 34.90 LIG-0.27  OA
ATOM     51 H    THR B   3     -11.546  15.104   6.088  1.00 36.19 LIG 0.16  HD
BRANCH 49 52
ATOM     52  CA  ARG B   2     -13.206  17.037   6.463  1.00 37.04 LIG 0.18  C 
BRANCH 52 53
ATOM     53  CB  ARG B   2     -13.544  17.752   5.169  1.00 37.98 LIG 0.04  C 
BRANCH 53 54
ATOM     54  CG  ARG B   2     -12.973  17.110   3.927  1.00 44.54 LIG 0.02  C 
BRANCH 54 55
ATOM     55  CD  ARG B   2     -11.747  17.893   3.558  1.00 45.57 LIG 0.14  C 
BRANCH 55 56
ATOM     56  NE  ARG B   2     -10.699  16.972   3.149  1.00 45.97 LIG-0.23  N 
ATOM     57  CZ  ARG B   2      -9.469  17.337   2.815  1.00 44.90 LIG 0.67  C 
ATOM     58  NH1 ARG B   2      -9.116  18.621   2.819  1.00 46.97 LIG-0.23  N 
ATOM     59  NH2 ARG B   2      -8.604  16.411   2.455  1.00 41.82 LIG-0.23  N 
ATOM     60 2HH1 ARG B   2      -8.315  18.848   2.601  1.00 46.97 LIG 0.17  HD
ATOM     61 1HH1 ARG B   2      -9.688  19.225   3.040  1.00 46.97 LIG 0.17  HD
ATOM     62 2HH2 ARG B   2      -7.803  16.634   2.235  1.00 41.82 LIG 0.17  HD
ATOM     63 1HH2 ARG B   2      -8.840  15.585   2.439  1.00 41.82 LIG 0.17  HD
ATOM     64 HE   ARG B   2     -10.890  16.135   3.122  1.00 45.97 LIG 0.18  HD
ENDBRANCH 55 56
ENDBRANCH 54 55
ENDBRANCH 53 54
ENDBRANCH 52 53
BRANCH 52 65
ATOM     65  N   ARG B   2     -11.823  17.274   6.846  1.00 35.35 LIG-0.35  N 
ATOM     66 H    ARG B   2     -11.318  17.561   6.212  1.00 35.35 LIG 0.16  HD
ATOM     67  C   ALA B   1     -11.413  17.054   8.086  1.00 38.28 LIG 0.25  C 
ATOM     68 O    ALA B   1     -12.184  16.718   8.983  1.00 39.08 LIG-0.27  OA
BRANCH 67 69
ATOM     69  CA  ALA B   1      -9.933  17.263   8.373  1.00 38.95 LIG 0.27  C 
ATOM     70  CB  ALA B   1      -9.290  18.145   7.313  1.00 37.91 LIG 0.05  C 
BRANCH 69 71
ATOM     71  N   ALA B   1      -9.248  15.973   8.444  1.00 44.33 LIG-0.07  N 
ATOM     72 H1   ALA B   1      -9.013  15.808   9.286  1.00 44.33 LIG 0.28  HD
ATOM     73 H2   ALA B   1      -9.793  15.331   8.157  1.00 44.33 LIG 0.28  HD
ATOM     74 H3   ALA B   1      -8.519  15.995   7.932  1.00 44.33 LIG 0.28  HD
ENDBRANCH 69 71
ENDBRANCH 67 69
ENDBRANCH 52 65
ENDBRANCH 49 52
ENDBRANCH 43 48
ENDBRANCH 40 43
ENDBRANCH 1 39
TORSDOF 30
ENDMDL
MODEL 26
USER: ADFR SOLUTION from run 71
USER: SCORE 22.628803 LL:  -5.908 LR: -19.841 RR:   0.000 FEB: -10.892
USER: RMSD 6.712684
USER: SEED 70
USER: STATUS no improvement in best in 9 clusters for 5 generations
USER: GENES 32
USER: genes 0 Translation |==|  0.69881 0.59279 0.45253
USER: genes 1 Rotation |==|  0.39120 0.45137 0.92660 0.73198
USER: genes 2 Torsion [N]-CA--C-[N] |==|  0.08578
USER: genes 3 Torsion [C]-N--CA-[CB] |==|  0.15642
USER: genes 4 Torsion [N]-CA--CB-[CG] |==|  0.20155
USER: genes 5 Torsion [CA]-CB--CG-[CD] |==|  0.80447
USER: genes 6 Torsion [CB]-CG--CD-[OE1] |==|  0.79188
USER: genes 7 Torsion [N]-CA--C-[N] |==|  0.53969
USER: genes 8 Torsion [C]-N--CA-[CB] |==|  0.25423
USER: genes 9 Torsion [N]-CA--C-[N] |==|  0.88333
USER: genes 10 Torsion [C]-N--CA-[CB] |==|  0.41933
USER: genes 11 Torsion [N]-CA--C-[O] |==|  0.84249
USER: genes 12 Torsion [N]-CA--CB-[CG2] |==|  0.57324
USER: genes 13 Torsion [CA]-CB--OG1-[HG1] |==|  0.04203
USER: genes 14 Torsion [C]-CA--CB-[CG] |==|  0.44545
USER: genes 15 Torsion [CA]-CB--CG-[CD] |==|  0.95718
USER: genes 16 Torsion [CB]-CG--CD-[CE] |==|  0.31647
USER: genes 17 Torsion [CG]-CD--CE-[NZ] |==|  0.57225
USER: genes 18 Torsion [CD]-CE--NZ-[HZ2] |==|  0.07412
USER: genes 19 Torsion [C]-CA--N-[C] |==|  0.70344
USER: genes 20 Torsion [N]-C--CA-[N] |==|  0.16328
USER: genes 21 Torsion [C]-CA--CB-[CG2] |==|  0.52689
USER: genes 22 Torsion [CA]-CB--OG1-[HG1] |==|  0.64174
USER: genes 23 Torsion [C]-CA--N-[C] |==|  0.76485
USER: genes 24 Torsion [N]-C--CA-[N] |==|  0.76331
USER: genes 25 Torsion [C]-CA--CB-[CG] |==|  0.50319
USER: genes 26 Torsion [CA]-CB--CG-[CD] |==|  0.35483
USER: genes 27 Torsion [CB]-CG--CD-[NE] |==|  0.15955
USER: genes 28 Torsion [CG]-CD--NE-[HE] |==|  0.23587
USER: genes 29 Torsion [C]-CA--N-[C] |==|  0.65930
USER: genes 30 Torsion [N]-C--CA-[N] |==|  0.38881
USER: genes 31 Torsion [C]-CA--N-[H2] |==|  0.68931
ROOT
ATOM      1  CA  LYS B   4      -7.746  11.931  12.519  1.00 37.28 LIG 0.18  C 
ENDROOT
BRANCH 1 2
ATOM      2  C   LYS B   4      -8.164  10.871  13.515  1.00 39.57 LIG 0.24  C 
ATOM      3 O    LYS B   4      -7.425  10.536  14.443  1.00 42.15 LIG-0.27  OA
ATOM      4  N   GLN B   5      -9.362  10.348  13.324  1.00 37.54 LIG-0.35  N 
ATOM      5 H    GLN B   5      -9.887  10.545  12.671  1.00 37.54 LIG 0.16  HD
BRANCH 4 6
ATOM      6  CA  GLN B   5      -9.875   9.367  14.256  1.00 44.43 LIG 0.18  C 
BRANCH 6 7
ATOM      7  CB  GLN B   5      -9.885   9.916  15.671  1.00 42.91 LIG 0.04  C 
BRANCH 7 8
ATOM      8  CG  GLN B   5     -10.955  10.936  15.859  1.00 46.61 LIG 0.10  C 
BRANCH 8 9
ATOM      9  CD  GLN B   5     -10.648  12.194  15.128  1.00 50.89 LIG 0.21  C 
ATOM     10  NE2 GLN B   5     -11.352  12.412  14.016  1.00 54.67 LIG-0.37  N 
ATOM     11 21HE GLN B   5     -11.938  11.838  13.758  1.00 54.67 LIG 0.16  HD
ATOM     12 22HE GLN B   5     -11.221  13.127  13.557  1.00 54.67 LIG 0.16  HD
ATOM     13 OE1  GLN B   5      -9.790  12.985  15.551  1.00 48.99 LIG-0.27  OA
ENDBRANCH 8 9
ENDBRANCH 7 8
ENDBRANCH 6 7
BRANCH 6 14
ATOM     14  C   GLN B   5     -11.261   8.880  13.845  1.00 45.34 LIG 0.24  C 
ATOM     15 O    GLN B   5     -11.705   9.133  12.729  1.00 47.84 LIG-0.27  OA
ATOM     16  N   THR B   6     -11.959   8.210  14.755  1.00 44.99 LIG-0.34  N 
ATOM     17 H    THR B   6     -11.698   8.060  15.560  1.00 44.99 LIG 0.16  HD
BRANCH 16 18
ATOM     18  CA  THR B   6     -13.267   7.668  14.417  1.00 47.63 LIG 0.20  C 
BRANCH 18 19
ATOM     19  C   THR B   6     -14.255   7.778  15.581  1.00 49.11 LIG 0.24  C 
ATOM     20 O    THR B   6     -15.411   8.144  15.384  1.00 51.64 LIG-0.27  OA
ATOM     21  N   ALA B   7     -13.789   7.488  16.789  1.00 46.55 LIG-0.35  N 
ATOM     22 H    ALA B   7     -12.992   7.202  16.940  1.00 46.55 LIG 0.16  HD
BRANCH 21 23
ATOM     23  CA  ALA B   7     -14.613   7.633  17.984  1.00 49.58 LIG 0.16  C 
ATOM     24  CB  ALA B   7     -14.182   6.624  19.070  1.00 45.32 LIG 0.04  C 
BRANCH 23 25
ATOM     25  C   ALA B   7     -14.540   9.072  18.508  1.00 53.19 LIG 0.22  C 
ATOM     26 O    ALA B   7     -13.442   9.585  18.796  1.00 57.48 LIG-0.29  OA
ENDBRANCH 23 25
ENDBRANCH 21 23
ENDBRANCH 18 19
BRANCH 18 27
ATOM     27  CB  THR B   6     -13.179   6.215  13.889  1.00 48.13 LIG 0.15  C 
ATOM     28  CG2 THR B   6     -14.356   5.917  12.977  1.00 44.70 LIG 0.04  C 
BRANCH 27 29
ATOM     29 OG1  THR B   6     -11.945   6.018  13.180  1.00 42.78 LIG-0.39  OA
ATOM     30 HG1  THR B   6     -11.417   6.647  13.355  1.00 42.78 LIG 0.21  HD
ENDBRANCH 27 29
ENDBRANCH 18 27
ENDBRANCH 16 18
ENDBRANCH 6 14
ENDBRANCH 4 6
ENDBRANCH 1 2
BRANCH 1 31
ATOM     31  CB  LYS B   4      -6.758  12.878  13.206  1.00 35.55 LIG 0.04  C 
BRANCH 31 32
ATOM     32  CG  LYS B   4      -5.926  13.666  12.274  1.00 39.70 LIG 0.00  C 
BRANCH 32 33
ATOM     33  CD  LYS B   4      -5.995  13.071  10.891  1.00 40.13 LIG 0.03  C 
BRANCH 33 34
ATOM     34  CE  LYS B   4      -6.681  14.022   9.946  1.00 42.33 LIG 0.23  C 
BRANCH 34 35
ATOM     35  NZ  LYS B   4      -7.312  13.308   8.818  1.00 43.53 LIG-0.08  N 
ATOM     36 HZ3  LYS B   4      -8.052  13.737   8.573  1.00 43.53 LIG 0.27  HD
ATOM     37 HZ1  LYS B   4      -6.746  13.279   8.131  1.00 43.53 LIG 0.27  HD
ATOM     38 HZ2  LYS B   4      -7.517  12.480   9.067  1.00 43.53 LIG 0.27  HD
ENDBRANCH 34 35
ENDBRANCH 33 34
ENDBRANCH 32 33
ENDBRANCH 31 32
ENDBRANCH 1 31
BRANCH 1 39
ATOM     39  N   LYS B   4      -8.918  12.651  12.045  1.00 32.65 LIG-0.35  N 
ATOM     40  C   THR B   3      -9.404  12.470  10.823  1.00 34.58 LIG 0.24  C 
ATOM     41 O    THR B   3      -8.841  11.776   9.990  1.00 36.58 LIG-0.27  OA
ATOM     42 H    LYS B   4      -9.257  13.193  12.621  1.00 32.65 LIG 0.16  HD
BRANCH 40 43
ATOM     43  CA  THR B   3     -10.696  13.193  10.478  1.00 32.52 LIG 0.20  C 
BRANCH 43 44
ATOM     44  CB  THR B   3     -11.108  12.828   9.064  1.00 35.15 LIG 0.15  C 
ATOM     45  CG2 THR B   3     -12.252  13.708   8.609  1.00 35.84 LIG 0.04  C 
BRANCH 44 46
ATOM     46 OG1  THR B   3      -9.983  13.005   8.197  1.00 37.78 LIG-0.39  OA
ATOM     47 HG1  THR B   3     -10.207  13.476   7.539  1.00 37.78 LIG 0.21  HD
ENDBRANCH 44 46
ENDBRANCH 43 44
BRANCH 43 48
ATOM     48  N   THR B   3     -10.506  14.627  10.640  1.00 36.19 LIG-0.34  N 
ATOM     49  C   ARG B   2     -10.644  15.216  11.818  1.00 33.52 LIG 0.24  C 
ATOM     50 O    ARG B   2     -11.079  14.645  12.799  1.00 34.90 LIG-0.27  OA
ATOM     51 H    THR B   3     -10.300  15.043   9.915  1.00 36.19 LIG 0.16  HD
BRANCH 49 52
ATOM     52  CA  ARG B   2     -10.203  16.662  11.915  1.00 37.04 LIG 0.18  C 
BRANCH 52 53
ATOM     53  CB  ARG B   2     -10.537  17.331  10.595  1.00 37.98 LIG 0.04  C 
BRANCH 53 54
ATOM     54  CG  ARG B   2     -10.136  18.784  10.506  1.00 44.54 LIG 0.02  C 
BRANCH 54 55
ATOM     55  CD  ARG B   2      -9.328  18.935   9.252  1.00 45.57 LIG 0.14  C 
BRANCH 55 56
ATOM     56  NE  ARG B   2     -10.121  18.493   8.117  1.00 45.97 LIG-0.23  N 
ATOM     57  CZ  ARG B   2     -10.072  17.274   7.598  1.00 44.90 LIG 0.67  C 
ATOM     58  NH1 ARG B   2      -9.247  16.355   8.095  1.00 46.97 LIG-0.23  N 
ATOM     59  NH2 ARG B   2     -10.836  16.989   6.562  1.00 41.82 LIG-0.23  N 
ATOM     60 2HH1 ARG B   2      -9.223  15.566   7.751  1.00 46.97 LIG 0.17  HD
ATOM     61 1HH1 ARG B   2      -8.738  16.549   8.762  1.00 46.97 LIG 0.17  HD
ATOM     62 2HH2 ARG B   2     -10.814  16.203   6.215  1.00 41.82 LIG 0.17  HD
ATOM     63 1HH2 ARG B   2     -11.357  17.590   6.234  1.00 41.82 LIG 0.17  HD
ATOM     64 HE   ARG B   2     -10.659  19.060   7.758  1.00 45.97 LIG 0.18  HD
ENDBRANCH 55 56
ENDBRANCH 54 55
ENDBRANCH 53 54
ENDBRANCH 52 53
BRANCH 52 65
ATOM     65  N   ARG B   2      -8.775  16.724  12.186  1.00 35.35 LIG-0.35  N 
ATOM     66 H    ARG B   2      -8.281  16.324  11.607  1.00 35.35 LIG 0.16  HD
ATOM     67  C   ALA B   1      -8.312  17.357  13.253  1.00 38.28 LIG 0.25  C 
ATOM     68 O    ALA B   1      -9.046  17.982  14.016  1.00 39.08 LIG-0.27  OA
BRANCH 67 69
ATOM     69  CA  ALA B   1      -6.809  17.305  13.490  1.00 38.95 LIG 0.27  C 
ATOM     70  CB  ALA B   1      -6.451  16.219  14.493  1.00 37.91 LIG 0.05  C 
BRANCH 69 71
ATOM     71  N   ALA B   1      -6.328  18.605  13.956  1.00 44.33 LIG-0.07  N 
ATOM     72 H1   ALA B   1      -5.852  18.496  14.701  1.00 44.33 LIG 0.28  HD
ATOM     73 H2   ALA B   1      -5.816  18.974  13.329  1.00 44.33 LIG 0.28  HD
ATOM     74 H3   ALA B   1      -7.022  19.136  14.123  1.00 44.33 LIG 0.28  HD
ENDBRANCH 69 71
ENDBRANCH 67 69
ENDBRANCH 52 65
ENDBRANCH 49 52
ENDBRANCH 43 48
ENDBRANCH 40 43
ENDBRANCH 1 39
TORSDOF 30
ENDMDL
MODEL 27
USER: ADFR SOLUTION from run 72
USER: SCORE 22.266850 LL:  -4.759 LR: -19.827 RR:   0.000 FEB: -10.878
USER: RMSD 8.388288
USER: SEED 71
USER: STATUS searching
USER: GENES 32
USER: genes 0 Translation |==|  0.72593 0.56038 0.41123
USER: genes 1 Rotation |==|  0.44121 0.84841 0.84743 0.56665
USER: genes 2 Torsion [N]-CA--C-[N] |==|  0.99238
USER: genes 3 Torsion [C]-N--CA-[CB] |==|  0.28889
USER: genes 4 Torsion [N]-CA--CB-[CG] |==|  0.34466
USER: genes 5 Torsion [CA]-CB--CG-[CD] |==|  0.27145
USER: genes 6 Torsion [CB]-CG--CD-[OE1] |==|  0.78922
USER: genes 7 Torsion [N]-CA--C-[N] |==|  0.37829
USER: genes 8 Torsion [C]-N--CA-[CB] |==|  0.85264
USER: genes 9 Torsion [N]-CA--C-[N] |==|  0.85091
USER: genes 10 Torsion [C]-N--CA-[CB] |==|  0.24913
USER: genes 11 Torsion [N]-CA--C-[O] |==|  0.28963
USER: genes 12 Torsion [N]-CA--CB-[CG2] |==|  0.44394
USER: genes 13 Torsion [CA]-CB--OG1-[HG1] |==|  0.23635
USER: genes 14 Torsion [C]-CA--CB-[CG] |==|  0.85899
USER: genes 15 Torsion [CA]-CB--CG-[CD] |==|  0.77835
USER: genes 16 Torsion [CB]-CG--CD-[CE] |==|  0.36526
USER: genes 17 Torsion [CG]-CD--CE-[NZ] |==|  0.28334
USER: genes 18 Torsion [CD]-CE--NZ-[HZ2] |==|  0.16864
USER: genes 19 Torsion [C]-CA--N-[C] |==|  0.75170
USER: genes 20 Torsion [N]-C--CA-[N] |==|  0.10166
USER: genes 21 Torsion [C]-CA--CB-[CG2] |==|  0.32286
USER: genes 22 Torsion [CA]-CB--OG1-[HG1] |==|  0.88432
USER: genes 23 Torsion [C]-CA--N-[C] |==|  0.65568
USER: genes 24 Torsion [N]-C--CA-[N] |==|  0.22983
USER: genes 25 Torsion [C]-CA--CB-[CG] |==|  0.38406
USER: genes 26 Torsion [CA]-CB--CG-[CD] |==|  0.19887
USER: genes 27 Torsion [CB]-CG--CD-[NE] |==|  0.64800
USER: genes 28 Torsion [CG]-CD--NE-[HE] |==|  0.92771
USER: genes 29 Torsion [C]-CA--N-[C] |==|  0.63854
USER: genes 30 Torsion [N]-C--CA-[N] |==|  0.50241
USER: genes 31 Torsion [C]-CA--N-[H2] |==|  0.70231
ROOT
ATOM      1  CA  LYS B   4      -7.177  11.250  11.497  1.00 37.28 LIG 0.18  C 
ENDROOT
BRANCH 1 2
ATOM      2  C   LYS B   4      -6.434  12.270  12.332  1.00 39.57 LIG 0.24  C 
ATOM      3 O    LYS B   4      -5.202  12.283  12.384  1.00 42.15 LIG-0.27  OA
ATOM      4  N   GLN B   5      -7.191  13.136  12.983  1.00 37.54 LIG-0.35  N 
ATOM      5 H    GLN B   5      -8.051  13.134  12.985  1.00 37.54 LIG 0.16  HD
BRANCH 4 6
ATOM      6  CA  GLN B   5      -6.573  14.185  13.764  1.00 44.43 LIG 0.18  C 
BRANCH 6 7
ATOM      7  CB  GLN B   5      -6.657  15.519  13.043  1.00 42.91 LIG 0.04  C 
BRANCH 7 8
ATOM      8  CG  GLN B   5      -7.322  16.557  13.880  1.00 46.61 LIG 0.10  C 
BRANCH 8 9
ATOM      9  CD  GLN B   5      -6.330  17.421  14.573  1.00 50.89 LIG 0.21  C 
ATOM     10  NE2 GLN B   5      -6.166  18.646  14.069  1.00 54.67 LIG-0.37  N 
ATOM     11 21HE GLN B   5      -6.617  18.890  13.379  1.00 54.67 LIG 0.16  HD
ATOM     12 22HE GLN B   5      -5.610  19.190  14.433  1.00 54.67 LIG 0.16  HD
ATOM     13 OE1  GLN B   5      -5.708  17.011  15.566  1.00 48.99 LIG-0.27  OA
ENDBRANCH 8 9
ENDBRANCH 7 8
ENDBRANCH 6 7
BRANCH 6 14
ATOM     14  C   GLN B   5      -7.184  14.274  15.159  1.00 45.34 LIG 0.24  C 
ATOM     15 O    GLN B   5      -8.402  14.239  15.309  1.00 47.84 LIG-0.27  OA
ATOM     16  N   THR B   6      -6.345  14.422  16.177  1.00 44.99 LIG-0.34  N 
ATOM     17 H    THR B   6      -5.492  14.500  16.101  1.00 44.99 LIG 0.16  HD
BRANCH 16 18
ATOM     18  CA  THR B   6      -6.851  14.460  17.541  1.00 47.63 LIG 0.20  C 
BRANCH 18 19
ATOM     19  C   THR B   6      -7.305  13.082  18.027  1.00 49.11 LIG 0.24  C 
ATOM     20 O    THR B   6      -6.848  12.603  19.062  1.00 51.64 LIG-0.27  OA
ATOM     21  N   ALA B   7      -8.183  12.439  17.265  1.00 46.55 LIG-0.35  N 
ATOM     22 H    ALA B   7      -8.535  12.772  16.554  1.00 46.55 LIG 0.16  HD
BRANCH 21 23
ATOM     23  CA  ALA B   7      -8.628  11.087  17.583  1.00 49.58 LIG 0.16  C 
ATOM     24  CB  ALA B   7      -9.872  11.124  18.497  1.00 45.32 LIG 0.04  C 
BRANCH 23 25
ATOM     25  C   ALA B   7      -8.913  10.305  16.295  1.00 53.19 LIG 0.22  C 
ATOM     26 O    ALA B   7      -8.113   9.442  15.889  1.00 57.48 LIG-0.29  OA
ENDBRANCH 23 25
ENDBRANCH 21 23
ENDBRANCH 18 19
BRANCH 18 27
ATOM     27  CB  THR B   6      -7.969  15.516  17.719  1.00 48.13 LIG 0.15  C 
ATOM     28  CG2 THR B   6      -8.794  15.202  18.955  1.00 44.70 LIG 0.04  C 
BRANCH 27 29
ATOM     29 OG1  THR B   6      -7.398  16.831  17.831  1.00 42.78 LIG-0.39  OA
ATOM     30 HG1  THR B   6      -7.269  17.146  17.063  1.00 42.78 LIG 0.21  HD
ENDBRANCH 27 29
ENDBRANCH 18 27
ENDBRANCH 16 18
ENDBRANCH 6 14
ENDBRANCH 4 6
ENDBRANCH 1 2
BRANCH 1 31
ATOM     31  CB  LYS B   4      -6.764  11.430  10.034  1.00 35.55 LIG 0.04  C 
BRANCH 31 32
ATOM     32  CG  LYS B   4      -6.863  12.819   9.542  1.00 39.70 LIG 0.00  C 
BRANCH 32 33
ATOM     33  CD  LYS B   4      -8.294  13.143   9.195  1.00 40.13 LIG 0.03  C 
BRANCH 33 34
ATOM     34  CE  LYS B   4      -8.696  14.457   9.810  1.00 42.33 LIG 0.23  C 
BRANCH 34 35
ATOM     35  NZ  LYS B   4      -8.690  15.549   8.816  1.00 43.53 LIG-0.08  N 
ATOM     36 HZ3  LYS B   4      -8.921  16.311   9.211  1.00 43.53 LIG 0.27  HD
ATOM     37 HZ1  LYS B   4      -7.874  15.630   8.468  1.00 43.53 LIG 0.27  HD
ATOM     38 HZ2  LYS B   4      -9.270  15.363   8.167  1.00 43.53 LIG 0.27  HD
ENDBRANCH 34 35
ENDBRANCH 33 34
ENDBRANCH 32 33
ENDBRANCH 31 32
ENDBRANCH 1 31
BRANCH 1 39
ATOM     39  N   LYS B   4      -8.612  11.429  11.661  1.00 32.65 LIG-0.35  N 
ATOM     40  C   THR B   3      -9.289  10.805  12.617  1.00 34.58 LIG 0.24  C 
ATOM     41 O    THR B   3      -8.778   9.966  13.343  1.00 36.58 LIG-0.27  OA
ATOM     42 H    LYS B   4      -8.969  11.966  11.092  1.00 32.65 LIG 0.16  HD
BRANCH 40 43
ATOM     43  CA  THR B   3     -10.762  11.155  12.762  1.00 32.52 LIG 0.20  C 
BRANCH 43 44
ATOM     44  CB  THR B   3     -11.468  10.038  13.507  1.00 35.15 LIG 0.15  C 
ATOM     45  CG2 THR B   3     -12.006  10.547  14.826  1.00 35.84 LIG 0.04  C 
BRANCH 44 46
ATOM     46 OG1  THR B   3     -12.544   9.553  12.696  1.00 37.78 LIG-0.39  OA
ATOM     47 HG1  THR B   3     -12.939  10.201  12.337  1.00 37.78 LIG 0.21  HD
ENDBRANCH 44 46
ENDBRANCH 43 44
BRANCH 43 48
ATOM     48  N   THR B   3     -11.337  11.382  11.444  1.00 36.19 LIG-0.34  N 
ATOM     49  C   ARG B   2     -11.948  12.518  11.141  1.00 33.52 LIG 0.24  C 
ATOM     50 O    ARG B   2     -12.204  13.374  11.963  1.00 34.90 LIG-0.27  OA
ATOM     51 H    THR B   3     -11.243  10.725  10.896  1.00 36.19 LIG 0.16  HD
BRANCH 49 52
ATOM     52  CA  ARG B   2     -12.304  12.734   9.684  1.00 37.04 LIG 0.18  C 
BRANCH 52 53
ATOM     53  CB  ARG B   2     -12.422  14.229   9.460  1.00 37.98 LIG 0.04  C 
BRANCH 53 54
ATOM     54  CG  ARG B   2     -11.810  14.724   8.171  1.00 44.54 LIG 0.02  C 
BRANCH 54 55
ATOM     55  CD  ARG B   2     -12.700  14.253   7.059  1.00 45.57 LIG 0.14  C 
BRANCH 55 56
ATOM     56  NE  ARG B   2     -11.900  13.535   6.081  1.00 45.97 LIG-0.23  N 
ATOM     57  CZ  ARG B   2     -12.370  12.596   5.272  1.00 44.90 LIG 0.67  C 
ATOM     58  NH1 ARG B   2     -13.650  12.232   5.323  1.00 46.97 LIG-0.23  N 
ATOM     59  NH2 ARG B   2     -11.546  12.009   4.427  1.00 41.82 LIG-0.23  N 
ATOM     60 2HH1 ARG B   2     -13.945  11.622   4.793  1.00 46.97 LIG 0.17  HD
ATOM     61 1HH1 ARG B   2     -14.182  12.607   5.886  1.00 46.97 LIG 0.17  HD
ATOM     62 2HH2 ARG B   2     -11.837  11.398   3.897  1.00 41.82 LIG 0.17  HD
ATOM     63 1HH2 ARG B   2     -10.717  12.236   4.408  1.00 41.82 LIG 0.17  HD
ATOM     64 HE   ARG B   2     -11.065  13.732   6.024  1.00 45.97 LIG 0.18  HD
ENDBRANCH 55 56
ENDBRANCH 54 55
ENDBRANCH 53 54
ENDBRANCH 52 53
BRANCH 52 65
ATOM     65  N   ARG B   2     -13.554  12.057   9.377  1.00 35.35 LIG-0.35  N 
ATOM     66 H    ARG B   2     -14.197  12.223   9.923  1.00 35.35 LIG 0.16  HD
ATOM     67  C   ALA B   1     -13.655  11.257   8.327  1.00 38.28 LIG 0.25  C 
ATOM     68 O    ALA B   1     -12.735  11.107   7.524  1.00 39.08 LIG-0.27  OA
BRANCH 67 69
ATOM     69  CA  ALA B   1     -14.983  10.539   8.129  1.00 38.95 LIG 0.27  C 
ATOM     70  CB  ALA B   1     -15.346   9.715   9.355  1.00 37.91 LIG 0.05  C 
BRANCH 69 71
ATOM     71  N   ALA B   1     -14.921   9.685   6.944  1.00 44.33 LIG-0.07  N 
ATOM     72 H1   ALA B   1     -15.246   8.880   7.140  1.00 44.33 LIG 0.28  HD
ATOM     73 H2   ALA B   1     -15.404  10.048   6.291  1.00 44.33 LIG 0.28  HD
ATOM     74 H3   ALA B   1     -14.075   9.606   6.678  1.00 44.33 LIG 0.28  HD
ENDBRANCH 69 71
ENDBRANCH 67 69
ENDBRANCH 52 65
ENDBRANCH 49 52
ENDBRANCH 43 48
ENDBRANCH 40 43
ENDBRANCH 1 39
TORSDOF 30
ENDMDL
MODEL 28
USER: ADFR SOLUTION from run 4
USER: SCORE 22.995225 LL:  -5.853 LR: -19.816 RR:   0.000 FEB: -10.867
USER: RMSD 8.714289
USER: SEED 30894
USER: STATUS searching
USER: GENES 32
USER: genes 0 Translation |==|  0.60677 0.62087 0.32458
USER: genes 1 Rotation |==|  0.34091 0.68535 0.85606 0.75211
USER: genes 2 Torsion [N]-CA--C-[N] |==|  0.41292
USER: genes 3 Torsion [C]-N--CA-[CB] |==|  0.40298
USER: genes 4 Torsion [N]-CA--CB-[CG] |==|  0.16428
USER: genes 5 Torsion [CA]-CB--CG-[CD] |==|  0.39357
USER: genes 6 Torsion [CB]-CG--CD-[OE1] |==|  0.66577
USER: genes 7 Torsion [N]-CA--C-[N] |==|  0.19049
USER: genes 8 Torsion [C]-N--CA-[CB] |==|  0.51112
USER: genes 9 Torsion [N]-CA--C-[N] |==|  0.40241
USER: genes 10 Torsion [C]-N--CA-[CB] |==|  0.49144
USER: genes 11 Torsion [N]-CA--C-[O] |==|  0.74586
USER: genes 12 Torsion [N]-CA--CB-[CG2] |==|  0.40365
USER: genes 13 Torsion [CA]-CB--OG1-[HG1] |==|  0.61387
USER: genes 14 Torsion [C]-CA--CB-[CG] |==|  0.14816
USER: genes 15 Torsion [CA]-CB--CG-[CD] |==|  0.65456
USER: genes 16 Torsion [CB]-CG--CD-[CE] |==|  0.47595
USER: genes 17 Torsion [CG]-CD--CE-[NZ] |==|  0.51726
USER: genes 18 Torsion [CD]-CE--NZ-[HZ2] |==|  0.75276
USER: genes 19 Torsion [C]-CA--N-[C] |==|  0.59190
USER: genes 20 Torsion [N]-C--CA-[N] |==|  0.06660
USER: genes 21 Torsion [C]-CA--CB-[CG2] |==|  0.37257
USER: genes 22 Torsion [CA]-CB--OG1-[HG1] |==|  0.18495
USER: genes 23 Torsion [C]-CA--N-[C] |==|  0.64571
USER: genes 24 Torsion [N]-C--CA-[N] |==|  0.98866
USER: genes 25 Torsion [C]-CA--CB-[CG] |==|  0.91550
USER: genes 26 Torsion [CA]-CB--CG-[CD] |==|  0.72333
USER: genes 27 Torsion [CB]-CG--CD-[NE] |==|  0.25258
USER: genes 28 Torsion [CG]-CD--NE-[HE] |==|  0.08874
USER: genes 29 Torsion [C]-CA--N-[C] |==|  0.77128
USER: genes 30 Torsion [N]-C--CA-[N] |==|  0.72653
USER: genes 31 Torsion [C]-CA--N-[H2] |==|  0.04421
ROOT
ATOM      1  CA  LYS B   4      -9.679  12.520   9.352  1.00 37.28 LIG 0.18  C 
ENDROOT
BRANCH 1 2
ATOM      2  C   LYS B   4      -9.988  12.820  10.802  1.00 39.57 LIG 0.24  C 
ATOM      3 O    LYS B   4     -10.556  13.863  11.135  1.00 42.15 LIG-0.27  OA
ATOM      4  N   GLN B   5      -9.618  11.894  11.669  1.00 37.54 LIG-0.35  N 
ATOM      5 H    GLN B   5      -9.198  11.171  11.468  1.00 37.54 LIG 0.16  HD
BRANCH 4 6
ATOM      6  CA  GLN B   5      -9.920  12.063  13.074  1.00 44.43 LIG 0.18  C 
BRANCH 6 7
ATOM      7  CB  GLN B   5     -10.228  10.727  13.727  1.00 42.91 LIG 0.04  C 
BRANCH 7 8
ATOM      8  CG  GLN B   5      -9.085   9.778  13.606  1.00 46.61 LIG 0.10  C 
BRANCH 8 9
ATOM      9  CD  GLN B   5      -8.914   8.966  14.839  1.00 50.89 LIG 0.21  C 
ATOM     10  NE2 GLN B   5      -9.952   8.203  15.188  1.00 54.67 LIG-0.37  N 
ATOM     11 21HE GLN B   5     -10.667   8.207  14.711  1.00 54.67 LIG 0.16  HD
ATOM     12 22HE GLN B   5      -9.906   7.708  15.889  1.00 54.67 LIG 0.16  HD
ATOM     13 OE1  GLN B   5      -7.855   9.003  15.487  1.00 48.99 LIG-0.27  OA
ENDBRANCH 8 9
ENDBRANCH 7 8
ENDBRANCH 6 7
BRANCH 6 14
ATOM     14  C   GLN B   5      -8.791  12.784  13.804  1.00 45.34 LIG 0.24  C 
ATOM     15 O    GLN B   5      -8.120  12.199  14.648  1.00 47.84 LIG-0.27  OA
ATOM     16  N   THR B   6      -8.600  14.064  13.504  1.00 44.99 LIG-0.34  N 
ATOM     17 H    THR B   6      -9.084  14.516  12.955  1.00 44.99 LIG 0.16  HD
BRANCH 16 18
ATOM     18  CA  THR B   6      -7.507  14.803  14.120  1.00 47.63 LIG 0.20  C 
BRANCH 18 19
ATOM     19  C   THR B   6      -7.484  14.636  15.641  1.00 49.11 LIG 0.24  C 
ATOM     20 O    THR B   6      -8.533  14.565  16.277  1.00 51.64 LIG-0.27  OA
ATOM     21  N   ALA B   7      -6.290  14.600  16.220  1.00 46.55 LIG-0.35  N 
ATOM     22 H    ALA B   7      -5.546  14.619  15.787  1.00 46.55 LIG 0.16  HD
BRANCH 21 23
ATOM     23  CA  ALA B   7      -6.142  14.525  17.669  1.00 49.58 LIG 0.16  C 
ATOM     24  CB  ALA B   7      -4.652  14.420  18.061  1.00 45.32 LIG 0.04  C 
BRANCH 23 25
ATOM     25  C   ALA B   7      -6.803  15.738  18.334  1.00 53.19 LIG 0.22  C 
ATOM     26 O    ALA B   7      -6.144  16.769  18.567  1.00 57.48 LIG-0.29  OA
ENDBRANCH 23 25
ENDBRANCH 21 23
ENDBRANCH 18 19
BRANCH 18 27
ATOM     27  CB  THR B   6      -7.514  16.298  13.718  1.00 48.13 LIG 0.15  C 
ATOM     28  CG2 THR B   6      -7.038  17.154  14.878  1.00 44.70 LIG 0.04  C 
BRANCH 27 29
ATOM     29 OG1  THR B   6      -6.671  16.509  12.572  1.00 42.78 LIG-0.39  OA
ATOM     30 HG1  THR B   6      -6.234  17.219  12.673  1.00 42.78 LIG 0.21  HD
ENDBRANCH 27 29
ENDBRANCH 18 27
ENDBRANCH 16 18
ENDBRANCH 6 14
ENDBRANCH 4 6
ENDBRANCH 1 2
BRANCH 1 31
ATOM     31  CB  LYS B   4      -8.286  13.069   9.031  1.00 35.55 LIG 0.04  C 
BRANCH 31 32
ATOM     32  CG  LYS B   4      -7.225  12.606   9.948  1.00 39.70 LIG 0.00  C 
BRANCH 32 33
ATOM     33  CD  LYS B   4      -6.516  13.790  10.557  1.00 40.13 LIG 0.03  C 
BRANCH 33 34
ATOM     34  CE  LYS B   4      -5.582  13.337  11.646  1.00 42.33 LIG 0.23  C 
BRANCH 34 35
ATOM     35  NZ  LYS B   4      -4.982  14.482  12.361  1.00 43.53 LIG-0.08  N 
ATOM     36 HZ3  LYS B   4      -5.555  15.163  12.364  1.00 43.53 LIG 0.27  HD
ATOM     37 HZ1  LYS B   4      -4.798  14.245  13.199  1.00 43.53 LIG 0.27  HD
ATOM     38 HZ2  LYS B   4      -4.232  14.728  11.952  1.00 43.53 LIG 0.27  HD
ENDBRANCH 34 35
ENDBRANCH 33 34
ENDBRANCH 32 33
ENDBRANCH 31 32
ENDBRANCH 1 31
BRANCH 1 39
ATOM     39  N   LYS B   4     -10.689  13.125   8.498  1.00 32.65 LIG-0.35  N 
ATOM     40  C   THR B   3     -11.070  12.560   7.358  1.00 34.58 LIG 0.24  C 
ATOM     41 O    THR B   3     -10.526  11.566   6.905  1.00 36.58 LIG-0.27  OA
ATOM     42 H    LYS B   4     -11.008  13.867   8.796  1.00 32.65 LIG 0.16  HD
BRANCH 40 43
ATOM     43  CA  THR B   3     -12.212  13.225   6.605  1.00 32.52 LIG 0.20  C 
BRANCH 43 44
ATOM     44  CB  THR B   3     -11.997  13.043   5.114  1.00 35.15 LIG 0.15  C 
ATOM     45  CG2 THR B   3     -13.285  12.608   4.449  1.00 35.84 LIG 0.04  C 
BRANCH 44 46
ATOM     46 OG1  THR B   3     -11.558  14.288   4.558  1.00 37.78 LIG-0.39  OA
ATOM     47 HG1  THR B   3     -10.796  14.475   4.856  1.00 37.78 LIG 0.21  HD
ENDBRANCH 44 46
ENDBRANCH 43 44
BRANCH 43 48
ATOM     48  N   THR B   3     -12.285  14.631   6.979  1.00 36.19 LIG-0.34  N 
ATOM     49  C   ARG B   2     -13.415  15.177   7.401  1.00 33.52 LIG 0.24  C 
ATOM     50 O    ARG B   2     -14.485  14.603   7.364  1.00 34.90 LIG-0.27  OA
ATOM     51 H    THR B   3     -11.543  15.059   6.902  1.00 36.19 LIG 0.16  HD
BRANCH 49 52
ATOM     52  CA  ARG B   2     -13.324  16.576   7.977  1.00 37.04 LIG 0.18  C 
BRANCH 52 53
ATOM     53  CB  ARG B   2     -14.141  17.491   7.084  1.00 37.98 LIG 0.04  C 
BRANCH 53 54
ATOM     54  CG  ARG B   2     -14.192  17.073   5.634  1.00 44.54 LIG 0.02  C 
BRANCH 54 55
ATOM     55  CD  ARG B   2     -13.190  17.916   4.903  1.00 45.57 LIG 0.14  C 
BRANCH 55 56
ATOM     56  NE  ARG B   2     -11.909  17.229   4.889  1.00 45.97 LIG-0.23  N 
ATOM     57  CZ  ARG B   2     -10.732  17.837   4.903  1.00 44.90 LIG 0.67  C 
ATOM     58  NH1 ARG B   2     -10.652  19.167   4.913  1.00 46.97 LIG-0.23  N 
ATOM     59  NH2 ARG B   2      -9.635  17.107   4.882  1.00 41.82 LIG-0.23  N 
ATOM     60 2HH1 ARG B   2      -9.883  19.552   4.921  1.00 46.97 LIG 0.17  HD
ATOM     61 1HH1 ARG B   2     -11.371  19.640   4.910  1.00 46.97 LIG 0.17  HD
ATOM     62 2HH2 ARG B   2      -8.864  17.488   4.890  1.00 41.82 LIG 0.17  HD
ATOM     63 1HH2 ARG B   2      -9.690  16.249   4.860  1.00 41.82 LIG 0.17  HD
ATOM     64 HE   ARG B   2     -11.916  16.369   4.871  1.00 45.97 LIG 0.18  HD
ENDBRANCH 55 56
ENDBRANCH 54 55
ENDBRANCH 53 54
ENDBRANCH 52 53
BRANCH 52 65
ATOM     65  N   ARG B   2     -11.933  16.998   8.027  1.00 35.35 LIG-0.35  N 
ATOM     66 H    ARG B   2     -11.682  17.491   7.369  1.00 35.35 LIG 0.16  HD
ATOM     67  C   ALA B   1     -11.146  16.631   9.027  1.00 38.28 LIG 0.25  C 
ATOM     68 O    ALA B   1     -11.563  15.989   9.989  1.00 39.08 LIG-0.27  OA
BRANCH 67 69
ATOM     69  CA  ALA B   1      -9.688  17.063   8.954  1.00 38.95 LIG 0.27  C 
ATOM     70  CB  ALA B   1      -9.526  18.297   8.080  1.00 37.91 LIG 0.05  C 
BRANCH 69 71
ATOM     71  N   ALA B   1      -8.864  15.968   8.444  1.00 44.33 LIG-0.07  N 
ATOM     72 H1   ALA B   1      -8.414  15.597   9.116  1.00 44.33 LIG 0.28  HD
ATOM     73 H2   ALA B   1      -9.386  15.356   8.063  1.00 44.33 LIG 0.28  HD
ATOM     74 H3   ALA B   1      -8.290  16.284   7.842  1.00 44.33 LIG 0.28  HD
ENDBRANCH 69 71
ENDBRANCH 67 69
ENDBRANCH 52 65
ENDBRANCH 49 52
ENDBRANCH 43 48
ENDBRANCH 40 43
ENDBRANCH 1 39
TORSDOF 30
ENDMDL
MODEL 29
USER: ADFR SOLUTION from run 122
USER: SCORE 21.957335 LL:  -3.939 LR: -19.802 RR:   0.000 FEB: -10.853
USER: RMSD 8.878275
USER: SEED 121
USER: STATUS no improvement in best in 1 clusters for 5 generations
USER: GENES 32
USER: genes 0 Translation |==|  0.70360 0.65158 0.51503
USER: genes 1 Rotation |==|  0.34007 0.74072 0.90788 0.51038
USER: genes 2 Torsion [N]-CA--C-[N] |==|  0.43889
USER: genes 3 Torsion [C]-N--CA-[CB] |==|  0.86091
USER: genes 4 Torsion [N]-CA--CB-[CG] |==|  0.74227
USER: genes 5 Torsion [CA]-CB--CG-[CD] |==|  0.26117
USER: genes 6 Torsion [CB]-CG--CD-[OE1] |==|  0.83802
USER: genes 7 Torsion [N]-CA--C-[N] |==|  0.89977
USER: genes 8 Torsion [C]-N--CA-[CB] |==|  0.48497
USER: genes 9 Torsion [N]-CA--C-[N] |==|  0.26240
USER: genes 10 Torsion [C]-N--CA-[CB] |==|  0.82202
USER: genes 11 Torsion [N]-CA--C-[O] |==|  0.45284
USER: genes 12 Torsion [N]-CA--CB-[CG2] |==|  0.04532
USER: genes 13 Torsion [CA]-CB--OG1-[HG1] |==|  0.68450
USER: genes 14 Torsion [C]-CA--CB-[CG] |==|  0.40673
USER: genes 15 Torsion [CA]-CB--CG-[CD] |==|  0.88524
USER: genes 16 Torsion [CB]-CG--CD-[CE] |==|  0.69959
USER: genes 17 Torsion [CG]-CD--CE-[NZ] |==|  0.14010
USER: genes 18 Torsion [CD]-CE--NZ-[HZ2] |==|  0.50046
USER: genes 19 Torsion [C]-CA--N-[C] |==|  0.56374
USER: genes 20 Torsion [N]-C--CA-[N] |==|  0.30275
USER: genes 21 Torsion [C]-CA--CB-[CG2] |==|  0.26506
USER: genes 22 Torsion [CA]-CB--OG1-[HG1] |==|  0.39708
USER: genes 23 Torsion [C]-CA--N-[C] |==|  0.70769
USER: genes 24 Torsion [N]-C--CA-[N] |==|  0.86890
USER: genes 25 Torsion [C]-CA--CB-[CG] |==|  0.41571
USER: genes 26 Torsion [CA]-CB--CG-[CD] |==|  0.11286
USER: genes 27 Torsion [CB]-CG--CD-[NE] |==|  0.21460
USER: genes 28 Torsion [CG]-CD--NE-[HE] |==|  0.04714
USER: genes 29 Torsion [C]-CA--N-[C] |==|  0.86091
USER: genes 30 Torsion [N]-C--CA-[N] |==|  0.37740
USER: genes 31 Torsion [C]-CA--N-[H2] |==|  0.42588
ROOT
ATOM      1  CA  LYS B   4      -7.645  13.165  14.066  1.00 37.28 LIG 0.18  C 
ENDROOT
BRANCH 1 2
ATOM      2  C   LYS B   4      -7.580  13.974  15.342  1.00 39.57 LIG 0.24  C 
ATOM      3 O    LYS B   4      -8.602  14.400  15.886  1.00 42.15 LIG-0.27  OA
ATOM      4  N   GLN B   5      -6.369  14.180  15.828  1.00 37.54 LIG-0.35  N 
ATOM      5 H    GLN B   5      -5.638  13.917  15.457  1.00 37.54 LIG 0.16  HD
BRANCH 4 6
ATOM      6  CA  GLN B   5      -6.206  14.895  17.076  1.00 44.43 LIG 0.18  C 
BRANCH 6 7
ATOM      7  CB  GLN B   5      -6.988  16.196  17.061  1.00 42.91 LIG 0.04  C 
BRANCH 7 8
ATOM      8  CG  GLN B   5      -6.149  17.337  16.599  1.00 46.61 LIG 0.10  C 
BRANCH 8 9
ATOM      9  CD  GLN B   5      -6.300  17.572  15.138  1.00 50.89 LIG 0.21  C 
ATOM     10  NE2 GLN B   5      -6.716  18.789  14.780  1.00 54.67 LIG-0.37  N 
ATOM     11 21HE GLN B   5      -6.885  19.379  15.381  1.00 54.67 LIG 0.16  HD
ATOM     12 22HE GLN B   5      -6.816  18.982  13.948  1.00 54.67 LIG 0.16  HD
ATOM     13 OE1  GLN B   5      -6.040  16.678  14.317  1.00 48.99 LIG-0.27  OA
ENDBRANCH 8 9
ENDBRANCH 7 8
ENDBRANCH 6 7
BRANCH 6 14
ATOM     14  C   GLN B   5      -6.599  14.029  18.269  1.00 45.34 LIG 0.24  C 
ATOM     15 O    GLN B   5      -5.966  14.091  19.319  1.00 47.84 LIG-0.27  OA
ATOM     16  N   THR B   6      -7.622  13.200  18.101  1.00 44.99 LIG-0.34  N 
ATOM     17 H    THR B   6      -8.053  13.096  17.365  1.00 44.99 LIG 0.16  HD
BRANCH 16 18
ATOM     18  CA  THR B   6      -8.088  12.382  19.212  1.00 47.63 LIG 0.20  C 
BRANCH 18 19
ATOM     19  C   THR B   6      -6.992  11.461  19.750  1.00 49.11 LIG 0.24  C 
ATOM     20 O    THR B   6      -6.806  10.354  19.250  1.00 51.64 LIG-0.27  OA
ATOM     21  N   ALA B   7      -6.288  11.909  20.783  1.00 46.55 LIG-0.35  N 
ATOM     22 H    ALA B   7      -6.384  12.692  21.126  1.00 46.55 LIG 0.16  HD
BRANCH 21 23
ATOM     23  CA  ALA B   7      -5.271  11.088  21.431  1.00 49.58 LIG 0.16  C 
ATOM     24  CB  ALA B   7      -5.911   9.844  22.085  1.00 45.32 LIG 0.04  C 
BRANCH 23 25
ATOM     25  C   ALA B   7      -4.189  10.686  20.422  1.00 53.19 LIG 0.22  C 
ATOM     26 O    ALA B   7      -3.086  10.262  20.814  1.00 57.48 LIG-0.29  OA
ENDBRANCH 23 25
ENDBRANCH 21 23
ENDBRANCH 18 19
BRANCH 18 27
ATOM     27  CB  THR B   6      -9.367  11.586  18.854  1.00 48.13 LIG 0.15  C 
ATOM     28  CG2 THR B   6      -9.561  11.556  17.348  1.00 44.70 LIG 0.04  C 
BRANCH 27 29
ATOM     29 OG1  THR B   6      -9.278  10.246  19.366  1.00 42.78 LIG-0.39  OA
ATOM     30 HG1  THR B   6      -9.239   9.703  18.727  1.00 42.78 LIG 0.21  HD
ENDBRANCH 27 29
ENDBRANCH 18 27
ENDBRANCH 16 18
ENDBRANCH 6 14
ENDBRANCH 4 6
ENDBRANCH 1 2
BRANCH 1 31
ATOM     31  CB  LYS B   4      -7.323  14.090  12.890  1.00 35.55 LIG 0.04  C 
BRANCH 31 32
ATOM     32  CG  LYS B   4      -6.602  13.433  11.781  1.00 39.70 LIG 0.00  C 
BRANCH 32 33
ATOM     33  CD  LYS B   4      -5.545  12.508  12.329  1.00 40.13 LIG 0.03  C 
BRANCH 33 34
ATOM     34  CE  LYS B   4      -4.174  13.081  12.092  1.00 42.33 LIG 0.23  C 
BRANCH 34 35
ATOM     35  NZ  LYS B   4      -4.083  14.482  12.549  1.00 43.53 LIG-0.08  N 
ATOM     36 HZ3  LYS B   4      -4.676  14.977  12.107  1.00 43.53 LIG 0.27  HD
ATOM     37 HZ1  LYS B   4      -4.254  14.522  13.422  1.00 43.53 LIG 0.27  HD
ATOM     38 HZ2  LYS B   4      -3.263  14.792  12.393  1.00 43.53 LIG 0.27  HD
ENDBRANCH 34 35
ENDBRANCH 33 34
ENDBRANCH 32 33
ENDBRANCH 31 32
ENDBRANCH 1 31
BRANCH 1 39
ATOM     39  N   LYS B   4      -8.969  12.577  13.922  1.00 32.65 LIG-0.35  N 
ATOM     40  C   THR B   3      -9.177  11.498  13.177  1.00 34.58 LIG 0.24  C 
ATOM     41 O    THR B   3      -8.303  11.000  12.485  1.00 36.58 LIG-0.27  OA
ATOM     42 H    LYS B   4      -9.588  12.988  14.356  1.00 32.65 LIG 0.16  HD
BRANCH 40 43
ATOM     43  CA  THR B   3     -10.579  10.909  13.191  1.00 32.52 LIG 0.20  C 
BRANCH 43 44
ATOM     44  CB  THR B   3     -10.492   9.427  13.506  1.00 35.15 LIG 0.15  C 
ATOM     45  CG2 THR B   3     -10.702   9.194  14.986  1.00 35.84 LIG 0.04  C 
BRANCH 44 46
ATOM     46 OG1  THR B   3     -11.499   8.738  12.756  1.00 37.78 LIG-0.39  OA
ATOM     47 HG1  THR B   3     -11.199   7.996  12.501  1.00 37.78 LIG 0.21  HD
ENDBRANCH 44 46
ENDBRANCH 43 44
BRANCH 43 48
ATOM     48  N   THR B   3     -11.222  11.158  11.908  1.00 36.19 LIG-0.34  N 
ATOM     49  C   ARG B   2     -12.164  12.080  11.774  1.00 33.52 LIG 0.24  C 
ATOM     50 O    ARG B   2     -12.659  12.666  12.715  1.00 34.90 LIG-0.27  OA
ATOM     51 H    THR B   3     -10.938  10.663  11.265  1.00 36.19 LIG 0.16  HD
BRANCH 49 52
ATOM     52  CA  ARG B   2     -12.598  12.411  10.360  1.00 37.04 LIG 0.18  C 
BRANCH 52 53
ATOM     53  CB  ARG B   2     -13.441  11.254   9.859  1.00 37.98 LIG 0.04  C 
BRANCH 53 54
ATOM     54  CG  ARG B   2     -14.509  11.637   8.863  1.00 44.54 LIG 0.02  C 
BRANCH 54 55
ATOM     55  CD  ARG B   2     -13.900  12.653   7.942  1.00 45.57 LIG 0.14  C 
BRANCH 55 56
ATOM     56  NE  ARG B   2     -13.039  11.975   6.988  1.00 45.97 LIG-0.23  N 
ATOM     57  CZ  ARG B   2     -12.113  12.577   6.254  1.00 44.90 LIG 0.67  C 
ATOM     58  NH1 ARG B   2     -11.925  13.892   6.340  1.00 46.97 LIG-0.23  N 
ATOM     59  NH2 ARG B   2     -11.395  11.857   5.415  1.00 41.82 LIG-0.23  N 
ATOM     60 2HH1 ARG B   2     -11.322  14.273   5.859  1.00 46.97 LIG 0.17  HD
ATOM     61 1HH1 ARG B   2     -12.406  14.361   6.877  1.00 46.97 LIG 0.17  HD
ATOM     62 2HH2 ARG B   2     -10.791  12.234   4.933  1.00 41.82 LIG 0.17  HD
ATOM     63 1HH2 ARG B   2     -11.529  11.010   5.351  1.00 41.82 LIG 0.17  HD
ATOM     64 HE   ARG B   2     -13.136  11.126   6.893  1.00 45.97 LIG 0.18  HD
ENDBRANCH 55 56
ENDBRANCH 54 55
ENDBRANCH 53 54
ENDBRANCH 52 53
BRANCH 52 65
ATOM     65  N   ARG B   2     -11.428  12.609   9.519  1.00 35.35 LIG-0.35  N 
ATOM     66 H    ARG B   2     -11.435  12.167   8.782  1.00 35.35 LIG 0.16  HD
ATOM     67  C   ALA B   1     -10.448  13.417   9.895  1.00 38.28 LIG 0.25  C 
ATOM     68 O    ALA B   1     -10.510  14.091  10.922  1.00 39.08 LIG-0.27  OA
BRANCH 67 69
ATOM     69  CA  ALA B   1      -9.233  13.504   8.982  1.00 38.95 LIG 0.27  C 
ATOM     70  CB  ALA B   1      -8.080  12.676   9.527  1.00 37.91 LIG 0.05  C 
BRANCH 69 71
ATOM     71  N   ALA B   1      -8.825  14.898   8.819  1.00 44.33 LIG-0.07  N 
ATOM     72 H1   ALA B   1      -8.988  15.345   9.571  1.00 44.33 LIG 0.28  HD
ATOM     73 H2   ALA B   1      -7.955  14.933   8.637  1.00 44.33 LIG 0.28  HD
ATOM     74 H3   ALA B   1      -9.283  15.265   8.150  1.00 44.33 LIG 0.28  HD
ENDBRANCH 69 71
ENDBRANCH 67 69
ENDBRANCH 52 65
ENDBRANCH 49 52
ENDBRANCH 43 48
ENDBRANCH 40 43
ENDBRANCH 1 39
TORSDOF 30
ENDMDL
MODEL 30
USER: ADFR SOLUTION from run 65
USER: SCORE 23.476711 LL:  -4.214 LR: -19.786 RR:   0.000 FEB: -10.837
USER: RMSD 8.535065
USER: SEED 64
USER: STATUS no improvement in best in 1 clusters for 5 generations
USER: GENES 32
USER: genes 0 Translation |==|  0.59644 0.65520 0.32588
USER: genes 1 Rotation |==|  0.46159 0.56525 0.98795 0.57855
USER: genes 2 Torsion [N]-CA--C-[N] |==|  0.28948
USER: genes 3 Torsion [C]-N--CA-[CB] |==|  0.83247
USER: genes 4 Torsion [N]-CA--CB-[CG] |==|  0.90636
USER: genes 5 Torsion [CA]-CB--CG-[CD] |==|  0.58811
USER: genes 6 Torsion [CB]-CG--CD-[OE1] |==|  0.19372
USER: genes 7 Torsion [N]-CA--C-[N] |==|  0.38114
USER: genes 8 Torsion [C]-N--CA-[CB] |==|  0.83622
USER: genes 9 Torsion [N]-CA--C-[N] |==|  0.34470
USER: genes 10 Torsion [C]-N--CA-[CB] |==|  0.33954
USER: genes 11 Torsion [N]-CA--C-[O] |==|  0.13558
USER: genes 12 Torsion [N]-CA--CB-[CG2] |==|  0.47279
USER: genes 13 Torsion [CA]-CB--OG1-[HG1] |==|  0.74902
USER: genes 14 Torsion [C]-CA--CB-[CG] |==|  0.65577
USER: genes 15 Torsion [CA]-CB--CG-[CD] |==|  0.42317
USER: genes 16 Torsion [CB]-CG--CD-[CE] |==|  0.25485
USER: genes 17 Torsion [CG]-CD--CE-[NZ] |==|  0.87483
USER: genes 18 Torsion [CD]-CE--NZ-[HZ2] |==|  0.16487
USER: genes 19 Torsion [C]-CA--N-[C] |==|  0.62778
USER: genes 20 Torsion [N]-C--CA-[N] |==|  0.37242
USER: genes 21 Torsion [C]-CA--CB-[CG2] |==|  0.37428
USER: genes 22 Torsion [CA]-CB--OG1-[HG1] |==|  0.24148
USER: genes 23 Torsion [C]-CA--N-[C] |==|  0.79178
USER: genes 24 Torsion [N]-C--CA-[N] |==|  0.87506
USER: genes 25 Torsion [C]-CA--CB-[CG] |==|  0.68427
USER: genes 26 Torsion [CA]-CB--CG-[CD] |==|  0.34166
USER: genes 27 Torsion [CB]-CG--CD-[NE] |==|  0.68957
USER: genes 28 Torsion [CG]-CD--NE-[HE] |==|  0.96702
USER: genes 29 Torsion [C]-CA--N-[C] |==|  0.84019
USER: genes 30 Torsion [N]-C--CA-[N] |==|  0.69171
USER: genes 31 Torsion [C]-CA--N-[H2] |==|  0.12015
ROOT
ATOM      1  CA  LYS B   4      -9.896  13.241   9.384  1.00 37.28 LIG 0.18  C 
ENDROOT
BRANCH 1 2
ATOM      2  C   LYS B   4      -9.276  12.768  10.680  1.00 39.57 LIG 0.24  C 
ATOM      3 O    LYS B   4      -9.365  13.433  11.715  1.00 42.15 LIG-0.27  OA
ATOM      4  N   GLN B   5      -8.651  11.605  10.624  1.00 37.54 LIG-0.35  N 
ATOM      5 H    GLN B   5      -8.552  11.133   9.912  1.00 37.54 LIG 0.16  HD
BRANCH 4 6
ATOM      6  CA  GLN B   5      -8.074  11.040  11.825  1.00 44.43 LIG 0.18  C 
BRANCH 6 7
ATOM      7  CB  GLN B   5      -7.019  11.965  12.406  1.00 42.91 LIG 0.04  C 
BRANCH 7 8
ATOM      8  CG  GLN B   5      -6.284  12.702  11.340  1.00 46.61 LIG 0.10  C 
BRANCH 8 9
ATOM      9  CD  GLN B   5      -4.876  12.976  11.733  1.00 50.89 LIG 0.21  C 
ATOM     10  NE2 GLN B   5      -4.578  14.251  11.990  1.00 54.67 LIG-0.37  N 
ATOM     11 21HE GLN B   5      -5.182  14.857  11.919  1.00 54.67 LIG 0.16  HD
ATOM     12 22HE GLN B   5      -3.780  14.466  12.228  1.00 54.67 LIG 0.16  HD
ATOM     13 OE1  GLN B   5      -4.047  12.056  11.819  1.00 48.99 LIG-0.27  OA
ENDBRANCH 8 9
ENDBRANCH 7 8
ENDBRANCH 6 7
BRANCH 6 14
ATOM     14  C   GLN B   5      -9.147  10.711  12.858  1.00 45.34 LIG 0.24  C 
ATOM     15 O    GLN B   5     -10.050  11.507  13.093  1.00 47.84 LIG-0.27  OA
ATOM     16  N   THR B   6      -9.033   9.553  13.498  1.00 44.99 LIG-0.34  N 
ATOM     17 H    THR B   6      -8.386   8.997  13.393  1.00 44.99 LIG 0.16  HD
BRANCH 16 18
ATOM     18  CA  THR B   6     -10.049   9.147  14.458  1.00 47.63 LIG 0.20  C 
BRANCH 18 19
ATOM     19  C   THR B   6     -11.394   8.859  13.788  1.00 49.11 LIG 0.24  C 
ATOM     20 O    THR B   6     -11.951   9.721  13.113  1.00 51.64 LIG-0.27  OA
ATOM     21  N   ALA B   7     -11.921   7.659  13.997  1.00 46.55 LIG-0.35  N 
ATOM     22 H    ALA B   7     -11.531   7.034  14.442  1.00 46.55 LIG 0.16  HD
BRANCH 21 23
ATOM     23  CA  ALA B   7     -13.235   7.297  13.477  1.00 49.58 LIG 0.16  C 
ATOM     24  CB  ALA B   7     -13.137   6.054  12.567  1.00 45.32 LIG 0.04  C 
BRANCH 23 25
ATOM     25  C   ALA B   7     -14.216   7.061  14.631  1.00 53.19 LIG 0.22  C 
ATOM     26 O    ALA B   7     -14.318   7.889  15.555  1.00 57.48 LIG-0.29  OA
ENDBRANCH 23 25
ENDBRANCH 21 23
ENDBRANCH 18 19
BRANCH 18 27
ATOM     27  CB  THR B   6     -10.202  10.168  15.612  1.00 48.13 LIG 0.15  C 
ATOM     28  CG2 THR B   6     -11.424   9.832  16.449  1.00 44.70 LIG 0.04  C 
BRANCH 27 29
ATOM     29 OG1  THR B   6      -9.025  10.167  16.437  1.00 42.78 LIG-0.39  OA
ATOM     30 HG1  THR B   6      -9.117   9.607  17.057  1.00 42.78 LIG 0.21  HD
ENDBRANCH 27 29
ENDBRANCH 18 27
ENDBRANCH 16 18
ENDBRANCH 6 14
ENDBRANCH 4 6
ENDBRANCH 1 2
BRANCH 1 31
ATOM     31  CB  LYS B   4      -9.542  14.718   9.189  1.00 35.55 LIG 0.04  C 
BRANCH 31 32
ATOM     32  CG  LYS B   4     -10.711  15.604   9.016  1.00 39.70 LIG 0.00  C 
BRANCH 32 33
ATOM     33  CD  LYS B   4     -10.380  16.994   9.497  1.00 40.13 LIG 0.03  C 
BRANCH 33 34
ATOM     34  CE  LYS B   4      -9.855  17.830   8.361  1.00 42.33 LIG 0.23  C 
BRANCH 34 35
ATOM     35  NZ  LYS B   4      -8.862  17.093   7.555  1.00 43.53 LIG-0.08  N 
ATOM     36 HZ3  LYS B   4      -8.579  17.609   6.888  1.00 43.53 LIG 0.27  HD
ATOM     37 HZ1  LYS B   4      -8.171  16.866   8.069  1.00 43.53 LIG 0.27  HD
ATOM     38 HZ2  LYS B   4      -9.236  16.357   7.222  1.00 43.53 LIG 0.27  HD
ENDBRANCH 34 35
ENDBRANCH 33 34
ENDBRANCH 32 33
ENDBRANCH 31 32
ENDBRANCH 1 31
BRANCH 1 39
ATOM     39  N   LYS B   4     -11.338  13.051   9.429  1.00 32.65 LIG-0.35  N 
ATOM     40  C   THR B   3     -12.004  12.513   8.414  1.00 34.58 LIG 0.24  C 
ATOM     41 O    THR B   3     -11.472  12.248   7.348  1.00 36.58 LIG-0.27  OA
ATOM     42 H    LYS B   4     -11.708  13.314  10.160  1.00 32.65 LIG 0.16  HD
BRANCH 40 43
ATOM     43  CA  THR B   3     -13.490  12.261   8.619  1.00 32.52 LIG 0.20  C 
BRANCH 43 44
ATOM     44  CB  THR B   3     -13.712  10.782   8.876  1.00 35.15 LIG 0.15  C 
ATOM     45  CG2 THR B   3     -14.661  10.591  10.039  1.00 35.84 LIG 0.04  C 
BRANCH 44 46
ATOM     46 OG1  THR B   3     -14.262  10.188   7.695  1.00 37.78 LIG-0.39  OA
ATOM     47 HG1  THR B   3     -13.639   9.954   7.183  1.00 37.78 LIG 0.21  HD
ENDBRANCH 44 46
ENDBRANCH 43 44
BRANCH 43 48
ATOM     48  N   THR B   3     -14.225  12.730   7.453  1.00 36.19 LIG-0.34  N 
ATOM     49  C   ARG B   2     -14.427  14.021   7.234  1.00 33.52 LIG 0.24  C 
ATOM     50 O    ARG B   2     -14.155  14.882   8.046  1.00 34.90 LIG-0.27  OA
ATOM     51 H    THR B   3     -14.508  12.104   6.935  1.00 36.19 LIG 0.16  HD
BRANCH 49 52
ATOM     52  CA  ARG B   2     -15.000  14.403   5.885  1.00 37.04 LIG 0.18  C 
BRANCH 52 53
ATOM     53  CB  ARG B   2     -16.479  14.066   5.905  1.00 37.98 LIG 0.04  C 
BRANCH 53 54
ATOM     54  CG  ARG B   2     -16.886  12.959   4.962  1.00 44.54 LIG 0.02  C 
BRANCH 54 55
ATOM     55  CD  ARG B   2     -17.548  11.901   5.793  1.00 45.57 LIG 0.14  C 
BRANCH 55 56
ATOM     56  NE  ARG B   2     -16.705  10.717   5.818  1.00 45.97 LIG-0.23  N 
ATOM     57  CZ  ARG B   2     -16.880   9.689   6.636  1.00 44.90 LIG 0.67  C 
ATOM     58  NH1 ARG B   2     -17.869   9.689   7.528  1.00 46.97 LIG-0.23  N 
ATOM     59  NH2 ARG B   2     -16.046   8.670   6.570  1.00 41.82 LIG-0.23  N 
ATOM     60 2HH1 ARG B   2     -17.974   9.017   8.054  1.00 46.97 LIG 0.17  HD
ATOM     61 1HH1 ARG B   2     -18.402  10.363   7.579  1.00 46.97 LIG 0.17  HD
ATOM     62 2HH2 ARG B   2     -16.148   7.997   7.094  1.00 41.82 LIG 0.17  HD
ATOM     63 1HH2 ARG B   2     -15.400   8.680   6.002  1.00 41.82 LIG 0.17  HD
ATOM     64 HE   ARG B   2     -16.048  10.683   5.265  1.00 45.97 LIG 0.18  HD
ENDBRANCH 55 56
ENDBRANCH 54 55
ENDBRANCH 53 54
ENDBRANCH 52 53
BRANCH 52 65
ATOM     65  N   ARG B   2     -14.311  13.673   4.832  1.00 35.35 LIG-0.35  N 
ATOM     66 H    ARG B   2     -14.822  13.194   4.333  1.00 35.35 LIG 0.16  HD
ATOM     67  C   ALA B   1     -12.999  13.767   4.686  1.00 38.28 LIG 0.25  C 
ATOM     68 O    ALA B   1     -12.314  14.523   5.372  1.00 39.08 LIG-0.27  OA
BRANCH 67 69
ATOM     69  CA  ALA B   1     -12.360  12.909   3.602  1.00 38.95 LIG 0.27  C 
ATOM     70  CB  ALA B   1     -13.417  12.302   2.692  1.00 37.91 LIG 0.05  C 
BRANCH 69 71
ATOM     71  N   ALA B   1     -11.546  11.857   4.207  1.00 44.33 LIG-0.07  N 
ATOM     72 H1   ALA B   1     -10.779  12.204   4.496  1.00 44.33 LIG 0.28  HD
ATOM     73 H2   ALA B   1     -11.985  11.499   4.894  1.00 44.33 LIG 0.28  HD
ATOM     74 H3   ALA B   1     -11.377  11.226   3.602  1.00 44.33 LIG 0.28  HD
ENDBRANCH 69 71
ENDBRANCH 67 69
ENDBRANCH 52 65
ENDBRANCH 49 52
ENDBRANCH 43 48
ENDBRANCH 40 43
ENDBRANCH 1 39
TORSDOF 30
ENDMDL
MODEL 31
USER: ADFR SOLUTION from run 141
USER: SCORE 21.306364 LL:  -4.514 LR: -19.676 RR:   0.000 FEB: -10.727
USER: RMSD 9.304141
USER: SEED 140
USER: STATUS searching
USER: GENES 32
USER: genes 0 Translation |==|  0.77414 0.60703 0.46431
USER: genes 1 Rotation |==|  0.36298 0.90793 0.74775 0.55863
USER: genes 2 Torsion [N]-CA--C-[N] |==|  0.10307
USER: genes 3 Torsion [C]-N--CA-[CB] |==|  0.29977
USER: genes 4 Torsion [N]-CA--CB-[CG] |==|  0.49102
USER: genes 5 Torsion [CA]-CB--CG-[CD] |==|  0.67826
USER: genes 6 Torsion [CB]-CG--CD-[OE1] |==|  0.03261
USER: genes 7 Torsion [N]-CA--C-[N] |==|  0.28040
USER: genes 8 Torsion [C]-N--CA-[CB] |==|  0.77454
USER: genes 9 Torsion [N]-CA--C-[N] |==|  0.17353
USER: genes 10 Torsion [C]-N--CA-[CB] |==|  0.28765
USER: genes 11 Torsion [N]-CA--C-[O] |==|  0.06228
USER: genes 12 Torsion [N]-CA--CB-[CG2] |==|  0.55228
USER: genes 13 Torsion [CA]-CB--OG1-[HG1] |==|  0.12496
USER: genes 14 Torsion [C]-CA--CB-[CG] |==|  0.62420
USER: genes 15 Torsion [CA]-CB--CG-[CD] |==|  0.26266
USER: genes 16 Torsion [CB]-CG--CD-[CE] |==|  0.95231
USER: genes 17 Torsion [CG]-CD--CE-[NZ] |==|  0.52374
USER: genes 18 Torsion [CD]-CE--NZ-[HZ2] |==|  0.71847
USER: genes 19 Torsion [C]-CA--N-[C] |==|  0.64498
USER: genes 20 Torsion [N]-C--CA-[N] |==|  0.06622
USER: genes 21 Torsion [C]-CA--CB-[CG2] |==|  0.21628
USER: genes 22 Torsion [CA]-CB--OG1-[HG1] |==|  0.53146
USER: genes 23 Torsion [C]-CA--N-[C] |==|  0.74444
USER: genes 24 Torsion [N]-C--CA-[N] |==|  0.18592
USER: genes 25 Torsion [C]-CA--CB-[CG] |==|  0.56037
USER: genes 26 Torsion [CA]-CB--CG-[CD] |==|  0.76943
USER: genes 27 Torsion [CB]-CG--CD-[NE] |==|  0.68640
USER: genes 28 Torsion [CG]-CD--NE-[HE] |==|  0.13688
USER: genes 29 Torsion [C]-CA--N-[C] |==|  0.70254
USER: genes 30 Torsion [N]-C--CA-[N] |==|  0.50077
USER: genes 31 Torsion [C]-CA--N-[H2] |==|  0.63137
ROOT
ATOM      1  CA  LYS B   4      -6.164  12.230  12.811  1.00 37.28 LIG 0.18  C 
ENDROOT
BRANCH 1 2
ATOM      2  C   LYS B   4      -5.752  13.644  13.153  1.00 39.57 LIG 0.24  C 
ATOM      3 O    LYS B   4      -4.708  14.132  12.715  1.00 42.15 LIG-0.27  OA
ATOM      4  N   GLN B   5      -6.585  14.310  13.933  1.00 37.54 LIG-0.35  N 
ATOM      5 H    GLN B   5      -7.307  13.986  14.273  1.00 37.54 LIG 0.16  HD
BRANCH 4 6
ATOM      6  CA  GLN B   5      -6.308  15.689  14.271  1.00 44.43 LIG 0.18  C 
BRANCH 6 7
ATOM      7  CB  GLN B   5      -7.262  16.626  13.552  1.00 42.91 LIG 0.04  C 
BRANCH 7 8
ATOM      8  CG  GLN B   5      -7.042  18.046  13.948  1.00 46.61 LIG 0.10  C 
BRANCH 8 9
ATOM      9  CD  GLN B   5      -8.227  18.611  14.646  1.00 50.89 LIG 0.21  C 
ATOM     10  NE2 GLN B   5      -8.231  19.934  14.815  1.00 54.67 LIG-0.37  N 
ATOM     11 21HE GLN B   5      -7.571  20.406  14.532  1.00 54.67 LIG 0.16  HD
ATOM     12 22HE GLN B   5      -8.895  20.315  15.208  1.00 54.67 LIG 0.16  HD
ATOM     13 OE1  GLN B   5      -9.150  17.877  15.033  1.00 48.99 LIG-0.27  OA
ENDBRANCH 8 9
ENDBRANCH 7 8
ENDBRANCH 6 7
BRANCH 6 14
ATOM     14  C   GLN B   5      -6.350  15.912  15.780  1.00 45.34 LIG 0.24  C 
ATOM     15 O    GLN B   5      -7.423  16.056  16.359  1.00 47.84 LIG-0.27  OA
ATOM     16  N   THR B   6      -5.185  15.973  16.414  1.00 44.99 LIG-0.34  N 
ATOM     17 H    THR B   6      -4.417  15.926  16.031  1.00 44.99 LIG 0.16  HD
BRANCH 16 18
ATOM     18  CA  THR B   6      -5.148  16.129  17.861  1.00 47.63 LIG 0.20  C 
BRANCH 18 19
ATOM     19  C   THR B   6      -6.144  15.206  18.566  1.00 49.11 LIG 0.24  C 
ATOM     20 O    THR B   6      -7.051  15.673  19.250  1.00 51.64 LIG-0.27  OA
ATOM     21  N   ALA B   7      -5.955  13.900  18.419  1.00 46.55 LIG-0.35  N 
ATOM     22 H    ALA B   7      -5.344  13.557  17.920  1.00 46.55 LIG 0.16  HD
BRANCH 21 23
ATOM     23  CA  ALA B   7      -6.790  12.923  19.108  1.00 49.58 LIG 0.16  C 
ATOM     24  CB  ALA B   7      -7.816  12.300  18.136  1.00 45.32 LIG 0.04  C 
BRANCH 23 25
ATOM     25  C   ALA B   7      -5.918  11.841  19.756  1.00 53.19 LIG 0.22  C 
ATOM     26 O    ALA B   7      -4.722  12.068  20.021  1.00 57.48 LIG-0.29  OA
ENDBRANCH 23 25
ENDBRANCH 21 23
ENDBRANCH 18 19
BRANCH 18 27
ATOM     27  CB  THR B   6      -5.344  17.603  18.293  1.00 48.13 LIG 0.15  C 
ATOM     28  CG2 THR B   6      -4.849  17.801  19.715  1.00 44.70 LIG 0.04  C 
BRANCH 27 29
ATOM     29 OG1  THR B   6      -4.639  18.482  17.400  1.00 42.78 LIG-0.39  OA
ATOM     30 HG1  THR B   6      -4.779  18.246  16.606  1.00 42.78 LIG 0.21  HD
ENDBRANCH 27 29
ENDBRANCH 18 27
ENDBRANCH 16 18
ENDBRANCH 6 14
ENDBRANCH 4 6
ENDBRANCH 1 2
BRANCH 1 31
ATOM     31  CB  LYS B   4      -5.431  11.807  11.535  1.00 35.55 LIG 0.04  C 
BRANCH 31 32
ATOM     32  CG  LYS B   4      -6.285  11.119  10.544  1.00 39.70 LIG 0.00  C 
BRANCH 32 33
ATOM     33  CD  LYS B   4      -6.810  12.111   9.537  1.00 40.13 LIG 0.03  C 
BRANCH 33 34
ATOM     34  CE  LYS B   4      -6.668  13.514  10.062  1.00 42.33 LIG 0.23  C 
BRANCH 34 35
ATOM     35  NZ  LYS B   4      -7.353  14.493   9.194  1.00 43.53 LIG-0.08  N 
ATOM     36 HZ3  LYS B   4      -7.943  14.071   8.679  1.00 43.53 LIG 0.27  HD
ATOM     37 HZ1  LYS B   4      -7.775  15.093   9.698  1.00 43.53 LIG 0.27  HD
ATOM     38 HZ2  LYS B   4      -6.754  14.906   8.682  1.00 43.53 LIG 0.27  HD
ENDBRANCH 34 35
ENDBRANCH 33 34
ENDBRANCH 32 33
ENDBRANCH 31 32
ENDBRANCH 1 31
BRANCH 1 39
ATOM     39  N   LYS B   4      -7.607  12.166  12.630  1.00 32.65 LIG-0.35  N 
ATOM     40  C   THR B   3      -8.354  11.278  13.276  1.00 34.58 LIG 0.24  C 
ATOM     41 O    THR B   3      -7.871  10.397  13.971  1.00 36.58 LIG-0.27  OA
ATOM     42 H    LYS B   4      -7.921  12.746  12.078  1.00 32.65 LIG 0.16  HD
BRANCH 40 43
ATOM     43  CA  THR B   3      -9.860  11.379  13.094  1.00 32.52 LIG 0.20  C 
BRANCH 43 44
ATOM     44  CB  THR B   3     -10.461   9.987  13.145  1.00 35.15 LIG 0.15  C 
ATOM     45  CG2 THR B   3     -10.554   9.509  14.578  1.00 35.84 LIG 0.04  C 
BRANCH 44 46
ATOM     46 OG1  THR B   3     -11.767  10.029  12.559  1.00 37.78 LIG-0.39  OA
ATOM     47 HG1  THR B   3     -12.169   9.309  12.719  1.00 37.78 LIG 0.21  HD
ENDBRANCH 44 46
ENDBRANCH 43 44
BRANCH 43 48
ATOM     48  N   THR B   3     -10.151  12.055  11.838  1.00 36.19 LIG-0.34  N 
ATOM     49  C   ARG B   2     -10.326  13.367  11.782  1.00 33.52 LIG 0.24  C 
ATOM     50 O    ARG B   2     -10.406  14.069  12.770  1.00 34.90 LIG-0.27  OA
ATOM     51 H    THR B   3     -10.197  11.534  11.155  1.00 36.19 LIG 0.16  HD
BRANCH 49 52
ATOM     52  CA  ARG B   2     -10.395  13.988  10.402  1.00 37.04 LIG 0.18  C 
BRANCH 52 53
ATOM     53  CB  ARG B   2     -10.397  15.495  10.578  1.00 37.98 LIG 0.04  C 
BRANCH 53 54
ATOM     54  CG  ARG B   2     -10.967  16.265   9.411  1.00 44.54 LIG 0.02  C 
BRANCH 54 55
ATOM     55  CD  ARG B   2      -9.864  16.407   8.405  1.00 45.57 LIG 0.14  C 
BRANCH 55 56
ATOM     56  NE  ARG B   2      -9.487  17.807   8.305  1.00 45.97 LIG-0.23  N 
ATOM     57  CZ  ARG B   2      -9.363  18.471   7.164  1.00 44.90 LIG 0.67  C 
ATOM     58  NH1 ARG B   2      -9.568  17.863   5.997  1.00 46.97 LIG-0.23  N 
ATOM     59  NH2 ARG B   2      -9.009  19.740   7.198  1.00 41.82 LIG-0.23  N 
ATOM     60 2HH1 ARG B   2      -9.485  18.302   5.262  1.00 46.97 LIG 0.17  HD
ATOM     61 1HH1 ARG B   2      -9.784  17.030   5.978  1.00 46.97 LIG 0.17  HD
ATOM     62 2HH2 ARG B   2      -8.925  20.182   6.466  1.00 41.82 LIG 0.17  HD
ATOM     63 1HH2 ARG B   2      -8.863  20.125   7.953  1.00 41.82 LIG 0.17  HD
ATOM     64 HE   ARG B   2      -9.334  18.234   9.036  1.00 45.97 LIG 0.18  HD
ENDBRANCH 55 56
ENDBRANCH 54 55
ENDBRANCH 53 54
ENDBRANCH 52 53
BRANCH 52 65
ATOM     65  N   ARG B   2     -11.599  13.540   9.720  1.00 35.35 LIG-0.35  N 
ATOM     66 H    ARG B   2     -12.330  13.884  10.015  1.00 35.35 LIG 0.16  HD
ATOM     67  C   ALA B   1     -11.534  12.667   8.726  1.00 38.28 LIG 0.25  C 
ATOM     68 O    ALA B   1     -10.463  12.255   8.283  1.00 39.08 LIG-0.27  OA
BRANCH 67 69
ATOM     69  CA  ALA B   1     -12.853  12.204   8.124  1.00 38.95 LIG 0.27  C 
ATOM     70  CB  ALA B   1     -13.753  11.589   9.185  1.00 37.91 LIG 0.05  C 
BRANCH 69 71
ATOM     71  N   ALA B   1     -12.606  11.243   7.050  1.00 44.33 LIG-0.07  N 
ATOM     72 H1   ALA B   1     -12.833  10.427   7.323  1.00 44.33 LIG 0.28  HD
ATOM     73 H2   ALA B   1     -13.092  11.462   6.338  1.00 44.33 LIG 0.28  HD
ATOM     74 H3   ALA B   1     -11.742  11.254   6.835  1.00 44.33 LIG 0.28  HD
ENDBRANCH 69 71
ENDBRANCH 67 69
ENDBRANCH 52 65
ENDBRANCH 49 52
ENDBRANCH 43 48
ENDBRANCH 40 43
ENDBRANCH 1 39
TORSDOF 30
ENDMDL
MODEL 32
USER: ADFR SOLUTION from run 176
USER: SCORE 22.124686 LL:  -4.363 LR: -19.646 RR:   0.000 FEB: -10.697
USER: RMSD 8.279865
USER: SEED 175
USER: STATUS no improvement in best in 3 clusters for 5 generations
USER: GENES 32
USER: genes 0 Translation |==|  0.77109 0.71871 0.49386
USER: genes 1 Rotation |==|  0.74943 0.48483 0.06872 0.53939
USER: genes 2 Torsion [N]-CA--C-[N] |==|  0.50330
USER: genes 3 Torsion [C]-N--CA-[CB] |==|  0.56560
USER: genes 4 Torsion [N]-CA--CB-[CG] |==|  0.64783
USER: genes 5 Torsion [CA]-CB--CG-[CD] |==|  0.08451
USER: genes 6 Torsion [CB]-CG--CD-[OE1] |==|  0.76259
USER: genes 7 Torsion [N]-CA--C-[N] |==|  0.36314
USER: genes 8 Torsion [C]-N--CA-[CB] |==|  0.81111
USER: genes 9 Torsion [N]-CA--C-[N] |==|  0.18520
USER: genes 10 Torsion [C]-N--CA-[CB] |==|  0.44689
USER: genes 11 Torsion [N]-CA--C-[O] |==|  0.00349
USER: genes 12 Torsion [N]-CA--CB-[CG2] |==|  0.62131
USER: genes 13 Torsion [CA]-CB--OG1-[HG1] |==|  0.44061
USER: genes 14 Torsion [C]-CA--CB-[CG] |==|  0.84732
USER: genes 15 Torsion [CA]-CB--CG-[CD] |==|  0.37949
USER: genes 16 Torsion [CB]-CG--CD-[CE] |==|  0.95513
USER: genes 17 Torsion [CG]-CD--CE-[NZ] |==|  0.33694
USER: genes 18 Torsion [CD]-CE--NZ-[HZ2] |==|  0.48363
USER: genes 19 Torsion [C]-CA--N-[C] |==|  0.79270
USER: genes 20 Torsion [N]-C--CA-[N] |==|  0.98410
USER: genes 21 Torsion [C]-CA--CB-[CG2] |==|  0.75372
USER: genes 22 Torsion [CA]-CB--OG1-[HG1] |==|  0.79735
USER: genes 23 Torsion [C]-CA--N-[C] |==|  0.63951
USER: genes 24 Torsion [N]-C--CA-[N] |==|  0.08299
USER: genes 25 Torsion [C]-CA--CB-[CG] |==|  0.60440
USER: genes 26 Torsion [CA]-CB--CG-[CD] |==|  0.29371
USER: genes 27 Torsion [CB]-CG--CD-[NE] |==|  0.63889
USER: genes 28 Torsion [CG]-CD--NE-[HE] |==|  0.97680
USER: genes 29 Torsion [C]-CA--N-[C] |==|  0.71850
USER: genes 30 Torsion [N]-C--CA-[N] |==|  0.83191
USER: genes 31 Torsion [C]-CA--N-[H2] |==|  0.20506
ROOT
ATOM      1  CA  LYS B   4      -6.228  14.575  13.542  1.00 37.28 LIG 0.18  C 
ENDROOT
BRANCH 1 2
ATOM      2  C   LYS B   4      -6.597  14.186  14.956  1.00 39.57 LIG 0.24  C 
ATOM      3 O    LYS B   4      -7.353  13.239  15.185  1.00 42.15 LIG-0.27  OA
ATOM      4  N   GLN B   5      -6.050  14.917  15.912  1.00 37.54 LIG-0.35  N 
ATOM      5 H    GLN B   5      -5.541  15.597  15.780  1.00 37.54 LIG 0.16  HD
BRANCH 4 6
ATOM      6  CA  GLN B   5      -6.297  14.588  17.299  1.00 44.43 LIG 0.18  C 
BRANCH 6 7
ATOM      7  CB  GLN B   5      -6.098  15.803  18.188  1.00 42.91 LIG 0.04  C 
BRANCH 7 8
ATOM      8  CG  GLN B   5      -5.150  15.521  19.302  1.00 46.61 LIG 0.10  C 
BRANCH 8 9
ATOM      9  CD  GLN B   5      -4.133  14.508  18.915  1.00 50.89 LIG 0.21  C 
ATOM     10  NE2 GLN B   5      -2.971  14.986  18.465  1.00 54.67 LIG-0.37  N 
ATOM     11 21HE GLN B   5      -2.849  15.835  18.409  1.00 54.67 LIG 0.16  HD
ATOM     12 22HE GLN B   5      -2.345  14.445  18.232  1.00 54.67 LIG 0.16  HD
ATOM     13 OE1  GLN B   5      -4.369  13.294  19.019  1.00 48.99 LIG-0.27  OA
ENDBRANCH 8 9
ENDBRANCH 7 8
ENDBRANCH 6 7
BRANCH 6 14
ATOM     14  C   GLN B   5      -7.686  13.988  17.491  1.00 45.34 LIG 0.24  C 
ATOM     15 O    GLN B   5      -8.677  14.552  17.037  1.00 47.84 LIG-0.27  OA
ATOM     16  N   THR B   6      -7.765  12.861  18.189  1.00 44.99 LIG-0.34  N 
ATOM     17 H    THR B   6      -7.097  12.468  18.562  1.00 44.99 LIG 0.16  HD
BRANCH 16 18
ATOM     18  CA  THR B   6      -9.050  12.201  18.368  1.00 47.63 LIG 0.20  C 
BRANCH 18 19
ATOM     19  C   THR B   6      -9.704  11.842  17.032  1.00 49.11 LIG 0.24  C 
ATOM     20 O    THR B   6     -10.755  12.377  16.688  1.00 51.64 LIG-0.27  OA
ATOM     21  N   ALA B   7      -9.095  10.919  16.297  1.00 46.55 LIG-0.35  N 
ATOM     22 H    ALA B   7      -8.344  10.556  16.509  1.00 46.55 LIG 0.16  HD
BRANCH 21 23
ATOM     23  CA  ALA B   7      -9.666  10.437  15.045  1.00 49.58 LIG 0.16  C 
ATOM     24  CB  ALA B   7      -8.583   9.759  14.177  1.00 45.32 LIG 0.04  C 
BRANCH 23 25
ATOM     25  C   ALA B   7     -10.828   9.477  15.325  1.00 53.19 LIG 0.22  C 
ATOM     26 O    ALA B   7     -11.175   9.229  16.495  1.00 57.48 LIG-0.29  OA
ENDBRANCH 23 25
ENDBRANCH 21 23
ENDBRANCH 18 19
BRANCH 18 27
ATOM     27  CB  THR B   6     -10.010  13.025  19.261  1.00 48.13 LIG 0.15  C 
ATOM     28  CG2 THR B   6     -10.710  12.115  20.255  1.00 44.70 LIG 0.04  C 
BRANCH 27 29
ATOM     29 OG1  THR B   6      -9.284  14.050  19.959  1.00 42.78 LIG-0.39  OA
ATOM     30 HG1  THR B   6      -9.813  14.656  20.198  1.00 42.78 LIG 0.21  HD
ENDBRANCH 27 29
ENDBRANCH 18 27
ENDBRANCH 16 18
ENDBRANCH 6 14
ENDBRANCH 4 6
ENDBRANCH 1 2
BRANCH 1 31
ATOM     31  CB  LYS B   4      -6.613  16.041  13.328  1.00 35.55 LIG 0.04  C 
BRANCH 31 32
ATOM     32  CG  LYS B   4      -8.027  16.347  13.622  1.00 39.70 LIG 0.00  C 
BRANCH 32 33
ATOM     33  CD  LYS B   4      -8.127  17.636  14.398  1.00 40.13 LIG 0.03  C 
BRANCH 33 34
ATOM     34  CE  LYS B   4      -6.785  18.006  14.971  1.00 42.33 LIG 0.23  C 
BRANCH 34 35
ATOM     35  NZ  LYS B   4      -6.336  19.330  14.496  1.00 43.53 LIG-0.08  N 
ATOM     36 HZ3  LYS B   4      -6.187  19.296  13.619  1.00 43.53 LIG 0.27  HD
ATOM     37 HZ1  LYS B   4      -6.966  19.936  14.666  1.00 43.53 LIG 0.27  HD
ATOM     38 HZ2  LYS B   4      -5.585  19.558  14.915  1.00 43.53 LIG 0.27  HD
ENDBRANCH 34 35
ENDBRANCH 33 34
ENDBRANCH 32 33
ENDBRANCH 31 32
ENDBRANCH 1 31
BRANCH 1 39
ATOM     39  N   LYS B   4      -6.918  13.710  12.597  1.00 32.65 LIG-0.35  N 
ATOM     40  C   THR B   3      -6.542  12.452  12.396  1.00 34.58 LIG 0.24  C 
ATOM     41 O    THR B   3      -5.538  11.979  12.905  1.00 36.58 LIG-0.27  OA
ATOM     42 H    LYS B   4      -7.578  14.084  12.191  1.00 32.65 LIG 0.16  HD
BRANCH 40 43
ATOM     43  CA  THR B   3      -7.406  11.612  11.470  1.00 32.52 LIG 0.20  C 
BRANCH 43 44
ATOM     44  CB  THR B   3      -6.584  11.196  10.265  1.00 35.15 LIG 0.15  C 
ATOM     45  CG2 THR B   3      -6.682  12.243   9.177  1.00 35.84 LIG 0.04  C 
BRANCH 44 46
ATOM     46 OG1  THR B   3      -5.219  11.041  10.671  1.00 37.78 LIG-0.39  OA
ATOM     47 HG1  THR B   3      -4.879  11.798  10.805  1.00 37.78 LIG 0.21  HD
ENDBRANCH 44 46
ENDBRANCH 43 44
BRANCH 43 48
ATOM     48  N   THR B   3      -8.588  12.373  11.088  1.00 36.19 LIG-0.34  N 
ATOM     49  C   ARG B   2      -9.805  11.860  11.192  1.00 33.52 LIG 0.24  C 
ATOM     50 O    ARG B   2     -10.014  10.694  11.462  1.00 34.90 LIG-0.27  OA
ATOM     51 H    THR B   3      -8.423  13.165  10.797  1.00 36.19 LIG 0.16  HD
BRANCH 49 52
ATOM     52  CA  ARG B   2     -10.966  12.811  10.986  1.00 37.04 LIG 0.18  C 
BRANCH 52 53
ATOM     53  CB  ARG B   2     -12.125  12.004  10.433  1.00 37.98 LIG 0.04  C 
BRANCH 53 54
ATOM     54  CG  ARG B   2     -12.954  12.721   9.394  1.00 44.54 LIG 0.02  C 
BRANCH 54 55
ATOM     55  CD  ARG B   2     -12.601  12.120   8.066  1.00 45.57 LIG 0.14  C 
BRANCH 55 56
ATOM     56  NE  ARG B   2     -12.293  13.186   7.127  1.00 45.97 LIG-0.23  N 
ATOM     57  CZ  ARG B   2     -11.791  12.995   5.915  1.00 44.90 LIG 0.67  C 
ATOM     58  NH1 ARG B   2     -11.514  11.768   5.478  1.00 46.97 LIG-0.23  N 
ATOM     59  NH2 ARG B   2     -11.546  14.042   5.153  1.00 41.82 LIG-0.23  N 
ATOM     60 2HH1 ARG B   2     -11.189  11.655   4.689  1.00 46.97 LIG 0.17  HD
ATOM     61 1HH1 ARG B   2     -11.661  11.088   5.984  1.00 46.97 LIG 0.17  HD
ATOM     62 2HH2 ARG B   2     -11.220  13.933   4.365  1.00 41.82 LIG 0.17  HD
ATOM     63 1HH2 ARG B   2     -11.712  14.834   5.444  1.00 41.82 LIG 0.17  HD
ATOM     64 HE   ARG B   2     -12.446  13.994   7.375  1.00 45.97 LIG 0.18  HD
ENDBRANCH 55 56
ENDBRANCH 54 55
ENDBRANCH 53 54
ENDBRANCH 52 53
BRANCH 52 65
ATOM     65  N   ARG B   2     -10.579  13.869  10.066  1.00 35.35 LIG-0.35  N 
ATOM     66 H    ARG B   2     -10.586  13.645   9.236  1.00 35.35 LIG 0.16  HD
ATOM     67  C   ALA B   1     -10.249  15.071  10.512  1.00 38.28 LIG 0.25  C 
ATOM     68 O    ALA B   1     -10.325  15.375  11.701  1.00 39.08 LIG-0.27  OA
BRANCH 67 69
ATOM     69  CA  ALA B   1      -9.788  16.090   9.478  1.00 38.95 LIG 0.27  C 
ATOM     70  CB  ALA B   1     -10.891  16.386   8.473  1.00 37.91 LIG 0.05  C 
BRANCH 69 71
ATOM     71  N   ALA B   1      -8.593  15.605   8.791  1.00 44.33 LIG-0.07  N 
ATOM     72 H1   ALA B   1      -8.014  15.288   9.389  1.00 44.33 LIG 0.28  HD
ATOM     73 H2   ALA B   1      -8.818  14.957   8.225  1.00 44.33 LIG 0.28  HD
ATOM     74 H3   ALA B   1      -8.216  16.275   8.342  1.00 44.33 LIG 0.28  HD
ENDBRANCH 69 71
ENDBRANCH 67 69
ENDBRANCH 52 65
ENDBRANCH 49 52
ENDBRANCH 43 48
ENDBRANCH 40 43
ENDBRANCH 1 39
TORSDOF 30
ENDMDL
MODEL 33
USER: ADFR SOLUTION from run 118
USER: SCORE 21.361213 LL:  -3.979 LR: -19.645 RR:   0.000 FEB: -10.696
USER: RMSD 5.993831
USER: SEED 117
USER: STATUS no improvement in best in 10 clusters for 5 generations
USER: GENES 32
USER: genes 0 Translation |==|  0.67544 0.56893 0.45855
USER: genes 1 Rotation |==|  0.49351 0.47953 0.89607 0.80441
USER: genes 2 Torsion [N]-CA--C-[N] |==|  0.13968
USER: genes 3 Torsion [C]-N--CA-[CB] |==|  0.15152
USER: genes 4 Torsion [N]-CA--CB-[CG] |==|  0.16873
USER: genes 5 Torsion [CA]-CB--CG-[CD] |==|  0.46590
USER: genes 6 Torsion [CB]-CG--CD-[OE1] |==|  0.59286
USER: genes 7 Torsion [N]-CA--C-[N] |==|  0.58414
USER: genes 8 Torsion [C]-N--CA-[CB] |==|  0.79997
USER: genes 9 Torsion [N]-CA--C-[N] |==|  0.08902
USER: genes 10 Torsion [C]-N--CA-[CB] |==|  0.80624
USER: genes 11 Torsion [N]-CA--C-[O] |==|  0.45867
USER: genes 12 Torsion [N]-CA--CB-[CG2] |==|  0.87584
USER: genes 13 Torsion [CA]-CB--OG1-[HG1] |==|  0.12642
USER: genes 14 Torsion [C]-CA--CB-[CG] |==|  0.45281
USER: genes 15 Torsion [CA]-CB--CG-[CD] |==|  0.91664
USER: genes 16 Torsion [CB]-CG--CD-[CE] |==|  0.27385
USER: genes 17 Torsion [CG]-CD--CE-[NZ] |==|  0.26430
USER: genes 18 Torsion [CD]-CE--NZ-[HZ2] |==|  0.68679
USER: genes 19 Torsion [C]-CA--N-[C] |==|  0.77990
USER: genes 20 Torsion [N]-C--CA-[N] |==|  0.36539
USER: genes 21 Torsion [C]-CA--CB-[CG2] |==|  0.83596
USER: genes 22 Torsion [CA]-CB--OG1-[HG1] |==|  0.04672
USER: genes 23 Torsion [C]-CA--N-[C] |==|  0.82485
USER: genes 24 Torsion [N]-C--CA-[N] |==|  0.47989
USER: genes 25 Torsion [C]-CA--CB-[CG] |==|  0.77775
USER: genes 26 Torsion [CA]-CB--CG-[CD] |==|  0.62274
USER: genes 27 Torsion [CB]-CG--CD-[NE] |==|  0.22992
USER: genes 28 Torsion [CG]-CD--NE-[HE] |==|  0.94138
USER: genes 29 Torsion [C]-CA--N-[C] |==|  0.74065
USER: genes 30 Torsion [N]-C--CA-[N] |==|  0.86982
USER: genes 31 Torsion [C]-CA--N-[H2] |==|  0.78533
ROOT
ATOM      1  CA  LYS B   4      -8.237  11.429  12.668  1.00 37.28 LIG 0.18  C 
ENDROOT
BRANCH 1 2
ATOM      2  C   LYS B   4      -8.571  10.311  13.630  1.00 39.57 LIG 0.24  C 
ATOM      3 O    LYS B   4      -7.722   9.845  14.393  1.00 42.15 LIG-0.27  OA
ATOM      4  N   GLN B   5      -9.822   9.886  13.600  1.00 37.54 LIG-0.35  N 
ATOM      5 H    GLN B   5     -10.428  10.175  13.062  1.00 37.54 LIG 0.16  HD
BRANCH 4 6
ATOM      6  CA  GLN B   5     -10.254   8.858  14.522  1.00 44.43 LIG 0.18  C 
BRANCH 6 7
ATOM      7  CB  GLN B   5      -9.955   9.254  15.956  1.00 42.91 LIG 0.04  C 
BRANCH 7 8
ATOM      8  CG  GLN B   5     -10.662  10.509  16.340  1.00 46.61 LIG 0.10  C 
BRANCH 8 9
ATOM      9  CD  GLN B   5     -10.610  10.740  17.808  1.00 50.89 LIG 0.21  C 
ATOM     10  NE2 GLN B   5      -9.500  10.335  18.427  1.00 54.67 LIG-0.37  N 
ATOM     11 21HE GLN B   5      -8.870   9.959  17.978  1.00 54.67 LIG 0.16  HD
ATOM     12 22HE GLN B   5      -9.414  10.449  19.275  1.00 54.67 LIG 0.16  HD
ATOM     13 OE1  GLN B   5     -11.553  11.288  18.402  1.00 48.99 LIG-0.27  OA
ENDBRANCH 8 9
ENDBRANCH 7 8
ENDBRANCH 6 7
BRANCH 6 14
ATOM     14  C   GLN B   5     -11.733   8.532  14.339  1.00 45.34 LIG 0.24  C 
ATOM     15 O    GLN B   5     -12.271   8.671  13.245  1.00 47.84 LIG-0.27  OA
ATOM     16  N   THR B   6     -12.399   8.128  15.414  1.00 44.99 LIG-0.34  N 
ATOM     17 H    THR B   6     -12.065   8.067  16.204  1.00 44.99 LIG 0.16  HD
BRANCH 16 18
ATOM     18  CA  THR B   6     -13.800   7.747  15.304  1.00 47.63 LIG 0.20  C 
BRANCH 18 19
ATOM     19  C   THR B   6     -14.026   6.679  14.232  1.00 49.11 LIG 0.24  C 
ATOM     20 O    THR B   6     -15.084   6.633  13.611  1.00 51.64 LIG-0.27  OA
ATOM     21  N   ALA B   7     -13.041   5.809  14.039  1.00 46.55 LIG-0.35  N 
ATOM     22 H    ALA B   7     -12.283   5.845  14.444  1.00 46.55 LIG 0.16  HD
BRANCH 21 23
ATOM     23  CA  ALA B   7     -13.173   4.699  13.102  1.00 49.58 LIG 0.16  C 
ATOM     24  CB  ALA B   7     -14.179   3.655  13.632  1.00 45.32 LIG 0.04  C 
BRANCH 23 25
ATOM     25  C   ALA B   7     -13.591   5.216  11.721  1.00 53.19 LIG 0.22  C 
ATOM     26 O    ALA B   7     -13.493   4.487  10.716  1.00 57.48 LIG-0.29  OA
ENDBRANCH 23 25
ENDBRANCH 21 23
ENDBRANCH 18 19
BRANCH 18 27
ATOM     27  CB  THR B   6     -14.722   8.971  15.082  1.00 48.13 LIG 0.15  C 
ATOM     28  CG2 THR B   6     -14.331  10.098  16.021  1.00 44.70 LIG 0.04  C 
BRANCH 27 29
ATOM     29 OG1  THR B   6     -14.637   9.416  13.717  1.00 42.78 LIG-0.39  OA
ATOM     30 HG1  THR B   6     -14.681   8.754  13.203  1.00 42.78 LIG 0.21  HD
ENDBRANCH 27 29
ENDBRANCH 18 27
ENDBRANCH 16 18
ENDBRANCH 6 14
ENDBRANCH 4 6
ENDBRANCH 1 2
BRANCH 1 31
ATOM     31  CB  LYS B   4      -6.824  11.930  12.980  1.00 35.55 LIG 0.04  C 
BRANCH 31 32
ATOM     32  CG  LYS B   4      -6.211  12.730  11.900  1.00 39.70 LIG 0.00  C 
BRANCH 32 33
ATOM     33  CD  LYS B   4      -6.738  12.278  10.561  1.00 40.13 LIG 0.03  C 
BRANCH 33 34
ATOM     34  CE  LYS B   4      -7.840  13.192  10.097  1.00 42.33 LIG 0.23  C 
BRANCH 34 35
ATOM     35  NZ  LYS B   4      -7.331  14.246   9.197  1.00 43.53 LIG-0.08  N 
ATOM     36 HZ3  LYS B   4      -6.476  14.088   9.008  1.00 43.53 LIG 0.27  HD
ATOM     37 HZ1  LYS B   4      -7.806  14.249   8.444  1.00 43.53 LIG 0.27  HD
ATOM     38 HZ2  LYS B   4      -7.404  15.038   9.596  1.00 43.53 LIG 0.27  HD
ENDBRANCH 34 35
ENDBRANCH 33 34
ENDBRANCH 32 33
ENDBRANCH 31 32
ENDBRANCH 1 31
BRANCH 1 39
ATOM     39  N   LYS B   4      -9.213  12.501  12.799  1.00 32.65 LIG-0.35  N 
ATOM     40  C   THR B   3     -10.413  12.427  12.236  1.00 34.58 LIG 0.24  C 
ATOM     41 O    THR B   3     -10.732  11.515  11.489  1.00 36.58 LIG-0.27  OA
ATOM     42 H    LYS B   4      -8.943  13.171  13.267  1.00 32.65 LIG 0.16  HD
BRANCH 40 43
ATOM     43  CA  THR B   3     -11.387  13.556  12.534  1.00 32.52 LIG 0.20  C 
BRANCH 43 44
ATOM     44  CB  THR B   3     -12.441  13.058  13.506  1.00 35.15 LIG 0.15  C 
ATOM     45  CG2 THR B   3     -13.181  11.877  12.915  1.00 35.84 LIG 0.04  C 
BRANCH 44 46
ATOM     46 OG1  THR B   3     -11.797  12.669  14.724  1.00 37.78 LIG-0.39  OA
ATOM     47 HG1  THR B   3     -11.025  12.999  14.750  1.00 37.78 LIG 0.21  HD
ENDBRANCH 44 46
ENDBRANCH 43 44
BRANCH 43 48
ATOM     48  N   THR B   3     -11.973  14.032  11.289  1.00 36.19 LIG-0.34  N 
ATOM     49  C   ARG B   2     -11.230  14.584  10.341  1.00 33.52 LIG 0.24  C 
ATOM     50 O    ARG B   2     -10.059  14.867  10.496  1.00 34.90 LIG-0.27  OA
ATOM     51 H    THR B   3     -12.823  13.922  11.231  1.00 36.19 LIG 0.16  HD
BRANCH 49 52
ATOM     52  CA  ARG B   2     -11.901  14.832   9.006  1.00 37.04 LIG 0.18  C 
BRANCH 52 53
ATOM     53  CB  ARG B   2     -12.228  13.480   8.401  1.00 37.98 LIG 0.04  C 
BRANCH 53 54
ATOM     54  CG  ARG B   2     -11.064  12.791   7.731  1.00 44.54 LIG 0.02  C 
BRANCH 54 55
ATOM     55  CD  ARG B   2     -11.573  12.242   6.431  1.00 45.57 LIG 0.14  C 
BRANCH 55 56
ATOM     56  NE  ARG B   2     -11.561  13.297   5.431  1.00 45.97 LIG-0.23  N 
ATOM     57  CZ  ARG B   2     -11.557  13.088   4.122  1.00 44.90 LIG 0.67  C 
ATOM     58  NH1 ARG B   2     -11.546  11.851   3.629  1.00 46.97 LIG-0.23  N 
ATOM     59  NH2 ARG B   2     -11.539  14.126   3.310  1.00 41.82 LIG-0.23  N 
ATOM     60 2HH1 ARG B   2     -11.543  11.727   2.778  1.00 46.97 LIG 0.17  HD
ATOM     61 1HH1 ARG B   2     -11.542  11.176   4.163  1.00 46.97 LIG 0.17  HD
ATOM     62 2HH2 ARG B   2     -11.536  14.006   2.459  1.00 41.82 LIG 0.17  HD
ATOM     63 1HH2 ARG B   2     -11.531  14.924   3.631  1.00 41.82 LIG 0.17  HD
ATOM     64 HE   ARG B   2     -11.555  14.111   5.708  1.00 45.97 LIG 0.18  HD
ENDBRANCH 55 56
ENDBRANCH 54 55
ENDBRANCH 53 54
ENDBRANCH 52 53
BRANCH 52 65
ATOM     65  N   ARG B   2     -11.011  15.590   8.141  1.00 35.35 LIG-0.35  N 
ATOM     66 H    ARG B   2     -10.459  15.114   7.685  1.00 35.35 LIG 0.16  HD
ATOM     67  C   ALA B   1     -11.077  16.912   8.086  1.00 38.28 LIG 0.25  C 
ATOM     68 O    ALA B   1     -11.933  17.552   8.696  1.00 39.08 LIG-0.27  OA
BRANCH 67 69
ATOM     69  CA  ALA B   1     -10.057  17.621   7.207  1.00 38.95 LIG 0.27  C 
ATOM     70  CB  ALA B   1     -10.412  17.478   5.734  1.00 37.91 LIG 0.05  C 
BRANCH 69 71
ATOM     71  N   ALA B   1      -8.719  17.090   7.460  1.00 44.33 LIG-0.07  N 
ATOM     72 H1   ALA B   1      -8.178  17.315   6.790  1.00 44.33 LIG 0.28  HD
ATOM     73 H2   ALA B   1      -8.404  17.428   8.221  1.00 44.33 LIG 0.28  HD
ATOM     74 H3   ALA B   1      -8.758  16.203   7.524  1.00 44.33 LIG 0.28  HD
ENDBRANCH 69 71
ENDBRANCH 67 69
ENDBRANCH 52 65
ENDBRANCH 49 52
ENDBRANCH 43 48
ENDBRANCH 40 43
ENDBRANCH 1 39
TORSDOF 30
ENDMDL
MODEL 34
USER: ADFR SOLUTION from run 108
USER: SCORE 21.942306 LL:  -4.026 LR: -19.553 RR:   0.000 FEB: -10.604
USER: RMSD 9.346119
USER: SEED 107
USER: STATUS no improvement in best in 5 clusters for 5 generations
USER: GENES 32
USER: genes 0 Translation |==|  0.72765 0.69161 0.49681
USER: genes 1 Rotation |==|  0.27287 0.72742 0.88255 0.51867
USER: genes 2 Torsion [N]-CA--C-[N] |==|  0.29445
USER: genes 3 Torsion [C]-N--CA-[CB] |==|  0.24200
USER: genes 4 Torsion [N]-CA--CB-[CG] |==|  0.26363
USER: genes 5 Torsion [CA]-CB--CG-[CD] |==|  0.68377
USER: genes 6 Torsion [CB]-CG--CD-[OE1] |==|  0.80455
USER: genes 7 Torsion [N]-CA--C-[N] |==|  0.02201
USER: genes 8 Torsion [C]-N--CA-[CB] |==|  0.84583
USER: genes 9 Torsion [N]-CA--C-[N] |==|  0.34465
USER: genes 10 Torsion [C]-N--CA-[CB] |==|  0.84573
USER: genes 11 Torsion [N]-CA--C-[O] |==|  0.79825
USER: genes 12 Torsion [N]-CA--CB-[CG2] |==|  0.55472
USER: genes 13 Torsion [CA]-CB--OG1-[HG1] |==|  0.72312
USER: genes 14 Torsion [C]-CA--CB-[CG] |==|  0.40984
USER: genes 15 Torsion [CA]-CB--CG-[CD] |==|  0.14136
USER: genes 16 Torsion [CB]-CG--CD-[CE] |==|  0.19092
USER: genes 17 Torsion [CG]-CD--CE-[NZ] |==|  0.11490
USER: genes 18 Torsion [CD]-CE--NZ-[HZ2] |==|  0.38847
USER: genes 19 Torsion [C]-CA--N-[C] |==|  0.70080
USER: genes 20 Torsion [N]-C--CA-[N] |==|  0.15317
USER: genes 21 Torsion [C]-CA--CB-[CG2] |==|  0.19304
USER: genes 22 Torsion [CA]-CB--OG1-[HG1] |==|  0.43937
USER: genes 23 Torsion [C]-CA--N-[C] |==|  0.77974
USER: genes 24 Torsion [N]-C--CA-[N] |==|  0.29870
USER: genes 25 Torsion [C]-CA--CB-[CG] |==|  0.73130
USER: genes 26 Torsion [CA]-CB--CG-[CD] |==|  0.55136
USER: genes 27 Torsion [CB]-CG--CD-[NE] |==|  0.21008
USER: genes 28 Torsion [CG]-CD--NE-[HE] |==|  0.99040
USER: genes 29 Torsion [C]-CA--N-[C] |==|  0.64622
USER: genes 30 Torsion [N]-C--CA-[N] |==|  0.51101
USER: genes 31 Torsion [C]-CA--N-[H2] |==|  0.81555
ROOT
ATOM      1  CA  LYS B   4      -7.140  14.006  13.615  1.00 37.28 LIG 0.18  C 
ENDROOT
BRANCH 1 2
ATOM      2  C   LYS B   4      -7.511  14.797  14.849  1.00 39.57 LIG 0.24  C 
ATOM      3 O    LYS B   4      -8.204  15.814  14.776  1.00 42.15 LIG-0.27  OA
ATOM      4  N   GLN B   5      -7.053  14.320  15.993  1.00 37.54 LIG-0.35  N 
ATOM      5 H    GLN B   5      -6.547  13.629  16.071  1.00 37.54 LIG 0.16  HD
BRANCH 4 6
ATOM      6  CA  GLN B   5      -7.401  14.975  17.236  1.00 44.43 LIG 0.18  C 
BRANCH 6 7
ATOM      7  CB  GLN B   5      -8.714  14.443  17.781  1.00 42.91 LIG 0.04  C 
BRANCH 7 8
ATOM      8  CG  GLN B   5      -8.498  13.353  18.773  1.00 46.61 LIG 0.10  C 
BRANCH 8 9
ATOM      9  CD  GLN B   5      -9.011  12.049  18.276  1.00 50.89 LIG 0.21  C 
ATOM     10  NE2 GLN B   5      -8.088  11.135  17.970  1.00 54.67 LIG-0.37  N 
ATOM     11 21HE GLN B   5      -7.253  11.319  18.060  1.00 54.67 LIG 0.16  HD
ATOM     12 22HE GLN B   5      -8.328  10.361  17.683  1.00 54.67 LIG 0.16  HD
ATOM     13 OE1  GLN B   5     -10.230  11.841  18.167  1.00 48.99 LIG-0.27  OA
ENDBRANCH 8 9
ENDBRANCH 7 8
ENDBRANCH 6 7
BRANCH 6 14
ATOM     14  C   GLN B   5      -6.284  14.842  18.267  1.00 45.34 LIG 0.24  C 
ATOM     15 O    GLN B   5      -6.448  15.234  19.418  1.00 47.84 LIG-0.27  OA
ATOM     16  N   THR B   6      -5.137  14.319  17.849  1.00 44.99 LIG-0.34  N 
ATOM     17 H    THR B   6      -4.973  14.081  17.040  1.00 44.99 LIG 0.16  HD
BRANCH 16 18
ATOM     18  CA  THR B   6      -4.045  14.111  18.789  1.00 47.63 LIG 0.20  C 
BRANCH 18 19
ATOM     19  C   THR B   6      -4.339  12.979  19.775  1.00 49.11 LIG 0.24  C 
ATOM     20 O    THR B   6      -5.339  13.017  20.487  1.00 51.64 LIG-0.27  OA
ATOM     21  N   ALA B   7      -3.455  11.990  19.831  1.00 46.55 LIG-0.35  N 
ATOM     22 H    ALA B   7      -2.766  11.933  19.319  1.00 46.55 LIG 0.16  HD
BRANCH 21 23
ATOM     23  CA  ALA B   7      -3.587  10.897  20.788  1.00 49.58 LIG 0.16  C 
ATOM     24  CB  ALA B   7      -3.682  11.443  22.229  1.00 45.32 LIG 0.04  C 
BRANCH 23 25
ATOM     25  C   ALA B   7      -4.806  10.034  20.444  1.00 53.19 LIG 0.22  C 
ATOM     26 O    ALA B   7      -5.960  10.459  20.646  1.00 57.48 LIG-0.29  OA
ENDBRANCH 23 25
ENDBRANCH 21 23
ENDBRANCH 18 19
BRANCH 18 27
ATOM     27  CB  THR B   6      -3.655  15.414  19.529  1.00 48.13 LIG 0.15  C 
ATOM     28  CG2 THR B   6      -2.256  15.290  20.107  1.00 44.70 LIG 0.04  C 
BRANCH 27 29
ATOM     29 OG1  THR B   6      -3.719  16.535  18.630  1.00 42.78 LIG-0.39  OA
ATOM     30 HG1  THR B   6      -2.946  16.721  18.359  1.00 42.78 LIG 0.21  HD
ENDBRANCH 27 29
ENDBRANCH 18 27
ENDBRANCH 16 18
ENDBRANCH 6 14
ENDBRANCH 4 6
ENDBRANCH 1 2
BRANCH 1 31
ATOM     31  CB  LYS B   4      -6.627  14.980  12.552  1.00 35.55 LIG 0.04  C 
BRANCH 31 32
ATOM     32  CG  LYS B   4      -5.584  14.420  11.668  1.00 39.70 LIG 0.00  C 
BRANCH 32 33
ATOM     33  CD  LYS B   4      -6.041  13.098  11.104  1.00 40.13 LIG 0.03  C 
BRANCH 33 34
ATOM     34  CE  LYS B   4      -7.175  13.305  10.138  1.00 42.33 LIG 0.23  C 
BRANCH 34 35
ATOM     35  NZ  LYS B   4      -6.947  14.481   9.273  1.00 43.53 LIG-0.08  N 
ATOM     36 HZ3  LYS B   4      -7.413  15.172   9.584  1.00 43.53 LIG 0.27  HD
ATOM     37 HZ1  LYS B   4      -6.080  14.684   9.270  1.00 43.53 LIG 0.27  HD
ATOM     38 HZ2  LYS B   4      -7.210  14.295   8.444  1.00 43.53 LIG 0.27  HD
ENDBRANCH 34 35
ENDBRANCH 33 34
ENDBRANCH 32 33
ENDBRANCH 31 32
ENDBRANCH 1 31
BRANCH 1 39
ATOM     39  N   LYS B   4      -8.301  13.271  13.134  1.00 32.65 LIG-0.35  N 
ATOM     40  C   THR B   3      -8.396  11.952  13.264  1.00 34.58 LIG 0.24  C 
ATOM     41 O    THR B   3      -7.481  11.267  13.692  1.00 36.58 LIG-0.27  OA
ATOM     42 H    LYS B   4      -8.903  13.762  12.766  1.00 32.65 LIG 0.16  HD
BRANCH 40 43
ATOM     43  CA  THR B   3      -9.702  11.308  12.825  1.00 32.52 LIG 0.20  C 
BRANCH 43 44
ATOM     44  CB  THR B   3      -9.599   9.805  13.005  1.00 35.15 LIG 0.15  C 
ATOM     45  CG2 THR B   3      -9.573   9.455  14.477  1.00 35.84 LIG 0.04  C 
BRANCH 44 46
ATOM     46 OG1  THR B   3     -10.729   9.189  12.378  1.00 37.78 LIG-0.39  OA
ATOM     47 HG1  THR B   3     -10.551   8.387  12.204  1.00 37.78 LIG 0.21  HD
ENDBRANCH 44 46
ENDBRANCH 43 44
BRANCH 43 48
ATOM     48  N   THR B   3      -9.983  11.676  11.444  1.00 36.19 LIG-0.34  N 
ATOM     49  C   ARG B   2     -10.498  12.856  11.133  1.00 33.52 LIG 0.24  C 
ATOM     50 O    ARG B   2     -10.907  13.642  11.964  1.00 34.90 LIG-0.27  OA
ATOM     51 H    THR B   3      -9.787  11.069  10.867  1.00 36.19 LIG 0.16  HD
BRANCH 49 52
ATOM     52  CA  ARG B   2     -10.535  13.218   9.662  1.00 37.04 LIG 0.18  C 
BRANCH 52 53
ATOM     53  CB  ARG B   2      -9.970  14.618   9.522  1.00 37.98 LIG 0.04  C 
BRANCH 53 54
ATOM     54  CG  ARG B   2     -11.008  15.713   9.465  1.00 44.54 LIG 0.02  C 
BRANCH 54 55
ATOM     55  CD  ARG B   2     -10.336  16.920   8.880  1.00 45.57 LIG 0.14  C 
BRANCH 55 56
ATOM     56  NE  ARG B   2     -10.181  16.732   7.448  1.00 45.97 LIG-0.23  N 
ATOM     57  CZ  ARG B   2      -9.683  17.642   6.622  1.00 44.90 LIG 0.67  C 
ATOM     58  NH1 ARG B   2      -9.296  18.833   7.074  1.00 46.97 LIG-0.23  N 
ATOM     59  NH2 ARG B   2      -9.596  17.359   5.337  1.00 41.82 LIG-0.23  N 
ATOM     60 2HH1 ARG B   2      -8.974  19.416   6.530  1.00 46.97 LIG 0.17  HD
ATOM     61 1HH1 ARG B   2      -9.368  19.019   7.911  1.00 46.97 LIG 0.17  HD
ATOM     62 2HH2 ARG B   2      -9.275  17.940   4.790  1.00 41.82 LIG 0.17  HD
ATOM     63 1HH2 ARG B   2      -9.861  16.595   5.046  1.00 41.82 LIG 0.17  HD
ATOM     64 HE   ARG B   2     -10.430  15.980   7.113  1.00 45.97 LIG 0.18  HD
ENDBRANCH 55 56
ENDBRANCH 54 55
ENDBRANCH 53 54
ENDBRANCH 52 53
BRANCH 52 65
ATOM     65  N   ARG B   2     -11.904  13.154   9.174  1.00 35.35 LIG-0.35  N 
ATOM     66 H    ARG B   2     -12.472  13.608   9.633  1.00 35.35 LIG 0.16  HD
ATOM     67  C   ALA B   1     -12.211  12.441   8.101  1.00 38.28 LIG 0.25  C 
ATOM     68 O    ALA B   1     -11.358  11.868   7.426  1.00 39.08 LIG-0.27  OA
BRANCH 67 69
ATOM     69  CA  ALA B   1     -13.682  12.378   7.710  1.00 38.95 LIG 0.27  C 
ATOM     70  CB  ALA B   1     -14.539  11.921   8.880  1.00 37.91 LIG 0.05  C 
BRANCH 69 71
ATOM     71  N   ALA B   1     -13.860  11.482   6.569  1.00 44.33 LIG-0.07  N 
ATOM     72 H1   ALA B   1     -14.729  11.378   6.406  1.00 44.33 LIG 0.28  HD
ATOM     73 H2   ALA B   1     -13.464  11.831   5.852  1.00 44.33 LIG 0.28  HD
ATOM     74 H3   ALA B   1     -13.497  10.690   6.753  1.00 44.33 LIG 0.28  HD
ENDBRANCH 69 71
ENDBRANCH 67 69
ENDBRANCH 52 65
ENDBRANCH 49 52
ENDBRANCH 43 48
ENDBRANCH 40 43
ENDBRANCH 1 39
TORSDOF 30
ENDMDL
MODEL 35
USER: ADFR SOLUTION from run 154
USER: SCORE 22.393457 LL:  -4.616 LR: -19.517 RR:   0.000 FEB: -10.568
USER: RMSD 8.673358
USER: SEED 153
USER: STATUS no improvement in best in 5 clusters for 5 generations
USER: GENES 32
USER: genes 0 Translation |==|  0.67980 0.65781 0.37952
USER: genes 1 Rotation |==|  0.48895 0.70369 0.75974 0.87540
USER: genes 2 Torsion [N]-CA--C-[N] |==|  0.99022
USER: genes 3 Torsion [C]-N--CA-[CB] |==|  0.53297
USER: genes 4 Torsion [N]-CA--CB-[CG] |==|  0.87704
USER: genes 5 Torsion [CA]-CB--CG-[CD] |==|  0.77371
USER: genes 6 Torsion [CB]-CG--CD-[OE1] |==|  0.10887
USER: genes 7 Torsion [N]-CA--C-[N] |==|  0.31677
USER: genes 8 Torsion [C]-N--CA-[CB] |==|  0.85248
USER: genes 9 Torsion [N]-CA--C-[N] |==|  0.86750
USER: genes 10 Torsion [C]-N--CA-[CB] |==|  0.21941
USER: genes 11 Torsion [N]-CA--C-[O] |==|  0.23307
USER: genes 12 Torsion [N]-CA--CB-[CG2] |==|  0.38218
USER: genes 13 Torsion [CA]-CB--OG1-[HG1] |==|  0.34859
USER: genes 14 Torsion [C]-CA--CB-[CG] |==|  0.08022
USER: genes 15 Torsion [CA]-CB--CG-[CD] |==|  0.68485
USER: genes 16 Torsion [CB]-CG--CD-[CE] |==|  0.26927
USER: genes 17 Torsion [CG]-CD--CE-[NZ] |==|  0.67612
USER: genes 18 Torsion [CD]-CE--NZ-[HZ2] |==|  0.15894
USER: genes 19 Torsion [C]-CA--N-[C] |==|  0.67783
USER: genes 20 Torsion [N]-C--CA-[N] |==|  0.43437
USER: genes 21 Torsion [C]-CA--CB-[CG2] |==|  0.86789
USER: genes 22 Torsion [CA]-CB--OG1-[HG1] |==|  0.16085
USER: genes 23 Torsion [C]-CA--N-[C] |==|  0.62539
USER: genes 24 Torsion [N]-C--CA-[N] |==|  0.63998
USER: genes 25 Torsion [C]-CA--CB-[CG] |==|  0.54219
USER: genes 26 Torsion [CA]-CB--CG-[CD] |==|  0.48954
USER: genes 27 Torsion [CB]-CG--CD-[NE] |==|  0.63244
USER: genes 28 Torsion [CG]-CD--NE-[HE] |==|  0.72761
USER: genes 29 Torsion [C]-CA--N-[C] |==|  0.69189
USER: genes 30 Torsion [N]-C--CA-[N] |==|  0.63384
USER: genes 31 Torsion [C]-CA--N-[H2] |==|  0.65530
ROOT
ATOM      1  CA  LYS B   4      -8.145  13.296  10.712  1.00 37.28 LIG 0.18  C 
ENDROOT
BRANCH 1 2
ATOM      2  C   LYS B   4      -8.081  13.277  12.223  1.00 39.57 LIG 0.24  C 
ATOM      3 O    LYS B   4      -7.918  12.226  12.846  1.00 42.15 LIG-0.27  OA
ATOM      4  N   GLN B   5      -8.203  14.452  12.815  1.00 37.54 LIG-0.35  N 
ATOM      5 H    GLN B   5      -8.343  15.197  12.408  1.00 37.54 LIG 0.16  HD
BRANCH 4 6
ATOM      6  CA  GLN B   5      -8.099  14.546  14.255  1.00 44.43 LIG 0.18  C 
BRANCH 6 7
ATOM      7  CB  GLN B   5      -8.552  15.911  14.744  1.00 42.91 LIG 0.04  C 
BRANCH 7 8
ATOM      8  CG  GLN B   5      -8.002  17.008  13.900  1.00 46.61 LIG 0.10  C 
BRANCH 8 9
ATOM      9  CD  GLN B   5      -6.606  17.348  14.283  1.00 50.89 LIG 0.21  C 
ATOM     10  NE2 GLN B   5      -6.296  18.646  14.277  1.00 54.67 LIG-0.37  N 
ATOM     11 21HE GLN B   5      -6.888  19.229  14.054  1.00 54.67 LIG 0.16  HD
ATOM     12 22HE GLN B   5      -5.504  18.900  14.495  1.00 54.67 LIG 0.16  HD
ATOM     13 OE1  GLN B   5      -5.795  16.462  14.595  1.00 48.99 LIG-0.27  OA
ENDBRANCH 8 9
ENDBRANCH 7 8
ENDBRANCH 6 7
BRANCH 6 14
ATOM     14  C   GLN B   5      -8.877  13.429  14.944  1.00 45.34 LIG 0.24  C 
ATOM     15 O    GLN B   5     -10.102  13.395  14.885  1.00 47.84 LIG-0.27  OA
ATOM     16  N   THR B   6      -8.171  12.533  15.624  1.00 44.99 LIG-0.34  N 
ATOM     17 H    THR B   6      -7.318  12.557  15.726  1.00 44.99 LIG 0.16  HD
BRANCH 16 18
ATOM     18  CA  THR B   6      -8.840  11.409  16.262  1.00 47.63 LIG 0.20  C 
BRANCH 18 19
ATOM     19  C   THR B   6      -9.314  10.367  15.246  1.00 49.11 LIG 0.24  C 
ATOM     20 O    THR B   6      -9.064   9.176  15.412  1.00 51.64 LIG-0.27  OA
ATOM     21  N   ALA B   7      -9.972  10.822  14.186  1.00 46.55 LIG-0.35  N 
ATOM     22 H    ALA B   7     -10.180  11.649  14.070  1.00 46.55 LIG 0.16  HD
BRANCH 21 23
ATOM     23  CA  ALA B   7     -10.402   9.935  13.112  1.00 49.58 LIG 0.16  C 
ATOM     24  CB  ALA B   7     -11.683   9.172  13.515  1.00 45.32 LIG 0.04  C 
BRANCH 23 25
ATOM     25  C   ALA B   7     -10.618  10.730  11.820  1.00 53.19 LIG 0.22  C 
ATOM     26 O    ALA B   7      -9.658  10.989  11.069  1.00 57.48 LIG-0.29  OA
ENDBRANCH 23 25
ENDBRANCH 21 23
ENDBRANCH 18 19
BRANCH 18 27
ATOM     27  CB  THR B   6      -9.998  11.865  17.183  1.00 48.13 LIG 0.15  C 
ATOM     28  CG2 THR B   6     -11.202  10.958  16.997  1.00 44.70 LIG 0.04  C 
BRANCH 27 29
ATOM     29 OG1  THR B   6      -9.577  11.848  18.557  1.00 42.78 LIG-0.39  OA
ATOM     30 HG1  THR B   6      -9.713  12.602  18.901  1.00 42.78 LIG 0.21  HD
ENDBRANCH 27 29
ENDBRANCH 18 27
ENDBRANCH 16 18
ENDBRANCH 6 14
ENDBRANCH 4 6
ENDBRANCH 1 2
BRANCH 1 31
ATOM     31  CB  LYS B   4      -6.810  12.784  10.165  1.00 35.55 LIG 0.04  C 
BRANCH 31 32
ATOM     32  CG  LYS B   4      -6.119  11.826  11.052  1.00 39.70 LIG 0.00  C 
BRANCH 32 33
ATOM     33  CD  LYS B   4      -4.840  12.434  11.571  1.00 40.13 LIG 0.03  C 
BRANCH 33 34
ATOM     34  CE  LYS B   4      -5.057  13.021  12.939  1.00 42.33 LIG 0.23  C 
BRANCH 34 35
ATOM     35  NZ  LYS B   4      -4.851  14.483  12.944  1.00 43.53 LIG-0.08  N 
ATOM     36 HZ3  LYS B   4      -5.026  14.804  13.755  1.00 43.53 LIG 0.27  HD
ATOM     37 HZ1  LYS B   4      -4.007  14.665  12.728  1.00 43.53 LIG 0.27  HD
ATOM     38 HZ2  LYS B   4      -5.396  14.862  12.352  1.00 43.53 LIG 0.27  HD
ENDBRANCH 34 35
ENDBRANCH 33 34
ENDBRANCH 32 33
ENDBRANCH 31 32
ENDBRANCH 1 31
BRANCH 1 39
ATOM     39  N   LYS B   4      -8.416  14.648  10.247  1.00 32.65 LIG-0.35  N 
ATOM     40  C   THR B   3      -9.533  14.952   9.595  1.00 34.58 LIG 0.24  C 
ATOM     41 O    THR B   3     -10.343  14.106   9.252  1.00 36.58 LIG-0.27  OA
ATOM     42 H    LYS B   4      -7.798  15.217  10.431  1.00 32.65 LIG 0.16  HD
BRANCH 40 43
ATOM     43  CA  THR B   3      -9.757  16.418   9.257  1.00 32.52 LIG 0.20  C 
BRANCH 43 44
ATOM     44  CB  THR B   3     -10.301  17.132  10.480  1.00 35.15 LIG 0.15  C 
ATOM     45  CG2 THR B   3     -11.435  16.336  11.089  1.00 35.84 LIG 0.04  C 
BRANCH 44 46
ATOM     46 OG1  THR B   3      -9.243  17.281  11.434  1.00 37.78 LIG-0.39  OA
ATOM     47 HG1  THR B   3      -8.609  17.706  11.085  1.00 37.78 LIG 0.21  HD
ENDBRANCH 44 46
ENDBRANCH 43 44
BRANCH 43 48
ATOM     48  N   THR B   3     -10.660  16.519   8.119  1.00 36.19 LIG-0.34  N 
ATOM     49  C   ARG B   2     -10.414  17.343   7.111  1.00 33.52 LIG 0.24  C 
ATOM     50 O    ARG B   2      -9.522  18.166   7.129  1.00 34.90 LIG-0.27  OA
ATOM     51 H    THR B   3     -11.349  16.006   8.164  1.00 36.19 LIG 0.16  HD
BRANCH 49 52
ATOM     52  CA  ARG B   2     -11.292  17.201   5.884  1.00 37.04 LIG 0.18  C 
BRANCH 52 53
ATOM     53  CB  ARG B   2     -12.132  15.951   6.066  1.00 37.98 LIG 0.04  C 
BRANCH 53 54
ATOM     54  CG  ARG B   2     -12.799  15.452   4.806  1.00 44.54 LIG 0.02  C 
BRANCH 54 55
ATOM     55  CD  ARG B   2     -13.498  14.174   5.162  1.00 45.57 LIG 0.14  C 
BRANCH 55 56
ATOM     56  NE  ARG B   2     -13.179  13.163   4.168  1.00 45.97 LIG-0.23  N 
ATOM     57  CZ  ARG B   2     -12.069  12.437   4.166  1.00 44.90 LIG 0.67  C 
ATOM     58  NH1 ARG B   2     -11.139  12.613   5.103  1.00 46.97 LIG-0.23  N 
ATOM     59  NH2 ARG B   2     -11.886  11.552   3.207  1.00 41.82 LIG-0.23  N 
ATOM     60 2HH1 ARG B   2     -10.423  12.137   5.093  1.00 46.97 LIG 0.17  HD
ATOM     61 1HH1 ARG B   2     -11.255  13.203   5.719  1.00 46.97 LIG 0.17  HD
ATOM     62 2HH2 ARG B   2     -11.171  11.075   3.193  1.00 41.82 LIG 0.17  HD
ATOM     63 1HH2 ARG B   2     -12.481  11.452   2.595  1.00 41.82 LIG 0.17  HD
ATOM     64 HE   ARG B   2     -13.748  13.027   3.538  1.00 45.97 LIG 0.18  HD
ENDBRANCH 55 56
ENDBRANCH 54 55
ENDBRANCH 53 54
ENDBRANCH 52 53
BRANCH 52 65
ATOM     65  N   ARG B   2     -10.463  17.106   4.693  1.00 35.35 LIG-0.35  N 
ATOM     66 H    ARG B   2     -10.010  16.378   4.627  1.00 35.35 LIG 0.16  HD
ATOM     67  C   ALA B   1     -10.434  18.086   3.803  1.00 38.28 LIG 0.25  C 
ATOM     68 O    ALA B   1     -11.154  19.078   3.896  1.00 39.08 LIG-0.27  OA
BRANCH 67 69
ATOM     69  CA  ALA B   1      -9.480  17.925   2.627  1.00 38.95 LIG 0.27  C 
ATOM     70  CB  ALA B   1      -8.559  16.732   2.829  1.00 37.91 LIG 0.05  C 
BRANCH 69 71
ATOM     71  N   ALA B   1      -8.697  19.146   2.444  1.00 44.33 LIG-0.07  N 
ATOM     72 H1   ALA B   1      -7.836  18.971   2.587  1.00 44.33 LIG 0.28  HD
ATOM     73 H2   ALA B   1      -8.804  19.445   1.613  1.00 44.33 LIG 0.28  HD
ATOM     74 H3   ALA B   1      -8.974  19.766   3.020  1.00 44.33 LIG 0.28  HD
ENDBRANCH 69 71
ENDBRANCH 67 69
ENDBRANCH 52 65
ENDBRANCH 49 52
ENDBRANCH 43 48
ENDBRANCH 40 43
ENDBRANCH 1 39
TORSDOF 30
ENDMDL
MODEL 36
USER: ADFR SOLUTION from run 74
USER: SCORE 20.891300 LL:  -3.989 LR: -19.470 RR:   0.000 FEB: -10.521
USER: RMSD 7.496939
USER: SEED 73
USER: STATUS no improvement in best in 9 clusters for 5 generations
USER: GENES 32
USER: genes 0 Translation |==|  0.63263 0.53029 0.45022
USER: genes 1 Rotation |==|  0.39734 0.70861 0.92367 0.62824
USER: genes 2 Torsion [N]-CA--C-[N] |==|  0.93650
USER: genes 3 Torsion [C]-N--CA-[CB] |==|  0.83475
USER: genes 4 Torsion [N]-CA--CB-[CG] |==|  0.75636
USER: genes 5 Torsion [CA]-CB--CG-[CD] |==|  0.20192
USER: genes 6 Torsion [CB]-CG--CD-[OE1] |==|  0.70918
USER: genes 7 Torsion [N]-CA--C-[N] |==|  0.09677
USER: genes 8 Torsion [C]-N--CA-[CB] |==|  0.52140
USER: genes 9 Torsion [N]-CA--C-[N] |==|  0.39333
USER: genes 10 Torsion [C]-N--CA-[CB] |==|  0.39252
USER: genes 11 Torsion [N]-CA--C-[O] |==|  0.20651
USER: genes 12 Torsion [N]-CA--CB-[CG2] |==|  0.40655
USER: genes 13 Torsion [CA]-CB--OG1-[HG1] |==|  0.58203
USER: genes 14 Torsion [C]-CA--CB-[CG] |==|  0.24929
USER: genes 15 Torsion [CA]-CB--CG-[CD] |==|  0.56740
USER: genes 16 Torsion [CB]-CG--CD-[CE] |==|  0.88713
USER: genes 17 Torsion [CG]-CD--CE-[NZ] |==|  0.81884
USER: genes 18 Torsion [CD]-CE--NZ-[HZ2] |==|  0.95425
USER: genes 19 Torsion [C]-CA--N-[C] |==|  0.81522
USER: genes 20 Torsion [N]-C--CA-[N] |==|  0.05708
USER: genes 21 Torsion [C]-CA--CB-[CG2] |==|  0.24113
USER: genes 22 Torsion [CA]-CB--OG1-[HG1] |==|  0.95396
USER: genes 23 Torsion [C]-CA--N-[C] |==|  0.73717
USER: genes 24 Torsion [N]-C--CA-[N] |==|  0.73634
USER: genes 25 Torsion [C]-CA--CB-[CG] |==|  0.53534
USER: genes 26 Torsion [CA]-CB--CG-[CD] |==|  0.22539
USER: genes 27 Torsion [CB]-CG--CD-[NE] |==|  0.37614
USER: genes 28 Torsion [CG]-CD--NE-[HE] |==|  0.73788
USER: genes 29 Torsion [C]-CA--N-[C] |==|  0.71696
USER: genes 30 Torsion [N]-C--CA-[N] |==|  0.28818
USER: genes 31 Torsion [C]-CA--N-[H2] |==|  0.09935
ROOT
ATOM      1  CA  LYS B   4      -9.136  10.618  12.462  1.00 37.28 LIG 0.18  C 
ENDROOT
BRANCH 1 2
ATOM      2  C   LYS B   4      -8.839  10.931  13.912  1.00 39.57 LIG 0.24  C 
ATOM      3 O    LYS B   4      -7.814  10.520  14.461  1.00 42.15 LIG-0.27  OA
ATOM      4  N   GLN B   5      -9.740  11.672  14.533  1.00 37.54 LIG-0.35  N 
ATOM      5 H    GLN B   5     -10.475  11.950  14.183  1.00 37.54 LIG 0.16  HD
BRANCH 4 6
ATOM      6  CA  GLN B   5      -9.519  12.072  15.906  1.00 44.43 LIG 0.18  C 
BRANCH 6 7
ATOM      7  CB  GLN B   5      -9.374  10.859  16.807  1.00 42.91 LIG 0.04  C 
BRANCH 7 8
ATOM      8  CG  GLN B   5     -10.695  10.386  17.310  1.00 46.61 LIG 0.10  C 
BRANCH 8 9
ATOM      9  CD  GLN B   5     -11.483   9.720  16.240  1.00 50.89 LIG 0.21  C 
ATOM     10  NE2 GLN B   5     -11.100   8.485  15.912  1.00 54.67 LIG-0.37  N 
ATOM     11 21HE GLN B   5     -10.429   8.123  16.309  1.00 54.67 LIG 0.16  HD
ATOM     12 22HE GLN B   5     -11.524   8.050  15.303  1.00 54.67 LIG 0.16  HD
ATOM     13 OE1  GLN B   5     -12.443  10.295  15.702  1.00 48.99 LIG-0.27  OA
ENDBRANCH 8 9
ENDBRANCH 7 8
ENDBRANCH 6 7
BRANCH 6 14
ATOM     14  C   GLN B   5      -8.312  12.996  16.030  1.00 45.34 LIG 0.24  C 
ATOM     15 O    GLN B   5      -7.604  12.966  17.032  1.00 47.84 LIG-0.27  OA
ATOM     16  N   THR B   6      -8.094  13.840  15.028  1.00 44.99 LIG-0.34  N 
ATOM     17 H    THR B   6      -8.599  13.921  14.337  1.00 44.99 LIG 0.16  HD
BRANCH 16 18
ATOM     18  CA  THR B   6      -6.931  14.716  15.052  1.00 47.63 LIG 0.20  C 
BRANCH 18 19
ATOM     19  C   THR B   6      -6.750  15.399  16.409  1.00 49.11 LIG 0.24  C 
ATOM     20 O    THR B   6      -7.724  15.812  17.033  1.00 51.64 LIG-0.27  OA
ATOM     21  N   ALA B   7      -5.505  15.538  16.847  1.00 46.55 LIG-0.35  N 
ATOM     22 H    ALA B   7      -4.814  15.228  16.437  1.00 46.55 LIG 0.16  HD
BRANCH 21 23
ATOM     23  CA  ALA B   7      -5.203  16.243  18.087  1.00 49.58 LIG 0.16  C 
ATOM     24  CB  ALA B   7      -4.066  15.535  18.854  1.00 45.32 LIG 0.04  C 
BRANCH 23 25
ATOM     25  C   ALA B   7      -4.843  17.704  17.794  1.00 53.19 LIG 0.22  C 
ATOM     26 O    ALA B   7      -5.728  18.523  17.482  1.00 57.48 LIG-0.29  OA
ENDBRANCH 23 25
ENDBRANCH 21 23
ENDBRANCH 18 19
BRANCH 18 27
ATOM     27  CB  THR B   6      -6.955  15.750  13.900  1.00 48.13 LIG 0.15  C 
ATOM     28  CG2 THR B   6      -6.323  17.054  14.354  1.00 44.70 LIG 0.04  C 
BRANCH 27 29
ATOM     29 OG1  THR B   6      -6.255  15.236  12.754  1.00 42.78 LIG-0.39  OA
ATOM     30 HG1  THR B   6      -5.922  15.873  12.320  1.00 42.78 LIG 0.21  HD
ENDBRANCH 27 29
ENDBRANCH 18 27
ENDBRANCH 16 18
ENDBRANCH 6 14
ENDBRANCH 4 6
ENDBRANCH 1 2
BRANCH 1 31
ATOM     31  CB  LYS B   4      -8.344  11.591  11.585  1.00 35.55 LIG 0.04  C 
BRANCH 31 32
ATOM     32  CG  LYS B   4      -6.994  11.116  11.217  1.00 39.70 LIG 0.00  C 
BRANCH 32 33
ATOM     33  CD  LYS B   4      -6.103  12.290  10.899  1.00 40.13 LIG 0.03  C 
BRANCH 33 34
ATOM     34  CE  LYS B   4      -6.859  13.323  10.109  1.00 42.33 LIG 0.23  C 
BRANCH 34 35
ATOM     35  NZ  LYS B   4      -7.253  12.813   8.781  1.00 43.53 LIG-0.08  N 
ATOM     36 HZ3  LYS B   4      -8.119  12.608   8.786  1.00 43.53 LIG 0.27  HD
ATOM     37 HZ1  LYS B   4      -7.100  13.438   8.165  1.00 43.53 LIG 0.27  HD
ATOM     38 HZ2  LYS B   4      -6.778  12.086   8.589  1.00 43.53 LIG 0.27  HD
ENDBRANCH 34 35
ENDBRANCH 33 34
ENDBRANCH 32 33
ENDBRANCH 31 32
ENDBRANCH 1 31
BRANCH 1 39
ATOM     39  N   LYS B   4     -10.565  10.736  12.215  1.00 32.65 LIG-0.35  N 
ATOM     40  C   THR B   3     -11.441   9.905  12.768  1.00 34.58 LIG 0.24  C 
ATOM     41 O    THR B   3     -11.100   8.934  13.424  1.00 36.58 LIG-0.27  OA
ATOM     42 H    LYS B   4     -10.782  11.381  11.688  1.00 32.65 LIG 0.16  HD
BRANCH 40 43
ATOM     43  CA  THR B   3     -12.915  10.194  12.526  1.00 32.52 LIG 0.20  C 
BRANCH 43 44
ATOM     44  CB  THR B   3     -13.661   8.882  12.378  1.00 35.15 LIG 0.15  C 
ATOM     45  CG2 THR B   3     -14.084   8.364  13.736  1.00 35.84 LIG 0.04  C 
BRANCH 44 46
ATOM     46 OG1  THR B   3     -14.814   9.099  11.558  1.00 37.78 LIG-0.39  OA
ATOM     47 HG1  THR B   3     -14.975   9.922  11.512  1.00 37.78 LIG 0.21  HD
ENDBRANCH 44 46
ENDBRANCH 43 44
BRANCH 43 48
ATOM     48  N   THR B   3     -13.055  11.039  11.349  1.00 36.19 LIG-0.34  N 
ATOM     49  C   ARG B   2     -13.139  12.358  11.449  1.00 33.52 LIG 0.24  C 
ATOM     50 O    ARG B   2     -13.255  12.937  12.510  1.00 34.90 LIG-0.27  OA
ATOM     51 H    THR B   3     -13.078  10.611  10.604  1.00 36.19 LIG 0.16  HD
BRANCH 49 52
ATOM     52  CA  ARG B   2     -13.053  13.147  10.158  1.00 37.04 LIG 0.18  C 
BRANCH 52 53
ATOM     53  CB  ARG B   2     -13.529  12.242   9.038  1.00 37.98 LIG 0.04  C 
BRANCH 53 54
ATOM     54  CG  ARG B   2     -13.232  12.751   7.647  1.00 44.54 LIG 0.02  C 
BRANCH 54 55
ATOM     55  CD  ARG B   2     -11.805  12.398   7.351  1.00 45.57 LIG 0.14  C 
BRANCH 55 56
ATOM     56  NE  ARG B   2     -11.717  11.857   6.006  1.00 45.97 LIG-0.23  N 
ATOM     57  CZ  ARG B   2     -11.587  12.591   4.909  1.00 44.90 LIG 0.67  C 
ATOM     58  NH1 ARG B   2     -11.546  13.920   4.981  1.00 46.97 LIG-0.23  N 
ATOM     59  NH2 ARG B   2     -11.523  11.987   3.740  1.00 41.82 LIG-0.23  N 
ATOM     60 2HH1 ARG B   2     -11.462  14.388   4.263  1.00 46.97 LIG 0.17  HD
ATOM     61 1HH1 ARG B   2     -11.604  14.312   5.745  1.00 46.97 LIG 0.17  HD
ATOM     62 2HH2 ARG B   2     -11.440  12.450   3.021  1.00 41.82 LIG 0.17  HD
ATOM     63 1HH2 ARG B   2     -11.565  11.129   3.696  1.00 41.82 LIG 0.17  HD
ATOM     64 HE   ARG B   2     -11.751  11.003   5.915  1.00 45.97 LIG 0.18  HD
ENDBRANCH 55 56
ENDBRANCH 54 55
ENDBRANCH 53 54
ENDBRANCH 52 53
BRANCH 52 65
ATOM     65  N   ARG B   2     -11.682  13.579   9.935  1.00 35.35 LIG-0.35  N 
ATOM     66 H    ARG B   2     -11.157  12.969   9.632  1.00 35.35 LIG 0.16  HD
ATOM     67  C   ALA B   1     -11.310  14.823  10.191  1.00 38.28 LIG 0.25  C 
ATOM     68 O    ALA B   1     -12.109  15.686  10.551  1.00 39.08 LIG-0.27  OA
BRANCH 67 69
ATOM     69  CA  ALA B   1      -9.838  15.161   9.995  1.00 38.95 LIG 0.27  C 
ATOM     70  CB  ALA B   1      -9.296  15.949  11.177  1.00 37.91 LIG 0.05  C 
BRANCH 69 71
ATOM     71  N   ALA B   1      -9.656  15.914   8.755  1.00 44.33 LIG-0.07  N 
ATOM     72 H1   ALA B   1      -9.595  15.348   8.070  1.00 44.33 LIG 0.28  HD
ATOM     73 H2   ALA B   1     -10.352  16.454   8.631  1.00 44.33 LIG 0.28  HD
ATOM     74 H3   ALA B   1      -8.911  16.397   8.808  1.00 44.33 LIG 0.28  HD
ENDBRANCH 69 71
ENDBRANCH 67 69
ENDBRANCH 52 65
ENDBRANCH 49 52
ENDBRANCH 43 48
ENDBRANCH 40 43
ENDBRANCH 1 39
TORSDOF 30
ENDMDL
