MODEL 1
USER: ADFR SOLUTION from run 193
USER: SCORE 21.859766 LL:  -4.012 LR: -18.800 RR:   0.000 FEB: -10.746
USER: RMSD 7.537773
USER: SEED 192
USER: STATUS searching
USER: GENES 29
USER: genes 0 Translation |==|  0.54353 0.35279 0.49222
USER: genes 1 Rotation |==|  0.38534 0.98162 0.45007 0.54898
USER: genes 2 Torsion [N]-CA--C-[N] |==|  0.38318
USER: genes 3 Torsion [C]-N--CA-[C] |==|  0.81619
USER: genes 4 Torsion [N]-CA--CB-[CG] |==|  0.67556
USER: genes 5 Torsion [CA]-CB--CG-[CD] |==|  0.10339
USER: genes 6 Torsion [CB]-CG--CD-[NE] |==|  0.52924
USER: genes 7 Torsion [CG]-CD--NE-[HE] |==|  0.22606
USER: genes 8 Torsion [N]-CA--C-[N] |==|  0.88395
USER: genes 9 Torsion [C]-N--CA-[CB] |==|  0.80259
USER: genes 10 Torsion [N]-CA--C-[N] |==|  0.22511
USER: genes 11 Torsion [C]-N--CA-[CB] |==|  0.47395
USER: genes 12 Torsion [N]-CA--C-[OXT] |==|  0.75783
USER: genes 13 Torsion [N]-CA--CB-[CG2] |==|  0.71656
USER: genes 14 Torsion [CA]-CB--OG1-[HG1] |==|  0.92607
USER: genes 15 Torsion [C]-CA--CB-[CG] |==|  0.15089
USER: genes 16 Torsion [CA]-CB--CG-[CD2] |==|  0.46636
USER: genes 17 Torsion [C]-CA--N-[C] |==|  0.62389
USER: genes 18 Torsion [N]-C--CA-[N] |==|  0.47000
USER: genes 19 Torsion [C]-CA--N-[C] |==|  0.67342
USER: genes 20 Torsion [N]-C--CA-[CB] |==|  0.88117
USER: genes 21 Torsion [N]-C--CA-[N] |==|  0.83860
USER: genes 22 Torsion [C]-CA--N-[H1] |==|  0.26887
USER: genes 23 Torsion [C]-CA--CB-[CG] |==|  0.63386
USER: genes 24 Torsion [CA]-CB--CG-[CD] |==|  0.68489
USER: genes 25 Torsion [CB]-CG--CD-[CE] |==|  0.15453
USER: genes 26 Torsion [CG]-CD--CE-[NZ] |==|  0.27846
USER: genes 27 Torsion [CD]-CE--NZ-[HZ1] |==|  0.46832
USER: genes 28 Torsion [C]-CA--CB-[CG1] |==|  0.48456
ROOT
ATOM      1  CA  LEU B   4      17.767  20.809  16.320  1.00 33.70 LIG 0.18  C 
ENDROOT
BRANCH 1 2
ATOM      2  C   LEU B   4      18.954  19.886  16.064  1.00 36.59 LIG 0.24  C 
ATOM      3 O    LEU B   4      19.542  19.894  14.981  1.00 35.62 LIG-0.27  OA
ATOM      4  N   ARG B   5      19.301  19.091  17.070  1.00 30.50 LIG-0.35  N 
ATOM      5 H    ARG B   5      18.939  19.124  17.849  1.00 30.50 LIG 0.16  HD
BRANCH 4 6
ATOM      6  CA  ARG B   5      20.343  18.077  16.941  1.00 32.70 LIG 0.18  C 
BRANCH 6 7
ATOM      7  CB  ARG B   5      20.683  17.458  18.301  1.00 28.13 LIG 0.04  C 
BRANCH 7 8
ATOM      8  CG  ARG B   5      22.119  17.715  18.746  1.00 29.30 LIG 0.02  C 
BRANCH 8 9
ATOM      9  CD  ARG B   5      22.613  19.100  18.366  1.00 34.57 LIG 0.14  C 
BRANCH 9 10
ATOM     10  NE  ARG B   5      24.044  19.265  18.566  1.00 41.05 LIG-0.23  N 
ATOM     11 HE   ARG B   5      24.570  18.965  17.955  1.00 41.05 LIG 0.18  HD
ATOM     12  CZ  ARG B   5      24.597  19.847  19.627  1.00 43.39 LIG 0.67  C 
ATOM     13  NH2 ARG B   5      25.918  19.939  19.716  1.00 33.00 LIG-0.23  N 
ATOM     14  NH1 ARG B   5      23.836  20.335  20.596  1.00 41.15 LIG-0.23  N 
ATOM     15 1HH2 ARG B   5      26.415  19.623  19.089  1.00 33.00 LIG 0.17  HD
ATOM     16 2HH2 ARG B   5      26.278  20.315  20.402  1.00 33.00 LIG 0.17  HD
ATOM     17 2HH1 ARG B   5      24.199  20.710  21.280  1.00 41.15 LIG 0.17  HD
ATOM     18 1HH1 ARG B   5      22.980  20.276  20.542  1.00 41.15 LIG 0.17  HD
ENDBRANCH 9 10
ENDBRANCH 8 9
ENDBRANCH 7 8
ENDBRANCH 6 7
BRANCH 6 19
ATOM     19  C   ARG B   5      19.910  16.992  15.965  1.00 32.44 LIG 0.24  C 
ATOM     20 O    ARG B   5      20.718  16.531  15.159  1.00 30.81 LIG-0.27  OA
ATOM     21  N   THR B   6      18.648  16.570  16.042  1.00 35.68 LIG-0.34  N 
ATOM     22 H    THR B   6      18.088  16.807  16.650  1.00 35.68 LIG 0.16  HD
BRANCH 21 23
ATOM     23  CA  THR B   6      18.122  15.636  15.044  1.00 34.81 LIG 0.20  C 
BRANCH 23 24
ATOM     24  C   THR B   6      19.067  14.461  14.885  1.00 33.55 LIG 0.24  C 
ATOM     25 O    THR B   6      19.868  14.425  13.951  1.00 36.63 LIG-0.27  OA
ATOM     26  N   ALA B   7      18.968  13.502  15.797  1.00 35.45 LIG-0.34  N 
ATOM     27 H    ALA B   7      18.396  13.501  16.439  1.00 35.45 LIG 0.16  HD
BRANCH 26 28
ATOM     28  CA  ALA B   7      19.853  12.346  15.772  1.00 34.62 LIG 0.18  C 
ATOM     29  CB  ALA B   7      19.686  11.525  17.045  1.00 31.37 LIG 0.04  C 
BRANCH 28 30
ATOM     30  C   ALA B   7      19.611  11.481  14.539  1.00 35.30 LIG 0.20  C 
ATOM     31 OXT  ALA B   7      18.750  10.599  14.567  1.00 33.15 LIG-0.65  OA
ATOM     32 O    ALA B   7      20.269  11.631  13.504  1.00 30.65 LIG-0.65  OA
ENDBRANCH 28 30
ENDBRANCH 26 28
ENDBRANCH 23 24
BRANCH 23 33
ATOM     33  CB  THR B   6      17.914  16.258  13.650  1.00 40.55 LIG 0.15  C 
ATOM     34  CG2 THR B   6      16.449  16.557  13.442  1.00 29.01 LIG 0.04  C 
BRANCH 33 35
ATOM     35 OG1  THR B   6      18.704  17.451  13.497  1.00 38.86 LIG-0.39  OA
ATOM     36 HG1  THR B   6      18.841  17.796  14.252  1.00 38.86 LIG 0.21  HD
ENDBRANCH 33 35
ENDBRANCH 23 33
ENDBRANCH 21 23
ENDBRANCH 6 19
ENDBRANCH 4 6
ENDBRANCH 1 2
BRANCH 1 37
ATOM     37  CB  LEU B   4      16.509  20.208  15.682  1.00 31.55 LIG 0.04  C 
BRANCH 37 38
ATOM     38  CG  LEU B   4      16.051  18.779  16.005  1.00 40.70 LIG-0.02  C 
ATOM     39  CD2 LEU B   4      14.635  18.557  15.477  1.00 33.83 LIG 0.01  C 
ATOM     40  CD1 LEU B   4      16.151  18.426  17.495  1.00 30.33 LIG 0.01  C 
ENDBRANCH 37 38
ENDBRANCH 1 37
BRANCH 1 41
ATOM     41  N   LEU B   4      18.003  22.149  15.788  1.00 32.96 LIG-0.35  N 
ATOM     42  C   VAL B   3      17.714  23.248  16.477  1.00 32.71 LIG 0.24  C 
ATOM     43 O    VAL B   3      17.286  23.225  17.634  1.00 29.46 LIG-0.27  OA
ATOM     44 H    LEU B   4      18.342  22.158  14.998  1.00 32.96 LIG 0.16  HD
BRANCH 42 45
ATOM     45  CA  VAL B   3      17.926  24.576  15.755  1.00 32.18 LIG 0.18  C 
BRANCH 45 46
ATOM     46  N   VAL B   3      17.321  25.626  16.561  1.00 27.49 LIG-0.35  N 
ATOM     47 H    VAL B   3      17.673  25.722  17.340  1.00 27.49 LIG 0.16  HD
ATOM     48  C   PRO B   2      16.312  26.361  16.110  1.00 36.99 LIG 0.24  C 
ATOM     49 O    PRO B   2      15.949  26.369  14.932  1.00 37.97 LIG-0.27  OA
BRANCH 48 50
ATOM     50  CA  PRO B   2      15.593  27.215  17.143  1.00 42.38 LIG 0.18  C 
ATOM     51  CB  PRO B   2      15.389  26.398  18.418  1.00 38.27 LIG 0.04  C 
ATOM     52  CG  PRO B   2      14.055  25.756  18.234  1.00 37.96 LIG 0.02  C 
ATOM     53  CD  PRO B   2      13.218  26.767  17.490  1.00 39.69 LIG 0.13  C 
ATOM     54  N   PRO B   2      14.223  27.553  16.748  1.00 45.78 LIG-0.34  N 
ATOM     55  C   LYS B   1      13.945  28.448  15.787  1.00 52.29 LIG 0.25  C 
ATOM     56 O    LYS B   1      14.813  28.978  15.090  1.00 54.18 LIG-0.27  OA
BRANCH 55 57
ATOM     57  CA  LYS B   1      12.478  28.795  15.583  1.00 57.44 LIG 0.28  C 
BRANCH 57 58
ATOM     58  N   LYS B   1      11.697  27.600  15.269  1.00 70.48 LIG-0.07  N 
ATOM     59 H1   LYS B   1      11.315  27.291  16.011  1.00 70.48 LIG 0.28  HD
ATOM     60 H2   LYS B   1      11.067  27.803  14.674  1.00 70.48 LIG 0.28  HD
ATOM     61 H3   LYS B   1      12.233  26.975  14.931  1.00 70.48 LIG 0.28  HD
ENDBRANCH 57 58
BRANCH 57 62
ATOM     62  CB  LYS B   1      11.910  29.499  16.815  1.00 56.26 LIG 0.04  C 
BRANCH 62 63
ATOM     63  CG  LYS B   1      10.588  28.920  17.281  1.00 62.75 LIG 0.00  C 
BRANCH 63 64
ATOM     64  CD  LYS B   1       9.460  29.916  17.102  1.00 59.03 LIG 0.03  C 
BRANCH 64 65
ATOM     65  CE  LYS B   1       9.374  30.389  15.660  1.00 61.45 LIG 0.23  C 
BRANCH 65 66
ATOM     66  NZ  LYS B   1       8.293  29.681  14.912  1.00 70.72 LIG-0.08  N 
ATOM     67 HZ1  LYS B   1       8.156  30.088  14.133  1.00 70.72 LIG 0.27  HD
ATOM     68 HZ2  LYS B   1       8.536  28.837  14.766  1.00 70.72 LIG 0.27  HD
ATOM     69 HZ3  LYS B   1       7.542  29.695  15.390  1.00 70.72 LIG 0.27  HD
ENDBRANCH 65 66
ENDBRANCH 64 65
ENDBRANCH 63 64
ENDBRANCH 62 63
ENDBRANCH 57 62
ENDBRANCH 55 57
ENDBRANCH 48 50
ENDBRANCH 45 46
BRANCH 45 70
ATOM     70  CB  VAL B   3      19.430  24.824  15.540  1.00 30.17 LIG 0.01  C 
ATOM     71  CG1 VAL B   3      19.659  26.075  14.703  1.00 32.03 LIG 0.01  C 
ATOM     72  CG2 VAL B   3      20.134  24.935  16.880  1.00 31.22 LIG 0.01  C 
ENDBRANCH 45 70
ENDBRANCH 42 45
ENDBRANCH 1 41
TORSDOF 27
ENDMDL
MODEL 2
USER: ADFR SOLUTION from run 154
USER: SCORE 21.549445 LL:  -4.831 LR: -18.797 RR:   0.000 FEB: -10.743
USER: RMSD 6.986188
USER: SEED 153
USER: STATUS searching
USER: GENES 29
USER: genes 0 Translation |==|  0.55478 0.39411 0.50788
USER: genes 1 Rotation |==|  0.42848 0.99143 0.44672 0.52325
USER: genes 2 Torsion [N]-CA--C-[N] |==|  0.32910
USER: genes 3 Torsion [C]-N--CA-[C] |==|  0.82566
USER: genes 4 Torsion [N]-CA--CB-[CG] |==|  0.52451
USER: genes 5 Torsion [CA]-CB--CG-[CD] |==|  0.65437
USER: genes 6 Torsion [CB]-CG--CD-[NE] |==|  0.37613
USER: genes 7 Torsion [CG]-CD--NE-[HE] |==|  0.86599
USER: genes 8 Torsion [N]-CA--C-[N] |==|  0.41509
USER: genes 9 Torsion [C]-N--CA-[CB] |==|  0.27186
USER: genes 10 Torsion [N]-CA--C-[N] |==|  0.41599
USER: genes 11 Torsion [C]-N--CA-[CB] |==|  0.36702
USER: genes 12 Torsion [N]-CA--C-[OXT] |==|  0.92989
USER: genes 13 Torsion [N]-CA--CB-[CG2] |==|  0.69022
USER: genes 14 Torsion [CA]-CB--OG1-[HG1] |==|  0.98947
USER: genes 15 Torsion [C]-CA--CB-[CG] |==|  0.19222
USER: genes 16 Torsion [CA]-CB--CG-[CD2] |==|  0.06892
USER: genes 17 Torsion [C]-CA--N-[C] |==|  0.56347
USER: genes 18 Torsion [N]-C--CA-[N] |==|  0.31849
USER: genes 19 Torsion [C]-CA--N-[C] |==|  0.53419
USER: genes 20 Torsion [N]-C--CA-[CB] |==|  0.48873
USER: genes 21 Torsion [N]-C--CA-[N] |==|  0.23637
USER: genes 22 Torsion [C]-CA--N-[H1] |==|  0.20112
USER: genes 23 Torsion [C]-CA--CB-[CG] |==|  0.79609
USER: genes 24 Torsion [CA]-CB--CG-[CD] |==|  0.55767
USER: genes 25 Torsion [CB]-CG--CD-[CE] |==|  0.30064
USER: genes 26 Torsion [CG]-CD--CE-[NZ] |==|  0.06145
USER: genes 27 Torsion [CD]-CE--NZ-[HZ1] |==|  0.78289
USER: genes 28 Torsion [C]-CA--CB-[CG1] |==|  0.39000
ROOT
ATOM      1  CA  LEU B   4      17.986  22.141  16.566  1.00 33.70 LIG 0.18  C 
ENDROOT
BRANCH 1 2
ATOM      2  C   LEU B   4      18.956  21.011  16.237  1.00 36.59 LIG 0.24  C 
ATOM      3 O    LEU B   4      19.168  20.677  15.070  1.00 35.62 LIG-0.27  OA
ATOM      4  N   ARG B   5      19.544  20.427  17.275  1.00 30.50 LIG-0.35  N 
ATOM      5 H    ARG B   5      19.452  20.696  18.087  1.00 30.50 LIG 0.16  HD
BRANCH 4 6
ATOM      6  CA  ARG B   5      20.410  19.262  17.128  1.00 32.70 LIG 0.18  C 
BRANCH 6 7
ATOM      7  CB  ARG B   5      21.051  18.878  18.467  1.00 28.13 LIG 0.04  C 
BRANCH 7 8
ATOM      8  CG  ARG B   5      22.128  17.806  18.341  1.00 29.30 LIG 0.02  C 
BRANCH 8 9
ATOM      9  CD  ARG B   5      21.862  16.598  19.222  1.00 34.57 LIG 0.14  C 
BRANCH 9 10
ATOM     10  NE  ARG B   5      22.080  15.336  18.535  1.00 41.05 LIG-0.23  N 
ATOM     11 HE   ARG B   5      21.725  15.238  17.758  1.00 41.05 LIG 0.18  HD
ATOM     12  CZ  ARG B   5      22.788  14.321  19.024  1.00 43.39 LIG 0.67  C 
ATOM     13  NH2 ARG B   5      22.918  13.205  18.318  1.00 33.00 LIG-0.23  N 
ATOM     14  NH1 ARG B   5      23.363  14.417  20.214  1.00 41.15 LIG-0.23  N 
ATOM     15 1HH2 ARG B   5      22.545  13.139  17.546  1.00 33.00 LIG 0.17  HD
ATOM     16 2HH2 ARG B   5      23.375  12.547  18.632  1.00 33.00 LIG 0.17  HD
ATOM     17 2HH1 ARG B   5      23.820  13.758  20.525  1.00 41.15 LIG 0.17  HD
ATOM     18 1HH1 ARG B   5      23.279  15.138  20.676  1.00 41.15 LIG 0.17  HD
ENDBRANCH 9 10
ENDBRANCH 8 9
ENDBRANCH 7 8
ENDBRANCH 6 7
BRANCH 6 19
ATOM     19  C   ARG B   5      19.625  18.084  16.568  1.00 32.44 LIG 0.24  C 
ATOM     20 O    ARG B   5      18.422  17.977  16.807  1.00 30.81 LIG-0.27  OA
ATOM     21  N   THR B   6      20.290  17.210  15.813  1.00 35.68 LIG-0.34  N 
ATOM     22 H    THR B   6      21.104  17.305  15.556  1.00 35.68 LIG 0.16  HD
BRANCH 21 23
ATOM     23  CA  THR B   6      19.636  15.980  15.362  1.00 34.81 LIG 0.20  C 
BRANCH 23 24
ATOM     24  C   THR B   6      20.614  14.824  15.409  1.00 33.55 LIG 0.24  C 
ATOM     25 O    THR B   6      21.817  15.015  15.236  1.00 36.63 LIG-0.27  OA
ATOM     26  N   ALA B   7      20.093  13.625  15.642  1.00 35.45 LIG-0.34  N 
ATOM     27 H    ALA B   7      19.252  13.473  15.738  1.00 35.45 LIG 0.16  HD
BRANCH 26 28
ATOM     28  CA  ALA B   7      20.939  12.445  15.754  1.00 34.62 LIG 0.18  C 
ATOM     29  CB  ALA B   7      20.560  11.638  16.990  1.00 31.37 LIG 0.04  C 
BRANCH 28 30
ATOM     30  C   ALA B   7      20.861  11.579  14.501  1.00 35.30 LIG 0.20  C 
ATOM     31 OXT  ALA B   7      19.858  11.623  13.785  1.00 33.15 LIG-0.65  OA
ATOM     32 O    ALA B   7      21.778  10.813  14.185  1.00 30.65 LIG-0.65  OA
ENDBRANCH 28 30
ENDBRANCH 26 28
ENDBRANCH 23 24
BRANCH 23 33
ATOM     33  CB  THR B   6      19.076  16.058  13.928  1.00 40.55 LIG 0.15  C 
ATOM     34  CG2 THR B   6      17.568  16.033  13.970  1.00 29.01 LIG 0.04  C 
BRANCH 33 35
ATOM     35 OG1  THR B   6      19.548  17.240  13.256  1.00 38.86 LIG-0.39  OA
ATOM     36 HG1  THR B   6      20.004  17.703  13.789  1.00 38.86 LIG 0.21  HD
ENDBRANCH 33 35
ENDBRANCH 23 33
ENDBRANCH 21 23
ENDBRANCH 6 19
ENDBRANCH 4 6
ENDBRANCH 1 2
BRANCH 1 37
ATOM     37  CB  LEU B   4      16.590  21.781  16.047  1.00 31.55 LIG 0.04  C 
BRANCH 37 38
ATOM     38  CG  LEU B   4      15.764  20.654  16.683  1.00 40.70 LIG-0.02  C 
ATOM     39  CD2 LEU B   4      16.204  20.443  18.130  1.00 33.83 LIG 0.01  C 
ATOM     40  CD1 LEU B   4      15.808  19.340  15.891  1.00 30.33 LIG 0.01  C 
ENDBRANCH 37 38
ENDBRANCH 1 37
BRANCH 1 41
ATOM     41  N   LEU B   4      18.421  23.410  15.987  1.00 32.96 LIG-0.35  N 
ATOM     42  C   VAL B   3      18.029  24.584  16.469  1.00 32.71 LIG 0.24  C 
ATOM     43 O    VAL B   3      17.323  24.697  17.474  1.00 29.46 LIG-0.27  OA
ATOM     44 H    LEU B   4      18.948  23.325  15.312  1.00 32.96 LIG 0.16  HD
BRANCH 42 45
ATOM     45  CA  VAL B   3      18.487  25.820  15.701  1.00 32.18 LIG 0.18  C 
BRANCH 45 46
ATOM     46  N   VAL B   3      17.307  26.467  15.145  1.00 27.49 LIG-0.35  N 
ATOM     47 H    VAL B   3      16.562  26.173  15.458  1.00 27.49 LIG 0.16  HD
ATOM     48  C   PRO B   2      17.400  27.425  14.232  1.00 36.99 LIG 0.24  C 
ATOM     49 O    PRO B   2      18.457  27.987  13.940  1.00 37.97 LIG-0.27  OA
BRANCH 48 50
ATOM     50  CA  PRO B   2      16.105  27.808  13.532  1.00 42.38 LIG 0.18  C 
ATOM     51  CB  PRO B   2      16.369  28.984  12.594  1.00 38.27 LIG 0.04  C 
ATOM     52  CG  PRO B   2      16.103  30.190  13.430  1.00 37.96 LIG 0.02  C 
ATOM     53  CD  PRO B   2      14.961  29.807  14.339  1.00 39.69 LIG 0.13  C 
ATOM     54  N   PRO B   2      15.097  28.343  14.452  1.00 45.78 LIG-0.34  N 
ATOM     55  C   LYS B   1      14.422  27.570  15.317  1.00 52.29 LIG 0.25  C 
ATOM     56 O    LYS B   1      14.667  26.373  15.483  1.00 54.18 LIG-0.27  OA
BRANCH 55 57
ATOM     57  CA  LYS B   1      13.313  28.245  16.110  1.00 57.44 LIG 0.28  C 
BRANCH 57 58
ATOM     58  N   LYS B   1      12.064  28.261  15.351  1.00 70.48 LIG-0.07  N 
ATOM     59 H1   LYS B   1      11.723  27.440  15.323  1.00 70.48 LIG 0.28  HD
ATOM     60 H2   LYS B   1      11.483  28.810  15.746  1.00 70.48 LIG 0.28  HD
ATOM     61 H3   LYS B   1      12.223  28.545  14.523  1.00 70.48 LIG 0.28  HD
ENDBRANCH 57 58
BRANCH 57 62
ATOM     62  CB  LYS B   1      13.113  27.554  17.459  1.00 56.26 LIG 0.04  C 
BRANCH 62 63
ATOM     63  CG  LYS B   1      12.429  26.205  17.347  1.00 62.75 LIG 0.00  C 
BRANCH 63 64
ATOM     64  CD  LYS B   1      11.804  25.796  18.665  1.00 59.03 LIG 0.03  C 
BRANCH 64 65
ATOM     65  CE  LYS B   1      10.288  25.882  18.600  1.00 61.45 LIG 0.23  C 
BRANCH 65 66
ATOM     66  NZ  LYS B   1       9.794  25.817  17.192  1.00 70.72 LIG-0.08  N 
ATOM     67 HZ1  LYS B   1       9.906  26.608  16.801  1.00 70.72 LIG 0.27  HD
ATOM     68 HZ2  LYS B   1      10.251  25.198  16.744  1.00 70.72 LIG 0.27  HD
ATOM     69 HZ3  LYS B   1       8.929  25.606  17.191  1.00 70.72 LIG 0.27  HD
ENDBRANCH 65 66
ENDBRANCH 64 65
ENDBRANCH 63 64
ENDBRANCH 62 63
ENDBRANCH 57 62
ENDBRANCH 55 57
ENDBRANCH 48 50
ENDBRANCH 45 46
BRANCH 45 70
ATOM     70  CB  VAL B   3      19.259  26.766  16.639  1.00 30.17 LIG 0.01  C 
ATOM     71  CG1 VAL B   3      20.456  27.380  15.926  1.00 32.03 LIG 0.01  C 
ATOM     72  CG2 VAL B   3      18.332  27.846  17.165  1.00 31.22 LIG 0.01  C 
ENDBRANCH 45 70
ENDBRANCH 42 45
ENDBRANCH 1 41
TORSDOF 27
ENDMDL
MODEL 3
USER: ADFR SOLUTION from run 35
USER: SCORE 22.202532 LL:  -4.717 LR: -18.787 RR:   0.000 FEB: -10.733
USER: RMSD 7.925842
USER: SEED 34
USER: STATUS no improvement in best in 3 clusters for 5 generations
USER: GENES 29
USER: genes 0 Translation |==|  0.56019 0.39801 0.51414
USER: genes 1 Rotation |==|  0.59252 0.01556 0.57687 0.52910
USER: genes 2 Torsion [N]-CA--C-[N] |==|  0.38889
USER: genes 3 Torsion [C]-N--CA-[C] |==|  0.81524
USER: genes 4 Torsion [N]-CA--CB-[CG] |==|  0.54922
USER: genes 5 Torsion [CA]-CB--CG-[CD] |==|  0.59791
USER: genes 6 Torsion [CB]-CG--CD-[NE] |==|  0.62756
USER: genes 7 Torsion [CG]-CD--NE-[HE] |==|  0.96436
USER: genes 8 Torsion [N]-CA--C-[N] |==|  0.43630
USER: genes 9 Torsion [C]-N--CA-[CB] |==|  0.24704
USER: genes 10 Torsion [N]-CA--C-[N] |==|  0.39944
USER: genes 11 Torsion [C]-N--CA-[CB] |==|  0.30636
USER: genes 12 Torsion [N]-CA--C-[OXT] |==|  0.12066
USER: genes 13 Torsion [N]-CA--CB-[CG2] |==|  0.68516
USER: genes 14 Torsion [CA]-CB--OG1-[HG1] |==|  0.98078
USER: genes 15 Torsion [C]-CA--CB-[CG] |==|  0.06148
USER: genes 16 Torsion [CA]-CB--CG-[CD2] |==|  0.58737
USER: genes 17 Torsion [C]-CA--N-[C] |==|  0.62471
USER: genes 18 Torsion [N]-C--CA-[N] |==|  0.39828
USER: genes 19 Torsion [C]-CA--N-[C] |==|  0.76704
USER: genes 20 Torsion [N]-C--CA-[CB] |==|  0.96476
USER: genes 21 Torsion [N]-C--CA-[N] |==|  0.40886
USER: genes 22 Torsion [C]-CA--N-[H1] |==|  0.62586
USER: genes 23 Torsion [C]-CA--CB-[CG] |==|  0.52982
USER: genes 24 Torsion [CA]-CB--CG-[CD] |==|  0.44082
USER: genes 25 Torsion [CB]-CG--CD-[CE] |==|  0.79825
USER: genes 26 Torsion [CG]-CD--CE-[NZ] |==|  0.76095
USER: genes 27 Torsion [CD]-CE--NZ-[HZ1] |==|  0.13079
USER: genes 28 Torsion [C]-CA--CB-[CG1] |==|  0.04583
ROOT
ATOM      1  CA  LEU B   4      18.092  22.267  16.665  1.00 33.70 LIG 0.18  C 
ENDROOT
BRANCH 1 2
ATOM      2  C   LEU B   4      19.058  21.149  16.287  1.00 36.59 LIG 0.24  C 
ATOM      3 O    LEU B   4      19.353  20.936  15.110  1.00 35.62 LIG-0.27  OA
ATOM      4  N   ARG B   5      19.550  20.439  17.296  1.00 30.50 LIG-0.35  N 
ATOM      5 H    ARG B   5      19.402  20.622  18.123  1.00 30.50 LIG 0.16  HD
BRANCH 4 6
ATOM      6  CA  ARG B   5      20.399  19.270  17.088  1.00 32.70 LIG 0.18  C 
BRANCH 6 7
ATOM      7  CB  ARG B   5      21.000  18.781  18.410  1.00 28.13 LIG 0.04  C 
BRANCH 7 8
ATOM      8  CG  ARG B   5      22.203  17.862  18.229  1.00 29.30 LIG 0.02  C 
BRANCH 8 9
ATOM      9  CD  ARG B   5      22.271  16.769  19.282  1.00 34.57 LIG 0.14  C 
BRANCH 9 10
ATOM     10  NE  ARG B   5      23.601  16.609  19.847  1.00 41.05 LIG-0.23  N 
ATOM     11 HE   ARG B   5      24.255  16.997  19.447  1.00 41.05 LIG 0.18  HD
ATOM     12  CZ  ARG B   5      23.878  15.903  20.941  1.00 43.39 LIG 0.67  C 
ATOM     13  NH2 ARG B   5      25.131  15.813  21.370  1.00 33.00 LIG-0.23  N 
ATOM     14  NH1 ARG B   5      22.910  15.288  21.605  1.00 41.15 LIG-0.23  N 
ATOM     15 1HH2 ARG B   5      25.762  16.210  20.941  1.00 33.00 LIG 0.17  HD
ATOM     16 2HH2 ARG B   5      25.312  15.357  22.077  1.00 33.00 LIG 0.17  HD
ATOM     17 2HH1 ARG B   5      23.095  14.833  22.311  1.00 41.15 LIG 0.17  HD
ATOM     18 1HH1 ARG B   5      22.097  15.343  21.329  1.00 41.15 LIG 0.17  HD
ENDBRANCH 9 10
ENDBRANCH 8 9
ENDBRANCH 7 8
ENDBRANCH 6 7
BRANCH 6 19
ATOM     19  C   ARG B   5      19.606  18.150  16.428  1.00 32.44 LIG 0.24  C 
ATOM     20 O    ARG B   5      18.378  18.132  16.515  1.00 30.81 LIG-0.27  OA
ATOM     21  N   THR B   6      20.295  17.227  15.757  1.00 35.68 LIG-0.34  N 
ATOM     22 H    THR B   6      21.140  17.263  15.603  1.00 35.68 LIG 0.16  HD
BRANCH 21 23
ATOM     23  CA  THR B   6      19.615  16.047  15.221  1.00 34.81 LIG 0.20  C 
BRANCH 23 24
ATOM     24  C   THR B   6      20.570  14.871  15.180  1.00 33.55 LIG 0.24  C 
ATOM     25 O    THR B   6      21.758  15.039  14.908  1.00 36.63 LIG-0.27  OA
ATOM     26  N   ALA B   7      20.046  13.681  15.450  1.00 35.45 LIG-0.34  N 
ATOM     27 H    ALA B   7      19.213  13.545  15.616  1.00 35.45 LIG 0.16  HD
BRANCH 26 28
ATOM     28  CA  ALA B   7      20.874  12.484  15.485  1.00 34.62 LIG 0.18  C 
ATOM     29  CB  ALA B   7      21.004  11.972  16.914  1.00 31.37 LIG 0.04  C 
BRANCH 28 30
ATOM     30  C   ALA B   7      20.322  11.394  14.571  1.00 35.30 LIG 0.20  C 
ATOM     31 OXT  ALA B   7      19.917  11.685  13.444  1.00 33.15 LIG-0.65  OA
ATOM     32 O    ALA B   7      20.256  10.215  14.938  1.00 30.65 LIG-0.65  OA
ENDBRANCH 28 30
ENDBRANCH 26 28
ENDBRANCH 23 24
BRANCH 23 33
ATOM     33  CB  THR B   6      19.053  16.239  13.799  1.00 40.55 LIG 0.15  C 
ATOM     34  CG2 THR B   6      17.545  16.195  13.839  1.00 29.01 LIG 0.04  C 
BRANCH 33 35
ATOM     35 OG1  THR B   6      19.512  17.478  13.228  1.00 38.86 LIG-0.39  OA
ATOM     36 HG1  THR B   6      19.928  17.918  13.811  1.00 38.86 LIG 0.21  HD
ENDBRANCH 33 35
ENDBRANCH 23 33
ENDBRANCH 21 23
ENDBRANCH 6 19
ENDBRANCH 4 6
ENDBRANCH 1 2
BRANCH 1 37
ATOM     37  CB  LEU B   4      16.651  21.775  16.487  1.00 31.55 LIG 0.04  C 
BRANCH 37 38
ATOM     38  CG  LEU B   4      16.308  20.280  16.493  1.00 40.70 LIG-0.02  C 
ATOM     39  CD2 LEU B   4      15.110  20.018  15.583  1.00 33.83 LIG 0.01  C 
ATOM     40  CD1 LEU B   4      16.073  19.710  17.898  1.00 30.33 LIG 0.01  C 
ENDBRANCH 37 38
ENDBRANCH 1 37
BRANCH 1 41
ATOM     41  N   LEU B   4      18.312  23.465  15.858  1.00 32.96 LIG-0.35  N 
ATOM     42  C   VAL B   3      18.348  24.683  16.388  1.00 32.71 LIG 0.24  C 
ATOM     43 O    VAL B   3      18.260  24.893  17.600  1.00 29.46 LIG-0.27  OA
ATOM     44 H    LEU B   4      18.416  23.308  15.019  1.00 32.96 LIG 0.16  HD
BRANCH 42 45
ATOM     45  CA  VAL B   3      18.491  25.844  15.409  1.00 32.18 LIG 0.18  C 
BRANCH 45 46
ATOM     46  N   VAL B   3      17.692  26.954  15.909  1.00 27.49 LIG-0.35  N 
ATOM     47 H    VAL B   3      18.136  27.532  16.366  1.00 27.49 LIG 0.16  HD
ATOM     48  C   PRO B   2      16.390  27.044  15.668  1.00 36.99 LIG 0.24  C 
ATOM     49 O    PRO B   2      15.800  26.339  14.847  1.00 37.97 LIG-0.27  OA
BRANCH 48 50
ATOM     50  CA  PRO B   2      15.631  28.082  16.479  1.00 42.38 LIG 0.18  C 
ATOM     51  CB  PRO B   2      16.515  28.573  17.623  1.00 38.27 LIG 0.04  C 
ATOM     52  CG  PRO B   2      16.190  27.662  18.758  1.00 37.96 LIG 0.02  C 
ATOM     53  CD  PRO B   2      14.718  27.359  18.625  1.00 39.69 LIG 0.13  C 
ATOM     54  N   PRO B   2      14.471  27.521  17.179  1.00 45.78 LIG-0.34  N 
ATOM     55  C   LYS B   1      13.344  27.165  16.544  1.00 52.29 LIG 0.25  C 
ATOM     56 O    LYS B   1      13.228  27.180  15.317  1.00 54.18 LIG-0.27  OA
BRANCH 55 57
ATOM     57  CA  LYS B   1      12.179  26.726  17.420  1.00 57.44 LIG 0.28  C 
BRANCH 57 58
ATOM     58  N   LYS B   1      10.902  27.099  16.817  1.00 70.48 LIG-0.07  N 
ATOM     59 H1   LYS B   1      10.374  27.459  17.437  1.00 70.48 LIG 0.28  HD
ATOM     60 H2   LYS B   1      11.041  27.692  16.167  1.00 70.48 LIG 0.28  HD
ATOM     61 H3   LYS B   1      10.510  26.375  16.479  1.00 70.48 LIG 0.28  HD
ENDBRANCH 57 58
BRANCH 57 62
ATOM     62  CB  LYS B   1      12.232  25.221  17.679  1.00 56.26 LIG 0.04  C 
BRANCH 62 63
ATOM     63  CG  LYS B   1      10.971  24.678  18.324  1.00 62.75 LIG 0.00  C 
BRANCH 63 64
ATOM     64  CD  LYS B   1      10.836  23.187  18.094  1.00 59.03 LIG 0.03  C 
BRANCH 64 65
ATOM     65  CE  LYS B   1      10.464  22.889  16.651  1.00 61.45 LIG 0.23  C 
BRANCH 65 66
ATOM     66  NZ  LYS B   1       8.986  22.945  16.441  1.00 70.72 LIG-0.08  N 
ATOM     67 HZ1  LYS B   1       8.660  23.683  16.816  1.00 70.72 LIG 0.27  HD
ATOM     68 HZ2  LYS B   1       8.810  22.954  15.568  1.00 70.72 LIG 0.27  HD
ATOM     69 HZ3  LYS B   1       8.605  22.231  16.813  1.00 70.72 LIG 0.27  HD
ENDBRANCH 65 66
ENDBRANCH 64 65
ENDBRANCH 63 64
ENDBRANCH 62 63
ENDBRANCH 57 62
ENDBRANCH 55 57
ENDBRANCH 48 50
ENDBRANCH 45 46
BRANCH 45 70
ATOM     70  CB  VAL B   3      19.973  26.235  15.268  1.00 30.17 LIG 0.01  C 
ATOM     71  CG1 VAL B   3      20.879  25.132  15.798  1.00 32.03 LIG 0.01  C 
ATOM     72  CG2 VAL B   3      20.292  26.544  13.817  1.00 31.22 LIG 0.01  C 
ENDBRANCH 45 70
ENDBRANCH 42 45
ENDBRANCH 1 41
TORSDOF 27
ENDMDL
MODEL 4
USER: ADFR SOLUTION from run 193
USER: SCORE 22.138802 LL:  -4.518 LR: -18.669 RR:   0.000 FEB: -10.615
USER: RMSD 7.540594
USER: SEED 192
USER: STATUS searching
USER: GENES 29
USER: genes 0 Translation |==|  0.54575 0.35050 0.49375
USER: genes 1 Rotation |==|  0.38451 0.98219 0.45873 0.54951
USER: genes 2 Torsion [N]-CA--C-[N] |==|  0.37346
USER: genes 3 Torsion [C]-N--CA-[C] |==|  0.81727
USER: genes 4 Torsion [N]-CA--CB-[CG] |==|  0.36770
USER: genes 5 Torsion [CA]-CB--CG-[CD] |==|  0.33382
USER: genes 6 Torsion [CB]-CG--CD-[NE] |==|  0.55592
USER: genes 7 Torsion [CG]-CD--NE-[HE] |==|  0.26556
USER: genes 8 Torsion [N]-CA--C-[N] |==|  0.89193
USER: genes 9 Torsion [C]-N--CA-[CB] |==|  0.80807
USER: genes 10 Torsion [N]-CA--C-[N] |==|  0.22120
USER: genes 11 Torsion [C]-N--CA-[CB] |==|  0.49052
USER: genes 12 Torsion [N]-CA--C-[OXT] |==|  0.79280
USER: genes 13 Torsion [N]-CA--CB-[CG2] |==|  0.71912
USER: genes 14 Torsion [CA]-CB--OG1-[HG1] |==|  0.14784
USER: genes 15 Torsion [C]-CA--CB-[CG] |==|  0.14949
USER: genes 16 Torsion [CA]-CB--CG-[CD2] |==|  0.47784
USER: genes 17 Torsion [C]-CA--N-[C] |==|  0.61202
USER: genes 18 Torsion [N]-C--CA-[N] |==|  0.47777
USER: genes 19 Torsion [C]-CA--N-[C] |==|  0.67087
USER: genes 20 Torsion [N]-C--CA-[CB] |==|  0.88011
USER: genes 21 Torsion [N]-C--CA-[N] |==|  0.83893
USER: genes 22 Torsion [C]-CA--N-[H1] |==|  0.26880
USER: genes 23 Torsion [C]-CA--CB-[CG] |==|  0.63447
USER: genes 24 Torsion [CA]-CB--CG-[CD] |==|  0.68495
USER: genes 25 Torsion [CB]-CG--CD-[CE] |==|  0.15330
USER: genes 26 Torsion [CG]-CD--CE-[NZ] |==|  0.27813
USER: genes 27 Torsion [CD]-CE--NZ-[HZ1] |==|  0.46831
USER: genes 28 Torsion [C]-CA--CB-[CG1] |==|  0.48454
ROOT
ATOM      1  CA  LEU B   4      17.810  20.735  16.344  1.00 33.70 LIG 0.18  C 
ENDROOT
BRANCH 1 2
ATOM      2  C   LEU B   4      19.001  19.829  16.049  1.00 36.59 LIG 0.24  C 
ATOM      3 O    LEU B   4      19.542  19.832  14.942  1.00 35.62 LIG-0.27  OA
ATOM      4  N   ARG B   5      19.405  19.054  17.050  1.00 30.50 LIG-0.35  N 
ATOM      5 H    ARG B   5      19.076  19.093  17.844  1.00 30.50 LIG 0.16  HD
BRANCH 4 6
ATOM      6  CA  ARG B   5      20.458  18.057  16.890  1.00 32.70 LIG 0.18  C 
BRANCH 6 7
ATOM      7  CB  ARG B   5      20.860  17.456  18.241  1.00 28.13 LIG 0.04  C 
BRANCH 7 8
ATOM      8  CG  ARG B   5      20.938  15.933  18.231  1.00 29.30 LIG 0.02  C 
BRANCH 8 9
ATOM      9  CD  ARG B   5      22.320  15.412  18.587  1.00 34.57 LIG 0.14  C 
BRANCH 9 10
ATOM     10  NE  ARG B   5      22.543  14.046  18.141  1.00 41.05 LIG-0.23  N 
ATOM     11 HE   ARG B   5      22.940  13.932  17.388  1.00 41.05 LIG 0.18  HD
ATOM     12  CZ  ARG B   5      22.175  12.961  18.817  1.00 43.39 LIG 0.67  C 
ATOM     13  NH2 ARG B   5      22.419  11.756  18.316  1.00 33.00 LIG-0.23  N 
ATOM     14  NH1 ARG B   5      21.565  13.075  19.988  1.00 41.15 LIG-0.23  N 
ATOM     15 1HH2 ARG B   5      22.814  11.678  17.556  1.00 33.00 LIG 0.17  HD
ATOM     16 2HH2 ARG B   5      22.182  11.053  18.751  1.00 33.00 LIG 0.17  HD
ATOM     17 2HH1 ARG B   5      21.330  12.370  20.421  1.00 41.15 LIG 0.17  HD
ATOM     18 1HH1 ARG B   5      21.405  13.854  20.315  1.00 41.15 LIG 0.17  HD
ENDBRANCH 9 10
ENDBRANCH 8 9
ENDBRANCH 7 8
ENDBRANCH 6 7
BRANCH 6 19
ATOM     19  C   ARG B   5      20.006  16.956  15.941  1.00 32.44 LIG 0.24  C 
ATOM     20 O    ARG B   5      20.805  16.464  15.144  1.00 30.81 LIG-0.27  OA
ATOM     21  N   THR B   6      18.738  16.555  16.030  1.00 35.68 LIG-0.34  N 
ATOM     22 H    THR B   6      18.184  16.814  16.634  1.00 35.68 LIG 0.16  HD
BRANCH 21 23
ATOM     23  CA  THR B   6      18.196  15.605  15.056  1.00 34.81 LIG 0.20  C 
BRANCH 23 24
ATOM     24  C   THR B   6      19.097  14.391  14.958  1.00 33.55 LIG 0.24  C 
ATOM     25 O    THR B   6      19.896  14.278  14.029  1.00 36.63 LIG-0.27  OA
ATOM     26  N   ALA B   7      18.965  13.483  15.918  1.00 35.45 LIG-0.34  N 
ATOM     27 H    ALA B   7      18.393  13.536  16.558  1.00 35.45 LIG 0.16  HD
BRANCH 26 28
ATOM     28  CA  ALA B   7      19.807  12.297  15.953  1.00 34.62 LIG 0.18  C 
ATOM     29  CB  ALA B   7      19.505  11.470  17.198  1.00 31.37 LIG 0.04  C 
BRANCH 28 30
ATOM     30  C   ALA B   7      19.640  11.452  14.694  1.00 35.30 LIG 0.20  C 
ATOM     31 OXT  ALA B   7      18.623  10.773  14.541  1.00 33.15 LIG-0.65  OA
ATOM     32 O    ALA B   7      20.510  11.418  13.817  1.00 30.65 LIG-0.65  OA
ENDBRANCH 28 30
ENDBRANCH 26 28
ENDBRANCH 23 24
BRANCH 23 33
ATOM     33  CB  THR B   6      18.039  16.184  13.637  1.00 40.55 LIG 0.15  C 
ATOM     34  CG2 THR B   6      16.595  16.551  13.396  1.00 29.01 LIG 0.04  C 
BRANCH 33 35
ATOM     35 OG1  THR B   6      18.893  17.327  13.451  1.00 38.86 LIG-0.39  OA
ATOM     36 HG1  THR B   6      19.683  17.123  13.652  1.00 38.86 LIG 0.21  HD
ENDBRANCH 33 35
ENDBRANCH 23 33
ENDBRANCH 21 23
ENDBRANCH 6 19
ENDBRANCH 4 6
ENDBRANCH 1 2
BRANCH 1 37
ATOM     37  CB  LEU B   4      16.551  20.148  15.694  1.00 31.55 LIG 0.04  C 
BRANCH 37 38
ATOM     38  CG  LEU B   4      16.111  18.703  15.963  1.00 40.70 LIG-0.02  C 
ATOM     39  CD2 LEU B   4      14.734  18.458  15.350  1.00 33.83 LIG 0.01  C 
ATOM     40  CD1 LEU B   4      16.133  18.322  17.449  1.00 30.33 LIG 0.01  C 
ENDBRANCH 37 38
ENDBRANCH 1 37
BRANCH 1 41
ATOM     41  N   LEU B   4      18.034  22.094  15.857  1.00 32.96 LIG-0.35  N 
ATOM     42  C   VAL B   3      17.667  23.167  16.549  1.00 32.71 LIG 0.24  C 
ATOM     43 O    VAL B   3      17.169  23.104  17.675  1.00 29.46 LIG-0.27  OA
ATOM     44 H    LEU B   4      18.421  22.132  15.090  1.00 32.96 LIG 0.16  HD
BRANCH 42 45
ATOM     45  CA  VAL B   3      17.879  24.517  15.870  1.00 32.18 LIG 0.18  C 
BRANCH 45 46
ATOM     46  N   VAL B   3      17.248  25.538  16.693  1.00 27.49 LIG-0.35  N 
ATOM     47 H    VAL B   3      17.576  25.606  17.485  1.00 27.49 LIG 0.16  HD
ATOM     48  C   PRO B   2      16.253  26.288  16.238  1.00 36.99 LIG 0.24  C 
ATOM     49 O    PRO B   2      15.927  26.337  15.050  1.00 37.97 LIG-0.27  OA
BRANCH 48 50
ATOM     50  CA  PRO B   2      15.501  27.104  17.278  1.00 42.38 LIG 0.18  C 
ATOM     51  CB  PRO B   2      15.250  26.240  18.511  1.00 38.27 LIG 0.04  C 
ATOM     52  CG  PRO B   2      13.921  25.611  18.257  1.00 37.96 LIG 0.02  C 
ATOM     53  CD  PRO B   2      13.114  26.654  17.524  1.00 39.69 LIG 0.13  C 
ATOM     54  N   PRO B   2      14.146  27.463  16.848  1.00 45.78 LIG-0.34  N 
ATOM     55  C   LYS B   1      13.905  28.397  15.914  1.00 52.29 LIG 0.25  C 
ATOM     56 O    LYS B   1      14.798  28.949  15.268  1.00 54.18 LIG-0.27  OA
BRANCH 55 57
ATOM     57  CA  LYS B   1      12.447  28.757  15.673  1.00 57.44 LIG 0.28  C 
BRANCH 57 58
ATOM     58  N   LYS B   1      11.673  27.578  15.289  1.00 70.48 LIG-0.07  N 
ATOM     59 H1   LYS B   1      11.265  27.244  16.006  1.00 70.48 LIG 0.28  HD
ATOM     60 H2   LYS B   1      11.064  27.806  14.681  1.00 70.48 LIG 0.28  HD
ATOM     61 H3   LYS B   1      12.218  26.964  14.946  1.00 70.48 LIG 0.28  HD
ENDBRANCH 57 58
BRANCH 57 62
ATOM     62  CB  LYS B   1      11.839  29.418  16.910  1.00 56.26 LIG 0.04  C 
BRANCH 62 63
ATOM     63  CG  LYS B   1      10.503  28.825  17.312  1.00 62.75 LIG 0.00  C 
BRANCH 63 64
ATOM     64  CD  LYS B   1       9.381  29.828  17.131  1.00 59.03 LIG 0.03  C 
BRANCH 64 65
ATOM     65  CE  LYS B   1       9.349  30.360  15.708  1.00 61.45 LIG 0.23  C 
BRANCH 65 66
ATOM     66  NZ  LYS B   1       8.300  29.681  14.890  1.00 70.72 LIG-0.08  N 
ATOM     67 HZ1  LYS B   1       8.191  30.119  14.124  1.00 70.72 LIG 0.27  HD
ATOM     68 HZ2  LYS B   1       8.551  28.844  14.720  1.00 70.72 LIG 0.27  HD
ATOM     69 HZ3  LYS B   1       7.531  29.675  15.339  1.00 70.72 LIG 0.27  HD
ENDBRANCH 65 66
ENDBRANCH 64 65
ENDBRANCH 63 64
ENDBRANCH 62 63
ENDBRANCH 57 62
ENDBRANCH 55 57
ENDBRANCH 48 50
ENDBRANCH 45 46
BRANCH 45 70
ATOM     70  CB  VAL B   3      19.385  24.786  15.692  1.00 30.17 LIG 0.01  C 
ATOM     71  CG1 VAL B   3      19.618  26.062  14.895  1.00 32.03 LIG 0.01  C 
ATOM     72  CG2 VAL B   3      20.061  24.865  17.047  1.00 31.22 LIG 0.01  C 
ENDBRANCH 45 70
ENDBRANCH 42 45
ENDBRANCH 1 41
TORSDOF 27
ENDMDL
MODEL 5
USER: ADFR SOLUTION from run 8
USER: SCORE 21.220778 LL:  -4.788 LR: -18.517 RR:   0.000 FEB: -10.463
USER: RMSD 7.066974
USER: SEED 95317
USER: STATUS no improvement in best in 3 clusters for 5 generations
USER: GENES 29
USER: genes 0 Translation |==|  0.59526 0.33502 0.57259
USER: genes 1 Rotation |==|  0.42453 0.98704 0.55860 0.56050
USER: genes 2 Torsion [N]-CA--C-[N] |==|  0.31469
USER: genes 3 Torsion [C]-N--CA-[C] |==|  0.82566
USER: genes 4 Torsion [N]-CA--CB-[CG] |==|  0.19744
USER: genes 5 Torsion [CA]-CB--CG-[CD] |==|  0.23728
USER: genes 6 Torsion [CB]-CG--CD-[NE] |==|  0.18678
USER: genes 7 Torsion [CG]-CD--NE-[HE] |==|  0.72106
USER: genes 8 Torsion [N]-CA--C-[N] |==|  0.93612
USER: genes 9 Torsion [C]-N--CA-[CB] |==|  0.79822
USER: genes 10 Torsion [N]-CA--C-[N] |==|  0.20665
USER: genes 11 Torsion [C]-N--CA-[CB] |==|  0.48511
USER: genes 12 Torsion [N]-CA--C-[OXT] |==|  0.72389
USER: genes 13 Torsion [N]-CA--CB-[CG2] |==|  0.65351
USER: genes 14 Torsion [CA]-CB--OG1-[HG1] |==|  0.15876
USER: genes 15 Torsion [C]-CA--CB-[CG] |==|  0.28234
USER: genes 16 Torsion [CA]-CB--CG-[CD2] |==|  0.73352
USER: genes 17 Torsion [C]-CA--N-[C] |==|  0.19188
USER: genes 18 Torsion [N]-C--CA-[N] |==|  0.54997
USER: genes 19 Torsion [C]-CA--N-[C] |==|  0.57517
USER: genes 20 Torsion [N]-C--CA-[CB] |==|  0.57706
USER: genes 21 Torsion [N]-C--CA-[N] |==|  0.28067
USER: genes 22 Torsion [C]-CA--N-[H1] |==|  0.45820
USER: genes 23 Torsion [C]-CA--CB-[CG] |==|  0.81117
USER: genes 24 Torsion [CA]-CB--CG-[CD] |==|  0.48196
USER: genes 25 Torsion [CB]-CG--CD-[CE] |==|  0.20861
USER: genes 26 Torsion [CG]-CD--CE-[NZ] |==|  0.25529
USER: genes 27 Torsion [CD]-CE--NZ-[HZ1] |==|  0.71972
USER: genes 28 Torsion [C]-CA--CB-[CG1] |==|  0.40387
ROOT
ATOM      1  CA  LEU B   4      18.776  20.235  17.585  1.00 33.70 LIG 0.18  C 
ENDROOT
BRANCH 1 2
ATOM      2  C   LEU B   4      19.844  19.407  16.880  1.00 36.59 LIG 0.24  C 
ATOM      3 O    LEU B   4      20.090  19.575  15.684  1.00 35.62 LIG-0.27  OA
ATOM      4  N   ARG B   5      20.477  18.512  17.630  1.00 30.50 LIG-0.35  N 
ATOM      5 H    ARG B   5      20.357  18.433  18.478  1.00 30.50 LIG 0.16  HD
BRANCH 4 6
ATOM      6  CA  ARG B   5      21.445  17.571  17.074  1.00 32.70 LIG 0.18  C 
BRANCH 6 7
ATOM      7  CB  ARG B   5      22.111  16.747  18.181  1.00 28.13 LIG 0.04  C 
BRANCH 7 8
ATOM      8  CG  ARG B   5      21.180  15.725  18.824  1.00 29.30 LIG 0.02  C 
BRANCH 8 9
ATOM      9  CD  ARG B   5      21.129  14.413  18.060  1.00 34.57 LIG 0.14  C 
BRANCH 9 10
ATOM     10  NE  ARG B   5      22.385  13.682  18.106  1.00 41.05 LIG-0.23  N 
ATOM     11 HE   ARG B   5      22.902  13.733  17.421  1.00 41.05 LIG 0.18  HD
ATOM     12  CZ  ARG B   5      22.790  12.938  19.132  1.00 43.39 LIG 0.67  C 
ATOM     13  NH2 ARG B   5      23.954  12.302  19.068  1.00 33.00 LIG-0.23  N 
ATOM     14  NH1 ARG B   5      22.039  12.827  20.218  1.00 41.15 LIG-0.23  N 
ATOM     15 1HH2 ARG B   5      24.444  12.371  18.365  1.00 33.00 LIG 0.17  HD
ATOM     16 2HH2 ARG B   5      24.218  11.821  19.731  1.00 33.00 LIG 0.17  HD
ATOM     17 2HH1 ARG B   5      22.306  12.345  20.878  1.00 41.15 LIG 0.17  HD
ATOM     18 1HH1 ARG B   5      21.284  13.236  20.262  1.00 41.15 LIG 0.17  HD
ENDBRANCH 9 10
ENDBRANCH 8 9
ENDBRANCH 7 8
ENDBRANCH 6 7
BRANCH 6 19
ATOM     19  C   ARG B   5      20.770  16.648  16.069  1.00 32.44 LIG 0.24  C 
ATOM     20 O    ARG B   5      21.442  16.080  15.208  1.00 30.81 LIG-0.27  OA
ATOM     21  N   THR B   6      19.452  16.482  16.179  1.00 35.68 LIG-0.34  N 
ATOM     22 H    THR B   6      18.972  16.792  16.822  1.00 35.68 LIG 0.16  HD
BRANCH 21 23
ATOM     23  CA  THR B   6      18.717  15.727  15.163  1.00 34.81 LIG 0.20  C 
BRANCH 23 24
ATOM     24  C   THR B   6      19.422  14.415  14.881  1.00 33.55 LIG 0.24  C 
ATOM     25 O    THR B   6      20.059  14.259  13.839  1.00 36.63 LIG-0.27  OA
ATOM     26  N   ALA B   7      19.305  13.474  15.810  1.00 35.45 LIG-0.34  N 
ATOM     27 H    ALA B   7      18.842  13.560  16.529  1.00 35.45 LIG 0.16  HD
BRANCH 26 28
ATOM     28  CA  ALA B   7      19.975  12.190  15.669  1.00 34.62 LIG 0.18  C 
ATOM     29  CB  ALA B   7      19.782  11.352  16.928  1.00 31.37 LIG 0.04  C 
BRANCH 28 30
ATOM     30  C   ALA B   7      19.482  11.433  14.439  1.00 35.30 LIG 0.20  C 
ATOM     31 OXT  ALA B   7      18.641  10.541  14.564  1.00 33.15 LIG-0.65  OA
ATOM     32 O    ALA B   7      19.918  11.681  13.310  1.00 30.65 LIG-0.65  OA
ENDBRANCH 28 30
ENDBRANCH 26 28
ENDBRANCH 23 24
BRANCH 23 33
ATOM     33  CB  THR B   6      18.560  16.469  13.822  1.00 40.55 LIG 0.15  C 
ATOM     34  CG2 THR B   6      17.098  16.550  13.456  1.00 29.01 LIG 0.04  C 
BRANCH 33 35
ATOM     35 OG1  THR B   6      19.141  17.784  13.891  1.00 38.86 LIG-0.39  OA
ATOM     36 HG1  THR B   6      19.951  17.721  14.108  1.00 38.86 LIG 0.21  HD
ENDBRANCH 33 35
ENDBRANCH 23 33
ENDBRANCH 21 23
ENDBRANCH 6 19
ENDBRANCH 4 6
ENDBRANCH 1 2
BRANCH 1 37
ATOM     37  CB  LEU B   4      17.446  20.098  16.834  1.00 31.55 LIG 0.04  C 
BRANCH 37 38
ATOM     38  CG  LEU B   4      16.331  19.175  17.342  1.00 40.70 LIG-0.02  C 
ATOM     39  CD2 LEU B   4      16.412  17.824  16.634  1.00 33.83 LIG 0.01  C 
ATOM     40  CD1 LEU B   4      14.927  19.784  17.217  1.00 30.33 LIG 0.01  C 
ENDBRANCH 37 38
ENDBRANCH 1 37
BRANCH 1 41
ATOM     41  N   LEU B   4      19.156  21.643  17.671  1.00 32.96 LIG-0.35  N 
ATOM     42  C   VAL B   3      19.217  22.430  16.602  1.00 32.71 LIG 0.24  C 
ATOM     43 O    VAL B   3      18.902  22.055  15.470  1.00 29.46 LIG-0.27  OA
ATOM     44 H    LEU B   4      19.333  21.911  18.469  1.00 32.96 LIG 0.16  HD
BRANCH 42 45
ATOM     45  CA  VAL B   3      19.722  23.851  16.834  1.00 32.18 LIG 0.18  C 
BRANCH 45 46
ATOM     46  N   VAL B   3      19.323  24.662  15.693  1.00 27.49 LIG-0.35  N 
ATOM     47 H    VAL B   3      18.615  24.383  15.291  1.00 27.49 LIG 0.16  HD
ATOM     48  C   PRO B   2      20.008  25.736  15.323  1.00 36.99 LIG 0.24  C 
ATOM     49 O    PRO B   2      20.888  26.253  16.015  1.00 37.97 LIG-0.27  OA
BRANCH 48 50
ATOM     50  CA  PRO B   2      19.657  26.317  13.962  1.00 42.38 LIG 0.18  C 
ATOM     51  CB  PRO B   2      20.881  27.027  13.388  1.00 38.27 LIG 0.04  C 
ATOM     52  CG  PRO B   2      20.747  28.436  13.862  1.00 37.96 LIG 0.02  C 
ATOM     53  CD  PRO B   2      19.266  28.725  13.856  1.00 39.69 LIG 0.13  C 
ATOM     54  N   PRO B   2      18.663  27.392  14.042  1.00 45.78 LIG-0.34  N 
ATOM     55  C   LYS B   1      17.366  27.161  14.299  1.00 52.29 LIG 0.25  C 
ATOM     56 O    LYS B   1      16.925  26.048  14.593  1.00 54.18 LIG-0.27  OA
BRANCH 55 57
ATOM     57  CA  LYS B   1      16.432  28.360  14.215  1.00 57.44 LIG 0.28  C 
BRANCH 57 58
ATOM     58  N   LYS B   1      15.697  28.363  12.952  1.00 70.48 LIG-0.07  N 
ATOM     59 H1   LYS B   1      15.013  28.929  13.007  1.00 70.48 LIG 0.28  HD
ATOM     60 H2   LYS B   1      16.239  28.617  12.293  1.00 70.48 LIG 0.28  HD
ATOM     61 H3   LYS B   1      15.391  27.544  12.785  1.00 70.48 LIG 0.28  HD
ENDBRANCH 57 58
BRANCH 57 62
ATOM     62  CB  LYS B   1      15.465  28.379  15.399  1.00 56.26 LIG 0.04  C 
BRANCH 62 63
ATOM     63  CG  LYS B   1      14.460  27.245  15.371  1.00 62.75 LIG 0.00  C 
BRANCH 63 64
ATOM     64  CD  LYS B   1      13.631  27.215  16.639  1.00 59.03 LIG 0.03  C 
BRANCH 64 65
ATOM     65  CE  LYS B   1      12.593  28.325  16.639  1.00 61.45 LIG 0.23  C 
BRANCH 65 66
ATOM     66  NZ  LYS B   1      11.293  27.864  16.066  1.00 70.72 LIG-0.08  N 
ATOM     67 HZ1  LYS B   1      11.221  28.148  15.226  1.00 70.72 LIG 0.27  HD
ATOM     68 HZ2  LYS B   1      11.261  26.974  16.081  1.00 70.72 LIG 0.27  HD
ATOM     69 HZ3  LYS B   1      10.622  28.194  16.549  1.00 70.72 LIG 0.27  HD
ENDBRANCH 65 66
ENDBRANCH 64 65
ENDBRANCH 63 64
ENDBRANCH 62 63
ENDBRANCH 57 62
ENDBRANCH 55 57
ENDBRANCH 48 50
ENDBRANCH 45 46
BRANCH 45 70
ATOM     70  CB  VAL B   3      19.147  24.406  18.150  1.00 30.17 LIG 0.01  C 
ATOM     71  CG1 VAL B   3      20.153  25.317  18.841  1.00 32.03 LIG 0.01  C 
ATOM     72  CG2 VAL B   3      17.849  25.143  17.878  1.00 31.22 LIG 0.01  C 
ENDBRANCH 45 70
ENDBRANCH 42 45
ENDBRANCH 1 41
TORSDOF 27
ENDMDL
MODEL 6
USER: ADFR SOLUTION from run 30
USER: SCORE 20.766041 LL:  -5.038 LR: -18.345 RR:   0.000 FEB: -10.291
USER: RMSD 11.569984
USER: SEED 29
USER: STATUS searching
USER: GENES 29
USER: genes 0 Translation |==|  0.20259 0.24076 0.41522
USER: genes 1 Rotation |==|  0.45173 0.75799 0.82747 0.77179
USER: genes 2 Torsion [N]-CA--C-[N] |==|  0.39877
USER: genes 3 Torsion [C]-N--CA-[C] |==|  0.25654
USER: genes 4 Torsion [N]-CA--CB-[CG] |==|  0.41576
USER: genes 5 Torsion [CA]-CB--CG-[CD] |==|  0.60663
USER: genes 6 Torsion [CB]-CG--CD-[NE] |==|  0.77026
USER: genes 7 Torsion [CG]-CD--NE-[HE] |==|  0.26478
USER: genes 8 Torsion [N]-CA--C-[N] |==|  0.84602
USER: genes 9 Torsion [C]-N--CA-[CB] |==|  0.82195
USER: genes 10 Torsion [N]-CA--C-[N] |==|  0.71191
USER: genes 11 Torsion [C]-N--CA-[CB] |==|  0.17003
USER: genes 12 Torsion [N]-CA--C-[OXT] |==|  0.84586
USER: genes 13 Torsion [N]-CA--CB-[CG2] |==|  0.54278
USER: genes 14 Torsion [CA]-CB--OG1-[HG1] |==|  0.90646
USER: genes 15 Torsion [C]-CA--CB-[CG] |==|  0.32296
USER: genes 16 Torsion [CA]-CB--CG-[CD2] |==|  0.37111
USER: genes 17 Torsion [C]-CA--N-[C] |==|  0.86111
USER: genes 18 Torsion [N]-C--CA-[N] |==|  0.89259
USER: genes 19 Torsion [C]-CA--N-[C] |==|  0.86584
USER: genes 20 Torsion [N]-C--CA-[CB] |==|  0.08539
USER: genes 21 Torsion [N]-C--CA-[N] |==|  0.18209
USER: genes 22 Torsion [C]-CA--N-[H1] |==|  0.26386
USER: genes 23 Torsion [C]-CA--CB-[CG] |==|  0.44711
USER: genes 24 Torsion [CA]-CB--CG-[CD] |==|  0.04521
USER: genes 25 Torsion [CB]-CG--CD-[CE] |==|  0.36915
USER: genes 26 Torsion [CG]-CD--CE-[NZ] |==|  0.88536
USER: genes 27 Torsion [CD]-CE--NZ-[HZ1] |==|  0.10617
USER: genes 28 Torsion [C]-CA--CB-[CG1] |==|  0.15077
ROOT
ATOM      1  CA  LEU B   4      11.118  17.195  15.107  1.00 33.70 LIG 0.18  C 
ENDROOT
BRANCH 1 2
ATOM      2  C   LEU B   4      12.643  17.203  15.087  1.00 36.59 LIG 0.24  C 
ATOM      3 O    LEU B   4      13.285  17.820  15.940  1.00 35.62 LIG-0.27  OA
ATOM      4  N   ARG B   5      13.217  16.512  14.109  1.00 30.50 LIG-0.35  N 
ATOM      5 H    ARG B   5      12.779  16.027  13.550  1.00 30.50 LIG 0.16  HD
BRANCH 4 6
ATOM      6  CA  ARG B   5      14.660  16.515  13.893  1.00 32.70 LIG 0.18  C 
BRANCH 6 7
ATOM      7  CB  ARG B   5      15.283  17.843  14.337  1.00 28.13 LIG 0.04  C 
BRANCH 7 8
ATOM      8  CG  ARG B   5      16.718  17.707  14.835  1.00 29.30 LIG 0.02  C 
BRANCH 8 9
ATOM      9  CD  ARG B   5      17.014  18.603  16.026  1.00 34.57 LIG 0.14  C 
BRANCH 9 10
ATOM     10  NE  ARG B   5      17.344  19.966  15.641  1.00 41.05 LIG-0.23  N 
ATOM     11 HE   ARG B   5      16.709  20.546  15.644  1.00 41.05 LIG 0.18  HD
ATOM     12  CZ  ARG B   5      18.557  20.379  15.285  1.00 43.39 LIG 0.67  C 
ATOM     13  NH2 ARG B   5      18.750  21.646  14.942  1.00 33.00 LIG-0.23  N 
ATOM     14  NH1 ARG B   5      19.575  19.531  15.268  1.00 41.15 LIG-0.23  N 
ATOM     15 1HH2 ARG B   5      18.091  22.199  14.951  1.00 33.00 LIG 0.17  HD
ATOM     16 2HH2 ARG B   5      19.534  21.916  14.711  1.00 33.00 LIG 0.17  HD
ATOM     17 2HH1 ARG B   5      20.358  19.803  15.036  1.00 41.15 LIG 0.17  HD
ATOM     18 1HH1 ARG B   5      19.454  18.708  15.488  1.00 41.15 LIG 0.17  HD
ENDBRANCH 9 10
ENDBRANCH 8 9
ENDBRANCH 7 8
ENDBRANCH 6 7
BRANCH 6 19
ATOM     19  C   ARG B   5      15.311  15.358  14.639  1.00 32.44 LIG 0.24  C 
ATOM     20 O    ARG B   5      16.023  14.557  14.033  1.00 30.81 LIG-0.27  OA
ATOM     21  N   THR B   6      15.085  15.272  15.950  1.00 35.68 LIG-0.34  N 
ATOM     22 H    THR B   6      14.669  15.863  16.415  1.00 35.68 LIG 0.16  HD
BRANCH 21 23
ATOM     23  CA  THR B   6      15.558  14.109  16.704  1.00 34.81 LIG 0.20  C 
BRANCH 23 24
ATOM     24  C   THR B   6      17.055  13.953  16.533  1.00 33.55 LIG 0.24  C 
ATOM     25 O    THR B   6      17.834  14.690  17.136  1.00 36.63 LIG-0.27  OA
ATOM     26  N   ALA B   7      17.454  12.992  15.707  1.00 35.45 LIG-0.34  N 
ATOM     27 H    ALA B   7      16.921  12.488  15.259  1.00 35.45 LIG 0.16  HD
BRANCH 26 28
ATOM     28  CA  ALA B   7      18.868  12.719  15.497  1.00 34.62 LIG 0.18  C 
ATOM     29  CB  ALA B   7      19.526  12.302  16.807  1.00 31.37 LIG 0.04  C 
BRANCH 28 30
ATOM     30  C   ALA B   7      19.079  11.653  14.426  1.00 35.30 LIG 0.20  C 
ATOM     31 OXT  ALA B   7      18.535  10.553  14.539  1.00 33.15 LIG-0.65  OA
ATOM     32 O    ALA B   7      19.799  11.858  13.442  1.00 30.65 LIG-0.65  OA
ENDBRANCH 28 30
ENDBRANCH 26 28
ENDBRANCH 23 24
BRANCH 23 33
ATOM     33  CB  THR B   6      14.900  12.780  16.284  1.00 40.55 LIG 0.15  C 
ATOM     34  CG2 THR B   6      15.155  11.732  17.339  1.00 29.01 LIG 0.04  C 
BRANCH 33 35
ATOM     35 OG1  THR B   6      13.487  12.953  16.067  1.00 38.86 LIG-0.39  OA
ATOM     36 HG1  THR B   6      13.190  13.529  16.601  1.00 38.86 LIG 0.21  HD
ENDBRANCH 33 35
ENDBRANCH 23 33
ENDBRANCH 21 23
ENDBRANCH 6 19
ENDBRANCH 4 6
ENDBRANCH 1 2
BRANCH 1 37
ATOM     37  CB  LEU B   4      10.594  18.432  14.368  1.00 31.55 LIG 0.04  C 
BRANCH 37 38
ATOM     38  CG  LEU B   4       9.765  18.306  13.083  1.00 40.70 LIG-0.02  C 
ATOM     39  CD2 LEU B   4       8.543  19.217  13.162  1.00 33.83 LIG 0.01  C 
ATOM     40  CD1 LEU B   4       9.362  16.862  12.753  1.00 30.33 LIG 0.01  C 
ENDBRANCH 37 38
ENDBRANCH 1 37
BRANCH 1 41
ATOM     41  N   LEU B   4      10.598  17.172  16.471  1.00 32.96 LIG-0.35  N 
ATOM     42  C   VAL B   3      11.022  16.301  17.380  1.00 32.71 LIG 0.24  C 
ATOM     43 O    VAL B   3      11.926  15.489  17.165  1.00 29.46 LIG-0.27  OA
ATOM     44 H    LEU B   4       9.998  17.768  16.628  1.00 32.96 LIG 0.16  HD
BRANCH 42 45
ATOM     45  CA  VAL B   3      10.318  16.334  18.733  1.00 32.18 LIG 0.18  C 
BRANCH 45 46
ATOM     46  N   VAL B   3      10.053  17.726  19.068  1.00 27.49 LIG-0.35  N 
ATOM     47 H    VAL B   3       9.248  17.881  19.327  1.00 27.49 LIG 0.16  HD
ATOM     48  C   PRO B   2      10.992  18.659  18.972  1.00 36.99 LIG 0.24  C 
ATOM     49 O    PRO B   2      12.187  18.408  18.807  1.00 37.97 LIG-0.27  OA
BRANCH 48 50
ATOM     50  CA  PRO B   2      10.514  20.100  19.071  1.00 42.38 LIG 0.18  C 
ATOM     51  CB  PRO B   2       9.284  20.161  19.974  1.00 38.27 LIG 0.04  C 
ATOM     52  CG  PRO B   2       8.132  19.997  19.039  1.00 37.96 LIG 0.02  C 
ATOM     53  CD  PRO B   2       8.540  20.703  17.769  1.00 39.69 LIG 0.13  C 
ATOM     54  N   PRO B   2      10.012  20.622  17.797  1.00 45.78 LIG-0.34  N 
ATOM     55  C   LYS B   1      10.822  20.941  16.775  1.00 52.29 LIG 0.25  C 
ATOM     56 O    LYS B   1      12.035  20.723  16.784  1.00 54.18 LIG-0.27  OA
BRANCH 55 57
ATOM     57  CA  LYS B   1      10.168  21.598  15.569  1.00 57.44 LIG 0.28  C 
BRANCH 57 58
ATOM     58  N   LYS B   1       9.636  22.915  15.915  1.00 70.48 LIG-0.07  N 
ATOM     59 H1   LYS B   1      10.235  23.540  15.711  1.00 70.48 LIG 0.28  HD
ATOM     60 H2   LYS B   1       8.887  23.062  15.458  1.00 70.48 LIG 0.28  HD
ATOM     61 H3   LYS B   1       9.463  22.945  16.787  1.00 70.48 LIG 0.28  HD
ENDBRANCH 57 58
BRANCH 57 62
ATOM     62  CB  LYS B   1      11.156  21.706  14.407  1.00 56.26 LIG 0.04  C 
BRANCH 62 63
ATOM     63  CG  LYS B   1      10.484  21.914  13.064  1.00 62.75 LIG 0.00  C 
BRANCH 63 64
ATOM     64  CD  LYS B   1       9.045  22.357  13.234  1.00 59.03 LIG 0.03  C 
BRANCH 64 65
ATOM     65  CE  LYS B   1       8.729  23.542  12.336  1.00 61.45 LIG 0.23  C 
BRANCH 65 66
ATOM     66  NZ  LYS B   1       9.848  24.531  12.316  1.00 70.72 LIG-0.08  N 
ATOM     67 HZ1  LYS B   1      10.626  24.099  12.324  1.00 70.72 LIG 0.27  HD
ATOM     68 HZ2  LYS B   1       9.793  25.027  11.579  1.00 70.72 LIG 0.27  HD
ATOM     69 HZ3  LYS B   1       9.793  25.056  13.033  1.00 70.72 LIG 0.27  HD
ENDBRANCH 65 66
ENDBRANCH 64 65
ENDBRANCH 63 64
ENDBRANCH 62 63
ENDBRANCH 57 62
ENDBRANCH 55 57
ENDBRANCH 48 50
ENDBRANCH 45 46
BRANCH 45 70
ATOM     70  CB  VAL B   3       9.017  15.512  18.671  1.00 30.17 LIG 0.01  C 
ATOM     71  CG1 VAL B   3       9.292  14.098  18.178  1.00 32.03 LIG 0.01  C 
ATOM     72  CG2 VAL B   3       8.352  15.490  20.034  1.00 31.22 LIG 0.01  C 
ENDBRANCH 45 70
ENDBRANCH 42 45
ENDBRANCH 1 41
TORSDOF 27
ENDMDL
MODEL 7
USER: ADFR SOLUTION from run 198
USER: SCORE 22.021778 LL:  -4.769 LR: -18.249 RR:   0.000 FEB: -10.195
USER: RMSD 6.746351
USER: SEED 197
USER: STATUS 1 or 2 clusters left
USER: GENES 29
USER: genes 0 Translation |==|  0.64722 0.29626 0.51204
USER: genes 1 Rotation |==|  0.53452 0.42102 0.34400 0.96715
USER: genes 2 Torsion [N]-CA--C-[N] |==|  0.27663
USER: genes 3 Torsion [C]-N--CA-[C] |==|  0.76100
USER: genes 4 Torsion [N]-CA--CB-[CG] |==|  0.39098
USER: genes 5 Torsion [CA]-CB--CG-[CD] |==|  0.29900
USER: genes 6 Torsion [CB]-CG--CD-[NE] |==|  0.61956
USER: genes 7 Torsion [CG]-CD--NE-[HE] |==|  0.00029
USER: genes 8 Torsion [N]-CA--C-[N] |==|  0.28926
USER: genes 9 Torsion [C]-N--CA-[CB] |==|  0.79444
USER: genes 10 Torsion [N]-CA--C-[N] |==|  0.23582
USER: genes 11 Torsion [C]-N--CA-[CB] |==|  0.49781
USER: genes 12 Torsion [N]-CA--C-[OXT] |==|  0.81796
USER: genes 13 Torsion [N]-CA--CB-[CG2] |==|  0.63058
USER: genes 14 Torsion [CA]-CB--OG1-[HG1] |==|  0.58351
USER: genes 15 Torsion [C]-CA--CB-[CG] |==|  0.16088
USER: genes 16 Torsion [CA]-CB--CG-[CD2] |==|  0.07760
USER: genes 17 Torsion [C]-CA--N-[C] |==|  0.75008
USER: genes 18 Torsion [N]-C--CA-[N] |==|  0.48787
USER: genes 19 Torsion [C]-CA--N-[C] |==|  0.58934
USER: genes 20 Torsion [N]-C--CA-[CB] |==|  0.61829
USER: genes 21 Torsion [N]-C--CA-[N] |==|  0.34312
USER: genes 22 Torsion [C]-CA--N-[H1] |==|  0.01103
USER: genes 23 Torsion [C]-CA--CB-[CG] |==|  0.82005
USER: genes 24 Torsion [CA]-CB--CG-[CD] |==|  0.66096
USER: genes 25 Torsion [CB]-CG--CD-[CE] |==|  0.49231
USER: genes 26 Torsion [CG]-CD--CE-[NZ] |==|  0.60861
USER: genes 27 Torsion [CD]-CE--NZ-[HZ1] |==|  0.19476
USER: genes 28 Torsion [C]-CA--CB-[CG1] |==|  0.38896
ROOT
ATOM      1  CA  LEU B   4      19.789  18.985  16.632  1.00 33.70 LIG 0.18  C 
ENDROOT
BRANCH 1 2
ATOM      2  C   LEU B   4      18.429  18.321  16.823  1.00 36.59 LIG 0.24  C 
ATOM      3 O    LEU B   4      18.077  17.905  17.928  1.00 35.62 LIG-0.27  OA
ATOM      4  N   ARG B   5      17.669  18.228  15.738  1.00 30.50 LIG-0.35  N 
ATOM      5 H    ARG B   5      17.879  18.573  14.979  1.00 30.50 LIG 0.16  HD
BRANCH 4 6
ATOM      6  CA  ARG B   5      16.392  17.522  15.738  1.00 32.70 LIG 0.18  C 
BRANCH 6 7
ATOM      7  CB  ARG B   5      15.434  18.112  14.697  1.00 28.13 LIG 0.04  C 
BRANCH 7 8
ATOM      8  CG  ARG B   5      14.611  17.060  13.961  1.00 29.30 LIG 0.02  C 
BRANCH 8 9
ATOM      9  CD  ARG B   5      13.151  17.055  14.382  1.00 34.57 LIG 0.14  C 
BRANCH 9 10
ATOM     10  NE  ARG B   5      12.620  15.714  14.568  1.00 41.05 LIG-0.23  N 
ATOM     11 HE   ARG B   5      13.151  15.052  14.433  1.00 41.05 LIG 0.18  HD
ATOM     12  CZ  ARG B   5      11.370  15.440  14.933  1.00 43.39 LIG 0.67  C 
ATOM     13  NH2 ARG B   5      10.983  14.177  15.066  1.00 33.00 LIG-0.23  N 
ATOM     14  NH1 ARG B   5      10.509  16.420  15.163  1.00 41.15 LIG-0.23  N 
ATOM     15 1HH2 ARG B   5      11.539  13.539  14.917  1.00 33.00 LIG 0.17  HD
ATOM     16 2HH2 ARG B   5      10.175  13.998  15.302  1.00 33.00 LIG 0.17  HD
ATOM     17 2HH1 ARG B   5       9.702  16.237  15.398  1.00 41.15 LIG 0.17  HD
ATOM     18 1HH1 ARG B   5      10.756  17.239  15.076  1.00 41.15 LIG 0.17  HD
ENDBRANCH 9 10
ENDBRANCH 8 9
ENDBRANCH 7 8
ENDBRANCH 6 7
BRANCH 6 19
ATOM     19  C   ARG B   5      16.606  16.038  15.470  1.00 32.44 LIG 0.24  C 
ATOM     20 O    ARG B   5      16.869  15.651  14.332  1.00 30.81 LIG-0.27  OA
ATOM     21  N   THR B   6      16.511  15.209  16.509  1.00 35.68 LIG-0.34  N 
ATOM     22 H    THR B   6      16.419  15.458  17.327  1.00 35.68 LIG 0.16  HD
BRANCH 21 23
ATOM     23  CA  THR B   6      16.562  13.760  16.302  1.00 34.81 LIG 0.20  C 
BRANCH 23 24
ATOM     24  C   THR B   6      17.713  13.407  15.383  1.00 33.55 LIG 0.24  C 
ATOM     25 O    THR B   6      17.528  13.265  14.175  1.00 36.63 LIG-0.27  OA
ATOM     26  N   ALA B   7      18.901  13.264  15.959  1.00 35.45 LIG-0.34  N 
ATOM     27 H    ALA B   7      19.040  13.334  16.805  1.00 35.45 LIG 0.16  HD
BRANCH 26 28
ATOM     28  CA  ALA B   7      20.089  12.969  15.173  1.00 34.62 LIG 0.18  C 
ATOM     29  CB  ALA B   7      21.313  12.876  16.076  1.00 31.37 LIG 0.04  C 
BRANCH 28 30
ATOM     30  C   ALA B   7      19.920  11.687  14.362  1.00 35.30 LIG 0.20  C 
ATOM     31 OXT  ALA B   7      19.807  10.605  14.942  1.00 33.15 LIG-0.65  OA
ATOM     32 O    ALA B   7      19.907  11.700  13.127  1.00 30.65 LIG-0.65  OA
ENDBRANCH 28 30
ENDBRANCH 26 28
ENDBRANCH 23 24
BRANCH 23 33
ATOM     33  CB  THR B   6      15.277  13.170  15.688  1.00 40.55 LIG 0.15  C 
ATOM     34  CG2 THR B   6      14.864  11.942  16.461  1.00 29.01 LIG 0.04  C 
BRANCH 33 35
ATOM     35 OG1  THR B   6      14.219  14.145  15.675  1.00 38.86 LIG-0.39  OA
ATOM     36 HG1  THR B   6      13.478  13.755  15.742  1.00 38.86 LIG 0.21  HD
ENDBRANCH 33 35
ENDBRANCH 23 33
ENDBRANCH 21 23
ENDBRANCH 6 19
ENDBRANCH 4 6
ENDBRANCH 1 2
BRANCH 1 37
ATOM     37  CB  LEU B   4      20.850  18.209  17.420  1.00 31.55 LIG 0.04  C 
BRANCH 37 38
ATOM     38  CG  LEU B   4      21.105  16.718  17.165  1.00 40.70 LIG-0.02  C 
ATOM     39  CD2 LEU B   4      20.752  16.371  15.720  1.00 33.83 LIG 0.01  C 
ATOM     40  CD1 LEU B   4      20.379  15.794  18.152  1.00 30.33 LIG 0.01  C 
ENDBRANCH 37 38
ENDBRANCH 1 37
BRANCH 1 41
ATOM     41  N   LEU B   4      19.771  20.381  17.062  1.00 32.96 LIG-0.35  N 
ATOM     42  C   VAL B   3      19.463  21.376  16.237  1.00 32.71 LIG 0.24  C 
ATOM     43 O    VAL B   3      19.109  21.198  15.069  1.00 29.46 LIG-0.27  OA
ATOM     44 H    LEU B   4      19.977  20.496  17.889  1.00 32.96 LIG 0.16  HD
BRANCH 42 45
ATOM     45  CA  VAL B   3      19.581  22.788  16.803  1.00 32.18 LIG 0.18  C 
BRANCH 45 46
ATOM     46  N   VAL B   3      19.305  23.729  15.727  1.00 27.49 LIG-0.35  N 
ATOM     47 H    VAL B   3      18.739  23.445  15.145  1.00 27.49 LIG 0.16  HD
ATOM     48  C   PRO B   2      19.892  24.917  15.668  1.00 36.99 LIG 0.24  C 
ATOM     49 O    PRO B   2      20.535  25.405  16.600  1.00 37.97 LIG-0.27  OA
BRANCH 48 50
ATOM     50  CA  PRO B   2      19.739  25.675  14.359  1.00 42.38 LIG 0.18  C 
ATOM     51  CB  PRO B   2      21.078  26.307  13.984  1.00 38.27 LIG 0.04  C 
ATOM     52  CG  PRO B   2      21.032  27.663  14.604  1.00 37.96 LIG 0.02  C 
ATOM     53  CD  PRO B   2      19.594  28.108  14.498  1.00 39.69 LIG 0.13  C 
ATOM     54  N   PRO B   2      18.849  26.834  14.472  1.00 45.78 LIG-0.34  N 
ATOM     55  C   LYS B   1      17.517  26.718  14.581  1.00 52.29 LIG 0.25  C 
ATOM     56 O    LYS B   1      16.943  25.633  14.702  1.00 54.18 LIG-0.27  OA
BRANCH 55 57
ATOM     57  CA  LYS B   1      16.716  28.011  14.553  1.00 57.44 LIG 0.28  C 
BRANCH 57 58
ATOM     58  N   LYS B   1      15.716  27.984  13.487  1.00 70.48 LIG-0.07  N 
ATOM     59 H1   LYS B   1      15.727  27.188  13.090  1.00 70.48 LIG 0.28  HD
ATOM     60 H2   LYS B   1      14.909  28.132  13.832  1.00 70.48 LIG 0.28  HD
ATOM     61 H3   LYS B   1      15.903  28.615  12.888  1.00 70.48 LIG 0.28  HD
ENDBRANCH 57 58
BRANCH 57 62
ATOM     62  CB  LYS B   1      16.052  28.269  15.905  1.00 56.26 LIG 0.04  C 
BRANCH 62 63
ATOM     63  CG  LYS B   1      15.010  27.230  16.269  1.00 62.75 LIG 0.00  C 
BRANCH 63 64
ATOM     64  CD  LYS B   1      13.657  27.870  16.507  1.00 59.03 LIG 0.03  C 
BRANCH 64 65
ATOM     65  CE  LYS B   1      12.601  26.819  16.805  1.00 61.45 LIG 0.23  C 
BRANCH 65 66
ATOM     66  NZ  LYS B   1      11.296  27.151  16.158  1.00 70.72 LIG-0.08  N 
ATOM     67 HZ1  LYS B   1      11.368  27.053  15.277  1.00 70.72 LIG 0.27  HD
ATOM     68 HZ2  LYS B   1      10.664  26.604  16.465  1.00 70.72 LIG 0.27  HD
ATOM     69 HZ3  LYS B   1      11.077  27.993  16.345  1.00 70.72 LIG 0.27  HD
ENDBRANCH 65 66
ENDBRANCH 64 65
ENDBRANCH 63 64
ENDBRANCH 62 63
ENDBRANCH 57 62
ENDBRANCH 55 57
ENDBRANCH 48 50
ENDBRANCH 45 46
BRANCH 45 70
ATOM     70  CB  VAL B   3      18.599  22.969  17.976  1.00 30.17 LIG 0.01  C 
ATOM     71  CG1 VAL B   3      19.239  23.772  19.100  1.00 32.03 LIG 0.01  C 
ATOM     72  CG2 VAL B   3      17.328  23.638  17.489  1.00 31.22 LIG 0.01  C 
ENDBRANCH 45 70
ENDBRANCH 42 45
ENDBRANCH 1 41
TORSDOF 27
ENDMDL
MODEL 8
USER: ADFR SOLUTION from run 143
USER: SCORE 22.125465 LL:  -5.227 LR: -18.057 RR:   0.000 FEB: -10.003
USER: RMSD 8.263277
USER: SEED 142
USER: STATUS searching
USER: GENES 29
USER: genes 0 Translation |==|  0.53489 0.35486 0.48254
USER: genes 1 Rotation |==|  0.42310 0.99361 0.47910 0.50113
USER: genes 2 Torsion [N]-CA--C-[N] |==|  0.43475
USER: genes 3 Torsion [C]-N--CA-[C] |==|  0.67872
USER: genes 4 Torsion [N]-CA--CB-[CG] |==|  0.48509
USER: genes 5 Torsion [CA]-CB--CG-[CD] |==|  0.57640
USER: genes 6 Torsion [CB]-CG--CD-[NE] |==|  0.45452
USER: genes 7 Torsion [CG]-CD--NE-[HE] |==|  0.16276
USER: genes 8 Torsion [N]-CA--C-[N] |==|  0.86277
USER: genes 9 Torsion [C]-N--CA-[CB] |==|  0.88333
USER: genes 10 Torsion [N]-CA--C-[N] |==|  0.87063
USER: genes 11 Torsion [C]-N--CA-[CB] |==|  0.13461
USER: genes 12 Torsion [N]-CA--C-[OXT] |==|  0.66779
USER: genes 13 Torsion [N]-CA--CB-[CG2] |==|  0.33664
USER: genes 14 Torsion [CA]-CB--OG1-[HG1] |==|  0.67264
USER: genes 15 Torsion [C]-CA--CB-[CG] |==|  0.10625
USER: genes 16 Torsion [CA]-CB--CG-[CD2] |==|  0.54305
USER: genes 17 Torsion [C]-CA--N-[C] |==|  0.56648
USER: genes 18 Torsion [N]-C--CA-[N] |==|  0.47921
USER: genes 19 Torsion [C]-CA--N-[C] |==|  0.66553
USER: genes 20 Torsion [N]-C--CA-[CB] |==|  0.06466
USER: genes 21 Torsion [N]-C--CA-[N] |==|  0.45943
USER: genes 22 Torsion [C]-CA--N-[H1] |==|  0.04444
USER: genes 23 Torsion [C]-CA--CB-[CG] |==|  0.52957
USER: genes 24 Torsion [CA]-CB--CG-[CD] |==|  0.34948
USER: genes 25 Torsion [CB]-CG--CD-[CE] |==|  0.52590
USER: genes 26 Torsion [CG]-CD--CE-[NZ] |==|  0.20285
USER: genes 27 Torsion [CD]-CE--NZ-[HZ1] |==|  0.85383
USER: genes 28 Torsion [C]-CA--CB-[CG1] |==|  0.48865
ROOT
ATOM      1  CA  LEU B   4      17.598  20.875  16.167  1.00 33.70 LIG 0.18  C 
ENDROOT
BRANCH 1 2
ATOM      2  C   LEU B   4      18.538  19.812  15.608  1.00 36.59 LIG 0.24  C 
ATOM      3 O    LEU B   4      19.168  20.006  14.566  1.00 35.62 LIG-0.27  OA
ATOM      4  N   ARG B   5      18.630  18.688  16.310  1.00 30.50 LIG-0.35  N 
ATOM      5 H    ARG B   5      18.245  18.570  17.071  1.00 30.50 LIG 0.16  HD
BRANCH 4 6
ATOM      6  CA  ARG B   5      19.401  17.539  15.848  1.00 32.70 LIG 0.18  C 
BRANCH 6 7
ATOM      7  CB  ARG B   5      20.485  17.157  16.861  1.00 28.13 LIG 0.04  C 
BRANCH 7 8
ATOM      8  CG  ARG B   5      21.239  15.883  16.495  1.00 29.30 LIG 0.02  C 
BRANCH 8 9
ATOM      9  CD  ARG B   5      21.789  15.155  17.709  1.00 34.57 LIG 0.14  C 
BRANCH 9 10
ATOM     10  NE  ARG B   5      22.168  13.781  17.422  1.00 41.05 LIG-0.23  N 
ATOM     11 HE   ARG B   5      22.759  13.648  16.813  1.00 41.05 LIG 0.18  HD
ATOM     12  CZ  ARG B   5      21.664  12.713  18.037  1.00 43.39 LIG 0.67  C 
ATOM     13  NH2 ARG B   5      22.072  11.498  17.692  1.00 33.00 LIG-0.23  N 
ATOM     14  NH1 ARG B   5      20.754  12.856  18.989  1.00 41.15 LIG-0.23  N 
ATOM     15 1HH2 ARG B   5      22.662  11.402  17.074  1.00 33.00 LIG 0.17  HD
ATOM     16 2HH2 ARG B   5      21.747  10.807  18.088  1.00 33.00 LIG 0.17  HD
ATOM     17 2HH1 ARG B   5      20.431  12.163  19.383  1.00 41.15 LIG 0.17  HD
ATOM     18 1HH1 ARG B   5      20.486  13.642  19.214  1.00 41.15 LIG 0.17  HD
ENDBRANCH 9 10
ENDBRANCH 8 9
ENDBRANCH 7 8
ENDBRANCH 6 7
BRANCH 6 19
ATOM     19  C   ARG B   5      18.482  16.352  15.592  1.00 32.44 LIG 0.24  C 
ATOM     20 O    ARG B   5      18.568  15.723  14.537  1.00 30.81 LIG-0.27  OA
ATOM     21  N   THR B   6      17.616  16.031  16.553  1.00 35.68 LIG-0.34  N 
ATOM     22 H    THR B   6      17.594  16.392  17.333  1.00 35.68 LIG 0.16  HD
BRANCH 21 23
ATOM     23  CA  THR B   6      16.607  14.995  16.320  1.00 34.81 LIG 0.20  C 
BRANCH 23 24
ATOM     24  C   THR B   6      17.231  13.622  16.458  1.00 33.55 LIG 0.24  C 
ATOM     25 O    THR B   6      16.675  12.746  17.119  1.00 36.63 LIG-0.27  OA
ATOM     26  N   ALA B   7      18.389  13.438  15.835  1.00 35.45 LIG-0.34  N 
ATOM     27 H    ALA B   7      18.802  14.048  15.392  1.00 35.45 LIG 0.16  HD
BRANCH 26 28
ATOM     28  CA  ALA B   7      19.061  12.147  15.859  1.00 34.62 LIG 0.18  C 
ATOM     29  CB  ALA B   7      18.080  11.033  15.511  1.00 31.37 LIG 0.04  C 
BRANCH 28 30
ATOM     30  C   ALA B   7      20.260  12.122  14.916  1.00 35.30 LIG 0.20  C 
ATOM     31 OXT  ALA B   7      20.293  11.314  13.986  1.00 33.15 LIG-0.65  OA
ATOM     32 O    ALA B   7      21.218  12.888  15.067  1.00 30.65 LIG-0.65  OA
ENDBRANCH 28 30
ENDBRANCH 26 28
ENDBRANCH 23 24
BRANCH 23 33
ATOM     33  CB  THR B   6      15.945  15.068  14.930  1.00 40.55 LIG 0.15  C 
ATOM     34  CG2 THR B   6      16.171  13.772  14.192  1.00 29.01 LIG 0.04  C 
BRANCH 33 35
ATOM     35 OG1  THR B   6      14.539  15.351  15.045  1.00 38.86 LIG-0.39  OA
ATOM     36 HG1  THR B   6      14.097  14.710  14.728  1.00 38.86 LIG 0.21  HD
ENDBRANCH 33 35
ENDBRANCH 23 33
ENDBRANCH 21 23
ENDBRANCH 6 19
ENDBRANCH 4 6
ENDBRANCH 1 2
BRANCH 1 37
ATOM     37  CB  LEU B   4      16.157  20.544  15.762  1.00 31.55 LIG 0.04  C 
BRANCH 37 38
ATOM     38  CG  LEU B   4      15.646  19.098  15.732  1.00 40.70 LIG-0.02  C 
ATOM     39  CD2 LEU B   4      14.340  19.026  14.943  1.00 33.83 LIG 0.01  C 
ATOM     40  CD1 LEU B   4      15.488  18.476  17.126  1.00 30.33 LIG 0.01  C 
ENDBRANCH 37 38
ENDBRANCH 1 37
BRANCH 1 41
ATOM     41  N   LEU B   4      17.954  22.211  15.694  1.00 32.96 LIG-0.35  N 
ATOM     42  C   VAL B   3      17.623  23.312  16.359  1.00 32.71 LIG 0.24  C 
ATOM     43 O    VAL B   3      17.048  23.294  17.450  1.00 29.46 LIG-0.27  OA
ATOM     44 H    LEU B   4      18.393  22.216  14.955  1.00 32.96 LIG 0.16  HD
BRANCH 42 45
ATOM     45  CA  VAL B   3      17.979  24.639  15.694  1.00 32.18 LIG 0.18  C 
BRANCH 45 46
ATOM     46  N   VAL B   3      17.383  25.710  16.479  1.00 27.49 LIG-0.35  N 
ATOM     47 H    VAL B   3      17.648  25.740  17.296  1.00 27.49 LIG 0.16  HD
ATOM     48  C   PRO B   2      16.505  26.556  15.956  1.00 36.99 LIG 0.24  C 
ATOM     49 O    PRO B   2      16.285  26.646  14.746  1.00 37.97 LIG-0.27  OA
BRANCH 48 50
ATOM     50  CA  PRO B   2      15.751  27.433  16.943  1.00 42.38 LIG 0.18  C 
ATOM     51  CB  PRO B   2      16.564  27.553  18.231  1.00 38.27 LIG 0.04  C 
ATOM     52  CG  PRO B   2      16.075  26.429  19.081  1.00 37.96 LIG 0.02  C 
ATOM     53  CD  PRO B   2      14.603  26.301  18.776  1.00 39.69 LIG 0.13  C 
ATOM     54  N   PRO B   2      14.498  26.826  17.402  1.00 45.78 LIG-0.34  N 
ATOM     55  C   LYS B   1      13.409  26.736  16.623  1.00 52.29 LIG 0.25  C 
ATOM     56 O    LYS B   1      13.404  27.056  15.433  1.00 54.18 LIG-0.27  OA
BRANCH 55 57
ATOM     57  CA  LYS B   1      12.143  26.206  17.282  1.00 57.44 LIG 0.28  C 
BRANCH 57 58
ATOM     58  N   LYS B   1      10.970  26.475  16.452  1.00 70.48 LIG-0.07  N 
ATOM     59 H1   LYS B   1      11.231  26.684  15.628  1.00 70.48 LIG 0.28  HD
ATOM     60 H2   LYS B   1      10.453  25.751  16.425  1.00 70.48 LIG 0.28  HD
ATOM     61 H3   LYS B   1      10.511  27.154  16.798  1.00 70.48 LIG 0.28  HD
ENDBRANCH 57 58
BRANCH 57 62
ATOM     62  CB  LYS B   1      12.266  24.710  17.569  1.00 56.26 LIG 0.04  C 
BRANCH 62 63
ATOM     63  CG  LYS B   1      10.957  24.070  17.987  1.00 62.75 LIG 0.00  C 
BRANCH 63 64
ATOM     64  CD  LYS B   1      10.627  22.877  17.112  1.00 59.03 LIG 0.03  C 
BRANCH 64 65
ATOM     65  CE  LYS B   1       9.216  22.379  17.380  1.00 61.45 LIG 0.23  C 
BRANCH 65 66
ATOM     66  NZ  LYS B   1       8.189  23.306  16.817  1.00 70.72 LIG-0.08  N 
ATOM     67 HZ1  LYS B   1       8.344  24.132  17.107  1.00 70.72 LIG 0.27  HD
ATOM     68 HZ2  LYS B   1       8.231  23.292  15.928  1.00 70.72 LIG 0.27  HD
ATOM     69 HZ3  LYS B   1       7.379  23.047  17.080  1.00 70.72 LIG 0.27  HD
ENDBRANCH 65 66
ENDBRANCH 64 65
ENDBRANCH 63 64
ENDBRANCH 62 63
ENDBRANCH 57 62
ENDBRANCH 55 57
ENDBRANCH 48 50
ENDBRANCH 45 46
BRANCH 45 70
ATOM     70  CB  VAL B   3      19.509  24.789  15.605  1.00 30.17 LIG 0.01  C 
ATOM     71  CG1 VAL B   3      19.887  26.059  14.854  1.00 32.03 LIG 0.01  C 
ATOM     72  CG2 VAL B   3      20.113  24.784  16.996  1.00 31.22 LIG 0.01  C 
ENDBRANCH 45 70
ENDBRANCH 42 45
ENDBRANCH 1 41
TORSDOF 27
ENDMDL
MODEL 9
USER: ADFR SOLUTION from run 83
USER: SCORE 21.540212 LL:  -5.263 LR: -18.013 RR:   0.000 FEB:  -9.959
USER: RMSD 6.683276
USER: SEED 82
USER: STATUS no improvement in best in 3 clusters for 5 generations
USER: GENES 29
USER: genes 0 Translation |==|  0.53022 0.36234 0.45781
USER: genes 1 Rotation |==|  0.55113 0.39294 0.35342 0.96307
USER: genes 2 Torsion [N]-CA--C-[N] |==|  0.48737
USER: genes 3 Torsion [C]-N--CA-[C] |==|  0.54720
USER: genes 4 Torsion [N]-CA--CB-[CG] |==|  0.63575
USER: genes 5 Torsion [CA]-CB--CG-[CD] |==|  0.92089
USER: genes 6 Torsion [CB]-CG--CD-[NE] |==|  0.81352
USER: genes 7 Torsion [CG]-CD--NE-[HE] |==|  0.26925
USER: genes 8 Torsion [N]-CA--C-[N] |==|  0.20053
USER: genes 9 Torsion [C]-N--CA-[CB] |==|  0.86111
USER: genes 10 Torsion [N]-CA--C-[N] |==|  0.37988
USER: genes 11 Torsion [C]-N--CA-[CB] |==|  0.30394
USER: genes 12 Torsion [N]-CA--C-[OXT] |==|  0.06561
USER: genes 13 Torsion [N]-CA--CB-[CG2] |==|  0.57916
USER: genes 14 Torsion [CA]-CB--OG1-[HG1] |==|  0.80484
USER: genes 15 Torsion [C]-CA--CB-[CG] |==|  0.29797
USER: genes 16 Torsion [CA]-CB--CG-[CD2] |==|  0.80168
USER: genes 17 Torsion [C]-CA--N-[C] |==|  0.51937
USER: genes 18 Torsion [N]-C--CA-[N] |==|  0.82376
USER: genes 19 Torsion [C]-CA--N-[C] |==|  0.63925
USER: genes 20 Torsion [N]-C--CA-[CB] |==|  0.57922
USER: genes 21 Torsion [N]-C--CA-[N] |==|  0.26980
USER: genes 22 Torsion [C]-CA--N-[H1] |==|  0.80935
USER: genes 23 Torsion [C]-CA--CB-[CG] |==|  0.84215
USER: genes 24 Torsion [CA]-CB--CG-[CD] |==|  0.65467
USER: genes 25 Torsion [CB]-CG--CD-[CE] |==|  0.45855
USER: genes 26 Torsion [CG]-CD--CE-[NZ] |==|  0.65679
USER: genes 27 Torsion [CD]-CE--NZ-[HZ1] |==|  0.69437
USER: genes 28 Torsion [C]-CA--CB-[CG1] |==|  0.30337
ROOT
ATOM      1  CA  LEU B   4      17.507  21.116  15.777  1.00 33.70 LIG 0.18  C 
ENDROOT
BRANCH 1 2
ATOM      2  C   LEU B   4      16.158  20.405  15.776  1.00 36.59 LIG 0.24  C 
ATOM      3 O    LEU B   4      15.146  20.965  16.203  1.00 35.62 LIG-0.27  OA
ATOM      4  N   ARG B   5      16.152  19.169  15.290  1.00 30.50 LIG-0.35  N 
ATOM      5 H    ARG B   5      16.838  18.796  14.931  1.00 30.50 LIG 0.16  HD
BRANCH 4 6
ATOM      6  CA  ARG B   5      14.963  18.323  15.324  1.00 32.70 LIG 0.18  C 
BRANCH 6 7
ATOM      7  CB  ARG B   5      13.938  18.769  14.274  1.00 28.13 LIG 0.04  C 
BRANCH 7 8
ATOM      8  CG  ARG B   5      12.525  18.918  14.828  1.00 29.30 LIG 0.02  C 
BRANCH 8 9
ATOM      9  CD  ARG B   5      12.255  17.999  16.007  1.00 34.57 LIG 0.14  C 
BRANCH 9 10
ATOM     10  NE  ARG B   5      12.243  16.593  15.637  1.00 41.05 LIG-0.23  N 
ATOM     11 HE   ARG B   5      12.964  16.142  15.760  1.00 41.05 LIG 0.18  HD
ATOM     12  CZ  ARG B   5      11.194  15.956  15.123  1.00 43.39 LIG 0.67  C 
ATOM     13  NH2 ARG B   5      11.291  14.669  14.811  1.00 33.00 LIG-0.23  N 
ATOM     14  NH1 ARG B   5      10.054  16.598  14.917  1.00 41.15 LIG-0.23  N 
ATOM     15 1HH2 ARG B   5      12.030  14.249  14.942  1.00 33.00 LIG 0.17  HD
ATOM     16 2HH2 ARG B   5      10.614  14.255  14.478  1.00 33.00 LIG 0.17  HD
ATOM     17 2HH1 ARG B   5       9.379  16.181  14.584  1.00 41.15 LIG 0.17  HD
ATOM     18 1HH1 ARG B   5       9.988  17.432  15.117  1.00 41.15 LIG 0.17  HD
ENDBRANCH 9 10
ENDBRANCH 8 9
ENDBRANCH 7 8
ENDBRANCH 6 7
BRANCH 6 19
ATOM     19  C   ARG B   5      15.342  16.866  15.099  1.00 32.44 LIG 0.24  C 
ATOM     20 O    ARG B   5      15.077  16.320  14.027  1.00 30.81 LIG-0.27  OA
ATOM     21  N   THR B   6      15.972  16.238  16.091  1.00 35.68 LIG-0.34  N 
ATOM     22 H    THR B   6      16.249  16.616  16.812  1.00 35.68 LIG 0.16  HD
BRANCH 21 23
ATOM     23  CA  THR B   6      16.237  14.801  16.002  1.00 34.81 LIG 0.20  C 
BRANCH 23 24
ATOM     24  C   THR B   6      17.309  14.534  14.964  1.00 33.55 LIG 0.24  C 
ATOM     25 O    THR B   6      17.290  15.117  13.881  1.00 36.63 LIG-0.27  OA
ATOM     26  N   ALA B   7      18.242  13.651  15.299  1.00 35.45 LIG-0.34  N 
ATOM     27 H    ALA B   7      18.253  13.217  16.041  1.00 35.45 LIG 0.16  HD
BRANCH 26 28
ATOM     28  CA  ALA B   7      19.347  13.346  14.402  1.00 34.62 LIG 0.18  C 
ATOM     29  CB  ALA B   7      20.650  13.909  14.957  1.00 31.37 LIG 0.04  C 
BRANCH 28 30
ATOM     30  C   ALA B   7      19.472  11.846  14.155  1.00 35.30 LIG 0.20  C 
ATOM     31 OXT  ALA B   7      18.491  11.115  14.307  1.00 33.15 LIG-0.65  OA
ATOM     32 O    ALA B   7      20.544  11.333  13.817  1.00 30.65 LIG-0.65  OA
ENDBRANCH 28 30
ENDBRANCH 26 28
ENDBRANCH 23 24
BRANCH 23 33
ATOM     33  CB  THR B   6      15.004  13.958  15.624  1.00 40.55 LIG 0.15  C 
ATOM     34  CG2 THR B   6      15.137  12.573  16.209  1.00 29.01 LIG 0.04  C 
BRANCH 33 35
ATOM     35 OG1  THR B   6      13.792  14.589  16.077  1.00 38.86 LIG-0.39  OA
ATOM     36 HG1  THR B   6      13.751  14.547  16.915  1.00 38.86 LIG 0.21  HD
ENDBRANCH 33 35
ENDBRANCH 23 33
ENDBRANCH 21 23
ENDBRANCH 6 19
ENDBRANCH 4 6
ENDBRANCH 1 2
BRANCH 1 37
ATOM     37  CB  LEU B   4      18.483  20.355  16.682  1.00 31.55 LIG 0.04  C 
BRANCH 37 38
ATOM     38  CG  LEU B   4      19.635  19.526  16.099  1.00 40.70 LIG-0.02  C 
ATOM     39  CD2 LEU B   4      19.083  18.268  15.432  1.00 33.83 LIG 0.01  C 
ATOM     40  CD1 LEU B   4      20.721  19.179  17.126  1.00 30.33 LIG 0.01  C 
ENDBRANCH 37 38
ENDBRANCH 1 37
BRANCH 1 41
ATOM     41  N   LEU B   4      17.386  22.500  16.229  1.00 32.96 LIG-0.35  N 
ATOM     42  C   VAL B   3      18.403  23.354  16.186  1.00 32.71 LIG 0.24  C 
ATOM     43 O    VAL B   3      19.503  23.068  15.707  1.00 29.46 LIG-0.27  OA
ATOM     44 H    LEU B   4      16.605  22.706  16.523  1.00 32.96 LIG 0.16  HD
BRANCH 42 45
ATOM     45  CA  VAL B   3      18.154  24.737  16.781  1.00 32.18 LIG 0.18  C 
BRANCH 45 46
ATOM     46  N   VAL B   3      17.113  25.384  15.995  1.00 27.49 LIG-0.35  N 
ATOM     47 H    VAL B   3      16.411  24.903  15.873  1.00 27.49 LIG 0.16  HD
ATOM     48  C   PRO B   2      17.259  26.613  15.517  1.00 36.99 LIG 0.24  C 
ATOM     49 O    PRO B   2      18.164  27.375  15.864  1.00 37.97 LIG-0.27  OA
BRANCH 48 50
ATOM     50  CA  PRO B   2      16.234  27.055  14.484  1.00 42.38 LIG 0.18  C 
ATOM     51  CB  PRO B   2      16.870  28.084  13.553  1.00 38.27 LIG 0.04  C 
ATOM     52  CG  PRO B   2      16.572  29.397  14.196  1.00 37.96 LIG 0.02  C 
ATOM     53  CD  PRO B   2      15.205  29.244  14.814  1.00 39.69 LIG 0.13  C 
ATOM     54  N   PRO B   2      15.114  27.795  15.074  1.00 45.78 LIG-0.34  N 
ATOM     55  C   LYS B   1      14.154  27.200  15.800  1.00 52.29 LIG 0.25  C 
ATOM     56 O    LYS B   1      14.191  26.009  16.118  1.00 54.18 LIG-0.27  OA
BRANCH 55 57
ATOM     57  CA  LYS B   1      12.986  28.075  16.230  1.00 57.44 LIG 0.28  C 
BRANCH 57 58
ATOM     58  N   LYS B   1      11.854  27.921  15.319  1.00 70.48 LIG-0.07  N 
ATOM     59 H1   LYS B   1      12.059  28.272  14.528  1.00 70.48 LIG 0.28  HD
ATOM     60 H2   LYS B   1      11.668  27.056  15.219  1.00 70.48 LIG 0.28  HD
ATOM     61 H3   LYS B   1      11.144  28.340  15.654  1.00 70.48 LIG 0.28  HD
ENDBRANCH 57 58
BRANCH 57 62
ATOM     62  CB  LYS B   1      12.568  27.754  17.665  1.00 56.26 LIG 0.04  C 
BRANCH 62 63
ATOM     63  CG  LYS B   1      12.203  26.298  17.873  1.00 62.75 LIG 0.00  C 
BRANCH 63 64
ATOM     64  CD  LYS B   1      10.808  26.158  18.445  1.00 59.03 LIG 0.03  C 
BRANCH 64 65
ATOM     65  CE  LYS B   1      10.305  24.730  18.314  1.00 61.45 LIG 0.23  C 
BRANCH 65 66
ATOM     66  NZ  LYS B   1       9.013  24.667  17.567  1.00 70.72 LIG-0.08  N 
ATOM     67 HZ1  LYS B   1       8.357  24.446  18.126  1.00 70.72 LIG 0.27  HD
ATOM     68 HZ2  LYS B   1       8.839  25.463  17.206  1.00 70.72 LIG 0.27  HD
ATOM     69 HZ3  LYS B   1       9.071  24.056  16.923  1.00 70.72 LIG 0.27  HD
ENDBRANCH 65 66
ENDBRANCH 64 65
ENDBRANCH 63 64
ENDBRANCH 62 63
ENDBRANCH 57 62
ENDBRANCH 55 57
ENDBRANCH 48 50
ENDBRANCH 45 46
BRANCH 45 70
ATOM     70  CB  VAL B   3      17.746  24.608  18.260  1.00 30.17 LIG 0.01  C 
ATOM     71  CG1 VAL B   3      18.856  25.104  19.176  1.00 32.03 LIG 0.01  C 
ATOM     72  CG2 VAL B   3      16.458  25.369  18.511  1.00 31.22 LIG 0.01  C 
ENDBRANCH 45 70
ENDBRANCH 42 45
ENDBRANCH 1 41
TORSDOF 27
ENDMDL
MODEL 10
USER: ADFR SOLUTION from run 175
USER: SCORE 20.000689 LL:  -4.682 LR: -17.733 RR:   0.000 FEB:  -9.678
USER: RMSD 5.776431
USER: SEED 174
USER: STATUS no improvement in best in 4 clusters for 5 generations
USER: GENES 29
USER: genes 0 Translation |==|  0.64872 0.34590 0.52292
USER: genes 1 Rotation |==|  0.62247 0.29485 0.38507 0.92391
USER: genes 2 Torsion [N]-CA--C-[N] |==|  0.79674
USER: genes 3 Torsion [C]-N--CA-[C] |==|  0.13333
USER: genes 4 Torsion [N]-CA--CB-[CG] |==|  0.53262
USER: genes 5 Torsion [CA]-CB--CG-[CD] |==|  0.07505
USER: genes 6 Torsion [CB]-CG--CD-[NE] |==|  0.53455
USER: genes 7 Torsion [CG]-CD--NE-[HE] |==|  0.78013
USER: genes 8 Torsion [N]-CA--C-[N] |==|  0.10377
USER: genes 9 Torsion [C]-N--CA-[CB] |==|  0.29420
USER: genes 10 Torsion [N]-CA--C-[N] |==|  0.38089
USER: genes 11 Torsion [C]-N--CA-[CB] |==|  0.28112
USER: genes 12 Torsion [N]-CA--C-[OXT] |==|  0.16032
USER: genes 13 Torsion [N]-CA--CB-[CG2] |==|  0.88644
USER: genes 14 Torsion [CA]-CB--OG1-[HG1] |==|  0.83437
USER: genes 15 Torsion [C]-CA--CB-[CG] |==|  0.27303
USER: genes 16 Torsion [CA]-CB--CG-[CD2] |==|  0.64670
USER: genes 17 Torsion [C]-CA--N-[C] |==|  0.86847
USER: genes 18 Torsion [N]-C--CA-[N] |==|  0.40815
USER: genes 19 Torsion [C]-CA--N-[C] |==|  0.73611
USER: genes 20 Torsion [N]-C--CA-[CB] |==|  0.50879
USER: genes 21 Torsion [N]-C--CA-[N] |==|  0.31322
USER: genes 22 Torsion [C]-CA--N-[H1] |==|  0.12988
USER: genes 23 Torsion [C]-CA--CB-[CG] |==|  0.00516
USER: genes 24 Torsion [CA]-CB--CG-[CD] |==|  0.67433
USER: genes 25 Torsion [CB]-CG--CD-[CE] |==|  0.83088
USER: genes 26 Torsion [CG]-CD--CE-[NZ] |==|  0.32803
USER: genes 27 Torsion [CD]-CE--NZ-[HZ1] |==|  0.88577
USER: genes 28 Torsion [C]-CA--CB-[CG1] |==|  0.98677
ROOT
ATOM      1  CA  LEU B   4      19.818  20.586  16.803  1.00 33.70 LIG 0.18  C 
ENDROOT
BRANCH 1 2
ATOM      2  C   LEU B   4      18.727  19.811  16.071  1.00 36.59 LIG 0.24  C 
ATOM      3 O    LEU B   4      18.747  19.693  14.845  1.00 35.62 LIG-0.27  OA
ATOM      4  N   ARG B   5      17.777  19.283  16.834  1.00 30.50 LIG-0.35  N 
ATOM      5 H    ARG B   5      17.790  19.304  17.693  1.00 30.50 LIG 0.16  HD
BRANCH 4 6
ATOM      6  CA  ARG B   5      16.610  18.609  16.273  1.00 32.70 LIG 0.18  C 
BRANCH 6 7
ATOM      7  CB  ARG B   5      15.618  19.619  15.687  1.00 28.13 LIG 0.04  C 
BRANCH 7 8
ATOM      8  CG  ARG B   5      14.262  19.012  15.344  1.00 29.30 LIG 0.02  C 
BRANCH 8 9
ATOM      9  CD  ARG B   5      13.928  17.799  16.196  1.00 34.57 LIG 0.14  C 
BRANCH 9 10
ATOM     10  NE  ARG B   5      12.789  17.049  15.692  1.00 41.05 LIG-0.23  N 
ATOM     11 HE   ARG B   5      12.003  17.354  15.861  1.00 41.05 LIG 0.18  HD
ATOM     12  CZ  ARG B   5      12.876  15.923  14.988  1.00 43.39 LIG 0.67  C 
ATOM     13  NH2 ARG B   5      11.771  15.310  14.582  1.00 33.00 LIG-0.23  N 
ATOM     14  NH1 ARG B   5      14.061  15.409  14.690  1.00 41.15 LIG-0.23  N 
ATOM     15 1HH2 ARG B   5      11.001  15.640  14.774  1.00 33.00 LIG 0.17  HD
ATOM     16 2HH2 ARG B   5      11.825  14.582  14.127  1.00 33.00 LIG 0.17  HD
ATOM     17 2HH1 ARG B   5      14.111  14.681  14.235  1.00 41.15 LIG 0.17  HD
ATOM     18 1HH1 ARG B   5      14.779  15.803  14.953  1.00 41.15 LIG 0.17  HD
ENDBRANCH 9 10
ENDBRANCH 8 9
ENDBRANCH 7 8
ENDBRANCH 6 7
BRANCH 6 19
ATOM     19  C   ARG B   5      17.036  17.613  15.203  1.00 32.44 LIG 0.24  C 
ATOM     20 O    ARG B   5      16.354  17.472  14.188  1.00 30.81 LIG-0.27  OA
ATOM     21  N   THR B   6      18.164  16.935  15.413  1.00 35.68 LIG-0.34  N 
ATOM     22 H    THR B   6      18.706  17.076  16.065  1.00 35.68 LIG 0.16  HD
BRANCH 21 23
ATOM     23  CA  THR B   6      18.558  15.861  14.500  1.00 34.81 LIG 0.20  C 
BRANCH 23 24
ATOM     24  C   THR B   6      18.978  14.636  15.288  1.00 33.55 LIG 0.24  C 
ATOM     25 O    THR B   6      19.688  14.748  16.286  1.00 36.63 LIG-0.27  OA
ATOM     26  N   ALA B   7      18.538  13.468  14.835  1.00 35.45 LIG-0.34  N 
ATOM     27 H    ALA B   7      18.063  13.373  14.124  1.00 35.45 LIG 0.16  HD
BRANCH 26 28
ATOM     28  CA  ALA B   7      18.839  12.228  15.534  1.00 34.62 LIG 0.18  C 
ATOM     29  CB  ALA B   7      17.637  11.780  16.358  1.00 31.37 LIG 0.04  C 
BRANCH 28 30
ATOM     30  C   ALA B   7      19.267  11.129  14.566  1.00 35.30 LIG 0.20  C 
ATOM     31 OXT  ALA B   7      20.237  11.306  13.827  1.00 33.15 LIG-0.65  OA
ATOM     32 O    ALA B   7      18.655  10.058  14.491  1.00 30.65 LIG-0.65  OA
ENDBRANCH 28 30
ENDBRANCH 26 28
ENDBRANCH 23 24
BRANCH 23 33
ATOM     33  CB  THR B   6      19.723  16.232  13.561  1.00 40.55 LIG 0.15  C 
ATOM     34  CG2 THR B   6      19.543  17.645  13.065  1.00 29.01 LIG 0.04  C 
BRANCH 33 35
ATOM     35 OG1  THR B   6      20.989  16.083  14.230  1.00 38.86 LIG-0.39  OA
ATOM     36 HG1  THR B   6      21.010  16.584  14.905  1.00 38.86 LIG 0.21  HD
ENDBRANCH 33 35
ENDBRANCH 23 33
ENDBRANCH 21 23
ENDBRANCH 6 19
ENDBRANCH 4 6
ENDBRANCH 1 2
BRANCH 1 37
ATOM     37  CB  LEU B   4      20.339  19.748  17.976  1.00 31.55 LIG 0.04  C 
BRANCH 37 38
ATOM     38  CG  LEU B   4      21.626  18.920  17.859  1.00 40.70 LIG-0.02  C 
ATOM     39  CD2 LEU B   4      21.352  17.475  18.269  1.00 33.83 LIG 0.01  C 
ATOM     40  CD1 LEU B   4      22.805  19.507  18.646  1.00 30.33 LIG 0.01  C 
ENDBRANCH 37 38
ENDBRANCH 1 37
BRANCH 1 41
ATOM     41  N   LEU B   4      19.329  21.874  17.290  1.00 32.96 LIG-0.35  N 
ATOM     42  C   VAL B   3      18.630  22.705  16.525  1.00 32.71 LIG 0.24  C 
ATOM     43 O    VAL B   3      18.287  22.433  15.372  1.00 29.46 LIG-0.27  OA
ATOM     44 H    LEU B   4      19.534  22.040  18.109  1.00 32.96 LIG 0.16  HD
BRANCH 42 45
ATOM     45  CA  VAL B   3      18.271  24.054  17.141  1.00 32.18 LIG 0.18  C 
BRANCH 45 46
ATOM     46  N   VAL B   3      18.261  25.047  16.076  1.00 27.49 LIG-0.35  N 
ATOM     47 H    VAL B   3      17.519  25.096  15.645  1.00 27.49 LIG 0.16  HD
ATOM     48  C   PRO B   2      19.321  25.800  15.813  1.00 36.99 LIG 0.24  C 
ATOM     49 O    PRO B   2      20.301  25.880  16.556  1.00 37.97 LIG-0.27  OA
BRANCH 48 50
ATOM     50  CA  PRO B   2      19.278  26.581  14.508  1.00 42.38 LIG 0.18  C 
ATOM     51  CB  PRO B   2      20.599  27.326  14.325  1.00 38.27 LIG 0.04  C 
ATOM     52  CG  PRO B   2      20.363  28.656  14.959  1.00 37.96 LIG 0.02  C 
ATOM     53  CD  PRO B   2      18.920  28.990  14.673  1.00 39.69 LIG 0.13  C 
ATOM     54  N   PRO B   2      18.290  27.664  14.526  1.00 45.78 LIG-0.34  N 
ATOM     55  C   LYS B   1      16.969  27.441  14.457  1.00 52.29 LIG 0.25  C 
ATOM     56 O    LYS B   1      16.474  26.312  14.481  1.00 54.18 LIG-0.27  OA
BRANCH 55 57
ATOM     57  CA  LYS B   1      16.076  28.668  14.348  1.00 57.44 LIG 0.28  C 
BRANCH 57 58
ATOM     58  N   LYS B   1      15.418  28.721  13.044  1.00 70.48 LIG-0.07  N 
ATOM     59 H1   LYS B   1      15.077  27.923  12.850  1.00 70.48 LIG 0.28  HD
ATOM     60 H2   LYS B   1      14.765  29.326  13.065  1.00 70.48 LIG 0.28  HD
ATOM     61 H3   LYS B   1      16.011  28.948  12.421  1.00 70.48 LIG 0.28  HD
ENDBRANCH 57 58
BRANCH 57 62
ATOM     62  CB  LYS B   1      15.042  28.689  15.473  1.00 56.26 LIG 0.04  C 
BRANCH 62 63
ATOM     63  CG  LYS B   1      15.180  27.527  16.437  1.00 62.75 LIG 0.00  C 
BRANCH 63 64
ATOM     64  CD  LYS B   1      13.944  26.650  16.419  1.00 59.03 LIG 0.03  C 
BRANCH 64 65
ATOM     65  CE  LYS B   1      12.712  27.434  16.839  1.00 61.45 LIG 0.23  C 
BRANCH 65 66
ATOM     66  NZ  LYS B   1      11.697  27.492  15.745  1.00 70.72 LIG-0.08  N 
ATOM     67 HZ1  LYS B   1      12.106  27.626  14.967  1.00 70.72 LIG 0.27  HD
ATOM     68 HZ2  LYS B   1      11.248  26.723  15.716  1.00 70.72 LIG 0.27  HD
ATOM     69 HZ3  LYS B   1      11.130  28.160  15.901  1.00 70.72 LIG 0.27  HD
ENDBRANCH 65 66
ENDBRANCH 64 65
ENDBRANCH 63 64
ENDBRANCH 62 63
ENDBRANCH 57 62
ENDBRANCH 55 57
ENDBRANCH 48 50
ENDBRANCH 45 46
BRANCH 45 70
ATOM     70  CB  VAL B   3      16.902  23.965  17.842  1.00 30.17 LIG 0.01  C 
ATOM     71  CG1 VAL B   3      16.263  22.602  17.614  1.00 32.03 LIG 0.01  C 
ATOM     72  CG2 VAL B   3      17.059  24.247  19.324  1.00 31.22 LIG 0.01  C 
ENDBRANCH 45 70
ENDBRANCH 42 45
ENDBRANCH 1 41
TORSDOF 27
ENDMDL
MODEL 11
USER: ADFR SOLUTION from run 155
USER: SCORE 20.486906 LL:  -4.951 LR: -17.377 RR:   0.000 FEB:  -9.323
USER: RMSD 9.683703
USER: SEED 154
USER: STATUS no improvement in best in 2 clusters for 5 generations
USER: GENES 29
USER: genes 0 Translation |==|  0.56024 0.28753 0.41081
USER: genes 1 Rotation |==|  0.61953 0.40832 0.41643 0.96939
USER: genes 2 Torsion [N]-CA--C-[N] |==|  0.94518
USER: genes 3 Torsion [C]-N--CA-[C] |==|  0.14885
USER: genes 4 Torsion [N]-CA--CB-[CG] |==|  0.72361
USER: genes 5 Torsion [CA]-CB--CG-[CD] |==|  0.67065
USER: genes 6 Torsion [CB]-CG--CD-[NE] |==|  0.27925
USER: genes 7 Torsion [CG]-CD--NE-[HE] |==|  0.26038
USER: genes 8 Torsion [N]-CA--C-[N] |==|  0.17497
USER: genes 9 Torsion [C]-N--CA-[CB] |==|  0.87198
USER: genes 10 Torsion [N]-CA--C-[N] |==|  0.34888
USER: genes 11 Torsion [C]-N--CA-[CB] |==|  0.49701
USER: genes 12 Torsion [N]-CA--C-[OXT] |==|  0.87928
USER: genes 13 Torsion [N]-CA--CB-[CG2] |==|  0.57327
USER: genes 14 Torsion [CA]-CB--OG1-[HG1] |==|  0.36765
USER: genes 15 Torsion [C]-CA--CB-[CG] |==|  0.63641
USER: genes 16 Torsion [CA]-CB--CG-[CD2] |==|  0.59242
USER: genes 17 Torsion [C]-CA--N-[C] |==|  0.59096
USER: genes 18 Torsion [N]-C--CA-[N] |==|  0.00282
USER: genes 19 Torsion [C]-CA--N-[C] |==|  0.59445
USER: genes 20 Torsion [N]-C--CA-[CB] |==|  0.07127
USER: genes 21 Torsion [N]-C--CA-[N] |==|  0.20134
USER: genes 22 Torsion [C]-CA--N-[H1] |==|  0.11494
USER: genes 23 Torsion [C]-CA--CB-[CG] |==|  0.32748
USER: genes 24 Torsion [CA]-CB--CG-[CD] |==|  0.49050
USER: genes 25 Torsion [CB]-CG--CD-[CE] |==|  0.86045
USER: genes 26 Torsion [CG]-CD--CE-[NZ] |==|  0.32469
USER: genes 27 Torsion [CD]-CE--NZ-[HZ1] |==|  0.28907
USER: genes 28 Torsion [C]-CA--CB-[CG1] |==|  0.89775
ROOT
ATOM      1  CA  LEU B   4      18.093  18.704  15.037  1.00 33.70 LIG 0.18  C 
ENDROOT
BRANCH 1 2
ATOM      2  C   LEU B   4      17.025  17.644  14.788  1.00 36.59 LIG 0.24  C 
ATOM      3 O    LEU B   4      17.173  16.787  13.916  1.00 35.62 LIG-0.27  OA
ATOM      4  N   ARG B   5      15.948  17.709  15.563  1.00 30.50 LIG-0.35  N 
ATOM      5 H    ARG B   5      15.865  18.262  16.216  1.00 30.50 LIG 0.16  HD
BRANCH 4 6
ATOM      6  CA  ARG B   5      14.795  16.835  15.373  1.00 32.70 LIG 0.18  C 
BRANCH 6 7
ATOM      7  CB  ARG B   5      14.054  17.174  14.075  1.00 28.13 LIG 0.04  C 
BRANCH 7 8
ATOM      8  CG  ARG B   5      12.814  18.037  14.289  1.00 29.30 LIG 0.02  C 
BRANCH 8 9
ATOM      9  CD  ARG B   5      11.536  17.352  13.837  1.00 34.57 LIG 0.14  C 
BRANCH 9 10
ATOM     10  NE  ARG B   5      10.780  16.779  14.940  1.00 41.05 LIG-0.23  N 
ATOM     11 HE   ARG B   5      10.160  17.260  15.291  1.00 41.05 LIG 0.18  HD
ATOM     12  CZ  ARG B   5      10.981  15.565  15.444  1.00 43.39 LIG 0.67  C 
ATOM     13  NH2 ARG B   5      10.240  15.140  16.460  1.00 33.00 LIG-0.23  N 
ATOM     14  NH1 ARG B   5      11.919  14.776  14.940  1.00 41.15 LIG-0.23  N 
ATOM     15 1HH2 ARG B   5       9.631  15.650  16.791  1.00 33.00 LIG 0.17  HD
ATOM     16 2HH2 ARG B   5      10.368  14.355  16.788  1.00 33.00 LIG 0.17  HD
ATOM     17 2HH1 ARG B   5      12.044  13.992  15.270  1.00 41.15 LIG 0.17  HD
ATOM     18 1HH1 ARG B   5      12.402  15.048  14.282  1.00 41.15 LIG 0.17  HD
ENDBRANCH 9 10
ENDBRANCH 8 9
ENDBRANCH 7 8
ENDBRANCH 6 7
BRANCH 6 19
ATOM     19  C   ARG B   5      15.231  15.376  15.360  1.00 32.44 LIG 0.24  C 
ATOM     20 O    ARG B   5      15.082  14.698  14.343  1.00 30.81 LIG-0.27  OA
ATOM     21  N   THR B   6      15.781  14.893  16.474  1.00 35.68 LIG-0.34  N 
ATOM     22 H    THR B   6      15.980  15.363  17.166  1.00 35.68 LIG 0.16  HD
BRANCH 21 23
ATOM     23  CA  THR B   6      16.091  13.466  16.583  1.00 34.81 LIG 0.20  C 
BRANCH 23 24
ATOM     24  C   THR B   6      17.321  13.138  15.761  1.00 33.55 LIG 0.24  C 
ATOM     25 O    THR B   6      17.372  13.431  14.567  1.00 36.63 LIG-0.27  OA
ATOM     26  N   ALA B   7      18.309  12.527  16.403  1.00 35.45 LIG-0.34  N 
ATOM     27 H    ALA B   7      18.277  12.293  17.230  1.00 35.45 LIG 0.16  HD
BRANCH 26 28
ATOM     28  CA  ALA B   7      19.557  12.201  15.729  1.00 34.62 LIG 0.18  C 
ATOM     29  CB  ALA B   7      20.524  11.532  16.699  1.00 31.37 LIG 0.04  C 
BRANCH 28 30
ATOM     30  C   ALA B   7      19.321  11.316  14.509  1.00 35.30 LIG 0.20  C 
ATOM     31 OXT  ALA B   7      18.534  10.370  14.580  1.00 33.15 LIG-0.65  OA
ATOM     32 O    ALA B   7      19.912  11.514  13.442  1.00 30.65 LIG-0.65  OA
ENDBRANCH 28 30
ENDBRANCH 26 28
ENDBRANCH 23 24
BRANCH 23 33
ATOM     33  CB  THR B   6      14.954  12.540  16.110  1.00 40.55 LIG 0.15  C 
ATOM     34  CG2 THR B   6      15.055  11.211  16.817  1.00 29.01 LIG 0.04  C 
BRANCH 33 35
ATOM     35 OG1  THR B   6      13.669  13.145  16.343  1.00 38.86 LIG-0.39  OA
ATOM     36 HG1  THR B   6      13.198  13.080  15.649  1.00 38.86 LIG 0.21  HD
ENDBRANCH 33 35
ENDBRANCH 23 33
ENDBRANCH 21 23
ENDBRANCH 6 19
ENDBRANCH 4 6
ENDBRANCH 1 2
BRANCH 1 37
ATOM     37  CB  LEU B   4      19.245  18.087  15.838  1.00 31.55 LIG 0.04  C 
BRANCH 37 38
ATOM     38  CG  LEU B   4      19.807  18.772  17.091  1.00 40.70 LIG-0.02  C 
ATOM     39  CD2 LEU B   4      21.305  18.498  17.204  1.00 33.83 LIG 0.01  C 
ATOM     40  CD1 LEU B   4      19.073  18.385  18.382  1.00 30.33 LIG 0.01  C 
ENDBRANCH 37 38
ENDBRANCH 1 37
BRANCH 1 41
ATOM     41  N   LEU B   4      17.551  19.857  15.752  1.00 32.96 LIG-0.35  N 
ATOM     42  C   VAL B   3      17.999  21.092  15.554  1.00 32.71 LIG 0.24  C 
ATOM     43 O    VAL B   3      18.858  21.370  14.713  1.00 29.46 LIG-0.27  OA
ATOM     44 H    LEU B   4      16.923  19.663  16.306  1.00 32.96 LIG 0.16  HD
BRANCH 42 45
ATOM     45  CA  VAL B   3      17.404  22.181  16.442  1.00 32.18 LIG 0.18  C 
BRANCH 45 46
ATOM     46  N   VAL B   3      16.457  21.551  17.351  1.00 27.49 LIG-0.35  N 
ATOM     47 H    VAL B   3      16.677  20.757  17.597  1.00 27.49 LIG 0.16  HD
ATOM     48  C   PRO B   2      15.354  22.170  17.751  1.00 36.99 LIG 0.24  C 
ATOM     49 O    PRO B   2      15.144  23.372  17.571  1.00 37.97 LIG-0.27  OA
BRANCH 48 50
ATOM     50  CA  PRO B   2      14.321  21.306  18.458  1.00 42.38 LIG 0.18  C 
ATOM     51  CB  PRO B   2      15.021  20.110  19.100  1.00 38.27 LIG 0.04  C 
ATOM     52  CG  PRO B   2      14.976  19.050  18.051  1.00 37.96 LIG 0.02  C 
ATOM     53  CD  PRO B   2      13.658  19.239  17.342  1.00 39.69 LIG 0.13  C 
ATOM     54  N   PRO B   2      13.377  20.674  17.532  1.00 45.78 LIG-0.34  N 
ATOM     55  C   LYS B   1      12.405  21.359  16.909  1.00 52.29 LIG 0.25  C 
ATOM     56 O    LYS B   1      12.292  22.584  16.981  1.00 54.18 LIG-0.27  OA
BRANCH 55 57
ATOM     57  CA  LYS B   1      11.419  20.544  16.085  1.00 57.44 LIG 0.28  C 
BRANCH 57 58
ATOM     58  N   LYS B   1      10.517  19.786  16.950  1.00 70.48 LIG-0.07  N 
ATOM     59 H1   LYS B   1      10.266  20.294  17.636  1.00 70.48 LIG 0.28  HD
ATOM     60 H2   LYS B   1       9.798  19.539  16.486  1.00 70.48 LIG 0.28  HD
ATOM     61 H3   LYS B   1      10.935  19.062  17.255  1.00 70.48 LIG 0.28  HD
ENDBRANCH 57 58
BRANCH 57 62
ATOM     62  CB  LYS B   1      10.626  21.445  15.140  1.00 56.26 LIG 0.04  C 
BRANCH 62 63
ATOM     63  CG  LYS B   1      10.848  21.122  13.675  1.00 62.75 LIG 0.00  C 
BRANCH 63 64
ATOM     64  CD  LYS B   1       9.979  21.986  12.784  1.00 59.03 LIG 0.03  C 
BRANCH 64 65
ATOM     65  CE  LYS B   1       8.530  21.955  13.242  1.00 61.45 LIG 0.23  C 
BRANCH 65 66
ATOM     66  NZ  LYS B   1       8.062  23.306  13.675  1.00 70.72 LIG-0.08  N 
ATOM     67 HZ1  LYS B   1       7.542  23.657  13.044  1.00 70.72 LIG 0.27  HD
ATOM     68 HZ2  LYS B   1       7.599  23.231  14.433  1.00 70.72 LIG 0.27  HD
ATOM     69 HZ3  LYS B   1       8.764  23.836  13.808  1.00 70.72 LIG 0.27  HD
ENDBRANCH 65 66
ENDBRANCH 64 65
ENDBRANCH 63 64
ENDBRANCH 62 63
ENDBRANCH 57 62
ENDBRANCH 55 57
ENDBRANCH 48 50
ENDBRANCH 45 46
BRANCH 45 70
ATOM     70  CB  VAL B   3      18.525  22.906  17.208  1.00 30.17 LIG 0.01  C 
ATOM     71  CG1 VAL B   3      19.622  21.933  17.618  1.00 32.03 LIG 0.01  C 
ATOM     72  CG2 VAL B   3      19.089  24.030  16.360  1.00 31.22 LIG 0.01  C 
ENDBRANCH 45 70
ENDBRANCH 42 45
ENDBRANCH 1 41
TORSDOF 27
ENDMDL
MODEL 12
USER: ADFR SOLUTION from run 192
USER: SCORE 20.156954 LL:  -4.781 LR: -17.326 RR:   0.000 FEB:  -9.272
USER: RMSD 6.882274
USER: SEED 191
USER: STATUS 1 or 2 clusters left
USER: GENES 29
USER: genes 0 Translation |==|  0.59933 0.39274 0.51196
USER: genes 1 Rotation |==|  0.49624 0.98887 0.39843 0.52596
USER: genes 2 Torsion [N]-CA--C-[N] |==|  0.35244
USER: genes 3 Torsion [C]-N--CA-[C] |==|  0.85556
USER: genes 4 Torsion [N]-CA--CB-[CG] |==|  0.88679
USER: genes 5 Torsion [CA]-CB--CG-[CD] |==|  0.78711
USER: genes 6 Torsion [CB]-CG--CD-[NE] |==|  0.31057
USER: genes 7 Torsion [CG]-CD--NE-[HE] |==|  0.17875
USER: genes 8 Torsion [N]-CA--C-[N] |==|  0.32917
USER: genes 9 Torsion [C]-N--CA-[CB] |==|  0.30823
USER: genes 10 Torsion [N]-CA--C-[N] |==|  0.38548
USER: genes 11 Torsion [C]-N--CA-[CB] |==|  0.32234
USER: genes 12 Torsion [N]-CA--C-[OXT] |==|  0.20343
USER: genes 13 Torsion [N]-CA--CB-[CG2] |==|  0.66910
USER: genes 14 Torsion [CA]-CB--OG1-[HG1] |==|  0.28096
USER: genes 15 Torsion [C]-CA--CB-[CG] |==|  0.17468
USER: genes 16 Torsion [CA]-CB--CG-[CD2] |==|  0.61588
USER: genes 17 Torsion [C]-CA--N-[C] |==|  0.72134
USER: genes 18 Torsion [N]-C--CA-[N] |==|  0.13518
USER: genes 19 Torsion [C]-CA--N-[C] |==|  0.15977
USER: genes 20 Torsion [N]-C--CA-[CB] |==|  0.83640
USER: genes 21 Torsion [N]-C--CA-[N] |==|  0.22672
USER: genes 22 Torsion [C]-CA--N-[H1] |==|  0.61771
USER: genes 23 Torsion [C]-CA--CB-[CG] |==|  0.55135
USER: genes 24 Torsion [CA]-CB--CG-[CD] |==|  0.29086
USER: genes 25 Torsion [CB]-CG--CD-[CE] |==|  0.16430
USER: genes 26 Torsion [CG]-CD--CE-[NZ] |==|  0.41326
USER: genes 27 Torsion [CD]-CE--NZ-[HZ1] |==|  0.35419
USER: genes 28 Torsion [C]-CA--CB-[CG1] |==|  0.20355
ROOT
ATOM      1  CA  LEU B   4      18.855  22.097  16.630  1.00 33.70 LIG 0.18  C 
ENDROOT
BRANCH 1 2
ATOM      2  C   LEU B   4      19.490  20.711  16.582  1.00 36.59 LIG 0.24  C 
ATOM      3 O    LEU B   4      19.792  20.189  15.507  1.00 35.62 LIG-0.27  OA
ATOM      4  N   ARG B   5      19.691  20.121  17.755  1.00 30.50 LIG-0.35  N 
ATOM      5 H    ARG B   5      19.544  20.504  18.511  1.00 30.50 LIG 0.16  HD
BRANCH 4 6
ATOM      6  CA  ARG B   5      20.187  18.753  17.866  1.00 32.70 LIG 0.18  C 
BRANCH 6 7
ATOM      7  CB  ARG B   5      20.193  18.285  19.325  1.00 28.13 LIG 0.04  C 
BRANCH 7 8
ATOM      8  CG  ARG B   5      20.662  19.354  20.306  1.00 29.30 LIG 0.02  C 
BRANCH 8 9
ATOM      9  CD  ARG B   5      22.170  19.542  20.294  1.00 34.57 LIG 0.14  C 
BRANCH 9 10
ATOM     10  NE  ARG B   5      22.576  20.828  19.751  1.00 41.05 LIG-0.23  N 
ATOM     11 HE   ARG B   5      22.343  21.535  20.181  1.00 41.05 LIG 0.18  HD
ATOM     12  CZ  ARG B   5      23.285  20.988  18.636  1.00 43.39 LIG 0.67  C 
ATOM     13  NH2 ARG B   5      23.597  22.210  18.221  1.00 33.00 LIG-0.23  N 
ATOM     14  NH1 ARG B   5      23.679  19.935  17.936  1.00 41.15 LIG-0.23  N 
ATOM     15 1HH2 ARG B   5      23.341  22.895  18.673  1.00 33.00 LIG 0.17  HD
ATOM     16 2HH2 ARG B   5      24.055  22.316  17.501  1.00 33.00 LIG 0.17  HD
ATOM     17 2HH1 ARG B   5      24.137  20.044  17.216  1.00 41.15 LIG 0.17  HD
ATOM     18 1HH1 ARG B   5      23.478  19.142  18.201  1.00 41.15 LIG 0.17  HD
ENDBRANCH 9 10
ENDBRANCH 8 9
ENDBRANCH 7 8
ENDBRANCH 6 7
BRANCH 6 19
ATOM     19  C   ARG B   5      19.342  17.812  17.019  1.00 32.44 LIG 0.24  C 
ATOM     20 O    ARG B   5      18.139  17.687  17.251  1.00 30.81 LIG-0.27  OA
ATOM     21  N   THR B   6      19.955  17.162  16.030  1.00 35.68 LIG-0.34  N 
ATOM     22 H    THR B   6      20.769  17.295  15.787  1.00 35.68 LIG 0.16  HD
BRANCH 21 23
ATOM     23  CA  THR B   6      19.241  16.135  15.269  1.00 34.81 LIG 0.20  C 
BRANCH 23 24
ATOM     24  C   THR B   6      20.049  14.854  15.238  1.00 33.55 LIG 0.24  C 
ATOM     25 O    THR B   6      21.268  14.887  15.074  1.00 36.63 LIG-0.27  OA
ATOM     26  N   ALA B   7      19.366  13.726  15.394  1.00 35.45 LIG-0.34  N 
ATOM     27 H    ALA B   7      18.512  13.686  15.483  1.00 35.45 LIG 0.16  HD
BRANCH 26 28
ATOM     28  CA  ALA B   7      20.040  12.436  15.427  1.00 34.62 LIG 0.18  C 
ATOM     29  CB  ALA B   7      19.860  11.780  16.791  1.00 31.37 LIG 0.04  C 
BRANCH 28 30
ATOM     30  C   ALA B   7      19.542  11.516  14.317  1.00 35.30 LIG 0.20  C 
ATOM     31 OXT  ALA B   7      19.872  11.728  13.149  1.00 33.15 LIG-0.65  OA
ATOM     32 O    ALA B   7      18.796  10.559  14.556  1.00 30.65 LIG-0.65  OA
ENDBRANCH 28 30
ENDBRANCH 26 28
ENDBRANCH 23 24
BRANCH 23 33
ATOM     33  CB  THR B   6      18.941  16.532  13.810  1.00 40.55 LIG 0.15  C 
ATOM     34  CG2 THR B   6      17.449  16.543  13.583  1.00 29.01 LIG 0.04  C 
BRANCH 33 35
ATOM     35 OG1  THR B   6      19.514  17.815  13.499  1.00 38.86 LIG-0.39  OA
ATOM     36 HG1  THR B   6      20.226  17.707  13.066  1.00 38.86 LIG 0.21  HD
ENDBRANCH 33 35
ENDBRANCH 23 33
ENDBRANCH 21 23
ENDBRANCH 6 19
ENDBRANCH 4 6
ENDBRANCH 1 2
BRANCH 1 37
ATOM     37  CB  LEU B   4      17.436  22.027  16.053  1.00 31.55 LIG 0.04  C 
BRANCH 37 38
ATOM     38  CG  LEU B   4      16.343  21.177  16.713  1.00 40.70 LIG-0.02  C 
ATOM     39  CD2 LEU B   4      15.534  20.449  15.642  1.00 33.83 LIG 0.01  C 
ATOM     40  CD1 LEU B   4      15.430  21.976  17.653  1.00 30.33 LIG 0.01  C 
ENDBRANCH 37 38
ENDBRANCH 1 37
BRANCH 1 41
ATOM     41  N   LEU B   4      19.646  23.078  15.891  1.00 32.96 LIG-0.35  N 
ATOM     42  C   VAL B   3      20.469  23.928  16.495  1.00 32.71 LIG 0.24  C 
ATOM     43 O    VAL B   3      20.677  23.917  17.711  1.00 29.46 LIG-0.27  OA
ATOM     44 H    LEU B   4      19.529  23.052  15.040  1.00 32.96 LIG 0.16  HD
BRANCH 42 45
ATOM     45  CA  VAL B   3      21.156  24.957  15.602  1.00 32.18 LIG 0.18  C 
BRANCH 45 46
ATOM     46  N   VAL B   3      20.139  25.572  14.761  1.00 27.49 LIG-0.35  N 
ATOM     47 H    VAL B   3      20.285  25.497  13.917  1.00 27.49 LIG 0.16  HD
ATOM     48  C   PRO B   2      19.083  26.189  15.276  1.00 36.99 LIG 0.24  C 
ATOM     49 O    PRO B   2      18.765  26.114  16.465  1.00 37.97 LIG-0.27  OA
BRANCH 48 50
ATOM     50  CA  PRO B   2      18.260  27.026  14.309  1.00 42.38 LIG 0.18  C 
ATOM     51  CB  PRO B   2      19.151  28.102  13.691  1.00 38.27 LIG 0.04  C 
ATOM     52  CG  PRO B   2      19.002  29.273  14.603  1.00 37.96 LIG 0.02  C 
ATOM     53  CD  PRO B   2      17.569  29.239  15.074  1.00 39.69 LIG 0.13  C 
ATOM     54  N   PRO B   2      17.218  27.809  14.980  1.00 45.78 LIG-0.34  N 
ATOM     55  C   LYS B   1      16.102  27.254  15.478  1.00 52.29 LIG 0.25  C 
ATOM     56 O    LYS B   1      15.911  26.037  15.508  1.00 54.18 LIG-0.27  OA
BRANCH 55 57
ATOM     57  CA  LYS B   1      15.051  28.211  16.022  1.00 57.44 LIG 0.28  C 
BRANCH 57 58
ATOM     58  N   LYS B   1      14.231  28.755  14.942  1.00 70.48 LIG-0.07  N 
ATOM     59 H1   LYS B   1      14.101  29.625  15.077  1.00 70.48 LIG 0.28  HD
ATOM     60 H2   LYS B   1      14.646  28.635  14.164  1.00 70.48 LIG 0.28  HD
ATOM     61 H3   LYS B   1      13.445  28.338  14.927  1.00 70.48 LIG 0.28  HD
ENDBRANCH 57 58
BRANCH 57 62
ATOM     62  CB  LYS B   1      14.175  27.518  17.065  1.00 56.26 LIG 0.04  C 
BRANCH 62 63
ATOM     63  CG  LYS B   1      12.864  28.236  17.320  1.00 62.75 LIG 0.00  C 
BRANCH 63 64
ATOM     64  CD  LYS B   1      11.706  27.510  16.666  1.00 59.03 LIG 0.03  C 
BRANCH 64 65
ATOM     65  CE  LYS B   1      11.585  26.089  17.191  1.00 61.45 LIG 0.23  C 
BRANCH 65 66
ATOM     66  NZ  LYS B   1      10.166  25.623  17.196  1.00 70.72 LIG-0.08  N 
ATOM     67 HZ1  LYS B   1      10.108  24.845  16.768  1.00 70.72 LIG 0.27  HD
ATOM     68 HZ2  LYS B   1       9.890  25.520  18.037  1.00 70.72 LIG 0.27  HD
ATOM     69 HZ3  LYS B   1       9.654  26.225  16.787  1.00 70.72 LIG 0.27  HD
ENDBRANCH 65 66
ENDBRANCH 64 65
ENDBRANCH 63 64
ENDBRANCH 62 63
ENDBRANCH 57 62
ENDBRANCH 55 57
ENDBRANCH 48 50
ENDBRANCH 45 46
BRANCH 45 70
ATOM     70  CB  VAL B   3      21.881  26.005  16.466  1.00 30.17 LIG 0.01  C 
ATOM     71  CG1 VAL B   3      23.137  25.416  17.093  1.00 32.03 LIG 0.01  C 
ATOM     72  CG2 VAL B   3      22.215  27.226  15.630  1.00 31.22 LIG 0.01  C 
ENDBRANCH 45 70
ENDBRANCH 42 45
ENDBRANCH 1 41
TORSDOF 27
ENDMDL
MODEL 13
USER: ADFR SOLUTION from run 116
USER: SCORE 20.462179 LL:  -4.741 LR: -17.278 RR:   0.000 FEB:  -9.224
USER: RMSD 10.011368
USER: SEED 115
USER: STATUS no improvement in best in 3 clusters for 5 generations
USER: GENES 29
USER: genes 0 Translation |==|  0.51525 0.27443 0.45595
USER: genes 1 Rotation |==|  0.24160 0.88965 0.56822 0.66356
USER: genes 2 Torsion [N]-CA--C-[N] |==|  0.34265
USER: genes 3 Torsion [C]-N--CA-[C] |==|  0.67510
USER: genes 4 Torsion [N]-CA--CB-[CG] |==|  0.64246
USER: genes 5 Torsion [CA]-CB--CG-[CD] |==|  0.59251
USER: genes 6 Torsion [CB]-CG--CD-[NE] |==|  0.13388
USER: genes 7 Torsion [CG]-CD--NE-[HE] |==|  0.20249
USER: genes 8 Torsion [N]-CA--C-[N] |==|  0.72790
USER: genes 9 Torsion [C]-N--CA-[CB] |==|  0.50392
USER: genes 10 Torsion [N]-CA--C-[N] |==|  0.45543
USER: genes 11 Torsion [C]-N--CA-[CB] |==|  0.86028
USER: genes 12 Torsion [N]-CA--C-[OXT] |==|  0.85240
USER: genes 13 Torsion [N]-CA--CB-[CG2] |==|  0.21970
USER: genes 14 Torsion [CA]-CB--OG1-[HG1] |==|  0.97609
USER: genes 15 Torsion [C]-CA--CB-[CG] |==|  0.14975
USER: genes 16 Torsion [CA]-CB--CG-[CD2] |==|  0.12451
USER: genes 17 Torsion [C]-CA--N-[C] |==|  0.61670
USER: genes 18 Torsion [N]-C--CA-[N] |==|  0.36180
USER: genes 19 Torsion [C]-CA--N-[C] |==|  0.75395
USER: genes 20 Torsion [N]-C--CA-[CB] |==|  0.48327
USER: genes 21 Torsion [N]-C--CA-[N] |==|  0.18748
USER: genes 22 Torsion [C]-CA--N-[H1] |==|  0.99821
USER: genes 23 Torsion [C]-CA--CB-[CG] |==|  0.24719
USER: genes 24 Torsion [CA]-CB--CG-[CD] |==|  0.16081
USER: genes 25 Torsion [CB]-CG--CD-[CE] |==|  0.59286
USER: genes 26 Torsion [CG]-CD--CE-[NZ] |==|  0.30161
USER: genes 27 Torsion [CD]-CE--NZ-[HZ1] |==|  0.68990
USER: genes 28 Torsion [C]-CA--CB-[CG1] |==|  0.23829
ROOT
ATOM      1  CA  LEU B   4      17.215  18.281  15.748  1.00 33.70 LIG 0.18  C 
ENDROOT
BRANCH 1 2
ATOM      2  C   LEU B   4      18.721  18.523  15.786  1.00 36.59 LIG 0.24  C 
ATOM      3 O    LEU B   4      19.268  19.249  14.954  1.00 35.62 LIG-0.27  OA
ATOM      4  N   ARG B   5      19.385  17.910  16.760  1.00 30.50 LIG-0.35  N 
ATOM      5 H    ARG B   5      19.004  17.455  17.382  1.00 30.50 LIG 0.16  HD
BRANCH 4 6
ATOM      6  CA  ARG B   5      20.840  17.956  16.861  1.00 32.70 LIG 0.18  C 
BRANCH 6 7
ATOM      7  CB  ARG B   5      21.282  18.575  18.191  1.00 28.13 LIG 0.04  C 
BRANCH 7 8
ATOM      8  CG  ARG B   5      22.296  19.703  18.030  1.00 29.30 LIG 0.02  C 
BRANCH 8 9
ATOM      9  CD  ARG B   5      23.291  19.767  19.177  1.00 34.57 LIG 0.14  C 
BRANCH 9 10
ATOM     10  NE  ARG B   5      23.872  18.474  19.496  1.00 41.05 LIG-0.23  N 
ATOM     11 HE   ARG B   5      24.449  18.149  18.947  1.00 41.05 LIG 0.18  HD
ATOM     12  CZ  ARG B   5      23.575  17.757  20.577  1.00 43.39 LIG 0.67  C 
ATOM     13  NH2 ARG B   5      24.158  16.580  20.771  1.00 33.00 LIG-0.23  N 
ATOM     14  NH1 ARG B   5      22.699  18.210  21.462  1.00 41.15 LIG-0.23  N 
ATOM     15 1HH2 ARG B   5      24.726  16.283  20.198  1.00 33.00 LIG 0.17  HD
ATOM     16 2HH2 ARG B   5      23.967  16.115  21.469  1.00 33.00 LIG 0.17  HD
ATOM     17 2HH1 ARG B   5      22.511  17.743  22.159  1.00 41.15 LIG 0.17  HD
ATOM     18 1HH1 ARG B   5      22.318  18.972  21.339  1.00 41.15 LIG 0.17  HD
ENDBRANCH 9 10
ENDBRANCH 8 9
ENDBRANCH 7 8
ENDBRANCH 6 7
BRANCH 6 19
ATOM     19  C   ARG B   5      21.426  16.558  16.714  1.00 32.44 LIG 0.24  C 
ATOM     20 O    ARG B   5      21.608  16.082  15.594  1.00 30.81 LIG-0.27  OA
ATOM     21  N   THR B   6      21.736  15.905  17.834  1.00 35.68 LIG-0.34  N 
ATOM     22 H    THR B   6      21.705  16.244  18.624  1.00 35.68 LIG 0.16  HD
BRANCH 21 23
ATOM     23  CA  THR B   6      22.167  14.507  17.776  1.00 34.81 LIG 0.20  C 
BRANCH 23 24
ATOM     24  C   THR B   6      21.103  13.663  17.105  1.00 33.55 LIG 0.24  C 
ATOM     25 O    THR B   6      19.957  14.092  16.969  1.00 36.63 LIG-0.27  OA
ATOM     26  N   ALA B   7      21.483  12.461  16.689  1.00 35.45 LIG-0.34  N 
ATOM     27 H    ALA B   7      22.272  12.138  16.801  1.00 35.45 LIG 0.16  HD
BRANCH 26 28
ATOM     28  CA  ALA B   7      20.560  11.578  15.991  1.00 34.62 LIG 0.18  C 
ATOM     29  CB  ALA B   7      19.254  11.457  16.768  1.00 31.37 LIG 0.04  C 
BRANCH 28 30
ATOM     30  C   ALA B   7      20.295  12.058  14.567  1.00 35.30 LIG 0.20  C 
ATOM     31 OXT  ALA B   7      19.923  13.216  14.368  1.00 33.15 LIG-0.65  OA
ATOM     32 O    ALA B   7      20.431  11.306  13.595  1.00 30.65 LIG-0.65  OA
ENDBRANCH 28 30
ENDBRANCH 26 28
ENDBRANCH 23 24
BRANCH 23 33
ATOM     33  CB  THR B   6      22.457  13.882  19.155  1.00 40.55 LIG 0.15  C 
ATOM     34  CG2 THR B   6      21.158  13.495  19.819  1.00 29.01 LIG 0.04  C 
BRANCH 33 35
ATOM     35 OG1  THR B   6      23.325  12.741  19.029  1.00 38.86 LIG-0.39  OA
ATOM     36 HG1  THR B   6      23.423  12.551  18.217  1.00 38.86 LIG 0.21  HD
ENDBRANCH 33 35
ENDBRANCH 23 33
ENDBRANCH 21 23
ENDBRANCH 6 19
ENDBRANCH 4 6
ENDBRANCH 1 2
BRANCH 1 37
ATOM     37  CB  LEU B   4      16.854  17.519  14.468  1.00 31.55 LIG 0.04  C 
BRANCH 37 38
ATOM     38  CG  LEU B   4      17.543  16.198  14.101  1.00 40.70 LIG-0.02  C 
ATOM     39  CD2 LEU B   4      17.625  15.297  15.330  1.00 33.83 LIG 0.01  C 
ATOM     40  CD1 LEU B   4      18.924  16.386  13.456  1.00 30.33 LIG 0.01  C 
ENDBRANCH 37 38
ENDBRANCH 1 37
BRANCH 1 41
ATOM     41  N   LEU B   4      16.467  19.534  15.810  1.00 32.96 LIG-0.35  N 
ATOM     42  C   VAL B   3      15.375  19.675  16.553  1.00 32.71 LIG 0.24  C 
ATOM     43 O    VAL B   3      14.944  18.786  17.293  1.00 29.46 LIG-0.27  OA
ATOM     44 H    LEU B   4      16.796  20.164  15.325  1.00 32.96 LIG 0.16  HD
BRANCH 42 45
ATOM     45  CA  VAL B   3      14.646  21.011  16.442  1.00 32.18 LIG 0.18  C 
BRANCH 45 46
ATOM     46  N   VAL B   3      13.235  20.735  16.211  1.00 27.49 LIG-0.35  N 
ATOM     47 H    VAL B   3      12.763  20.682  16.927  1.00 27.49 LIG 0.16  HD
ATOM     48  C   PRO B   2      12.743  20.581  14.988  1.00 36.99 LIG 0.24  C 
ATOM     49 O    PRO B   2      13.368  20.862  13.963  1.00 37.97 LIG-0.27  OA
BRANCH 48 50
ATOM     50  CA  PRO B   2      11.333  20.018  14.901  1.00 42.38 LIG 0.18  C 
ATOM     51  CB  PRO B   2      10.869  20.047  13.446  1.00 38.27 LIG 0.04  C 
ATOM     52  CG  PRO B   2      10.194  21.369  13.300  1.00 37.96 LIG 0.02  C 
ATOM     53  CD  PRO B   2       9.516  21.625  14.624  1.00 39.69 LIG 0.13  C 
ATOM     54  N   PRO B   2      10.342  20.859  15.578  1.00 45.78 LIG-0.34  N 
ATOM     55  C   LYS B   1      10.248  20.937  16.914  1.00 52.29 LIG 0.25  C 
ATOM     56 O    LYS B   1      11.049  20.394  17.678  1.00 54.18 LIG-0.27  OA
BRANCH 55 57
ATOM     57  CA  LYS B   1       9.083  21.744  17.469  1.00 57.44 LIG 0.28  C 
BRANCH 57 58
ATOM     58  N   LYS B   1       7.809  21.087  17.183  1.00 70.48 LIG-0.07  N 
ATOM     59 H1   LYS B   1       7.957  20.338  16.726  1.00 70.48 LIG 0.28  HD
ATOM     60 H2   LYS B   1       7.397  20.892  17.947  1.00 70.48 LIG 0.28  HD
ATOM     61 H3   LYS B   1       7.297  21.631  16.700  1.00 70.48 LIG 0.28  HD
ENDBRANCH 57 58
BRANCH 57 62
ATOM     62  CB  LYS B   1       9.246  21.969  18.972  1.00 56.26 LIG 0.04  C 
BRANCH 62 63
ATOM     63  CG  LYS B   1      10.027  23.223  19.310  1.00 62.75 LIG 0.00  C 
BRANCH 63 64
ATOM     64  CD  LYS B   1       9.373  24.454  18.716  1.00 59.03 LIG 0.03  C 
BRANCH 64 65
ATOM     65  CE  LYS B   1      10.414  25.486  18.315  1.00 61.45 LIG 0.23  C 
BRANCH 65 66
ATOM     66  NZ  LYS B   1      10.542  25.590  16.830  1.00 70.72 LIG-0.08  N 
ATOM     67 HZ1  LYS B   1      11.336  25.276  16.578  1.00 70.72 LIG 0.27  HD
ATOM     68 HZ2  LYS B   1       9.898  25.113  16.442  1.00 70.72 LIG 0.27  HD
ATOM     69 HZ3  LYS B   1      10.470  26.442  16.585  1.00 70.72 LIG 0.27  HD
ENDBRANCH 65 66
ENDBRANCH 64 65
ENDBRANCH 63 64
ENDBRANCH 62 63
ENDBRANCH 57 62
ENDBRANCH 55 57
ENDBRANCH 48 50
ENDBRANCH 45 46
BRANCH 45 70
ATOM     70  CB  VAL B   3      14.857  21.834  17.726  1.00 30.17 LIG 0.01  C 
ATOM     71  CG1 VAL B   3      16.150  22.634  17.652  1.00 32.03 LIG 0.01  C 
ATOM     72  CG2 VAL B   3      13.668  22.749  17.956  1.00 31.22 LIG 0.01  C 
ENDBRANCH 45 70
ENDBRANCH 42 45
ENDBRANCH 1 41
TORSDOF 27
ENDMDL
MODEL 14
USER: ADFR SOLUTION from run 85
USER: SCORE 20.489913 LL:  -5.277 LR: -17.260 RR:   0.000 FEB:  -9.206
USER: RMSD 6.418622
USER: SEED 84
USER: STATUS no improvement in best in 3 clusters for 5 generations
USER: GENES 29
USER: genes 0 Translation |==|  0.65201 0.30348 0.48386
USER: genes 1 Rotation |==|  0.57515 0.36002 0.38526 0.95999
USER: genes 2 Torsion [N]-CA--C-[N] |==|  0.85129
USER: genes 3 Torsion [C]-N--CA-[C] |==|  0.19082
USER: genes 4 Torsion [N]-CA--CB-[CG] |==|  0.34572
USER: genes 5 Torsion [CA]-CB--CG-[CD] |==|  0.38116
USER: genes 6 Torsion [CB]-CG--CD-[NE] |==|  0.64357
USER: genes 7 Torsion [CG]-CD--NE-[HE] |==|  0.89674
USER: genes 8 Torsion [N]-CA--C-[N] |==|  0.46668
USER: genes 9 Torsion [C]-N--CA-[CB] |==|  0.52805
USER: genes 10 Torsion [N]-CA--C-[N] |==|  0.30168
USER: genes 11 Torsion [C]-N--CA-[CB] |==|  0.28477
USER: genes 12 Torsion [N]-CA--C-[OXT] |==|  0.12271
USER: genes 13 Torsion [N]-CA--CB-[CG2] |==|  0.73899
USER: genes 14 Torsion [CA]-CB--OG1-[HG1] |==|  0.41170
USER: genes 15 Torsion [C]-CA--CB-[CG] |==|  0.63179
USER: genes 16 Torsion [CA]-CB--CG-[CD2] |==|  0.67947
USER: genes 17 Torsion [C]-CA--N-[C] |==|  0.76884
USER: genes 18 Torsion [N]-C--CA-[N] |==|  0.32998
USER: genes 19 Torsion [C]-CA--N-[C] |==|  0.69486
USER: genes 20 Torsion [N]-C--CA-[CB] |==|  0.51459
USER: genes 21 Torsion [N]-C--CA-[N] |==|  0.29875
USER: genes 22 Torsion [C]-CA--N-[H1] |==|  0.81628
USER: genes 23 Torsion [C]-CA--CB-[CG] |==|  0.38900
USER: genes 24 Torsion [CA]-CB--CG-[CD] |==|  0.47508
USER: genes 25 Torsion [CB]-CG--CD-[CE] |==|  0.05456
USER: genes 26 Torsion [CG]-CD--CE-[NZ] |==|  0.35144
USER: genes 27 Torsion [CD]-CE--NZ-[HZ1] |==|  0.86554
USER: genes 28 Torsion [C]-CA--CB-[CG1] |==|  0.27296
ROOT
ATOM      1  CA  LEU B   4      19.882  19.218  16.188  1.00 33.70 LIG 0.18  C 
ENDROOT
BRANCH 1 2
ATOM      2  C   LEU B   4      18.649  18.352  15.952  1.00 36.59 LIG 0.24  C 
ATOM      3 O    LEU B   4      18.478  17.771  14.878  1.00 35.62 LIG-0.27  OA
ATOM      4  N   ARG B   5      17.793  18.270  16.964  1.00 30.50 LIG-0.35  N 
ATOM      5 H    ARG B   5      17.936  18.618  17.737  1.00 30.50 LIG 0.16  HD
BRANCH 4 6
ATOM      6  CA  ARG B   5      16.516  17.571  16.852  1.00 32.70 LIG 0.18  C 
BRANCH 6 7
ATOM      7  CB  ARG B   5      15.706  18.090  15.659  1.00 28.13 LIG 0.04  C 
BRANCH 7 8
ATOM      8  CG  ARG B   5      15.296  16.995  14.679  1.00 29.30 LIG 0.02  C 
BRANCH 8 9
ATOM      9  CD  ARG B   5      13.861  17.138  14.204  1.00 34.57 LIG 0.14  C 
BRANCH 9 10
ATOM     10  NE  ARG B   5      13.089  15.916  14.359  1.00 41.05 LIG-0.23  N 
ATOM     11 HE   ARG B   5      13.489  15.169  14.213  1.00 41.05 LIG 0.18  HD
ATOM     12  CZ  ARG B   5      11.806  15.871  14.710  1.00 43.39 LIG 0.67  C 
ATOM     13  NH2 ARG B   5      11.190  14.700  14.815  1.00 33.00 LIG-0.23  N 
ATOM     14  NH1 ARG B   5      11.139  16.990  14.955  1.00 41.15 LIG-0.23  N 
ATOM     15 1HH2 ARG B   5      11.619  13.973  14.656  1.00 33.00 LIG 0.17  HD
ATOM     16 2HH2 ARG B   5      10.360  14.669  15.041  1.00 33.00 LIG 0.17  HD
ATOM     17 2HH1 ARG B   5      10.310  16.955  15.181  1.00 41.15 LIG 0.17  HD
ATOM     18 1HH1 ARG B   5      11.534  17.750  14.886  1.00 41.15 LIG 0.17  HD
ENDBRANCH 9 10
ENDBRANCH 8 9
ENDBRANCH 7 8
ENDBRANCH 6 7
BRANCH 6 19
ATOM     19  C   ARG B   5      16.742  16.071  16.718  1.00 32.44 LIG 0.24  C 
ATOM     20 O    ARG B   5      17.875  15.636  16.509  1.00 30.81 LIG-0.27  OA
ATOM     21  N   THR B   6      15.679  15.279  16.852  1.00 35.68 LIG-0.34  N 
ATOM     22 H    THR B   6      14.896  15.545  17.087  1.00 35.68 LIG 0.16  HD
BRANCH 21 23
ATOM     23  CA  THR B   6      15.795  13.842  16.594  1.00 34.81 LIG 0.20  C 
BRANCH 23 24
ATOM     24  C   THR B   6      16.489  13.607  15.267  1.00 33.55 LIG 0.24  C 
ATOM     25 O    THR B   6      15.914  13.854  14.208  1.00 36.63 LIG-0.27  OA
ATOM     26  N   ALA B   7      17.725  13.127  15.329  1.00 35.45 LIG-0.34  N 
ATOM     27 H    ALA B   7      18.129  12.925  16.061  1.00 35.45 LIG 0.16  HD
BRANCH 26 28
ATOM     28  CA  ALA B   7      18.507  12.903  14.122  1.00 34.62 LIG 0.18  C 
ATOM     29  CB  ALA B   7      19.529  14.019  13.939  1.00 31.37 LIG 0.04  C 
BRANCH 28 30
ATOM     30  C   ALA B   7      19.197  11.542  14.146  1.00 35.30 LIG 0.20  C 
ATOM     31 OXT  ALA B   7      18.574  10.545  14.516  1.00 33.15 LIG-0.65  OA
ATOM     32 O    ALA B   7      20.380  11.410  13.815  1.00 30.65 LIG-0.65  OA
ENDBRANCH 28 30
ENDBRANCH 26 28
ENDBRANCH 23 24
BRANCH 23 33
ATOM     33  CB  THR B   6      14.444  13.102  16.550  1.00 40.55 LIG 0.15  C 
ATOM     34  CG2 THR B   6      14.134  12.531  17.912  1.00 29.01 LIG 0.04  C 
BRANCH 33 35
ATOM     35 OG1  THR B   6      13.391  13.981  16.114  1.00 38.86 LIG-0.39  OA
ATOM     36 HG1  THR B   6      12.815  13.540  15.690  1.00 38.86 LIG 0.21  HD
ENDBRANCH 33 35
ENDBRANCH 23 33
ENDBRANCH 21 23
ENDBRANCH 6 19
ENDBRANCH 4 6
ENDBRANCH 1 2
BRANCH 1 37
ATOM     37  CB  LEU B   4      20.783  18.547  17.231  1.00 31.55 LIG 0.04  C 
BRANCH 37 38
ATOM     38  CG  LEU B   4      21.365  19.335  18.412  1.00 40.70 LIG-0.02  C 
ATOM     39  CD2 LEU B   4      22.887  19.386  18.301  1.00 33.83 LIG 0.01  C 
ATOM     40  CD1 LEU B   4      20.926  18.799  19.782  1.00 30.33 LIG 0.01  C 
ENDBRANCH 37 38
ENDBRANCH 1 37
BRANCH 1 41
ATOM     41  N   LEU B   4      19.520  20.561  16.633  1.00 32.96 LIG-0.35  N 
ATOM     42  C   VAL B   3      19.179  21.524  15.784  1.00 32.71 LIG 0.24  C 
ATOM     43 O    VAL B   3      19.081  21.346  14.567  1.00 29.46 LIG-0.27  OA
ATOM     44 H    LEU B   4      19.548  20.668  17.486  1.00 32.96 LIG 0.16  HD
BRANCH 42 45
ATOM     45  CA  VAL B   3      18.919  22.901  16.388  1.00 32.18 LIG 0.18  C 
BRANCH 45 46
ATOM     46  N   VAL B   3      19.878  23.833  15.812  1.00 27.49 LIG-0.35  N 
ATOM     47 H    VAL B   3      19.743  24.012  14.981  1.00 27.49 LIG 0.16  HD
ATOM     48  C   PRO B   2      20.870  24.348  16.527  1.00 36.99 LIG 0.24  C 
ATOM     49 O    PRO B   2      20.941  24.260  17.755  1.00 37.97 LIG-0.27  OA
BRANCH 48 50
ATOM     50  CA  PRO B   2      21.955  25.070  15.743  1.00 42.38 LIG 0.18  C 
ATOM     51  CB  PRO B   2      23.074  25.483  16.696  1.00 38.27 LIG 0.04  C 
ATOM     52  CG  PRO B   2      22.690  26.854  17.144  1.00 37.96 LIG 0.02  C 
ATOM     53  CD  PRO B   2      22.037  27.501  15.948  1.00 39.69 LIG 0.13  C 
ATOM     54  N   PRO B   2      21.503  26.352  15.193  1.00 45.78 LIG-0.34  N 
ATOM     55  C   LYS B   1      20.665  26.437  14.148  1.00 52.29 LIG 0.25  C 
ATOM     56 O    LYS B   1      20.126  25.454  13.635  1.00 54.18 LIG-0.27  OA
BRANCH 55 57
ATOM     57  CA  LYS B   1      20.395  27.832  13.605  1.00 57.44 LIG 0.28  C 
BRANCH 57 58
ATOM     58  N   LYS B   1      21.057  28.030  12.317  1.00 70.48 LIG-0.07  N 
ATOM     59 H1   LYS B   1      21.939  28.015  12.431  1.00 70.48 LIG 0.28  HD
ATOM     60 H2   LYS B   1      20.820  27.379  11.758  1.00 70.48 LIG 0.28  HD
ATOM     61 H3   LYS B   1      20.816  28.815  11.976  1.00 70.48 LIG 0.28  HD
ENDBRANCH 57 58
BRANCH 57 62
ATOM     62  CB  LYS B   1      18.893  28.085  13.480  1.00 56.26 LIG 0.04  C 
BRANCH 62 63
ATOM     63  CG  LYS B   1      18.484  29.486  13.891  1.00 62.75 LIG 0.00  C 
BRANCH 63 64
ATOM     64  CD  LYS B   1      17.034  29.758  13.546  1.00 59.03 LIG 0.03  C 
BRANCH 64 65
ATOM     65  CE  LYS B   1      16.269  28.460  13.343  1.00 61.45 LIG 0.23  C 
BRANCH 65 66
ATOM     66  NZ  LYS B   1      15.043  28.405  14.195  1.00 70.72 LIG-0.08  N 
ATOM     67 HZ1  LYS B   1      15.252  28.629  15.030  1.00 70.72 LIG 0.27  HD
ATOM     68 HZ2  LYS B   1      14.435  28.973  13.879  1.00 70.72 LIG 0.27  HD
ATOM     69 HZ3  LYS B   1      14.711  27.579  14.184  1.00 70.72 LIG 0.27  HD
ENDBRANCH 65 66
ENDBRANCH 64 65
ENDBRANCH 63 64
ENDBRANCH 62 63
ENDBRANCH 57 62
ENDBRANCH 55 57
ENDBRANCH 48 50
ENDBRANCH 45 46
BRANCH 45 70
ATOM     70  CB  VAL B   3      17.470  23.337  16.105  1.00 30.17 LIG 0.01  C 
ATOM     71  CG1 VAL B   3      16.575  23.060  17.305  1.00 32.03 LIG 0.01  C 
ATOM     72  CG2 VAL B   3      17.433  24.807  15.731  1.00 31.22 LIG 0.01  C 
ENDBRANCH 45 70
ENDBRANCH 42 45
ENDBRANCH 1 41
TORSDOF 27
ENDMDL
MODEL 15
USER: ADFR SOLUTION from run 193
USER: SCORE 21.047391 LL:  -4.810 LR: -17.149 RR:   0.000 FEB:  -9.095
USER: RMSD 6.887419
USER: SEED 192
USER: STATUS searching
USER: GENES 29
USER: genes 0 Translation |==|  0.55169 0.35307 0.49112
USER: genes 1 Rotation |==|  0.40511 0.98624 0.44757 0.54267
USER: genes 2 Torsion [N]-CA--C-[N] |==|  0.37044
USER: genes 3 Torsion [C]-N--CA-[C] |==|  0.82804
USER: genes 4 Torsion [N]-CA--CB-[CG] |==|  0.69156
USER: genes 5 Torsion [CA]-CB--CG-[CD] |==|  0.10331
USER: genes 6 Torsion [CB]-CG--CD-[NE] |==|  0.52803
USER: genes 7 Torsion [CG]-CD--NE-[HE] |==|  0.22510
USER: genes 8 Torsion [N]-CA--C-[N] |==|  0.87022
USER: genes 9 Torsion [C]-N--CA-[CB] |==|  0.80006
USER: genes 10 Torsion [N]-CA--C-[N] |==|  0.21617
USER: genes 11 Torsion [C]-N--CA-[CB] |==|  0.48641
USER: genes 12 Torsion [N]-CA--C-[OXT] |==|  0.74842
USER: genes 13 Torsion [N]-CA--CB-[CG2] |==|  0.69660
USER: genes 14 Torsion [CA]-CB--OG1-[HG1] |==|  0.92592
USER: genes 15 Torsion [C]-CA--CB-[CG] |==|  0.14419
USER: genes 16 Torsion [CA]-CB--CG-[CD2] |==|  0.47197
USER: genes 17 Torsion [C]-CA--N-[C] |==|  0.61905
USER: genes 18 Torsion [N]-C--CA-[N] |==|  0.45138
USER: genes 19 Torsion [C]-CA--N-[C] |==|  0.63822
USER: genes 20 Torsion [N]-C--CA-[CB] |==|  0.81136
USER: genes 21 Torsion [N]-C--CA-[N] |==|  0.37265
USER: genes 22 Torsion [C]-CA--N-[H1] |==|  0.74406
USER: genes 23 Torsion [C]-CA--CB-[CG] |==|  0.01185
USER: genes 24 Torsion [CA]-CB--CG-[CD] |==|  0.44311
USER: genes 25 Torsion [CB]-CG--CD-[CE] |==|  0.11007
USER: genes 26 Torsion [CG]-CD--CE-[NZ] |==|  0.29228
USER: genes 27 Torsion [CD]-CE--NZ-[HZ1] |==|  0.46794
USER: genes 28 Torsion [C]-CA--CB-[CG1] |==|  0.47489
ROOT
ATOM      1  CA  LEU B   4      17.926  20.817  16.302  1.00 33.70 LIG 0.18  C 
ENDROOT
BRANCH 1 2
ATOM      2  C   LEU B   4      19.027  19.797  16.034  1.00 36.59 LIG 0.24  C 
ATOM      3 O    LEU B   4      19.539  19.694  14.917  1.00 35.62 LIG-0.27  OA
ATOM      4  N   ARG B   5      19.389  19.045  17.067  1.00 30.50 LIG-0.35  N 
ATOM      5 H    ARG B   5      19.084  19.154  17.864  1.00 30.50 LIG 0.16  HD
BRANCH 4 6
ATOM      6  CA  ARG B   5      20.348  17.953  16.941  1.00 32.70 LIG 0.18  C 
BRANCH 6 7
ATOM      7  CB  ARG B   5      20.658  17.328  18.306  1.00 28.13 LIG 0.04  C 
BRANCH 7 8
ATOM      8  CG  ARG B   5      22.078  17.600  18.792  1.00 29.30 LIG 0.02  C 
BRANCH 8 9
ATOM      9  CD  ARG B   5      22.565  18.994  18.434  1.00 34.57 LIG 0.14  C 
BRANCH 9 10
ATOM     10  NE  ARG B   5      23.985  19.179  18.684  1.00 41.05 LIG-0.23  N 
ATOM     11 HE   ARG B   5      24.536  18.885  18.093  1.00 41.05 LIG 0.18  HD
ATOM     12  CZ  ARG B   5      24.492  19.771  19.762  1.00 43.39 LIG 0.67  C 
ATOM     13  NH2 ARG B   5      25.808  19.881  19.898  1.00 33.00 LIG-0.23  N 
ATOM     14  NH1 ARG B   5      23.692  20.250  20.703  1.00 41.15 LIG-0.23  N 
ATOM     15 1HH2 ARG B   5      26.331  19.570  19.290  1.00 33.00 LIG 0.17  HD
ATOM     16 2HH2 ARG B   5      26.138  20.263  20.595  1.00 33.00 LIG 0.17  HD
ATOM     17 2HH1 ARG B   5      24.025  20.632  21.398  1.00 41.15 LIG 0.17  HD
ATOM     18 1HH1 ARG B   5      22.839  20.179  20.619  1.00 41.15 LIG 0.17  HD
ENDBRANCH 9 10
ENDBRANCH 8 9
ENDBRANCH 7 8
ENDBRANCH 6 7
BRANCH 6 19
ATOM     19  C   ARG B   5      19.819  16.890  15.987  1.00 32.44 LIG 0.24  C 
ATOM     20 O    ARG B   5      20.555  16.422  15.118  1.00 30.81 LIG-0.27  OA
ATOM     21  N   THR B   6      18.557  16.494  16.152  1.00 35.68 LIG-0.34  N 
ATOM     22 H    THR B   6      18.050  16.734  16.803  1.00 35.68 LIG 0.16  HD
BRANCH 21 23
ATOM     23  CA  THR B   6      17.939  15.584  15.186  1.00 34.81 LIG 0.20  C 
BRANCH 23 24
ATOM     24  C   THR B   6      18.852  14.404  14.926  1.00 33.55 LIG 0.24  C 
ATOM     25 O    THR B   6      19.528  14.349  13.899  1.00 36.63 LIG-0.27  OA
ATOM     26  N   ALA B   7      18.869  13.459  15.858  1.00 35.45 LIG-0.34  N 
ATOM     27 H    ALA B   7      18.383  13.471  16.568  1.00 35.45 LIG 0.16  HD
BRANCH 26 28
ATOM     28  CA  ALA B   7      19.740  12.299  15.740  1.00 34.62 LIG 0.18  C 
ATOM     29  CB  ALA B   7      19.650  11.439  16.995  1.00 31.37 LIG 0.04  C 
BRANCH 28 30
ATOM     30  C   ALA B   7      19.411  11.475  14.499  1.00 35.30 LIG 0.20  C 
ATOM     31 OXT  ALA B   7      18.592  10.557  14.571  1.00 33.15 LIG-0.65  OA
ATOM     32 O    ALA B   7      19.957  11.695  13.412  1.00 30.65 LIG-0.65  OA
ENDBRANCH 28 30
ENDBRANCH 26 28
ENDBRANCH 23 24
BRANCH 23 33
ATOM     33  CB  THR B   6      17.622  16.236  13.826  1.00 40.55 LIG 0.15  C 
ATOM     34  CG2 THR B   6      16.129  16.392  13.674  1.00 29.01 LIG 0.04  C 
BRANCH 33 35
ATOM     35 OG1  THR B   6      18.283  17.508  13.699  1.00 38.86 LIG-0.39  OA
ATOM     36 HG1  THR B   6      18.409  17.836  14.462  1.00 38.86 LIG 0.21  HD
ENDBRANCH 33 35
ENDBRANCH 23 33
ENDBRANCH 21 23
ENDBRANCH 6 19
ENDBRANCH 4 6
ENDBRANCH 1 2
BRANCH 1 37
ATOM     37  CB  LEU B   4      16.612  20.321  15.688  1.00 31.55 LIG 0.04  C 
BRANCH 37 38
ATOM     38  CG  LEU B   4      16.069  18.917  15.985  1.00 40.70 LIG-0.02  C 
ATOM     39  CD2 LEU B   4      14.644  18.788  15.452  1.00 33.83 LIG 0.01  C 
ATOM     40  CD1 LEU B   4      16.144  18.532  17.469  1.00 30.33 LIG 0.01  C 
ENDBRANCH 37 38
ENDBRANCH 1 37
BRANCH 1 41
ATOM     41  N   LEU B   4      18.265  22.130  15.759  1.00 32.96 LIG-0.35  N 
ATOM     42  C   VAL B   3      18.049  23.256  16.431  1.00 32.71 LIG 0.24  C 
ATOM     43 O    VAL B   3      17.607  23.279  17.583  1.00 29.46 LIG-0.27  OA
ATOM     44 H    LEU B   4      18.612  22.106  14.973  1.00 32.96 LIG 0.16  HD
BRANCH 42 45
ATOM     45  CA  VAL B   3      18.365  24.556  15.697  1.00 32.18 LIG 0.18  C 
BRANCH 45 46
ATOM     46  N   VAL B   3      17.693  25.641  16.397  1.00 27.49 LIG-0.35  N 
ATOM     47 H    VAL B   3      17.826  25.651  17.246  1.00 27.49 LIG 0.16  HD
ATOM     48  C   PRO B   2      16.943  26.528  15.756  1.00 36.99 LIG 0.24  C 
ATOM     49 O    PRO B   2      16.921  26.641  14.528  1.00 37.97 LIG-0.27  OA
BRANCH 48 50
ATOM     50  CA  PRO B   2      16.076  27.425  16.627  1.00 42.38 LIG 0.18  C 
ATOM     51  CB  PRO B   2      14.987  26.583  17.289  1.00 38.27 LIG 0.04  C 
ATOM     52  CG  PRO B   2      13.841  26.648  16.336  1.00 37.96 LIG 0.02  C 
ATOM     53  CD  PRO B   2      13.883  28.037  15.747  1.00 39.69 LIG 0.13  C 
ATOM     54  N   PRO B   2      15.308  28.403  15.851  1.00 45.78 LIG-0.34  N 
ATOM     55  C   LYS B   1      15.873  29.476  15.276  1.00 52.29 LIG 0.25  C 
ATOM     56 O    LYS B   1      17.090  29.671  15.262  1.00 54.18 LIG-0.27  OA
BRANCH 55 57
ATOM     57  CA  LYS B   1      14.928  30.472  14.620  1.00 57.44 LIG 0.28  C 
BRANCH 57 58
ATOM     58  N   LYS B   1      15.275  31.843  14.988  1.00 70.48 LIG-0.07  N 
ATOM     59 H1   LYS B   1      14.811  32.084  15.708  1.00 70.48 LIG 0.28  HD
ATOM     60 H2   LYS B   1      16.146  31.892  15.168  1.00 70.48 LIG 0.28  HD
ATOM     61 H3   LYS B   1      15.081  32.390  14.314  1.00 70.48 LIG 0.28  HD
ENDBRANCH 57 58
BRANCH 57 62
ATOM     62  CB  LYS B   1      14.935  30.307  13.100  1.00 56.26 LIG 0.04  C 
BRANCH 62 63
ATOM     63  CG  LYS B   1      15.785  29.144  12.626  1.00 62.75 LIG 0.00  C 
BRANCH 63 64
ATOM     64  CD  LYS B   1      15.387  28.706  11.232  1.00 59.03 LIG 0.03  C 
BRANCH 64 65
ATOM     65  CE  LYS B   1      15.073  29.904  10.352  1.00 61.45 LIG 0.23  C 
BRANCH 65 66
ATOM     66  NZ  LYS B   1      16.168  30.170   9.372  1.00 70.72 LIG-0.08  N 
ATOM     67 HZ1  LYS B   1      15.889  30.761   8.768  1.00 70.72 LIG 0.27  HD
ATOM     68 HZ2  LYS B   1      16.878  30.496   9.800  1.00 70.72 LIG 0.27  HD
ATOM     69 HZ3  LYS B   1      16.391  29.411   8.963  1.00 70.72 LIG 0.27  HD
ENDBRANCH 65 66
ENDBRANCH 64 65
ENDBRANCH 63 64
ENDBRANCH 62 63
ENDBRANCH 57 62
ENDBRANCH 55 57
ENDBRANCH 48 50
ENDBRANCH 45 46
BRANCH 45 70
ATOM     70  CB  VAL B   3      19.888  24.775  15.645  1.00 30.17 LIG 0.01  C 
ATOM     71  CG1 VAL B   3      20.238  25.941  14.732  1.00 32.03 LIG 0.01  C 
ATOM     72  CG2 VAL B   3      20.427  25.004  17.045  1.00 31.22 LIG 0.01  C 
ENDBRANCH 45 70
ENDBRANCH 42 45
ENDBRANCH 1 41
TORSDOF 27
ENDMDL
MODEL 16
USER: ADFR SOLUTION from run 153
USER: SCORE 21.183605 LL:  -5.242 LR: -17.111 RR:   0.000 FEB:  -9.057
USER: RMSD 10.275160
USER: SEED 152
USER: STATUS no improvement in best in 1 clusters for 5 generations
USER: GENES 29
USER: genes 0 Translation |==|  0.51379 0.25380 0.52909
USER: genes 1 Rotation |==|  0.27468 0.88067 0.53505 0.73042
USER: genes 2 Torsion [N]-CA--C-[N] |==|  0.79789
USER: genes 3 Torsion [C]-N--CA-[C] |==|  0.17123
USER: genes 4 Torsion [N]-CA--CB-[CG] |==|  0.28033
USER: genes 5 Torsion [CA]-CB--CG-[CD] |==|  0.34924
USER: genes 6 Torsion [CB]-CG--CD-[NE] |==|  0.68009
USER: genes 7 Torsion [CG]-CD--NE-[HE] |==|  0.33074
USER: genes 8 Torsion [N]-CA--C-[N] |==|  0.04572
USER: genes 9 Torsion [C]-N--CA-[CB] |==|  0.15589
USER: genes 10 Torsion [N]-CA--C-[N] |==|  0.08349
USER: genes 11 Torsion [C]-N--CA-[CB] |==|  0.47114
USER: genes 12 Torsion [N]-CA--C-[OXT] |==|  0.43290
USER: genes 13 Torsion [N]-CA--CB-[CG2] |==|  0.16927
USER: genes 14 Torsion [CA]-CB--OG1-[HG1] |==|  0.08012
USER: genes 15 Torsion [C]-CA--CB-[CG] |==|  0.46347
USER: genes 16 Torsion [CA]-CB--CG-[CD2] |==|  0.48296
USER: genes 17 Torsion [C]-CA--N-[C] |==|  0.18599
USER: genes 18 Torsion [N]-C--CA-[N] |==|  0.95285
USER: genes 19 Torsion [C]-CA--N-[C] |==|  0.77969
USER: genes 20 Torsion [N]-C--CA-[CB] |==|  0.73210
USER: genes 21 Torsion [N]-C--CA-[N] |==|  0.43747
USER: genes 22 Torsion [C]-CA--N-[H1] |==|  0.47018
USER: genes 23 Torsion [C]-CA--CB-[CG] |==|  0.53299
USER: genes 24 Torsion [CA]-CB--CG-[CD] |==|  0.51281
USER: genes 25 Torsion [CB]-CG--CD-[CE] |==|  0.83212
USER: genes 26 Torsion [CG]-CD--CE-[NZ] |==|  0.79265
USER: genes 27 Torsion [CD]-CE--NZ-[HZ1] |==|  0.17753
USER: genes 28 Torsion [C]-CA--CB-[CG1] |==|  0.82298
ROOT
ATOM      1  CA  LEU B   4      17.187  17.616  16.900  1.00 33.70 LIG 0.18  C 
ENDROOT
BRANCH 1 2
ATOM      2  C   LEU B   4      18.643  17.590  17.353  1.00 36.59 LIG 0.24  C 
ATOM      3 O    LEU B   4      18.954  17.151  18.462  1.00 35.62 LIG-0.27  OA
ATOM      4  N   ARG B   5      19.531  18.062  16.486  1.00 30.50 LIG-0.35  N 
ATOM      5 H    ARG B   5      19.331  18.309  15.687  1.00 30.50 LIG 0.16  HD
BRANCH 4 6
ATOM      6  CA  ARG B   5      20.946  18.205  16.817  1.00 32.70 LIG 0.18  C 
BRANCH 6 7
ATOM      7  CB  ARG B   5      21.143  19.168  17.993  1.00 28.13 LIG 0.04  C 
BRANCH 7 8
ATOM      8  CG  ARG B   5      21.385  18.462  19.323  1.00 29.30 LIG 0.02  C 
BRANCH 8 9
ATOM      9  CD  ARG B   5      22.656  18.926  20.013  1.00 34.57 LIG 0.14  C 
BRANCH 9 10
ATOM     10  NE  ARG B   5      23.654  17.875  20.128  1.00 41.05 LIG-0.23  N 
ATOM     11 HE   ARG B   5      24.412  18.000  19.741  1.00 41.05 LIG 0.18  HD
ATOM     12  CZ  ARG B   5      23.478  16.734  20.790  1.00 43.39 LIG 0.67  C 
ATOM     13  NH2 ARG B   5      24.453  15.834  20.826  1.00 33.00 LIG-0.23  N 
ATOM     14  NH1 ARG B   5      22.334  16.489  21.412  1.00 41.15 LIG-0.23  N 
ATOM     15 1HH2 ARG B   5      25.197  15.989  20.422  1.00 33.00 LIG 0.17  HD
ATOM     16 2HH2 ARG B   5      24.342  15.095  21.253  1.00 33.00 LIG 0.17  HD
ATOM     17 2HH1 ARG B   5      22.226  15.750  21.838  1.00 41.15 LIG 0.17  HD
ATOM     18 1HH1 ARG B   5      21.700  17.070  21.389  1.00 41.15 LIG 0.17  HD
ENDBRANCH 9 10
ENDBRANCH 8 9
ENDBRANCH 7 8
ENDBRANCH 6 7
BRANCH 6 19
ATOM     19  C   ARG B   5      21.554  16.848  17.144  1.00 32.44 LIG 0.24  C 
ATOM     20 O    ARG B   5      22.626  16.783  17.745  1.00 30.81 LIG-0.27  OA
ATOM     21  N   THR B   6      20.872  15.766  16.768  1.00 35.68 LIG-0.34  N 
ATOM     22 H    THR B   6      20.082  15.778  16.429  1.00 35.68 LIG 0.16  HD
BRANCH 21 23
ATOM     23  CA  THR B   6      21.462  14.435  16.920  1.00 34.81 LIG 0.20  C 
BRANCH 23 24
ATOM     24  C   THR B   6      20.469  13.374  16.490  1.00 33.55 LIG 0.24  C 
ATOM     25 O    THR B   6      20.486  12.256  17.004  1.00 36.63 LIG-0.27  OA
ATOM     26  N   ALA B   7      19.605  13.728  15.546  1.00 35.45 LIG-0.34  N 
ATOM     27 H    ALA B   7      19.598  14.496  15.160  1.00 35.45 LIG 0.16  HD
BRANCH 26 28
ATOM     28  CA  ALA B   7      18.576  12.808  15.085  1.00 34.62 LIG 0.18  C 
ATOM     29  CB  ALA B   7      17.573  13.538  14.199  1.00 31.37 LIG 0.04  C 
BRANCH 28 30
ATOM     30  C   ALA B   7      19.179  11.617  14.346  1.00 35.30 LIG 0.20  C 
ATOM     31 OXT  ALA B   7      18.555  10.556  14.280  1.00 33.15 LIG-0.65  OA
ATOM     32 O    ALA B   7      20.294  11.681  13.817  1.00 30.65 LIG-0.65  OA
ENDBRANCH 28 30
ENDBRANCH 26 28
ENDBRANCH 23 24
BRANCH 23 33
ATOM     33  CB  THR B   6      21.903  14.105  18.359  1.00 40.55 LIG 0.15  C 
ATOM     34  CG2 THR B   6      20.706  14.146  19.278  1.00 29.01 LIG 0.04  C 
BRANCH 33 35
ATOM     35 OG1  THR B   6      22.546  12.819  18.418  1.00 38.86 LIG-0.39  OA
ATOM     36 HG1  THR B   6      22.916  12.657  17.681  1.00 38.86 LIG 0.21  HD
ENDBRANCH 33 35
ENDBRANCH 23 33
ENDBRANCH 21 23
ENDBRANCH 6 19
ENDBRANCH 4 6
ENDBRANCH 1 2
BRANCH 1 37
ATOM     37  CB  LEU B   4      17.080  17.006  15.498  1.00 31.55 LIG 0.04  C 
BRANCH 37 38
ATOM     38  CG  LEU B   4      15.723  16.619  14.894  1.00 40.70 LIG-0.02  C 
ATOM     39  CD2 LEU B   4      15.907  16.183  13.442  1.00 33.83 LIG 0.01  C 
ATOM     40  CD1 LEU B   4      14.663  17.722  15.013  1.00 30.33 LIG 0.01  C 
ENDBRANCH 37 38
ENDBRANCH 1 37
BRANCH 1 41
ATOM     41  N   LEU B   4      16.648  18.974  16.895  1.00 32.96 LIG-0.35  N 
ATOM     42  C   VAL B   3      17.080  19.907  16.053  1.00 32.71 LIG 0.24  C 
ATOM     43 O    VAL B   3      17.918  19.687  15.175  1.00 29.46 LIG-0.27  OA
ATOM     44 H    LEU B   4      16.034  19.110  17.481  1.00 32.96 LIG 0.16  HD
BRANCH 42 45
ATOM     45  CA  VAL B   3      16.492  21.304  16.230  1.00 32.18 LIG 0.18  C 
BRANCH 45 46
ATOM     46  N   VAL B   3      15.287  21.186  17.039  1.00 27.49 LIG-0.35  N 
ATOM     47 H    VAL B   3      15.394  21.396  17.866  1.00 27.49 LIG 0.16  HD
ATOM     48  C   PRO B   2      14.134  20.785  16.520  1.00 36.99 LIG 0.24  C 
ATOM     49 O    PRO B   2      13.929  20.688  15.308  1.00 37.97 LIG-0.27  OA
BRANCH 48 50
ATOM     50  CA  PRO B   2      13.040  20.431  17.517  1.00 42.38 LIG 0.18  C 
ATOM     51  CB  PRO B   2      13.040  18.921  17.748  1.00 38.27 LIG 0.04  C 
ATOM     52  CG  PRO B   2      12.083  18.393  16.733  1.00 37.96 LIG 0.02  C 
ATOM     53  CD  PRO B   2      11.001  19.438  16.615  1.00 39.69 LIG 0.13  C 
ATOM     54  N   PRO B   2      11.693  20.683  16.997  1.00 45.78 LIG-0.34  N 
ATOM     55  C   LYS B   1      11.190  21.919  16.856  1.00 52.29 LIG 0.25  C 
ATOM     56 O    LYS B   1      11.852  22.941  17.050  1.00 54.18 LIG-0.27  OA
BRANCH 55 57
ATOM     57  CA  LYS B   1       9.732  22.016  16.434  1.00 57.44 LIG 0.28  C 
BRANCH 57 58
ATOM     58  N   LYS B   1       9.161  23.306  16.817  1.00 70.48 LIG-0.07  N 
ATOM     59 H1   LYS B   1       8.366  23.406  16.430  1.00 70.48 LIG 0.28  HD
ATOM     60 H2   LYS B   1       9.066  23.338  17.702  1.00 70.48 LIG 0.28  HD
ATOM     61 H3   LYS B   1       9.703  23.961  16.553  1.00 70.48 LIG 0.28  HD
ENDBRANCH 57 58
BRANCH 57 62
ATOM     62  CB  LYS B   1       9.586  21.791  14.929  1.00 56.26 LIG 0.04  C 
BRANCH 62 63
ATOM     63  CG  LYS B   1       8.213  22.152  14.398  1.00 62.75 LIG 0.00  C 
BRANCH 63 64
ATOM     64  CD  LYS B   1       8.084  21.806  12.929  1.00 59.03 LIG 0.03  C 
BRANCH 64 65
ATOM     65  CE  LYS B   1       9.106  22.563  12.098  1.00 61.45 LIG 0.23  C 
BRANCH 65 66
ATOM     66  NZ  LYS B   1       8.733  24.001  11.942  1.00 70.72 LIG-0.08  N 
ATOM     67 HZ1  LYS B   1       8.739  24.398  12.738  1.00 70.72 LIG 0.27  HD
ATOM     68 HZ2  LYS B   1       9.318  24.404  11.406  1.00 70.72 LIG 0.27  HD
ATOM     69 HZ3  LYS B   1       7.918  24.060  11.588  1.00 70.72 LIG 0.27  HD
ENDBRANCH 65 66
ENDBRANCH 64 65
ENDBRANCH 63 64
ENDBRANCH 62 63
ENDBRANCH 57 62
ENDBRANCH 55 57
ENDBRANCH 48 50
ENDBRANCH 45 46
BRANCH 45 70
ATOM     70  CB  VAL B   3      17.528  22.231  16.893  1.00 30.17 LIG 0.01  C 
ATOM     71  CG1 VAL B   3      17.865  21.752  18.298  1.00 32.03 LIG 0.01  C 
ATOM     72  CG2 VAL B   3      18.776  22.311  16.035  1.00 31.22 LIG 0.01  C 
ENDBRANCH 45 70
ENDBRANCH 42 45
ENDBRANCH 1 41
TORSDOF 27
ENDMDL
MODEL 17
USER: ADFR SOLUTION from run 193
USER: SCORE 21.254075 LL:  -5.067 LR: -17.044 RR:   0.000 FEB:  -8.990
USER: RMSD 6.934354
USER: SEED 192
USER: STATUS searching
USER: GENES 29
USER: genes 0 Translation |==|  0.55769 0.34858 0.48944
USER: genes 1 Rotation |==|  0.40321 0.98693 0.45323 0.53669
USER: genes 2 Torsion [N]-CA--C-[N] |==|  0.35009
USER: genes 3 Torsion [C]-N--CA-[C] |==|  0.84224
USER: genes 4 Torsion [N]-CA--CB-[CG] |==|  0.36708
USER: genes 5 Torsion [CA]-CB--CG-[CD] |==|  0.33924
USER: genes 6 Torsion [CB]-CG--CD-[NE] |==|  0.57898
USER: genes 7 Torsion [CG]-CD--NE-[HE] |==|  0.27360
USER: genes 8 Torsion [N]-CA--C-[N] |==|  0.89344
USER: genes 9 Torsion [C]-N--CA-[CB] |==|  0.79978
USER: genes 10 Torsion [N]-CA--C-[N] |==|  0.22285
USER: genes 11 Torsion [C]-N--CA-[CB] |==|  0.50614
USER: genes 12 Torsion [N]-CA--C-[OXT] |==|  0.79872
USER: genes 13 Torsion [N]-CA--CB-[CG2] |==|  0.71409
USER: genes 14 Torsion [CA]-CB--OG1-[HG1] |==|  0.94061
USER: genes 15 Torsion [C]-CA--CB-[CG] |==|  0.14773
USER: genes 16 Torsion [CA]-CB--CG-[CD2] |==|  0.47010
USER: genes 17 Torsion [C]-CA--N-[C] |==|  0.60866
USER: genes 18 Torsion [N]-C--CA-[N] |==|  0.45902
USER: genes 19 Torsion [C]-CA--N-[C] |==|  0.64099
USER: genes 20 Torsion [N]-C--CA-[CB] |==|  0.83564
USER: genes 21 Torsion [N]-C--CA-[N] |==|  0.27005
USER: genes 22 Torsion [C]-CA--N-[H1] |==|  0.61377
USER: genes 23 Torsion [C]-CA--CB-[CG] |==|  0.09151
USER: genes 24 Torsion [CA]-CB--CG-[CD] |==|  0.35981
USER: genes 25 Torsion [CB]-CG--CD-[CE] |==|  0.17282
USER: genes 26 Torsion [CG]-CD--CE-[NZ] |==|  0.28130
USER: genes 27 Torsion [CD]-CE--NZ-[HZ1] |==|  0.46749
USER: genes 28 Torsion [C]-CA--CB-[CG1] |==|  0.45821
ROOT
ATOM      1  CA  LEU B   4      18.043  20.673  16.276  1.00 33.70 LIG 0.18  C 
ENDROOT
BRANCH 1 2
ATOM      2  C   LEU B   4      19.142  19.664  15.959  1.00 36.59 LIG 0.24  C 
ATOM      3 O    LEU B   4      19.529  19.490  14.801  1.00 35.62 LIG-0.27  OA
ATOM      4  N   ARG B   5      19.643  19.003  16.996  1.00 30.50 LIG-0.35  N 
ATOM      5 H    ARG B   5      19.426  19.165  17.812  1.00 30.50 LIG 0.16  HD
BRANCH 4 6
ATOM      6  CA  ARG B   5      20.620  17.930  16.841  1.00 32.70 LIG 0.18  C 
BRANCH 6 7
ATOM      7  CB  ARG B   5      21.008  17.336  18.199  1.00 28.13 LIG 0.04  C 
BRANCH 7 8
ATOM      8  CG  ARG B   5      20.974  15.811  18.228  1.00 29.30 LIG 0.02  C 
BRANCH 8 9
ATOM      9  CD  ARG B   5      22.309  15.200  18.614  1.00 34.57 LIG 0.14  C 
BRANCH 9 10
ATOM     10  NE  ARG B   5      22.514  13.879  18.043  1.00 41.05 LIG-0.23  N 
ATOM     11 HE   ARG B   5      22.990  13.822  17.329  1.00 41.05 LIG 0.18  HD
ATOM     12  CZ  ARG B   5      22.018  12.752  18.547  1.00 43.39 LIG 0.67  C 
ATOM     13  NH2 ARG B   5      22.258  11.595  17.942  1.00 33.00 LIG-0.23  N 
ATOM     14  NH1 ARG B   5      21.284  12.777  19.650  1.00 41.15 LIG-0.23  N 
ATOM     15 1HH2 ARG B   5      22.733  11.575  17.225  1.00 33.00 LIG 0.17  HD
ATOM     16 2HH2 ARG B   5      21.938  10.865  18.266  1.00 33.00 LIG 0.17  HD
ATOM     17 2HH1 ARG B   5      20.966  12.045  19.972  1.00 41.15 LIG 0.17  HD
ATOM     18 1HH1 ARG B   5      21.126  13.524  20.045  1.00 41.15 LIG 0.17  HD
ENDBRANCH 9 10
ENDBRANCH 8 9
ENDBRANCH 7 8
ENDBRANCH 6 7
BRANCH 6 19
ATOM     19  C   ARG B   5      20.071  16.841  15.930  1.00 32.44 LIG 0.24  C 
ATOM     20 O    ARG B   5      20.818  16.267  15.137  1.00 30.81 LIG-0.27  OA
ATOM     21  N   THR B   6      18.778  16.540  16.047  1.00 35.68 LIG-0.34  N 
ATOM     22 H    THR B   6      18.254  16.858  16.651  1.00 35.68 LIG 0.16  HD
BRANCH 21 23
ATOM     23  CA  THR B   6      18.150  15.608  15.109  1.00 34.81 LIG 0.20  C 
BRANCH 23 24
ATOM     24  C   THR B   6      18.994  14.356  14.978  1.00 33.55 LIG 0.24  C 
ATOM     25 O    THR B   6      19.750  14.209  14.018  1.00 36.63 LIG-0.27  OA
ATOM     26  N   ALA B   7      18.861  13.456  15.944  1.00 35.45 LIG-0.34  N 
ATOM     27 H    ALA B   7      18.317  13.534  16.607  1.00 35.45 LIG 0.16  HD
BRANCH 26 28
ATOM     28  CA  ALA B   7      19.652  12.234  15.950  1.00 34.62 LIG 0.18  C 
ATOM     29  CB  ALA B   7      19.263  11.357  17.134  1.00 31.37 LIG 0.04  C 
BRANCH 28 30
ATOM     30  C   ALA B   7      19.505  11.465  14.641  1.00 35.30 LIG 0.20  C 
ATOM     31 OXT  ALA B   7      18.454  10.872  14.392  1.00 33.15 LIG-0.65  OA
ATOM     32 O    ALA B   7      20.424  11.408  13.817  1.00 30.65 LIG-0.65  OA
ENDBRANCH 28 30
ENDBRANCH 26 28
ENDBRANCH 23 24
BRANCH 23 33
ATOM     33  CB  THR B   6      17.950  16.184  13.693  1.00 40.55 LIG 0.15  C 
ATOM     34  CG2 THR B   6      16.503  16.569  13.503  1.00 29.01 LIG 0.04  C 
BRANCH 33 35
ATOM     35 OG1  THR B   6      18.812  17.315  13.472  1.00 38.86 LIG-0.39  OA
ATOM     36 HG1  THR B   6      19.046  17.638  14.211  1.00 38.86 LIG 0.21  HD
ENDBRANCH 33 35
ENDBRANCH 23 33
ENDBRANCH 21 23
ENDBRANCH 6 19
ENDBRANCH 4 6
ENDBRANCH 1 2
BRANCH 1 37
ATOM     37  CB  LEU B   4      16.715  20.178  15.691  1.00 31.55 LIG 0.04  C 
BRANCH 37 38
ATOM     38  CG  LEU B   4      16.175  18.776  16.002  1.00 40.70 LIG-0.02  C 
ATOM     39  CD2 LEU B   4      14.733  18.655  15.515  1.00 33.83 LIG 0.01  C 
ATOM     40  CD1 LEU B   4      16.296  18.388  17.482  1.00 30.33 LIG 0.01  C 
ENDBRANCH 37 38
ENDBRANCH 1 37
BRANCH 1 41
ATOM     41  N   LEU B   4      18.358  21.997  15.745  1.00 32.96 LIG-0.35  N 
ATOM     42  C   VAL B   3      18.088  23.113  16.414  1.00 32.71 LIG 0.24  C 
ATOM     43 O    VAL B   3      17.611  23.120  17.551  1.00 29.46 LIG-0.27  OA
ATOM     44 H    LEU B   4      18.730  21.985  14.970  1.00 32.96 LIG 0.16  HD
BRANCH 42 45
ATOM     45  CA  VAL B   3      18.386  24.425  15.692  1.00 32.18 LIG 0.18  C 
BRANCH 45 46
ATOM     46  N   VAL B   3      17.715  25.497  16.412  1.00 27.49 LIG-0.35  N 
ATOM     47 H    VAL B   3      17.868  25.505  17.258  1.00 27.49 LIG 0.16  HD
ATOM     48  C   PRO B   2      16.935  26.374  15.793  1.00 36.99 LIG 0.24  C 
ATOM     49 O    PRO B   2      16.883  26.491  14.567  1.00 37.97 LIG-0.27  OA
BRANCH 48 50
ATOM     50  CA  PRO B   2      16.076  27.253  16.688  1.00 42.38 LIG 0.18  C 
ATOM     51  CB  PRO B   2      15.162  26.369  17.534  1.00 38.27 LIG 0.04  C 
ATOM     52  CG  PRO B   2      13.920  26.236  16.719  1.00 37.96 LIG 0.02  C 
ATOM     53  CD  PRO B   2      13.747  27.565  16.025  1.00 39.69 LIG 0.13  C 
ATOM     54  N   PRO B   2      15.127  28.078  15.934  1.00 45.78 LIG-0.34  N 
ATOM     55  C   LYS B   1      15.507  29.147  15.217  1.00 52.29 LIG 0.25  C 
ATOM     56 O    LYS B   1      16.687  29.460  15.048  1.00 54.18 LIG-0.27  OA
BRANCH 55 57
ATOM     57  CA  LYS B   1      14.394  29.983  14.602  1.00 57.44 LIG 0.28  C 
BRANCH 57 58
ATOM     58  N   LYS B   1      14.085  31.140  15.439  1.00 70.48 LIG-0.07  N 
ATOM     59 H1   LYS B   1      13.204  31.259  15.468  1.00 70.48 LIG 0.28  HD
ATOM     60 H2   LYS B   1      14.393  31.002  16.263  1.00 70.48 LIG 0.28  HD
ATOM     61 H3   LYS B   1      14.470  31.866  15.097  1.00 70.48 LIG 0.28  HD
ENDBRANCH 57 58
BRANCH 57 62
ATOM     62  CB  LYS B   1      14.768  30.428  13.188  1.00 56.26 LIG 0.04  C 
BRANCH 62 63
ATOM     63  CG  LYS B   1      15.621  29.417  12.447  1.00 62.75 LIG 0.00  C 
BRANCH 63 64
ATOM     64  CD  LYS B   1      15.052  29.119  11.075  1.00 59.03 LIG 0.03  C 
BRANCH 64 65
ATOM     65  CE  LYS B   1      15.034  30.368  10.208  1.00 61.45 LIG 0.23  C 
BRANCH 65 66
ATOM     66  NZ  LYS B   1      16.168  30.379   9.237  1.00 70.72 LIG-0.08  N 
ATOM     67 HZ1  LYS B   1      16.039  31.024   8.638  1.00 70.72 LIG 0.27  HD
ATOM     68 HZ2  LYS B   1      16.931  30.528   9.672  1.00 70.72 LIG 0.27  HD
ATOM     69 HZ3  LYS B   1      16.212  29.594   8.821  1.00 70.72 LIG 0.27  HD
ENDBRANCH 65 66
ENDBRANCH 64 65
ENDBRANCH 63 64
ENDBRANCH 62 63
ENDBRANCH 57 62
ENDBRANCH 55 57
ENDBRANCH 48 50
ENDBRANCH 45 46
BRANCH 45 70
ATOM     70  CB  VAL B   3      19.907  24.656  15.626  1.00 30.17 LIG 0.01  C 
ATOM     71  CG1 VAL B   3      20.249  25.738  14.611  1.00 32.03 LIG 0.01  C 
ATOM     72  CG2 VAL B   3      20.437  25.018  17.001  1.00 31.22 LIG 0.01  C 
ENDBRANCH 45 70
ENDBRANCH 42 45
ENDBRANCH 1 41
TORSDOF 27
ENDMDL
MODEL 18
USER: ADFR SOLUTION from run 64
USER: SCORE 21.794072 LL:  -5.911 LR: -17.028 RR:   0.000 FEB:  -8.974
USER: RMSD 9.771002
USER: SEED 63
USER: STATUS 1 or 2 clusters left
USER: GENES 29
USER: genes 0 Translation |==|  0.52707 0.32928 0.52137
USER: genes 1 Rotation |==|  0.67889 0.44580 0.85431 0.79921
USER: genes 2 Torsion [N]-CA--C-[N] |==|  0.84584
USER: genes 3 Torsion [C]-N--CA-[C] |==|  0.79523
USER: genes 4 Torsion [N]-CA--CB-[CG] |==|  0.11731
USER: genes 5 Torsion [CA]-CB--CG-[CD] |==|  0.19560
USER: genes 6 Torsion [CB]-CG--CD-[NE] |==|  0.09177
USER: genes 7 Torsion [CG]-CD--NE-[HE] |==|  0.69047
USER: genes 8 Torsion [N]-CA--C-[N] |==|  0.96815
USER: genes 9 Torsion [C]-N--CA-[CB] |==|  0.83621
USER: genes 10 Torsion [N]-CA--C-[N] |==|  0.28047
USER: genes 11 Torsion [C]-N--CA-[CB] |==|  0.45926
USER: genes 12 Torsion [N]-CA--C-[OXT] |==|  0.88318
USER: genes 13 Torsion [N]-CA--CB-[CG2] |==|  0.86937
USER: genes 14 Torsion [CA]-CB--OG1-[HG1] |==|  0.80298
USER: genes 15 Torsion [C]-CA--CB-[CG] |==|  0.49936
USER: genes 16 Torsion [CA]-CB--CG-[CD2] |==|  0.28768
USER: genes 17 Torsion [C]-CA--N-[C] |==|  0.66377
USER: genes 18 Torsion [N]-C--CA-[N] |==|  0.43326
USER: genes 19 Torsion [C]-CA--N-[C] |==|  0.80868
USER: genes 20 Torsion [N]-C--CA-[CB] |==|  0.90136
USER: genes 21 Torsion [N]-C--CA-[N] |==|  0.27483
USER: genes 22 Torsion [C]-CA--N-[H1] |==|  0.75517
USER: genes 23 Torsion [C]-CA--CB-[CG] |==|  0.18130
USER: genes 24 Torsion [CA]-CB--CG-[CD] |==|  0.26610
USER: genes 25 Torsion [CB]-CG--CD-[CE] |==|  0.09664
USER: genes 26 Torsion [CG]-CD--CE-[NZ] |==|  0.73856
USER: genes 27 Torsion [CD]-CE--NZ-[HZ1] |==|  0.56988
USER: genes 28 Torsion [C]-CA--CB-[CG1] |==|  0.85993
ROOT
ATOM      1  CA  LEU B   4      17.446  20.050  16.779  1.00 33.70 LIG 0.18  C 
ENDROOT
BRANCH 1 2
ATOM      2  C   LEU B   4      18.866  19.547  16.544  1.00 36.59 LIG 0.24  C 
ATOM      3 O    LEU B   4      19.521  19.927  15.572  1.00 35.62 LIG-0.27  OA
ATOM      4  N   ARG B   5      19.336  18.690  17.443  1.00 30.50 LIG-0.35  N 
ATOM      5 H    ARG B   5      18.911  18.470  18.158  1.00 30.50 LIG 0.16  HD
BRANCH 4 6
ATOM      6  CA  ARG B   5      20.633  18.037  17.296  1.00 32.70 LIG 0.18  C 
BRANCH 6 7
ATOM      7  CB  ARG B   5      21.100  17.430  18.624  1.00 28.13 LIG 0.04  C 
BRANCH 7 8
ATOM      8  CG  ARG B   5      19.990  16.721  19.393  1.00 29.30 LIG 0.02  C 
BRANCH 8 9
ATOM      9  CD  ARG B   5      19.550  15.427  18.730  1.00 34.57 LIG 0.14  C 
BRANCH 9 10
ATOM     10  NE  ARG B   5      20.636  14.741  18.049  1.00 41.05 LIG-0.23  N 
ATOM     11 HE   ARG B   5      20.610  14.707  17.190  1.00 41.05 LIG 0.18  HD
ATOM     12  CZ  ARG B   5      21.668  14.164  18.659  1.00 43.39 LIG 0.67  C 
ATOM     13  NH2 ARG B   5      22.604  13.555  17.942  1.00 33.00 LIG-0.23  N 
ATOM     14  NH1 ARG B   5      21.766  14.192  19.980  1.00 41.15 LIG-0.23  N 
ATOM     15 1HH2 ARG B   5      22.543  13.534  17.085  1.00 33.00 LIG 0.17  HD
ATOM     16 2HH2 ARG B   5      23.272  13.181  18.335  1.00 33.00 LIG 0.17  HD
ATOM     17 2HH1 ARG B   5      22.435  13.818  20.370  1.00 41.15 LIG 0.17  HD
ATOM     18 1HH1 ARG B   5      21.160  14.585  20.449  1.00 41.15 LIG 0.17  HD
ENDBRANCH 9 10
ENDBRANCH 8 9
ENDBRANCH 7 8
ENDBRANCH 6 7
BRANCH 6 19
ATOM     19  C   ARG B   5      20.566  16.958  16.224  1.00 32.44 LIG 0.24  C 
ATOM     20 O    ARG B   5      21.601  16.432  15.815  1.00 30.81 LIG-0.27  OA
ATOM     21  N   THR B   6      19.358  16.615  15.777  1.00 35.68 LIG-0.34  N 
ATOM     22 H    THR B   6      18.616  16.898  16.105  1.00 35.68 LIG 0.16  HD
BRANCH 21 23
ATOM     23  CA  THR B   6      19.226  15.692  14.648  1.00 34.81 LIG 0.20  C 
BRANCH 23 24
ATOM     24  C   THR B   6      19.826  14.347  15.003  1.00 33.55 LIG 0.24  C 
ATOM     25 O    THR B   6      21.044  14.176  14.966  1.00 36.63 LIG-0.27  OA
ATOM     26  N   ALA B   7      18.967  13.394  15.346  1.00 35.45 LIG-0.34  N 
ATOM     27 H    ALA B   7      18.113  13.492  15.351  1.00 35.45 LIG 0.16  HD
BRANCH 26 28
ATOM     28  CA  ALA B   7      19.429  12.075  15.751  1.00 34.62 LIG 0.18  C 
ATOM     29  CB  ALA B   7      18.301  11.304  16.427  1.00 31.37 LIG 0.04  C 
BRANCH 28 30
ATOM     30  C   ALA B   7      19.984  11.288  14.567  1.00 35.30 LIG 0.20  C 
ATOM     31 OXT  ALA B   7      19.398  11.316  13.483  1.00 33.15 LIG-0.65  OA
ATOM     32 O    ALA B   7      21.008  10.604  14.668  1.00 30.65 LIG-0.65  OA
ENDBRANCH 28 30
ENDBRANCH 26 28
ENDBRANCH 23 24
BRANCH 23 33
ATOM     33  CB  THR B   6      19.910  16.181  13.356  1.00 40.55 LIG 0.15  C 
ATOM     34  CG2 THR B   6      19.543  17.622  13.101  1.00 29.01 LIG 0.04  C 
BRANCH 33 35
ATOM     35 OG1  THR B   6      21.338  16.025  13.441  1.00 38.86 LIG-0.39  OA
ATOM     36 HG1  THR B   6      21.649  16.584  13.986  1.00 38.86 LIG 0.21  HD
ENDBRANCH 33 35
ENDBRANCH 23 33
ENDBRANCH 21 23
ENDBRANCH 6 19
ENDBRANCH 4 6
ENDBRANCH 1 2
BRANCH 1 37
ATOM     37  CB  LEU B   4      17.413  20.906  18.050  1.00 31.55 LIG 0.04  C 
BRANCH 37 38
ATOM     38  CG  LEU B   4      16.115  21.559  18.543  1.00 40.70 LIG-0.02  C 
ATOM     39  CD2 LEU B   4      15.558  20.774  19.729  1.00 33.83 LIG 0.01  C 
ATOM     40  CD1 LEU B   4      15.058  21.728  17.443  1.00 30.33 LIG 0.01  C 
ENDBRANCH 37 38
ENDBRANCH 1 37
BRANCH 1 41
ATOM     41  N   LEU B   4      16.496  18.947  16.896  1.00 32.96 LIG-0.35  N 
ATOM     42  C   VAL B   3      15.455  18.815  16.081  1.00 32.71 LIG 0.24  C 
ATOM     43 O    VAL B   3      15.244  19.571  15.129  1.00 29.46 LIG-0.27  OA
ATOM     44 H    LEU B   4      16.672  18.399  17.534  1.00 32.96 LIG 0.16  HD
BRANCH 42 45
ATOM     45  CA  VAL B   3      14.496  17.667  16.385  1.00 32.18 LIG 0.18  C 
BRANCH 45 46
ATOM     46  N   VAL B   3      13.199  18.002  15.815  1.00 27.49 LIG-0.35  N 
ATOM     47 H    VAL B   3      12.970  17.514  15.145  1.00 27.49 LIG 0.16  HD
ATOM     48  C   PRO B   2      12.452  18.983  16.304  1.00 36.99 LIG 0.24  C 
ATOM     49 O    PRO B   2      12.678  19.539  17.381  1.00 37.97 LIG-0.27  OA
BRANCH 48 50
ATOM     50  CA  PRO B   2      11.270  19.413  15.449  1.00 42.38 LIG 0.18  C 
ATOM     51  CB  PRO B   2      11.653  19.313  13.974  1.00 38.27 LIG 0.04  C 
ATOM     52  CG  PRO B   2      12.196  20.662  13.642  1.00 37.96 LIG 0.02  C 
ATOM     53  CD  PRO B   2      11.377  21.638  14.451  1.00 39.69 LIG 0.13  C 
ATOM     54  N   PRO B   2      10.939  20.832  15.606  1.00 45.78 LIG-0.34  N 
ATOM     55  C   LYS B   1      10.345  21.321  16.706  1.00 52.29 LIG 0.25  C 
ATOM     56 O    LYS B   1      10.125  20.641  17.711  1.00 54.18 LIG-0.27  OA
BRANCH 55 57
ATOM     57  CA  LYS B   1       9.942  22.787  16.667  1.00 57.44 LIG 0.28  C 
BRANCH 57 58
ATOM     58  N   LYS B   1       8.522  22.931  16.353  1.00 70.48 LIG-0.07  N 
ATOM     59 H1   LYS B   1       8.415  22.962  15.470  1.00 70.48 LIG 0.28  HD
ATOM     60 H2   LYS B   1       8.072  22.236  16.682  1.00 70.48 LIG 0.28  HD
ATOM     61 H3   LYS B   1       8.212  23.682  16.715  1.00 70.48 LIG 0.28  HD
ENDBRANCH 57 58
BRANCH 57 62
ATOM     62  CB  LYS B   1      10.271  23.476  17.991  1.00 56.26 LIG 0.04  C 
BRANCH 62 63
ATOM     63  CG  LYS B   1      11.758  23.549  18.277  1.00 62.75 LIG 0.00  C 
BRANCH 63 64
ATOM     64  CD  LYS B   1      12.336  24.880  17.843  1.00 59.03 LIG 0.03  C 
BRANCH 64 65
ATOM     65  CE  LYS B   1      11.335  26.004  18.054  1.00 61.45 LIG 0.23  C 
BRANCH 65 66
ATOM     66  NZ  LYS B   1      10.543  26.275  16.817  1.00 70.72 LIG-0.08  N 
ATOM     67 HZ1  LYS B   1      10.252  27.116  16.829  1.00 70.72 LIG 0.27  HD
ATOM     68 HZ2  LYS B   1      11.057  26.150  16.101  1.00 70.72 LIG 0.27  HD
ATOM     69 HZ3  LYS B   1       9.847  25.721  16.783  1.00 70.72 LIG 0.27  HD
ENDBRANCH 65 66
ENDBRANCH 64 65
ENDBRANCH 63 64
ENDBRANCH 62 63
ENDBRANCH 57 62
ENDBRANCH 55 57
ENDBRANCH 48 50
ENDBRANCH 45 46
BRANCH 45 70
ATOM     70  CB  VAL B   3      15.046  16.353  15.803  1.00 30.17 LIG 0.01  C 
ATOM     71  CG1 VAL B   3      15.434  16.526  14.341  1.00 32.03 LIG 0.01  C 
ATOM     72  CG2 VAL B   3      16.231  15.878  16.623  1.00 31.22 LIG 0.01  C 
ENDBRANCH 45 70
ENDBRANCH 42 45
ENDBRANCH 1 41
TORSDOF 27
ENDMDL
MODEL 19
USER: ADFR SOLUTION from run 74
USER: SCORE 18.930538 LL:  -4.420 LR: -16.992 RR:   0.000 FEB:  -8.938
USER: RMSD 8.402234
USER: SEED 73
USER: STATUS no improvement in best in 10 clusters for 5 generations
USER: GENES 29
USER: genes 0 Translation |==|  0.53262 0.35318 0.50450
USER: genes 1 Rotation |==|  0.58353 0.03343 0.48381 0.65836
USER: genes 2 Torsion [N]-CA--C-[N] |==|  0.59999
USER: genes 3 Torsion [C]-N--CA-[C] |==|  0.59470
USER: genes 4 Torsion [N]-CA--CB-[CG] |==|  0.61366
USER: genes 5 Torsion [CA]-CB--CG-[CD] |==|  0.45074
USER: genes 6 Torsion [CB]-CG--CD-[NE] |==|  0.93081
USER: genes 7 Torsion [CG]-CD--NE-[HE] |==|  0.89044
USER: genes 8 Torsion [N]-CA--C-[N] |==|  0.05951
USER: genes 9 Torsion [C]-N--CA-[CB] |==|  0.20080
USER: genes 10 Torsion [N]-CA--C-[N] |==|  0.41850
USER: genes 11 Torsion [C]-N--CA-[CB] |==|  0.18287
USER: genes 12 Torsion [N]-CA--C-[OXT] |==|  0.02646
USER: genes 13 Torsion [N]-CA--CB-[CG2] |==|  0.14558
USER: genes 14 Torsion [CA]-CB--OG1-[HG1] |==|  0.21836
USER: genes 15 Torsion [C]-CA--CB-[CG] |==|  0.74340
USER: genes 16 Torsion [CA]-CB--CG-[CD2] |==|  0.52418
USER: genes 17 Torsion [C]-CA--N-[C] |==|  0.57393
USER: genes 18 Torsion [N]-C--CA-[N] |==|  0.37371
USER: genes 19 Torsion [C]-CA--N-[C] |==|  0.63678
USER: genes 20 Torsion [N]-C--CA-[CB] |==|  0.83341
USER: genes 21 Torsion [N]-C--CA-[N] |==|  0.82825
USER: genes 22 Torsion [C]-CA--N-[H1] |==|  0.81079
USER: genes 23 Torsion [C]-CA--CB-[CG] |==|  0.65618
USER: genes 24 Torsion [CA]-CB--CG-[CD] |==|  0.37083
USER: genes 25 Torsion [CB]-CG--CD-[CE] |==|  0.56424
USER: genes 26 Torsion [CG]-CD--CE-[NZ] |==|  0.20042
USER: genes 27 Torsion [CD]-CE--NZ-[HZ1] |==|  0.18465
USER: genes 28 Torsion [C]-CA--CB-[CG1] |==|  0.07127
ROOT
ATOM      1  CA  LEU B   4      17.554  20.821  16.513  1.00 33.70 LIG 0.18  C 
ENDROOT
BRANCH 1 2
ATOM      2  C   LEU B   4      17.949  19.807  15.444  1.00 36.59 LIG 0.24  C 
ATOM      3 O    LEU B   4      18.791  20.084  14.588  1.00 35.62 LIG-0.27  OA
ATOM      4  N   ARG B   5      17.336  18.630  15.503  1.00 30.50 LIG-0.35  N 
ATOM      5 H    ARG B   5      16.797  18.406  16.134  1.00 30.50 LIG 0.16  HD
BRANCH 4 6
ATOM      6  CA  ARG B   5      17.527  17.599  14.488  1.00 32.70 LIG 0.18  C 
BRANCH 6 7
ATOM      7  CB  ARG B   5      18.668  16.651  14.870  1.00 28.13 LIG 0.04  C 
BRANCH 7 8
ATOM      8  CG  ARG B   5      19.561  16.268  13.695  1.00 29.30 LIG 0.02  C 
BRANCH 8 9
ATOM      9  CD  ARG B   5      20.900  15.701  14.134  1.00 34.57 LIG 0.14  C 
BRANCH 9 10
ATOM     10  NE  ARG B   5      21.299  16.150  15.459  1.00 41.05 LIG-0.23  N 
ATOM     11 HE   ARG B   5      21.139  16.968  15.668  1.00 41.05 LIG 0.18  HD
ATOM     12  CZ  ARG B   5      21.893  15.383  16.370  1.00 43.39 LIG 0.67  C 
ATOM     13  NH2 ARG B   5      22.225  15.895  17.549  1.00 33.00 LIG-0.23  N 
ATOM     14  NH1 ARG B   5      22.159  14.112  16.106  1.00 41.15 LIG-0.23  N 
ATOM     15 1HH2 ARG B   5      22.055  16.719  17.723  1.00 33.00 LIG 0.17  HD
ATOM     16 2HH2 ARG B   5      22.610  15.401  18.139  1.00 33.00 LIG 0.17  HD
ATOM     17 2HH1 ARG B   5      22.543  13.621  16.699  1.00 41.15 LIG 0.17  HD
ATOM     18 1HH1 ARG B   5      21.946  13.777  15.343  1.00 41.15 LIG 0.17  HD
ENDBRANCH 9 10
ENDBRANCH 8 9
ENDBRANCH 7 8
ENDBRANCH 6 7
BRANCH 6 19
ATOM     19  C   ARG B   5      16.240  16.812  14.283  1.00 32.44 LIG 0.24  C 
ATOM     20 O    ARG B   5      16.281  15.680  13.802  1.00 30.81 LIG-0.27  OA
ATOM     21  N   THR B   6      15.101  17.395  14.657  1.00 35.68 LIG-0.34  N 
ATOM     22 H    THR B   6      15.048  18.143  15.077  1.00 35.68 LIG 0.16  HD
BRANCH 21 23
ATOM     23  CA  THR B   6      13.816  16.759  14.359  1.00 34.81 LIG 0.20  C 
BRANCH 23 24
ATOM     24  C   THR B   6      12.685  17.743  14.582  1.00 33.55 LIG 0.24  C 
ATOM     25 O    THR B   6      12.791  18.638  15.420  1.00 36.63 LIG-0.27  OA
ATOM     26  N   ALA B   7      11.603  17.573  13.833  1.00 35.45 LIG-0.34  N 
ATOM     27 H    ALA B   7      11.505  16.936  13.262  1.00 35.45 LIG 0.16  HD
BRANCH 26 28
ATOM     28  CA  ALA B   7      10.471  18.482  13.927  1.00 34.62 LIG 0.18  C 
ATOM     29  CB  ALA B   7      10.866  19.872  13.442  1.00 31.37 LIG 0.04  C 
BRANCH 28 30
ATOM     30  C   ALA B   7       9.268  17.962  13.145  1.00 35.30 LIG 0.20  C 
ATOM     31 OXT  ALA B   7       9.281  16.818  12.689  1.00 33.15 LIG-0.65  OA
ATOM     32 O    ALA B   7       8.274  18.668  12.943  1.00 30.65 LIG-0.65  OA
ENDBRANCH 28 30
ENDBRANCH 26 28
ENDBRANCH 23 24
BRANCH 23 33
ATOM     33  CB  THR B   6      13.522  15.510  15.212  1.00 40.55 LIG 0.15  C 
ATOM     34  CG2 THR B   6      13.684  15.845  16.674  1.00 29.01 LIG 0.04  C 
BRANCH 33 35
ATOM     35 OG1  THR B   6      12.200  15.007  14.947  1.00 38.86 LIG-0.39  OA
ATOM     36 HG1  THR B   6      12.203  14.572  14.229  1.00 38.86 LIG 0.21  HD
ENDBRANCH 33 35
ENDBRANCH 23 33
ENDBRANCH 21 23
ENDBRANCH 6 19
ENDBRANCH 4 6
ENDBRANCH 1 2
BRANCH 1 37
ATOM     37  CB  LEU B   4      16.171  20.462  17.068  1.00 31.55 LIG 0.04  C 
BRANCH 37 38
ATOM     38  CG  LEU B   4      14.889  21.063  16.476  1.00 40.70 LIG-0.02  C 
ATOM     39  CD2 LEU B   4      13.693  20.702  17.354  1.00 33.83 LIG 0.01  C 
ATOM     40  CD1 LEU B   4      14.645  20.666  15.014  1.00 30.33 LIG 0.01  C 
ENDBRANCH 37 38
ENDBRANCH 1 37
BRANCH 1 41
ATOM     41  N   LEU B   4      17.540  22.183  15.984  1.00 32.96 LIG-0.35  N 
ATOM     42  C   VAL B   3      17.741  23.247  16.754  1.00 32.71 LIG 0.24  C 
ATOM     43 O    VAL B   3      18.014  23.168  17.954  1.00 29.46 LIG-0.27  OA
ATOM     44 H    LEU B   4      17.392  22.229  15.138  1.00 32.96 LIG 0.16  HD
BRANCH 42 45
ATOM     45  CA  VAL B   3      17.602  24.608  16.079  1.00 32.18 LIG 0.18  C 
BRANCH 45 46
ATOM     46  N   VAL B   3      16.808  25.463  16.951  1.00 27.49 LIG-0.35  N 
ATOM     47 H    VAL B   3      17.069  25.472  17.770  1.00 27.49 LIG 0.16  HD
ATOM     48  C   PRO B   2      15.774  26.159  16.496  1.00 36.99 LIG 0.24  C 
ATOM     49 O    PRO B   2      15.531  26.311  15.297  1.00 37.97 LIG-0.27  OA
BRANCH 48 50
ATOM     50  CA  PRO B   2      14.867  26.775  17.550  1.00 42.38 LIG 0.18  C 
ATOM     51  CB  PRO B   2      14.285  25.665  18.424  1.00 38.27 LIG 0.04  C 
ATOM     52  CG  PRO B   2      13.007  25.297  17.749  1.00 37.96 LIG 0.02  C 
ATOM     53  CD  PRO B   2      12.461  26.586  17.186  1.00 39.69 LIG 0.13  C 
ATOM     54  N   PRO B   2      13.672  27.401  16.977  1.00 45.78 LIG-0.34  N 
ATOM     55  C   LYS B   1      13.714  28.564  16.307  1.00 52.29 LIG 0.25  C 
ATOM     56 O    LYS B   1      14.766  29.143  16.028  1.00 54.18 LIG-0.27  OA
BRANCH 55 57
ATOM     57  CA  LYS B   1      12.377  29.157  15.891  1.00 57.44 LIG 0.28  C 
BRANCH 57 58
ATOM     58  N   LYS B   1      11.668  28.262  14.979  1.00 70.48 LIG-0.07  N 
ATOM     59 H1   LYS B   1      12.103  28.222  14.204  1.00 70.48 LIG 0.28  HD
ATOM     60 H2   LYS B   1      11.624  27.447  15.336  1.00 70.48 LIG 0.28  HD
ATOM     61 H3   LYS B   1      10.845  28.569  14.841  1.00 70.48 LIG 0.28  HD
ENDBRANCH 57 58
BRANCH 57 62
ATOM     62  CB  LYS B   1      11.516  29.468  17.115  1.00 56.26 LIG 0.04  C 
BRANCH 62 63
ATOM     63  CG  LYS B   1      10.160  28.790  17.083  1.00 62.75 LIG 0.00  C 
BRANCH 63 64
ATOM     64  CD  LYS B   1       9.843  28.135  18.412  1.00 59.03 LIG 0.03  C 
BRANCH 64 65
ATOM     65  CE  LYS B   1       8.822  27.021  18.241  1.00 61.45 LIG 0.23  C 
BRANCH 65 66
ATOM     66  NZ  LYS B   1       9.417  25.828  17.567  1.00 70.72 LIG-0.08  N 
ATOM     67 HZ1  LYS B   1      10.029  25.462  18.098  1.00 70.72 LIG 0.27  HD
ATOM     68 HZ2  LYS B   1       8.777  25.233  17.397  1.00 70.72 LIG 0.27  HD
ATOM     69 HZ3  LYS B   1       9.800  26.079  16.803  1.00 70.72 LIG 0.27  HD
ENDBRANCH 65 66
ENDBRANCH 64 65
ENDBRANCH 63 64
ENDBRANCH 62 63
ENDBRANCH 57 62
ENDBRANCH 55 57
ENDBRANCH 48 50
ENDBRANCH 45 46
BRANCH 45 70
ATOM     70  CB  VAL B   3      18.994  25.210  15.815  1.00 30.17 LIG 0.01  C 
ATOM     71  CG1 VAL B   3      20.045  24.115  15.692  1.00 32.03 LIG 0.01  C 
ATOM     72  CG2 VAL B   3      18.959  26.067  14.563  1.00 31.22 LIG 0.01  C 
ENDBRANCH 45 70
ENDBRANCH 42 45
ENDBRANCH 1 41
TORSDOF 27
ENDMDL
MODEL 20
USER: ADFR SOLUTION from run 108
USER: SCORE 22.020778 LL:  -5.909 LR: -16.995 RR:   0.000 FEB:  -8.941
USER: RMSD 6.928689
USER: SEED 107
USER: STATUS 1 or 2 clusters left
USER: GENES 29
USER: genes 0 Translation |==|  0.64534 0.31372 0.52340
USER: genes 1 Rotation |==|  0.64314 0.24242 0.40760 0.89323
USER: genes 2 Torsion [N]-CA--C-[N] |==|  0.44393
USER: genes 3 Torsion [C]-N--CA-[C] |==|  0.81837
USER: genes 4 Torsion [N]-CA--CB-[CG] |==|  0.20435
USER: genes 5 Torsion [CA]-CB--CG-[CD] |==|  0.79253
USER: genes 6 Torsion [CB]-CG--CD-[NE] |==|  0.48234
USER: genes 7 Torsion [CG]-CD--NE-[HE] |==|  0.28627
USER: genes 8 Torsion [N]-CA--C-[N] |==|  0.97504
USER: genes 9 Torsion [C]-N--CA-[CB] |==|  0.89278
USER: genes 10 Torsion [N]-CA--C-[N] |==|  0.89866
USER: genes 11 Torsion [C]-N--CA-[CB] |==|  0.15954
USER: genes 12 Torsion [N]-CA--C-[OXT] |==|  0.61963
USER: genes 13 Torsion [N]-CA--CB-[CG2] |==|  0.51941
USER: genes 14 Torsion [CA]-CB--OG1-[HG1] |==|  0.99834
USER: genes 15 Torsion [C]-CA--CB-[CG] |==|  0.23248
USER: genes 16 Torsion [CA]-CB--CG-[CD2] |==|  0.53233
USER: genes 17 Torsion [C]-CA--N-[C] |==|  0.82637
USER: genes 18 Torsion [N]-C--CA-[N] |==|  0.47222
USER: genes 19 Torsion [C]-CA--N-[C] |==|  0.62887
USER: genes 20 Torsion [N]-C--CA-[CB] |==|  0.65775
USER: genes 21 Torsion [N]-C--CA-[N] |==|  0.37405
USER: genes 22 Torsion [C]-CA--N-[H1] |==|  0.34395
USER: genes 23 Torsion [C]-CA--CB-[CG] |==|  0.89066
USER: genes 24 Torsion [CA]-CB--CG-[CD] |==|  0.59412
USER: genes 25 Torsion [CB]-CG--CD-[CE] |==|  0.23791
USER: genes 26 Torsion [CG]-CD--CE-[NZ] |==|  0.33434
USER: genes 27 Torsion [CD]-CE--NZ-[HZ1] |==|  0.68100
USER: genes 28 Torsion [C]-CA--CB-[CG1] |==|  0.93437
ROOT
ATOM      1  CA  LEU B   4      19.752  19.549  16.811  1.00 33.70 LIG 0.18  C 
ENDROOT
BRANCH 1 2
ATOM      2  C   LEU B   4      18.921  18.757  15.806  1.00 36.59 LIG 0.24  C 
ATOM      3 O    LEU B   4      17.719  18.982  15.660  1.00 35.62 LIG-0.27  OA
ATOM      4  N   ARG B   5      19.573  17.829  15.114  1.00 30.50 LIG-0.35  N 
ATOM      5 H    ARG B   5      20.423  17.710  15.162  1.00 30.50 LIG 0.16  HD
BRANCH 4 6
ATOM      6  CA  ARG B   5      18.895  16.918  14.197  1.00 32.70 LIG 0.18  C 
BRANCH 6 7
ATOM      7  CB  ARG B   5      19.904  16.089  13.395  1.00 28.13 LIG 0.04  C 
BRANCH 7 8
ATOM      8  CG  ARG B   5      20.584  14.998  14.215  1.00 29.30 LIG 0.02  C 
BRANCH 8 9
ATOM      9  CD  ARG B   5      21.633  15.545  15.167  1.00 34.57 LIG 0.14  C 
BRANCH 9 10
ATOM     10  NE  ARG B   5      22.179  14.530  16.053  1.00 41.05 LIG-0.23  N 
ATOM     11 HE   ARG B   5      22.960  14.220  15.872  1.00 41.05 LIG 0.18  HD
ATOM     12  CZ  ARG B   5      21.555  14.046  17.124  1.00 43.39 LIG 0.67  C 
ATOM     13  NH2 ARG B   5      22.139  13.111  17.863  1.00 33.00 LIG-0.23  N 
ATOM     14  NH1 ARG B   5      20.352  14.491  17.457  1.00 41.15 LIG-0.23  N 
ATOM     15 1HH2 ARG B   5      22.919  12.819  17.650  1.00 33.00 LIG 0.17  HD
ATOM     16 2HH2 ARG B   5      21.738  12.797  18.556  1.00 33.00 LIG 0.17  HD
ATOM     17 2HH1 ARG B   5      19.953  14.175  18.151  1.00 41.15 LIG 0.17  HD
ATOM     18 1HH1 ARG B   5      19.970  15.096  16.980  1.00 41.15 LIG 0.17  HD
ENDBRANCH 9 10
ENDBRANCH 8 9
ENDBRANCH 7 8
ENDBRANCH 6 7
BRANCH 6 19
ATOM     19  C   ARG B   5      17.954  15.998  14.963  1.00 32.44 LIG 0.24  C 
ATOM     20 O    ARG B   5      17.180  15.262  14.351  1.00 30.81 LIG-0.27  OA
ATOM     21  N   THR B   6      18.024  16.022  16.294  1.00 35.68 LIG-0.34  N 
ATOM     22 H    THR B   6      18.614  16.456  16.746  1.00 35.68 LIG 0.16  HD
BRANCH 21 23
ATOM     23  CA  THR B   6      17.055  15.274  17.097  1.00 34.81 LIG 0.20  C 
BRANCH 23 24
ATOM     24  C   THR B   6      17.475  13.822  17.198  1.00 33.55 LIG 0.24  C 
ATOM     25 O    THR B   6      17.293  13.189  18.238  1.00 36.63 LIG-0.27  OA
ATOM     26  N   ALA B   7      18.040  13.298  16.117  1.00 35.45 LIG-0.34  N 
ATOM     27 H    ALA B   7      18.197  13.735  15.394  1.00 35.45 LIG 0.16  HD
BRANCH 26 28
ATOM     28  CA  ALA B   7      18.444  11.900  16.081  1.00 34.62 LIG 0.18  C 
ATOM     29  CB  ALA B   7      17.251  10.997  16.368  1.00 31.37 LIG 0.04  C 
BRANCH 28 30
ATOM     30  C   ALA B   7      19.085  11.537  14.745  1.00 35.30 LIG 0.20  C 
ATOM     31 OXT  ALA B   7      18.792  10.475  14.192  1.00 33.15 LIG-0.65  OA
ATOM     32 O    ALA B   7      19.910  12.279  14.200  1.00 30.65 LIG-0.65  OA
ENDBRANCH 28 30
ENDBRANCH 26 28
ENDBRANCH 23 24
BRANCH 23 33
ATOM     33  CB  THR B   6      15.620  15.305  16.535  1.00 40.55 LIG 0.15  C 
ATOM     34  CG2 THR B   6      14.676  14.656  17.518  1.00 29.01 LIG 0.04  C 
BRANCH 33 35
ATOM     35 OG1  THR B   6      15.209  16.655  16.249  1.00 38.86 LIG-0.39  OA
ATOM     36 HG1  THR B   6      15.829  17.185  16.450  1.00 38.86 LIG 0.21  HD
ENDBRANCH 33 35
ENDBRANCH 23 33
ENDBRANCH 21 23
ENDBRANCH 6 19
ENDBRANCH 4 6
ENDBRANCH 1 2
BRANCH 1 37
ATOM     37  CB  LEU B   4      19.969  18.703  18.071  1.00 31.55 LIG 0.04  C 
BRANCH 37 38
ATOM     38  CG  LEU B   4      21.096  17.665  18.155  1.00 40.70 LIG-0.02  C 
ATOM     39  CD2 LEU B   4      20.899  16.784  19.387  1.00 33.83 LIG 0.01  C 
ATOM     40  CD1 LEU B   4      22.501  18.283  18.132  1.00 30.33 LIG 0.01  C 
ENDBRANCH 37 38
ENDBRANCH 1 37
BRANCH 1 41
ATOM     41  N   LEU B   4      19.110  20.812  17.163  1.00 32.96 LIG-0.35  N 
ATOM     42  C   VAL B   3      18.879  21.767  16.269  1.00 32.71 LIG 0.24  C 
ATOM     43 O    VAL B   3      19.129  21.640  15.068  1.00 29.46 LIG-0.27  OA
ATOM     44 H    LEU B   4      18.898  20.878  17.994  1.00 32.96 LIG 0.16  HD
BRANCH 42 45
ATOM     45  CA  VAL B   3      18.288  23.069  16.803  1.00 32.18 LIG 0.18  C 
BRANCH 45 46
ATOM     46  N   VAL B   3      18.333  24.055  15.733  1.00 27.49 LIG-0.35  N 
ATOM     47 H    VAL B   3      18.055  23.766  14.973  1.00 27.49 LIG 0.16  HD
ATOM     48  C   PRO B   2      18.772  25.290  15.938  1.00 36.99 LIG 0.24  C 
ATOM     49 O    PRO B   2      18.971  25.765  17.059  1.00 37.97 LIG-0.27  OA
BRANCH 48 50
ATOM     50  CA  PRO B   2      19.036  26.121  14.692  1.00 42.38 LIG 0.18  C 
ATOM     51  CB  PRO B   2      20.486  26.603  14.707  1.00 38.27 LIG 0.04  C 
ATOM     52  CG  PRO B   2      20.428  27.924  15.398  1.00 37.96 LIG 0.02  C 
ATOM     53  CD  PRO B   2      19.119  28.545  14.976  1.00 39.69 LIG 0.13  C 
ATOM     54  N   PRO B   2      18.275  27.374  14.672  1.00 45.78 LIG-0.34  N 
ATOM     55  C   LYS B   1      16.953  27.415  14.442  1.00 52.29 LIG 0.25  C 
ATOM     56 O    LYS B   1      16.257  26.403  14.335  1.00 54.18 LIG-0.27  OA
BRANCH 55 57
ATOM     57  CA  LYS B   1      16.327  28.796  14.316  1.00 57.44 LIG 0.28  C 
BRANCH 57 58
ATOM     58  N   LYS B   1      15.419  28.856  13.172  1.00 70.48 LIG-0.07  N 
ATOM     59 H1   LYS B   1      14.613  29.113  13.446  1.00 70.48 LIG 0.28  HD
ATOM     60 H2   LYS B   1      15.730  29.440  12.576  1.00 70.48 LIG 0.28  HD
ATOM     61 H3   LYS B   1      15.362  28.052  12.796  1.00 70.48 LIG 0.28  HD
ENDBRANCH 57 58
BRANCH 57 62
ATOM     62  CB  LYS B   1      15.596  29.180  15.602  1.00 56.26 LIG 0.04  C 
BRANCH 62 63
ATOM     63  CG  LYS B   1      14.846  28.024  16.234  1.00 62.75 LIG 0.00  C 
BRANCH 63 64
ATOM     64  CD  LYS B   1      13.574  28.498  16.908  1.00 59.03 LIG 0.03  C 
BRANCH 64 65
ATOM     65  CE  LYS B   1      12.426  28.572  15.915  1.00 61.45 LIG 0.23  C 
BRANCH 65 66
ATOM     66  NZ  LYS B   1      11.293  27.686  16.317  1.00 70.72 LIG-0.08  N 
ATOM     67 HZ1  LYS B   1      11.194  27.039  15.715  1.00 70.72 LIG 0.27  HD
ATOM     68 HZ2  LYS B   1      11.465  27.326  17.113  1.00 70.72 LIG 0.27  HD
ATOM     69 HZ3  LYS B   1      10.544  28.164  16.364  1.00 70.72 LIG 0.27  HD
ENDBRANCH 65 66
ENDBRANCH 64 65
ENDBRANCH 63 64
ENDBRANCH 62 63
ENDBRANCH 57 62
ENDBRANCH 55 57
ENDBRANCH 48 50
ENDBRANCH 45 46
BRANCH 45 70
ATOM     70  CB  VAL B   3      16.848  22.832  17.292  1.00 30.17 LIG 0.01  C 
ATOM     71  CG1 VAL B   3      16.235  21.617  16.609  1.00 32.03 LIG 0.01  C 
ATOM     72  CG2 VAL B   3      16.832  22.669  18.800  1.00 31.22 LIG 0.01  C 
ENDBRANCH 45 70
ENDBRANCH 42 45
ENDBRANCH 1 41
TORSDOF 27
ENDMDL
MODEL 21
USER: ADFR SOLUTION from run 179
USER: SCORE 21.321207 LL:  -5.642 LR: -16.944 RR:   0.000 FEB:  -8.890
USER: RMSD 10.816811
USER: SEED 178
USER: STATUS 1 or 2 clusters left
USER: GENES 29
USER: genes 0 Translation |==|  0.51842 0.33724 0.47330
USER: genes 1 Rotation |==|  0.62466 0.56645 0.84963 0.82834
USER: genes 2 Torsion [N]-CA--C-[N] |==|  0.83231
USER: genes 3 Torsion [C]-N--CA-[C] |==|  0.74250
USER: genes 4 Torsion [N]-CA--CB-[CG] |==|  0.10812
USER: genes 5 Torsion [CA]-CB--CG-[CD] |==|  0.26829
USER: genes 6 Torsion [CB]-CG--CD-[NE] |==|  0.21200
USER: genes 7 Torsion [CG]-CD--NE-[HE] |==|  0.24654
USER: genes 8 Torsion [N]-CA--C-[N] |==|  0.37296
USER: genes 9 Torsion [C]-N--CA-[CB] |==|  0.86800
USER: genes 10 Torsion [N]-CA--C-[N] |==|  0.39147
USER: genes 11 Torsion [C]-N--CA-[CB] |==|  0.14962
USER: genes 12 Torsion [N]-CA--C-[OXT] |==|  0.92210
USER: genes 13 Torsion [N]-CA--CB-[CG2] |==|  0.33111
USER: genes 14 Torsion [CA]-CB--OG1-[HG1] |==|  0.88087
USER: genes 15 Torsion [C]-CA--CB-[CG] |==|  0.15691
USER: genes 16 Torsion [CA]-CB--CG-[CD2] |==|  0.72309
USER: genes 17 Torsion [C]-CA--N-[C] |==|  0.21122
USER: genes 18 Torsion [N]-C--CA-[N] |==|  0.05000
USER: genes 19 Torsion [C]-CA--N-[C] |==|  0.75427
USER: genes 20 Torsion [N]-C--CA-[CB] |==|  0.88869
USER: genes 21 Torsion [N]-C--CA-[N] |==|  0.31939
USER: genes 22 Torsion [C]-CA--N-[H1] |==|  0.08930
USER: genes 23 Torsion [C]-CA--CB-[CG] |==|  0.36142
USER: genes 24 Torsion [CA]-CB--CG-[CD] |==|  0.56218
USER: genes 25 Torsion [CB]-CG--CD-[CE] |==|  0.60691
USER: genes 26 Torsion [CG]-CD--CE-[NZ] |==|  0.37963
USER: genes 27 Torsion [CD]-CE--NZ-[HZ1] |==|  0.66234
USER: genes 28 Torsion [C]-CA--CB-[CG1] |==|  0.24679
ROOT
ATOM      1  CA  LEU B   4      17.277  20.307  16.022  1.00 33.70 LIG 0.18  C 
ENDROOT
BRANCH 1 2
ATOM      2  C   LEU B   4      18.694  19.773  15.835  1.00 36.59 LIG 0.24  C 
ATOM      3 O    LEU B   4      19.142  19.545  14.710  1.00 35.62 LIG-0.27  OA
ATOM      4  N   ARG B   5      19.394  19.578  16.947  1.00 30.50 LIG-0.35  N 
ATOM      5 H    ARG B   5      19.112  19.795  17.730  1.00 30.50 LIG 0.16  HD
BRANCH 4 6
ATOM      6  CA  ARG B   5      20.720  18.969  16.938  1.00 32.70 LIG 0.18  C 
BRANCH 6 7
ATOM      7  CB  ARG B   5      21.619  19.588  18.013  1.00 28.13 LIG 0.04  C 
BRANCH 7 8
ATOM      8  CG  ARG B   5      20.890  19.887  19.319  1.00 29.30 LIG 0.02  C 
BRANCH 8 9
ATOM      9  CD  ARG B   5      21.062  18.788  20.353  1.00 34.57 LIG 0.14  C 
BRANCH 9 10
ATOM     10  NE  ARG B   5      22.367  18.810  20.992  1.00 41.05 LIG-0.23  N 
ATOM     11 HE   ARG B   5      22.458  19.293  21.697  1.00 41.05 LIG 0.18  HD
ATOM     12  CZ  ARG B   5      23.431  18.135  20.564  1.00 43.39 LIG 0.67  C 
ATOM     13  NH2 ARG B   5      24.582  18.232  21.217  1.00 33.00 LIG-0.23  N 
ATOM     14  NH1 ARG B   5      23.349  17.368  19.486  1.00 41.15 LIG-0.23  N 
ATOM     15 1HH2 ARG B   5      24.640  18.730  21.916  1.00 33.00 LIG 0.17  HD
ATOM     16 2HH2 ARG B   5      25.272  17.797  20.941  1.00 33.00 LIG 0.17  HD
ATOM     17 2HH1 ARG B   5      24.040  16.934  19.214  1.00 41.15 LIG 0.17  HD
ATOM     18 1HH1 ARG B   5      22.605  17.304  19.060  1.00 41.15 LIG 0.17  HD
ENDBRANCH 9 10
ENDBRANCH 8 9
ENDBRANCH 7 8
ENDBRANCH 6 7
BRANCH 6 19
ATOM     19  C   ARG B   5      20.615  17.465  17.147  1.00 32.44 LIG 0.24  C 
ATOM     20 O    ARG B   5      19.872  17.015  18.020  1.00 30.81 LIG-0.27  OA
ATOM     21  N   THR B   6      21.338  16.684  16.344  1.00 35.68 LIG-0.34  N 
ATOM     22 H    THR B   6      21.793  16.962  15.670  1.00 35.68 LIG 0.16  HD
BRANCH 21 23
ATOM     23  CA  THR B   6      21.398  15.240  16.580  1.00 34.81 LIG 0.20  C 
BRANCH 23 24
ATOM     24  C   THR B   6      20.088  14.593  16.178  1.00 33.55 LIG 0.24  C 
ATOM     25 O    THR B   6      19.017  15.152  16.412  1.00 36.63 LIG-0.27  OA
ATOM     26  N   ALA B   7      20.177  13.414  15.576  1.00 35.45 LIG-0.34  N 
ATOM     27 H    ALA B   7      20.917  13.000  15.430  1.00 35.45 LIG 0.16  HD
BRANCH 26 28
ATOM     28  CA  ALA B   7      18.989  12.717  15.104  1.00 34.62 LIG 0.18  C 
ATOM     29  CB  ALA B   7      18.171  13.624  14.193  1.00 31.37 LIG 0.04  C 
BRANCH 28 30
ATOM     30  C   ALA B   7      19.349  11.419  14.388  1.00 35.30 LIG 0.20  C 
ATOM     31 OXT  ALA B   7      20.436  11.313  13.817  1.00 33.15 LIG-0.65  OA
ATOM     32 O    ALA B   7      18.566  10.463  14.350  1.00 30.65 LIG-0.65  OA
ENDBRANCH 28 30
ENDBRANCH 26 28
ENDBRANCH 23 24
BRANCH 23 33
ATOM     33  CB  THR B   6      21.676  14.856  18.047  1.00 40.55 LIG 0.15  C 
ATOM     34  CG2 THR B   6      20.523  14.045  18.586  1.00 29.01 LIG 0.04  C 
BRANCH 33 35
ATOM     35 OG1  THR B   6      22.911  14.126  18.161  1.00 38.86 LIG-0.39  OA
ATOM     36 HG1  THR B   6      22.962  13.563  17.539  1.00 38.86 LIG 0.21  HD
ENDBRANCH 33 35
ENDBRANCH 23 33
ENDBRANCH 21 23
ENDBRANCH 6 19
ENDBRANCH 4 6
ENDBRANCH 1 2
BRANCH 1 37
ATOM     37  CB  LEU B   4      17.336  21.681  16.699  1.00 31.55 LIG 0.04  C 
BRANCH 37 38
ATOM     38  CG  LEU B   4      18.141  22.839  16.094  1.00 40.70 LIG-0.02  C 
ATOM     39  CD2 LEU B   4      19.487  22.962  16.804  1.00 33.83 LIG 0.01  C 
ATOM     40  CD1 LEU B   4      17.387  24.175  16.095  1.00 30.33 LIG 0.01  C 
ENDBRANCH 37 38
ENDBRANCH 1 37
BRANCH 1 41
ATOM     41  N   LEU B   4      16.458  19.395  16.816  1.00 32.96 LIG-0.35  N 
ATOM     42  C   VAL B   3      16.582  19.293  18.135  1.00 32.71 LIG 0.24  C 
ATOM     43 O    VAL B   3      17.348  19.998  18.796  1.00 29.46 LIG-0.27  OA
ATOM     44 H    LEU B   4      15.896  18.936  16.354  1.00 32.96 LIG 0.16  HD
BRANCH 42 45
ATOM     45  CA  VAL B   3      15.726  18.229  18.816  1.00 32.18 LIG 0.18  C 
BRANCH 45 46
ATOM     46  N   VAL B   3      15.285  17.287  17.798  1.00 27.49 LIG-0.35  N 
ATOM     47 H    VAL B   3      15.807  16.613  17.689  1.00 27.49 LIG 0.16  HD
ATOM     48  C   PRO B   2      14.167  17.476  17.108  1.00 36.99 LIG 0.24  C 
ATOM     49 O    PRO B   2      13.318  18.319  17.404  1.00 37.97 LIG-0.27  OA
BRANCH 48 50
ATOM     50  CA  PRO B   2      13.974  16.583  15.892  1.00 42.38 LIG 0.18  C 
ATOM     51  CB  PRO B   2      15.309  16.424  15.167  1.00 38.27 LIG 0.04  C 
ATOM     52  CG  PRO B   2      15.322  17.533  14.169  1.00 37.96 LIG 0.02  C 
ATOM     53  CD  PRO B   2      13.891  17.683  13.714  1.00 39.69 LIG 0.13  C 
ATOM     54  N   PRO B   2      13.117  17.191  14.869  1.00 45.78 LIG-0.34  N 
ATOM     55  C   LYS B   1      11.788  17.311  15.016  1.00 52.29 LIG 0.25  C 
ATOM     56 O    LYS B   1      11.196  17.020  16.057  1.00 54.18 LIG-0.27  OA
BRANCH 55 57
ATOM     57  CA  LYS B   1      11.017  17.838  13.814  1.00 57.44 LIG 0.28  C 
BRANCH 57 58
ATOM     58  N   LYS B   1      10.110  16.820  13.288  1.00 70.48 LIG-0.07  N 
ATOM     59 H1   LYS B   1       9.820  16.307  13.955  1.00 70.48 LIG 0.28  HD
ATOM     60 H2   LYS B   1       9.416  17.214  12.894  1.00 70.48 LIG 0.28  HD
ATOM     61 H3   LYS B   1      10.541  16.317  12.694  1.00 70.48 LIG 0.28  HD
ENDBRANCH 57 58
BRANCH 57 62
ATOM     62  CB  LYS B   1      10.246  19.107  14.178  1.00 56.26 LIG 0.04  C 
BRANCH 62 63
ATOM     63  CG  LYS B   1      10.469  20.245  13.201  1.00 62.75 LIG 0.00  C 
BRANCH 63 64
ATOM     64  CD  LYS B   1      10.168  21.584  13.842  1.00 59.03 LIG 0.03  C 
BRANCH 64 65
ATOM     65  CE  LYS B   1       9.480  22.517  12.859  1.00 61.45 LIG 0.23  C 
BRANCH 65 66
ATOM     66  NZ  LYS B   1       8.343  23.247  13.495  1.00 70.72 LIG-0.08  N 
ATOM     67 HZ1  LYS B   1       7.592  23.070  13.053  1.00 70.72 LIG 0.27  HD
ATOM     68 HZ2  LYS B   1       8.257  22.983  14.342  1.00 70.72 LIG 0.27  HD
ATOM     69 HZ3  LYS B   1       8.501  24.122  13.472  1.00 70.72 LIG 0.27  HD
ENDBRANCH 65 66
ENDBRANCH 64 65
ENDBRANCH 63 64
ENDBRANCH 62 63
ENDBRANCH 57 62
ENDBRANCH 55 57
ENDBRANCH 48 50
ENDBRANCH 45 46
BRANCH 45 70
ATOM     70  CB  VAL B   3      16.538  17.527  19.920  1.00 30.17 LIG 0.01  C 
ATOM     71  CG1 VAL B   3      16.399  18.261  21.247  1.00 32.03 LIG 0.01  C 
ATOM     72  CG2 VAL B   3      16.093  16.083  20.052  1.00 31.22 LIG 0.01  C 
ENDBRANCH 45 70
ENDBRANCH 42 45
ENDBRANCH 1 41
TORSDOF 27
ENDMDL
MODEL 22
USER: ADFR SOLUTION from run 74
USER: SCORE 18.155042 LL:  -4.078 LR: -16.926 RR:   0.000 FEB:  -8.872
USER: RMSD 7.787238
USER: SEED 73
USER: STATUS no improvement in best in 10 clusters for 5 generations
USER: GENES 29
USER: genes 0 Translation |==|  0.54107 0.35147 0.47720
USER: genes 1 Rotation |==|  0.49696 0.00403 0.47586 0.55847
USER: genes 2 Torsion [N]-CA--C-[N] |==|  0.57063
USER: genes 3 Torsion [C]-N--CA-[C] |==|  0.53462
USER: genes 4 Torsion [N]-CA--CB-[CG] |==|  0.63414
USER: genes 5 Torsion [CA]-CB--CG-[CD] |==|  0.45648
USER: genes 6 Torsion [CB]-CG--CD-[NE] |==|  0.91404
USER: genes 7 Torsion [CG]-CD--NE-[HE] |==|  0.90935
USER: genes 8 Torsion [N]-CA--C-[N] |==|  0.06462
USER: genes 9 Torsion [C]-N--CA-[CB] |==|  0.18449
USER: genes 10 Torsion [N]-CA--C-[N] |==|  0.43006
USER: genes 11 Torsion [C]-N--CA-[CB] |==|  0.16759
USER: genes 12 Torsion [N]-CA--C-[OXT] |==|  0.01343
USER: genes 13 Torsion [N]-CA--CB-[CG2] |==|  0.13177
USER: genes 14 Torsion [CA]-CB--OG1-[HG1] |==|  0.30920
USER: genes 15 Torsion [C]-CA--CB-[CG] |==|  0.30414
USER: genes 16 Torsion [CA]-CB--CG-[CD2] |==|  0.85307
USER: genes 17 Torsion [C]-CA--N-[C] |==|  0.53995
USER: genes 18 Torsion [N]-C--CA-[N] |==|  0.40928
USER: genes 19 Torsion [C]-CA--N-[C] |==|  0.69625
USER: genes 20 Torsion [N]-C--CA-[CB] |==|  0.80132
USER: genes 21 Torsion [N]-C--CA-[N] |==|  0.80602
USER: genes 22 Torsion [C]-CA--N-[H1] |==|  0.75736
USER: genes 23 Torsion [C]-CA--CB-[CG] |==|  0.68005
USER: genes 24 Torsion [CA]-CB--CG-[CD] |==|  0.56326
USER: genes 25 Torsion [CB]-CG--CD-[CE] |==|  0.48267
USER: genes 26 Torsion [CG]-CD--CE-[NZ] |==|  0.13262
USER: genes 27 Torsion [CD]-CE--NZ-[HZ1] |==|  0.12421
USER: genes 28 Torsion [C]-CA--CB-[CG1] |==|  0.49524
ROOT
ATOM      1  CA  LEU B   4      17.719  20.766  16.083  1.00 33.70 LIG 0.18  C 
ENDROOT
BRANCH 1 2
ATOM      2  C   LEU B   4      18.098  19.587  15.192  1.00 36.59 LIG 0.24  C 
ATOM      3 O    LEU B   4      19.170  19.571  14.584  1.00 35.62 LIG-0.27  OA
ATOM      4  N   ARG B   5      17.211  18.601  15.122  1.00 30.50 LIG-0.35  N 
ATOM      5 H    ARG B   5      16.492  18.574  15.592  1.00 30.50 LIG 0.16  HD
BRANCH 4 6
ATOM      6  CA  ARG B   5      17.382  17.460  14.228  1.00 32.70 LIG 0.18  C 
BRANCH 6 7
ATOM      7  CB  ARG B   5      18.526  16.556  14.698  1.00 28.13 LIG 0.04  C 
BRANCH 7 8
ATOM      8  CG  ARG B   5      19.502  16.181  13.588  1.00 29.30 LIG 0.02  C 
BRANCH 8 9
ATOM      9  CD  ARG B   5      20.809  15.618  14.119  1.00 34.57 LIG 0.14  C 
BRANCH 9 10
ATOM     10  NE  ARG B   5      21.180  16.170  15.412  1.00 41.05 LIG-0.23  N 
ATOM     11 HE   ARG B   5      20.959  16.984  15.577  1.00 41.05 LIG 0.18  HD
ATOM     12  CZ  ARG B   5      21.839  15.505  16.357  1.00 43.39 LIG 0.67  C 
ATOM     13  NH2 ARG B   5      22.138  16.107  17.502  1.00 33.00 LIG-0.23  N 
ATOM     14  NH1 ARG B   5      22.201  14.245  16.162  1.00 41.15 LIG-0.23  N 
ATOM     15 1HH2 ARG B   5      21.906  16.925  17.631  1.00 33.00 LIG 0.17  HD
ATOM     16 2HH2 ARG B   5      22.564  15.679  18.115  1.00 33.00 LIG 0.17  HD
ATOM     17 2HH1 ARG B   5      22.626  13.820  16.777  1.00 41.15 LIG 0.17  HD
ATOM     18 1HH1 ARG B   5      22.010  13.853  15.421  1.00 41.15 LIG 0.17  HD
ENDBRANCH 9 10
ENDBRANCH 8 9
ENDBRANCH 7 8
ENDBRANCH 6 7
BRANCH 6 19
ATOM     19  C   ARG B   5      16.089  16.662  14.134  1.00 32.44 LIG 0.24  C 
ATOM     20 O    ARG B   5      16.121  15.473  13.818  1.00 30.81 LIG-0.27  OA
ATOM     21  N   THR B   6      14.954  17.300  14.421  1.00 35.68 LIG-0.34  N 
ATOM     22 H    THR B   6      14.907  18.101  14.731  1.00 35.68 LIG 0.16  HD
BRANCH 21 23
ATOM     23  CA  THR B   6      13.665  16.638  14.213  1.00 34.81 LIG 0.20  C 
BRANCH 23 24
ATOM     24  C   THR B   6      12.534  17.622  14.437  1.00 33.55 LIG 0.24  C 
ATOM     25 O    THR B   6      12.693  18.603  15.164  1.00 36.63 LIG-0.27  OA
ATOM     26  N   ALA B   7      11.393  17.356  13.813  1.00 35.45 LIG-0.34  N 
ATOM     27 H    ALA B   7      11.260  16.662  13.323  1.00 35.45 LIG 0.16  HD
BRANCH 26 28
ATOM     28  CA  ALA B   7      10.251  18.253  13.916  1.00 34.62 LIG 0.18  C 
ATOM     29  CB  ALA B   7      10.610  19.632  13.377  1.00 31.37 LIG 0.04  C 
BRANCH 28 30
ATOM     30  C   ALA B   7       9.031  17.693  13.190  1.00 35.30 LIG 0.20  C 
ATOM     31 OXT  ALA B   7       9.077  16.566  12.692  1.00 33.15 LIG-0.65  OA
ATOM     32 O    ALA B   7       7.990  18.348  13.073  1.00 30.65 LIG-0.65  OA
ENDBRANCH 28 30
ENDBRANCH 26 28
ENDBRANCH 23 24
BRANCH 23 33
ATOM     33  CB  THR B   6      13.423  15.432  15.141  1.00 40.55 LIG 0.15  C 
ATOM     34  CG2 THR B   6      13.764  15.809  16.562  1.00 29.01 LIG 0.04  C 
BRANCH 33 35
ATOM     35 OG1  THR B   6      12.061  14.977  15.047  1.00 38.86 LIG-0.39  OA
ATOM     36 HG1  THR B   6      12.042  14.223  14.676  1.00 38.86 LIG 0.21  HD
ENDBRANCH 33 35
ENDBRANCH 23 33
ENDBRANCH 21 23
ENDBRANCH 6 19
ENDBRANCH 4 6
ENDBRANCH 1 2
BRANCH 1 37
ATOM     37  CB  LEU B   4      16.199  20.963  16.047  1.00 31.55 LIG 0.04  C 
BRANCH 37 38
ATOM     38  CG  LEU B   4      15.320  20.638  17.262  1.00 40.70 LIG-0.02  C 
ATOM     39  CD2 LEU B   4      15.597  19.213  17.736  1.00 33.83 LIG 0.01  C 
ATOM     40  CD1 LEU B   4      13.822  20.860  17.011  1.00 30.33 LIG 0.01  C 
ENDBRANCH 37 38
ENDBRANCH 1 37
BRANCH 1 41
ATOM     41  N   LEU B   4      18.390  21.994  15.666  1.00 32.96 LIG-0.35  N 
ATOM     42  C   VAL B   3      18.442  23.074  16.438  1.00 32.71 LIG 0.24  C 
ATOM     43 O    VAL B   3      17.985  23.106  17.583  1.00 29.46 LIG-0.27  OA
ATOM     44 H    LEU B   4      18.744  21.952  14.883  1.00 32.96 LIG 0.16  HD
BRANCH 42 45
ATOM     45  CA  VAL B   3      19.093  24.313  15.829  1.00 32.18 LIG 0.18  C 
BRANCH 45 46
ATOM     46  N   VAL B   3      18.425  25.486  16.374  1.00 27.49 LIG-0.35  N 
ATOM     47 H    VAL B   3      18.592  25.635  17.204  1.00 27.49 LIG 0.16  HD
ATOM     48  C   PRO B   2      17.628  26.244  15.632  1.00 36.99 LIG 0.24  C 
ATOM     49 O    PRO B   2      17.553  26.157  14.405  1.00 37.97 LIG-0.27  OA
BRANCH 48 50
ATOM     50  CA  PRO B   2      16.776  27.255  16.385  1.00 42.38 LIG 0.18  C 
ATOM     51  CB  PRO B   2      15.678  26.518  17.149  1.00 38.27 LIG 0.04  C 
ATOM     52  CG  PRO B   2      14.530  26.478  16.198  1.00 37.96 LIG 0.02  C 
ATOM     53  CD  PRO B   2      14.588  27.780  15.439  1.00 39.69 LIG 0.13  C 
ATOM     54  N   PRO B   2      16.018  28.137  15.493  1.00 45.78 LIG-0.34  N 
ATOM     55  C   LYS B   1      16.595  29.122  14.785  1.00 52.29 LIG 0.25  C 
ATOM     56 O    LYS B   1      17.814  29.297  14.745  1.00 54.18 LIG-0.27  OA
BRANCH 55 57
ATOM     57  CA  LYS B   1      15.661  30.040  14.011  1.00 57.44 LIG 0.28  C 
BRANCH 57 58
ATOM     58  N   LYS B   1      15.049  29.335  12.886  1.00 70.48 LIG-0.07  N 
ATOM     59 H1   LYS B   1      15.581  29.392  12.175  1.00 70.48 LIG 0.28  HD
ATOM     60 H2   LYS B   1      14.931  28.478  13.100  1.00 70.48 LIG 0.28  HD
ATOM     61 H3   LYS B   1      14.262  29.704  12.697  1.00 70.48 LIG 0.28  HD
ENDBRANCH 57 58
BRANCH 57 62
ATOM     62  CB  LYS B   1      14.586  30.620  14.929  1.00 56.26 LIG 0.04  C 
BRANCH 62 63
ATOM     63  CG  LYS B   1      13.183  30.165  14.574  1.00 62.75 LIG 0.00  C 
BRANCH 63 64
ATOM     64  CD  LYS B   1      12.143  31.137  15.094  1.00 59.03 LIG 0.03  C 
BRANCH 64 65
ATOM     65  CE  LYS B   1      10.754  30.760  14.608  1.00 61.45 LIG 0.23  C 
BRANCH 65 66
ATOM     66  NZ  LYS B   1      10.476  29.306  14.806  1.00 70.72 LIG-0.08  N 
ATOM     67 HZ1  LYS B   1      10.745  29.060  15.617  1.00 70.72 LIG 0.27  HD
ATOM     68 HZ2  LYS B   1       9.602  29.156  14.725  1.00 70.72 LIG 0.27  HD
ATOM     69 HZ3  LYS B   1      10.916  28.834  14.193  1.00 70.72 LIG 0.27  HD
ENDBRANCH 65 66
ENDBRANCH 64 65
ENDBRANCH 63 64
ENDBRANCH 62 63
ENDBRANCH 57 62
ENDBRANCH 55 57
ENDBRANCH 48 50
ENDBRANCH 45 46
BRANCH 45 70
ATOM     70  CB  VAL B   3      20.600  24.325  16.145  1.00 30.17 LIG 0.01  C 
ATOM     71  CG1 VAL B   3      21.279  25.531  15.512  1.00 32.03 LIG 0.01  C 
ATOM     72  CG2 VAL B   3      20.815  24.311  17.647  1.00 31.22 LIG 0.01  C 
ENDBRANCH 45 70
ENDBRANCH 42 45
ENDBRANCH 1 41
TORSDOF 27
ENDMDL
MODEL 23
USER: ADFR SOLUTION from run 114
USER: SCORE 20.745776 LL:  -5.426 LR: -16.818 RR:   0.000 FEB:  -8.764
USER: RMSD 7.361215
USER: SEED 113
USER: STATUS 1 or 2 clusters left
USER: GENES 29
USER: genes 0 Translation |==|  0.58716 0.29900 0.43585
USER: genes 1 Rotation |==|  0.56825 0.46436 0.28539 0.94499
USER: genes 2 Torsion [N]-CA--C-[N] |==|  0.40369
USER: genes 3 Torsion [C]-N--CA-[C] |==|  0.69445
USER: genes 4 Torsion [N]-CA--CB-[CG] |==|  0.69071
USER: genes 5 Torsion [CA]-CB--CG-[CD] |==|  0.73235
USER: genes 6 Torsion [CB]-CG--CD-[NE] |==|  0.01666
USER: genes 7 Torsion [CG]-CD--NE-[HE] |==|  0.93042
USER: genes 8 Torsion [N]-CA--C-[N] |==|  0.31439
USER: genes 9 Torsion [C]-N--CA-[CB] |==|  0.24251
USER: genes 10 Torsion [N]-CA--C-[N] |==|  0.35269
USER: genes 11 Torsion [C]-N--CA-[CB] |==|  0.85850
USER: genes 12 Torsion [N]-CA--C-[OXT] |==|  0.57085
USER: genes 13 Torsion [N]-CA--CB-[CG2] |==|  0.41875
USER: genes 14 Torsion [CA]-CB--OG1-[HG1] |==|  0.89504
USER: genes 15 Torsion [C]-CA--CB-[CG] |==|  0.18624
USER: genes 16 Torsion [CA]-CB--CG-[CD2] |==|  0.44475
USER: genes 17 Torsion [C]-CA--N-[C] |==|  0.81062
USER: genes 18 Torsion [N]-C--CA-[N] |==|  0.42250
USER: genes 19 Torsion [C]-CA--N-[C] |==|  0.56218
USER: genes 20 Torsion [N]-C--CA-[CB] |==|  0.57480
USER: genes 21 Torsion [N]-C--CA-[N] |==|  0.35635
USER: genes 22 Torsion [C]-CA--N-[H1] |==|  0.82764
USER: genes 23 Torsion [C]-CA--CB-[CG] |==|  0.75013
USER: genes 24 Torsion [CA]-CB--CG-[CD] |==|  0.60762
USER: genes 25 Torsion [CB]-CG--CD-[CE] |==|  0.23286
USER: genes 26 Torsion [CG]-CD--CE-[NZ] |==|  0.20906
USER: genes 27 Torsion [CD]-CE--NZ-[HZ1] |==|  0.99054
USER: genes 28 Torsion [C]-CA--CB-[CG1] |==|  0.84422
ROOT
ATOM      1  CA  LEU B   4      18.618  19.074  15.432  1.00 33.70 LIG 0.18  C 
ENDROOT
BRANCH 1 2
ATOM      2  C   LEU B   4      17.169  18.664  15.675  1.00 36.59 LIG 0.24  C 
ATOM      3 O    LEU B   4      16.626  18.870  16.762  1.00 35.62 LIG-0.27  OA
ATOM      4  N   ARG B   5      16.548  18.084  14.654  1.00 30.50 LIG-0.35  N 
ATOM      5 H    ARG B   5      16.897  17.996  13.874  1.00 30.50 LIG 0.16  HD
BRANCH 4 6
ATOM      6  CA  ARG B   5      15.199  17.539  14.768  1.00 32.70 LIG 0.18  C 
BRANCH 6 7
ATOM      7  CB  ARG B   5      14.285  18.091  13.669  1.00 28.13 LIG 0.04  C 
BRANCH 7 8
ATOM      8  CG  ARG B   5      13.200  19.027  14.191  1.00 29.30 LIG 0.02  C 
BRANCH 8 9
ATOM      9  CD  ARG B   5      11.873  18.322  14.415  1.00 34.57 LIG 0.14  C 
BRANCH 9 10
ATOM     10  NE  ARG B   5      11.955  16.884  14.217  1.00 41.05 LIG-0.23  N 
ATOM     11 HE   ARG B   5      12.575  16.587  13.701  1.00 41.05 LIG 0.18  HD
ATOM     12  CZ  ARG B   5      11.138  15.996  14.777  1.00 43.39 LIG 0.67  C 
ATOM     13  NH2 ARG B   5      11.293  14.703  14.523  1.00 33.00 LIG-0.23  N 
ATOM     14  NH1 ARG B   5      10.168  16.395  15.587  1.00 41.15 LIG-0.23  N 
ATOM     15 1HH2 ARG B   5      11.921  14.440  13.997  1.00 33.00 LIG 0.17  HD
ATOM     16 2HH2 ARG B   5      10.766  14.127  14.884  1.00 33.00 LIG 0.17  HD
ATOM     17 2HH1 ARG B   5       9.643  15.817  15.947  1.00 41.15 LIG 0.17  HD
ATOM     18 1HH1 ARG B   5      10.063  17.233  15.753  1.00 41.15 LIG 0.17  HD
ENDBRANCH 9 10
ENDBRANCH 8 9
ENDBRANCH 7 8
ENDBRANCH 6 7
BRANCH 6 19
ATOM     19  C   ARG B   5      15.234  16.018  14.705  1.00 32.44 LIG 0.24  C 
ATOM     20 O    ARG B   5      15.581  15.454  13.667  1.00 30.81 LIG-0.27  OA
ATOM     21  N   THR B   6      14.894  15.352  15.808  1.00 35.68 LIG-0.34  N 
ATOM     22 H    THR B   6      14.735  15.716  16.570  1.00 35.68 LIG 0.16  HD
BRANCH 21 23
ATOM     23  CA  THR B   6      14.766  13.894  15.777  1.00 34.81 LIG 0.20  C 
BRANCH 23 24
ATOM     24  C   THR B   6      13.763  13.439  16.817  1.00 33.55 LIG 0.24  C 
ATOM     25 O    THR B   6      13.877  13.788  17.992  1.00 36.63 LIG-0.27  OA
ATOM     26  N   ALA B   7      12.782  12.656  16.383  1.00 35.45 LIG-0.34  N 
ATOM     27 H    ALA B   7      12.704  12.383  15.571  1.00 35.45 LIG 0.16  HD
BRANCH 26 28
ATOM     28  CA  ALA B   7      11.734  12.193  17.281  1.00 34.62 LIG 0.18  C 
ATOM     29  CB  ALA B   7      12.346  11.575  18.533  1.00 31.37 LIG 0.04  C 
BRANCH 28 30
ATOM     30  C   ALA B   7      10.775  13.320  17.652  1.00 35.30 LIG 0.20  C 
ATOM     31 OXT  ALA B   7      10.146  13.267  18.711  1.00 33.15 LIG-0.65  OA
ATOM     32 O    ALA B   7      10.598  14.290  16.907  1.00 30.65 LIG-0.65  OA
ENDBRANCH 28 30
ENDBRANCH 26 28
ENDBRANCH 23 24
BRANCH 23 33
ATOM     33  CB  THR B   6      16.085  13.143  16.043  1.00 40.55 LIG 0.15  C 
ATOM     34  CG2 THR B   6      15.790  11.811  16.687  1.00 29.01 LIG 0.04  C 
BRANCH 33 35
ATOM     35 OG1  THR B   6      16.830  12.966  14.824  1.00 38.86 LIG-0.39  OA
ATOM     36 HG1  THR B   6      16.300  12.806  14.192  1.00 38.86 LIG 0.21  HD
ENDBRANCH 33 35
ENDBRANCH 23 33
ENDBRANCH 21 23
ENDBRANCH 6 19
ENDBRANCH 4 6
ENDBRANCH 1 2
BRANCH 1 37
ATOM     37  CB  LEU B   4      19.549  17.942  15.880  1.00 31.55 LIG 0.04  C 
BRANCH 37 38
ATOM     38  CG  LEU B   4      19.580  16.593  15.149  1.00 40.70 LIG-0.02  C 
ATOM     39  CD2 LEU B   4      20.885  15.864  15.462  1.00 33.83 LIG 0.01  C 
ATOM     40  CD1 LEU B   4      19.360  16.712  13.635  1.00 30.33 LIG 0.01  C 
ENDBRANCH 37 38
ENDBRANCH 1 37
BRANCH 1 41
ATOM     41  N   LEU B   4      18.955  20.306  16.140  1.00 32.96 LIG-0.35  N 
ATOM     42  C   VAL B   3      18.434  21.483  15.807  1.00 32.71 LIG 0.24  C 
ATOM     43 O    VAL B   3      17.585  21.618  14.923  1.00 29.46 LIG-0.27  OA
ATOM     44 H    LEU B   4      19.515  20.199  16.783  1.00 32.96 LIG 0.16  HD
BRANCH 42 45
ATOM     45  CA  VAL B   3      18.954  22.695  16.574  1.00 32.18 LIG 0.18  C 
BRANCH 45 46
ATOM     46  N   VAL B   3      18.831  23.860  15.710  1.00 27.49 LIG-0.35  N 
ATOM     47 H    VAL B   3      18.248  23.776  15.084  1.00 27.49 LIG 0.16  HD
ATOM     48  C   PRO B   2      19.568  24.948  15.893  1.00 36.99 LIG 0.24  C 
ATOM     49 O    PRO B   2      20.244  25.150  16.904  1.00 37.97 LIG-0.27  OA
BRANCH 48 50
ATOM     50  CA  PRO B   2      19.549  25.966  14.764  1.00 42.38 LIG 0.18  C 
ATOM     51  CB  PRO B   2      20.856  26.757  14.777  1.00 38.27 LIG 0.04  C 
ATOM     52  CG  PRO B   2      20.566  27.934  15.646  1.00 37.96 LIG 0.02  C 
ATOM     53  CD  PRO B   2      19.125  28.291  15.376  1.00 39.69 LIG 0.13  C 
ATOM     54  N   PRO B   2      18.534  27.007  14.953  1.00 45.78 LIG-0.34  N 
ATOM     55  C   LYS B   1      17.221  26.777  14.793  1.00 52.29 LIG 0.25  C 
ATOM     56 O    LYS B   1      16.755  25.657  14.579  1.00 54.18 LIG-0.27  OA
BRANCH 55 57
ATOM     57  CA  LYS B   1      16.303  27.987  14.889  1.00 57.44 LIG 0.28  C 
BRANCH 57 58
ATOM     58  N   LYS B   1      15.418  28.065  13.728  1.00 70.48 LIG-0.07  N 
ATOM     59 H1   LYS B   1      15.904  28.165  12.990  1.00 70.48 LIG 0.28  HD
ATOM     60 H2   LYS B   1      14.939  27.317  13.668  1.00 70.48 LIG 0.28  HD
ATOM     61 H3   LYS B   1      14.871  28.760  13.818  1.00 70.48 LIG 0.28  HD
ENDBRANCH 57 58
BRANCH 57 62
ATOM     62  CB  LYS B   1      15.489  27.949  16.182  1.00 56.26 LIG 0.04  C 
BRANCH 62 63
ATOM     63  CG  LYS B   1      14.167  27.222  16.038  1.00 62.75 LIG 0.00  C 
BRANCH 63 64
ATOM     64  CD  LYS B   1      13.071  27.916  16.822  1.00 59.03 LIG 0.03  C 
BRANCH 64 65
ATOM     65  CE  LYS B   1      12.467  29.058  16.021  1.00 61.45 LIG 0.23  C 
BRANCH 65 66
ATOM     66  NZ  LYS B   1      11.562  28.556  14.944  1.00 70.72 LIG-0.08  N 
ATOM     67 HZ1  LYS B   1      11.577  27.667  14.934  1.00 70.72 LIG 0.27  HD
ATOM     68 HZ2  LYS B   1      10.731  28.836  15.099  1.00 70.72 LIG 0.27  HD
ATOM     69 HZ3  LYS B   1      11.837  28.866  14.156  1.00 70.72 LIG 0.27  HD
ENDBRANCH 65 66
ENDBRANCH 64 65
ENDBRANCH 63 64
ENDBRANCH 62 63
ENDBRANCH 57 62
ENDBRANCH 55 57
ENDBRANCH 48 50
ENDBRANCH 45 46
BRANCH 45 70
ATOM     70  CB  VAL B   3      18.157  22.874  17.880  1.00 30.17 LIG 0.01  C 
ATOM     71  CG1 VAL B   3      16.666  22.989  17.595  1.00 32.03 LIG 0.01  C 
ATOM     72  CG2 VAL B   3      18.440  21.719  18.822  1.00 31.22 LIG 0.01  C 
ENDBRANCH 45 70
ENDBRANCH 42 45
ENDBRANCH 1 41
TORSDOF 27
ENDMDL
