MODEL 1
USER: ADFR SOLUTION from run 186
USER: SCORE 20.658425 LL:  -4.544 LR: -17.737 RR:   0.000 FEB:  -9.086
USER: RMSD 12.402472
USER: SEED 185
USER: STATUS no improvement in best in 2 clusters for 5 generations
USER: GENES 31
USER: genes 0 Translation |==|  0.55457 0.51110 0.35403
USER: genes 1 Rotation |==|  0.90418 0.37127 0.24095 0.55443
USER: genes 2 Torsion [N]-CA--C-[N] |==|  0.10350
USER: genes 3 Torsion [C]-N--CA-[C] |==|  0.62649
USER: genes 4 Torsion [N]-CA--C-[N] |==|  0.34534
USER: genes 5 Torsion [C]-N--CA-[C] |==|  0.54484
USER: genes 6 Torsion [N]-CA--C-[N] |==|  0.45050
USER: genes 7 Torsion [C]-N--CA-[CB] |==|  0.85493
USER: genes 8 Torsion [N]-CA--CB-[CG] |==|  0.85648
USER: genes 9 Torsion [CA]-CB--CG-[OD1] |==|  0.21739
USER: genes 10 Torsion [N]-CA--C-[N] |==|  0.90029
USER: genes 11 Torsion [N]-CA--CB-[CG] |==|  0.51901
USER: genes 12 Torsion [CA]-CB--CG-[CD] |==|  0.31881
USER: genes 13 Torsion [CB]-CG--CD-[CE] |==|  0.61712
USER: genes 14 Torsion [CG]-CD--CE-[NZ] |==|  0.84618
USER: genes 15 Torsion [CD]-CE--NZ-[HZ3] |==|  0.43783
USER: genes 16 Torsion [N]-CA--CB-[CG1] |==|  0.76454
USER: genes 17 Torsion [CA]-CB--CG1-[CD1] |==|  0.26470
USER: genes 18 Torsion [CB]-CA--N-[C] |==|  0.14809
USER: genes 19 Torsion [N]-C--CA-[N] |==|  0.68812
USER: genes 20 Torsion [C]-CA--N-[C] |==|  0.16022
USER: genes 21 Torsion [N]-C--CA-[N] |==|  0.04922
USER: genes 22 Torsion [C]-CA--N-[C] |==|  0.76652
USER: genes 23 Torsion [N]-C--CA-[N] |==|  0.97656
USER: genes 24 Torsion [C]-CA--N-[C] |==|  0.77768
USER: genes 25 Torsion [C]-CA--CB-[CG] |==|  0.13637
USER: genes 26 Torsion [CA]-CB--CG-[OD1] |==|  0.23611
USER: genes 27 Torsion [C]-CA--CB-[OG] |==|  0.80431
USER: genes 28 Torsion [CA]-CB--OG-[HG] |==|  0.70973
USER: genes 29 Torsion [C]-CA--CB-[CG] |==|  0.20336
USER: genes 30 Torsion [CA]-CB--CG-[OD1] |==|  0.71494
ROOT
ATOM      1  CA  ALA Z  41     -15.670  13.046  -8.633  1.00 21.22 LIG 0.17  C 
ATOM      2  CB  ALA Z  41     -16.908  12.380  -9.229  1.00 23.94 LIG 0.04  C 
ENDROOT
BRANCH 1 3
ATOM      3  C   ALA Z  41     -15.770  14.565  -8.766  1.00 23.72 LIG 0.24  C 
ATOM      4 O    ALA Z  41     -16.534  15.077  -9.584  1.00 25.98 LIG-0.27  OA
ATOM      5  N   ILE Z  42     -14.993  15.283  -7.962  1.00 25.83 LIG-0.35  N 
ATOM      6 H    ILE Z  42     -14.456  14.950  -7.379  1.00 25.83 LIG 0.16  HD
BRANCH 5 7
ATOM      7  CA  ILE Z  42     -15.005  16.741  -8.020  1.00 30.93 LIG 0.18  C 
BRANCH 7 8
ATOM      8  C   ILE Z  42     -13.595  17.333  -8.014  1.00 34.23 LIG 0.24  C 
ATOM      9 O    ILE Z  42     -12.808  17.066  -7.104  1.00 38.88 LIG-0.27  OA
ATOM     10  N   LYS Z  43     -13.277  18.143  -9.020  1.00 34.26 LIG-0.35  N 
ATOM     11 H    LYS Z  43     -13.827  18.405  -9.627  1.00 34.26 LIG 0.16  HD
BRANCH 10 12
ATOM     12  CA  LYS Z  43     -11.916  18.659  -9.160  1.00 43.39 LIG 0.18  C 
BRANCH 12 13
ATOM     13  C   LYS Z  43     -11.795  19.855 -10.105  1.00 55.57 LIG 0.24  C 
ATOM     14  N   ASN Z  44     -10.691  20.590 -10.002  1.00 60.92 LIG-0.34  N 
ATOM     15 H    ASN Z  44     -10.050  20.410  -9.458  1.00 60.92 LIG 0.16  HD
ATOM     16 O    LYS Z  43     -12.694  20.099 -10.913  1.00 61.19 LIG-0.27  OA
BRANCH 14 17
ATOM     17  CA  ASN Z  44     -10.464  21.789 -10.815  1.00 70.44 LIG 0.19  C 
BRANCH 17 18
ATOM     18  CB  ASN Z  44     -10.657  21.496 -12.310  1.00 74.13 LIG 0.14  C 
BRANCH 18 19
ATOM     19  CG  ASN Z  44      -9.854  20.296 -12.782  1.00 76.38 LIG 0.22  C 
ATOM     20  ND2 ASN Z  44      -8.730  20.558 -13.444  1.00 76.67 LIG-0.37  N 
ATOM     21 21HD ASN Z  44      -8.240  19.913 -13.732  1.00 76.67 LIG 0.16  HD
ATOM     22 22HD ASN Z  44      -8.493  21.372 -13.583  1.00 76.67 LIG 0.16  HD
ATOM     23 OD1  ASN Z  44     -10.239  19.148 -12.555  1.00 76.30 LIG-0.27  OA
ENDBRANCH 18 19
ENDBRANCH 17 18
BRANCH 17 24
ATOM     24  C   ASN Z  44     -11.341  22.970 -10.392  1.00 74.17 LIG 0.28  C 
ATOM     25 O    ASN Z  44     -10.911  24.125 -10.436  1.00 72.97 LIG-0.27  OA
ATOM     26  N   NH2 Z  45     -12.570  22.671  -9.982  1.00 76.38 LIG-0.11  N 
ENDBRANCH 17 24
ENDBRANCH 14 17
ENDBRANCH 12 13
BRANCH 12 27
ATOM     27  CB  LYS Z  43     -10.943  17.544  -9.561  1.00 40.99 LIG 0.04  C 
BRANCH 27 28
ATOM     28  CG  LYS Z  43      -9.484  17.986  -9.561  1.00 39.01 LIG 0.00  C 
BRANCH 28 29
ATOM     29  CD  LYS Z  43      -8.665  17.260  -8.500  1.00 38.38 LIG 0.03  C 
BRANCH 29 30
ATOM     30  CE  LYS Z  43      -7.720  18.225  -7.790  1.00 38.40 LIG 0.23  C 
BRANCH 30 31
ATOM     31  NZ  LYS Z  43      -6.821  18.962  -8.731  1.00 35.26 LIG-0.08  N 
ATOM     32 HZ3  LYS Z  43      -6.536  19.711  -8.344  1.00 35.26 LIG 0.27  HD
ATOM     33 HZ2  LYS Z  43      -7.269  19.163  -9.473  1.00 35.26 LIG 0.27  HD
ATOM     34 HZ1  LYS Z  43      -6.123  18.450  -8.937  1.00 35.26 LIG 0.27  HD
ENDBRANCH 30 31
ENDBRANCH 29 30
ENDBRANCH 28 29
ENDBRANCH 27 28
ENDBRANCH 12 27
ENDBRANCH 10 12
ENDBRANCH 7 8
BRANCH 7 35
ATOM     35  CB  ILE Z  42     -15.819  17.359  -6.869  1.00 30.84 LIG 0.01  C 
ATOM     36  CG2 ILE Z  42     -15.332  18.773  -6.572  1.00 35.03 LIG 0.01  C 
BRANCH 35 37
ATOM     37  CG1 ILE Z  42     -17.301  17.413  -7.229  1.00 30.67 LIG 0.00  C 
ATOM     38  CD1 ILE Z  42     -18.093  16.228  -6.709  1.00 26.38 LIG 0.01  C 
ENDBRANCH 35 37
ENDBRANCH 7 35
ENDBRANCH 5 7
ENDBRANCH 1 3
BRANCH 1 39
ATOM     39  N   ALA Z  41     -15.490  12.647  -7.239  1.00 17.22 LIG-0.35  N 
ATOM     40  C   ASN Z  40     -15.451  11.365  -6.881  1.00 21.77 LIG 0.24  C 
ATOM     41 O    ASN Z  40     -15.561  10.439  -7.687  1.00 19.61 LIG-0.27  OA
ATOM     42 H    ALA Z  41     -15.413  13.303  -6.688  1.00 17.22 LIG 0.16  HD
BRANCH 40 43
ATOM     43  CA  ASN Z  40     -15.257  11.073  -5.398  1.00 23.64 LIG 0.18  C 
BRANCH 43 44
ATOM     44  N   ASN Z  40     -13.974  10.454  -5.077  1.00 28.07 LIG-0.34  N 
ATOM     45 H    ASN Z  40     -14.028   9.694  -4.677  1.00 28.07 LIG 0.16  HD
ATOM     46  C   SER Z  39     -12.834  11.055  -5.398  1.00 29.35 LIG 0.24  C 
ATOM     47 O    SER Z  39     -12.789  12.181  -5.896  1.00 27.34 LIG-0.27  OA
BRANCH 46 48
ATOM     48  CA  SER Z  39     -11.553  10.286  -5.115  1.00 36.10 LIG 0.20  C 
BRANCH 48 49
ATOM     49  N   SER Z  39     -11.901   8.882  -4.935  1.00 45.98 LIG-0.34  N 
ATOM     50  C   ASN Z  38     -12.318   8.412  -3.764  1.00 57.47 LIG 0.24  C 
ATOM     51 O    ASN Z  38     -12.202   9.043  -2.711  1.00 60.64 LIG-0.27  OA
ATOM     52 H    SER Z  39     -11.811   8.401  -5.642  1.00 45.98 LIG 0.16  HD
BRANCH 50 53
ATOM     53  CA  ASN Z  38     -12.959   7.017  -3.789  1.00 65.29 LIG 0.18  C 
BRANCH 53 54
ATOM     54  N   ASN Z  38     -13.220   6.430  -5.106  1.00 70.64 LIG-0.35  N 
ATOM     55 H    ASN Z  38     -12.627   5.857  -5.351  1.00 70.64 LIG 0.16  HD
ATOM     56  C   ACE Z  37     -14.272   6.753  -5.853  1.00 74.22 LIG 0.21  C 
ATOM     57  CH3 ACE Z  37     -14.401   6.016  -7.185  1.00 75.88 LIG 0.12  C 
ATOM     58 O    ACE Z  37     -15.103   7.596  -5.518  1.00 75.32 LIG-0.27  OA
ENDBRANCH 53 54
BRANCH 53 59
ATOM     59  CB  ASN Z  38     -12.105   6.057  -2.948  1.00 65.91 LIG 0.12  C 
BRANCH 59 60
ATOM     60  CG  ASN Z  38     -11.762   6.617  -1.576  1.00 66.48 LIG 0.15  C 
ATOM     61 OD1  ASN Z  38     -12.670   6.431  -0.625  1.00 67.09 LIG-0.18  OA
ATOM     62  ND2 ASN Z  38     -10.701   7.210  -1.374  1.00 65.12 LIG-0.38  N 
ATOM     63 22HD ASN Z  38     -10.136   7.312  -2.014  1.00 65.12 LIG 0.16  HD
ATOM     64 21HD ASN Z  38     -10.526   7.523  -0.592  1.00 65.12 LIG 0.16  HD
ENDBRANCH 59 60
ENDBRANCH 53 59
ENDBRANCH 50 53
ENDBRANCH 48 49
BRANCH 48 65
ATOM     65  CB  SER Z  39     -10.573  10.475  -6.269  1.00 33.12 LIG 0.20  C 
BRANCH 65 66
ATOM     66 OG   SER Z  39     -11.025   9.788  -7.430  1.00 30.52 LIG-0.40  OA
ATOM     67 HG   SER Z  39     -10.572   9.089  -7.536  1.00 30.52 LIG 0.21  HD
ENDBRANCH 65 66
ENDBRANCH 48 65
ENDBRANCH 46 48
ENDBRANCH 43 44
BRANCH 43 68
ATOM     68  CB  ASN Z  40     -15.469  12.354  -4.589  1.00 19.94 LIG 0.14  C 
BRANCH 68 69
ATOM     69  CG  ASN Z  40     -16.930  12.754  -4.511  1.00 19.97 LIG 0.22  C 
ATOM     70 OD1  ASN Z  40     -17.372  13.667  -5.213  1.00 23.42 LIG-0.27  OA
ATOM     71  ND2 ASN Z  40     -17.686  12.083  -3.648  1.00 19.32 LIG-0.37  N 
ATOM     72 21HD ASN Z  40     -18.519  12.279  -3.563  1.00 19.32 LIG 0.16  HD
ATOM     73 22HD ASN Z  40     -17.342  11.452  -3.175  1.00 19.32 LIG 0.16  HD
ENDBRANCH 68 69
ENDBRANCH 43 68
ENDBRANCH 40 43
ENDBRANCH 1 39
TORSDOF 29
ENDMDL
MODEL 2
USER: ADFR SOLUTION from run 177
USER: SCORE 21.709978 LL:  -5.092 LR: -17.500 RR:   0.000 FEB:  -8.849
USER: RMSD 11.800348
USER: SEED 176
USER: STATUS searching
USER: GENES 31
USER: genes 0 Translation |==|  0.55976 0.51949 0.36866
USER: genes 1 Rotation |==|  0.95151 0.40079 0.31846 0.55774
USER: genes 2 Torsion [N]-CA--C-[N] |==|  0.12643
USER: genes 3 Torsion [C]-N--CA-[C] |==|  0.68011
USER: genes 4 Torsion [N]-CA--C-[N] |==|  0.95403
USER: genes 5 Torsion [C]-N--CA-[C] |==|  0.83272
USER: genes 6 Torsion [N]-CA--C-[N] |==|  0.43267
USER: genes 7 Torsion [C]-N--CA-[CB] |==|  0.84889
USER: genes 8 Torsion [N]-CA--CB-[CG] |==|  0.35883
USER: genes 9 Torsion [CA]-CB--CG-[OD1] |==|  0.19729
USER: genes 10 Torsion [N]-CA--C-[N] |==|  0.91281
USER: genes 11 Torsion [N]-CA--CB-[CG] |==|  0.35140
USER: genes 12 Torsion [CA]-CB--CG-[CD] |==|  0.34829
USER: genes 13 Torsion [CB]-CG--CD-[CE] |==|  0.72218
USER: genes 14 Torsion [CG]-CD--CE-[NZ] |==|  0.65527
USER: genes 15 Torsion [CD]-CE--NZ-[HZ3] |==|  0.19493
USER: genes 16 Torsion [N]-CA--CB-[CG1] |==|  0.53522
USER: genes 17 Torsion [CA]-CB--CG1-[CD1] |==|  0.17564
USER: genes 18 Torsion [CB]-CA--N-[C] |==|  0.16432
USER: genes 19 Torsion [N]-C--CA-[N] |==|  0.47117
USER: genes 20 Torsion [C]-CA--N-[C] |==|  0.69574
USER: genes 21 Torsion [N]-C--CA-[N] |==|  0.92722
USER: genes 22 Torsion [C]-CA--N-[C] |==|  0.79991
USER: genes 23 Torsion [N]-C--CA-[N] |==|  0.95017
USER: genes 24 Torsion [C]-CA--N-[C] |==|  0.80217
USER: genes 25 Torsion [C]-CA--CB-[CG] |==|  0.22994
USER: genes 26 Torsion [CA]-CB--CG-[OD1] |==|  0.89368
USER: genes 27 Torsion [C]-CA--CB-[OG] |==|  0.51422
USER: genes 28 Torsion [CA]-CB--OG-[HG] |==|  0.58773
USER: genes 29 Torsion [C]-CA--CB-[CG] |==|  0.18998
USER: genes 30 Torsion [CA]-CB--CG-[OD1] |==|  0.70212
ROOT
ATOM      1  CA  ALA Z  41     -15.546  13.241  -8.304  1.00 21.22 LIG 0.17  C 
ATOM      2  CB  ALA Z  41     -16.379  12.373  -9.244  1.00 23.94 LIG 0.04  C 
ENDROOT
BRANCH 1 3
ATOM      3  C   ALA Z  41     -15.868  14.719  -8.521  1.00 23.72 LIG 0.24  C 
ATOM      4 O    ALA Z  41     -16.534  15.082  -9.491  1.00 25.98 LIG-0.27  OA
ATOM      5  N   ILE Z  42     -15.391  15.570  -7.619  1.00 25.83 LIG-0.35  N 
ATOM      6 H    ILE Z  42     -14.929  15.340  -6.931  1.00 25.83 LIG 0.16  HD
BRANCH 5 7
ATOM      7  CA  ILE Z  42     -15.633  17.003  -7.745  1.00 30.93 LIG 0.18  C 
BRANCH 7 8
ATOM      8  C   ILE Z  42     -14.341  17.791  -7.972  1.00 34.23 LIG 0.24  C 
ATOM      9 O    ILE Z  42     -14.380  18.943  -8.405  1.00 38.88 LIG-0.27  OA
ATOM     10  N   LYS Z  43     -13.199  17.169  -7.691  1.00 34.26 LIG-0.35  N 
ATOM     11 H    LYS Z  43     -13.139  16.343  -7.459  1.00 34.26 LIG 0.16  HD
BRANCH 10 12
ATOM     12  CA  LYS Z  43     -11.926  17.882  -7.764  1.00 43.39 LIG 0.18  C 
BRANCH 12 13
ATOM     13  C   LYS Z  43     -11.601  18.445  -9.148  1.00 55.57 LIG 0.24  C 
ATOM     14  N   ASN Z  44     -10.769  19.482  -9.193  1.00 60.92 LIG-0.34  N 
ATOM     15 H    ASN Z  44     -10.397  19.823  -8.496  1.00 60.92 LIG 0.16  HD
ATOM     16 O    LYS Z  43     -12.103  17.939 -10.155  1.00 61.19 LIG-0.27  OA
BRANCH 14 17
ATOM     17  CA  ASN Z  44     -10.406  20.147 -10.448  1.00 70.44 LIG 0.19  C 
BRANCH 17 18
ATOM     18  CB  ASN Z  44      -9.855  19.145 -11.473  1.00 74.13 LIG 0.14  C 
BRANCH 18 19
ATOM     19  CG  ASN Z  44     -10.538  19.253 -12.826  1.00 76.38 LIG 0.22  C 
ATOM     20  ND2 ASN Z  44     -11.347  18.253 -13.163  1.00 76.67 LIG-0.37  N 
ATOM     21 21HD ASN Z  44     -11.757  18.267 -13.919  1.00 76.67 LIG 0.16  HD
ATOM     22 22HD ASN Z  44     -11.461  17.592 -12.625  1.00 76.67 LIG 0.16  HD
ATOM     23 OD1  ASN Z  44     -10.340  20.223 -13.559  1.00 76.30 LIG-0.27  OA
ENDBRANCH 18 19
ENDBRANCH 17 18
BRANCH 17 24
ATOM     24  C   ASN Z  44     -11.564  20.941 -11.058  1.00 74.17 LIG 0.28  C 
ATOM     25 O    ASN Z  44     -11.354  21.964 -11.714  1.00 72.97 LIG-0.27  OA
ATOM     26  N   NH2 Z  45     -12.785  20.464 -10.835  1.00 76.38 LIG-0.11  N 
ENDBRANCH 17 24
ENDBRANCH 14 17
ENDBRANCH 12 13
BRANCH 12 27
ATOM     27  CB  LYS Z  43     -10.776  17.011  -7.244  1.00 40.99 LIG 0.04  C 
BRANCH 27 28
ATOM     28  CG  LYS Z  43      -9.620  16.884  -8.230  1.00 39.01 LIG 0.00  C 
BRANCH 28 29
ATOM     29  CD  LYS Z  43      -8.289  17.289  -7.609  1.00 38.38 LIG 0.03  C 
BRANCH 29 30
ATOM     30  CE  LYS Z  43      -7.908  18.709  -8.018  1.00 38.40 LIG 0.23  C 
BRANCH 30 31
ATOM     31  NZ  LYS Z  43      -6.565  18.788  -8.669  1.00 35.26 LIG-0.08  N 
ATOM     32 HZ3  LYS Z  43      -6.602  18.409  -9.474  1.00 35.26 LIG 0.27  HD
ATOM     33 HZ2  LYS Z  43      -5.965  18.361  -8.168  1.00 35.26 LIG 0.27  HD
ATOM     34 HZ1  LYS Z  43      -6.325  19.641  -8.754  1.00 35.26 LIG 0.27  HD
ENDBRANCH 30 31
ENDBRANCH 29 30
ENDBRANCH 28 29
ENDBRANCH 27 28
ENDBRANCH 12 27
ENDBRANCH 10 12
ENDBRANCH 7 8
BRANCH 7 35
ATOM     35  CB  ILE Z  42     -16.366  17.575  -6.517  1.00 30.84 LIG 0.01  C 
ATOM     36  CG2 ILE Z  42     -15.429  17.629  -5.315  1.00 35.03 LIG 0.01  C 
BRANCH 35 37
ATOM     37  CG1 ILE Z  42     -16.877  18.984  -6.808  1.00 30.67 LIG 0.00  C 
ATOM     38  CD1 ILE Z  42     -17.909  19.035  -7.918  1.00 26.38 LIG 0.01  C 
ENDBRANCH 35 37
ENDBRANCH 7 35
ENDBRANCH 5 7
ENDBRANCH 1 3
BRANCH 1 39
ATOM     39  N   ALA Z  41     -15.763  12.851  -6.913  1.00 17.22 LIG-0.35  N 
ATOM     40  C   ASN Z  40     -15.504  11.616  -6.487  1.00 21.77 LIG 0.24  C 
ATOM     41 O    ASN Z  40     -15.067  10.730  -7.224  1.00 19.61 LIG-0.27  OA
ATOM     42 H    ALA Z  41     -16.066  13.479  -6.410  1.00 17.22 LIG 0.16  HD
BRANCH 40 43
ATOM     43  CA  ASN Z  40     -15.768  11.329  -5.014  1.00 23.64 LIG 0.18  C 
BRANCH 43 44
ATOM     44  N   ASN Z  40     -15.696   9.914  -4.662  1.00 28.07 LIG-0.34  N 
ATOM     45 H    ASN Z  40     -14.904   9.576  -4.680  1.00 28.07 LIG 0.16  HD
ATOM     46  C   SER Z  39     -16.794   9.238  -4.345  1.00 29.35 LIG 0.24  C 
ATOM     47 O    SER Z  39     -17.923   9.728  -4.411  1.00 27.34 LIG-0.27  OA
BRANCH 46 48
ATOM     48  CA  SER Z  39     -16.605   7.798  -3.895  1.00 36.10 LIG 0.20  C 
BRANCH 48 49
ATOM     49  N   SER Z  39     -15.371   7.299  -4.488  1.00 45.98 LIG-0.34  N 
ATOM     50  C   ASN Z  38     -15.281   7.028  -5.786  1.00 57.47 LIG 0.24  C 
ATOM     51 O    ASN Z  38     -16.269   6.932  -6.519  1.00 60.64 LIG-0.27  OA
ATOM     52 H    SER Z  39     -14.724   7.200  -3.931  1.00 45.98 LIG 0.16  HD
BRANCH 50 53
ATOM     53  CA  ASN Z  38     -13.861   6.832  -6.337  1.00 65.29 LIG 0.18  C 
BRANCH 53 54
ATOM     54  N   ASN Z  38     -12.757   7.346  -5.520  1.00 70.64 LIG-0.35  N 
ATOM     55 H    ASN Z  38     -12.286   6.728  -5.150  1.00 70.64 LIG 0.16  HD
ATOM     56  C   ACE Z  37     -12.507   8.643  -5.366  1.00 74.22 LIG 0.21  C 
ATOM     57  CH3 ACE Z  37     -11.295   8.995  -4.507  1.00 75.88 LIG 0.12  C 
ATOM     58 O    ACE Z  37     -13.200   9.527  -5.869  1.00 75.32 LIG-0.27  OA
ENDBRANCH 53 54
BRANCH 53 59
ATOM     59  CB  ASN Z  38     -13.641   5.342  -6.637  1.00 65.91 LIG 0.12  C 
BRANCH 59 60
ATOM     60  CG  ASN Z  38     -14.194   4.922  -7.990  1.00 66.48 LIG 0.15  C 
ATOM     61 OD1  ASN Z  38     -15.345   5.478  -8.349  1.00 67.09 LIG-0.18  OA
ATOM     62  ND2 ASN Z  38     -13.599   4.109  -8.700  1.00 65.12 LIG-0.38  N 
ATOM     63 22HD ASN Z  38     -12.855   3.770  -8.434  1.00 65.12 LIG 0.16  HD
ATOM     64 21HD ASN Z  38     -13.929   3.882  -9.461  1.00 65.12 LIG 0.16  HD
ENDBRANCH 59 60
ENDBRANCH 53 59
ENDBRANCH 50 53
ENDBRANCH 48 49
BRANCH 48 65
ATOM     65  CB  SER Z  39     -16.557   7.737  -2.371  1.00 33.12 LIG 0.20  C 
BRANCH 65 66
ATOM     66 OG   SER Z  39     -16.263   6.417  -1.931  1.00 30.52 LIG-0.40  OA
ATOM     67 HG   SER Z  39     -16.640   6.277  -1.193  1.00 30.52 LIG 0.21  HD
ENDBRANCH 65 66
ENDBRANCH 48 65
ENDBRANCH 46 48
ENDBRANCH 43 44
BRANCH 43 68
ATOM     68  CB  ASN Z  40     -14.820  12.162  -4.149  1.00 19.94 LIG 0.14  C 
BRANCH 68 69
ATOM     69  CG  ASN Z  40     -15.128  13.645  -4.217  1.00 19.97 LIG 0.22  C 
ATOM     70 OD1  ASN Z  40     -14.387  14.415  -4.832  1.00 23.42 LIG-0.27  OA
ATOM     71  ND2 ASN Z  40     -16.216  14.058  -3.575  1.00 19.32 LIG-0.37  N 
ATOM     72 21HD ASN Z  40     -16.427  14.892  -3.578  1.00 19.32 LIG 0.16  HD
ATOM     73 22HD ASN Z  40     -16.709  13.491  -3.156  1.00 19.32 LIG 0.16  HD
ENDBRANCH 68 69
ENDBRANCH 43 68
ENDBRANCH 40 43
ENDBRANCH 1 39
TORSDOF 29
ENDMDL
MODEL 3
USER: ADFR SOLUTION from run 181
USER: SCORE 20.959045 LL:  -5.001 LR: -17.376 RR:   0.000 FEB:  -8.725
USER: RMSD 11.999104
USER: SEED 180
USER: STATUS searching
USER: GENES 31
USER: genes 0 Translation |==|  0.56197 0.51233 0.32986
USER: genes 1 Rotation |==|  0.94012 0.46811 0.26493 0.50481
USER: genes 2 Torsion [N]-CA--C-[N] |==|  0.13343
USER: genes 3 Torsion [C]-N--CA-[C] |==|  0.67490
USER: genes 4 Torsion [N]-CA--C-[N] |==|  0.90234
USER: genes 5 Torsion [C]-N--CA-[C] |==|  0.79985
USER: genes 6 Torsion [N]-CA--C-[N] |==|  0.48316
USER: genes 7 Torsion [C]-N--CA-[CB] |==|  0.83752
USER: genes 8 Torsion [N]-CA--CB-[CG] |==|  0.39977
USER: genes 9 Torsion [CA]-CB--CG-[OD1] |==|  0.16500
USER: genes 10 Torsion [N]-CA--C-[N] |==|  0.37026
USER: genes 11 Torsion [N]-CA--CB-[CG] |==|  0.29285
USER: genes 12 Torsion [CA]-CB--CG-[CD] |==|  0.33200
USER: genes 13 Torsion [CB]-CG--CD-[CE] |==|  0.56660
USER: genes 14 Torsion [CG]-CD--CE-[NZ] |==|  0.42645
USER: genes 15 Torsion [CD]-CE--NZ-[HZ3] |==|  0.68290
USER: genes 16 Torsion [N]-CA--CB-[CG1] |==|  0.97417
USER: genes 17 Torsion [CA]-CB--CG1-[CD1] |==|  0.32396
USER: genes 18 Torsion [CB]-CA--N-[C] |==|  0.79970
USER: genes 19 Torsion [N]-C--CA-[N] |==|  0.09579
USER: genes 20 Torsion [C]-CA--N-[C] |==|  0.71584
USER: genes 21 Torsion [N]-C--CA-[N] |==|  0.36883
USER: genes 22 Torsion [C]-CA--N-[C] |==|  0.76948
USER: genes 23 Torsion [N]-C--CA-[N] |==|  0.93772
USER: genes 24 Torsion [C]-CA--N-[C] |==|  0.81239
USER: genes 25 Torsion [C]-CA--CB-[CG] |==|  0.41335
USER: genes 26 Torsion [CA]-CB--CG-[OD1] |==|  0.91355
USER: genes 27 Torsion [C]-CA--CB-[OG] |==|  0.49120
USER: genes 28 Torsion [CA]-CB--OG-[HG] |==|  0.48715
USER: genes 29 Torsion [C]-CA--CB-[CG] |==|  0.27170
USER: genes 30 Torsion [CA]-CB--CG-[OD1] |==|  0.21986
ROOT
ATOM      1  CA  ALA Z  41     -15.493  13.075  -9.177  1.00 21.22 LIG 0.17  C 
ATOM      2  CB  ALA Z  41     -16.422  12.413 -10.193  1.00 23.94 LIG 0.04  C 
ENDROOT
BRANCH 1 3
ATOM      3  C   ALA Z  41     -15.997  14.475  -8.831  1.00 23.72 LIG 0.24  C 
ATOM      4 O    ALA Z  41     -16.920  14.986  -9.465  1.00 25.98 LIG-0.27  OA
ATOM      5  N   ILE Z  42     -15.386  15.095  -7.827  1.00 25.83 LIG-0.35  N 
ATOM      6 H    ILE Z  42     -14.743  14.757  -7.366  1.00 25.83 LIG 0.16  HD
BRANCH 5 7
ATOM      7  CA  ILE Z  42     -15.785  16.440  -7.428  1.00 30.93 LIG 0.18  C 
BRANCH 7 8
ATOM      8  C   ILE Z  42     -14.659  17.459  -7.618  1.00 34.23 LIG 0.24  C 
ATOM      9 O    ILE Z  42     -14.911  18.611  -7.971  1.00 38.88 LIG-0.27  OA
ATOM     10  N   LYS Z  43     -13.419  17.034  -7.393  1.00 34.26 LIG-0.35  N 
ATOM     11 H    LYS Z  43     -13.207  16.219  -7.217  1.00 34.26 LIG 0.16  HD
BRANCH 10 12
ATOM     12  CA  LYS Z  43     -12.293  17.966  -7.432  1.00 43.39 LIG 0.18  C 
BRANCH 12 13
ATOM     13  C   LYS Z  43     -11.928  18.447  -8.838  1.00 55.57 LIG 0.24  C 
ATOM     14  N   ASN Z  44     -10.994  19.391  -8.923  1.00 60.92 LIG-0.34  N 
ATOM     15 H    ASN Z  44     -10.582  19.713  -8.242  1.00 60.92 LIG 0.16  HD
ATOM     16 O    LYS Z  43     -12.490  17.963  -9.823  1.00 61.19 LIG-0.27  OA
BRANCH 14 17
ATOM     17  CA  ASN Z  44     -10.579  19.973 -10.203  1.00 70.44 LIG 0.19  C 
BRANCH 17 18
ATOM     18  CB  ASN Z  44     -10.050  18.897 -11.163  1.00 74.13 LIG 0.14  C 
BRANCH 18 19
ATOM     19  CG  ASN Z  44     -10.418  19.169 -12.611  1.00 76.38 LIG 0.22  C 
ATOM     20  ND2 ASN Z  44     -11.139  18.236 -13.225  1.00 76.67 LIG-0.37  N 
ATOM     21 21HD ASN Z  44     -11.373  18.343 -14.045  1.00 76.67 LIG 0.16  HD
ATOM     22 22HD ASN Z  44     -11.373  17.525 -12.801  1.00 76.67 LIG 0.16  HD
ATOM     23 OD1  ASN Z  44     -10.057  20.205 -13.171  1.00 76.30 LIG-0.27  OA
ENDBRANCH 18 19
ENDBRANCH 17 18
BRANCH 17 24
ATOM     24  C   ASN Z  44     -11.690  20.780 -10.879  1.00 74.17 LIG 0.28  C 
ATOM     25 O    ASN Z  44     -12.833  20.328 -10.974  1.00 72.97 LIG-0.27  OA
ATOM     26  N   NH2 Z  45     -11.345  21.975 -11.348  1.00 76.38 LIG-0.11  N 
ENDBRANCH 17 24
ENDBRANCH 14 17
ENDBRANCH 12 13
BRANCH 12 27
ATOM     27  CB  LYS Z  43     -11.069  17.382  -6.719  1.00 40.99 LIG 0.04  C 
BRANCH 27 28
ATOM     28  CG  LYS Z  43      -9.978  16.910  -7.675  1.00 39.01 LIG 0.00  C 
BRANCH 28 29
ATOM     29  CD  LYS Z  43      -8.666  17.653  -7.458  1.00 38.38 LIG 0.03  C 
BRANCH 29 30
ATOM     30  CE  LYS Z  43      -7.812  17.626  -8.723  1.00 38.40 LIG 0.23  C 
BRANCH 30 31
ATOM     31  NZ  LYS Z  43      -6.875  18.788  -8.819  1.00 35.26 LIG-0.08  N 
ATOM     32 HZ3  LYS Z  43      -7.108  19.301  -9.509  1.00 35.26 LIG 0.27  HD
ATOM     33 HZ2  LYS Z  43      -6.044  18.491  -8.937  1.00 35.26 LIG 0.27  HD
ATOM     34 HZ1  LYS Z  43      -6.915  19.265  -8.069  1.00 35.26 LIG 0.27  HD
ENDBRANCH 30 31
ENDBRANCH 29 30
ENDBRANCH 28 29
ENDBRANCH 27 28
ENDBRANCH 12 27
ENDBRANCH 10 12
ENDBRANCH 7 8
BRANCH 7 35
ATOM     35  CB  ILE Z  42     -16.272  16.490  -5.968  1.00 30.84 LIG 0.01  C 
ATOM     36  CG2 ILE Z  42     -17.617  17.202  -5.879  1.00 35.03 LIG 0.01  C 
BRANCH 35 37
ATOM     37  CG1 ILE Z  42     -16.421  15.079  -5.405  1.00 30.67 LIG 0.00  C 
ATOM     38  CD1 ILE Z  42     -15.488  14.789  -4.245  1.00 26.38 LIG 0.01  C 
ENDBRANCH 35 37
ENDBRANCH 7 35
ENDBRANCH 5 7
ENDBRANCH 1 3
BRANCH 1 39
ATOM     39  N   ALA Z  41     -15.364  12.248  -7.979  1.00 17.22 LIG-0.35  N 
ATOM     40  C   ASN Z  40     -16.363  12.126  -7.107  1.00 21.77 LIG 0.24  C 
ATOM     41 O    ASN Z  40     -17.450  12.691  -7.247  1.00 19.61 LIG-0.27  OA
ATOM     42 H    ALA Z  41     -14.603  11.859  -7.895  1.00 17.22 LIG 0.16  HD
BRANCH 40 43
ATOM     43  CA  ASN Z  40     -16.112  11.234  -5.897  1.00 23.64 LIG 0.18  C 
BRANCH 43 44
ATOM     44  N   ASN Z  40     -14.737  11.271  -5.407  1.00 28.07 LIG-0.34  N 
ATOM     45 H    ASN Z  40     -14.536  11.966  -4.942  1.00 28.07 LIG 0.16  HD
ATOM     46  C   SER Z  39     -13.895  10.282  -5.683  1.00 29.35 LIG 0.24  C 
ATOM     47 O    SER Z  39     -14.187   9.340  -6.422  1.00 27.34 LIG-0.27  OA
BRANCH 46 48
ATOM     48  CA  SER Z  39     -12.516  10.360  -5.045  1.00 36.10 LIG 0.20  C 
BRANCH 48 49
ATOM     49  N   SER Z  39     -12.213   9.056  -4.469  1.00 45.98 LIG-0.34  N 
ATOM     50  C   ASN Z  38     -12.658   8.704  -3.266  1.00 57.47 LIG 0.24  C 
ATOM     51 O    ASN Z  38     -13.125   9.515  -2.463  1.00 60.64 LIG-0.27  OA
ATOM     52 H    SER Z  39     -11.731   8.549  -4.969  1.00 45.98 LIG 0.16  HD
BRANCH 50 53
ATOM     53  CA  ASN Z  38     -12.554   7.212  -2.920  1.00 65.29 LIG 0.18  C 
BRANCH 53 54
ATOM     54  N   ASN Z  38     -12.474   6.274  -4.044  1.00 70.64 LIG-0.35  N 
ATOM     55 H    ASN Z  38     -11.714   5.876  -4.107  1.00 70.64 LIG 0.16  HD
ATOM     56  C   ACE Z  37     -13.481   6.060  -4.887  1.00 74.22 LIG 0.21  C 
ATOM     57  CH3 ACE Z  37     -13.230   5.023  -5.979  1.00 75.88 LIG 0.12  C 
ATOM     58 O    ACE Z  37     -14.556   6.652  -4.817  1.00 75.32 LIG-0.27  OA
ENDBRANCH 53 54
BRANCH 53 59
ATOM     59  CB  ASN Z  38     -11.363   6.998  -1.974  1.00 65.91 LIG 0.12  C 
BRANCH 59 60
ATOM     60  CG  ASN Z  38     -11.574   5.843  -1.007  1.00 66.48 LIG 0.15  C 
ATOM     61 OD1  ASN Z  38     -12.828   5.613  -0.636  1.00 67.09 LIG-0.18  OA
ATOM     62  ND2 ASN Z  38     -10.627   5.171  -0.596  1.00 65.12 LIG-0.38  N 
ATOM     63 22HD ASN Z  38      -9.827   5.349  -0.859  1.00 65.12 LIG 0.16  HD
ATOM     64 21HD ASN Z  38     -10.765   4.523  -0.048  1.00 65.12 LIG 0.16  HD
ENDBRANCH 59 60
ENDBRANCH 53 59
ENDBRANCH 50 53
ENDBRANCH 48 49
BRANCH 48 65
ATOM     65  CB  SER Z  39     -11.484  10.760  -6.094  1.00 33.12 LIG 0.20  C 
BRANCH 65 66
ATOM     66 OG   SER Z  39     -10.199  10.910  -5.503  1.00 30.52 LIG-0.40  OA
ATOM     67 HG   SER Z  39      -9.632  11.068  -6.101  1.00 30.52 LIG 0.21  HD
ENDBRANCH 65 66
ENDBRANCH 48 65
ENDBRANCH 46 48
ENDBRANCH 43 44
BRANCH 43 68
ATOM     68  CB  ASN Z  40     -17.103  11.586  -4.785  1.00 19.94 LIG 0.14  C 
BRANCH 68 69
ATOM     69  CG  ASN Z  40     -18.296  10.650  -4.756  1.00 19.97 LIG 0.22  C 
ATOM     70 OD1  ASN Z  40     -18.206   9.531  -4.246  1.00 23.42 LIG-0.27  OA
ATOM     71  ND2 ASN Z  40     -19.416  11.095  -5.314  1.00 19.32 LIG-0.37  N 
ATOM     72 21HD ASN Z  40     -20.117  10.596  -5.329  1.00 19.32 LIG 0.16  HD
ATOM     73 22HD ASN Z  40     -19.441  11.882  -5.661  1.00 19.32 LIG 0.16  HD
ENDBRANCH 68 69
ENDBRANCH 43 68
ENDBRANCH 40 43
ENDBRANCH 1 39
TORSDOF 29
ENDMDL
MODEL 4
USER: ADFR SOLUTION from run 140
USER: SCORE 19.129669 LL:  -4.891 LR: -17.137 RR:   0.000 FEB:  -8.486
USER: RMSD 5.278209
USER: SEED 139
USER: STATUS searching
USER: GENES 31
USER: genes 0 Translation |==|  0.60261 0.43790 0.44430
USER: genes 1 Rotation |==|  0.47955 0.61250 0.36334 0.96717
USER: genes 2 Torsion [N]-CA--C-[N] |==|  0.78323
USER: genes 3 Torsion [C]-N--CA-[C] |==|  0.15269
USER: genes 4 Torsion [N]-CA--C-[N] |==|  0.11769
USER: genes 5 Torsion [C]-N--CA-[C] |==|  0.82512
USER: genes 6 Torsion [N]-CA--C-[N] |==|  0.88766
USER: genes 7 Torsion [C]-N--CA-[CB] |==|  0.86111
USER: genes 8 Torsion [N]-CA--CB-[CG] |==|  0.56782
USER: genes 9 Torsion [CA]-CB--CG-[OD1] |==|  0.08527
USER: genes 10 Torsion [N]-CA--C-[N] |==|  0.36455
USER: genes 11 Torsion [N]-CA--CB-[CG] |==|  0.23242
USER: genes 12 Torsion [CA]-CB--CG-[CD] |==|  0.38121
USER: genes 13 Torsion [CB]-CG--CD-[CE] |==|  0.51281
USER: genes 14 Torsion [CG]-CD--CE-[NZ] |==|  0.64251
USER: genes 15 Torsion [CD]-CE--NZ-[HZ3] |==|  0.63600
USER: genes 16 Torsion [N]-CA--CB-[CG1] |==|  0.86774
USER: genes 17 Torsion [CA]-CB--CG1-[CD1] |==|  0.26702
USER: genes 18 Torsion [CB]-CA--N-[C] |==|  0.41826
USER: genes 19 Torsion [N]-C--CA-[N] |==|  0.97942
USER: genes 20 Torsion [C]-CA--N-[C] |==|  0.64029
USER: genes 21 Torsion [N]-C--CA-[N] |==|  0.23496
USER: genes 22 Torsion [C]-CA--N-[C] |==|  0.77666
USER: genes 23 Torsion [N]-C--CA-[N] |==|  0.11206
USER: genes 24 Torsion [C]-CA--N-[C] |==|  0.61332
USER: genes 25 Torsion [C]-CA--CB-[CG] |==|  0.39642
USER: genes 26 Torsion [CA]-CB--CG-[OD1] |==|  0.71695
USER: genes 27 Torsion [C]-CA--CB-[OG] |==|  0.65368
USER: genes 28 Torsion [CA]-CB--OG-[HG] |==|  0.59335
USER: genes 29 Torsion [C]-CA--CB-[CG] |==|  0.16849
USER: genes 30 Torsion [CA]-CB--CG-[OD1] |==|  0.10235
ROOT
ATOM      1  CA  ALA Z  41     -14.517  11.344  -6.602  1.00 21.22 LIG 0.17  C 
ATOM      2  CB  ALA Z  41     -13.300  11.638  -5.728  1.00 23.94 LIG 0.04  C 
ENDROOT
BRANCH 1 3
ATOM      3  C   ALA Z  41     -15.585  10.609  -5.794  1.00 23.72 LIG 0.24  C 
ATOM      4 O    ALA Z  41     -16.167   9.630  -6.263  1.00 25.98 LIG-0.27  OA
ATOM      5  N   ILE Z  42     -15.844  11.084  -4.581  1.00 25.83 LIG-0.35  N 
ATOM      6 H    ILE Z  42     -15.448  11.762  -4.229  1.00 25.83 LIG 0.16  HD
BRANCH 5 7
ATOM      7  CA  ILE Z  42     -16.857  10.460  -3.736  1.00 30.93 LIG 0.18  C 
BRANCH 7 8
ATOM      8  C   ILE Z  42     -16.604   8.965  -3.536  1.00 34.23 LIG 0.24  C 
ATOM      9 O    ILE Z  42     -17.537   8.162  -3.576  1.00 38.88 LIG-0.27  OA
ATOM     10  N   LYS Z  43     -15.347   8.591  -3.312  1.00 34.26 LIG-0.35  N 
ATOM     11 H    LYS Z  43     -14.689   9.135  -3.206  1.00 34.26 LIG 0.16  HD
BRANCH 10 12
ATOM     12  CA  LYS Z  43     -14.994   7.175  -3.229  1.00 43.39 LIG 0.18  C 
BRANCH 12 13
ATOM     13  C   LYS Z  43     -15.661   6.431  -2.072  1.00 55.57 LIG 0.24  C 
ATOM     14  N   ASN Z  44     -15.743   7.078  -0.912  1.00 60.92 LIG-0.34  N 
ATOM     15 H    ASN Z  44     -15.466   7.883  -0.797  1.00 60.92 LIG 0.16  HD
ATOM     16 O    LYS Z  43     -16.093   5.288  -2.239  1.00 61.19 LIG-0.27  OA
BRANCH 14 17
ATOM     17  CA  ASN Z  44     -16.319   6.468   0.290  1.00 70.44 LIG 0.19  C 
BRANCH 17 18
ATOM     18  CB  ASN Z  44     -17.690   5.841  -0.001  1.00 74.13 LIG 0.14  C 
BRANCH 18 19
ATOM     19  CG  ASN Z  44     -18.564   5.738   1.236  1.00 76.38 LIG 0.22  C 
ATOM     20  ND2 ASN Z  44     -19.422   4.722   1.273  1.00 76.67 LIG-0.37  N 
ATOM     21 21HD ASN Z  44     -19.939   4.620   1.952  1.00 76.67 LIG 0.16  HD
ATOM     22 22HD ASN Z  44     -19.460   4.167   0.618  1.00 76.67 LIG 0.16  HD
ATOM     23 OD1  ASN Z  44     -18.469   6.560   2.148  1.00 76.30 LIG-0.27  OA
ENDBRANCH 18 19
ENDBRANCH 17 18
BRANCH 17 24
ATOM     24  C   ASN Z  44     -15.394   5.433   0.935  1.00 74.17 LIG 0.28  C 
ATOM     25 O    ASN Z  44     -14.866   4.548   0.258  1.00 72.97 LIG-0.27  OA
ATOM     26  N   NH2 Z  45     -15.206   5.549   2.246  1.00 76.38 LIG-0.11  N 
ENDBRANCH 17 24
ENDBRANCH 14 17
ENDBRANCH 12 13
BRANCH 12 27
ATOM     27  CB  LYS Z  43     -13.473   6.988  -3.196  1.00 40.99 LIG 0.04  C 
BRANCH 27 28
ATOM     28  CG  LYS Z  43     -12.874   7.143  -1.802  1.00 39.01 LIG 0.00  C 
BRANCH 28 29
ATOM     29  CD  LYS Z  43     -11.824   6.080  -1.507  1.00 38.38 LIG 0.03  C 
BRANCH 29 30
ATOM     30  CE  LYS Z  43     -11.326   6.191  -0.069  1.00 38.40 LIG 0.23  C 
BRANCH 30 31
ATOM     31  NZ  LYS Z  43      -9.835   6.241   0.031  1.00 35.26 LIG-0.08  N 
ATOM     32 HZ3  LYS Z  43      -9.558   5.656   0.641  1.00 35.26 LIG 0.27  HD
ATOM     33 HZ2  LYS Z  43      -9.580   7.060   0.269  1.00 35.26 LIG 0.27  HD
ATOM     34 HZ1  LYS Z  43      -9.477   6.038  -0.759  1.00 35.26 LIG 0.27  HD
ENDBRANCH 30 31
ENDBRANCH 29 30
ENDBRANCH 28 29
ENDBRANCH 27 28
ENDBRANCH 12 27
ENDBRANCH 10 12
ENDBRANCH 7 8
BRANCH 7 35
ATOM     35  CB  ILE Z  42     -18.278  10.664  -4.291  1.00 30.84 LIG 0.01  C 
ATOM     36  CG2 ILE Z  42     -19.319  10.262  -3.251  1.00 35.03 LIG 0.01  C 
BRANCH 35 37
ATOM     37  CG1 ILE Z  42     -18.500  12.125  -4.673  1.00 30.67 LIG 0.00  C 
ATOM     38  CD1 ILE Z  42     -18.265  12.407  -6.145  1.00 26.38 LIG 0.01  C 
ENDBRANCH 35 37
ENDBRANCH 7 35
ENDBRANCH 5 7
ENDBRANCH 1 3
BRANCH 1 39
ATOM     39  N   ALA Z  41     -15.047  12.577  -7.181  1.00 17.22 LIG-0.35  N 
ATOM     40  C   ASN Z  40     -15.673  12.581  -8.356  1.00 21.77 LIG 0.24  C 
ATOM     41 O    ASN Z  40     -15.850  11.563  -9.027  1.00 19.61 LIG-0.27  OA
ATOM     42 H    ALA Z  41     -14.918  13.279  -6.702  1.00 17.22 LIG 0.16  HD
BRANCH 40 43
ATOM     43  CA  ASN Z  40     -16.184  13.928  -8.856  1.00 23.64 LIG 0.18  C 
BRANCH 43 44
ATOM     44  N   ASN Z  40     -16.059  15.009  -7.883  1.00 28.07 LIG-0.34  N 
ATOM     45 H    ASN Z  40     -15.279  15.090  -7.529  1.00 28.07 LIG 0.16  HD
ATOM     46  C   SER Z  39     -17.098  15.785  -7.597  1.00 29.35 LIG 0.24  C 
ATOM     47 O    SER Z  39     -18.225  15.591  -8.058  1.00 27.34 LIG-0.27  OA
BRANCH 46 48
ATOM     48  CA  SER Z  39     -16.844  16.947  -6.650  1.00 36.10 LIG 0.20  C 
BRANCH 48 49
ATOM     49  N   SER Z  39     -16.335  18.064  -7.434  1.00 45.98 LIG-0.34  N 
ATOM     50  C   ASN Z  38     -15.060  18.134  -7.804  1.00 57.47 LIG 0.24  C 
ATOM     51 O    ASN Z  38     -14.183  17.420  -7.313  1.00 60.64 LIG-0.27  OA
ATOM     52 H    SER Z  39     -16.925  18.659  -7.630  1.00 45.98 LIG 0.16  HD
BRANCH 50 53
ATOM     53  CA  ASN Z  38     -14.728  19.170  -8.888  1.00 65.29 LIG 0.18  C 
BRANCH 53 54
ATOM     54  N   ASN Z  38     -15.402  20.468  -8.793  1.00 70.64 LIG-0.35  N 
ATOM     55 H    ASN Z  38     -15.458  20.769  -7.989  1.00 70.64 LIG 0.16  HD
ATOM     56  C   ACE Z  37     -15.883  21.119  -9.849  1.00 74.22 LIG 0.21  C 
ATOM     57  CH3 ACE Z  37     -16.524  22.476  -9.565  1.00 75.88 LIG 0.12  C 
ATOM     58 O    ACE Z  37     -15.832  20.675 -10.995  1.00 75.32 LIG-0.27  OA
ENDBRANCH 53 54
BRANCH 53 59
ATOM     59  CB  ASN Z  38     -13.207  19.372  -8.940  1.00 65.91 LIG 0.12  C 
BRANCH 59 60
ATOM     60  CG  ASN Z  38     -12.685  19.572 -10.354  1.00 66.48 LIG 0.15  C 
ATOM     61 OD1  ASN Z  38     -12.106  18.519 -10.919  1.00 67.09 LIG-0.18  OA
ATOM     62  ND2 ASN Z  38     -12.795  20.657 -10.929  1.00 65.12 LIG-0.38  N 
ATOM     63 22HD ASN Z  38     -13.177  21.317 -10.532  1.00 65.12 LIG 0.16  HD
ATOM     64 21HD ASN Z  38     -12.491  20.753 -11.728  1.00 65.12 LIG 0.16  HD
ENDBRANCH 59 60
ENDBRANCH 53 59
ENDBRANCH 50 53
ENDBRANCH 48 49
BRANCH 48 65
ATOM     65  CB  SER Z  39     -18.136  17.315  -5.927  1.00 33.12 LIG 0.20  C 
BRANCH 65 66
ATOM     66 OG   SER Z  39     -18.443  18.690  -6.116  1.00 30.52 LIG-0.40  OA
ATOM     67 HG   SER Z  39     -18.817  18.992  -5.427  1.00 30.52 LIG 0.21  HD
ENDBRANCH 65 66
ENDBRANCH 48 65
ENDBRANCH 46 48
ENDBRANCH 43 44
BRANCH 43 68
ATOM     68  CB  ASN Z  40     -15.487  14.285 -10.171  1.00 19.94 LIG 0.14  C 
BRANCH 68 69
ATOM     69  CG  ASN Z  40     -15.754  13.267 -11.262  1.00 19.97 LIG 0.22  C 
ATOM     70 OD1  ASN Z  40     -16.856  12.723 -11.361  1.00 23.42 LIG-0.27  OA
ATOM     71  ND2 ASN Z  40     -14.743  12.992 -12.081  1.00 19.32 LIG-0.37  N 
ATOM     72 21HD ASN Z  40     -14.844  12.415 -12.710  1.00 19.32 LIG 0.16  HD
ATOM     73 22HD ASN Z  40     -13.988  13.392 -11.980  1.00 19.32 LIG 0.16  HD
ENDBRANCH 68 69
ENDBRANCH 43 68
ENDBRANCH 40 43
ENDBRANCH 1 39
TORSDOF 29
ENDMDL
MODEL 5
USER: ADFR SOLUTION from run 125
USER: SCORE 19.015867 LL:  -4.334 LR: -16.992 RR:   0.000 FEB:  -8.342
USER: RMSD 12.083345
USER: SEED 124
USER: STATUS no improvement in best in 18 clusters for 5 generations
USER: GENES 31
USER: genes 0 Translation |==|  0.55769 0.51711 0.37308
USER: genes 1 Rotation |==|  0.97835 0.37450 0.43312 0.53096
USER: genes 2 Torsion [N]-CA--C-[N] |==|  0.18937
USER: genes 3 Torsion [C]-N--CA-[C] |==|  0.64400
USER: genes 4 Torsion [N]-CA--C-[N] |==|  0.28954
USER: genes 5 Torsion [C]-N--CA-[C] |==|  0.55322
USER: genes 6 Torsion [N]-CA--C-[N] |==|  0.45789
USER: genes 7 Torsion [C]-N--CA-[CB] |==|  0.86667
USER: genes 8 Torsion [N]-CA--CB-[CG] |==|  0.43942
USER: genes 9 Torsion [CA]-CB--CG-[OD1] |==|  0.69660
USER: genes 10 Torsion [N]-CA--C-[N] |==|  0.41576
USER: genes 11 Torsion [N]-CA--CB-[CG] |==|  0.37112
USER: genes 12 Torsion [CA]-CB--CG-[CD] |==|  0.37758
USER: genes 13 Torsion [CB]-CG--CD-[CE] |==|  0.76755
USER: genes 14 Torsion [CG]-CD--CE-[NZ] |==|  0.72676
USER: genes 15 Torsion [CD]-CE--NZ-[HZ3] |==|  0.16089
USER: genes 16 Torsion [N]-CA--CB-[CG1] |==|  0.88584
USER: genes 17 Torsion [CA]-CB--CG1-[CD1] |==|  0.68170
USER: genes 18 Torsion [CB]-CA--N-[C] |==|  0.83014
USER: genes 19 Torsion [N]-C--CA-[N] |==|  0.82485
USER: genes 20 Torsion [C]-CA--N-[C] |==|  0.19010
USER: genes 21 Torsion [N]-C--CA-[N] |==|  0.38130
USER: genes 22 Torsion [C]-CA--N-[C] |==|  0.61716
USER: genes 23 Torsion [N]-C--CA-[N] |==|  0.08095
USER: genes 24 Torsion [C]-CA--N-[C] |==|  0.16521
USER: genes 25 Torsion [C]-CA--CB-[CG] |==|  0.39335
USER: genes 26 Torsion [CA]-CB--CG-[OD1] |==|  0.01593
USER: genes 27 Torsion [C]-CA--CB-[OG] |==|  0.52345
USER: genes 28 Torsion [CA]-CB--OG-[HG] |==|  0.37550
USER: genes 29 Torsion [C]-CA--CB-[CG] |==|  0.23640
USER: genes 30 Torsion [CA]-CB--CG-[OD1] |==|  0.02388
ROOT
ATOM      1  CA  ALA Z  41     -15.595  13.186  -8.205  1.00 21.22 LIG 0.17  C 
ATOM      2  CB  ALA Z  41     -15.940  12.331  -9.423  1.00 23.94 LIG 0.04  C 
ENDROOT
BRANCH 1 3
ATOM      3  C   ALA Z  41     -15.684  14.670  -8.556  1.00 23.72 LIG 0.24  C 
ATOM      4 O    ALA Z  41     -16.191  15.037  -9.616  1.00 25.98 LIG-0.27  OA
ATOM      5  N   ILE Z  42     -15.187  15.522  -7.665  1.00 25.83 LIG-0.35  N 
ATOM      6 H    ILE Z  42     -14.833  15.291  -6.916  1.00 25.83 LIG 0.16  HD
BRANCH 5 7
ATOM      7  CA  ILE Z  42     -15.211  16.959  -7.914  1.00 30.93 LIG 0.18  C 
BRANCH 7 8
ATOM      8  C   ILE Z  42     -13.835  17.603  -7.734  1.00 34.23 LIG 0.24  C 
ATOM      9 O    ILE Z  42     -13.383  17.808  -6.607  1.00 38.88 LIG-0.27  OA
ATOM     10  N   LYS Z  43     -13.174  17.928  -8.841  1.00 34.26 LIG-0.35  N 
ATOM     11 H    LYS Z  43     -13.494  17.864  -9.637  1.00 34.26 LIG 0.16  HD
BRANCH 10 12
ATOM     12  CA  LYS Z  43     -11.805  18.436  -8.769  1.00 43.39 LIG 0.18  C 
BRANCH 12 13
ATOM     13  C   LYS Z  43     -11.348  19.185 -10.022  1.00 55.57 LIG 0.24  C 
ATOM     14  N   ASN Z  44     -10.252  19.930  -9.908  1.00 60.92 LIG-0.34  N 
ATOM     15 H    ASN Z  44      -9.788  19.985  -9.185  1.00 60.92 LIG 0.16  HD
ATOM     16 O    LYS Z  43     -11.988  19.083 -11.071  1.00 61.19 LIG-0.27  OA
BRANCH 14 17
ATOM     17  CA  ASN Z  44      -9.727  20.733 -11.016  1.00 70.44 LIG 0.19  C 
BRANCH 17 18
ATOM     18  CB  ASN Z  44      -9.652  19.916 -12.314  1.00 74.13 LIG 0.14  C 
BRANCH 18 19
ATOM     19  CG  ASN Z  44      -9.633  20.789 -13.557  1.00 76.38 LIG 0.22  C 
ATOM     20  ND2 ASN Z  44      -8.521  21.486 -13.775  1.00 76.67 LIG-0.37  N 
ATOM     21 21HD ASN Z  44      -8.461  21.995 -14.465  1.00 76.67 LIG 0.16  HD
ATOM     22 22HD ASN Z  44      -7.862  21.428 -13.225  1.00 76.67 LIG 0.16  HD
ATOM     23 OD1  ASN Z  44     -10.605  20.836 -14.312  1.00 76.30 LIG-0.27  OA
ENDBRANCH 18 19
ENDBRANCH 17 18
BRANCH 17 24
ATOM     24  C   ASN Z  44     -10.524  22.019 -11.249  1.00 74.17 LIG 0.28  C 
ATOM     25 O    ASN Z  44     -11.730  22.071 -10.996  1.00 72.97 LIG-0.27  OA
ATOM     26  N   NH2 Z  45      -9.843  23.053 -11.734  1.00 76.38 LIG-0.11  N 
ENDBRANCH 17 24
ENDBRANCH 14 17
ENDBRANCH 12 13
BRANCH 12 27
ATOM     27  CB  LYS Z  43     -10.820  17.317  -8.411  1.00 40.99 LIG 0.04  C 
BRANCH 27 28
ATOM     28  CG  LYS Z  43      -9.574  17.303  -9.290  1.00 39.01 LIG 0.00  C 
BRANCH 28 29
ATOM     29  CD  LYS Z  43      -8.302  17.095  -8.478  1.00 38.38 LIG 0.03  C 
BRANCH 29 30
ATOM     30  CE  LYS Z  43      -7.805  18.417  -7.899  1.00 38.40 LIG 0.23  C 
BRANCH 30 31
ATOM     31  NZ  LYS Z  43      -6.713  19.036  -8.710  1.00 35.26 LIG-0.08  N 
ATOM     32 HZ3  LYS Z  43      -7.000  19.169  -9.543  1.00 35.26 LIG 0.27  HD
ATOM     33 HZ2  LYS Z  43      -6.007  18.493  -8.724  1.00 35.26 LIG 0.27  HD
ATOM     34 HZ1  LYS Z  43      -6.480  19.816  -8.349  1.00 35.26 LIG 0.27  HD
ENDBRANCH 30 31
ENDBRANCH 29 30
ENDBRANCH 28 29
ENDBRANCH 27 28
ENDBRANCH 12 27
ENDBRANCH 10 12
ENDBRANCH 7 8
BRANCH 7 35
ATOM     35  CB  ILE Z  42     -16.230  17.684  -7.014  1.00 30.84 LIG 0.01  C 
ATOM     36  CG2 ILE Z  42     -16.562  19.058  -7.586  1.00 35.03 LIG 0.01  C 
BRANCH 35 37
ATOM     37  CG1 ILE Z  42     -17.518  16.871  -6.902  1.00 30.67 LIG 0.00  C 
ATOM     38  CD1 ILE Z  42     -18.720  17.556  -7.524  1.00 26.38 LIG 0.01  C 
ENDBRANCH 35 37
ENDBRANCH 7 35
ENDBRANCH 5 7
ENDBRANCH 1 3
BRANCH 1 39
ATOM     39  N   ALA Z  41     -16.466  12.855  -7.079  1.00 17.22 LIG-0.35  N 
ATOM     40  C   ASN Z  40     -17.786  13.014  -7.150  1.00 21.77 LIG 0.24  C 
ATOM     41 O    ASN Z  40     -18.358  13.441  -8.154  1.00 19.61 LIG-0.27  OA
ATOM     42 H    ALA Z  41     -16.055  12.557  -6.386  1.00 17.22 LIG 0.16  HD
BRANCH 40 43
ATOM     43  CA  ASN Z  40     -18.591  12.634  -5.912  1.00 23.64 LIG 0.18  C 
BRANCH 43 44
ATOM     44  N   ASN Z  40     -18.505  11.220  -5.559  1.00 28.07 LIG-0.34  N 
ATOM     45 H    ASN Z  40     -19.234  10.775  -5.665  1.00 28.07 LIG 0.16  HD
ATOM     46  C   SER Z  39     -17.367  10.702  -5.112  1.00 29.35 LIG 0.24  C 
ATOM     47 O    SER Z  39     -16.363  11.383  -4.891  1.00 27.34 LIG-0.27  OA
BRANCH 46 48
ATOM     48  CA  SER Z  39     -17.348   9.201  -4.867  1.00 36.10 LIG 0.20  C 
BRANCH 48 49
ATOM     49  N   SER Z  39     -16.088   8.678  -5.379  1.00 45.98 LIG-0.34  N 
ATOM     50  C   ASN Z  38     -16.033   7.540  -6.065  1.00 57.47 LIG 0.24  C 
ATOM     51 O    ASN Z  38     -16.966   6.735  -6.099  1.00 60.64 LIG-0.27  OA
ATOM     52 H    SER Z  39     -15.402   9.164  -5.198  1.00 45.98 LIG 0.16  HD
BRANCH 50 53
ATOM     53  CA  ASN Z  38     -14.723   7.273  -6.821  1.00 65.29 LIG 0.18  C 
BRANCH 53 54
ATOM     54  N   ASN Z  38     -13.501   7.851  -6.254  1.00 70.64 LIG-0.35  N 
ATOM     55 H    ASN Z  38     -13.096   8.392  -6.787  1.00 70.64 LIG 0.16  HD
ATOM     56  C   ACE Z  37     -13.058   7.566  -5.033  1.00 74.22 LIG 0.21  C 
ATOM     57  CH3 ACE Z  37     -11.785   8.288  -4.596  1.00 75.88 LIG 0.12  C 
ATOM     58 O    ACE Z  37     -13.617   6.768  -4.282  1.00 75.32 LIG-0.27  OA
ENDBRANCH 53 54
BRANCH 53 59
ATOM     59  CB  ASN Z  38     -14.549   5.758  -7.005  1.00 65.91 LIG 0.12  C 
BRANCH 59 60
ATOM     60  CG  ASN Z  38     -13.963   5.389  -8.358  1.00 66.48 LIG 0.15  C 
ATOM     61 OD1  ASN Z  38     -13.579   6.403  -9.125  1.00 67.09 LIG-0.18  OA
ATOM     62  ND2 ASN Z  38     -13.859   4.213  -8.711  1.00 65.12 LIG-0.38  N 
ATOM     63 22HD ASN Z  38     -14.118   3.582  -8.187  1.00 65.12 LIG 0.16  HD
ATOM     64 21HD ASN Z  38     -13.527   4.024  -9.482  1.00 65.12 LIG 0.16  HD
ENDBRANCH 59 60
ENDBRANCH 53 59
ENDBRANCH 50 53
ENDBRANCH 48 49
BRANCH 48 65
ATOM     65  CB  SER Z  39     -17.506   8.920  -3.376  1.00 33.12 LIG 0.20  C 
BRANCH 65 66
ATOM     66 OG   SER Z  39     -17.297   7.540  -3.101  1.00 30.52 LIG-0.40  OA
ATOM     67 HG   SER Z  39     -16.805   7.460  -2.425  1.00 30.52 LIG 0.21  HD
ENDBRANCH 65 66
ENDBRANCH 48 65
ENDBRANCH 46 48
ENDBRANCH 43 44
BRANCH 43 68
ATOM     68  CB  ASN Z  40     -18.177  13.522  -4.737  1.00 19.94 LIG 0.14  C 
BRANCH 68 69
ATOM     69  CG  ASN Z  40     -18.925  14.841  -4.718  1.00 19.97 LIG 0.22  C 
ATOM     70 OD1  ASN Z  40     -19.869  15.041  -5.485  1.00 23.42 LIG-0.27  OA
ATOM     71  ND2 ASN Z  40     -18.501  15.754  -3.849  1.00 19.32 LIG-0.37  N 
ATOM     72 21HD ASN Z  40     -18.889  16.520  -3.808  1.00 19.32 LIG 0.16  HD
ATOM     73 22HD ASN Z  40     -17.839  15.578  -3.330  1.00 19.32 LIG 0.16  HD
ENDBRANCH 68 69
ENDBRANCH 43 68
ENDBRANCH 40 43
ENDBRANCH 1 39
TORSDOF 29
ENDMDL
MODEL 6
USER: ADFR SOLUTION from run 115
USER: SCORE 20.401480 LL:  -4.778 LR: -16.975 RR:   0.000 FEB:  -8.324
USER: RMSD 12.685340
USER: SEED 114
USER: STATUS no improvement in best in 7 clusters for 5 generations
USER: GENES 31
USER: genes 0 Translation |==|  0.56174 0.51613 0.35925
USER: genes 1 Rotation |==|  0.93606 0.35187 0.31489 0.56032
USER: genes 2 Torsion [N]-CA--C-[N] |==|  0.10286
USER: genes 3 Torsion [C]-N--CA-[C] |==|  0.66276
USER: genes 4 Torsion [N]-CA--C-[N] |==|  0.35846
USER: genes 5 Torsion [C]-N--CA-[C] |==|  0.56002
USER: genes 6 Torsion [N]-CA--C-[N] |==|  0.49378
USER: genes 7 Torsion [C]-N--CA-[CB] |==|  0.83878
USER: genes 8 Torsion [N]-CA--CB-[CG] |==|  0.84468
USER: genes 9 Torsion [CA]-CB--CG-[OD1] |==|  0.25706
USER: genes 10 Torsion [N]-CA--C-[N] |==|  0.40448
USER: genes 11 Torsion [N]-CA--CB-[CG] |==|  0.67302
USER: genes 12 Torsion [CA]-CB--CG-[CD] |==|  0.68367
USER: genes 13 Torsion [CB]-CG--CD-[CE] |==|  0.38996
USER: genes 14 Torsion [CG]-CD--CE-[NZ] |==|  0.56160
USER: genes 15 Torsion [CD]-CE--NZ-[HZ3] |==|  0.04503
USER: genes 16 Torsion [N]-CA--CB-[CG1] |==|  0.84448
USER: genes 17 Torsion [CA]-CB--CG1-[CD1] |==|  0.50649
USER: genes 18 Torsion [CB]-CA--N-[C] |==|  0.19054
USER: genes 19 Torsion [N]-C--CA-[N] |==|  0.51384
USER: genes 20 Torsion [C]-CA--N-[C] |==|  0.78099
USER: genes 21 Torsion [N]-C--CA-[N] |==|  0.99421
USER: genes 22 Torsion [C]-CA--N-[C] |==|  0.66225
USER: genes 23 Torsion [N]-C--CA-[N] |==|  0.35195
USER: genes 24 Torsion [C]-CA--N-[C] |==|  0.82824
USER: genes 25 Torsion [C]-CA--CB-[CG] |==|  0.44479
USER: genes 26 Torsion [CA]-CB--CG-[OD1] |==|  0.64750
USER: genes 27 Torsion [C]-CA--CB-[OG] |==|  0.50021
USER: genes 28 Torsion [CA]-CB--OG-[HG] |==|  0.05863
USER: genes 29 Torsion [C]-CA--CB-[CG] |==|  0.83700
USER: genes 30 Torsion [CA]-CB--CG-[OD1] |==|  0.27962
ROOT
ATOM      1  CA  ALA Z  41     -15.498  13.163  -8.516  1.00 21.22 LIG 0.17  C 
ATOM      2  CB  ALA Z  41     -16.500  12.391  -9.373  1.00 23.94 LIG 0.04  C 
ENDROOT
BRANCH 1 3
ATOM      3  C   ALA Z  41     -15.546  14.652  -8.857  1.00 23.72 LIG 0.24  C 
ATOM      4 O    ALA Z  41     -16.019  15.038  -9.926  1.00 25.98 LIG-0.27  OA
ATOM      5  N   ILE Z  42     -15.052  15.486  -7.948  1.00 25.83 LIG-0.35  N 
ATOM      6 H    ILE Z  42     -14.722  15.241  -7.192  1.00 25.83 LIG 0.16  HD
BRANCH 5 7
ATOM      7  CA  ILE Z  42     -15.040  16.925  -8.184  1.00 30.93 LIG 0.18  C 
BRANCH 7 8
ATOM      8  C   ILE Z  42     -13.627  17.509  -8.128  1.00 34.23 LIG 0.24  C 
ATOM      9 O    ILE Z  42     -12.893  17.281  -7.166  1.00 38.88 LIG-0.27  OA
ATOM     10  N   LYS Z  43     -13.249  18.270  -9.152  1.00 34.26 LIG-0.35  N 
ATOM     11 H    LYS Z  43     -13.764  18.505  -9.800  1.00 34.26 LIG 0.16  HD
BRANCH 10 12
ATOM     12  CA  LYS Z  43     -11.879  18.771  -9.242  1.00 43.39 LIG 0.18  C 
BRANCH 12 13
ATOM     13  C   LYS Z  43     -11.721  20.005 -10.132  1.00 55.57 LIG 0.24  C 
ATOM     14  N   ASN Z  44     -10.502  20.532 -10.214  1.00 60.92 LIG-0.34  N 
ATOM     15 H    ASN Z  44      -9.815  20.202  -9.817  1.00 60.92 LIG 0.16  HD
ATOM     16 O    LYS Z  43     -12.696  20.463 -10.733  1.00 61.19 LIG-0.27  OA
BRANCH 14 17
ATOM     17  CA  ASN Z  44     -10.218  21.739 -10.996  1.00 70.44 LIG 0.19  C 
BRANCH 17 18
ATOM     18  CB  ASN Z  44     -10.606  21.555 -12.471  1.00 74.13 LIG 0.14  C 
BRANCH 18 19
ATOM     19  CG  ASN Z  44      -9.932  20.354 -13.110  1.00 76.38 LIG 0.22  C 
ATOM     20  ND2 ASN Z  44      -8.730  20.561 -13.641  1.00 76.67 LIG-0.37  N 
ATOM     21 21HD ASN Z  44      -8.307  19.913 -14.015  1.00 76.67 LIG 0.16  HD
ATOM     22 22HD ASN Z  44      -8.375  21.344 -13.610  1.00 76.67 LIG 0.16  HD
ATOM     23 OD1  ASN Z  44     -10.484  19.253 -13.127  1.00 76.30 LIG-0.27  OA
ENDBRANCH 18 19
ENDBRANCH 17 18
BRANCH 17 24
ATOM     24  C   ASN Z  44     -10.891  22.990 -10.427  1.00 74.17 LIG 0.28  C 
ATOM     25 O    ASN Z  44     -11.998  22.924  -9.888  1.00 72.97 LIG-0.27  OA
ATOM     26  N   NH2 Z  45     -10.215  24.129 -10.553  1.00 76.38 LIG-0.11  N 
ENDBRANCH 17 24
ENDBRANCH 14 17
ENDBRANCH 12 13
BRANCH 12 27
ATOM     27  CB  LYS Z  43     -10.913  17.661  -9.669  1.00 40.99 LIG 0.04  C 
BRANCH 27 28
ATOM     28  CG  LYS Z  43      -9.849  17.348  -8.621  1.00 39.01 LIG 0.00  C 
BRANCH 28 29
ATOM     29  CD  LYS Z  43      -8.449  17.711  -9.099  1.00 38.38 LIG 0.03  C 
BRANCH 29 30
ATOM     30  CE  LYS Z  43      -7.631  18.325  -7.967  1.00 38.40 LIG 0.23  C 
BRANCH 30 31
ATOM     31  NZ  LYS Z  43      -6.493  19.163  -8.456  1.00 35.26 LIG-0.08  N 
ATOM     32 HZ3  LYS Z  43      -6.616  19.357  -9.317  1.00 35.26 LIG 0.27  HD
ATOM     33 HZ2  LYS Z  43      -5.730  18.714  -8.360  1.00 35.26 LIG 0.27  HD
ATOM     34 HZ1  LYS Z  43      -6.455  19.917  -7.985  1.00 35.26 LIG 0.27  HD
ENDBRANCH 30 31
ENDBRANCH 29 30
ENDBRANCH 28 29
ENDBRANCH 27 28
ENDBRANCH 12 27
ENDBRANCH 10 12
ENDBRANCH 7 8
BRANCH 7 35
ATOM     35  CB  ILE Z  42     -15.941  17.682  -7.191  1.00 30.84 LIG 0.01  C 
ATOM     36  CG2 ILE Z  42     -15.968  19.170  -7.524  1.00 35.03 LIG 0.01  C 
BRANCH 35 37
ATOM     37  CG1 ILE Z  42     -17.366  17.139  -7.240  1.00 30.67 LIG 0.00  C 
ATOM     38  CD1 ILE Z  42     -18.326  17.877  -6.326  1.00 26.38 LIG 0.01  C 
ENDBRANCH 35 37
ENDBRANCH 7 35
ENDBRANCH 5 7
ENDBRANCH 1 3
BRANCH 1 39
ATOM     39  N   ALA Z  41     -15.752  12.937  -7.095  1.00 17.22 LIG-0.35  N 
ATOM     40  C   ASN Z  40     -15.537  11.751  -6.529  1.00 21.77 LIG 0.24  C 
ATOM     41 O    ASN Z  40     -15.114  10.776  -7.153  1.00 19.61 LIG-0.27  OA
ATOM     42 H    ALA Z  41     -16.046  13.626  -6.672  1.00 17.22 LIG 0.16  HD
BRANCH 40 43
ATOM     43  CA  ASN Z  40     -15.837  11.637  -5.039  1.00 23.64 LIG 0.18  C 
BRANCH 43 44
ATOM     44  N   ASN Z  40     -15.474  10.349  -4.456  1.00 28.07 LIG-0.34  N 
ATOM     45 H    ASN Z  40     -14.735  10.347  -4.015  1.00 28.07 LIG 0.16  HD
ATOM     46  C   SER Z  39     -16.255   9.288  -4.619  1.00 29.35 LIG 0.24  C 
ATOM     47 O    SER Z  39     -17.265   9.303  -5.327  1.00 27.34 LIG-0.27  OA
BRANCH 46 48
ATOM     48  CA  SER Z  39     -15.845   8.018  -3.890  1.00 36.10 LIG 0.20  C 
BRANCH 48 49
ATOM     49  N   SER Z  39     -14.596   8.285  -3.189  1.00 45.98 LIG-0.34  N 
ATOM     50  C   ASN Z  38     -13.498   7.572  -3.423  1.00 57.47 LIG 0.24  C 
ATOM     51 O    ASN Z  38     -13.515   6.502  -4.036  1.00 60.64 LIG-0.27  OA
ATOM     52 H    SER Z  39     -14.636   8.932  -2.624  1.00 45.98 LIG 0.16  HD
BRANCH 50 53
ATOM     53  CA  ASN Z  38     -12.187   8.156  -2.877  1.00 65.29 LIG 0.18  C 
BRANCH 53 54
ATOM     54  N   ASN Z  38     -11.373   7.279  -2.030  1.00 70.64 LIG-0.35  N 
ATOM     55 H    ASN Z  38     -10.593   7.113  -2.354  1.00 70.64 LIG 0.16  HD
ATOM     56  C   ACE Z  37     -11.799   6.786  -0.870  1.00 74.22 LIG 0.21  C 
ATOM     57  CH3 ACE Z  37     -10.803   5.917  -0.105  1.00 75.88 LIG 0.12  C 
ATOM     58 O    ACE Z  37     -12.925   6.996  -0.422  1.00 75.32 LIG-0.27  OA
ENDBRANCH 53 54
BRANCH 53 59
ATOM     59  CB  ASN Z  38     -11.345   8.680  -4.050  1.00 65.91 LIG 0.12  C 
BRANCH 59 60
ATOM     60  CG  ASN Z  38     -10.287   9.683  -3.617  1.00 66.48 LIG 0.15  C 
ATOM     61 OD1  ASN Z  38     -10.286  10.845  -4.259  1.00 67.09 LIG-0.18  OA
ATOM     62  ND2 ASN Z  38      -9.480   9.417  -2.724  1.00 65.12 LIG-0.38  N 
ATOM     63 22HD ASN Z  38      -9.511   8.653  -2.330  1.00 65.12 LIG 0.16  HD
ATOM     64 21HD ASN Z  38      -8.887   9.996  -2.494  1.00 65.12 LIG 0.16  HD
ENDBRANCH 59 60
ENDBRANCH 53 59
ENDBRANCH 50 53
ENDBRANCH 48 49
BRANCH 48 65
ATOM     65  CB  SER Z  39     -16.949   7.599  -2.924  1.00 33.12 LIG 0.20  C 
BRANCH 65 66
ATOM     66 OG   SER Z  39     -16.584   6.413  -2.229  1.00 30.52 LIG-0.40  OA
ATOM     67 HG   SER Z  39     -15.750   6.320  -2.250  1.00 30.52 LIG 0.21  HD
ENDBRANCH 65 66
ENDBRANCH 48 65
ENDBRANCH 46 48
ENDBRANCH 43 44
BRANCH 43 68
ATOM     68  CB  ASN Z  40     -15.167  12.791  -4.290  1.00 19.94 LIG 0.14  C 
BRANCH 68 69
ATOM     69  CG  ASN Z  40     -13.664  12.814  -4.489  1.00 19.97 LIG 0.22  C 
ATOM     70 OD1  ASN Z  40     -13.146  13.593  -5.292  1.00 23.42 LIG-0.27  OA
ATOM     71  ND2 ASN Z  40     -12.954  11.950  -3.769  1.00 19.32 LIG-0.37  N 
ATOM     72 21HD ASN Z  40     -12.099  11.921  -3.854  1.00 19.32 LIG 0.16  HD
ATOM     73 22HD ASN Z  40     -13.351  11.422  -3.218  1.00 19.32 LIG 0.16  HD
ENDBRANCH 68 69
ENDBRANCH 43 68
ENDBRANCH 40 43
ENDBRANCH 1 39
TORSDOF 29
ENDMDL
MODEL 7
USER: ADFR SOLUTION from run 171
USER: SCORE 19.491291 LL:  -5.010 LR: -16.985 RR:   0.000 FEB:  -8.334
USER: RMSD 12.574193
USER: SEED 170
USER: STATUS no improvement in best in 8 clusters for 5 generations
USER: GENES 31
USER: genes 0 Translation |==|  0.59851 0.43300 0.48402
USER: genes 1 Rotation |==|  0.70853 0.27412 0.16324 0.70516
USER: genes 2 Torsion [N]-CA--C-[N] |==|  0.86452
USER: genes 3 Torsion [C]-N--CA-[C] |==|  0.60331
USER: genes 4 Torsion [N]-CA--C-[N] |==|  0.41870
USER: genes 5 Torsion [C]-N--CA-[C] |==|  0.56740
USER: genes 6 Torsion [N]-CA--C-[N] |==|  0.35535
USER: genes 7 Torsion [C]-N--CA-[CB] |==|  0.82620
USER: genes 8 Torsion [N]-CA--CB-[CG] |==|  0.86555
USER: genes 9 Torsion [CA]-CB--CG-[OD1] |==|  0.94937
USER: genes 10 Torsion [N]-CA--C-[N] |==|  0.35118
USER: genes 11 Torsion [N]-CA--CB-[CG] |==|  0.34813
USER: genes 12 Torsion [CA]-CB--CG-[CD] |==|  0.51273
USER: genes 13 Torsion [CB]-CG--CD-[CE] |==|  0.70159
USER: genes 14 Torsion [CG]-CD--CE-[NZ] |==|  0.66010
USER: genes 15 Torsion [CD]-CE--NZ-[HZ3] |==|  0.46446
USER: genes 16 Torsion [N]-CA--CB-[CG1] |==|  0.65454
USER: genes 17 Torsion [CA]-CB--CG1-[CD1] |==|  0.09909
USER: genes 18 Torsion [CB]-CA--N-[C] |==|  0.16628
USER: genes 19 Torsion [N]-C--CA-[N] |==|  0.45785
USER: genes 20 Torsion [C]-CA--N-[C] |==|  0.76996
USER: genes 21 Torsion [N]-C--CA-[N] |==|  0.91789
USER: genes 22 Torsion [C]-CA--N-[C] |==|  0.68794
USER: genes 23 Torsion [N]-C--CA-[N] |==|  0.83889
USER: genes 24 Torsion [C]-CA--N-[C] |==|  0.84885
USER: genes 25 Torsion [C]-CA--CB-[CG] |==|  0.14265
USER: genes 26 Torsion [CA]-CB--CG-[OD1] |==|  0.78086
USER: genes 27 Torsion [C]-CA--CB-[OG] |==|  0.60476
USER: genes 28 Torsion [CA]-CB--OG-[HG] |==|  0.12677
USER: genes 29 Torsion [C]-CA--CB-[CG] |==|  0.93099
USER: genes 30 Torsion [CA]-CB--CG-[OD1] |==|  0.29261
ROOT
ATOM      1  CA  ALA Z  41     -14.616  11.230  -5.709  1.00 21.22 LIG 0.17  C 
ATOM      2  CB  ALA Z  41     -15.846  11.026  -4.827  1.00 23.94 LIG 0.04  C 
ENDROOT
BRANCH 1 3
ATOM      3  C   ALA Z  41     -14.881  12.322  -6.745  1.00 23.72 LIG 0.24  C 
ATOM      4 O    ALA Z  41     -15.074  12.034  -7.926  1.00 25.98 LIG-0.27  OA
ATOM      5  N   ILE Z  42     -14.885  13.574  -6.300  1.00 25.83 LIG-0.35  N 
ATOM      6 H    ILE Z  42     -14.757  13.799  -5.480  1.00 25.83 LIG 0.16  HD
BRANCH 5 7
ATOM      7  CA  ILE Z  42     -15.115  14.688  -7.213  1.00 30.93 LIG 0.18  C 
BRANCH 7 8
ATOM      8  C   ILE Z  42     -14.263  15.910  -6.863  1.00 34.23 LIG 0.24  C 
ATOM      9 O    ILE Z  42     -13.931  16.128  -5.698  1.00 38.88 LIG-0.27  OA
ATOM     10  N   LYS Z  43     -13.918  16.710  -7.868  1.00 34.26 LIG-0.35  N 
ATOM     11 H    LYS Z  43     -14.195  16.624  -8.678  1.00 34.26 LIG 0.16  HD
BRANCH 10 12
ATOM     12  CA  LYS Z  43     -13.007  17.833  -7.647  1.00 43.39 LIG 0.18  C 
BRANCH 12 13
ATOM     13  C   LYS Z  43     -13.150  18.964  -8.667  1.00 55.57 LIG 0.24  C 
ATOM     14  N   ASN Z  44     -13.317  20.191  -8.179  1.00 60.92 LIG-0.34  N 
ATOM     15 H    ASN Z  44     -13.323  20.371  -7.339  1.00 60.92 LIG 0.16  HD
ATOM     16 O    LYS Z  43     -13.107  18.718  -9.874  1.00 61.19 LIG-0.27  OA
BRANCH 14 17
ATOM     17  CA  ASN Z  44     -13.510  21.361  -9.042  1.00 70.44 LIG 0.19  C 
BRANCH 17 18
ATOM     18  CB  ASN Z  44     -12.285  21.606  -9.935  1.00 74.13 LIG 0.14  C 
BRANCH 18 19
ATOM     19  CG  ASN Z  44     -10.978  21.574  -9.162  1.00 76.38 LIG 0.22  C 
ATOM     20  ND2 ASN Z  44      -9.870  21.401  -9.876  1.00 76.67 LIG-0.37  N 
ATOM     21 21HD ASN Z  44      -9.105  21.375  -9.484  1.00 76.67 LIG 0.16  HD
ATOM     22 22HD ASN Z  44      -9.918  21.314 -10.730  1.00 76.67 LIG 0.16  HD
ATOM     23 OD1  ASN Z  44     -10.965  21.704  -7.936  1.00 76.30 LIG-0.27  OA
ENDBRANCH 18 19
ENDBRANCH 17 18
BRANCH 17 24
ATOM     24  C   ASN Z  44     -14.775  21.268  -9.898  1.00 74.17 LIG 0.28  C 
ATOM     25 O    ASN Z  44     -14.982  20.289 -10.618  1.00 72.97 LIG-0.27  OA
ATOM     26  N   NH2 Z  45     -15.616  22.294  -9.815  1.00 76.38 LIG-0.11  N 
ENDBRANCH 17 24
ENDBRANCH 14 17
ENDBRANCH 12 13
BRANCH 12 27
ATOM     27  CB  LYS Z  43     -11.554  17.354  -7.561  1.00 40.99 LIG 0.04  C 
BRANCH 27 28
ATOM     28  CG  LYS Z  43     -10.624  18.060  -8.542  1.00 39.01 LIG 0.00  C 
BRANCH 28 29
ATOM     29  CD  LYS Z  43      -9.213  17.486  -8.510  1.00 38.38 LIG 0.03  C 
BRANCH 29 30
ATOM     30  CE  LYS Z  43      -8.248  18.453  -7.832  1.00 38.40 LIG 0.23  C 
BRANCH 30 31
ATOM     31  NZ  LYS Z  43      -7.101  18.844  -8.709  1.00 35.26 LIG-0.08  N 
ATOM     32 HZ3  LYS Z  43      -6.675  19.538  -8.349  1.00 35.26 LIG 0.27  HD
ATOM     33 HZ2  LYS Z  43      -7.405  19.068  -9.515  1.00 35.26 LIG 0.27  HD
ATOM     34 HZ1  LYS Z  43      -6.538  18.158  -8.785  1.00 35.26 LIG 0.27  HD
ENDBRANCH 30 31
ENDBRANCH 29 30
ENDBRANCH 28 29
ENDBRANCH 27 28
ENDBRANCH 12 27
ENDBRANCH 10 12
ENDBRANCH 7 8
BRANCH 7 35
ATOM     35  CB  ILE Z  42     -16.598  15.101  -7.259  1.00 30.84 LIG 0.01  C 
ATOM     36  CG2 ILE Z  42     -16.774  16.512  -6.709  1.00 35.03 LIG 0.01  C 
BRANCH 35 37
ATOM     37  CG1 ILE Z  42     -17.121  15.061  -8.692  1.00 30.67 LIG 0.00  C 
ATOM     38  CD1 ILE Z  42     -16.530  13.935  -9.520  1.00 26.38 LIG 0.01  C 
ENDBRANCH 35 37
ENDBRANCH 7 35
ENDBRANCH 5 7
ENDBRANCH 1 3
BRANCH 1 39
ATOM     39  N   ALA Z  41     -13.444  11.546  -4.895  1.00 17.22 LIG-0.35  N 
ATOM     40  C   ASN Z  40     -12.995  10.706  -3.965  1.00 21.77 LIG 0.24  C 
ATOM     41 O    ASN Z  40     -13.525   9.619  -3.730  1.00 19.61 LIG-0.27  OA
ATOM     42 H    ALA Z  41     -13.083  12.307  -5.070  1.00 17.22 LIG 0.16  HD
BRANCH 40 43
ATOM     43  CA  ASN Z  40     -11.763  11.145  -3.181  1.00 23.64 LIG 0.18  C 
BRANCH 43 44
ATOM     44  N   ASN Z  40     -11.526  10.372  -1.965  1.00 28.07 LIG-0.34  N 
ATOM     45 H    ASN Z  40     -10.954   9.735  -2.047  1.00 28.07 LIG 0.16  HD
ATOM     46  C   SER Z  39     -12.168  10.667  -0.841  1.00 29.35 LIG 0.24  C 
ATOM     47 O    SER Z  39     -13.044  11.531  -0.777  1.00 27.34 LIG-0.27  OA
BRANCH 46 48
ATOM     48  CA  SER Z  39     -11.780   9.872   0.397  1.00 36.10 LIG 0.20  C 
BRANCH 48 49
ATOM     49  N   SER Z  39     -11.334   8.554  -0.036  1.00 45.98 LIG-0.34  N 
ATOM     50  C   ASN Z  38     -12.028   7.456   0.245  1.00 57.47 LIG 0.24  C 
ATOM     51 O    ASN Z  38     -12.933   7.434   1.083  1.00 60.64 LIG-0.27  OA
ATOM     52 H    SER Z  39     -10.597   8.556  -0.480  1.00 45.98 LIG 0.16  HD
BRANCH 50 53
ATOM     53  CA  ASN Z  38     -11.637   6.193  -0.538  1.00 65.29 LIG 0.18  C 
BRANCH 53 54
ATOM     54  N   ASN Z  38     -11.713   6.270  -2.000  1.00 70.64 LIG-0.35  N 
ATOM     55 H    ASN Z  38     -10.980   6.054  -2.395  1.00 70.64 LIG 0.16  HD
ATOM     56  C   ACE Z  37     -12.812   6.637  -2.654  1.00 74.22 LIG 0.21  C 
ATOM     57  CH3 ACE Z  37     -12.718   6.627  -4.179  1.00 75.88 LIG 0.12  C 
ATOM     58 O    ACE Z  37     -13.851   6.976  -2.090  1.00 75.32 LIG-0.27  OA
ENDBRANCH 53 54
BRANCH 53 59
ATOM     59  CB  ASN Z  38     -10.230   5.753  -0.109  1.00 65.91 LIG 0.12  C 
BRANCH 59 60
ATOM     60  CG  ASN Z  38     -10.081   5.635   1.400  1.00 66.48 LIG 0.15  C 
ATOM     61 OD1  ASN Z  38      -9.909   6.773   2.062  1.00 67.09 LIG-0.18  OA
ATOM     62  ND2 ASN Z  38     -10.116   4.539   1.962  1.00 65.12 LIG-0.38  N 
ATOM     63 22HD ASN Z  38     -10.230   3.822   1.501  1.00 65.12 LIG 0.16  HD
ATOM     64 21HD ASN Z  38     -10.027   4.491   2.816  1.00 65.12 LIG 0.16  HD
ENDBRANCH 59 60
ENDBRANCH 53 59
ENDBRANCH 50 53
ENDBRANCH 48 49
BRANCH 48 65
ATOM     65  CB  SER Z  39     -10.683  10.610   1.159  1.00 33.12 LIG 0.20  C 
BRANCH 65 66
ATOM     66 OG   SER Z  39      -9.742   9.691   1.700  1.00 30.52 LIG-0.40  OA
ATOM     67 HG   SER Z  39      -9.537   9.123   1.116  1.00 30.52 LIG 0.21  HD
ENDBRANCH 65 66
ENDBRANCH 48 65
ENDBRANCH 46 48
ENDBRANCH 43 44
BRANCH 43 68
ATOM     68  CB  ASN Z  40     -10.537  11.124  -4.096  1.00 19.94 LIG 0.14  C 
BRANCH 68 69
ATOM     69  CG  ASN Z  40     -10.697  10.161  -5.256  1.00 19.97 LIG 0.22  C 
ATOM     70 OD1  ASN Z  40     -10.917  10.579  -6.396  1.00 23.42 LIG-0.27  OA
ATOM     71  ND2 ASN Z  40     -10.601   8.866  -4.974  1.00 19.32 LIG-0.37  N 
ATOM     72 21HD ASN Z  40     -10.694   8.282  -5.599  1.00 19.32 LIG 0.16  HD
ATOM     73 22HD ASN Z  40     -10.448   8.613  -4.167  1.00 19.32 LIG 0.16  HD
ENDBRANCH 68 69
ENDBRANCH 43 68
ENDBRANCH 40 43
ENDBRANCH 1 39
TORSDOF 29
ENDMDL
MODEL 8
USER: ADFR SOLUTION from run 152
USER: SCORE 19.804202 LL:  -5.369 LR: -16.836 RR:   0.000 FEB:  -8.185
USER: RMSD 6.804698
USER: SEED 151
USER: STATUS searching
USER: GENES 31
USER: genes 0 Translation |==|  0.57378 0.23678 0.46351
USER: genes 1 Rotation |==|  0.27123 0.89106 0.34879 0.64790
USER: genes 2 Torsion [N]-CA--C-[N] |==|  0.87943
USER: genes 3 Torsion [C]-N--CA-[C] |==|  0.83594
USER: genes 4 Torsion [N]-CA--C-[N] |==|  0.38900
USER: genes 5 Torsion [C]-N--CA-[C] |==|  0.82160
USER: genes 6 Torsion [N]-CA--C-[N] |==|  0.86114
USER: genes 7 Torsion [C]-N--CA-[CB] |==|  0.20159
USER: genes 8 Torsion [N]-CA--CB-[CG] |==|  0.26215
USER: genes 9 Torsion [CA]-CB--CG-[OD1] |==|  0.29230
USER: genes 10 Torsion [N]-CA--C-[N] |==|  0.02793
USER: genes 11 Torsion [N]-CA--CB-[CG] |==|  0.50981
USER: genes 12 Torsion [CA]-CB--CG-[CD] |==|  0.73376
USER: genes 13 Torsion [CB]-CG--CD-[CE] |==|  0.77189
USER: genes 14 Torsion [CG]-CD--CE-[NZ] |==|  0.22035
USER: genes 15 Torsion [CD]-CE--NZ-[HZ3] |==|  0.38781
USER: genes 16 Torsion [N]-CA--CB-[CG1] |==|  0.48147
USER: genes 17 Torsion [CA]-CB--CG1-[CD1] |==|  0.45172
USER: genes 18 Torsion [CB]-CA--N-[C] |==|  0.44083
USER: genes 19 Torsion [N]-C--CA-[N] |==|  0.42971
USER: genes 20 Torsion [C]-CA--N-[C] |==|  0.78691
USER: genes 21 Torsion [N]-C--CA-[N] |==|  0.41603
USER: genes 22 Torsion [C]-CA--N-[C] |==|  0.82714
USER: genes 23 Torsion [N]-C--CA-[N] |==|  0.99264
USER: genes 24 Torsion [C]-CA--N-[C] |==|  0.80556
USER: genes 25 Torsion [C]-CA--CB-[CG] |==|  0.73021
USER: genes 26 Torsion [CA]-CB--CG-[OD1] |==|  0.24462
USER: genes 27 Torsion [C]-CA--CB-[OG] |==|  0.71565
USER: genes 28 Torsion [CA]-CB--OG-[HG] |==|  0.08526
USER: genes 29 Torsion [C]-CA--CB-[CG] |==|  0.24926
USER: genes 30 Torsion [CA]-CB--CG-[OD1] |==|  0.88236
ROOT
ATOM      1  CA  ALA Z  41     -15.209   6.668  -6.170  1.00 21.22 LIG 0.17  C 
ATOM      2  CB  ALA Z  41     -14.770   6.306  -7.587  1.00 23.94 LIG 0.04  C 
ENDROOT
BRANCH 1 3
ATOM      3  C   ALA Z  41     -13.998   6.744  -5.242  1.00 23.72 LIG 0.24  C 
ATOM      4 O    ALA Z  41     -13.721   5.810  -4.490  1.00 25.98 LIG-0.27  OA
ATOM      5  N   ILE Z  42     -13.278   7.861  -5.295  1.00 25.83 LIG-0.35  N 
ATOM      6 H    ILE Z  42     -13.448   8.524  -5.815  1.00 25.83 LIG 0.16  HD
BRANCH 5 7
ATOM      7  CA  ILE Z  42     -12.110   8.036  -4.439  1.00 30.93 LIG 0.18  C 
BRANCH 7 8
ATOM      8  C   ILE Z  42     -12.460   7.939  -2.953  1.00 34.23 LIG 0.24  C 
ATOM      9 O    ILE Z  42     -13.493   8.452  -2.519  1.00 38.88 LIG-0.27  OA
ATOM     10  N   LYS Z  43     -11.599   7.292  -2.172  1.00 34.26 LIG-0.35  N 
ATOM     11 H    LYS Z  43     -10.838   6.988  -2.433  1.00 34.26 LIG 0.16  HD
BRANCH 10 12
ATOM     12  CA  LYS Z  43     -11.909   7.046  -0.765  1.00 43.39 LIG 0.18  C 
BRANCH 12 13
ATOM     13  C   LYS Z  43     -12.033   8.316   0.079  1.00 55.57 LIG 0.24  C 
ATOM     14  N   ASN Z  44     -11.042   9.199  -0.019  1.00 60.92 LIG-0.34  N 
ATOM     15 H    ASN Z  44     -10.367   9.099  -0.542  1.00 60.92 LIG 0.16  HD
ATOM     16 O    LYS Z  43     -13.016   8.483   0.804  1.00 61.19 LIG-0.27  OA
BRANCH 14 17
ATOM     17  CA  ASN Z  44     -11.012  10.438   0.764  1.00 70.44 LIG 0.19  C 
BRANCH 17 18
ATOM     18  CB  ASN Z  44     -10.697  10.158   2.241  1.00 74.13 LIG 0.14  C 
BRANCH 18 19
ATOM     19  CG  ASN Z  44      -9.219  10.290   2.562  1.00 76.38 LIG 0.22  C 
ATOM     20  ND2 ASN Z  44      -8.432   9.302   2.147  1.00 76.67 LIG-0.37  N 
ATOM     21 21HD ASN Z  44      -7.587   9.329   2.305  1.00 76.67 LIG 0.16  HD
ATOM     22 22HD ASN Z  44      -8.767   8.635   1.721  1.00 76.67 LIG 0.16  HD
ATOM     23 OD1  ASN Z  44      -8.790  11.268   3.177  1.00 76.30 LIG-0.27  OA
ENDBRANCH 18 19
ENDBRANCH 17 18
BRANCH 17 24
ATOM     24  C   ASN Z  44     -10.033  11.473   0.205  1.00 74.17 LIG 0.28  C 
ATOM     25 O    ASN Z  44      -9.754  12.490   0.843  1.00 72.97 LIG-0.27  OA
ATOM     26  N   NH2 Z  45      -9.519  11.207  -0.992  1.00 76.38 LIG-0.11  N 
ENDBRANCH 17 24
ENDBRANCH 14 17
ENDBRANCH 12 13
BRANCH 12 27
ATOM     27  CB  LYS Z  43     -10.904   6.071  -0.142  1.00 40.99 LIG 0.04  C 
BRANCH 27 28
ATOM     28  CG  LYS Z  43     -11.226   5.711   1.304  1.00 39.01 LIG 0.00  C 
BRANCH 28 29
ATOM     29  CD  LYS Z  43     -10.456   6.573   2.296  1.00 38.38 LIG 0.03  C 
BRANCH 29 30
ATOM     30  CE  LYS Z  43      -9.043   6.034   2.502  1.00 38.40 LIG 0.23  C 
BRANCH 30 31
ATOM     31  NZ  LYS Z  43      -8.107   6.413   1.399  1.00 35.26 LIG-0.08  N 
ATOM     32 HZ3  LYS Z  43      -7.314   6.628   1.742  1.00 35.26 LIG 0.27  HD
ATOM     33 HZ2  LYS Z  43      -8.437   7.111   0.956  1.00 35.26 LIG 0.27  HD
ATOM     34 HZ1  LYS Z  43      -8.012   5.726   0.841  1.00 35.26 LIG 0.27  HD
ENDBRANCH 30 31
ENDBRANCH 29 30
ENDBRANCH 28 29
ENDBRANCH 27 28
ENDBRANCH 12 27
ENDBRANCH 10 12
ENDBRANCH 7 8
BRANCH 7 35
ATOM     35  CB  ILE Z  42     -11.395   9.373  -4.704  1.00 30.84 LIG 0.01  C 
ATOM     36  CG2 ILE Z  42     -12.382  10.532  -4.618  1.00 35.03 LIG 0.01  C 
BRANCH 35 37
ATOM     37  CG1 ILE Z  42     -10.281   9.596  -3.684  1.00 30.67 LIG 0.00  C 
ATOM     38  CD1 ILE Z  42      -9.275  10.650  -4.108  1.00 26.38 LIG 0.01  C 
ENDBRANCH 35 37
ENDBRANCH 7 35
ENDBRANCH 5 7
ENDBRANCH 1 3
BRANCH 1 39
ATOM     39  N   ALA Z  41     -15.958   7.923  -6.166  1.00 17.22 LIG-0.35  N 
ATOM     40  C   ASN Z  40     -16.786   8.237  -5.172  1.00 21.77 LIG 0.24  C 
ATOM     41 O    ASN Z  40     -16.975   7.504  -4.199  1.00 19.61 LIG-0.27  OA
ATOM     42 H    ALA Z  41     -15.816   8.425  -6.849  1.00 17.22 LIG 0.16  HD
BRANCH 40 43
ATOM     43  CA  ASN Z  40     -17.511   9.573  -5.278  1.00 23.64 LIG 0.18  C 
BRANCH 43 44
ATOM     44  N   ASN Z  40     -18.773   9.626  -4.545  1.00 28.07 LIG-0.34  N 
ATOM     45 H    ASN Z  40     -18.742  10.056  -3.801  1.00 28.07 LIG 0.16  HD
ATOM     46  C   SER Z  39     -19.860   9.038  -5.030  1.00 29.35 LIG 0.24  C 
ATOM     47 O    SER Z  39     -19.852   8.357  -6.057  1.00 27.34 LIG-0.27  OA
BRANCH 46 48
ATOM     48  CA  SER Z  39     -21.149   9.234  -4.246  1.00 36.10 LIG 0.20  C 
BRANCH 48 49
ATOM     49  N   SER Z  39     -22.260   9.192  -5.189  1.00 45.98 LIG-0.34  N 
ATOM     50  C   ASN Z  38     -22.379  10.086  -6.165  1.00 57.47 LIG 0.24  C 
ATOM     51 O    ASN Z  38     -21.731  11.135  -6.194  1.00 60.64 LIG-0.27  OA
ATOM     52 H    SER Z  39     -22.815   8.549  -5.056  1.00 45.98 LIG 0.16  HD
BRANCH 50 53
ATOM     53  CA  ASN Z  38     -23.387   9.743  -7.273  1.00 65.29 LIG 0.18  C 
BRANCH 53 54
ATOM     54  N   ASN Z  38     -24.066   8.448  -7.173  1.00 70.64 LIG-0.35  N 
ATOM     55 H    ASN Z  38     -24.902   8.510  -6.981  1.00 70.64 LIG 0.16  HD
ATOM     56  C   ACE Z  37     -23.447   7.285  -7.362  1.00 74.22 LIG 0.21  C 
ATOM     57  CH3 ACE Z  37     -24.320   6.037  -7.252  1.00 75.88 LIG 0.12  C 
ATOM     58 O    ACE Z  37     -22.245   7.193  -7.605  1.00 75.32 LIG-0.27  OA
ENDBRANCH 53 54
BRANCH 53 59
ATOM     59  CB  ASN Z  38     -24.425  10.871  -7.373  1.00 65.91 LIG 0.12  C 
BRANCH 59 60
ATOM     60  CG  ASN Z  38     -25.705  10.568  -6.610  1.00 66.48 LIG 0.15  C 
ATOM     61 OD1  ASN Z  38     -25.722  10.926  -5.332  1.00 67.09 LIG-0.18  OA
ATOM     62  ND2 ASN Z  38     -26.662  10.018  -7.159  1.00 65.12 LIG-0.38  N 
ATOM     63 22HD ASN Z  38     -26.615   9.801  -7.990  1.00 65.12 LIG 0.16  HD
ATOM     64 21HD ASN Z  38     -27.377   9.852  -6.710  1.00 65.12 LIG 0.16  HD
ENDBRANCH 59 60
ENDBRANCH 53 59
ENDBRANCH 50 53
ENDBRANCH 48 49
BRANCH 48 65
ATOM     65  CB  SER Z  39     -21.277   8.146  -3.184  1.00 33.12 LIG 0.20  C 
BRANCH 65 66
ATOM     66 OG   SER Z  39     -22.198   7.145  -3.599  1.00 30.52 LIG-0.40  OA
ATOM     67 HG   SER Z  39     -22.184   7.080  -4.437  1.00 30.52 LIG 0.21  HD
ENDBRANCH 65 66
ENDBRANCH 48 65
ENDBRANCH 46 48
ENDBRANCH 43 44
BRANCH 43 68
ATOM     68  CB  ASN Z  40     -16.573  10.702  -4.843  1.00 19.94 LIG 0.14  C 
BRANCH 68 69
ATOM     69  CG  ASN Z  40     -15.767  11.262  -5.999  1.00 19.97 LIG 0.22  C 
ATOM     70 OD1  ASN Z  40     -15.264  10.511  -6.838  1.00 23.42 LIG-0.27  OA
ATOM     71  ND2 ASN Z  40     -15.628  12.583  -6.044  1.00 19.32 LIG-0.37  N 
ATOM     72 21HD ASN Z  40     -15.172  12.946  -6.677  1.00 19.32 LIG 0.16  HD
ATOM     73 22HD ASN Z  40     -15.994  13.074  -5.441  1.00 19.32 LIG 0.16  HD
ENDBRANCH 68 69
ENDBRANCH 43 68
ENDBRANCH 40 43
ENDBRANCH 1 39
TORSDOF 29
ENDMDL
MODEL 9
USER: ADFR SOLUTION from run 18
USER: SCORE 19.791326 LL:  -5.059 LR: -16.825 RR:   0.000 FEB:  -8.174
USER: RMSD 6.637268
USER: SEED 17
USER: STATUS no improvement in best in 4 clusters for 5 generations
USER: GENES 31
USER: genes 0 Translation |==|  0.55918 0.46379 0.47681
USER: genes 1 Rotation |==|  0.60044 0.10768 0.75071 0.65212
USER: genes 2 Torsion [N]-CA--C-[N] |==|  0.21019
USER: genes 3 Torsion [C]-N--CA-[C] |==|  0.82441
USER: genes 4 Torsion [N]-CA--C-[N] |==|  0.42215
USER: genes 5 Torsion [C]-N--CA-[C] |==|  0.16572
USER: genes 6 Torsion [N]-CA--C-[N] |==|  0.11781
USER: genes 7 Torsion [C]-N--CA-[CB] |==|  0.23826
USER: genes 8 Torsion [N]-CA--CB-[CG] |==|  0.82501
USER: genes 9 Torsion [CA]-CB--CG-[OD1] |==|  0.82524
USER: genes 10 Torsion [N]-CA--C-[N] |==|  0.82439
USER: genes 11 Torsion [N]-CA--CB-[CG] |==|  0.61339
USER: genes 12 Torsion [CA]-CB--CG-[CD] |==|  0.55104
USER: genes 13 Torsion [CB]-CG--CD-[CE] |==|  0.64681
USER: genes 14 Torsion [CG]-CD--CE-[NZ] |==|  0.74425
USER: genes 15 Torsion [CD]-CE--NZ-[HZ3] |==|  0.28825
USER: genes 16 Torsion [N]-CA--CB-[CG1] |==|  0.90809
USER: genes 17 Torsion [CA]-CB--CG1-[CD1] |==|  0.82383
USER: genes 18 Torsion [CB]-CA--N-[C] |==|  0.12699
USER: genes 19 Torsion [N]-C--CA-[N] |==|  0.88889
USER: genes 20 Torsion [C]-CA--N-[C] |==|  0.63606
USER: genes 21 Torsion [N]-C--CA-[N] |==|  0.37897
USER: genes 22 Torsion [C]-CA--N-[C] |==|  0.78890
USER: genes 23 Torsion [N]-C--CA-[N] |==|  0.97799
USER: genes 24 Torsion [C]-CA--N-[C] |==|  0.72558
USER: genes 25 Torsion [C]-CA--CB-[CG] |==|  0.23637
USER: genes 26 Torsion [CA]-CB--CG-[OD1] |==|  0.32953
USER: genes 27 Torsion [C]-CA--CB-[OG] |==|  0.16601
USER: genes 28 Torsion [CA]-CB--OG-[HG] |==|  0.71264
USER: genes 29 Torsion [C]-CA--CB-[CG] |==|  0.04562
USER: genes 30 Torsion [CA]-CB--CG-[OD1] |==|  0.78265
ROOT
ATOM      1  CA  ALA Z  41     -15.560  11.946  -5.871  1.00 21.22 LIG 0.17  C 
ATOM      2  CB  ALA Z  41     -16.639  11.034  -6.449  1.00 23.94 LIG 0.04  C 
ENDROOT
BRANCH 1 3
ATOM      3  C   ALA Z  41     -14.288  11.149  -5.587  1.00 23.72 LIG 0.24  C 
ATOM      4 O    ALA Z  41     -14.098  10.055  -6.119  1.00 25.98 LIG-0.27  OA
ATOM      5  N   ILE Z  42     -13.419  11.697  -4.744  1.00 25.83 LIG-0.35  N 
ATOM      6 H    ILE Z  42     -13.526  12.461  -4.364  1.00 25.83 LIG 0.16  HD
BRANCH 5 7
ATOM      7  CA  ILE Z  42     -12.180  11.009  -4.397  1.00 30.93 LIG 0.18  C 
BRANCH 7 8
ATOM      8  C   ILE Z  42     -12.435   9.686  -3.672  1.00 34.23 LIG 0.24  C 
ATOM      9 O    ILE Z  42     -13.449   9.533  -2.989  1.00 38.88 LIG-0.27  OA
ATOM     10  N   LYS Z  43     -11.514   8.736  -3.810  1.00 34.26 LIG-0.35  N 
ATOM     11 H    LYS Z  43     -10.765   8.840  -4.219  1.00 34.26 LIG 0.16  HD
BRANCH 10 12
ATOM     12  CA  LYS Z  43     -11.730   7.402  -3.253  1.00 43.39 LIG 0.18  C 
BRANCH 12 13
ATOM     13  C   LYS Z  43     -12.966   6.687  -3.802  1.00 55.57 LIG 0.24  C 
ATOM     14  N   ASN Z  44     -13.181   6.784  -5.111  1.00 60.92 LIG-0.34  N 
ATOM     15 H    ASN Z  44     -12.655   7.199  -5.649  1.00 60.92 LIG 0.16  HD
ATOM     16 O    LYS Z  43     -13.706   6.060  -3.041  1.00 61.19 LIG-0.27  OA
BRANCH 14 17
ATOM     17  CA  ASN Z  44     -14.350   6.184  -5.763  1.00 70.44 LIG 0.19  C 
BRANCH 17 18
ATOM     18  CB  ASN Z  44     -15.564   7.123  -5.709  1.00 74.13 LIG 0.14  C 
BRANCH 18 19
ATOM     19  CG  ASN Z  44     -16.026   7.405  -4.290  1.00 76.38 LIG 0.22  C 
ATOM     20  ND2 ASN Z  44     -15.953   8.669  -3.883  1.00 76.67 LIG-0.37  N 
ATOM     21 21HD ASN Z  44     -16.202   8.879  -3.087  1.00 76.67 LIG 0.16  HD
ATOM     22 22HD ASN Z  44     -15.656   9.276  -4.415  1.00 76.67 LIG 0.16  HD
ATOM     23 OD1  ASN Z  44     -16.443   6.497  -3.569  1.00 76.30 LIG-0.27  OA
ENDBRANCH 18 19
ENDBRANCH 17 18
BRANCH 17 24
ATOM     24  C   ASN Z  44     -14.074   5.762  -7.208  1.00 74.17 LIG 0.28  C 
ATOM     25 O    ASN Z  44     -14.136   4.577  -7.544  1.00 72.97 LIG-0.27  OA
ATOM     26  N   NH2 Z  45     -13.767   6.738  -8.056  1.00 76.38 LIG-0.11  N 
ENDBRANCH 17 24
ENDBRANCH 14 17
ENDBRANCH 12 13
BRANCH 12 27
ATOM     27  CB  LYS Z  43     -11.757   7.443  -1.721  1.00 40.99 LIG 0.04  C 
BRANCH 27 28
ATOM     28  CG  LYS Z  43     -11.024   6.275  -1.071  1.00 39.01 LIG 0.00  C 
BRANCH 28 29
ATOM     29  CD  LYS Z  43     -11.428   6.082   0.385  1.00 38.38 LIG 0.03  C 
BRANCH 29 30
ATOM     30  CE  LYS Z  43     -10.201   6.047   1.290  1.00 38.40 LIG 0.23  C 
BRANCH 30 31
ATOM     31  NZ  LYS Z  43      -9.681   4.663   1.518  1.00 35.26 LIG-0.08  N 
ATOM     32 HZ3  LYS Z  43      -8.950   4.536   1.026  1.00 35.26 LIG 0.27  HD
ATOM     33 HZ2  LYS Z  43     -10.302   4.070   1.283  1.00 35.26 LIG 0.27  HD
ATOM     34 HZ1  LYS Z  43      -9.482   4.559   2.378  1.00 35.26 LIG 0.27  HD
ENDBRANCH 30 31
ENDBRANCH 29 30
ENDBRANCH 28 29
ENDBRANCH 27 28
ENDBRANCH 12 27
ENDBRANCH 10 12
ENDBRANCH 7 8
BRANCH 7 35
ATOM     35  CB  ILE Z  42     -11.252  11.887  -3.538  1.00 30.84 LIG 0.01  C 
ATOM     36  CG2 ILE Z  42      -9.797  11.469  -3.728  1.00 35.03 LIG 0.01  C 
BRANCH 35 37
ATOM     37  CG1 ILE Z  42     -11.398  13.357  -3.923  1.00 30.67 LIG 0.00  C 
ATOM     38  CD1 ILE Z  42     -10.974  13.653  -5.349  1.00 26.38 LIG 0.01  C 
ENDBRANCH 35 37
ENDBRANCH 7 35
ENDBRANCH 5 7
ENDBRANCH 1 3
BRANCH 1 39
ATOM     39  N   ALA Z  41     -15.293  13.065  -6.771  1.00 17.22 LIG-0.35  N 
ATOM     40  C   ASN Z  40     -16.281  13.760  -7.331  1.00 21.77 LIG 0.24  C 
ATOM     41 O    ASN Z  40     -17.472  13.514  -7.130  1.00 19.61 LIG-0.27  OA
ATOM     42 H    ALA Z  41     -14.458  13.227  -6.901  1.00 17.22 LIG 0.16  HD
BRANCH 40 43
ATOM     43  CA  ASN Z  40     -15.879  14.906  -8.251  1.00 23.64 LIG 0.18  C 
BRANCH 43 44
ATOM     44  N   ASN Z  40     -14.737  15.680  -7.773  1.00 28.07 LIG-0.34  N 
ATOM     45 H    ASN Z  40     -14.058  15.212  -7.529  1.00 28.07 LIG 0.16  HD
ATOM     46  C   SER Z  39     -14.788  17.007  -7.734  1.00 29.35 LIG 0.24  C 
ATOM     47 O    SER Z  39     -15.805  17.646  -8.010  1.00 27.34 LIG-0.27  OA
BRANCH 46 48
ATOM     48  CA  SER Z  39     -13.515  17.728  -7.318  1.00 36.10 LIG 0.20  C 
BRANCH 48 49
ATOM     49  N   SER Z  39     -13.327  18.862  -8.213  1.00 45.98 LIG-0.34  N 
ATOM     50  C   ASN Z  38     -12.884  18.703  -9.456  1.00 57.47 LIG 0.24  C 
ATOM     51 O    ASN Z  38     -12.370  17.655  -9.853  1.00 60.64 LIG-0.27  OA
ATOM     52 H    SER Z  39     -13.525  19.624  -7.867  1.00 45.98 LIG 0.16  HD
BRANCH 50 53
ATOM     53  CA  ASN Z  38     -13.044  19.913 -10.388  1.00 65.29 LIG 0.18  C 
BRANCH 53 54
ATOM     54  N   ASN Z  38     -13.821  21.046  -9.876  1.00 70.64 LIG-0.35  N 
ATOM     55 H    ASN Z  38     -13.372  21.565  -9.357  1.00 70.64 LIG 0.16  HD
ATOM     56  C   ACE Z  37     -15.099  21.252 -10.183  1.00 74.22 LIG 0.21  C 
ATOM     57  CH3 ACE Z  37     -15.739  22.502  -9.584  1.00 75.88 LIG 0.12  C 
ATOM     58 O    ACE Z  37     -15.751  20.492 -10.898  1.00 75.32 LIG-0.27  OA
ENDBRANCH 53 54
BRANCH 53 59
ATOM     59  CB  ASN Z  38     -11.654  20.391 -10.833  1.00 65.91 LIG 0.12  C 
BRANCH 59 60
ATOM     60  CG  ASN Z  38     -11.126  19.632 -12.041  1.00 66.48 LIG 0.15  C 
ATOM     61 OD1  ASN Z  38     -10.890  20.356 -13.129  1.00 67.09 LIG-0.18  OA
ATOM     62  ND2 ASN Z  38     -10.937  18.415 -12.000  1.00 65.12 LIG-0.38  N 
ATOM     63 22HD ASN Z  38     -11.101  17.979 -11.277  1.00 65.12 LIG 0.16  HD
ATOM     64 21HD ASN Z  38     -10.641  18.003 -12.694  1.00 65.12 LIG 0.16  HD
ENDBRANCH 59 60
ENDBRANCH 53 59
ENDBRANCH 50 53
ENDBRANCH 48 49
BRANCH 48 65
ATOM     65  CB  SER Z  39     -13.629  18.177  -5.864  1.00 33.12 LIG 0.20  C 
BRANCH 65 66
ATOM     66 OG   SER Z  39     -13.827  17.059  -5.007  1.00 30.52 LIG-0.40  OA
ATOM     67 HG   SER Z  39     -14.633  17.023  -4.774  1.00 30.52 LIG 0.21  HD
ENDBRANCH 65 66
ENDBRANCH 48 65
ENDBRANCH 46 48
ENDBRANCH 43 44
BRANCH 43 68
ATOM     68  CB  ASN Z  40     -15.628  14.369  -9.662  1.00 19.94 LIG 0.14  C 
BRANCH 68 69
ATOM     69  CG  ASN Z  40     -16.213  12.985  -9.866  1.00 19.97 LIG 0.22  C 
ATOM     70 OD1  ASN Z  40     -15.637  11.986  -9.428  1.00 23.42 LIG-0.27  OA
ATOM     71  ND2 ASN Z  40     -17.355  12.914 -10.543  1.00 19.32 LIG-0.37  N 
ATOM     72 21HD ASN Z  40     -17.720  12.150 -10.691  1.00 19.32 LIG 0.16  HD
ATOM     73 22HD ASN Z  40     -17.728  13.633 -10.834  1.00 19.32 LIG 0.16  HD
ENDBRANCH 68 69
ENDBRANCH 43 68
ENDBRANCH 40 43
ENDBRANCH 1 39
TORSDOF 29
ENDMDL
MODEL 10
USER: ADFR SOLUTION from run 21
USER: SCORE 20.704519 LL:  -5.271 LR: -16.812 RR:   0.000 FEB:  -8.162
USER: RMSD 8.138488
USER: SEED 20
USER: STATUS no improvement in best in 3 clusters for 5 generations
USER: GENES 31
USER: genes 0 Translation |==|  0.60450 0.50808 0.50191
USER: genes 1 Rotation |==|  0.55547 0.01803 0.61274 0.54379
USER: genes 2 Torsion [N]-CA--C-[N] |==|  0.13146
USER: genes 3 Torsion [C]-N--CA-[C] |==|  0.81477
USER: genes 4 Torsion [N]-CA--C-[N] |==|  0.45863
USER: genes 5 Torsion [C]-N--CA-[C] |==|  0.14020
USER: genes 6 Torsion [N]-CA--C-[N] |==|  0.12002
USER: genes 7 Torsion [C]-N--CA-[CB] |==|  0.78230
USER: genes 8 Torsion [N]-CA--CB-[CG] |==|  0.72780
USER: genes 9 Torsion [CA]-CB--CG-[OD1] |==|  0.96308
USER: genes 10 Torsion [N]-CA--C-[N] |==|  0.21136
USER: genes 11 Torsion [N]-CA--CB-[CG] |==|  0.73517
USER: genes 12 Torsion [CA]-CB--CG-[CD] |==|  0.48619
USER: genes 13 Torsion [CB]-CG--CD-[CE] |==|  0.59423
USER: genes 14 Torsion [CG]-CD--CE-[NZ] |==|  0.72110
USER: genes 15 Torsion [CD]-CE--NZ-[HZ3] |==|  0.36059
USER: genes 16 Torsion [N]-CA--CB-[CG1] |==|  0.57656
USER: genes 17 Torsion [CA]-CB--CG1-[CD1] |==|  0.19409
USER: genes 18 Torsion [CB]-CA--N-[C] |==|  0.15354
USER: genes 19 Torsion [N]-C--CA-[N] |==|  0.35422
USER: genes 20 Torsion [C]-CA--N-[C] |==|  0.72738
USER: genes 21 Torsion [N]-C--CA-[N] |==|  0.53674
USER: genes 22 Torsion [C]-CA--N-[C] |==|  0.56737
USER: genes 23 Torsion [N]-C--CA-[N] |==|  0.90556
USER: genes 24 Torsion [C]-CA--N-[C] |==|  0.85779
USER: genes 25 Torsion [C]-CA--CB-[CG] |==|  0.35768
USER: genes 26 Torsion [CA]-CB--CG-[OD1] |==|  0.88322
USER: genes 27 Torsion [C]-CA--CB-[OG] |==|  0.45925
USER: genes 28 Torsion [CA]-CB--OG-[HG] |==|  0.08343
USER: genes 29 Torsion [C]-CA--CB-[CG] |==|  0.73075
USER: genes 30 Torsion [CA]-CB--CG-[OD1] |==|  0.64155
ROOT
ATOM      1  CA  ALA Z  41     -14.472  12.976  -5.306  1.00 21.22 LIG 0.17  C 
ATOM      2  CB  ALA Z  41     -15.191  12.900  -6.651  1.00 23.94 LIG 0.04  C 
ENDROOT
BRANCH 1 3
ATOM      3  C   ALA Z  41     -13.470  11.830  -5.174  1.00 23.72 LIG 0.24  C 
ATOM      4 O    ALA Z  41     -13.454  10.911  -5.993  1.00 25.98 LIG-0.27  OA
ATOM      5  N   ILE Z  42     -12.638  11.884  -4.139  1.00 25.83 LIG-0.35  N 
ATOM      6 H    ILE Z  42     -12.627  12.517  -3.557  1.00 25.83 LIG 0.16  HD
BRANCH 5 7
ATOM      7  CA  ILE Z  42     -11.654  10.831  -3.918  1.00 30.93 LIG 0.18  C 
BRANCH 7 8
ATOM      8  C   ILE Z  42     -12.306   9.493  -3.562  1.00 34.23 LIG 0.24  C 
ATOM      9 O    ILE Z  42     -13.486   9.445  -3.214  1.00 38.88 LIG-0.27  OA
ATOM     10  N   LYS Z  43     -11.538   8.410  -3.639  1.00 34.26 LIG-0.35  N 
ATOM     11 H    LYS Z  43     -10.694   8.421  -3.807  1.00 34.26 LIG 0.16  HD
BRANCH 10 12
ATOM     12  CA  LYS Z  43     -12.105   7.078  -3.434  1.00 43.39 LIG 0.18  C 
BRANCH 12 13
ATOM     13  C   LYS Z  43     -13.357   6.797  -4.265  1.00 55.57 LIG 0.24  C 
ATOM     14  N   ASN Z  44     -13.332   7.189  -5.537  1.00 60.92 LIG-0.34  N 
ATOM     15 H    ASN Z  44     -12.650   7.561  -5.905  1.00 60.92 LIG 0.16  HD
ATOM     16 O    LYS Z  43     -14.326   6.231  -3.753  1.00 61.19 LIG-0.27  OA
BRANCH 14 17
ATOM     17  CA  ASN Z  44     -14.479   7.020  -6.435  1.00 70.44 LIG 0.19  C 
BRANCH 17 18
ATOM     18  CB  ASN Z  44     -14.585   5.575  -6.943  1.00 74.13 LIG 0.14  C 
BRANCH 18 19
ATOM     19  CG  ASN Z  44     -13.981   5.393  -8.325  1.00 76.38 LIG 0.22  C 
ATOM     20  ND2 ASN Z  44     -13.782   4.140  -8.724  1.00 76.67 LIG-0.37  N 
ATOM     21 21HD ASN Z  44     -13.442   3.984  -9.499  1.00 76.67 LIG 0.16  HD
ATOM     22 22HD ASN Z  44     -13.993   3.485  -8.209  1.00 76.67 LIG 0.16  HD
ATOM     23 OD1  ASN Z  44     -13.697   6.366  -9.024  1.00 76.30 LIG-0.27  OA
ENDBRANCH 18 19
ENDBRANCH 17 18
BRANCH 17 24
ATOM     24  C   ASN Z  44     -15.802   7.453  -5.799  1.00 74.17 LIG 0.28  C 
ATOM     25 O    ASN Z  44     -16.613   6.618  -5.395  1.00 72.97 LIG-0.27  OA
ATOM     26  N   NH2 Z  45     -16.013   8.764  -5.717  1.00 76.38 LIG-0.11  N 
ENDBRANCH 17 24
ENDBRANCH 14 17
ENDBRANCH 12 13
BRANCH 12 27
ATOM     27  CB  LYS Z  43     -12.365   6.814  -1.947  1.00 40.99 LIG 0.04  C 
BRANCH 27 28
ATOM     28  CG  LYS Z  43     -11.229   6.064  -1.258  1.00 39.01 LIG 0.00  C 
BRANCH 28 29
ATOM     29  CD  LYS Z  43     -11.461   5.923   0.241  1.00 38.38 LIG 0.03  C 
BRANCH 29 30
ATOM     30  CE  LYS Z  43     -10.140   5.977   1.003  1.00 38.40 LIG 0.23  C 
BRANCH 30 31
ATOM     31  NZ  LYS Z  43      -9.639   4.626   1.401  1.00 35.26 LIG-0.08  N 
ATOM     32 HZ3  LYS Z  43      -8.788   4.540   1.154  1.00 35.26 LIG 0.27  HD
ATOM     33 HZ2  LYS Z  43     -10.128   3.998   1.002  1.00 35.26 LIG 0.27  HD
ATOM     34 HZ1  LYS Z  43      -9.703   4.533   2.284  1.00 35.26 LIG 0.27  HD
ENDBRANCH 30 31
ENDBRANCH 29 30
ENDBRANCH 28 29
ENDBRANCH 27 28
ENDBRANCH 12 27
ENDBRANCH 10 12
ENDBRANCH 7 8
BRANCH 7 35
ATOM     35  CB  ILE Z  42     -10.640  11.207  -2.822  1.00 30.84 LIG 0.01  C 
ATOM     36  CG2 ILE Z  42     -11.173  10.817  -1.447  1.00 35.03 LIG 0.01  C 
BRANCH 35 37
ATOM     37  CG1 ILE Z  42      -9.310  10.497  -3.056  1.00 30.67 LIG 0.00  C 
ATOM     38  CD1 ILE Z  42      -8.553  11.014  -4.265  1.00 26.38 LIG 0.01  C 
ENDBRANCH 35 37
ENDBRANCH 7 35
ENDBRANCH 5 7
ENDBRANCH 1 3
BRANCH 1 39
ATOM     39  N   ALA Z  41     -13.817  14.272  -5.143  1.00 17.22 LIG-0.35  N 
ATOM     40  C   ASN Z  40     -14.495  15.413  -5.253  1.00 21.77 LIG 0.24  C 
ATOM     41 O    ASN Z  40     -15.703  15.456  -5.494  1.00 19.61 LIG-0.27  OA
ATOM     42 H    ALA Z  41     -12.976  14.227  -4.974  1.00 17.22 LIG 0.16  HD
BRANCH 40 43
ATOM     43  CA  ASN Z  40     -13.704  16.702  -5.062  1.00 23.64 LIG 0.18  C 
BRANCH 43 44
ATOM     44  N   ASN Z  40     -13.860  17.663  -6.150  1.00 28.07 LIG-0.34  N 
ATOM     45 H    ASN Z  40     -14.570  18.147  -6.107  1.00 28.07 LIG 0.16  HD
ATOM     46  C   SER Z  39     -12.950  17.748  -7.113  1.00 29.35 LIG 0.24  C 
ATOM     47 O    SER Z  39     -11.987  16.983  -7.193  1.00 27.34 LIG-0.27  OA
BRANCH 46 48
ATOM     48  CA  SER Z  39     -13.148  18.847  -8.146  1.00 36.10 LIG 0.20  C 
BRANCH 48 49
ATOM     49  N   SER Z  39     -12.253  18.579  -9.264  1.00 45.98 LIG-0.34  N 
ATOM     50  C   ASN Z  38     -11.840  19.549 -10.074  1.00 57.47 LIG 0.24  C 
ATOM     51 O    ASN Z  38     -12.364  20.665 -10.101  1.00 60.64 LIG-0.27  OA
ATOM     52 H    SER Z  39     -12.025  17.754  -9.348  1.00 45.98 LIG 0.16  HD
BRANCH 50 53
ATOM     53  CA  ASN Z  38     -10.659  19.202 -10.993  1.00 65.29 LIG 0.18  C 
BRANCH 53 54
ATOM     54  N   ASN Z  38      -9.651  18.282 -10.458  1.00 70.64 LIG-0.35  N 
ATOM     55 H    ASN Z  38      -9.476  17.622 -10.980  1.00 70.64 LIG 0.16  HD
ATOM     56  C   ACE Z  37      -9.063  18.453  -9.277  1.00 74.22 LIG 0.21  C 
ATOM     57  CH3 ACE Z  37      -8.011  17.413  -8.896  1.00 75.88 LIG 0.12  C 
ATOM     58 O    ACE Z  37      -9.335  19.380  -8.516  1.00 75.32 LIG-0.27  OA
ENDBRANCH 53 54
BRANCH 53 59
ATOM     59  CB  ASN Z  38     -11.202  18.667 -12.326  1.00 65.91 LIG 0.12  C 
BRANCH 59 60
ATOM     60  CG  ASN Z  38     -10.605  19.372 -13.534  1.00 66.48 LIG 0.15  C 
ATOM     61 OD1  ASN Z  38     -10.478  20.690 -13.439  1.00 67.09 LIG-0.18  OA
ATOM     62  ND2 ASN Z  38     -10.267  18.743 -14.539  1.00 65.12 LIG-0.38  N 
ATOM     63 22HD ASN Z  38     -10.364  17.889 -14.565  1.00 65.12 LIG 0.16  HD
ATOM     64 21HD ASN Z  38      -9.934  19.159 -15.214  1.00 65.12 LIG 0.16  HD
ENDBRANCH 59 60
ENDBRANCH 53 59
ENDBRANCH 50 53
ENDBRANCH 48 49
BRANCH 48 65
ATOM     65  CB  SER Z  39     -14.606  18.878  -8.592  1.00 33.12 LIG 0.20  C 
BRANCH 65 66
ATOM     66 OG   SER Z  39     -14.893  20.086  -9.286  1.00 30.52 LIG-0.40  OA
ATOM     67 HG   SER Z  39     -14.201  20.356  -9.677  1.00 30.52 LIG 0.21  HD
ENDBRANCH 65 66
ENDBRANCH 48 65
ENDBRANCH 46 48
ENDBRANCH 43 44
BRANCH 43 68
ATOM     68  CB  ASN Z  40     -14.065  17.331  -3.714  1.00 19.94 LIG 0.14  C 
BRANCH 68 69
ATOM     69  CG  ASN Z  40     -15.117  18.415  -3.846  1.00 19.97 LIG 0.22  C 
ATOM     70 OD1  ASN Z  40     -14.941  19.528  -3.344  1.00 23.42 LIG-0.27  OA
ATOM     71  ND2 ASN Z  40     -16.223  18.094  -4.509  1.00 19.32 LIG-0.37  N 
ATOM     72 21HD ASN Z  40     -16.852  18.673  -4.602  1.00 19.32 LIG 0.16  HD
ATOM     73 22HD ASN Z  40     -16.310  17.307  -4.845  1.00 19.32 LIG 0.16  HD
ENDBRANCH 68 69
ENDBRANCH 43 68
ENDBRANCH 40 43
ENDBRANCH 1 39
TORSDOF 29
ENDMDL
MODEL 11
USER: ADFR SOLUTION from run 82
USER: SCORE 18.821671 LL:  -5.404 LR: -16.764 RR:   0.000 FEB:  -8.113
USER: RMSD 5.758308
USER: SEED 81
USER: STATUS searching
USER: GENES 31
USER: genes 0 Translation |==|  0.55456 0.26120 0.46081
USER: genes 1 Rotation |==|  0.39648 0.91520 0.36310 0.71944
USER: genes 2 Torsion [N]-CA--C-[N] |==|  0.98634
USER: genes 3 Torsion [C]-N--CA-[C] |==|  0.76018
USER: genes 4 Torsion [N]-CA--C-[N] |==|  0.53304
USER: genes 5 Torsion [C]-N--CA-[C] |==|  0.83545
USER: genes 6 Torsion [N]-CA--C-[N] |==|  0.40781
USER: genes 7 Torsion [C]-N--CA-[CB] |==|  0.52855
USER: genes 8 Torsion [N]-CA--CB-[CG] |==|  0.67311
USER: genes 9 Torsion [CA]-CB--CG-[OD1] |==|  0.62818
USER: genes 10 Torsion [N]-CA--C-[N] |==|  0.79883
USER: genes 11 Torsion [N]-CA--CB-[CG] |==|  0.10614
USER: genes 12 Torsion [CA]-CB--CG-[CD] |==|  0.60093
USER: genes 13 Torsion [CB]-CG--CD-[CE] |==|  0.30455
USER: genes 14 Torsion [CG]-CD--CE-[NZ] |==|  0.58879
USER: genes 15 Torsion [CD]-CE--NZ-[HZ3] |==|  0.88189
USER: genes 16 Torsion [N]-CA--CB-[CG1] |==|  0.92425
USER: genes 17 Torsion [CA]-CB--CG1-[CD1] |==|  0.85345
USER: genes 18 Torsion [CB]-CA--N-[C] |==|  0.48090
USER: genes 19 Torsion [N]-C--CA-[N] |==|  0.97622
USER: genes 20 Torsion [C]-CA--N-[C] |==|  0.75285
USER: genes 21 Torsion [N]-C--CA-[N] |==|  0.04958
USER: genes 22 Torsion [C]-CA--N-[C] |==|  0.74325
USER: genes 23 Torsion [N]-C--CA-[N] |==|  0.99109
USER: genes 24 Torsion [C]-CA--N-[C] |==|  0.76053
USER: genes 25 Torsion [C]-CA--CB-[CG] |==|  0.21144
USER: genes 26 Torsion [CA]-CB--CG-[OD1] |==|  0.13360
USER: genes 27 Torsion [C]-CA--CB-[OG] |==|  0.71512
USER: genes 28 Torsion [CA]-CB--OG-[HG] |==|  0.59335
USER: genes 29 Torsion [C]-CA--CB-[CG] |==|  0.26959
USER: genes 30 Torsion [CA]-CB--CG-[OD1] |==|  0.32778
ROOT
ATOM      1  CA  ALA Z  41     -15.671   7.236  -6.231  1.00 21.22 LIG 0.17  C 
ATOM      2  CB  ALA Z  41     -14.855   7.155  -7.519  1.00 23.94 LIG 0.04  C 
ENDROOT
BRANCH 1 3
ATOM      3  C   ALA Z  41     -14.907   6.585  -5.078  1.00 23.72 LIG 0.24  C 
ATOM      4 O    ALA Z  41     -14.614   5.390  -5.113  1.00 25.98 LIG-0.27  OA
ATOM      5  N   ILE Z  42     -14.590   7.372  -4.056  1.00 25.83 LIG-0.35  N 
ATOM      6 H    ILE Z  42     -14.779   8.210  -4.011  1.00 25.83 LIG 0.16  HD
BRANCH 5 7
ATOM      7  CA  ILE Z  42     -13.873   6.843  -2.901  1.00 30.93 LIG 0.18  C 
BRANCH 7 8
ATOM      8  C   ILE Z  42     -14.817   6.239  -1.859  1.00 34.23 LIG 0.24  C 
ATOM      9 O    ILE Z  42     -16.003   6.046  -2.128  1.00 38.88 LIG-0.27  OA
ATOM     10  N   LYS Z  43     -14.295   5.952  -0.670  1.00 34.26 LIG-0.35  N 
ATOM     11 H    LYS Z  43     -13.492   6.143  -0.431  1.00 34.26 LIG 0.16  HD
BRANCH 10 12
ATOM     12  CA  LYS Z  43     -15.091   5.264   0.345  1.00 43.39 LIG 0.18  C 
BRANCH 12 13
ATOM     13  C   LYS Z  43     -16.364   6.007   0.753  1.00 55.57 LIG 0.24  C 
ATOM     14  N   ASN Z  44     -17.414   5.260   1.083  1.00 60.92 LIG-0.34  N 
ATOM     15 H    ASN Z  44     -17.398   4.400   1.100  1.00 60.92 LIG 0.16  HD
ATOM     16 O    LYS Z  43     -16.383   7.240   0.766  1.00 61.19 LIG-0.27  OA
BRANCH 14 17
ATOM     17  CA  ASN Z  44     -18.708   5.840   1.451  1.00 70.44 LIG 0.19  C 
BRANCH 17 18
ATOM     18  CB  ASN Z  44     -19.656   4.777   2.025  1.00 74.13 LIG 0.14  C 
BRANCH 18 19
ATOM     19  CG  ASN Z  44     -20.907   4.591   1.185  1.00 76.38 LIG 0.22  C 
ATOM     20  ND2 ASN Z  44     -20.730   4.492  -0.129  1.00 76.67 LIG-0.37  N 
ATOM     21 21HD ASN Z  44     -21.407   4.386  -0.648  1.00 76.67 LIG 0.16  HD
ATOM     22 22HD ASN Z  44     -19.938   4.533  -0.461  1.00 76.67 LIG 0.16  HD
ATOM     23 OD1  ASN Z  44     -22.020   4.538   1.711  1.00 76.30 LIG-0.27  OA
ENDBRANCH 18 19
ENDBRANCH 17 18
BRANCH 17 24
ATOM     24  C   ASN Z  44     -18.579   7.012   2.427  1.00 74.17 LIG 0.28  C 
ATOM     25 O    ASN Z  44     -18.775   8.171   2.054  1.00 72.97 LIG-0.27  OA
ATOM     26  N   NH2 Z  45     -18.246   6.702   3.676  1.00 76.38 LIG-0.11  N 
ENDBRANCH 17 24
ENDBRANCH 14 17
ENDBRANCH 12 13
BRANCH 12 27
ATOM     27  CB  LYS Z  43     -14.239   4.922   1.573  1.00 40.99 LIG 0.04  C 
BRANCH 27 28
ATOM     28  CG  LYS Z  43     -13.233   6.009   1.934  1.00 39.01 LIG 0.00  C 
BRANCH 28 29
ATOM     29  CD  LYS Z  43     -11.922   5.429   2.451  1.00 38.38 LIG 0.03  C 
BRANCH 29 30
ATOM     30  CE  LYS Z  43     -10.800   5.635   1.438  1.00 38.40 LIG 0.23  C 
BRANCH 30 31
ATOM     31  NZ  LYS Z  43      -9.784   4.538   1.461  1.00 35.26 LIG-0.08  N 
ATOM     32 HZ3  LYS Z  43      -9.600   4.321   2.305  1.00 35.26 LIG 0.27  HD
ATOM     33 HZ2  LYS Z  43      -9.040   4.813   1.057  1.00 35.26 LIG 0.27  HD
ATOM     34 HZ1  LYS Z  43     -10.106   3.826   1.036  1.00 35.26 LIG 0.27  HD
ENDBRANCH 30 31
ENDBRANCH 29 30
ENDBRANCH 28 29
ENDBRANCH 27 28
ENDBRANCH 12 27
ENDBRANCH 10 12
ENDBRANCH 7 8
BRANCH 7 35
ATOM     35  CB  ILE Z  42     -12.992   7.911  -2.228  1.00 30.84 LIG 0.01  C 
ATOM     36  CG2 ILE Z  42     -11.745   7.272  -1.627  1.00 35.03 LIG 0.01  C 
BRANCH 35 37
ATOM     37  CG1 ILE Z  42     -12.565   8.970  -3.241  1.00 30.67 LIG 0.00  C 
ATOM     38  CD1 ILE Z  42     -11.918   8.390  -4.485  1.00 26.38 LIG 0.01  C 
ENDBRANCH 35 37
ENDBRANCH 7 35
ENDBRANCH 5 7
ENDBRANCH 1 3
BRANCH 1 39
ATOM     39  N   ALA Z  41     -16.013   8.623  -5.922  1.00 17.22 LIG-0.35  N 
ATOM     40  C   ASN Z  40     -16.834   8.931  -4.920  1.00 21.77 LIG 0.24  C 
ATOM     41 O    ASN Z  40     -17.354   8.083  -4.193  1.00 19.61 LIG-0.27  OA
ATOM     42 H    ALA Z  41     -15.642   9.204  -6.436  1.00 17.22 LIG 0.16  HD
BRANCH 40 43
ATOM     43  CA  ASN Z  40     -17.115  10.412  -4.694  1.00 23.64 LIG 0.18  C 
BRANCH 43 44
ATOM     44  N   ASN Z  40     -16.281  11.304  -5.495  1.00 28.07 LIG-0.34  N 
ATOM     45 H    ASN Z  40     -16.613  11.523  -6.258  1.00 28.07 LIG 0.16  HD
ATOM     46  C   SER Z  39     -15.106  11.721  -5.039  1.00 29.35 LIG 0.24  C 
ATOM     47 O    SER Z  39     -14.620  11.324  -3.979  1.00 27.34 LIG-0.27  OA
BRANCH 46 48
ATOM     48  CA  SER Z  39     -14.357  12.728  -5.899  1.00 36.10 LIG 0.20  C 
BRANCH 48 49
ATOM     49  N   SER Z  39     -15.309  13.319  -6.831  1.00 45.98 LIG-0.34  N 
ATOM     50  C   ASN Z  38     -15.499  12.816  -8.047  1.00 57.47 LIG 0.24  C 
ATOM     51 O    ASN Z  38     -14.730  12.000  -8.560  1.00 60.64 LIG-0.27  OA
ATOM     52 H    SER Z  39     -15.724  14.008  -6.526  1.00 45.98 LIG 0.16  HD
BRANCH 50 53
ATOM     53  CA  ASN Z  38     -16.744  13.316  -8.795  1.00 65.29 LIG 0.18  C 
BRANCH 53 54
ATOM     54  N   ASN Z  38     -17.628  14.233  -8.071  1.00 70.64 LIG-0.35  N 
ATOM     55 H    ASN Z  38     -17.457  15.063  -8.217  1.00 70.64 LIG 0.16  HD
ATOM     56  C   ACE Z  37     -18.604  13.821  -7.265  1.00 74.22 LIG 0.21  C 
ATOM     57  CH3 ACE Z  37     -19.448  14.918  -6.620  1.00 75.88 LIG 0.12  C 
ATOM     58 O    ACE Z  37     -18.829  12.635  -7.031  1.00 75.32 LIG-0.27  OA
ENDBRANCH 53 54
BRANCH 53 59
ATOM     59  CB  ASN Z  38     -16.309  13.948 -10.126  1.00 65.91 LIG 0.12  C 
BRANCH 59 60
ATOM     60  CG  ASN Z  38     -15.937  12.915 -11.178  1.00 66.48 LIG 0.15  C 
ATOM     61 OD1  ASN Z  38     -16.798  11.918 -11.349  1.00 67.09 LIG-0.18  OA
ATOM     62  ND2 ASN Z  38     -14.893  13.008 -11.825  1.00 65.12 LIG-0.38  N 
ATOM     63 22HD ASN Z  38     -14.359  13.668 -11.687  1.00 65.12 LIG 0.16  HD
ATOM     64 21HD ASN Z  38     -14.698  12.413 -12.414  1.00 65.12 LIG 0.16  HD
ENDBRANCH 59 60
ENDBRANCH 53 59
ENDBRANCH 50 53
ENDBRANCH 48 49
BRANCH 48 65
ATOM     65  CB  SER Z  39     -13.714  13.788  -5.010  1.00 33.12 LIG 0.20  C 
BRANCH 65 66
ATOM     66 OG   SER Z  39     -14.469  14.992  -5.039  1.00 30.52 LIG-0.40  OA
ATOM     67 HG   SER Z  39     -13.951  15.650  -4.969  1.00 30.52 LIG 0.21  HD
ENDBRANCH 65 66
ENDBRANCH 48 65
ENDBRANCH 46 48
ENDBRANCH 43 44
BRANCH 43 68
ATOM     68  CB  ASN Z  40     -18.601  10.694  -4.922  1.00 19.94 LIG 0.14  C 
BRANCH 68 69
ATOM     69  CG  ASN Z  40     -19.391  10.713  -3.628  1.00 19.97 LIG 0.22  C 
ATOM     70 OD1  ASN Z  40     -19.974  11.737  -3.261  1.00 23.42 LIG-0.27  OA
ATOM     71  ND2 ASN Z  40     -19.406   9.588  -2.921  1.00 19.32 LIG-0.37  N 
ATOM     72 21HD ASN Z  40     -19.834   9.553  -2.176  1.00 19.32 LIG 0.16  HD
ATOM     73 22HD ASN Z  40     -18.987   8.894  -3.210  1.00 19.32 LIG 0.16  HD
ENDBRANCH 68 69
ENDBRANCH 43 68
ENDBRANCH 40 43
ENDBRANCH 1 39
TORSDOF 29
ENDMDL
MODEL 12
USER: ADFR SOLUTION from run 77
USER: SCORE 19.382206 LL:  -4.837 LR: -16.726 RR:   0.000 FEB:  -8.075
USER: RMSD 10.783975
USER: SEED 76
USER: STATUS no improvement in best in 7 clusters for 5 generations
USER: GENES 31
USER: genes 0 Translation |==|  0.54304 0.54403 0.40301
USER: genes 1 Rotation |==|  0.95227 0.31981 0.58275 0.57836
USER: genes 2 Torsion [N]-CA--C-[N] |==|  0.22156
USER: genes 3 Torsion [C]-N--CA-[C] |==|  0.65098
USER: genes 4 Torsion [N]-CA--C-[N] |==|  0.36868
USER: genes 5 Torsion [C]-N--CA-[C] |==|  0.62819
USER: genes 6 Torsion [N]-CA--C-[N] |==|  0.84904
USER: genes 7 Torsion [C]-N--CA-[CB] |==|  0.48333
USER: genes 8 Torsion [N]-CA--CB-[CG] |==|  0.01227
USER: genes 9 Torsion [CA]-CB--CG-[OD1] |==|  0.12667
USER: genes 10 Torsion [N]-CA--C-[N] |==|  0.47443
USER: genes 11 Torsion [N]-CA--CB-[CG] |==|  0.45867
USER: genes 12 Torsion [CA]-CB--CG-[CD] |==|  0.21743
USER: genes 13 Torsion [CB]-CG--CD-[CE] |==|  0.64473
USER: genes 14 Torsion [CG]-CD--CE-[NZ] |==|  0.92333
USER: genes 15 Torsion [CD]-CE--NZ-[HZ3] |==|  0.82906
USER: genes 16 Torsion [N]-CA--CB-[CG1] |==|  0.43793
USER: genes 17 Torsion [CA]-CB--CG1-[CD1] |==|  0.24296
USER: genes 18 Torsion [CB]-CA--N-[C] |==|  0.81084
USER: genes 19 Torsion [N]-C--CA-[N] |==|  0.85575
USER: genes 20 Torsion [C]-CA--N-[C] |==|  0.73705
USER: genes 21 Torsion [N]-C--CA-[N] |==|  0.45870
USER: genes 22 Torsion [C]-CA--N-[C] |==|  0.77527
USER: genes 23 Torsion [N]-C--CA-[N] |==|  0.10776
USER: genes 24 Torsion [C]-CA--N-[C] |==|  0.14740
USER: genes 25 Torsion [C]-CA--CB-[CG] |==|  0.33338
USER: genes 26 Torsion [CA]-CB--CG-[OD1] |==|  0.37628
USER: genes 27 Torsion [C]-CA--CB-[OG] |==|  0.64323
USER: genes 28 Torsion [CA]-CB--OG-[HG] |==|  0.86397
USER: genes 29 Torsion [C]-CA--CB-[CG] |==|  0.18094
USER: genes 30 Torsion [CA]-CB--CG-[OD1] |==|  0.06313
ROOT
ATOM      1  CA  ALA Z  41     -15.947  13.812  -7.531  1.00 21.22 LIG 0.17  C 
ATOM      2  CB  ALA Z  41     -15.897  12.574  -8.424  1.00 23.94 LIG 0.04  C 
ENDROOT
BRANCH 1 3
ATOM      3  C   ALA Z  41     -15.474  15.042  -8.304  1.00 23.72 LIG 0.24  C 
ATOM      4 O    ALA Z  41     -15.519  15.068  -9.534  1.00 25.98 LIG-0.27  OA
ATOM      5  N   ILE Z  42     -15.018  16.059  -7.581  1.00 25.83 LIG-0.35  N 
ATOM      6 H    ILE Z  42     -14.982  16.067  -6.721  1.00 25.83 LIG 0.16  HD
BRANCH 5 7
ATOM      7  CA  ILE Z  42     -14.531  17.274  -8.225  1.00 30.93 LIG 0.18  C 
BRANCH 7 8
ATOM      8  C   ILE Z  42     -13.112  17.636  -7.783  1.00 34.23 LIG 0.24  C 
ATOM      9 O    ILE Z  42     -12.811  17.641  -6.589  1.00 38.88 LIG-0.27  OA
ATOM     10  N   LYS Z  43     -12.244  17.948  -8.741  1.00 34.26 LIG-0.35  N 
ATOM     11 H    LYS Z  43     -12.444  18.024  -9.574  1.00 34.26 LIG 0.16  HD
BRANCH 10 12
ATOM     12  CA  LYS Z  43     -10.838  18.190  -8.423  1.00 43.39 LIG 0.18  C 
BRANCH 12 13
ATOM     13  C   LYS Z  43     -10.253  19.439  -9.084  1.00 55.57 LIG 0.24  C 
ATOM     14  N   ASN Z  44     -10.371  19.527 -10.406  1.00 60.92 LIG-0.34  N 
ATOM     15 H    ASN Z  44     -10.774  18.939 -10.887  1.00 60.92 LIG 0.16  HD
ATOM     16 O    LYS Z  43      -9.706  20.304  -8.396  1.00 61.19 LIG-0.27  OA
BRANCH 14 17
ATOM     17  CA  ASN Z  44      -9.819  20.649 -11.173  1.00 70.44 LIG 0.19  C 
BRANCH 17 18
ATOM     18  CB  ASN Z  44      -9.970  20.423 -12.684  1.00 74.13 LIG 0.14  C 
BRANCH 18 19
ATOM     19  CG  ASN Z  44     -10.743  19.158 -13.014  1.00 76.38 LIG 0.22  C 
ATOM     20  ND2 ASN Z  44     -10.230  18.380 -13.963  1.00 76.67 LIG-0.37  N 
ATOM     21 21HD ASN Z  44     -10.631  17.653 -14.186  1.00 76.67 LIG 0.16  HD
ATOM     22 22HD ASN Z  44      -9.497  18.604 -14.353  1.00 76.67 LIG 0.16  HD
ATOM     23 OD1  ASN Z  44     -11.789  18.884 -12.424  1.00 76.30 LIG-0.27  OA
ENDBRANCH 18 19
ENDBRANCH 17 18
BRANCH 17 24
ATOM     24  C   ASN Z  44     -10.427  21.997 -10.778  1.00 74.17 LIG 0.28  C 
ATOM     25 O    ASN Z  44     -11.404  22.055 -10.028  1.00 72.97 LIG-0.27  OA
ATOM     26  N   NH2 Z  45      -9.845  23.076 -11.292  1.00 76.38 LIG-0.11  N 
ENDBRANCH 17 24
ENDBRANCH 14 17
ENDBRANCH 12 13
BRANCH 12 27
ATOM     27  CB  LYS Z  43      -9.983  16.956  -8.731  1.00 40.99 LIG 0.04  C 
BRANCH 27 28
ATOM     28  CG  LYS Z  43      -8.487  17.249  -8.766  1.00 39.01 LIG 0.00  C 
BRANCH 28 29
ATOM     29  CD  LYS Z  43      -7.890  17.358  -7.368  1.00 38.38 LIG 0.03  C 
BRANCH 29 30
ATOM     30  CE  LYS Z  43      -7.106  18.657  -7.211  1.00 38.40 LIG 0.23  C 
BRANCH 30 31
ATOM     31  NZ  LYS Z  43      -6.549  19.163  -8.504  1.00 35.26 LIG-0.08  N 
ATOM     32 HZ3  LYS Z  43      -5.981  18.564  -8.837  1.00 35.26 LIG 0.27  HD
ATOM     33 HZ2  LYS Z  43      -6.121  19.931  -8.363  1.00 35.26 LIG 0.27  HD
ATOM     34 HZ1  LYS Z  43      -7.213  19.295  -9.081  1.00 35.26 LIG 0.27  HD
ENDBRANCH 30 31
ENDBRANCH 29 30
ENDBRANCH 28 29
ENDBRANCH 27 28
ENDBRANCH 12 27
ENDBRANCH 10 12
ENDBRANCH 7 8
BRANCH 7 35
ATOM     35  CB  ILE Z  42     -15.462  18.474  -7.974  1.00 30.84 LIG 0.01  C 
ATOM     36  CG2 ILE Z  42     -16.026  18.424  -6.558  1.00 35.03 LIG 0.01  C 
BRANCH 35 37
ATOM     37  CG1 ILE Z  42     -14.704  19.787  -8.157  1.00 30.67 LIG 0.00  C 
ATOM     38  CD1 ILE Z  42     -14.700  20.288  -9.588  1.00 26.38 LIG 0.01  C 
ENDBRANCH 35 37
ENDBRANCH 7 35
ENDBRANCH 5 7
ENDBRANCH 1 3
BRANCH 1 39
ATOM     39  N   ALA Z  41     -17.292  14.008  -6.996  1.00 17.22 LIG-0.35  N 
ATOM     40  C   ASN Z  40     -18.312  14.349  -7.781  1.00 21.77 LIG 0.24  C 
ATOM     41 O    ASN Z  40     -18.196  14.517  -8.997  1.00 19.61 LIG-0.27  OA
ATOM     42 H    ALA Z  41     -17.359  13.886  -6.147  1.00 17.22 LIG 0.16  HD
BRANCH 40 43
ATOM     43  CA  ASN Z  40     -19.668  14.524  -7.108  1.00 23.64 LIG 0.18  C 
BRANCH 43 44
ATOM     44  N   ASN Z  40     -20.073  13.389  -6.284  1.00 28.07 LIG-0.34  N 
ATOM     45 H    ASN Z  40     -19.773  13.402  -5.478  1.00 28.07 LIG 0.16  HD
ATOM     46  C   SER Z  39     -20.849  12.433  -6.782  1.00 29.35 LIG 0.24  C 
ATOM     47 O    SER Z  39     -21.194  12.401  -7.965  1.00 27.34 LIG-0.27  OA
BRANCH 46 48
ATOM     48  CA  SER Z  39     -21.301  11.347  -5.818  1.00 36.10 LIG 0.20  C 
BRANCH 48 49
ATOM     49  N   SER Z  39     -22.398  10.620  -6.442  1.00 45.98 LIG-0.34  N 
ATOM     50  C   ASN Z  38     -23.642  11.087  -6.427  1.00 57.47 LIG 0.24  C 
ATOM     51 O    ASN Z  38     -24.001  12.008  -5.690  1.00 60.64 LIG-0.27  OA
ATOM     52 H    SER Z  39     -22.168   9.878  -6.811  1.00 45.98 LIG 0.16  HD
BRANCH 50 53
ATOM     53  CA  ASN Z  38     -24.629  10.407  -7.388  1.00 65.29 LIG 0.18  C 
BRANCH 53 54
ATOM     54  N   ASN Z  38     -24.509   8.954  -7.543  1.00 70.64 LIG-0.35  N 
ATOM     55 H    ASN Z  38     -24.436   8.700  -8.361  1.00 70.64 LIG 0.16  HD
ATOM     56  C   ACE Z  37     -24.511   8.109  -6.515  1.00 74.22 LIG 0.21  C 
ATOM     57  CH3 ACE Z  37     -24.342   6.632  -6.863  1.00 75.88 LIG 0.12  C 
ATOM     58 O    ACE Z  37     -24.647   8.469  -5.347  1.00 75.32 LIG-0.27  OA
ENDBRANCH 53 54
BRANCH 53 59
ATOM     59  CB  ASN Z  38     -26.063  10.773  -6.977  1.00 65.91 LIG 0.12  C 
BRANCH 59 60
ATOM     60  CG  ASN Z  38     -26.826  11.498  -8.074  1.00 66.48 LIG 0.15  C 
ATOM     61 OD1  ASN Z  38     -28.072  11.092  -8.285  1.00 67.09 LIG-0.18  OA
ATOM     62  ND2 ASN Z  38     -26.304  12.406  -8.724  1.00 65.12 LIG-0.38  N 
ATOM     63 22HD ASN Z  38     -25.494  12.643  -8.559  1.00 65.12 LIG 0.16  HD
ATOM     64 21HD ASN Z  38     -26.751  12.803  -9.343  1.00 65.12 LIG 0.16  HD
ENDBRANCH 59 60
ENDBRANCH 53 59
ENDBRANCH 50 53
ENDBRANCH 48 49
BRANCH 48 65
ATOM     65  CB  SER Z  39     -20.130  10.424  -5.496  1.00 33.12 LIG 0.20  C 
BRANCH 65 66
ATOM     66 OG   SER Z  39     -20.491   9.064  -5.702  1.00 30.52 LIG-0.40  OA
ATOM     67 HG   SER Z  39     -21.223   8.908  -5.321  1.00 30.52 LIG 0.21  HD
ENDBRANCH 65 66
ENDBRANCH 48 65
ENDBRANCH 46 48
ENDBRANCH 43 44
BRANCH 43 68
ATOM     68  CB  ASN Z  40     -19.678  15.824  -6.301  1.00 19.94 LIG 0.14  C 
BRANCH 68 69
ATOM     69  CG  ASN Z  40     -19.551  17.052  -7.182  1.00 19.97 LIG 0.22  C 
ATOM     70 OD1  ASN Z  40     -19.865  17.008  -8.374  1.00 23.42 LIG-0.27  OA
ATOM     71  ND2 ASN Z  40     -19.077  18.152  -6.605  1.00 19.32 LIG-0.37  N 
ATOM     72 21HD ASN Z  40     -18.980  18.871  -7.067  1.00 19.32 LIG 0.16  HD
ATOM     73 22HD ASN Z  40     -18.868  18.144  -5.771  1.00 19.32 LIG 0.16  HD
ENDBRANCH 68 69
ENDBRANCH 43 68
ENDBRANCH 40 43
ENDBRANCH 1 39
TORSDOF 29
ENDMDL
MODEL 13
USER: ADFR SOLUTION from run 181
USER: SCORE 21.335525 LL:  -6.052 LR: -16.657 RR:   0.000 FEB:  -8.006
USER: RMSD 11.741983
USER: SEED 180
USER: STATUS searching
USER: GENES 31
USER: genes 0 Translation |==|  0.56415 0.51638 0.34609
USER: genes 1 Rotation |==|  0.93439 0.44423 0.26156 0.53661
USER: genes 2 Torsion [N]-CA--C-[N] |==|  0.15718
USER: genes 3 Torsion [C]-N--CA-[C] |==|  0.63262
USER: genes 4 Torsion [N]-CA--C-[N] |==|  0.91279
USER: genes 5 Torsion [C]-N--CA-[C] |==|  0.82222
USER: genes 6 Torsion [N]-CA--C-[N] |==|  0.46647
USER: genes 7 Torsion [C]-N--CA-[CB] |==|  0.84869
USER: genes 8 Torsion [N]-CA--CB-[CG] |==|  0.36155
USER: genes 9 Torsion [CA]-CB--CG-[OD1] |==|  0.18376
USER: genes 10 Torsion [N]-CA--C-[N] |==|  0.39950
USER: genes 11 Torsion [N]-CA--CB-[CG] |==|  0.23720
USER: genes 12 Torsion [CA]-CB--CG-[CD] |==|  0.23830
USER: genes 13 Torsion [CB]-CG--CD-[CE] |==|  0.13995
USER: genes 14 Torsion [CG]-CD--CE-[NZ] |==|  0.47369
USER: genes 15 Torsion [CD]-CE--NZ-[HZ3] |==|  0.99426
USER: genes 16 Torsion [N]-CA--CB-[CG1] |==|  0.07886
USER: genes 17 Torsion [CA]-CB--CG1-[CD1] |==|  0.19515
USER: genes 18 Torsion [CB]-CA--N-[C] |==|  0.81478
USER: genes 19 Torsion [N]-C--CA-[N] |==|  0.95369
USER: genes 20 Torsion [C]-CA--N-[C] |==|  0.82630
USER: genes 21 Torsion [N]-C--CA-[N] |==|  0.95577
USER: genes 22 Torsion [C]-CA--N-[C] |==|  0.72102
USER: genes 23 Torsion [N]-C--CA-[N] |==|  0.91396
USER: genes 24 Torsion [C]-CA--N-[C] |==|  0.80096
USER: genes 25 Torsion [C]-CA--CB-[CG] |==|  0.43225
USER: genes 26 Torsion [CA]-CB--CG-[OD1] |==|  0.05271
USER: genes 27 Torsion [C]-CA--CB-[OG] |==|  0.38510
USER: genes 28 Torsion [CA]-CB--OG-[HG] |==|  0.18510
USER: genes 29 Torsion [C]-CA--CB-[CG] |==|  0.26044
USER: genes 30 Torsion [CA]-CB--CG-[OD1] |==|  0.36843
ROOT
ATOM      1  CA  ALA Z  41     -15.440  13.169  -8.812  1.00 21.22 LIG 0.17  C 
ATOM      2  CB  ALA Z  41     -16.416  12.384  -9.686  1.00 23.94 LIG 0.04  C 
ENDROOT
BRANCH 1 3
ATOM      3  C   ALA Z  41     -15.900  14.620  -8.675  1.00 23.72 LIG 0.24  C 
ATOM      4 O    ALA Z  41     -16.925  15.011  -9.235  1.00 25.98 LIG-0.27  OA
ATOM      5  N   ILE Z  42     -15.139  15.416  -7.933  1.00 25.83 LIG-0.35  N 
ATOM      6 H    ILE Z  42     -14.423  15.166  -7.528  1.00 25.83 LIG 0.16  HD
BRANCH 5 7
ATOM      7  CA  ILE Z  42     -15.485  16.822  -7.752  1.00 30.93 LIG 0.18  C 
BRANCH 7 8
ATOM      8  C   ILE Z  42     -14.289  17.748  -7.978  1.00 34.23 LIG 0.24  C 
ATOM      9 O    ILE Z  42     -14.451  18.879  -8.437  1.00 38.88 LIG-0.27  OA
ATOM     10  N   LYS Z  43     -13.088  17.267  -7.665  1.00 34.26 LIG-0.35  N 
ATOM     11 H    LYS Z  43     -12.938  16.459  -7.412  1.00 34.26 LIG 0.16  HD
BRANCH 10 12
ATOM     12  CA  LYS Z  43     -11.903  18.120  -7.734  1.00 43.39 LIG 0.18  C 
BRANCH 12 13
ATOM     13  C   LYS Z  43     -11.569  18.613  -9.143  1.00 55.57 LIG 0.24  C 
ATOM     14  N   ASN Z  44     -10.661  19.582  -9.239  1.00 60.92 LIG-0.34  N 
ATOM     15 H    ASN Z  44     -10.249  19.914  -8.562  1.00 60.92 LIG 0.16  HD
ATOM     16 O    LYS Z  43     -12.130  18.115 -10.122  1.00 61.19 LIG-0.27  OA
BRANCH 14 17
ATOM     17  CA  ASN Z  44     -10.278  20.176 -10.523  1.00 70.44 LIG 0.19  C 
BRANCH 17 18
ATOM     18  CB  ASN Z  44      -9.825  19.104 -11.524  1.00 74.13 LIG 0.14  C 
BRANCH 18 19
ATOM     19  CG  ASN Z  44     -10.510  19.234 -12.873  1.00 76.38 LIG 0.22  C 
ATOM     20  ND2 ASN Z  44     -11.331  18.246 -13.220  1.00 76.67 LIG-0.37  N 
ATOM     21 21HD ASN Z  44     -11.742  18.273 -13.974  1.00 76.67 LIG 0.16  HD
ATOM     22 22HD ASN Z  44     -11.451  17.581 -12.689  1.00 76.67 LIG 0.16  HD
ATOM     23 OD1  ASN Z  44     -10.303  20.210 -13.596  1.00 76.30 LIG-0.27  OA
ENDBRANCH 18 19
ENDBRANCH 17 18
BRANCH 17 24
ATOM     24  C   ASN Z  44     -11.386  21.036 -11.136  1.00 74.17 LIG 0.28  C 
ATOM     25 O    ASN Z  44     -12.571  20.714 -11.023  1.00 72.97 LIG-0.27  OA
ATOM     26  N   NH2 Z  45     -10.992  22.126 -11.787  1.00 76.38 LIG-0.11  N 
ENDBRANCH 17 24
ENDBRANCH 14 17
ENDBRANCH 12 13
BRANCH 12 27
ATOM     27  CB  LYS Z  43     -10.692  17.434  -7.092  1.00 40.99 LIG 0.04  C 
BRANCH 27 28
ATOM     28  CG  LYS Z  43      -9.944  16.509  -8.047  1.00 39.01 LIG 0.00  C 
BRANCH 28 29
ATOM     29  CD  LYS Z  43      -8.910  17.258  -8.879  1.00 38.38 LIG 0.03  C 
BRANCH 29 30
ATOM     30  CE  LYS Z  43      -8.015  18.117  -7.990  1.00 38.40 LIG 0.23  C 
BRANCH 30 31
ATOM     31  NZ  LYS Z  43      -6.847  18.695  -8.723  1.00 35.26 LIG-0.08  N 
ATOM     32 HZ3  LYS Z  43      -6.855  18.410  -9.566  1.00 35.26 LIG 0.27  HD
ATOM     33 HZ2  LYS Z  43      -6.091  18.435  -8.330  1.00 35.26 LIG 0.27  HD
ATOM     34 HZ1  LYS Z  43      -6.898  19.583  -8.709  1.00 35.26 LIG 0.27  HD
ENDBRANCH 30 31
ENDBRANCH 29 30
ENDBRANCH 28 29
ENDBRANCH 27 28
ENDBRANCH 12 27
ENDBRANCH 10 12
ENDBRANCH 7 8
BRANCH 7 35
ATOM     35  CB  ILE Z  42     -16.081  17.095  -6.358  1.00 30.84 LIG 0.01  C 
ATOM     36  CG2 ILE Z  42     -17.601  16.985  -6.397  1.00 35.03 LIG 0.01  C 
BRANCH 35 37
ATOM     37  CG1 ILE Z  42     -15.539  16.096  -5.339  1.00 30.67 LIG 0.00  C 
ATOM     38  CD1 ILE Z  42     -14.074  16.306  -5.006  1.00 26.38 LIG 0.01  C 
ENDBRANCH 35 37
ENDBRANCH 7 35
ENDBRANCH 5 7
ENDBRANCH 1 3
BRANCH 1 39
ATOM     39  N   ALA Z  41     -15.294  12.535  -7.504  1.00 17.22 LIG-0.35  N 
ATOM     40  C   ASN Z  40     -16.303  12.485  -6.637  1.00 21.77 LIG 0.24  C 
ATOM     41 O    ASN Z  40     -17.415  12.961  -6.873  1.00 19.61 LIG-0.27  OA
ATOM     42 H    ALA Z  41     -14.514  12.206  -7.353  1.00 17.22 LIG 0.16  HD
BRANCH 40 43
ATOM     43  CA  ASN Z  40     -16.030  11.796  -5.305  1.00 23.64 LIG 0.18  C 
BRANCH 43 44
ATOM     44  N   ASN Z  40     -14.836  10.956  -5.304  1.00 28.07 LIG-0.34  N 
ATOM     45 H    ASN Z  40     -14.220  11.203  -4.757  1.00 28.07 LIG 0.16  HD
ATOM     46  C   SER Z  39     -14.752   9.899  -6.103  1.00 29.35 LIG 0.24  C 
ATOM     47 O    SER Z  39     -15.617   9.619  -6.936  1.00 27.34 LIG-0.27  OA
BRANCH 46 48
ATOM     48  CA  SER Z  39     -13.514   9.028  -5.957  1.00 36.10 LIG 0.20  C 
BRANCH 48 49
ATOM     49  N   SER Z  39     -12.517   9.785  -5.211  1.00 45.98 LIG-0.34  N 
ATOM     50  C   ASN Z  38     -11.508  10.399  -5.821  1.00 57.47 LIG 0.24  C 
ATOM     51 O    ASN Z  38     -11.199  10.173  -6.993  1.00 60.64 LIG-0.27  OA
ATOM     52 H    SER Z  39     -12.641   9.794  -4.360  1.00 45.98 LIG 0.16  HD
BRANCH 50 53
ATOM     53  CA  ASN Z  38     -10.732  11.420  -4.976  1.00 65.29 LIG 0.18  C 
BRANCH 53 54
ATOM     54  N   ASN Z  38     -11.485  12.133  -3.941  1.00 70.64 LIG-0.35  N 
ATOM     55 H    ASN Z  38     -11.288  11.888  -3.140  1.00 70.64 LIG 0.16  HD
ATOM     56  C   ACE Z  37     -12.388  13.071  -4.213  1.00 74.22 LIG 0.21  C 
ATOM     57  CH3 ACE Z  37     -13.051  13.732  -3.006  1.00 75.88 LIG 0.12  C 
ATOM     58 O    ACE Z  37     -12.694  13.401  -5.357  1.00 75.32 LIG-0.27  OA
ENDBRANCH 53 54
BRANCH 53 59
ATOM     59  CB  ASN Z  38      -9.510  10.729  -4.353  1.00 65.91 LIG 0.12  C 
BRANCH 59 60
ATOM     60  CG  ASN Z  38      -8.391  11.700  -4.012  1.00 66.48 LIG 0.15  C 
ATOM     61 OD1  ASN Z  38      -8.734  12.979  -3.917  1.00 67.09 LIG-0.18  OA
ATOM     62  ND2 ASN Z  38      -7.235  11.309  -3.839  1.00 65.12 LIG-0.38  N 
ATOM     63 22HD ASN Z  38      -7.049  10.472  -3.908  1.00 65.12 LIG 0.16  HD
ATOM     64 21HD ASN Z  38      -6.614  11.873  -3.649  1.00 65.12 LIG 0.16  HD
ENDBRANCH 59 60
ENDBRANCH 53 59
ENDBRANCH 50 53
ENDBRANCH 48 49
BRANCH 48 65
ATOM     65  CB  SER Z  39     -13.879   7.730  -5.243  1.00 33.12 LIG 0.20  C 
BRANCH 65 66
ATOM     66 OG   SER Z  39     -13.224   6.623  -5.849  1.00 30.52 LIG-0.40  OA
ATOM     67 HG   SER Z  39     -12.395   6.686  -5.727  1.00 30.52 LIG 0.21  HD
ENDBRANCH 65 66
ENDBRANCH 48 65
ENDBRANCH 46 48
ENDBRANCH 43 44
BRANCH 43 68
ATOM     68  CB  ASN Z  40     -15.971  12.841  -4.188  1.00 19.94 LIG 0.14  C 
BRANCH 68 69
ATOM     69  CG  ASN Z  40     -17.308  13.026  -3.497  1.00 19.97 LIG 0.22  C 
ATOM     70 OD1  ASN Z  40     -17.385  13.039  -2.267  1.00 23.42 LIG-0.27  OA
ATOM     71  ND2 ASN Z  40     -18.372  13.158  -4.284  1.00 19.32 LIG-0.37  N 
ATOM     72 21HD ASN Z  40     -19.153  13.257  -3.937  1.00 19.32 LIG 0.16  HD
ATOM     73 22HD ASN Z  40     -18.278  13.143  -5.139  1.00 19.32 LIG 0.16  HD
ENDBRANCH 68 69
ENDBRANCH 43 68
ENDBRANCH 40 43
ENDBRANCH 1 39
TORSDOF 29
ENDMDL
MODEL 14
USER: ADFR SOLUTION from run 126
USER: SCORE 19.899552 LL:  -4.229 LR: -16.647 RR:   0.000 FEB:  -7.996
USER: RMSD 7.273641
USER: SEED 125
USER: STATUS searching
USER: GENES 31
USER: genes 0 Translation |==|  0.78773 0.39083 0.52921
USER: genes 1 Rotation |==|  0.59007 0.56058 0.31422 0.95134
USER: genes 2 Torsion [N]-CA--C-[N] |==|  0.39165
USER: genes 3 Torsion [C]-N--CA-[C] |==|  0.75549
USER: genes 4 Torsion [N]-CA--C-[N] |==|  0.98366
USER: genes 5 Torsion [C]-N--CA-[C] |==|  0.84880
USER: genes 6 Torsion [N]-CA--C-[N] |==|  0.38008
USER: genes 7 Torsion [C]-N--CA-[CB] |==|  0.85231
USER: genes 8 Torsion [N]-CA--CB-[CG] |==|  0.78175
USER: genes 9 Torsion [CA]-CB--CG-[OD1] |==|  0.38413
USER: genes 10 Torsion [N]-CA--C-[N] |==|  0.88441
USER: genes 11 Torsion [N]-CA--CB-[CG] |==|  0.30901
USER: genes 12 Torsion [CA]-CB--CG-[CD] |==|  0.34225
USER: genes 13 Torsion [CB]-CG--CD-[CE] |==|  0.37825
USER: genes 14 Torsion [CG]-CD--CE-[NZ] |==|  0.72500
USER: genes 15 Torsion [CD]-CE--NZ-[HZ3] |==|  0.35449
USER: genes 16 Torsion [N]-CA--CB-[CG1] |==|  0.64229
USER: genes 17 Torsion [CA]-CB--CG1-[CD1] |==|  0.49754
USER: genes 18 Torsion [CB]-CA--N-[C] |==|  0.84989
USER: genes 19 Torsion [N]-C--CA-[N] |==|  0.28377
USER: genes 20 Torsion [C]-CA--N-[C] |==|  0.62379
USER: genes 21 Torsion [N]-C--CA-[N] |==|  0.50972
USER: genes 22 Torsion [C]-CA--N-[C] |==|  0.72835
USER: genes 23 Torsion [N]-C--CA-[N] |==|  0.40000
USER: genes 24 Torsion [C]-CA--N-[C] |==|  0.60771
USER: genes 25 Torsion [C]-CA--CB-[CG] |==|  0.34625
USER: genes 26 Torsion [CA]-CB--CG-[OD1] |==|  0.11005
USER: genes 27 Torsion [C]-CA--CB-[OG] |==|  0.59185
USER: genes 28 Torsion [CA]-CB--OG-[HG] |==|  0.00894
USER: genes 29 Torsion [C]-CA--CB-[CG] |==|  0.19974
USER: genes 30 Torsion [CA]-CB--CG-[OD1] |==|  0.94480
ROOT
ATOM      1  CA  ALA Z  41     -10.074  10.250  -4.692  1.00 21.22 LIG 0.17  C 
ATOM      2  CB  ALA Z  41      -9.198   9.894  -3.493  1.00 23.94 LIG 0.04  C 
ENDROOT
BRANCH 1 3
ATOM      3  C   ALA Z  41     -11.495   9.728  -4.483  1.00 23.72 LIG 0.24  C 
ATOM      4 O    ALA Z  41     -12.316  10.379  -3.837  1.00 25.98 LIG-0.27  OA
ATOM      5  N   ILE Z  42     -11.782   8.550  -5.028  1.00 25.83 LIG-0.35  N 
ATOM      6 H    ILE Z  42     -11.228   8.080  -5.488  1.00 25.83 LIG 0.16  HD
BRANCH 5 7
ATOM      7  CA  ILE Z  42     -13.107   7.960  -4.875  1.00 30.93 LIG 0.18  C 
BRANCH 7 8
ATOM      8  C   ILE Z  42     -13.220   7.113  -3.606  1.00 34.23 LIG 0.24  C 
ATOM      9 O    ILE Z  42     -14.305   6.639  -3.265  1.00 38.88 LIG-0.27  OA
ATOM     10  N   LYS Z  43     -12.106   6.930  -2.902  1.00 34.26 LIG-0.35  N 
ATOM     11 H    LYS Z  43     -11.353   7.308  -3.075  1.00 34.26 LIG 0.16  HD
BRANCH 10 12
ATOM     12  CA  LYS Z  43     -12.094   6.038  -1.744  1.00 43.39 LIG 0.18  C 
BRANCH 12 13
ATOM     13  C   LYS Z  43     -13.157   6.363  -0.694  1.00 55.57 LIG 0.24  C 
ATOM     14  N   ASN Z  44     -13.819   5.332  -0.173  1.00 60.92 LIG-0.34  N 
ATOM     15 H    ASN Z  44     -13.659   4.513  -0.380  1.00 60.92 LIG 0.16  HD
ATOM     16 O    LYS Z  43     -13.367   7.533  -0.366  1.00 61.19 LIG-0.27  OA
BRANCH 14 17
ATOM     17  CA  ASN Z  44     -14.892   5.502   0.811  1.00 70.44 LIG 0.19  C 
BRANCH 17 18
ATOM     18  CB  ASN Z  44     -14.430   6.353   2.003  1.00 74.13 LIG 0.14  C 
BRANCH 18 19
ATOM     19  CG  ASN Z  44     -13.587   5.569   2.992  1.00 76.38 LIG 0.22  C 
ATOM     20  ND2 ASN Z  44     -13.995   4.334   3.272  1.00 76.67 LIG-0.37  N 
ATOM     21 21HD ASN Z  44     -13.552   3.850   3.827  1.00 76.67 LIG 0.16  HD
ATOM     22 22HD ASN Z  44     -14.703   4.020   2.898  1.00 76.67 LIG 0.16  HD
ATOM     23 OD1  ASN Z  44     -12.581   6.067   3.500  1.00 76.30 LIG-0.27  OA
ENDBRANCH 18 19
ENDBRANCH 17 18
BRANCH 17 24
ATOM     24  C   ASN Z  44     -16.168   6.093   0.205  1.00 74.17 LIG 0.28  C 
ATOM     25 O    ASN Z  44     -17.278   5.658   0.519  1.00 72.97 LIG-0.27  OA
ATOM     26  N   NH2 Z  45     -15.999   7.083  -0.666  1.00 76.38 LIG-0.11  N 
ENDBRANCH 17 24
ENDBRANCH 14 17
ENDBRANCH 12 13
BRANCH 12 27
ATOM     27  CB  LYS Z  43     -10.700   5.977  -1.111  1.00 40.99 LIG 0.04  C 
BRANCH 27 28
ATOM     28  CG  LYS Z  43     -10.630   6.632   0.265  1.00 39.01 LIG 0.00  C 
BRANCH 28 29
ATOM     29  CD  LYS Z  43     -10.128   5.670   1.334  1.00 38.38 LIG 0.03  C 
BRANCH 29 30
ATOM     30  CE  LYS Z  43      -9.107   6.350   2.241  1.00 38.40 LIG 0.23  C 
BRANCH 30 31
ATOM     31  NZ  LYS Z  43      -7.693   6.030   1.873  1.00 35.26 LIG-0.08  N 
ATOM     32 HZ3  LYS Z  43      -7.233   6.787   1.776  1.00 35.26 LIG 0.27  HD
ATOM     33 HZ2  LYS Z  43      -7.681   5.577   1.107  1.00 35.26 LIG 0.27  HD
ATOM     34 HZ1  LYS Z  43      -7.323   5.538   2.515  1.00 35.26 LIG 0.27  HD
ENDBRANCH 30 31
ENDBRANCH 29 30
ENDBRANCH 28 29
ENDBRANCH 27 28
ENDBRANCH 12 27
ENDBRANCH 10 12
ENDBRANCH 7 8
BRANCH 7 35
ATOM     35  CB  ILE Z  42     -13.503   7.104  -6.092  1.00 30.84 LIG 0.01  C 
ATOM     36  CG2 ILE Z  42     -13.536   5.626  -5.716  1.00 35.03 LIG 0.01  C 
BRANCH 35 37
ATOM     37  CG1 ILE Z  42     -14.880   7.513  -6.609  1.00 30.67 LIG 0.00  C 
ATOM     38  CD1 ILE Z  42     -15.328   6.724  -7.824  1.00 26.38 LIG 0.01  C 
ENDBRANCH 35 37
ENDBRANCH 7 35
ENDBRANCH 5 7
ENDBRANCH 1 3
BRANCH 1 39
ATOM     39  N   ALA Z  41     -10.070  11.692  -4.925  1.00 17.22 LIG-0.35  N 
ATOM     40  C   ASN Z  40     -10.382  12.555  -3.960  1.00 21.77 LIG 0.24  C 
ATOM     41 O    ASN Z  40     -10.691  12.204  -2.820  1.00 19.61 LIG-0.27  OA
ATOM     42 H    ALA Z  41      -9.852  11.923  -5.724  1.00 17.22 LIG 0.16  HD
BRANCH 40 43
ATOM     43  CA  ASN Z  40     -10.341  14.034  -4.323  1.00 23.64 LIG 0.18  C 
BRANCH 43 44
ATOM     44  N   ASN Z  40     -11.655  14.625  -4.561  1.00 28.07 LIG-0.34  N 
ATOM     45 H    ASN Z  40     -12.257  14.412  -3.985  1.00 28.07 LIG 0.16  HD
ATOM     46  C   SER Z  39     -11.858  15.426  -5.601  1.00 29.35 LIG 0.24  C 
ATOM     47 O    SER Z  39     -10.996  15.645  -6.455  1.00 27.34 LIG-0.27  OA
BRANCH 46 48
ATOM     48  CA  SER Z  39     -13.230  16.073  -5.707  1.00 36.10 LIG 0.20  C 
BRANCH 48 49
ATOM     49  N   SER Z  39     -13.272  16.836  -6.948  1.00 45.98 LIG-0.34  N 
ATOM     50  C   ASN Z  38     -13.052  18.147  -6.968  1.00 57.47 LIG 0.24  C 
ATOM     51 O    ASN Z  38     -13.052  18.840  -5.949  1.00 60.64 LIG-0.27  OA
ATOM     52 H    SER Z  39     -13.448  16.368  -7.648  1.00 45.98 LIG 0.16  HD
BRANCH 50 53
ATOM     53  CA  ASN Z  38     -12.799  18.766  -8.351  1.00 65.29 LIG 0.18  C 
BRANCH 53 54
ATOM     54  N   ASN Z  38     -13.334  20.111  -8.584  1.00 70.64 LIG-0.35  N 
ATOM     55 H    ASN Z  38     -13.266  20.631  -7.902  1.00 70.64 LIG 0.16  HD
ATOM     56  C   ACE Z  37     -13.875  20.491  -9.738  1.00 74.22 LIG 0.21  C 
ATOM     57  CH3 ACE Z  37     -14.350  21.940  -9.811  1.00 75.88 LIG 0.12  C 
ATOM     58 O    ACE Z  37     -14.003  19.738 -10.702  1.00 75.32 LIG-0.27  OA
ENDBRANCH 53 54
BRANCH 53 59
ATOM     59  CB  ASN Z  38     -11.291  18.745  -8.642  1.00 65.91 LIG 0.12  C 
BRANCH 59 60
ATOM     60  CG  ASN Z  38     -10.949  18.041  -9.946  1.00 66.48 LIG 0.15  C 
ATOM     61 OD1  ASN Z  38     -11.772  18.263 -10.964  1.00 67.09 LIG-0.18  OA
ATOM     62  ND2 ASN Z  38      -9.965  17.305 -10.036  1.00 65.12 LIG-0.38  N 
ATOM     63 22HD ASN Z  38      -9.453  17.185  -9.355  1.00 65.12 LIG 0.16  HD
ATOM     64 21HD ASN Z  38      -9.788  16.913 -10.781  1.00 65.12 LIG 0.16  HD
ENDBRANCH 59 60
ENDBRANCH 53 59
ENDBRANCH 50 53
ENDBRANCH 48 49
BRANCH 48 65
ATOM     65  CB  SER Z  39     -14.311  14.998  -5.676  1.00 33.12 LIG 0.20  C 
BRANCH 65 66
ATOM     66 OG   SER Z  39     -15.420  15.377  -6.480  1.00 30.52 LIG-0.40  OA
ATOM     67 HG   SER Z  39     -15.255  16.108  -6.860  1.00 30.52 LIG 0.21  HD
ENDBRANCH 65 66
ENDBRANCH 48 65
ENDBRANCH 46 48
ENDBRANCH 43 44
BRANCH 43 68
ATOM     68  CB  ASN Z  40      -9.576  14.807  -3.245  1.00 19.94 LIG 0.14  C 
BRANCH 68 69
ATOM     69  CG  ASN Z  40      -8.085  14.532  -3.286  1.00 19.97 LIG 0.22  C 
ATOM     70 OD1  ASN Z  40      -7.645  13.525  -3.845  1.00 23.42 LIG-0.27  OA
ATOM     71  ND2 ASN Z  40      -7.299  15.420  -2.684  1.00 19.32 LIG-0.37  N 
ATOM     72 21HD ASN Z  40      -6.447  15.302  -2.674  1.00 19.32 LIG 0.16  HD
ATOM     73 22HD ASN Z  40      -7.643  16.111  -2.305  1.00 19.32 LIG 0.16  HD
ENDBRANCH 68 69
ENDBRANCH 43 68
ENDBRANCH 40 43
ENDBRANCH 1 39
TORSDOF 29
ENDMDL
MODEL 15
USER: ADFR SOLUTION from run 126
USER: SCORE 20.806299 LL:  -5.599 LR: -16.633 RR:   0.000 FEB:  -7.982
USER: RMSD 6.470848
USER: SEED 125
USER: STATUS searching
USER: GENES 31
USER: genes 0 Translation |==|  0.78263 0.39175 0.53760
USER: genes 1 Rotation |==|  0.62736 0.59591 0.32826 0.94169
USER: genes 2 Torsion [N]-CA--C-[N] |==|  0.40813
USER: genes 3 Torsion [C]-N--CA-[C] |==|  0.77865
USER: genes 4 Torsion [N]-CA--C-[N] |==|  0.97909
USER: genes 5 Torsion [C]-N--CA-[C] |==|  0.84827
USER: genes 6 Torsion [N]-CA--C-[N] |==|  0.37782
USER: genes 7 Torsion [C]-N--CA-[CB] |==|  0.84990
USER: genes 8 Torsion [N]-CA--CB-[CG] |==|  0.78460
USER: genes 9 Torsion [CA]-CB--CG-[OD1] |==|  0.38782
USER: genes 10 Torsion [N]-CA--C-[N] |==|  0.89524
USER: genes 11 Torsion [N]-CA--CB-[CG] |==|  0.32090
USER: genes 12 Torsion [CA]-CB--CG-[CD] |==|  0.34069
USER: genes 13 Torsion [CB]-CG--CD-[CE] |==|  0.36318
USER: genes 14 Torsion [CG]-CD--CE-[NZ] |==|  0.72516
USER: genes 15 Torsion [CD]-CE--NZ-[HZ3] |==|  0.35178
USER: genes 16 Torsion [N]-CA--CB-[CG1] |==|  0.65942
USER: genes 17 Torsion [CA]-CB--CG1-[CD1] |==|  0.49923
USER: genes 18 Torsion [CB]-CA--N-[C] |==|  0.52223
USER: genes 19 Torsion [N]-C--CA-[N] |==|  0.56181
USER: genes 20 Torsion [C]-CA--N-[C] |==|  0.16637
USER: genes 21 Torsion [N]-C--CA-[N] |==|  0.28662
USER: genes 22 Torsion [C]-CA--N-[C] |==|  0.72246
USER: genes 23 Torsion [N]-C--CA-[N] |==|  0.01085
USER: genes 24 Torsion [C]-CA--N-[C] |==|  0.76285
USER: genes 25 Torsion [C]-CA--CB-[CG] |==|  0.25653
USER: genes 26 Torsion [CA]-CB--CG-[OD1] |==|  0.34332
USER: genes 27 Torsion [C]-CA--CB-[OG] |==|  0.61289
USER: genes 28 Torsion [CA]-CB--OG-[HG] |==|  0.88785
USER: genes 29 Torsion [C]-CA--CB-[CG] |==|  0.25643
USER: genes 30 Torsion [CA]-CB--CG-[OD1] |==|  0.84680
ROOT
ATOM      1  CA  ALA Z  41     -10.197  10.271  -4.503  1.00 21.22 LIG 0.17  C 
ATOM      2  CB  ALA Z  41      -9.225   9.730  -3.457  1.00 23.94 LIG 0.04  C 
ENDROOT
BRANCH 1 3
ATOM      3  C   ALA Z  41     -11.579   9.648  -4.316  1.00 23.72 LIG 0.24  C 
ATOM      4 O    ALA Z  41     -12.415  10.178  -3.584  1.00 25.98 LIG-0.27  OA
ATOM      5  N   ILE Z  42     -11.816   8.520  -4.977  1.00 25.83 LIG-0.35  N 
ATOM      6 H    ILE Z  42     -11.251   8.134  -5.498  1.00 25.83 LIG 0.16  HD
BRANCH 5 7
ATOM      7  CA  ILE Z  42     -13.101   7.839  -4.854  1.00 30.93 LIG 0.18  C 
BRANCH 7 8
ATOM      8  C   ILE Z  42     -13.200   7.015  -3.569  1.00 34.23 LIG 0.24  C 
ATOM      9 O    ILE Z  42     -14.268   6.498  -3.239  1.00 38.88 LIG-0.27  OA
ATOM     10  N   LYS Z  43     -12.093   6.901  -2.840  1.00 34.26 LIG-0.35  N 
ATOM     11 H    LYS Z  43     -11.356   7.310  -3.007  1.00 34.26 LIG 0.16  HD
BRANCH 10 12
ATOM     12  CA  LYS Z  43     -12.063   6.036  -1.662  1.00 43.39 LIG 0.18  C 
BRANCH 12 13
ATOM     13  C   LYS Z  43     -13.159   6.335  -0.638  1.00 55.57 LIG 0.24  C 
ATOM     14  N   ASN Z  44     -13.794   5.288  -0.118  1.00 60.92 LIG-0.34  N 
ATOM     15 H    ASN Z  44     -13.602   4.473  -0.311  1.00 60.92 LIG 0.16  HD
ATOM     16 O    LYS Z  43     -13.415   7.501  -0.330  1.00 61.19 LIG-0.27  OA
BRANCH 14 17
ATOM     17  CA  ASN Z  44     -14.893   5.431   0.841  1.00 70.44 LIG 0.19  C 
BRANCH 17 18
ATOM     18  CB  ASN Z  44     -14.479   6.294   2.042  1.00 74.13 LIG 0.14  C 
BRANCH 18 19
ATOM     19  CG  ASN Z  44     -13.618   5.539   3.039  1.00 76.38 LIG 0.22  C 
ATOM     20  ND2 ASN Z  44     -13.966   4.279   3.288  1.00 76.67 LIG-0.37  N 
ATOM     21 21HD ASN Z  44     -13.510   3.809   3.845  1.00 76.67 LIG 0.16  HD
ATOM     22 22HD ASN Z  44     -14.646   3.934   2.892  1.00 76.67 LIG 0.16  HD
ATOM     23 OD1  ASN Z  44     -12.653   6.081   3.579  1.00 76.30 LIG-0.27  OA
ENDBRANCH 18 19
ENDBRANCH 17 18
BRANCH 17 24
ATOM     24  C   ASN Z  44     -16.169   5.990   0.206  1.00 74.17 LIG 0.28  C 
ATOM     25 O    ASN Z  44     -17.280   5.577   0.548  1.00 72.97 LIG-0.27  OA
ATOM     26  N   NH2 Z  45     -16.001   6.928  -0.721  1.00 76.38 LIG-0.11  N 
ENDBRANCH 17 24
ENDBRANCH 14 17
ENDBRANCH 12 13
BRANCH 12 27
ATOM     27  CB  LYS Z  43     -10.679   6.050  -1.004  1.00 40.99 LIG 0.04  C 
BRANCH 27 28
ATOM     28  CG  LYS Z  43     -10.683   6.644   0.401  1.00 39.01 LIG 0.00  C 
BRANCH 28 29
ATOM     29  CD  LYS Z  43     -10.140   5.669   1.438  1.00 38.38 LIG 0.03  C 
BRANCH 29 30
ATOM     30  CE  LYS Z  43      -9.087   6.339   2.315  1.00 38.40 LIG 0.23  C 
BRANCH 30 31
ATOM     31  NZ  LYS Z  43      -7.688   6.029   1.889  1.00 35.26 LIG-0.08  N 
ATOM     32 HZ3  LYS Z  43      -7.237   6.788   1.772  1.00 35.26 LIG 0.27  HD
ATOM     33 HZ2  LYS Z  43      -7.704   5.573   1.125  1.00 35.26 LIG 0.27  HD
ATOM     34 HZ1  LYS Z  43      -7.288   5.540   2.516  1.00 35.26 LIG 0.27  HD
ENDBRANCH 30 31
ENDBRANCH 29 30
ENDBRANCH 28 29
ENDBRANCH 27 28
ENDBRANCH 12 27
ENDBRANCH 10 12
ENDBRANCH 7 8
BRANCH 7 35
ATOM     35  CB  ILE Z  42     -13.391   6.930  -6.062  1.00 30.84 LIG 0.01  C 
ATOM     36  CG2 ILE Z  42     -13.484   5.473  -5.622  1.00 35.03 LIG 0.01  C 
BRANCH 35 37
ATOM     37  CG1 ILE Z  42     -14.705   7.329  -6.729  1.00 30.67 LIG 0.00  C 
ATOM     38  CD1 ILE Z  42     -15.053   6.477  -7.936  1.00 26.38 LIG 0.01  C 
ENDBRANCH 35 37
ENDBRANCH 7 35
ENDBRANCH 5 7
ENDBRANCH 1 3
BRANCH 1 39
ATOM     39  N   ALA Z  41     -10.262  11.730  -4.441  1.00 17.22 LIG-0.35  N 
ATOM     40  C   ASN Z  40     -11.156  12.417  -5.148  1.00 21.77 LIG 0.24  C 
ATOM     41 O    ASN Z  40     -11.981  11.882  -5.891  1.00 19.61 LIG-0.27  OA
ATOM     42 H    ALA Z  41      -9.682  12.090  -3.919  1.00 17.22 LIG 0.16  HD
BRANCH 40 43
ATOM     43  CA  ASN Z  40     -11.128  13.934  -5.001  1.00 23.64 LIG 0.18  C 
BRANCH 43 44
ATOM     44  N   ASN Z  40     -12.384  14.589  -5.354  1.00 28.07 LIG-0.34  N 
ATOM     45 H    ASN Z  40     -12.328  15.158  -5.997  1.00 28.07 LIG 0.16  HD
ATOM     46  C   SER Z  39     -13.505  14.297  -4.705  1.00 29.35 LIG 0.24  C 
ATOM     47 O    SER Z  39     -13.538  13.540  -3.733  1.00 27.34 LIG-0.27  OA
BRANCH 46 48
ATOM     48  CA  SER Z  39     -14.780  14.955  -5.211  1.00 36.10 LIG 0.20  C 
BRANCH 48 49
ATOM     49  N   SER Z  39     -15.531  13.959  -5.964  1.00 45.98 LIG-0.34  N 
ATOM     50  C   ASN Z  38     -15.501  13.920  -7.293  1.00 57.47 LIG 0.24  C 
ATOM     51 O    ASN Z  38     -15.061  14.846  -7.978  1.00 60.64 LIG-0.27  OA
ATOM     52 H    SER Z  39     -15.984  13.413  -5.478  1.00 45.98 LIG 0.16  HD
BRANCH 50 53
ATOM     53  CA  ASN Z  38     -16.055  12.643  -7.942  1.00 65.29 LIG 0.18  C 
BRANCH 53 54
ATOM     54  N   ASN Z  38     -16.638  11.642  -7.044  1.00 70.64 LIG-0.35  N 
ATOM     55 H    ASN Z  38     -17.491  11.713  -6.957  1.00 70.64 LIG 0.16  HD
ATOM     56  C   ACE Z  37     -15.917  10.713  -6.422  1.00 74.22 LIG 0.21  C 
ATOM     57  CH3 ACE Z  37     -16.698   9.732  -5.551  1.00 75.88 LIG 0.12  C 
ATOM     58 O    ACE Z  37     -14.694  10.631  -6.521  1.00 75.32 LIG-0.27  OA
ENDBRANCH 53 54
BRANCH 53 59
ATOM     59  CB  ASN Z  38     -17.074  13.032  -9.024  1.00 65.91 LIG 0.12  C 
BRANCH 59 60
ATOM     60  CG  ASN Z  38     -16.449  13.165 -10.404  1.00 66.48 LIG 0.15  C 
ATOM     61 OD1  ASN Z  38     -16.980  12.413 -11.361  1.00 67.09 LIG-0.18  OA
ATOM     62  ND2 ASN Z  38     -15.503  13.928 -10.608  1.00 65.12 LIG-0.38  N 
ATOM     63 22HD ASN Z  38     -15.185  14.401  -9.963  1.00 65.12 LIG 0.16  HD
ATOM     64 21HD ASN Z  38     -15.161  13.988 -11.395  1.00 65.12 LIG 0.16  HD
ENDBRANCH 59 60
ENDBRANCH 53 59
ENDBRANCH 50 53
ENDBRANCH 48 49
BRANCH 48 65
ATOM     65  CB  SER Z  39     -15.587  15.490  -4.033  1.00 33.12 LIG 0.20  C 
BRANCH 65 66
ATOM     66 OG   SER Z  39     -16.975  15.244  -4.222  1.00 30.52 LIG-0.40  OA
ATOM     67 HG   SER Z  39     -17.178  15.382  -5.026  1.00 30.52 LIG 0.21  HD
ENDBRANCH 65 66
ENDBRANCH 48 65
ENDBRANCH 46 48
ENDBRANCH 43 44
BRANCH 43 68
ATOM     68  CB  ASN Z  40     -10.693  14.305  -3.581  1.00 19.94 LIG 0.14  C 
BRANCH 68 69
ATOM     69  CG  ASN Z  40      -9.195  14.515  -3.472  1.00 19.97 LIG 0.22  C 
ATOM     70 OD1  ASN Z  40      -8.407  13.636  -3.829  1.00 23.42 LIG-0.27  OA
ATOM     71  ND2 ASN Z  40      -8.792  15.677  -2.967  1.00 19.32 LIG-0.37  N 
ATOM     72 21HD ASN Z  40      -7.952  15.838  -2.878  1.00 19.32 LIG 0.16  HD
ATOM     73 22HD ASN Z  40      -9.371  16.266  -2.729  1.00 19.32 LIG 0.16  HD
ENDBRANCH 68 69
ENDBRANCH 43 68
ENDBRANCH 40 43
ENDBRANCH 1 39
TORSDOF 29
ENDMDL
MODEL 16
USER: ADFR SOLUTION from run 168
USER: SCORE 19.996845 LL:  -5.256 LR: -16.595 RR:   0.000 FEB:  -7.944
USER: RMSD 12.337808
USER: SEED 167
USER: STATUS searching
USER: GENES 31
USER: genes 0 Translation |==|  0.56275 0.51928 0.31576
USER: genes 1 Rotation |==|  0.06147 0.52458 0.73853 0.51395
USER: genes 2 Torsion [N]-CA--C-[N] |==|  0.18959
USER: genes 3 Torsion [C]-N--CA-[C] |==|  0.62226
USER: genes 4 Torsion [N]-CA--C-[N] |==|  0.42769
USER: genes 5 Torsion [C]-N--CA-[C] |==|  0.17222
USER: genes 6 Torsion [N]-CA--C-[N] |==|  0.62877
USER: genes 7 Torsion [C]-N--CA-[CB] |==|  0.53051
USER: genes 8 Torsion [N]-CA--CB-[CG] |==|  0.13878
USER: genes 9 Torsion [CA]-CB--CG-[OD1] |==|  0.06831
USER: genes 10 Torsion [N]-CA--C-[N] |==|  0.41515
USER: genes 11 Torsion [N]-CA--CB-[CG] |==|  0.59555
USER: genes 12 Torsion [CA]-CB--CG-[CD] |==|  0.66675
USER: genes 13 Torsion [CB]-CG--CD-[CE] |==|  0.38641
USER: genes 14 Torsion [CG]-CD--CE-[NZ] |==|  0.58395
USER: genes 15 Torsion [CD]-CE--NZ-[HZ3] |==|  0.84055
USER: genes 16 Torsion [N]-CA--CB-[CG1] |==|  0.03051
USER: genes 17 Torsion [CA]-CB--CG1-[CD1] |==|  0.22418
USER: genes 18 Torsion [CB]-CA--N-[C] |==|  0.79444
USER: genes 19 Torsion [N]-C--CA-[N] |==|  0.12061
USER: genes 20 Torsion [C]-CA--N-[C] |==|  0.67557
USER: genes 21 Torsion [N]-C--CA-[N] |==|  0.38807
USER: genes 22 Torsion [C]-CA--N-[C] |==|  0.79831
USER: genes 23 Torsion [N]-C--CA-[N] |==|  0.89936
USER: genes 24 Torsion [C]-CA--N-[C] |==|  0.82172
USER: genes 25 Torsion [C]-CA--CB-[CG] |==|  0.41810
USER: genes 26 Torsion [CA]-CB--CG-[OD1] |==|  0.89118
USER: genes 27 Torsion [C]-CA--CB-[OG] |==|  0.67256
USER: genes 28 Torsion [CA]-CB--OG-[HG] |==|  0.14636
USER: genes 29 Torsion [C]-CA--CB-[CG] |==|  0.35528
USER: genes 30 Torsion [CA]-CB--CG-[OD1] |==|  0.58025
ROOT
ATOM      1  CA  ALA Z  41     -15.474  13.236  -9.494  1.00 21.22 LIG 0.17  C 
ATOM      2  CB  ALA Z  41     -16.420  12.667 -10.550  1.00 23.94 LIG 0.04  C 
ENDROOT
BRANCH 1 3
ATOM      3  C   ALA Z  41     -15.960  14.609  -9.031  1.00 23.72 LIG 0.24  C 
ATOM      4 O    ALA Z  41     -17.079  15.017  -9.340  1.00 25.98 LIG-0.27  OA
ATOM      5  N   ILE Z  42     -15.114  15.320  -8.294  1.00 25.83 LIG-0.35  N 
ATOM      6 H    ILE Z  42     -14.330  15.055  -8.061  1.00 25.83 LIG 0.16  HD
BRANCH 5 7
ATOM      7  CA  ILE Z  42     -15.479  16.649  -7.814  1.00 30.93 LIG 0.18  C 
BRANCH 7 8
ATOM      8  C   ILE Z  42     -14.341  17.658  -7.981  1.00 34.23 LIG 0.24  C 
ATOM      9 O    ILE Z  42     -13.169  17.282  -8.000  1.00 38.88 LIG-0.27  OA
ATOM     10  N   LYS Z  43     -14.685  18.939  -8.094  1.00 34.26 LIG-0.35  N 
ATOM     11 H    LYS Z  43     -15.487  19.237  -8.012  1.00 34.26 LIG 0.16  HD
BRANCH 10 12
ATOM     12  CA  LYS Z  43     -13.676  19.958  -8.377  1.00 43.39 LIG 0.18  C 
BRANCH 12 13
ATOM     13  C   LYS Z  43     -12.962  19.777  -9.718  1.00 55.57 LIG 0.24  C 
ATOM     14  N   ASN Z  44     -11.636  19.892  -9.710  1.00 60.92 LIG-0.34  N 
ATOM     15 H    ASN Z  44     -11.177  20.035  -8.997  1.00 60.92 LIG 0.16  HD
ATOM     16 O    LYS Z  43     -13.612  19.536 -10.737  1.00 61.19 LIG-0.27  OA
BRANCH 14 17
ATOM     17  CA  ASN Z  44     -10.830  19.784 -10.929  1.00 70.44 LIG 0.19  C 
BRANCH 17 18
ATOM     18  CB  ASN Z  44      -9.333  19.684 -10.604  1.00 74.13 LIG 0.14  C 
BRANCH 18 19
ATOM     19  CG  ASN Z  44      -9.029  18.625  -9.559  1.00 76.38 LIG 0.22  C 
ATOM     20  ND2 ASN Z  44      -7.911  18.788  -8.856  1.00 76.67 LIG-0.37  N 
ATOM     21 21HD ASN Z  44      -7.695  18.215  -8.253  1.00 76.67 LIG 0.16  HD
ATOM     22 22HD ASN Z  44      -7.405  19.467  -9.005  1.00 76.67 LIG 0.16  HD
ATOM     23 OD1  ASN Z  44      -9.789  17.671  -9.385  1.00 76.30 LIG-0.27  OA
ENDBRANCH 18 19
ENDBRANCH 17 18
BRANCH 17 24
ATOM     24  C   ASN Z  44     -11.254  18.616 -11.823  1.00 74.17 LIG 0.28  C 
ATOM     25 O    ASN Z  44     -11.732  17.589 -11.337  1.00 72.97 LIG-0.27  OA
ATOM     26  N   NH2 Z  45     -11.073  18.781 -13.129  1.00 76.38 LIG-0.11  N 
ENDBRANCH 17 24
ENDBRANCH 14 17
ENDBRANCH 12 13
BRANCH 12 27
ATOM     27  CB  LYS Z  43     -12.667  20.067  -7.229  1.00 40.99 LIG 0.04  C 
BRANCH 27 28
ATOM     28  CG  LYS Z  43     -12.161  21.488  -7.000  1.00 39.01 LIG 0.00  C 
BRANCH 28 29
ATOM     29  CD  LYS Z  43     -10.651  21.594  -7.171  1.00 38.38 LIG 0.03  C 
BRANCH 29 30
ATOM     30  CE  LYS Z  43     -10.276  22.872  -7.915  1.00 38.40 LIG 0.23  C 
BRANCH 30 31
ATOM     31  NZ  LYS Z  43      -9.026  22.731  -8.724  1.00 35.26 LIG-0.08  N 
ATOM     32 HZ3  LYS Z  43      -8.355  22.485  -8.193  1.00 35.26 LIG 0.27  HD
ATOM     33 HZ2  LYS Z  43      -8.830  23.510  -9.107  1.00 35.26 LIG 0.27  HD
ATOM     34 HZ1  LYS Z  43      -9.148  22.114  -9.354  1.00 35.26 LIG 0.27  HD
ENDBRANCH 30 31
ENDBRANCH 29 30
ENDBRANCH 28 29
ENDBRANCH 27 28
ENDBRANCH 12 27
ENDBRANCH 10 12
ENDBRANCH 7 8
BRANCH 7 35
ATOM     35  CB  ILE Z  42     -15.925  16.629  -6.340  1.00 30.84 LIG 0.01  C 
ATOM     36  CG2 ILE Z  42     -17.424  16.885  -6.234  1.00 35.03 LIG 0.01  C 
BRANCH 35 37
ATOM     37  CG1 ILE Z  42     -15.608  15.278  -5.703  1.00 30.67 LIG 0.00  C 
ATOM     38  CD1 ILE Z  42     -14.162  15.140  -5.266  1.00 26.38 LIG 0.01  C 
ENDBRANCH 35 37
ENDBRANCH 7 35
ENDBRANCH 5 7
ENDBRANCH 1 3
BRANCH 1 39
ATOM     39  N   ALA Z  41     -15.342  12.314  -8.369  1.00 17.22 LIG-0.35  N 
ATOM     40  C   ASN Z  40     -16.319  12.160  -7.477  1.00 21.77 LIG 0.24  C 
ATOM     41 O    ASN Z  40     -17.387  12.772  -7.538  1.00 19.61 LIG-0.27  OA
ATOM     42 H    ALA Z  41     -14.593  11.893  -8.339  1.00 17.22 LIG 0.16  HD
BRANCH 40 43
ATOM     43  CA  ASN Z  40     -16.066  11.168  -6.347  1.00 23.64 LIG 0.18  C 
BRANCH 43 44
ATOM     44  N   ASN Z  40     -14.732  11.262  -5.761  1.00 28.07 LIG-0.34  N 
ATOM     45 H    ASN Z  40     -14.557  12.011  -5.377  1.00 28.07 LIG 0.16  HD
ATOM     46  C   SER Z  39     -13.886  10.242  -5.840  1.00 29.35 LIG 0.24  C 
ATOM     47 O    SER Z  39     -14.136   9.212  -6.470  1.00 27.34 LIG-0.27  OA
BRANCH 46 48
ATOM     48  CA  SER Z  39     -12.560  10.396  -5.112  1.00 36.10 LIG 0.20  C 
BRANCH 48 49
ATOM     49  N   SER Z  39     -12.240   9.121  -4.484  1.00 45.98 LIG-0.34  N 
ATOM     50  C   ASN Z  38     -12.898   8.686  -3.414  1.00 57.47 LIG 0.24  C 
ATOM     51 O    ASN Z  38     -13.628   9.414  -2.737  1.00 60.64 LIG-0.27  OA
ATOM     52 H    SER Z  39     -11.600   8.688  -4.863  1.00 45.98 LIG 0.16  HD
BRANCH 50 53
ATOM     53  CA  ASN Z  38     -12.697   7.206  -3.054  1.00 65.29 LIG 0.18  C 
BRANCH 53 54
ATOM     54  N   ASN Z  38     -12.562   6.266  -4.171  1.00 70.64 LIG-0.35  N 
ATOM     55 H    ASN Z  38     -11.793   5.882  -4.207  1.00 70.64 LIG 0.16  HD
ATOM     56  C   ACE Z  37     -13.537   6.027  -5.045  1.00 74.22 LIG 0.21  C 
ATOM     57  CH3 ACE Z  37     -13.230   4.991  -6.123  1.00 75.88 LIG 0.12  C 
ATOM     58 O    ACE Z  37     -14.625   6.599  -5.013  1.00 75.32 LIG-0.27  OA
ENDBRANCH 53 54
BRANCH 53 59
ATOM     59  CB  ASN Z  38     -11.490   7.078  -2.113  1.00 65.91 LIG 0.12  C 
BRANCH 59 60
ATOM     60  CG  ASN Z  38     -11.603   5.897  -1.163  1.00 66.48 LIG 0.15  C 
ATOM     61 OD1  ASN Z  38     -12.811   5.661  -0.664  1.00 67.09 LIG-0.18  OA
ATOM     62  ND2 ASN Z  38     -10.622   5.208  -0.878  1.00 65.12 LIG-0.38  N 
ATOM     63 22HD ASN Z  38      -9.854   5.391  -1.221  1.00 65.12 LIG 0.16  HD
ATOM     64 21HD ASN Z  38     -10.704   4.546  -0.336  1.00 65.12 LIG 0.16  HD
ENDBRANCH 59 60
ENDBRANCH 53 59
ENDBRANCH 50 53
ENDBRANCH 48 49
BRANCH 48 65
ATOM     65  CB  SER Z  39     -11.476  10.819  -6.099  1.00 33.12 LIG 0.20  C 
BRANCH 65 66
ATOM     66 OG   SER Z  39     -10.454   9.834  -6.176  1.00 30.52 LIG-0.40  OA
ATOM     67 HG   SER Z  39     -10.798   9.084  -6.334  1.00 30.52 LIG 0.21  HD
ENDBRANCH 65 66
ENDBRANCH 48 65
ENDBRANCH 46 48
ENDBRANCH 43 44
BRANCH 43 68
ATOM     68  CB  ASN Z  40     -17.151  11.320  -5.278  1.00 19.94 LIG 0.14  C 
BRANCH 68 69
ATOM     69  CG  ASN Z  40     -17.811   9.999  -4.933  1.00 19.97 LIG 0.22  C 
ATOM     70 OD1  ASN Z  40     -18.980   9.963  -4.541  1.00 23.42 LIG-0.27  OA
ATOM     71  ND2 ASN Z  40     -17.065   8.907  -5.064  1.00 19.32 LIG-0.37  N 
ATOM     72 21HD ASN Z  40     -17.394   8.136  -4.872  1.00 19.32 LIG 0.16  HD
ATOM     73 22HD ASN Z  40     -16.253   8.973  -5.341  1.00 19.32 LIG 0.16  HD
ENDBRANCH 68 69
ENDBRANCH 43 68
ENDBRANCH 40 43
ENDBRANCH 1 39
TORSDOF 29
ENDMDL
MODEL 17
USER: ADFR SOLUTION from run 184
USER: SCORE 19.868392 LL:  -5.450 LR: -16.524 RR:   0.000 FEB:  -7.873
USER: RMSD 11.671627
USER: SEED 183
USER: STATUS no improvement in best in 3 clusters for 5 generations
USER: GENES 31
USER: genes 0 Translation |==|  0.56336 0.51558 0.32992
USER: genes 1 Rotation |==|  0.95313 0.44273 0.29670 0.50774
USER: genes 2 Torsion [N]-CA--C-[N] |==|  0.18628
USER: genes 3 Torsion [C]-N--CA-[C] |==|  0.64118
USER: genes 4 Torsion [N]-CA--C-[N] |==|  0.87618
USER: genes 5 Torsion [C]-N--CA-[C] |==|  0.83823
USER: genes 6 Torsion [N]-CA--C-[N] |==|  0.40842
USER: genes 7 Torsion [C]-N--CA-[CB] |==|  0.10000
USER: genes 8 Torsion [N]-CA--CB-[CG] |==|  0.62175
USER: genes 9 Torsion [CA]-CB--CG-[OD1] |==|  0.79994
USER: genes 10 Torsion [N]-CA--C-[N] |==|  0.12363
USER: genes 11 Torsion [N]-CA--CB-[CG] |==|  0.24248
USER: genes 12 Torsion [CA]-CB--CG-[CD] |==|  0.23727
USER: genes 13 Torsion [CB]-CG--CD-[CE] |==|  0.18340
USER: genes 14 Torsion [CG]-CD--CE-[NZ] |==|  0.53043
USER: genes 15 Torsion [CD]-CE--NZ-[HZ3] |==|  0.70760
USER: genes 16 Torsion [N]-CA--CB-[CG1] |==|  0.85951
USER: genes 17 Torsion [CA]-CB--CG1-[CD1] |==|  0.81856
USER: genes 18 Torsion [CB]-CA--N-[C] |==|  0.81855
USER: genes 19 Torsion [N]-C--CA-[N] |==|  0.09037
USER: genes 20 Torsion [C]-CA--N-[C] |==|  0.14752
USER: genes 21 Torsion [N]-C--CA-[N] |==|  0.00067
USER: genes 22 Torsion [C]-CA--N-[C] |==|  0.18476
USER: genes 23 Torsion [N]-C--CA-[N] |==|  0.40544
USER: genes 24 Torsion [C]-CA--N-[C] |==|  0.84187
USER: genes 25 Torsion [C]-CA--CB-[CG] |==|  0.24453
USER: genes 26 Torsion [CA]-CB--CG-[OD1] |==|  0.72532
USER: genes 27 Torsion [C]-CA--CB-[OG] |==|  0.52927
USER: genes 28 Torsion [CA]-CB--OG-[HG] |==|  0.05400
USER: genes 29 Torsion [C]-CA--CB-[CG] |==|  0.32315
USER: genes 30 Torsion [CA]-CB--CG-[OD1] |==|  0.78121
ROOT
ATOM      1  CA  ALA Z  41     -15.459  13.150  -9.176  1.00 21.22 LIG 0.17  C 
ATOM      2  CB  ALA Z  41     -16.296  12.489 -10.269  1.00 23.94 LIG 0.04  C 
ENDROOT
BRANCH 1 3
ATOM      3  C   ALA Z  41     -15.886  14.605  -8.988  1.00 23.72 LIG 0.24  C 
ATOM      4 O    ALA Z  41     -16.903  15.038  -9.530  1.00 25.98 LIG-0.27  OA
ATOM      5  N   ILE Z  42     -15.106  15.359  -8.221  1.00 25.83 LIG-0.35  N 
ATOM      6 H    ILE Z  42     -14.395  15.079  -7.827  1.00 25.83 LIG 0.16  HD
BRANCH 5 7
ATOM      7  CA  ILE Z  42     -15.420  16.765  -7.990  1.00 30.93 LIG 0.18  C 
BRANCH 7 8
ATOM      8  C   ILE Z  42     -14.224  17.679  -8.261  1.00 34.23 LIG 0.24  C 
ATOM      9 O    ILE Z  42     -14.364  18.719  -8.905  1.00 38.88 LIG-0.27  OA
ATOM     10  N   LYS Z  43     -13.047  17.288  -7.779  1.00 34.26 LIG-0.35  N 
ATOM     11 H    LYS Z  43     -12.906  16.534  -7.390  1.00 34.26 LIG 0.16  HD
BRANCH 10 12
ATOM     12  CA  LYS Z  43     -11.874  18.154  -7.885  1.00 43.39 LIG 0.18  C 
BRANCH 12 13
ATOM     13  C   LYS Z  43     -11.511  18.543  -9.319  1.00 55.57 LIG 0.24  C 
ATOM     14  N   ASN Z  44     -10.979  19.750  -9.495  1.00 60.92 LIG-0.34  N 
ATOM     15 H    ASN Z  44     -10.813  20.294  -8.850  1.00 60.92 LIG 0.16  HD
ATOM     16 O    LYS Z  43     -11.714  17.754 -10.244  1.00 61.19 LIG-0.27  OA
BRANCH 14 17
ATOM     17  CA  ASN Z  44     -10.625  20.268 -10.820  1.00 70.44 LIG 0.19  C 
BRANCH 17 18
ATOM     18  CB  ASN Z  44     -11.630  19.811 -11.887  1.00 74.13 LIG 0.14  C 
BRANCH 18 19
ATOM     19  CG  ASN Z  44     -10.956  19.346 -13.167  1.00 76.38 LIG 0.22  C 
ATOM     20  ND2 ASN Z  44     -10.975  18.038 -13.406  1.00 76.67 LIG-0.37  N 
ATOM     21 21HD ASN Z  44     -10.607  17.725 -14.117  1.00 76.67 LIG 0.16  HD
ATOM     22 22HD ASN Z  44     -11.355  17.505 -12.849  1.00 76.67 LIG 0.16  HD
ATOM     23 OD1  ASN Z  44     -10.426  20.153 -13.931  1.00 76.30 LIG-0.27  OA
ENDBRANCH 18 19
ENDBRANCH 17 18
BRANCH 17 24
ATOM     24  C   ASN Z  44     -10.486  21.792 -10.846  1.00 74.17 LIG 0.28  C 
ATOM     25 O    ASN Z  44     -10.977  22.457 -11.761  1.00 72.97 LIG-0.27  OA
ATOM     26  N   NH2 Z  45      -9.812  22.337  -9.838  1.00 76.38 LIG-0.11  N 
ENDBRANCH 17 24
ENDBRANCH 14 17
ENDBRANCH 12 13
BRANCH 12 27
ATOM     27  CB  LYS Z  43     -10.669  17.540  -7.163  1.00 40.99 LIG 0.04  C 
BRANCH 27 28
ATOM     28  CG  LYS Z  43      -9.856  16.594  -8.040  1.00 39.01 LIG 0.00  C 
BRANCH 28 29
ATOM     29  CD  LYS Z  43      -8.819  17.334  -8.876  1.00 38.38 LIG 0.03  C 
BRANCH 29 30
ATOM     30  CE  LYS Z  43      -7.751  17.963  -7.986  1.00 38.40 LIG 0.23  C 
BRANCH 30 31
ATOM     31  NZ  LYS Z  43      -6.862  18.913  -8.723  1.00 35.26 LIG-0.08  N 
ATOM     32 HZ3  LYS Z  43      -6.069  18.532  -8.859  1.00 35.26 LIG 0.27  HD
ATOM     33 HZ2  LYS Z  43      -6.756  19.655  -8.243  1.00 35.26 LIG 0.27  HD
ATOM     34 HZ1  LYS Z  43      -7.231  19.117  -9.507  1.00 35.26 LIG 0.27  HD
ENDBRANCH 30 31
ENDBRANCH 29 30
ENDBRANCH 28 29
ENDBRANCH 27 28
ENDBRANCH 12 27
ENDBRANCH 10 12
ENDBRANCH 7 8
BRANCH 7 35
ATOM     35  CB  ILE Z  42     -15.935  17.015  -6.560  1.00 30.84 LIG 0.01  C 
ATOM     36  CG2 ILE Z  42     -16.457  18.441  -6.424  1.00 35.03 LIG 0.01  C 
BRANCH 35 37
ATOM     37  CG1 ILE Z  42     -17.061  16.042  -6.219  1.00 30.67 LIG 0.00  C 
ATOM     38  CD1 ILE Z  42     -18.307  16.241  -7.060  1.00 26.38 LIG 0.01  C 
ENDBRANCH 35 37
ENDBRANCH 7 35
ENDBRANCH 5 7
ENDBRANCH 1 3
BRANCH 1 39
ATOM     39  N   ALA Z  41     -15.562  12.403  -7.924  1.00 17.22 LIG-0.35  N 
ATOM     40  C   ASN Z  40     -16.713  12.309  -7.262  1.00 21.77 LIG 0.24  C 
ATOM     41 O    ASN Z  40     -17.757  12.835  -7.651  1.00 19.61 LIG-0.27  OA
ATOM     42 H    ALA Z  41     -14.827  12.040  -7.665  1.00 17.22 LIG 0.16  HD
BRANCH 40 43
ATOM     43  CA  ASN Z  40     -16.696  11.501  -5.969  1.00 23.64 LIG 0.18  C 
BRANCH 43 44
ATOM     44  N   ASN Z  40     -15.432  11.568  -5.242  1.00 28.07 LIG-0.34  N 
ATOM     45 H    ASN Z  40     -15.086  10.806  -5.045  1.00 28.07 LIG 0.16  HD
ATOM     46  C   SER Z  39     -14.892  12.741  -4.931  1.00 29.35 LIG 0.24  C 
ATOM     47 O    SER Z  39     -15.452  13.816  -5.153  1.00 27.34 LIG-0.27  OA
BRANCH 46 48
ATOM     48  CA  SER Z  39     -13.525  12.709  -4.265  1.00 36.10 LIG 0.20  C 
BRANCH 48 49
ATOM     49  N   SER Z  39     -13.122  11.315  -4.131  1.00 45.98 LIG-0.34  N 
ATOM     50  C   ASN Z  38     -12.859  10.561  -5.194  1.00 57.47 LIG 0.24  C 
ATOM     51 O    ASN Z  38     -13.174  10.888  -6.340  1.00 60.64 LIG-0.27  OA
ATOM     52 H    SER Z  39     -13.071  11.036  -3.319  1.00 45.98 LIG 0.16  HD
BRANCH 50 53
ATOM     53  CA  ASN Z  38     -12.135   9.235  -4.915  1.00 65.29 LIG 0.18  C 
BRANCH 53 54
ATOM     54  N   ASN Z  38     -12.480   8.098  -5.775  1.00 70.64 LIG-0.35  N 
ATOM     55 H    ASN Z  38     -11.803   7.757  -6.183  1.00 70.64 LIG 0.16  HD
ATOM     56  C   ACE Z  37     -13.721   7.638  -5.913  1.00 74.22 LIG 0.21  C 
ATOM     57  CH3 ACE Z  37     -13.887   6.425  -6.825  1.00 75.88 LIG 0.12  C 
ATOM     58 O    ACE Z  37     -14.693   8.145  -5.356  1.00 75.32 LIG-0.27  OA
ENDBRANCH 53 54
BRANCH 53 59
ATOM     59  CB  ASN Z  38     -10.619   9.475  -4.947  1.00 65.91 LIG 0.12  C 
BRANCH 59 60
ATOM     60  CG  ASN Z  38     -10.058   9.893  -3.597  1.00 66.48 LIG 0.15  C 
ATOM     61 OD1  ASN Z  38      -9.858  11.194  -3.425  1.00 67.09 LIG-0.18  OA
ATOM     62  ND2 ASN Z  38      -9.804   9.061  -2.724  1.00 65.12 LIG-0.38  N 
ATOM     63 22HD ASN Z  38      -9.947   8.226  -2.871  1.00 65.12 LIG 0.16  HD
ATOM     64 21HD ASN Z  38      -9.484   9.316  -1.967  1.00 65.12 LIG 0.16  HD
ENDBRANCH 59 60
ENDBRANCH 53 59
ENDBRANCH 50 53
ENDBRANCH 48 49
BRANCH 48 65
ATOM     65  CB  SER Z  39     -12.525  13.502  -5.101  1.00 33.12 LIG 0.20  C 
BRANCH 65 66
ATOM     66 OG   SER Z  39     -11.199  13.288  -4.635  1.00 30.52 LIG-0.40  OA
ATOM     67 HG   SER Z  39     -11.172  12.585  -4.177  1.00 30.52 LIG 0.21  HD
ENDBRANCH 65 66
ENDBRANCH 48 65
ENDBRANCH 46 48
ENDBRANCH 43 44
BRANCH 43 68
ATOM     68  CB  ASN Z  40     -17.866  11.929  -5.080  1.00 19.94 LIG 0.14  C 
BRANCH 68 69
ATOM     69  CG  ASN Z  40     -18.858  10.805  -4.850  1.00 19.97 LIG 0.22  C 
ATOM     70 OD1  ASN Z  40     -19.687  10.509  -5.714  1.00 23.42 LIG-0.27  OA
ATOM     71  ND2 ASN Z  40     -18.789  10.180  -3.679  1.00 19.32 LIG-0.37  N 
ATOM     72 21HD ASN Z  40     -19.337   9.542  -3.499  1.00 19.32 LIG 0.16  HD
ATOM     73 22HD ASN Z  40     -18.197  10.415  -3.101  1.00 19.32 LIG 0.16  HD
ENDBRANCH 68 69
ENDBRANCH 43 68
ENDBRANCH 40 43
ENDBRANCH 1 39
TORSDOF 29
ENDMDL
MODEL 18
USER: ADFR SOLUTION from run 43
USER: SCORE 18.957022 LL:  -5.333 LR: -16.510 RR:   0.000 FEB:  -7.859
USER: RMSD 12.247091
USER: SEED 42
USER: STATUS no improvement in best in 9 clusters for 5 generations
USER: GENES 31
USER: genes 0 Translation |==|  0.55918 0.51069 0.34991
USER: genes 1 Rotation |==|  0.91234 0.36999 0.25509 0.55562
USER: genes 2 Torsion [N]-CA--C-[N] |==|  0.08550
USER: genes 3 Torsion [C]-N--CA-[C] |==|  0.65066
USER: genes 4 Torsion [N]-CA--C-[N] |==|  0.31118
USER: genes 5 Torsion [C]-N--CA-[C] |==|  0.54270
USER: genes 6 Torsion [N]-CA--C-[N] |==|  0.37850
USER: genes 7 Torsion [C]-N--CA-[CB] |==|  0.49458
USER: genes 8 Torsion [N]-CA--CB-[CG] |==|  0.92069
USER: genes 9 Torsion [CA]-CB--CG-[OD1] |==|  0.79033
USER: genes 10 Torsion [N]-CA--C-[N] |==|  0.45791
USER: genes 11 Torsion [N]-CA--CB-[CG] |==|  0.64730
USER: genes 12 Torsion [CA]-CB--CG-[CD] |==|  0.85456
USER: genes 13 Torsion [CB]-CG--CD-[CE] |==|  0.56556
USER: genes 14 Torsion [CG]-CD--CE-[NZ] |==|  0.29491
USER: genes 15 Torsion [CD]-CE--NZ-[HZ3] |==|  0.51685
USER: genes 16 Torsion [N]-CA--CB-[CG1] |==|  0.47199
USER: genes 17 Torsion [CA]-CB--CG1-[CD1] |==|  0.20453
USER: genes 18 Torsion [CB]-CA--N-[C] |==|  0.12806
USER: genes 19 Torsion [N]-C--CA-[N] |==|  0.69130
USER: genes 20 Torsion [C]-CA--N-[C] |==|  0.79177
USER: genes 21 Torsion [N]-C--CA-[N] |==|  0.93529
USER: genes 22 Torsion [C]-CA--N-[C] |==|  0.82266
USER: genes 23 Torsion [N]-C--CA-[N] |==|  0.86191
USER: genes 24 Torsion [C]-CA--N-[C] |==|  0.81411
USER: genes 25 Torsion [C]-CA--CB-[CG] |==|  0.79025
USER: genes 26 Torsion [CA]-CB--CG-[OD1] |==|  0.74956
USER: genes 27 Torsion [C]-CA--CB-[OG] |==|  0.53609
USER: genes 28 Torsion [CA]-CB--OG-[HG] |==|  0.97742
USER: genes 29 Torsion [C]-CA--CB-[CG] |==|  0.18142
USER: genes 30 Torsion [CA]-CB--CG-[OD1] |==|  0.69955
ROOT
ATOM      1  CA  ALA Z  41     -15.560  13.037  -8.726  1.00 21.22 LIG 0.17  C 
ATOM      2  CB  ALA Z  41     -16.750  12.344  -9.385  1.00 23.94 LIG 0.04  C 
ENDROOT
BRANCH 1 3
ATOM      3  C   ALA Z  41     -15.670  14.552  -8.891  1.00 23.72 LIG 0.24  C 
ATOM      4 O    ALA Z  41     -16.292  15.038  -9.836  1.00 25.98 LIG-0.27  OA
ATOM      5  N   ILE Z  42     -15.061  15.295  -7.974  1.00 25.83 LIG-0.35  N 
ATOM      6 H    ILE Z  42     -14.625  14.979  -7.303  1.00 25.83 LIG 0.16  HD
BRANCH 5 7
ATOM      7  CA  ILE Z  42     -15.096  16.751  -8.051  1.00 30.93 LIG 0.18  C 
BRANCH 7 8
ATOM      8  C   ILE Z  42     -13.696  17.368  -8.020  1.00 34.23 LIG 0.24  C 
ATOM      9 O    ILE Z  42     -13.011  17.314  -6.997  1.00 38.88 LIG-0.27  OA
ATOM     10  N   LYS Z  43     -13.274  17.960  -9.134  1.00 34.26 LIG-0.35  N 
ATOM     11 H    LYS Z  43     -13.756  18.076  -9.836  1.00 34.26 LIG 0.16  HD
BRANCH 10 12
ATOM     12  CA  LYS Z  43     -11.908  18.469  -9.235  1.00 43.39 LIG 0.18  C 
BRANCH 12 13
ATOM     13  C   LYS Z  43     -11.684  19.433 -10.401  1.00 55.57 LIG 0.24  C 
ATOM     14  N   ASN Z  44     -10.973  20.528 -10.145  1.00 60.92 LIG-0.34  N 
ATOM     15 H    ASN Z  44     -10.624  20.698  -9.378  1.00 60.92 LIG 0.16  HD
ATOM     16 O    LYS Z  43     -12.152  19.177 -11.513  1.00 61.19 LIG-0.27  OA
BRANCH 14 17
ATOM     17  CA  ASN Z  44     -10.719  21.556 -11.159  1.00 70.44 LIG 0.19  C 
BRANCH 17 18
ATOM     18  CB  ASN Z  44      -9.916  22.729 -10.578  1.00 74.13 LIG 0.14  C 
BRANCH 18 19
ATOM     19  CG  ASN Z  44     -10.156  22.926  -9.091  1.00 76.38 LIG 0.22  C 
ATOM     20  ND2 ASN Z  44      -9.188  22.519  -8.275  1.00 76.67 LIG-0.37  N 
ATOM     21 21HD ASN Z  44      -9.277  22.608  -7.425  1.00 76.67 LIG 0.16  HD
ATOM     22 22HD ASN Z  44      -8.474  22.166  -8.598  1.00 76.67 LIG 0.16  HD
ATOM     23 OD1  ASN Z  44     -11.199  23.438  -8.682  1.00 76.30 LIG-0.27  OA
ENDBRANCH 18 19
ENDBRANCH 17 18
BRANCH 17 24
ATOM     24  C   ASN Z  44     -10.021  21.005 -12.404  1.00 74.17 LIG 0.28  C 
ATOM     25 O    ASN Z  44      -9.479  19.898 -12.388  1.00 72.97 LIG-0.27  OA
ATOM     26  N   NH2 Z  45     -10.036  21.786 -13.480  1.00 76.38 LIG-0.11  N 
ENDBRANCH 17 24
ENDBRANCH 14 17
ENDBRANCH 12 13
BRANCH 12 27
ATOM     27  CB  LYS Z  43     -10.893  17.321  -9.271  1.00 40.99 LIG 0.04  C 
BRANCH 27 28
ATOM     28  CG  LYS Z  43      -9.791  17.454  -8.224  1.00 39.01 LIG 0.00  C 
BRANCH 28 29
ATOM     29  CD  LYS Z  43      -9.106  18.813  -8.281  1.00 38.38 LIG 0.03  C 
BRANCH 29 30
ATOM     30  CE  LYS Z  43      -7.703  18.740  -7.687  1.00 38.40 LIG 0.23  C 
BRANCH 30 31
ATOM     31  NZ  LYS Z  43      -6.626  18.788  -8.724  1.00 35.26 LIG-0.08  N 
ATOM     32 HZ3  LYS Z  43      -5.835  18.654  -8.337  1.00 35.26 LIG 0.27  HD
ATOM     33 HZ2  LYS Z  43      -6.631  19.585  -9.121  1.00 35.26 LIG 0.27  HD
ATOM     34 HZ1  LYS Z  43      -6.770  18.154  -9.331  1.00 35.26 LIG 0.27  HD
ENDBRANCH 30 31
ENDBRANCH 29 30
ENDBRANCH 28 29
ENDBRANCH 27 28
ENDBRANCH 12 27
ENDBRANCH 10 12
ENDBRANCH 7 8
BRANCH 7 35
ATOM     35  CB  ILE Z  42     -15.946  17.370  -6.925  1.00 30.84 LIG 0.01  C 
ATOM     36  CG2 ILE Z  42     -15.545  16.787  -5.574  1.00 35.03 LIG 0.01  C 
BRANCH 35 37
ATOM     37  CG1 ILE Z  42     -15.760  18.884  -6.884  1.00 30.67 LIG 0.00  C 
ATOM     38  CD1 ILE Z  42     -16.457  19.609  -8.021  1.00 26.38 LIG 0.01  C 
ENDBRANCH 35 37
ENDBRANCH 7 35
ENDBRANCH 5 7
ENDBRANCH 1 3
BRANCH 1 39
ATOM     39  N   ALA Z  41     -15.461  12.664  -7.316  1.00 17.22 LIG-0.35  N 
ATOM     40  C   ASN Z  40     -15.571  11.397  -6.922  1.00 21.77 LIG 0.24  C 
ATOM     41 O    ASN Z  40     -15.759  10.464  -7.704  1.00 19.61 LIG-0.27  OA
ATOM     42 H    ALA Z  41     -15.329  13.324  -6.782  1.00 17.22 LIG 0.16  HD
BRANCH 40 43
ATOM     43  CA  ASN Z  40     -15.450  11.132  -5.426  1.00 23.64 LIG 0.18  C 
BRANCH 43 44
ATOM     44  N   ASN Z  40     -14.238  10.412  -5.046  1.00 28.07 LIG-0.34  N 
ATOM     45 H    ASN Z  40     -13.633  10.895  -4.671  1.00 28.07 LIG 0.16  HD
ATOM     46  C   SER Z  39     -14.122   9.111  -5.282  1.00 29.35 LIG 0.24  C 
ATOM     47 O    SER Z  39     -14.972   8.464  -5.897  1.00 27.34 LIG-0.27  OA
BRANCH 46 48
ATOM     48  CA  SER Z  39     -12.866   8.430  -4.759  1.00 36.10 LIG 0.20  C 
BRANCH 48 49
ATOM     49  N   SER Z  39     -11.834   9.447  -4.604  1.00 45.98 LIG-0.34  N 
ATOM     50  C   ASN Z  38     -11.352  10.116  -5.646  1.00 57.47 LIG 0.24  C 
ATOM     51 O    ASN Z  38     -11.542   9.763  -6.812  1.00 60.64 LIG-0.27  OA
ATOM     52 H    SER Z  39     -11.575   9.570  -3.793  1.00 45.98 LIG 0.16  HD
BRANCH 50 53
ATOM     53  CA  ASN Z  38     -10.527  11.370  -5.319  1.00 65.29 LIG 0.18  C 
BRANCH 53 54
ATOM     54  N   ASN Z  38     -11.120  12.328  -4.381  1.00 70.64 LIG-0.35  N 
ATOM     55 H    ASN Z  38     -10.699  12.384  -3.633  1.00 70.64 LIG 0.16  HD
ATOM     56  C   ACE Z  37     -12.207  13.042  -4.660  1.00 74.22 LIG 0.21  C 
ATOM     57  CH3 ACE Z  37     -12.665  14.016  -3.576  1.00 75.88 LIG 0.12  C 
ATOM     58 O    ACE Z  37     -12.829  12.940  -5.716  1.00 75.32 LIG-0.27  OA
ENDBRANCH 53 54
BRANCH 53 59
ATOM     59  CB  ASN Z  38      -9.139  10.941  -4.821  1.00 65.91 LIG 0.12  C 
BRANCH 59 60
ATOM     60  CG  ASN Z  38      -9.158  10.413  -3.396  1.00 66.48 LIG 0.15  C 
ATOM     61 OD1  ASN Z  38      -8.969  11.311  -2.436  1.00 67.09 LIG-0.18  OA
ATOM     62  ND2 ASN Z  38      -9.336   9.216  -3.159  1.00 65.12 LIG-0.38  N 
ATOM     63 22HD ASN Z  38      -9.455   8.663  -3.806  1.00 65.12 LIG 0.16  HD
ATOM     64 21HD ASN Z  38      -9.341   8.935  -2.346  1.00 65.12 LIG 0.16  HD
ENDBRANCH 59 60
ENDBRANCH 53 59
ENDBRANCH 50 53
ENDBRANCH 48 49
BRANCH 48 65
ATOM     65  CB  SER Z  39     -13.170   7.736  -3.435  1.00 33.12 LIG 0.20  C 
BRANCH 65 66
ATOM     66 OG   SER Z  39     -11.966   7.352  -2.782  1.00 30.52 LIG-0.40  OA
ATOM     67 HG   SER Z  39     -11.314   7.479  -3.296  1.00 30.52 LIG 0.21  HD
ENDBRANCH 65 66
ENDBRANCH 48 65
ENDBRANCH 46 48
ENDBRANCH 43 44
BRANCH 43 68
ATOM     68  CB  ASN Z  40     -15.573  12.450  -4.658  1.00 19.94 LIG 0.14  C 
BRANCH 68 69
ATOM     69  CG  ASN Z  40     -16.947  13.076  -4.799  1.00 19.97 LIG 0.22  C 
ATOM     70 OD1  ASN Z  40     -17.110  14.091  -5.480  1.00 23.42 LIG-0.27  OA
ATOM     71  ND2 ASN Z  40     -17.942  12.482  -4.147  1.00 19.32 LIG-0.37  N 
ATOM     72 21HD ASN Z  40     -18.737  12.806  -4.191  1.00 19.32 LIG 0.16  HD
ATOM     73 22HD ASN Z  40     -17.789  11.775  -3.682  1.00 19.32 LIG 0.16  HD
ENDBRANCH 68 69
ENDBRANCH 43 68
ENDBRANCH 40 43
ENDBRANCH 1 39
TORSDOF 29
ENDMDL
MODEL 19
USER: ADFR SOLUTION from run 153
USER: SCORE 19.142094 LL:  -5.179 LR: -16.479 RR:   0.000 FEB:  -7.829
USER: RMSD 11.833460
USER: SEED 152
USER: STATUS no improvement in best in 5 clusters for 5 generations
USER: GENES 31
USER: genes 0 Translation |==|  0.58161 0.42810 0.51757
USER: genes 1 Rotation |==|  0.35685 0.29625 0.06855 0.54296
USER: genes 2 Torsion [N]-CA--C-[N] |==|  0.53247
USER: genes 3 Torsion [C]-N--CA-[C] |==|  0.65668
USER: genes 4 Torsion [N]-CA--C-[N] |==|  0.44940
USER: genes 5 Torsion [C]-N--CA-[C] |==|  0.56485
USER: genes 6 Torsion [N]-CA--C-[N] |==|  0.93231
USER: genes 7 Torsion [C]-N--CA-[CB] |==|  0.87155
USER: genes 8 Torsion [N]-CA--CB-[CG] |==|  0.78218
USER: genes 9 Torsion [CA]-CB--CG-[OD1] |==|  0.23523
USER: genes 10 Torsion [N]-CA--C-[N] |==|  0.38320
USER: genes 11 Torsion [N]-CA--CB-[CG] |==|  0.43297
USER: genes 12 Torsion [CA]-CB--CG-[CD] |==|  0.70352
USER: genes 13 Torsion [CB]-CG--CD-[CE] |==|  0.60338
USER: genes 14 Torsion [CG]-CD--CE-[NZ] |==|  0.62869
USER: genes 15 Torsion [CD]-CE--NZ-[HZ3] |==|  0.66937
USER: genes 16 Torsion [N]-CA--CB-[CG1] |==|  0.63893
USER: genes 17 Torsion [CA]-CB--CG1-[CD1] |==|  0.23347
USER: genes 18 Torsion [CB]-CA--N-[C] |==|  0.48889
USER: genes 19 Torsion [N]-C--CA-[N] |==|  0.10605
USER: genes 20 Torsion [C]-CA--N-[C] |==|  0.14870
USER: genes 21 Torsion [N]-C--CA-[N] |==|  0.06253
USER: genes 22 Torsion [C]-CA--N-[C] |==|  0.20811
USER: genes 23 Torsion [N]-C--CA-[N] |==|  0.39440
USER: genes 24 Torsion [C]-CA--N-[C] |==|  0.86102
USER: genes 25 Torsion [C]-CA--CB-[CG] |==|  0.18514
USER: genes 26 Torsion [CA]-CB--CG-[OD1] |==|  0.73290
USER: genes 27 Torsion [C]-CA--CB-[OG] |==|  0.15782
USER: genes 28 Torsion [CA]-CB--OG-[HG] |==|  0.84769
USER: genes 29 Torsion [C]-CA--CB-[CG] |==|  0.39395
USER: genes 30 Torsion [CA]-CB--CG-[OD1] |==|  0.84474
ROOT
ATOM      1  CA  ALA Z  41     -15.021  11.116  -4.954  1.00 21.22 LIG 0.17  C 
ATOM      2  CB  ALA Z  41     -14.545  11.695  -3.623  1.00 23.94 LIG 0.04  C 
ENDROOT
BRANCH 1 3
ATOM      3  C   ALA Z  41     -14.798  12.124  -6.080  1.00 23.72 LIG 0.24  C 
ATOM      4 O    ALA Z  41     -14.309  11.770  -7.153  1.00 25.98 LIG-0.27  OA
ATOM      5  N   ILE Z  42     -15.154  13.380  -5.833  1.00 25.83 LIG-0.35  N 
ATOM      6 H    ILE Z  42     -15.502  13.650  -5.094  1.00 25.83 LIG 0.16  HD
BRANCH 5 7
ATOM      7  CA  ILE Z  42     -14.969  14.419  -6.840  1.00 30.93 LIG 0.18  C 
BRANCH 7 8
ATOM      8  C   ILE Z  42     -14.121  15.583  -6.322  1.00 34.23 LIG 0.24  C 
ATOM      9 O    ILE Z  42     -13.966  15.755  -5.113  1.00 38.88 LIG-0.27  OA
ATOM     10  N   LYS Z  43     -13.582  16.387  -7.235  1.00 34.26 LIG-0.35  N 
ATOM     11 H    LYS Z  43     -13.733  16.336  -8.080  1.00 34.26 LIG 0.16  HD
BRANCH 10 12
ATOM     12  CA  LYS Z  43     -12.662  17.452  -6.839  1.00 43.39 LIG 0.18  C 
BRANCH 12 13
ATOM     13  C   LYS Z  43     -12.568  18.603  -7.841  1.00 55.57 LIG 0.24  C 
ATOM     14  N   ASN Z  44     -12.883  18.324  -9.104  1.00 60.92 LIG-0.34  N 
ATOM     15 H    ASN Z  44     -13.153  17.552  -9.366  1.00 60.92 LIG 0.16  HD
ATOM     16 O    LYS Z  43     -12.216  19.723  -7.465  1.00 61.19 LIG-0.27  OA
BRANCH 14 17
ATOM     17  CA  ASN Z  44     -12.796  19.322 -10.175  1.00 70.44 LIG 0.19  C 
BRANCH 17 18
ATOM     18  CB  ASN Z  44     -13.426  20.656  -9.750  1.00 74.13 LIG 0.14  C 
BRANCH 18 19
ATOM     19  CG  ASN Z  44     -14.943  20.640  -9.823  1.00 76.38 LIG 0.22  C 
ATOM     20  ND2 ASN Z  44     -15.488  21.119 -10.937  1.00 76.67 LIG-0.37  N 
ATOM     21 21HD ASN Z  44     -16.343  21.132 -11.027  1.00 76.67 LIG 0.16  HD
ATOM     22 22HD ASN Z  44     -14.986  21.416 -11.569  1.00 76.67 LIG 0.16  HD
ATOM     23 OD1  ASN Z  44     -15.616  20.202  -8.889  1.00 76.30 LIG-0.27  OA
ENDBRANCH 18 19
ENDBRANCH 17 18
BRANCH 17 24
ATOM     24  C   ASN Z  44     -11.363  19.547 -10.664  1.00 74.17 LIG 0.28  C 
ATOM     25 O    ASN Z  44     -10.427  19.624  -9.866  1.00 72.97 LIG-0.27  OA
ATOM     26  N   NH2 Z  45     -11.203  19.656 -11.979  1.00 76.38 LIG-0.11  N 
ENDBRANCH 17 24
ENDBRANCH 14 17
ENDBRANCH 12 13
BRANCH 12 27
ATOM     27  CB  LYS Z  43     -11.272  16.888  -6.521  1.00 40.99 LIG 0.04  C 
BRANCH 27 28
ATOM     28  CG  LYS Z  43     -10.154  17.914  -6.673  1.00 39.01 LIG 0.00  C 
BRANCH 28 29
ATOM     29  CD  LYS Z  43      -9.309  17.661  -7.916  1.00 38.38 LIG 0.03  C 
BRANCH 29 30
ATOM     30  CE  LYS Z  43      -7.839  17.966  -7.645  1.00 38.40 LIG 0.23  C 
BRANCH 30 31
ATOM     31  NZ  LYS Z  43      -7.204  18.784  -8.724  1.00 35.26 LIG-0.08  N 
ATOM     32 HZ3  LYS Z  43      -6.533  18.326  -9.088  1.00 35.26 LIG 0.27  HD
ATOM     33 HZ2  LYS Z  43      -6.892  19.542  -8.378  1.00 35.26 LIG 0.27  HD
ATOM     34 HZ1  LYS Z  43      -7.809  18.971  -9.350  1.00 35.26 LIG 0.27  HD
ENDBRANCH 30 31
ENDBRANCH 29 30
ENDBRANCH 28 29
ENDBRANCH 27 28
ENDBRANCH 12 27
ENDBRANCH 10 12
ENDBRANCH 7 8
BRANCH 7 35
ATOM     35  CB  ILE Z  42     -16.312  14.964  -7.362  1.00 30.84 LIG 0.01  C 
ATOM     36  CG2 ILE Z  42     -16.539  16.387  -6.864  1.00 35.03 LIG 0.01  C 
BRANCH 35 37
ATOM     37  CG1 ILE Z  42     -16.331  14.966  -8.888  1.00 30.67 LIG 0.00  C 
ATOM     38  CD1 ILE Z  42     -16.727  13.631  -9.489  1.00 26.38 LIG 0.01  C 
ENDBRANCH 35 37
ENDBRANCH 7 35
ENDBRANCH 5 7
ENDBRANCH 1 3
BRANCH 1 39
ATOM     39  N   ALA Z  41     -14.349   9.850  -5.236  1.00 17.22 LIG-0.35  N 
ATOM     40  C   ASN Z  40     -14.661   9.120  -6.305  1.00 21.77 LIG 0.24  C 
ATOM     41 O    ASN Z  40     -15.522   9.455  -7.120  1.00 19.61 LIG-0.27  OA
ATOM     42 H    ALA Z  41     -13.750   9.629  -4.661  1.00 17.22 LIG 0.16  HD
BRANCH 40 43
ATOM     43  CA  ASN Z  40     -13.890   7.818  -6.494  1.00 23.64 LIG 0.18  C 
BRANCH 43 44
ATOM     44  N   ASN Z  40     -13.618   7.102  -5.252  1.00 28.07 LIG-0.34  N 
ATOM     45 H    ASN Z  40     -12.790   6.904  -5.122  1.00 28.07 LIG 0.16  HD
ATOM     46  C   SER Z  39     -14.603   6.800  -4.415  1.00 29.35 LIG 0.24  C 
ATOM     47 O    SER Z  39     -15.789   7.023  -4.669  1.00 27.34 LIG-0.27  OA
BRANCH 46 48
ATOM     48  CA  SER Z  39     -14.208   6.145  -3.100  1.00 36.10 LIG 0.20  C 
BRANCH 48 49
ATOM     49  N   SER Z  39     -12.815   6.478  -2.833  1.00 45.98 LIG-0.34  N 
ATOM     50  C   ASN Z  38     -12.454   7.687  -2.414  1.00 57.47 LIG 0.24  C 
ATOM     51 O    ASN Z  38     -13.206   8.663  -2.464  1.00 60.64 LIG-0.27  OA
ATOM     52 H    SER Z  39     -12.263   5.832  -2.970  1.00 45.98 LIG 0.16  HD
BRANCH 50 53
ATOM     53  CA  ASN Z  38     -11.028   7.809  -1.858  1.00 65.29 LIG 0.18  C 
BRANCH 53 54
ATOM     54  N   ASN Z  38     -10.296   9.039  -2.176  1.00 70.64 LIG-0.35  N 
ATOM     55 H    ASN Z  38      -9.942   9.417  -1.489  1.00 70.64 LIG 0.16  HD
ATOM     56  C   ACE Z  37     -10.189   9.525  -3.410  1.00 74.22 LIG 0.21  C 
ATOM     57  CH3 ACE Z  37      -9.360  10.799  -3.558  1.00 75.88 LIG 0.12  C 
ATOM     58 O    ACE Z  37     -10.721   9.004  -4.388  1.00 75.32 LIG-0.27  OA
ENDBRANCH 53 54
BRANCH 53 59
ATOM     59  CB  ASN Z  38     -11.062   7.598  -0.337  1.00 65.91 LIG 0.12  C 
BRANCH 59 60
ATOM     60  CG  ASN Z  38     -11.449   6.181   0.055  1.00 66.48 LIG 0.15  C 
ATOM     61 OD1  ASN Z  38     -12.729   5.985   0.348  1.00 67.09 LIG-0.18  OA
ATOM     62  ND2 ASN Z  38     -10.613   5.277   0.099  1.00 65.12 LIG-0.38  N 
ATOM     63 22HD ASN Z  38      -9.792   5.441  -0.098  1.00 65.12 LIG 0.16  HD
ATOM     64 21HD ASN Z  38     -10.850   4.483   0.326  1.00 65.12 LIG 0.16  HD
ENDBRANCH 59 60
ENDBRANCH 53 59
ENDBRANCH 50 53
ENDBRANCH 48 49
BRANCH 48 65
ATOM     65  CB  SER Z  39     -15.124   6.637  -1.984  1.00 33.12 LIG 0.20  C 
BRANCH 65 66
ATOM     66 OG   SER Z  39     -16.486   6.377  -2.300  1.00 30.52 LIG-0.40  OA
ATOM     67 HG   SER Z  39     -16.670   6.715  -3.047  1.00 30.52 LIG 0.21  HD
ENDBRANCH 65 66
ENDBRANCH 48 65
ENDBRANCH 46 48
ENDBRANCH 43 44
BRANCH 43 68
ATOM     68  CB  ASN Z  40     -14.627   6.925  -7.495  1.00 19.94 LIG 0.14  C 
BRANCH 68 69
ATOM     69  CG  ASN Z  40     -13.678   6.178  -8.412  1.00 19.97 LIG 0.22  C 
ATOM     70 OD1  ASN Z  40     -12.849   6.787  -9.092  1.00 23.42 LIG-0.27  OA
ATOM     71  ND2 ASN Z  40     -13.800   4.855  -8.445  1.00 19.32 LIG-0.37  N 
ATOM     72 21HD ASN Z  40     -13.289   4.389  -8.956  1.00 19.32 LIG 0.16  HD
ATOM     73 22HD ASN Z  40     -14.391   4.465  -7.956  1.00 19.32 LIG 0.16  HD
ENDBRANCH 68 69
ENDBRANCH 43 68
ENDBRANCH 40 43
ENDBRANCH 1 39
TORSDOF 29
ENDMDL
MODEL 20
USER: ADFR SOLUTION from run 194
USER: SCORE 18.193410 LL:  -4.524 LR: -16.481 RR:   0.000 FEB:  -7.830
USER: RMSD 11.920464
USER: SEED 193
USER: STATUS no improvement in best in 3 clusters for 5 generations
USER: GENES 31
USER: genes 0 Translation |==|  0.54120 0.50364 0.35416
USER: genes 1 Rotation |==|  0.04379 0.54122 0.67889 0.59041
USER: genes 2 Torsion [N]-CA--C-[N] |==|  0.20768
USER: genes 3 Torsion [C]-N--CA-[C] |==|  0.70094
USER: genes 4 Torsion [N]-CA--C-[N] |==|  0.89464
USER: genes 5 Torsion [C]-N--CA-[C] |==|  0.80887
USER: genes 6 Torsion [N]-CA--C-[N] |==|  0.43385
USER: genes 7 Torsion [C]-N--CA-[CB] |==|  0.82292
USER: genes 8 Torsion [N]-CA--CB-[CG] |==|  0.64631
USER: genes 9 Torsion [CA]-CB--CG-[OD1] |==|  0.69235
USER: genes 10 Torsion [N]-CA--C-[N] |==|  0.30000
USER: genes 11 Torsion [N]-CA--CB-[CG] |==|  0.34629
USER: genes 12 Torsion [CA]-CB--CG-[CD] |==|  0.29622
USER: genes 13 Torsion [CB]-CG--CD-[CE] |==|  0.42041
USER: genes 14 Torsion [CG]-CD--CE-[NZ] |==|  0.45428
USER: genes 15 Torsion [CD]-CE--NZ-[HZ3] |==|  0.71577
USER: genes 16 Torsion [N]-CA--CB-[CG1] |==|  0.03989
USER: genes 17 Torsion [CA]-CB--CG1-[CD1] |==|  0.22090
USER: genes 18 Torsion [CB]-CA--N-[C] |==|  0.39974
USER: genes 19 Torsion [N]-C--CA-[N] |==|  0.43049
USER: genes 20 Torsion [C]-CA--N-[C] |==|  0.75730
USER: genes 21 Torsion [N]-C--CA-[N] |==|  0.00415
USER: genes 22 Torsion [C]-CA--N-[C] |==|  0.70576
USER: genes 23 Torsion [N]-C--CA-[N] |==|  0.27977
USER: genes 24 Torsion [C]-CA--N-[C] |==|  0.74516
USER: genes 25 Torsion [C]-CA--CB-[CG] |==|  0.85183
USER: genes 26 Torsion [CA]-CB--CG-[OD1] |==|  0.43164
USER: genes 27 Torsion [C]-CA--CB-[OG] |==|  0.39212
USER: genes 28 Torsion [CA]-CB--OG-[HG] |==|  0.09546
USER: genes 29 Torsion [C]-CA--CB-[CG] |==|  0.49682
USER: genes 30 Torsion [CA]-CB--CG-[OD1] |==|  0.95556
ROOT
ATOM      1  CA  ALA Z  41     -15.991  12.873  -8.630  1.00 21.22 LIG 0.17  C 
ATOM      2  CB  ALA Z  41     -16.696  12.752  -9.980  1.00 23.94 LIG 0.04  C 
ENDROOT
BRANCH 1 3
ATOM      3  C   ALA Z  41     -16.338  14.205  -7.968  1.00 23.72 LIG 0.24  C 
ATOM      4 O    ALA Z  41     -17.315  14.857  -8.338  1.00 25.98 LIG-0.27  OA
ATOM      5  N   ILE Z  42     -15.533  14.611  -6.992  1.00 25.83 LIG-0.35  N 
ATOM      6 H    ILE Z  42     -14.848  14.171  -6.712  1.00 25.83 LIG 0.16  HD
BRANCH 5 7
ATOM      7  CA  ILE Z  42     -15.771  15.876  -6.306  1.00 30.93 LIG 0.18  C 
BRANCH 7 8
ATOM      8  C   ILE Z  42     -14.745  16.945  -6.689  1.00 34.23 LIG 0.24  C 
ATOM      9 O    ILE Z  42     -15.089  18.118  -6.833  1.00 38.88 LIG-0.27  OA
ATOM     10  N   LYS Z  43     -13.490  16.540  -6.863  1.00 34.26 LIG-0.35  N 
ATOM     11 H    LYS Z  43     -13.236  15.718  -6.841  1.00 34.26 LIG 0.16  HD
BRANCH 10 12
ATOM     12  CA  LYS Z  43     -12.423  17.507  -7.112  1.00 43.39 LIG 0.18  C 
BRANCH 12 13
ATOM     13  C   LYS Z  43     -12.510  18.199  -8.473  1.00 55.57 LIG 0.24  C 
ATOM     14  N   ASN Z  44     -11.916  19.384  -8.581  1.00 60.92 LIG-0.34  N 
ATOM     15 H    ASN Z  44     -11.476  19.755  -7.942  1.00 60.92 LIG 0.16  HD
ATOM     16 O    LYS Z  43     -13.109  17.657  -9.405  1.00 61.19 LIG-0.27  OA
BRANCH 14 17
ATOM     17  CA  ASN Z  44     -11.958  20.176  -9.814  1.00 70.44 LIG 0.19  C 
BRANCH 17 18
ATOM     18  CB  ASN Z  44     -11.248  19.454 -10.968  1.00 74.13 LIG 0.14  C 
BRANCH 18 19
ATOM     19  CG  ASN Z  44     -10.198  20.317 -11.645  1.00 76.38 LIG 0.22  C 
ATOM     20  ND2 ASN Z  44      -9.108  20.592 -10.933  1.00 76.67 LIG-0.37  N 
ATOM     21 21HD ASN Z  44      -8.485  21.077 -11.272  1.00 76.67 LIG 0.16  HD
ATOM     22 22HD ASN Z  44      -9.027  20.284 -10.135  1.00 76.67 LIG 0.16  HD
ATOM     23 OD1  ASN Z  44     -10.364  20.733 -12.792  1.00 76.30 LIG-0.27  OA
ENDBRANCH 18 19
ENDBRANCH 17 18
BRANCH 17 24
ATOM     24  C   ASN Z  44     -13.381  20.558 -10.228  1.00 74.17 LIG 0.28  C 
ATOM     25 O    ASN Z  44     -14.157  19.714 -10.682  1.00 72.97 LIG-0.27  OA
ATOM     26  N   NH2 Z  45     -13.715  21.836 -10.072  1.00 76.38 LIG-0.11  N 
ENDBRANCH 17 24
ENDBRANCH 14 17
ENDBRANCH 12 13
BRANCH 12 27
ATOM     27  CB  LYS Z  43     -11.044  16.870  -6.909  1.00 40.99 LIG 0.04  C 
BRANCH 27 28
ATOM     28  CG  LYS Z  43     -10.131  17.002  -8.124  1.00 39.01 LIG 0.00  C 
BRANCH 28 29
ATOM     29  CD  LYS Z  43      -9.025  18.026  -7.902  1.00 38.38 LIG 0.03  C 
BRANCH 29 30
ATOM     30  CE  LYS Z  43      -7.787  17.675  -8.722  1.00 38.40 LIG 0.23  C 
BRANCH 30 31
ATOM     31  NZ  LYS Z  43      -6.833  18.819  -8.857  1.00 35.26 LIG-0.08  N 
ATOM     32 HZ3  LYS Z  43      -6.919  19.184  -9.665  1.00 35.26 LIG 0.27  HD
ATOM     33 HZ2  LYS Z  43      -6.000  18.525  -8.752  1.00 35.26 LIG 0.27  HD
ATOM     34 HZ1  LYS Z  43      -7.012  19.430  -8.235  1.00 35.26 LIG 0.27  HD
ENDBRANCH 30 31
ENDBRANCH 29 30
ENDBRANCH 28 29
ENDBRANCH 27 28
ENDBRANCH 12 27
ENDBRANCH 10 12
ENDBRANCH 7 8
BRANCH 7 35
ATOM     35  CB  ILE Z  42     -15.782  15.711  -4.775  1.00 30.84 LIG 0.01  C 
ATOM     36  CG2 ILE Z  42     -17.206  15.808  -4.239  1.00 35.03 LIG 0.01  C 
BRANCH 35 37
ATOM     37  CG1 ILE Z  42     -15.197  14.358  -4.378  1.00 30.67 LIG 0.00  C 
ATOM     38  CD1 ILE Z  42     -13.680  14.326  -4.396  1.00 26.38 LIG 0.01  C 
ENDBRANCH 35 37
ENDBRANCH 7 35
ENDBRANCH 5 7
ENDBRANCH 1 3
BRANCH 1 39
ATOM     39  N   ALA Z  41     -16.336  11.747  -7.765  1.00 17.22 LIG-0.35  N 
ATOM     40  C   ASN Z  40     -15.446  11.210  -6.933  1.00 21.77 LIG 0.24  C 
ATOM     41 O    ASN Z  40     -14.288  11.620  -6.833  1.00 19.61 LIG-0.27  OA
ATOM     42 H    ALA Z  41     -17.147  11.472  -7.844  1.00 17.22 LIG 0.16  HD
BRANCH 40 43
ATOM     43  CA  ASN Z  40     -15.923  10.041  -6.079  1.00 23.64 LIG 0.18  C 
BRANCH 43 44
ATOM     44  N   ASN Z  40     -14.854   9.147  -5.645  1.00 28.07 LIG-0.34  N 
ATOM     45 H    ASN Z  40     -14.515   9.334  -4.876  1.00 28.07 LIG 0.16  HD
ATOM     46  C   SER Z  39     -14.467   8.134  -6.410  1.00 29.35 LIG 0.24  C 
ATOM     47 O    SER Z  39     -14.914   7.941  -7.543  1.00 27.34 LIG-0.27  OA
BRANCH 46 48
ATOM     48  CA  SER Z  39     -13.418   7.199  -5.828  1.00 36.10 LIG 0.20  C 
BRANCH 48 49
ATOM     49  N   SER Z  39     -13.105   7.656  -4.481  1.00 45.98 LIG-0.34  N 
ATOM     50  C   ASN Z  38     -11.964   8.279  -4.203  1.00 57.47 LIG 0.24  C 
ATOM     51 O    ASN Z  38     -11.003   8.288  -4.975  1.00 60.64 LIG-0.27  OA
ATOM     52 H    SER Z  39     -13.715   7.489  -3.898  1.00 45.98 LIG 0.16  HD
BRANCH 50 53
ATOM     53  CA  ASN Z  38     -11.900   8.994  -2.845  1.00 65.29 LIG 0.18  C 
BRANCH 53 54
ATOM     54  N   ASN Z  38     -11.193   8.301  -1.764  1.00 70.64 LIG-0.35  N 
ATOM     55 H    ASN Z  38     -10.349   8.470  -1.740  1.00 70.64 LIG 0.16  HD
ATOM     56  C   ACE Z  37     -11.797   7.489  -0.901  1.00 74.22 LIG 0.21  C 
ATOM     57  CH3 ACE Z  37     -10.907   6.880   0.181  1.00 75.88 LIG 0.12  C 
ATOM     58 O    ACE Z  37     -12.996   7.222  -0.953  1.00 75.32 LIG-0.27  OA
ENDBRANCH 53 54
BRANCH 53 59
ATOM     59  CB  ASN Z  38     -11.308  10.397  -3.044  1.00 65.91 LIG 0.12  C 
BRANCH 59 60
ATOM     60  CG  ASN Z  38      -9.973  10.378  -3.772  1.00 66.48 LIG 0.15  C 
ATOM     61 OD1  ASN Z  38      -9.644  11.489  -4.420  1.00 67.09 LIG-0.18  OA
ATOM     62  ND2 ASN Z  38      -9.250   9.380  -3.757  1.00 65.12 LIG-0.38  N 
ATOM     63 22HD ASN Z  38      -9.495   8.678  -3.325  1.00 65.12 LIG 0.16  HD
ATOM     64 21HD ASN Z  38      -8.499   9.387  -4.177  1.00 65.12 LIG 0.16  HD
ENDBRANCH 59 60
ENDBRANCH 53 59
ENDBRANCH 50 53
ENDBRANCH 48 49
BRANCH 48 65
ATOM     65  CB  SER Z  39     -13.949   5.768  -5.823  1.00 33.12 LIG 0.20  C 
BRANCH 65 66
ATOM     66 OG   SER Z  39     -12.918   4.849  -6.164  1.00 30.52 LIG-0.40  OA
ATOM     67 HG   SER Z  39     -12.185   5.125  -5.861  1.00 30.52 LIG 0.21  HD
ENDBRANCH 65 66
ENDBRANCH 48 65
ENDBRANCH 46 48
ENDBRANCH 43 44
BRANCH 43 68
ATOM     68  CB  ASN Z  40     -16.721  10.568  -4.884  1.00 19.94 LIG 0.14  C 
BRANCH 68 69
ATOM     69  CG  ASN Z  40     -17.251   9.452  -4.005  1.00 19.97 LIG 0.22  C 
ATOM     70 OD1  ASN Z  40     -17.288   8.290  -4.416  1.00 23.42 LIG-0.27  OA
ATOM     71  ND2 ASN Z  40     -17.676   9.798  -2.794  1.00 19.32 LIG-0.37  N 
ATOM     72 21HD ASN Z  40     -17.993   9.201  -2.263  1.00 19.32 LIG 0.16  HD
ATOM     73 22HD ASN Z  40     -17.635  10.620  -2.543  1.00 19.32 LIG 0.16  HD
ENDBRANCH 68 69
ENDBRANCH 43 68
ENDBRANCH 40 43
ENDBRANCH 1 39
TORSDOF 29
ENDMDL
MODEL 21
USER: ADFR SOLUTION from run 157
USER: SCORE 20.040951 LL:  -5.932 LR: -16.471 RR:   0.000 FEB:  -7.820
USER: RMSD 6.451359
USER: SEED 156
USER: STATUS searching
USER: GENES 31
USER: genes 0 Translation |==|  0.55920 0.23408 0.51082
USER: genes 1 Rotation |==|  0.24702 0.91756 0.42889 0.58116
USER: genes 2 Torsion [N]-CA--C-[N] |==|  0.96097
USER: genes 3 Torsion [C]-N--CA-[C] |==|  0.77222
USER: genes 4 Torsion [N]-CA--C-[N] |==|  0.26085
USER: genes 5 Torsion [C]-N--CA-[C] |==|  0.17103
USER: genes 6 Torsion [N]-CA--C-[N] |==|  0.48028
USER: genes 7 Torsion [C]-N--CA-[CB] |==|  0.50510
USER: genes 8 Torsion [N]-CA--CB-[CG] |==|  0.08769
USER: genes 9 Torsion [CA]-CB--CG-[OD1] |==|  0.26274
USER: genes 10 Torsion [N]-CA--C-[N] |==|  0.46206
USER: genes 11 Torsion [N]-CA--CB-[CG] |==|  0.51294
USER: genes 12 Torsion [CA]-CB--CG-[CD] |==|  0.60884
USER: genes 13 Torsion [CB]-CG--CD-[CE] |==|  0.63993
USER: genes 14 Torsion [CG]-CD--CE-[NZ] |==|  0.09484
USER: genes 15 Torsion [CD]-CE--NZ-[HZ3] |==|  0.26831
USER: genes 16 Torsion [N]-CA--CB-[CG1] |==|  0.82004
USER: genes 17 Torsion [CA]-CB--CG1-[CD1] |==|  0.39875
USER: genes 18 Torsion [CB]-CA--N-[C] |==|  0.87576
USER: genes 19 Torsion [N]-C--CA-[N] |==|  0.44378
USER: genes 20 Torsion [C]-CA--N-[C] |==|  0.81623
USER: genes 21 Torsion [N]-C--CA-[N] |==|  0.91234
USER: genes 22 Torsion [C]-CA--N-[C] |==|  0.84946
USER: genes 23 Torsion [N]-C--CA-[N] |==|  0.95626
USER: genes 24 Torsion [C]-CA--N-[C] |==|  0.82686
USER: genes 25 Torsion [C]-CA--CB-[CG] |==|  0.34294
USER: genes 26 Torsion [CA]-CB--CG-[OD1] |==|  0.06717
USER: genes 27 Torsion [C]-CA--CB-[OG] |==|  0.59411
USER: genes 28 Torsion [CA]-CB--OG-[HG] |==|  0.63070
USER: genes 29 Torsion [C]-CA--CB-[CG] |==|  0.43600
USER: genes 30 Torsion [CA]-CB--CG-[OD1] |==|  0.76090
ROOT
ATOM      1  CA  ALA Z  41     -15.559   6.605  -5.106  1.00 21.22 LIG 0.17  C 
ATOM      2  CB  ALA Z  41     -15.733   6.447  -6.615  1.00 23.94 LIG 0.04  C 
ENDROOT
BRANCH 1 3
ATOM      3  C   ALA Z  41     -14.075   6.651  -4.744  1.00 23.72 LIG 0.24  C 
ATOM      4 O    ALA Z  41     -13.376   5.641  -4.824  1.00 25.98 LIG-0.27  OA
ATOM      5  N   ILE Z  42     -13.598   7.825  -4.344  1.00 25.83 LIG-0.35  N 
ATOM      6 H    ILE Z  42     -14.064   8.545  -4.285  1.00 25.83 LIG 0.16  HD
BRANCH 5 7
ATOM      7  CA  ILE Z  42     -12.197   7.969  -3.964  1.00 30.93 LIG 0.18  C 
BRANCH 7 8
ATOM      8  C   ILE Z  42     -11.936   7.516  -2.526  1.00 34.23 LIG 0.24  C 
ATOM      9 O    ILE Z  42     -12.086   8.298  -1.586  1.00 38.88 LIG-0.27  OA
ATOM     10  N   LYS Z  43     -11.538   6.258  -2.354  1.00 34.26 LIG-0.35  N 
ATOM     11 H    LYS Z  43     -11.355   5.713  -2.994  1.00 34.26 LIG 0.16  HD
BRANCH 10 12
ATOM     12  CA  LYS Z  43     -11.381   5.703  -1.011  1.00 43.39 LIG 0.18  C 
BRANCH 12 13
ATOM     13  C   LYS Z  43     -12.672   5.674  -0.191  1.00 55.57 LIG 0.24  C 
ATOM     14  N   ASN Z  44     -12.622   5.048   0.982  1.00 60.92 LIG-0.34  N 
ATOM     15 H    ASN Z  44     -11.907   4.692   1.299  1.00 60.92 LIG 0.16  HD
ATOM     16 O    LYS Z  43     -13.692   6.214  -0.624  1.00 61.19 LIG-0.27  OA
BRANCH 14 17
ATOM     17  CA  ASN Z  44     -13.795   4.907   1.849  1.00 70.44 LIG 0.19  C 
BRANCH 17 18
ATOM     18  CB  ASN Z  44     -13.442   4.183   3.157  1.00 74.13 LIG 0.14  C 
BRANCH 18 19
ATOM     19  CG  ASN Z  44     -12.018   4.453   3.611  1.00 76.38 LIG 0.22  C 
ATOM     20  ND2 ASN Z  44     -11.072   3.675   3.092  1.00 76.67 LIG-0.37  N 
ATOM     21 21HD ASN Z  44     -10.251   3.788   3.317  1.00 76.67 LIG 0.16  HD
ATOM     22 22HD ASN Z  44     -11.282   3.060   2.530  1.00 76.67 LIG 0.16  HD
ATOM     23 OD1  ASN Z  44     -11.771   5.349   4.419  1.00 76.30 LIG-0.27  OA
ENDBRANCH 18 19
ENDBRANCH 17 18
BRANCH 17 24
ATOM     24  C   ASN Z  44     -14.474   6.244   2.155  1.00 74.17 LIG 0.28  C 
ATOM     25 O    ASN Z  44     -13.908   7.312   1.911  1.00 72.97 LIG-0.27  OA
ATOM     26  N   NH2 Z  45     -15.688   6.177   2.692  1.00 76.38 LIG-0.11  N 
ENDBRANCH 17 24
ENDBRANCH 14 17
ENDBRANCH 12 13
BRANCH 12 27
ATOM     27  CB  LYS Z  43     -10.263   6.421  -0.246  1.00 40.99 LIG 0.04  C 
BRANCH 27 28
ATOM     28  CG  LYS Z  43      -9.977   5.810   1.122  1.00 39.01 LIG 0.00  C 
BRANCH 28 29
ATOM     29  CD  LYS Z  43      -9.691   6.872   2.176  1.00 38.38 LIG 0.03  C 
BRANCH 29 30
ATOM     30  CE  LYS Z  43      -8.405   6.555   2.933  1.00 38.40 LIG 0.23  C 
BRANCH 30 31
ATOM     31  NZ  LYS Z  43      -7.370   5.898   2.076  1.00 35.26 LIG-0.08  N 
ATOM     32 HZ3  LYS Z  43      -6.799   6.512   1.776  1.00 35.26 LIG 0.27  HD
ATOM     33 HZ2  LYS Z  43      -7.766   5.499   1.385  1.00 35.26 LIG 0.27  HD
ATOM     34 HZ1  LYS Z  43      -6.929   5.292   2.555  1.00 35.26 LIG 0.27  HD
ENDBRANCH 30 31
ENDBRANCH 29 30
ENDBRANCH 28 29
ENDBRANCH 27 28
ENDBRANCH 12 27
ENDBRANCH 10 12
ENDBRANCH 7 8
BRANCH 7 35
ATOM     35  CB  ILE Z  42     -11.697   9.415  -4.137  1.00 30.84 LIG 0.01  C 
ATOM     36  CG2 ILE Z  42     -10.273   9.554  -3.607  1.00 35.03 LIG 0.01  C 
BRANCH 35 37
ATOM     37  CG1 ILE Z  42     -11.717   9.816  -5.609  1.00 30.67 LIG 0.00  C 
ATOM     38  CD1 ILE Z  42     -12.105  11.265  -5.836  1.00 26.38 LIG 0.01  C 
ENDBRANCH 35 37
ENDBRANCH 7 35
ENDBRANCH 5 7
ENDBRANCH 1 3
BRANCH 1 39
ATOM     39  N   ALA Z  41     -16.257   7.797  -4.628  1.00 17.22 LIG-0.35  N 
ATOM     40  C   ASN Z  40     -16.174   8.958  -5.274  1.00 21.77 LIG 0.24  C 
ATOM     41 O    ASN Z  40     -15.516   9.107  -6.305  1.00 19.61 LIG-0.27  OA
ATOM     42 H    ALA Z  41     -16.714   7.678  -3.909  1.00 17.22 LIG 0.16  HD
BRANCH 40 43
ATOM     43  CA  ASN Z  40     -16.947  10.130  -4.681  1.00 23.64 LIG 0.18  C 
BRANCH 43 44
ATOM     44  N   ASN Z  40     -16.474  11.439  -5.122  1.00 28.07 LIG-0.34  N 
ATOM     45 H    ASN Z  40     -17.031  11.882  -5.605  1.00 28.07 LIG 0.16  HD
ATOM     46  C   SER Z  39     -15.266  11.872  -4.780  1.00 29.35 LIG 0.24  C 
ATOM     47 O    SER Z  39     -14.458  11.179  -4.158  1.00 27.34 LIG-0.27  OA
BRANCH 46 48
ATOM     48  CA  SER Z  39     -14.902  13.287  -5.200  1.00 36.10 LIG 0.20  C 
BRANCH 48 49
ATOM     49  N   SER Z  39     -15.586  13.574  -6.454  1.00 45.98 LIG-0.34  N 
ATOM     50  C   ASN Z  38     -15.461  12.782  -7.514  1.00 57.47 LIG 0.24  C 
ATOM     51 O    ASN Z  38     -14.586  11.917  -7.602  1.00 60.64 LIG-0.27  OA
ATOM     52 H    SER Z  39     -16.067  14.288  -6.442  1.00 45.98 LIG 0.16  HD
BRANCH 50 53
ATOM     53  CA  ASN Z  38     -16.476  13.005  -8.645  1.00 65.29 LIG 0.18  C 
BRANCH 53 54
ATOM     54  N   ASN Z  38     -17.670  13.790  -8.319  1.00 70.64 LIG-0.35  N 
ATOM     55 H    ASN Z  38     -17.737  14.519  -8.770  1.00 70.64 LIG 0.16  HD
ATOM     56  C   ACE Z  37     -18.566  13.410  -7.412  1.00 74.22 LIG 0.21  C 
ATOM     57  CH3 ACE Z  37     -19.766  14.337  -7.227  1.00 75.88 LIG 0.12  C 
ATOM     58 O    ACE Z  37     -18.455  12.383  -6.744  1.00 75.32 LIG-0.27  OA
ENDBRANCH 53 54
BRANCH 53 59
ATOM     59  CB  ASN Z  38     -15.755  13.626  -9.851  1.00 65.91 LIG 0.12  C 
BRANCH 59 60
ATOM     60  CG  ASN Z  38     -15.915  12.807 -11.122  1.00 66.48 LIG 0.15  C 
ATOM     61 OD1  ASN Z  38     -16.982  12.020 -11.180  1.00 67.09 LIG-0.18  OA
ATOM     62  ND2 ASN Z  38     -15.091  12.878 -12.036  1.00 65.12 LIG-0.38  N 
ATOM     63 22HD ASN Z  38     -14.412  13.400 -11.964  1.00 65.12 LIG 0.16  HD
ATOM     64 21HD ASN Z  38     -15.197  12.405 -12.747  1.00 65.12 LIG 0.16  HD
ENDBRANCH 59 60
ENDBRANCH 53 59
ENDBRANCH 50 53
ENDBRANCH 48 49
BRANCH 48 65
ATOM     65  CB  SER Z  39     -15.306  14.270  -4.105  1.00 33.12 LIG 0.20  C 
BRANCH 65 66
ATOM     66 OG   SER Z  39     -15.720  15.508  -4.670  1.00 30.52 LIG-0.40  OA
ATOM     67 HG   SER Z  39     -15.350  16.141  -4.260  1.00 30.52 LIG 0.21  HD
ENDBRANCH 65 66
ENDBRANCH 48 65
ENDBRANCH 46 48
ENDBRANCH 43 44
BRANCH 43 68
ATOM     68  CB  ASN Z  40     -18.441   9.959  -4.968  1.00 19.94 LIG 0.14  C 
BRANCH 68 69
ATOM     69  CG  ASN Z  40     -19.309  10.722  -3.986  1.00 19.97 LIG 0.22  C 
ATOM     70 OD1  ASN Z  40     -19.635  10.218  -2.909  1.00 23.42 LIG-0.27  OA
ATOM     71  ND2 ASN Z  40     -19.699  11.938  -4.357  1.00 19.32 LIG-0.37  N 
ATOM     72 21HD ASN Z  40     -20.200  12.406  -3.837  1.00 19.32 LIG 0.16  HD
ATOM     73 22HD ASN Z  40     -19.451  12.256  -5.116  1.00 19.32 LIG 0.16  HD
ENDBRANCH 68 69
ENDBRANCH 43 68
ENDBRANCH 40 43
ENDBRANCH 1 39
TORSDOF 29
ENDMDL
MODEL 22
USER: ADFR SOLUTION from run 14
USER: SCORE 19.089206 LL:  -4.305 LR: -16.443 RR:   0.000 FEB:  -7.792
USER: RMSD 11.464903
USER: SEED 323994
USER: STATUS no improvement in best in 4 clusters for 5 generations
USER: GENES 31
USER: genes 0 Translation |==|  0.55314 0.52230 0.40412
USER: genes 1 Rotation |==|  0.97710 0.36946 0.54602 0.55672
USER: genes 2 Torsion [N]-CA--C-[N] |==|  0.21020
USER: genes 3 Torsion [C]-N--CA-[C] |==|  0.68254
USER: genes 4 Torsion [N]-CA--C-[N] |==|  0.35648
USER: genes 5 Torsion [C]-N--CA-[C] |==|  0.53335
USER: genes 6 Torsion [N]-CA--C-[N] |==|  0.46460
USER: genes 7 Torsion [C]-N--CA-[CB] |==|  0.86078
USER: genes 8 Torsion [N]-CA--CB-[CG] |==|  0.47096
USER: genes 9 Torsion [CA]-CB--CG-[OD1] |==|  0.68234
USER: genes 10 Torsion [N]-CA--C-[N] |==|  0.38769
USER: genes 11 Torsion [N]-CA--CB-[CG] |==|  0.65404
USER: genes 12 Torsion [CA]-CB--CG-[CD] |==|  0.63446
USER: genes 13 Torsion [CB]-CG--CD-[CE] |==|  0.15236
USER: genes 14 Torsion [CG]-CD--CE-[NZ] |==|  0.33567
USER: genes 15 Torsion [CD]-CE--NZ-[HZ3] |==|  0.50856
USER: genes 16 Torsion [N]-CA--CB-[CG1] |==|  0.43106
USER: genes 17 Torsion [CA]-CB--CG1-[CD1] |==|  0.25543
USER: genes 18 Torsion [CB]-CA--N-[C] |==|  0.80266
USER: genes 19 Torsion [N]-C--CA-[N] |==|  0.91244
USER: genes 20 Torsion [C]-CA--N-[C] |==|  0.67132
USER: genes 21 Torsion [N]-C--CA-[N] |==|  0.53665
USER: genes 22 Torsion [C]-CA--N-[C] |==|  0.77962
USER: genes 23 Torsion [N]-C--CA-[N] |==|  0.39311
USER: genes 24 Torsion [C]-CA--N-[C] |==|  0.82441
USER: genes 25 Torsion [C]-CA--CB-[CG] |==|  0.45827
USER: genes 26 Torsion [CA]-CB--CG-[OD1] |==|  0.87906
USER: genes 27 Torsion [C]-CA--CB-[OG] |==|  0.67360
USER: genes 28 Torsion [CA]-CB--OG-[HG] |==|  0.65169
USER: genes 29 Torsion [C]-CA--CB-[CG] |==|  0.22452
USER: genes 30 Torsion [CA]-CB--CG-[OD1] |==|  0.75754
ROOT
ATOM      1  CA  ALA Z  41     -15.705  13.307  -7.506  1.00 21.22 LIG 0.17  C 
ATOM      2  CB  ALA Z  41     -15.556  12.201  -8.549  1.00 23.94 LIG 0.04  C 
ENDROOT
BRANCH 1 3
ATOM      3  C   ALA Z  41     -15.612  14.679  -8.172  1.00 23.72 LIG 0.24  C 
ATOM      4 O    ALA Z  41     -15.783  14.803  -9.385  1.00 25.98 LIG-0.27  OA
ATOM      5  N   ILE Z  42     -15.337  15.707  -7.377  1.00 25.83 LIG-0.35  N 
ATOM      6 H    ILE Z  42     -15.218  15.647  -6.527  1.00 25.83 LIG 0.16  HD
BRANCH 5 7
ATOM      7  CA  ILE Z  42     -15.214  17.056  -7.918  1.00 30.93 LIG 0.18  C 
BRANCH 7 8
ATOM      8  C   ILE Z  42     -13.792  17.606  -7.790  1.00 34.23 LIG 0.24  C 
ATOM      9 O    ILE Z  42     -13.213  17.594  -6.703  1.00 38.88 LIG-0.27  OA
ATOM     10  N   LYS Z  43     -13.233  18.095  -8.893  1.00 34.26 LIG-0.35  N 
ATOM     11 H    LYS Z  43     -13.639  18.183  -9.647  1.00 34.26 LIG 0.16  HD
BRANCH 10 12
ATOM     12  CA  LYS Z  43     -11.838  18.530  -8.892  1.00 43.39 LIG 0.18  C 
BRANCH 12 13
ATOM     13  C   LYS Z  43     -11.430  19.326 -10.132  1.00 55.57 LIG 0.24  C 
ATOM     14  N   ASN Z  44     -10.265  19.968 -10.075  1.00 60.92 LIG-0.34  N 
ATOM     15 H    ASN Z  44      -9.737  19.933  -9.397  1.00 60.92 LIG 0.16  HD
ATOM     16 O    LYS Z  43     -12.166  19.351 -11.121  1.00 61.19 LIG-0.27  OA
BRANCH 14 17
ATOM     17  CA  ASN Z  44      -9.772  20.803 -11.175  1.00 70.44 LIG 0.19  C 
BRANCH 17 18
ATOM     18  CB  ASN Z  44      -9.835  20.057 -12.516  1.00 74.13 LIG 0.14  C 
BRANCH 18 19
ATOM     19  CG  ASN Z  44      -9.575  20.965 -13.705  1.00 76.38 LIG 0.22  C 
ATOM     20  ND2 ASN Z  44      -8.355  21.487 -13.796  1.00 76.67 LIG-0.37  N 
ATOM     21 21HD ASN Z  44      -8.158  22.007 -14.452  1.00 76.67 LIG 0.16  HD
ATOM     22 22HD ASN Z  44      -7.763  21.304 -13.201  1.00 76.67 LIG 0.16  HD
ATOM     23 OD1  ASN Z  44     -10.459  21.194 -14.531  1.00 76.30 LIG-0.27  OA
ENDBRANCH 18 19
ENDBRANCH 17 18
BRANCH 17 24
ATOM     24  C   ASN Z  44     -10.506  22.142 -11.282  1.00 74.17 LIG 0.28  C 
ATOM     25 O    ASN Z  44     -11.726  22.210 -11.119  1.00 72.97 LIG-0.27  OA
ATOM     26  N   NH2 Z  45      -9.753  23.202 -11.559  1.00 76.38 LIG-0.11  N 
ENDBRANCH 17 24
ENDBRANCH 14 17
ENDBRANCH 12 13
BRANCH 12 27
ATOM     27  CB  LYS Z  43     -10.892  17.346  -8.666  1.00 40.99 LIG 0.04  C 
BRANCH 27 28
ATOM     28  CG  LYS Z  43      -9.950  17.541  -7.482  1.00 39.01 LIG 0.00  C 
BRANCH 28 29
ATOM     29  CD  LYS Z  43      -8.504  17.219  -7.840  1.00 38.38 LIG 0.03  C 
BRANCH 29 30
ATOM     30  CE  LYS Z  43      -8.051  18.030  -9.050  1.00 38.40 LIG 0.23  C 
BRANCH 30 31
ATOM     31  NZ  LYS Z  43      -6.871  18.902  -8.760  1.00 35.26 LIG-0.08  N 
ATOM     32 HZ3  LYS Z  43      -6.675  19.386  -9.482  1.00 35.26 LIG 0.27  HD
ATOM     33 HZ2  LYS Z  43      -6.172  18.395  -8.544  1.00 35.26 LIG 0.27  HD
ATOM     34 HZ1  LYS Z  43      -7.063  19.446  -8.083  1.00 35.26 LIG 0.27  HD
ENDBRANCH 30 31
ENDBRANCH 29 30
ENDBRANCH 28 29
ENDBRANCH 27 28
ENDBRANCH 12 27
ENDBRANCH 10 12
ENDBRANCH 7 8
BRANCH 7 35
ATOM     35  CB  ILE Z  42     -16.198  18.037  -7.255  1.00 30.84 LIG 0.01  C 
ATOM     36  CG2 ILE Z  42     -16.393  17.683  -5.784  1.00 35.03 LIG 0.01  C 
BRANCH 35 37
ATOM     37  CG1 ILE Z  42     -15.675  19.468  -7.353  1.00 30.67 LIG 0.00  C 
ATOM     38  CD1 ILE Z  42     -16.168  20.209  -8.582  1.00 26.38 LIG 0.01  C 
ENDBRANCH 35 37
ENDBRANCH 7 35
ENDBRANCH 5 7
ENDBRANCH 1 3
BRANCH 1 39
ATOM     39  N   ALA Z  41     -16.959  13.159  -6.772  1.00 17.22 LIG-0.35  N 
ATOM     40  C   ASN Z  40     -18.135  13.405  -7.346  1.00 21.77 LIG 0.24  C 
ATOM     41 O    ASN Z  40     -18.247  13.767  -8.518  1.00 19.61 LIG-0.27  OA
ATOM     42 H    ALA Z  41     -16.866  12.904  -5.956  1.00 17.22 LIG 0.16  HD
BRANCH 40 43
ATOM     43  CA  ASN Z  40     -19.375  13.214  -6.479  1.00 23.64 LIG 0.18  C 
BRANCH 43 44
ATOM     44  N   ASN Z  40     -19.240  12.167  -5.471  1.00 28.07 LIG-0.34  N 
ATOM     45 H    ASN Z  40     -18.620  12.302  -4.890  1.00 28.07 LIG 0.16  HD
ATOM     46  C   SER Z  39     -20.036  11.104  -5.488  1.00 29.35 LIG 0.24  C 
ATOM     47 O    SER Z  39     -20.858  10.899  -6.383  1.00 27.34 LIG-0.27  OA
BRANCH 46 48
ATOM     48  CA  SER Z  39     -19.887  10.120  -4.339  1.00 36.10 LIG 0.20  C 
BRANCH 48 49
ATOM     49  N   SER Z  39     -20.598   8.899  -4.697  1.00 45.98 LIG-0.34  N 
ATOM     50  C   ASN Z  38     -21.919   8.804  -4.586  1.00 57.47 LIG 0.24  C 
ATOM     51 O    ASN Z  38     -22.597   9.616  -3.952  1.00 60.64 LIG-0.27  OA
ATOM     52 H    SER Z  39     -20.093   8.263  -4.980  1.00 45.98 LIG 0.16  HD
BRANCH 50 53
ATOM     53  CA  ASN Z  38     -22.570   7.607  -5.296  1.00 65.29 LIG 0.18  C 
BRANCH 53 54
ATOM     54  N   ASN Z  38     -23.683   6.950  -4.604  1.00 70.64 LIG-0.35  N 
ATOM     55 H    ASN Z  38     -24.430   7.001  -5.027  1.00 70.64 LIG 0.16  HD
ATOM     56  C   ACE Z  37     -23.549   6.334  -3.432  1.00 74.22 LIG 0.21  C 
ATOM     57  CH3 ACE Z  37     -24.809   5.675  -2.875  1.00 75.88 LIG 0.12  C 
ATOM     58 O    ACE Z  37     -22.489   6.288  -2.811  1.00 75.32 LIG-0.27  OA
ENDBRANCH 53 54
BRANCH 53 59
ATOM     59  CB  ASN Z  38     -23.010   8.038  -6.703  1.00 65.91 LIG 0.12  C 
BRANCH 59 60
ATOM     60  CG  ASN Z  38     -23.329   6.860  -7.611  1.00 66.48 LIG 0.15  C 
ATOM     61 OD1  ASN Z  38     -22.477   5.842  -7.568  1.00 67.09 LIG-0.18  OA
ATOM     62  ND2 ASN Z  38     -24.321   6.864  -8.341  1.00 65.12 LIG-0.38  N 
ATOM     63 22HD ASN Z  38     -24.852   7.541  -8.341  1.00 65.12 LIG 0.16  HD
ATOM     64 21HD ASN Z  38     -24.484   6.190  -8.849  1.00 65.12 LIG 0.16  HD
ENDBRANCH 59 60
ENDBRANCH 53 59
ENDBRANCH 50 53
ENDBRANCH 48 49
BRANCH 48 65
ATOM     65  CB  SER Z  39     -18.408   9.849  -4.080  1.00 33.12 LIG 0.20  C 
BRANCH 65 66
ATOM     66 OG   SER Z  39     -18.102   8.478  -4.305  1.00 30.52 LIG-0.40  OA
ATOM     67 HG   SER Z  39     -17.736   8.157  -3.620  1.00 30.52 LIG 0.21  HD
ENDBRANCH 65 66
ENDBRANCH 48 65
ENDBRANCH 46 48
ENDBRANCH 43 44
BRANCH 43 68
ATOM     68  CB  ASN Z  40     -19.766  14.548  -5.840  1.00 19.94 LIG 0.14  C 
BRANCH 68 69
ATOM     69  CG  ASN Z  40     -20.546  15.437  -6.790  1.00 19.97 LIG 0.22  C 
ATOM     70 OD1  ASN Z  40     -19.961  16.201  -7.562  1.00 23.42 LIG-0.27  OA
ATOM     71  ND2 ASN Z  40     -21.871  15.354  -6.730  1.00 19.32 LIG-0.37  N 
ATOM     72 21HD ASN Z  40     -22.356  15.845  -7.244  1.00 19.32 LIG 0.16  HD
ATOM     73 22HD ASN Z  40     -22.243  14.809  -6.178  1.00 19.32 LIG 0.16  HD
ENDBRANCH 68 69
ENDBRANCH 43 68
ENDBRANCH 40 43
ENDBRANCH 1 39
TORSDOF 29
ENDMDL
MODEL 23
USER: ADFR SOLUTION from run 173
USER: SCORE 18.196051 LL:  -4.510 LR: -16.443 RR:   0.000 FEB:  -7.793
USER: RMSD 7.164062
USER: SEED 172
USER: STATUS no improvement in best in 4 clusters for 5 generations
USER: GENES 31
USER: genes 0 Translation |==|  0.76383 0.40894 0.49832
USER: genes 1 Rotation |==|  0.60741 0.55798 0.35085 0.96136
USER: genes 2 Torsion [N]-CA--C-[N] |==|  0.48289
USER: genes 3 Torsion [C]-N--CA-[C] |==|  0.69036
USER: genes 4 Torsion [N]-CA--C-[N] |==|  0.95387
USER: genes 5 Torsion [C]-N--CA-[C] |==|  0.86602
USER: genes 6 Torsion [N]-CA--C-[N] |==|  0.90784
USER: genes 7 Torsion [C]-N--CA-[CB] |==|  0.76240
USER: genes 8 Torsion [N]-CA--CB-[CG] |==|  0.17783
USER: genes 9 Torsion [CA]-CB--CG-[OD1] |==|  0.75396
USER: genes 10 Torsion [N]-CA--C-[N] |==|  0.56988
USER: genes 11 Torsion [N]-CA--CB-[CG] |==|  0.31720
USER: genes 12 Torsion [CA]-CB--CG-[CD] |==|  0.29861
USER: genes 13 Torsion [CB]-CG--CD-[CE] |==|  0.24888
USER: genes 14 Torsion [CG]-CD--CE-[NZ] |==|  0.12438
USER: genes 15 Torsion [CD]-CE--NZ-[HZ3] |==|  0.60831
USER: genes 16 Torsion [N]-CA--CB-[CG1] |==|  0.67256
USER: genes 17 Torsion [CA]-CB--CG1-[CD1] |==|  0.80028
USER: genes 18 Torsion [CB]-CA--N-[C] |==|  0.84136
USER: genes 19 Torsion [N]-C--CA-[N] |==|  0.94107
USER: genes 20 Torsion [C]-CA--N-[C] |==|  0.55923
USER: genes 21 Torsion [N]-C--CA-[N] |==|  0.32985
USER: genes 22 Torsion [C]-CA--N-[C] |==|  0.63415
USER: genes 23 Torsion [N]-C--CA-[N] |==|  0.96920
USER: genes 24 Torsion [C]-CA--N-[C] |==|  0.73218
USER: genes 25 Torsion [C]-CA--CB-[CG] |==|  0.27695
USER: genes 26 Torsion [CA]-CB--CG-[OD1] |==|  0.08002
USER: genes 27 Torsion [C]-CA--CB-[OG] |==|  0.36280
USER: genes 28 Torsion [CA]-CB--OG-[HG] |==|  0.32106
USER: genes 29 Torsion [C]-CA--CB-[CG] |==|  0.32002
USER: genes 30 Torsion [CA]-CB--CG-[OD1] |==|  0.58964
ROOT
ATOM      1  CA  ALA Z  41     -10.648  10.671  -5.387  1.00 21.22 LIG 0.17  C 
ATOM      2  CB  ALA Z  41      -9.806  10.349  -4.154  1.00 23.94 LIG 0.04  C 
ENDROOT
BRANCH 1 3
ATOM      3  C   ALA Z  41     -11.993   9.949  -5.314  1.00 23.72 LIG 0.24  C 
ATOM      4 O    ALA Z  41     -13.046  10.584  -5.255  1.00 25.98 LIG-0.27  OA
ATOM      5  N   ILE Z  42     -11.955   8.621  -5.314  1.00 25.83 LIG-0.35  N 
ATOM      6 H    ILE Z  42     -11.234   8.155  -5.359  1.00 25.83 LIG 0.16  HD
BRANCH 5 7
ATOM      7  CA  ILE Z  42     -13.185   7.840  -5.233  1.00 30.93 LIG 0.18  C 
BRANCH 7 8
ATOM      8  C   ILE Z  42     -13.312   7.094  -3.903  1.00 34.23 LIG 0.24  C 
ATOM      9 O    ILE Z  42     -14.400   6.650  -3.537  1.00 38.88 LIG-0.27  OA
ATOM     10  N   LYS Z  43     -12.205   6.965  -3.177  1.00 34.26 LIG-0.35  N 
ATOM     11 H    LYS Z  43     -11.449   7.327  -3.372  1.00 34.26 LIG 0.16  HD
BRANCH 10 12
ATOM     12  CA  LYS Z  43     -12.205   6.166  -1.953  1.00 43.39 LIG 0.18  C 
BRANCH 12 13
ATOM     13  C   LYS Z  43     -13.368   6.472  -1.007  1.00 55.57 LIG 0.24  C 
ATOM     14  N   ASN Z  44     -13.800   7.730  -0.978  1.00 60.92 LIG-0.34  N 
ATOM     15 H    ASN Z  44     -13.478   8.354  -1.474  1.00 60.92 LIG 0.16  HD
ATOM     16 O    LYS Z  43     -13.858   5.574  -0.319  1.00 61.19 LIG-0.27  OA
BRANCH 14 17
ATOM     17  CA  ASN Z  44     -14.878   8.171  -0.087  1.00 70.44 LIG 0.19  C 
BRANCH 17 18
ATOM     18  CB  ASN Z  44     -16.258   7.930  -0.714  1.00 74.13 LIG 0.14  C 
BRANCH 18 19
ATOM     19  CG  ASN Z  44     -16.555   6.456  -0.931  1.00 76.38 LIG 0.22  C 
ATOM     20  ND2 ASN Z  44     -17.179   5.825   0.059  1.00 76.67 LIG-0.37  N 
ATOM     21 21HD ASN Z  44     -17.369   4.990  -0.015  1.00 76.67 LIG 0.16  HD
ATOM     22 22HD ASN Z  44     -17.394   6.252   0.774  1.00 76.67 LIG 0.16  HD
ATOM     23 OD1  ASN Z  44     -16.226   5.892  -1.976  1.00 76.30 LIG-0.27  OA
ENDBRANCH 18 19
ENDBRANCH 17 18
BRANCH 17 24
ATOM     24  C   ASN Z  44     -14.808   7.523   1.298  1.00 74.17 LIG 0.28  C 
ATOM     25 O    ASN Z  44     -13.739   7.107   1.749  1.00 72.97 LIG-0.27  OA
ATOM     26  N   NH2 Z  45     -15.955   7.439   1.965  1.00 76.38 LIG-0.11  N 
ENDBRANCH 17 24
ENDBRANCH 14 17
ENDBRANCH 12 13
BRANCH 12 27
ATOM     27  CB  LYS Z  43     -10.862   6.276  -1.223  1.00 40.99 LIG 0.04  C 
BRANCH 27 28
ATOM     28  CG  LYS Z  43     -10.963   6.972   0.130  1.00 39.01 LIG 0.00  C 
BRANCH 28 29
ATOM     29  CD  LYS Z  43     -10.810   5.997   1.290  1.00 38.38 LIG 0.03  C 
BRANCH 29 30
ATOM     30  CE  LYS Z  43      -9.344   5.856   1.692  1.00 38.40 LIG 0.23  C 
BRANCH 30 31
ATOM     31  NZ  LYS Z  43      -8.634   7.169   1.776  1.00 35.26 LIG-0.08  N 
ATOM     32 HZ3  LYS Z  43      -7.808   7.081   1.455  1.00 35.26 LIG 0.27  HD
ATOM     33 HZ2  LYS Z  43      -8.595   7.433   2.625  1.00 35.26 LIG 0.27  HD
ATOM     34 HZ1  LYS Z  43      -9.074   7.776   1.298  1.00 35.26 LIG 0.27  HD
ENDBRANCH 30 31
ENDBRANCH 29 30
ENDBRANCH 28 29
ENDBRANCH 27 28
ENDBRANCH 12 27
ENDBRANCH 10 12
ENDBRANCH 7 8
BRANCH 7 35
ATOM     35  CB  ILE Z  42     -13.307   6.833  -6.391  1.00 30.84 LIG 0.01  C 
ATOM     36  CG2 ILE Z  42     -13.429   5.412  -5.851  1.00 35.03 LIG 0.01  C 
BRANCH 35 37
ATOM     37  CG1 ILE Z  42     -14.534   7.144  -7.244  1.00 30.67 LIG 0.00  C 
ATOM     38  CD1 ILE Z  42     -15.846   6.811  -6.560  1.00 26.38 LIG 0.01  C 
ENDBRANCH 35 37
ENDBRANCH 7 35
ENDBRANCH 5 7
ENDBRANCH 1 3
BRANCH 1 39
ATOM     39  N   ALA Z  41     -10.829  12.114  -5.526  1.00 17.22 LIG-0.35  N 
ATOM     40  C   ASN Z  40     -11.373  12.844  -4.554  1.00 21.77 LIG 0.24  C 
ATOM     41 O    ASN Z  40     -11.754  12.363  -3.485  1.00 19.61 LIG-0.27  OA
ATOM     42 H    ALA Z  41     -10.558  12.436  -6.275  1.00 17.22 LIG 0.16  HD
BRANCH 40 43
ATOM     43  CA  ASN Z  40     -11.508  14.340  -4.814  1.00 23.64 LIG 0.18  C 
BRANCH 43 44
ATOM     44  N   ASN Z  40     -10.611  14.848  -5.848  1.00 28.07 LIG-0.34  N 
ATOM     45 H    ASN Z  40     -10.316  14.253  -6.395  1.00 28.07 LIG 0.16  HD
ATOM     46  C   SER Z  39     -10.302  16.138  -5.901  1.00 29.35 LIG 0.24  C 
ATOM     47 O    SER Z  39     -10.674  16.951  -5.053  1.00 27.34 LIG-0.27  OA
BRANCH 46 48
ATOM     48  CA  SER Z  39      -9.443  16.587  -7.073  1.00 36.10 LIG 0.20  C 
BRANCH 48 49
ATOM     49  N   SER Z  39     -10.207  17.559  -7.844  1.00 45.98 LIG-0.34  N 
ATOM     50  C   ASN Z  38     -10.315  17.471  -9.166  1.00 57.47 LIG 0.24  C 
ATOM     51 O    ASN Z  38      -9.594  16.740  -9.848  1.00 60.64 LIG-0.27  OA
ATOM     52 H    SER Z  39     -10.571  18.180  -7.373  1.00 45.98 LIG 0.16  HD
BRANCH 50 53
ATOM     53  CA  ASN Z  38     -11.400  18.345  -9.813  1.00 65.29 LIG 0.18  C 
BRANCH 53 54
ATOM     54  N   ASN Z  38     -12.360  18.987  -8.910  1.00 70.64 LIG-0.35  N 
ATOM     55 H    ASN Z  38     -12.076  19.725  -8.572  1.00 70.64 LIG 0.16  HD
ATOM     56  C   ACE Z  37     -13.558  18.475  -8.637  1.00 74.22 LIG 0.21  C 
ATOM     57  CH3 ACE Z  37     -14.440  19.298  -7.700  1.00 75.88 LIG 0.12  C 
ATOM     58 O    ACE Z  37     -13.953  17.404  -9.094  1.00 75.32 LIG-0.27  OA
ENDBRANCH 53 54
BRANCH 53 59
ATOM     59  CB  ASN Z  38     -10.729  19.404 -10.700  1.00 65.91 LIG 0.12  C 
BRANCH 59 60
ATOM     60  CG  ASN Z  38     -10.739  19.033 -12.175  1.00 66.48 LIG 0.15  C 
ATOM     61 OD1  ASN Z  38     -11.746  18.267 -12.579  1.00 67.09 LIG-0.18  OA
ATOM     62  ND2 ASN Z  38      -9.854  19.423 -12.939  1.00 65.12 LIG-0.38  N 
ATOM     63 22HD ASN Z  38      -9.217  19.919 -12.642  1.00 65.12 LIG 0.16  HD
ATOM     64 21HD ASN Z  38      -9.875  19.201 -13.770  1.00 65.12 LIG 0.16  HD
ENDBRANCH 59 60
ENDBRANCH 53 59
ENDBRANCH 50 53
ENDBRANCH 48 49
BRANCH 48 65
ATOM     65  CB  SER Z  39      -8.138  17.185  -6.557  1.00 33.12 LIG 0.20  C 
BRANCH 65 66
ATOM     66 OG   SER Z  39      -7.023  16.619  -7.235  1.00 30.52 LIG-0.40  OA
ATOM     67 HG   SER Z  39      -6.632  17.216  -7.678  1.00 30.52 LIG 0.21  HD
ENDBRANCH 65 66
ENDBRANCH 48 65
ENDBRANCH 46 48
ENDBRANCH 43 44
BRANCH 43 68
ATOM     68  CB  ASN Z  40     -12.966  14.676  -5.135  1.00 19.94 LIG 0.14  C 
BRANCH 68 69
ATOM     69  CG  ASN Z  40     -13.598  15.572  -4.087  1.00 19.97 LIG 0.22  C 
ATOM     70 OD1  ASN Z  40     -14.799  15.482  -3.822  1.00 23.42 LIG-0.27  OA
ATOM     71  ND2 ASN Z  40     -12.797  16.450  -3.493  1.00 19.32 LIG-0.37  N 
ATOM     72 21HD ASN Z  40     -13.111  16.985  -2.898  1.00 19.32 LIG 0.16  HD
ATOM     73 22HD ASN Z  40     -11.963  16.484  -3.705  1.00 19.32 LIG 0.16  HD
ENDBRANCH 68 69
ENDBRANCH 43 68
ENDBRANCH 40 43
ENDBRANCH 1 39
TORSDOF 29
ENDMDL
MODEL 24
USER: ADFR SOLUTION from run 26
USER: SCORE 19.773476 LL:  -5.399 LR: -16.429 RR:   0.000 FEB:  -7.778
USER: RMSD 6.971023
USER: SEED 25
USER: STATUS searching
USER: GENES 31
USER: genes 0 Translation |==|  0.49597 0.48834 0.31039
USER: genes 1 Rotation |==|  0.25120 0.84691 0.58035 0.74759
USER: genes 2 Torsion [N]-CA--C-[N] |==|  0.99417
USER: genes 3 Torsion [C]-N--CA-[C] |==|  0.82140
USER: genes 4 Torsion [N]-CA--C-[N] |==|  0.44968
USER: genes 5 Torsion [C]-N--CA-[C] |==|  0.79309
USER: genes 6 Torsion [N]-CA--C-[N] |==|  0.45871
USER: genes 7 Torsion [C]-N--CA-[CB] |==|  0.83556
USER: genes 8 Torsion [N]-CA--CB-[CG] |==|  0.55653
USER: genes 9 Torsion [CA]-CB--CG-[OD1] |==|  0.75087
USER: genes 10 Torsion [N]-CA--C-[N] |==|  0.33786
USER: genes 11 Torsion [N]-CA--CB-[CG] |==|  0.10691
USER: genes 12 Torsion [CA]-CB--CG-[CD] |==|  0.20221
USER: genes 13 Torsion [CB]-CG--CD-[CE] |==|  0.22991
USER: genes 14 Torsion [CG]-CD--CE-[NZ] |==|  0.70932
USER: genes 15 Torsion [CD]-CE--NZ-[HZ3] |==|  0.75916
USER: genes 16 Torsion [N]-CA--CB-[CG1] |==|  0.20439
USER: genes 17 Torsion [CA]-CB--CG1-[CD1] |==|  0.33248
USER: genes 18 Torsion [CB]-CA--N-[C] |==|  0.84710
USER: genes 19 Torsion [N]-C--CA-[N] |==|  0.95293
USER: genes 20 Torsion [C]-CA--N-[C] |==|  0.68492
USER: genes 21 Torsion [N]-C--CA-[N] |==|  0.04598
USER: genes 22 Torsion [C]-CA--N-[C] |==|  0.51667
USER: genes 23 Torsion [N]-C--CA-[N] |==|  0.10010
USER: genes 24 Torsion [C]-CA--N-[C] |==|  0.15426
USER: genes 25 Torsion [C]-CA--CB-[CG] |==|  0.21388
USER: genes 26 Torsion [CA]-CB--CG-[OD1] |==|  0.22794
USER: genes 27 Torsion [C]-CA--CB-[OG] |==|  0.39862
USER: genes 28 Torsion [CA]-CB--OG-[HG] |==|  0.74409
USER: genes 29 Torsion [C]-CA--CB-[CG] |==|  0.67428
USER: genes 30 Torsion [CA]-CB--CG-[OD1] |==|  0.23083
ROOT
ATOM      1  CA  ALA Z  41     -17.077  12.517  -9.615  1.00 21.22 LIG 0.17  C 
ATOM      2  CB  ALA Z  41     -16.966  13.541 -10.743  1.00 23.94 LIG 0.04  C 
ENDROOT
BRANCH 1 3
ATOM      3  C   ALA Z  41     -15.803  12.517  -8.771  1.00 23.72 LIG 0.24  C 
ATOM      4 O    ALA Z  41     -14.710  12.271  -9.282  1.00 25.98 LIG-0.27  OA
ATOM      5  N   ILE Z  42     -15.947  12.788  -7.479  1.00 25.83 LIG-0.35  N 
ATOM      6 H    ILE Z  42     -16.698  12.968  -7.100  1.00 25.83 LIG 0.16  HD
BRANCH 5 7
ATOM      7  CA  ILE Z  42     -14.793  12.800  -6.586  1.00 30.93 LIG 0.18  C 
BRANCH 7 8
ATOM      8  C   ILE Z  42     -14.143  11.420  -6.462  1.00 34.23 LIG 0.24  C 
ATOM      9 O    ILE Z  42     -14.763  10.405  -6.781  1.00 38.88 LIG-0.27  OA
ATOM     10  N   LYS Z  43     -12.899  11.381  -5.991  1.00 34.26 LIG-0.35  N 
ATOM     11 H    LYS Z  43     -12.470  12.064  -5.693  1.00 34.26 LIG 0.16  HD
BRANCH 10 12
ATOM     12  CA  LYS Z  43     -12.157  10.122  -5.950  1.00 43.39 LIG 0.18  C 
BRANCH 12 13
ATOM     13  C   LYS Z  43     -12.608   9.165  -4.846  1.00 55.57 LIG 0.24  C 
ATOM     14  N   ASN Z  44     -12.196   7.904  -4.941  1.00 60.92 LIG-0.34  N 
ATOM     15 H    ASN Z  44     -11.680   7.620  -5.568  1.00 60.92 LIG 0.16  HD
ATOM     16 O    LYS Z  43     -13.319   9.575  -3.925  1.00 61.19 LIG-0.27  OA
BRANCH 14 17
ATOM     17  CA  ASN Z  44     -12.588   6.872  -3.976  1.00 70.44 LIG 0.19  C 
BRANCH 17 18
ATOM     18  CB  ASN Z  44     -12.150   7.242  -2.552  1.00 74.13 LIG 0.14  C 
BRANCH 18 19
ATOM     19  CG  ASN Z  44     -12.082   6.039  -1.627  1.00 76.38 LIG 0.22  C 
ATOM     20  ND2 ASN Z  44     -10.917   5.402  -1.568  1.00 76.67 LIG-0.37  N 
ATOM     21 21HD ASN Z  44     -10.828   4.715  -1.059  1.00 76.67 LIG 0.16  HD
ATOM     22 22HD ASN Z  44     -10.251   5.677  -2.037  1.00 76.67 LIG 0.16  HD
ATOM     23 OD1  ASN Z  44     -13.066   5.687  -0.975  1.00 76.30 LIG-0.27  OA
ENDBRANCH 18 19
ENDBRANCH 17 18
BRANCH 17 24
ATOM     24  C   ASN Z  44     -14.089   6.571  -4.004  1.00 74.17 LIG 0.28  C 
ATOM     25 O    ASN Z  44     -14.917   7.459  -3.790  1.00 72.97 LIG-0.27  OA
ATOM     26  N   NH2 Z  45     -14.430   5.313  -4.265  1.00 76.38 LIG-0.11  N 
ENDBRANCH 17 24
ENDBRANCH 14 17
ENDBRANCH 12 13
BRANCH 12 27
ATOM     27  CB  LYS Z  43     -10.647  10.375  -5.873  1.00 40.99 LIG 0.04  C 
BRANCH 27 28
ATOM     28  CG  LYS Z  43     -10.276  11.557  -4.984  1.00 39.01 LIG 0.00  C 
BRANCH 28 29
ATOM     29  CD  LYS Z  43     -10.457  11.241  -3.504  1.00 38.38 LIG 0.03  C 
BRANCH 29 30
ATOM     30  CE  LYS Z  43      -9.244  10.497  -2.955  1.00 38.40 LIG 0.23  C 
BRANCH 30 31
ATOM     31  NZ  LYS Z  43      -9.498   9.038  -2.749  1.00 35.26 LIG-0.08  N 
ATOM     32 HZ3  LYS Z  43      -9.852   8.910  -1.942  1.00 35.26 LIG 0.27  HD
ATOM     33 HZ2  LYS Z  43      -8.731   8.591  -2.810  1.00 35.26 LIG 0.27  HD
ATOM     34 HZ1  LYS Z  43     -10.063   8.744  -3.370  1.00 35.26 LIG 0.27  HD
ENDBRANCH 30 31
ENDBRANCH 29 30
ENDBRANCH 28 29
ENDBRANCH 27 28
ENDBRANCH 12 27
ENDBRANCH 10 12
ENDBRANCH 7 8
BRANCH 7 35
ATOM     35  CB  ILE Z  42     -15.153  13.318  -5.182  1.00 30.84 LIG 0.01  C 
ATOM     36  CG2 ILE Z  42     -15.978  14.596  -5.281  1.00 35.03 LIG 0.01  C 
BRANCH 35 37
ATOM     37  CG1 ILE Z  42     -15.956  12.270  -4.415  1.00 30.67 LIG 0.00  C 
ATOM     38  CD1 ILE Z  42     -15.284  11.813  -3.133  1.00 26.38 LIG 0.01  C 
ENDBRANCH 35 37
ENDBRANCH 7 35
ENDBRANCH 5 7
ENDBRANCH 1 3
BRANCH 1 39
ATOM     39  N   ALA Z  41     -18.256  12.780  -8.793  1.00 17.22 LIG-0.35  N 
ATOM     40  C   ASN Z  40     -18.458  13.967  -8.225  1.00 21.77 LIG 0.24  C 
ATOM     41 O    ASN Z  40     -17.679  14.914  -8.352  1.00 19.61 LIG-0.27  OA
ATOM     42 H    ALA Z  41     -18.791  12.112  -8.714  1.00 17.22 LIG 0.16  HD
BRANCH 40 43
ATOM     43  CA  ASN Z  40     -19.724  14.122  -7.391  1.00 23.64 LIG 0.18  C 
BRANCH 43 44
ATOM     44  N   ASN Z  40     -20.729  13.092  -7.640  1.00 28.07 LIG-0.34  N 
ATOM     45 H    ASN Z  40     -20.503  12.299  -7.396  1.00 28.07 LIG 0.16  HD
ATOM     46  C   SER Z  39     -21.892  13.403  -8.201  1.00 29.35 LIG 0.24  C 
ATOM     47 O    SER Z  39     -22.154  14.534  -8.616  1.00 27.34 LIG-0.27  OA
BRANCH 46 48
ATOM     48  CA  SER Z  39     -22.912  12.282  -8.326  1.00 36.10 LIG 0.20  C 
BRANCH 48 49
ATOM     49  N   SER Z  39     -22.507  11.204  -7.433  1.00 45.98 LIG-0.34  N 
ATOM     50  C   ASN Z  38     -23.146  10.038  -7.414  1.00 57.47 LIG 0.24  C 
ATOM     51 O    ASN Z  38     -24.248   9.871  -7.941  1.00 60.64 LIG-0.27  OA
ATOM     52 H    SER Z  39     -21.833  11.390  -6.933  1.00 45.98 LIG 0.16  HD
BRANCH 50 53
ATOM     53  CA  ASN Z  38     -22.430   8.890  -6.686  1.00 65.29 LIG 0.18  C 
BRANCH 53 54
ATOM     54  N   ASN Z  38     -21.662   9.242  -5.488  1.00 70.64 LIG-0.35  N 
ATOM     55 H    ASN Z  38     -20.840   8.993  -5.520  1.00 70.64 LIG 0.16  HD
ATOM     56  C   ACE Z  37     -22.188   9.884  -4.448  1.00 74.22 LIG 0.21  C 
ATOM     57  CH3 ACE Z  37     -21.231  10.198  -3.300  1.00 75.88 LIG 0.12  C 
ATOM     58 O    ACE Z  37     -23.372  10.212  -4.387  1.00 75.32 LIG-0.27  OA
ENDBRANCH 53 54
BRANCH 53 59
ATOM     59  CB  ASN Z  38     -23.452   7.794  -6.350  1.00 65.91 LIG 0.12  C 
BRANCH 59 60
ATOM     60  CG  ASN Z  38     -23.821   6.940  -7.553  1.00 66.48 LIG 0.15  C 
ATOM     61 OD1  ASN Z  38     -22.980   5.958  -7.854  1.00 67.09 LIG-0.18  OA
ATOM     62  ND2 ASN Z  38     -24.843   7.162  -8.206  1.00 65.12 LIG-0.38  N 
ATOM     63 22HD ASN Z  38     -25.365   7.808  -7.981  1.00 65.12 LIG 0.16  HD
ATOM     64 21HD ASN Z  38     -25.034   6.670  -8.885  1.00 65.12 LIG 0.16  HD
ENDBRANCH 59 60
ENDBRANCH 53 59
ENDBRANCH 50 53
ENDBRANCH 48 49
BRANCH 48 65
ATOM     65  CB  SER Z  39     -24.300  12.808  -7.972  1.00 33.12 LIG 0.20  C 
BRANCH 65 66
ATOM     66 OG   SER Z  39     -25.290  12.204  -8.796  1.00 30.52 LIG-0.40  OA
ATOM     67 HG   SER Z  39     -25.421  12.682  -9.474  1.00 30.52 LIG 0.21  HD
ENDBRANCH 65 66
ENDBRANCH 48 65
ENDBRANCH 46 48
ENDBRANCH 43 44
BRANCH 43 68
ATOM     68  CB  ASN Z  40     -19.358  14.189  -5.907  1.00 19.94 LIG 0.14  C 
BRANCH 68 69
ATOM     69  CG  ASN Z  40     -19.940  13.034  -5.115  1.00 19.97 LIG 0.22  C 
ATOM     70 OD1  ASN Z  40     -19.368  11.942  -5.081  1.00 23.42 LIG-0.27  OA
ATOM     71  ND2 ASN Z  40     -21.087  13.262  -4.484  1.00 19.32 LIG-0.37  N 
ATOM     72 21HD ASN Z  40     -21.459  12.634  -4.029  1.00 19.32 LIG 0.16  HD
ATOM     73 22HD ASN Z  40     -21.457  14.037  -4.531  1.00 19.32 LIG 0.16  HD
ENDBRANCH 68 69
ENDBRANCH 43 68
ENDBRANCH 40 43
ENDBRANCH 1 39
TORSDOF 29
ENDMDL
MODEL 25
USER: ADFR SOLUTION from run 168
USER: SCORE 19.559340 LL:  -5.128 LR: -16.131 RR:   0.000 FEB:  -7.480
USER: RMSD 12.138359
USER: SEED 167
USER: STATUS searching
USER: GENES 31
USER: genes 0 Translation |==|  0.54944 0.53227 0.36360
USER: genes 1 Rotation |==|  0.92991 0.42276 0.26539 0.56460
USER: genes 2 Torsion [N]-CA--C-[N] |==|  0.15895
USER: genes 3 Torsion [C]-N--CA-[C] |==|  0.61655
USER: genes 4 Torsion [N]-CA--C-[N] |==|  0.47905
USER: genes 5 Torsion [C]-N--CA-[C] |==|  0.16102
USER: genes 6 Torsion [N]-CA--C-[N] |==|  0.61448
USER: genes 7 Torsion [C]-N--CA-[CB] |==|  0.54369
USER: genes 8 Torsion [N]-CA--CB-[CG] |==|  0.13778
USER: genes 9 Torsion [CA]-CB--CG-[OD1] |==|  0.11031
USER: genes 10 Torsion [N]-CA--C-[N] |==|  0.40737
USER: genes 11 Torsion [N]-CA--CB-[CG] |==|  0.62734
USER: genes 12 Torsion [CA]-CB--CG-[CD] |==|  0.66657
USER: genes 13 Torsion [CB]-CG--CD-[CE] |==|  0.34897
USER: genes 14 Torsion [CG]-CD--CE-[NZ] |==|  0.59244
USER: genes 15 Torsion [CD]-CE--NZ-[HZ3] |==|  0.29393
USER: genes 16 Torsion [N]-CA--CB-[CG1] |==|  0.07545
USER: genes 17 Torsion [CA]-CB--CG1-[CD1] |==|  0.20020
USER: genes 18 Torsion [CB]-CA--N-[C] |==|  0.12568
USER: genes 19 Torsion [N]-C--CA-[N] |==|  0.47415
USER: genes 20 Torsion [C]-CA--N-[C] |==|  0.75377
USER: genes 21 Torsion [N]-C--CA-[N] |==|  0.93395
USER: genes 22 Torsion [C]-CA--N-[C] |==|  0.79984
USER: genes 23 Torsion [N]-C--CA-[N] |==|  0.94081
USER: genes 24 Torsion [C]-CA--N-[C] |==|  0.79980
USER: genes 25 Torsion [C]-CA--CB-[CG] |==|  0.28057
USER: genes 26 Torsion [CA]-CB--CG-[OD1] |==|  0.02098
USER: genes 27 Torsion [C]-CA--CB-[OG] |==|  0.54446
USER: genes 28 Torsion [CA]-CB--OG-[HG] |==|  0.00050
USER: genes 29 Torsion [C]-CA--CB-[CG] |==|  0.25665
USER: genes 30 Torsion [CA]-CB--CG-[OD1] |==|  0.58295
ROOT
ATOM      1  CA  ALA Z  41     -15.793  13.538  -8.418  1.00 21.22 LIG 0.17  C 
ATOM      2  CB  ALA Z  41     -16.789  12.660  -9.173  1.00 23.94 LIG 0.04  C 
ENDROOT
BRANCH 1 3
ATOM      3  C   ALA Z  41     -16.221  15.004  -8.487  1.00 23.72 LIG 0.24  C 
ATOM      4 O    ALA Z  41     -17.244  15.333  -9.086  1.00 25.98 LIG-0.27  OA
ATOM      5  N   ILE Z  42     -15.433  15.882  -7.875  1.00 25.83 LIG-0.35  N 
ATOM      6 H    ILE Z  42     -14.717  15.676  -7.446  1.00 25.83 LIG 0.16  HD
BRANCH 5 7
ATOM      7  CA  ILE Z  42     -15.747  17.306  -7.895  1.00 30.93 LIG 0.18  C 
BRANCH 7 8
ATOM      8  C   ILE Z  42     -14.506  18.170  -8.125  1.00 34.23 LIG 0.24  C 
ATOM      9 O    ILE Z  42     -13.383  17.666  -8.123  1.00 38.88 LIG-0.27  OA
ATOM     10  N   LYS Z  43     -14.706  19.472  -8.314  1.00 34.26 LIG-0.35  N 
ATOM     11 H    LYS Z  43     -15.470  19.862  -8.248  1.00 34.26 LIG 0.16  HD
BRANCH 10 12
ATOM     12  CA  LYS Z  43     -13.593  20.354  -8.660  1.00 43.39 LIG 0.18  C 
BRANCH 12 13
ATOM     13  C   LYS Z  43     -12.854  19.957  -9.938  1.00 55.57 LIG 0.24  C 
ATOM     14  N   ASN Z  44     -11.526  20.049  -9.915  1.00 60.92 LIG-0.34  N 
ATOM     15 H    ASN Z  44     -11.080  20.291  -9.222  1.00 60.92 LIG 0.16  HD
ATOM     16 O    LYS Z  43     -13.486  19.574 -10.925  1.00 61.19 LIG-0.27  OA
BRANCH 14 17
ATOM     17  CA  ASN Z  44     -10.696  19.741 -11.083  1.00 70.44 LIG 0.19  C 
BRANCH 17 18
ATOM     18  CB  ASN Z  44      -9.224  19.550 -10.690  1.00 74.13 LIG 0.14  C 
BRANCH 18 19
ATOM     19  CG  ASN Z  44      -9.048  18.596  -9.521  1.00 76.38 LIG 0.22  C 
ATOM     20  ND2 ASN Z  44      -8.125  18.924  -8.622  1.00 76.67 LIG-0.37  N 
ATOM     21 21HD ASN Z  44      -7.987  18.416  -7.942  1.00 76.67 LIG 0.16  HD
ATOM     22 22HD ASN Z  44      -7.666  19.645  -8.719  1.00 76.67 LIG 0.16  HD
ATOM     23 OD1  ASN Z  44      -9.732  17.576  -9.429  1.00 76.30 LIG-0.27  OA
ENDBRANCH 18 19
ENDBRANCH 17 18
BRANCH 17 24
ATOM     24  C   ASN Z  44     -11.194  18.523 -11.865  1.00 74.17 LIG 0.28  C 
ATOM     25 O    ASN Z  44     -11.730  17.576 -11.285  1.00 72.97 LIG-0.27  OA
ATOM     26  N   NH2 Z  45     -11.011  18.555 -13.181  1.00 76.38 LIG-0.11  N 
ENDBRANCH 17 24
ENDBRANCH 14 17
ENDBRANCH 12 13
BRANCH 12 27
ATOM     27  CB  LYS Z  43     -12.618  20.497  -7.485  1.00 40.99 LIG 0.04  C 
BRANCH 27 28
ATOM     28  CG  LYS Z  43     -12.197  21.938  -7.219  1.00 39.01 LIG 0.00  C 
BRANCH 28 29
ATOM     29  CD  LYS Z  43     -10.692  22.130  -7.349  1.00 38.38 LIG 0.03  C 
BRANCH 29 30
ATOM     30  CE  LYS Z  43     -10.368  23.248  -8.336  1.00 38.40 LIG 0.23  C 
BRANCH 30 31
ATOM     31  NZ  LYS Z  43      -9.105  23.006  -9.098  1.00 35.26 LIG-0.08  N 
ATOM     32 HZ3  LYS Z  43      -9.303  22.772  -9.934  1.00 35.26 LIG 0.27  HD
ATOM     33 HZ2  LYS Z  43      -8.643  22.353  -8.709  1.00 35.26 LIG 0.27  HD
ATOM     34 HZ1  LYS Z  43      -8.617  23.750  -9.107  1.00 35.26 LIG 0.27  HD
ENDBRANCH 30 31
ENDBRANCH 29 30
ENDBRANCH 28 29
ENDBRANCH 27 28
ENDBRANCH 12 27
ENDBRANCH 10 12
ENDBRANCH 7 8
BRANCH 7 35
ATOM     35  CB  ILE Z  42     -16.448  17.761  -6.602  1.00 30.84 LIG 0.01  C 
ATOM     36  CG2 ILE Z  42     -17.963  17.709  -6.770  1.00 35.03 LIG 0.01  C 
BRANCH 35 37
ATOM     37  CG1 ILE Z  42     -16.051  16.863  -5.433  1.00 30.67 LIG 0.00  C 
ATOM     38  CD1 ILE Z  42     -14.625  17.081  -4.962  1.00 26.38 LIG 0.01  C 
ENDBRANCH 35 37
ENDBRANCH 7 35
ENDBRANCH 5 7
ENDBRANCH 1 3
BRANCH 1 39
ATOM     39  N   ALA Z  41     -15.657  13.092  -7.033  1.00 17.22 LIG-0.35  N 
ATOM     40  C   ASN Z  40     -15.520  11.803  -6.728  1.00 21.77 LIG 0.24  C 
ATOM     41 O    ASN Z  40     -15.498  10.910  -7.577  1.00 19.61 LIG-0.27  OA
ATOM     42 H    ALA Z  41     -15.672  13.724  -6.452  1.00 17.22 LIG 0.16  HD
BRANCH 40 43
ATOM     43  CA  ASN Z  40     -15.384  11.459  -5.249  1.00 23.64 LIG 0.18  C 
BRANCH 43 44
ATOM     44  N   ASN Z  40     -15.454  10.029  -4.963  1.00 28.07 LIG-0.34  N 
ATOM     45 H    ASN Z  40     -14.695   9.623  -4.957  1.00 28.07 LIG 0.16  HD
ATOM     46  C   SER Z  39     -16.622   9.441  -4.734  1.00 29.35 LIG 0.24  C 
ATOM     47 O    SER Z  39     -17.699  10.032  -4.832  1.00 27.34 LIG-0.27  OA
BRANCH 46 48
ATOM     48  CA  SER Z  39     -16.583   7.971  -4.344  1.00 36.10 LIG 0.20  C 
BRANCH 48 49
ATOM     49  N   SER Z  39     -15.340   7.404  -4.849  1.00 45.98 LIG-0.34  N 
ATOM     50  C   ASN Z  38     -15.149   7.186  -6.146  1.00 57.47 LIG 0.24  C 
ATOM     51 O    ASN Z  38     -16.068   7.201  -6.969  1.00 60.64 LIG-0.27  OA
ATOM     52 H    SER Z  39     -14.756   7.230  -4.242  1.00 45.98 LIG 0.16  HD
BRANCH 50 53
ATOM     53  CA  ASN Z  38     -13.702   6.904  -6.576  1.00 65.29 LIG 0.18  C 
BRANCH 53 54
ATOM     54  N   ASN Z  38     -12.641   7.361  -5.673  1.00 70.64 LIG-0.35  N 
ATOM     55 H    ASN Z  38     -12.246   6.722  -5.254  1.00 70.64 LIG 0.16  HD
ATOM     56  C   ACE Z  37     -12.319   8.642  -5.517  1.00 74.22 LIG 0.21  C 
ATOM     57  CH3 ACE Z  37     -11.166   8.931  -4.559  1.00 75.88 LIG 0.12  C 
ATOM     58 O    ACE Z  37     -12.905   9.559  -6.091  1.00 75.32 LIG-0.27  OA
ENDBRANCH 53 54
BRANCH 53 59
ATOM     59  CB  ASN Z  38     -13.544   5.401  -6.851  1.00 65.91 LIG 0.12  C 
BRANCH 59 60
ATOM     60  CG  ASN Z  38     -13.576   5.064  -8.334  1.00 66.48 LIG 0.15  C 
ATOM     61 OD1  ASN Z  38     -13.576   6.096  -9.168  1.00 67.09 LIG-0.18  OA
ATOM     62  ND2 ASN Z  38     -13.605   3.895  -8.724  1.00 65.12 LIG-0.38  N 
ATOM     63 22HD ASN Z  38     -13.604   3.251  -8.153  1.00 65.12 LIG 0.16  HD
ATOM     64 21HD ASN Z  38     -13.626   3.724  -9.566  1.00 65.12 LIG 0.16  HD
ENDBRANCH 59 60
ENDBRANCH 53 59
ENDBRANCH 50 53
ENDBRANCH 48 49
BRANCH 48 65
ATOM     65  CB  SER Z  39     -16.683   7.837  -2.828  1.00 33.12 LIG 0.20  C 
BRANCH 65 66
ATOM     66 OG   SER Z  39     -16.286   6.537  -2.411  1.00 30.52 LIG-0.40  OA
ATOM     67 HG   SER Z  39     -16.066   6.082  -3.082  1.00 30.52 LIG 0.21  HD
ENDBRANCH 65 66
ENDBRANCH 48 65
ENDBRANCH 46 48
ENDBRANCH 43 44
BRANCH 43 68
ATOM     68  CB  ASN Z  40     -14.096  12.070  -4.695  1.00 19.94 LIG 0.14  C 
BRANCH 68 69
ATOM     69  CG  ASN Z  40     -14.319  13.446  -4.098  1.00 19.97 LIG 0.22  C 
ATOM     70 OD1  ASN Z  40     -13.421  14.291  -4.109  1.00 23.42 LIG-0.27  OA
ATOM     71  ND2 ASN Z  40     -15.513  13.676  -3.561  1.00 19.32 LIG-0.37  N 
ATOM     72 21HD ASN Z  40     -15.684  14.439  -3.203  1.00 19.32 LIG 0.16  HD
ATOM     73 22HD ASN Z  40     -16.115  13.061  -3.572  1.00 19.32 LIG 0.16  HD
ENDBRANCH 68 69
ENDBRANCH 43 68
ENDBRANCH 40 43
ENDBRANCH 1 39
TORSDOF 29
ENDMDL
MODEL 26
USER: ADFR SOLUTION from run 122
USER: SCORE 21.053979 LL:  -6.420 LR: -16.133 RR:   0.000 FEB:  -7.482
USER: RMSD 11.429488
USER: SEED 121
USER: STATUS no improvement in best in 2 clusters for 5 generations
USER: GENES 31
USER: genes 0 Translation |==|  0.56241 0.55444 0.37459
USER: genes 1 Rotation |==|  0.07910 0.59339 0.74778 0.55223
USER: genes 2 Torsion [N]-CA--C-[N] |==|  0.11667
USER: genes 3 Torsion [C]-N--CA-[C] |==|  0.72779
USER: genes 4 Torsion [N]-CA--C-[N] |==|  0.92562
USER: genes 5 Torsion [C]-N--CA-[C] |==|  0.82338
USER: genes 6 Torsion [N]-CA--C-[N] |==|  0.87050
USER: genes 7 Torsion [C]-N--CA-[CB] |==|  0.84048
USER: genes 8 Torsion [N]-CA--CB-[CG] |==|  0.82923
USER: genes 9 Torsion [CA]-CB--CG-[OD1] |==|  0.08053
USER: genes 10 Torsion [N]-CA--C-[N] |==|  0.40515
USER: genes 11 Torsion [N]-CA--CB-[CG] |==|  0.67179
USER: genes 12 Torsion [CA]-CB--CG-[CD] |==|  0.73563
USER: genes 13 Torsion [CB]-CG--CD-[CE] |==|  0.97426
USER: genes 14 Torsion [CG]-CD--CE-[NZ] |==|  0.46557
USER: genes 15 Torsion [CD]-CE--NZ-[HZ3] |==|  0.23227
USER: genes 16 Torsion [N]-CA--CB-[CG1] |==|  0.26553
USER: genes 17 Torsion [CA]-CB--CG1-[CD1] |==|  0.51739
USER: genes 18 Torsion [CB]-CA--N-[C] |==|  0.16124
USER: genes 19 Torsion [N]-C--CA-[N] |==|  0.69581
USER: genes 20 Torsion [C]-CA--N-[C] |==|  0.73292
USER: genes 21 Torsion [N]-C--CA-[N] |==|  0.95455
USER: genes 22 Torsion [C]-CA--N-[C] |==|  0.79533
USER: genes 23 Torsion [N]-C--CA-[N] |==|  0.88355
USER: genes 24 Torsion [C]-CA--N-[C] |==|  0.80493
USER: genes 25 Torsion [C]-CA--CB-[CG] |==|  0.75467
USER: genes 26 Torsion [CA]-CB--CG-[OD1] |==|  0.78094
USER: genes 27 Torsion [C]-CA--CB-[OG] |==|  0.49149
USER: genes 28 Torsion [CA]-CB--OG-[HG] |==|  0.92142
USER: genes 29 Torsion [C]-CA--CB-[CG] |==|  0.20165
USER: genes 30 Torsion [CA]-CB--CG-[OD1] |==|  0.75636
ROOT
ATOM      1  CA  ALA Z  41     -15.482  14.054  -8.171  1.00 21.22 LIG 0.17  C 
ATOM      2  CB  ALA Z  41     -16.625  13.827  -9.159  1.00 23.94 LIG 0.04  C 
ENDROOT
BRANCH 1 3
ATOM      3  C   ALA Z  41     -15.483  15.501  -7.681  1.00 23.72 LIG 0.24  C 
ATOM      4 O    ALA Z  41     -16.134  16.364  -8.270  1.00 25.98 LIG-0.27  OA
ATOM      5  N   ILE Z  42     -14.749  15.765  -6.606  1.00 25.83 LIG-0.35  N 
ATOM      6 H    ILE Z  42     -14.291  15.179  -6.174  1.00 25.83 LIG 0.16  HD
BRANCH 5 7
ATOM      7  CA  ILE Z  42     -14.674  17.119  -6.068  1.00 30.93 LIG 0.18  C 
BRANCH 7 8
ATOM      8  C   ILE Z  42     -13.417  17.858  -6.532  1.00 34.23 LIG 0.24  C 
ATOM      9 O    ILE Z  42     -13.408  19.086  -6.616  1.00 38.88 LIG-0.27  OA
ATOM     10  N   LYS Z  43     -12.360  17.111  -6.841  1.00 34.26 LIG-0.35  N 
ATOM     11 H    LYS Z  43     -12.360  16.252  -6.862  1.00 34.26 LIG 0.16  HD
BRANCH 10 12
ATOM     12  CA  LYS Z  43     -11.081  17.734  -7.178  1.00 43.39 LIG 0.18  C 
BRANCH 12 13
ATOM     13  C   LYS Z  43     -11.116  18.592  -8.444  1.00 55.57 LIG 0.24  C 
ATOM     14  N   ASN Z  44     -11.710  18.061  -9.510  1.00 60.92 LIG-0.34  N 
ATOM     15 H    ASN Z  44     -12.086  17.288  -9.508  1.00 60.92 LIG 0.16  HD
ATOM     16 O    LYS Z  43     -10.611  19.717  -8.443  1.00 61.19 LIG-0.27  OA
BRANCH 14 17
ATOM     17  CA  ASN Z  44     -11.778  18.755 -10.799  1.00 70.44 LIG 0.19  C 
BRANCH 17 18
ATOM     18  CB  ASN Z  44     -12.462  20.123 -10.664  1.00 74.13 LIG 0.14  C 
BRANCH 18 19
ATOM     19  CG  ASN Z  44     -13.898  20.016 -10.182  1.00 76.38 LIG 0.22  C 
ATOM     20  ND2 ASN Z  44     -14.730  20.975 -10.578  1.00 76.67 LIG-0.37  N 
ATOM     21 21HD ASN Z  44     -15.554  20.959 -10.331  1.00 76.67 LIG 0.16  HD
ATOM     22 22HD ASN Z  44     -14.445  21.610 -11.082  1.00 76.67 LIG 0.16  HD
ATOM     23 OD1  ASN Z  44     -14.255  19.083  -9.460  1.00 76.30 LIG-0.27  OA
ENDBRANCH 18 19
ENDBRANCH 17 18
BRANCH 17 24
ATOM     24  C   ASN Z  44     -10.408  18.915 -11.463  1.00 74.17 LIG 0.28  C 
ATOM     25 O    ASN Z  44      -9.394  19.093 -10.785  1.00 72.97 LIG-0.27  OA
ATOM     26  N   NH2 Z  45     -10.388  18.852 -12.791  1.00 76.38 LIG-0.11  N 
ENDBRANCH 17 24
ENDBRANCH 14 17
ENDBRANCH 12 13
BRANCH 12 27
ATOM     27  CB  LYS Z  43      -9.963  16.688  -7.256  1.00 40.99 LIG 0.04  C 
BRANCH 27 28
ATOM     28  CG  LYS Z  43      -8.851  16.913  -6.237  1.00 39.01 LIG 0.00  C 
BRANCH 28 29
ATOM     29  CD  LYS Z  43      -7.685  17.699  -6.824  1.00 38.38 LIG 0.03  C 
BRANCH 29 30
ATOM     30  CE  LYS Z  43      -7.839  17.854  -8.334  1.00 38.40 LIG 0.23  C 
BRANCH 30 31
ATOM     31  NZ  LYS Z  43      -6.894  18.855  -8.918  1.00 35.26 LIG-0.08  N 
ATOM     32 HZ3  LYS Z  43      -6.107  18.467  -9.068  1.00 35.26 LIG 0.27  HD
ATOM     33 HZ2  LYS Z  43      -6.787  19.531  -8.348  1.00 35.26 LIG 0.27  HD
ATOM     34 HZ1  LYS Z  43      -7.224  19.163  -9.685  1.00 35.26 LIG 0.27  HD
ENDBRANCH 30 31
ENDBRANCH 29 30
ENDBRANCH 28 29
ENDBRANCH 27 28
ENDBRANCH 12 27
ENDBRANCH 10 12
ENDBRANCH 7 8
BRANCH 7 35
ATOM     35  CB  ILE Z  42     -14.731  17.135  -4.530  1.00 30.84 LIG 0.01  C 
ATOM     36  CG2 ILE Z  42     -15.444  15.890  -4.011  1.00 35.03 LIG 0.01  C 
BRANCH 35 37
ATOM     37  CG1 ILE Z  42     -13.324  17.178  -3.942  1.00 30.67 LIG 0.00  C 
ATOM     38  CD1 ILE Z  42     -13.295  17.044  -2.431  1.00 26.38 LIG 0.01  C 
ENDBRANCH 35 37
ENDBRANCH 7 35
ENDBRANCH 5 7
ENDBRANCH 1 3
BRANCH 1 39
ATOM     39  N   ALA Z  41     -15.573  13.117  -7.053  1.00 17.22 LIG-0.35  N 
ATOM     40  C   ASN Z  40     -15.568  11.800  -7.246  1.00 21.77 LIG 0.24  C 
ATOM     41 O    ASN Z  40     -15.485  11.285  -8.362  1.00 19.61 LIG-0.27  OA
ATOM     42 H    ALA Z  41     -15.629  13.490  -6.280  1.00 17.22 LIG 0.16  HD
BRANCH 40 43
ATOM     43  CA  ASN Z  40     -15.666  10.924  -6.002  1.00 23.64 LIG 0.18  C 
BRANCH 43 44
ATOM     44  N   ASN Z  40     -14.435  10.209  -5.679  1.00 28.07 LIG-0.34  N 
ATOM     45 H    ASN Z  40     -13.861  10.663  -5.226  1.00 28.07 LIG 0.16  HD
ATOM     46  C   SER Z  39     -14.257   8.954  -6.074  1.00 29.35 LIG 0.24  C 
ATOM     47 O    SER Z  39     -15.062   8.359  -6.793  1.00 27.34 LIG-0.27  OA
BRANCH 46 48
ATOM     48  CA  SER Z  39     -12.988   8.262  -5.603  1.00 36.10 LIG 0.20  C 
BRANCH 48 49
ATOM     49  N   SER Z  39     -12.066   9.286  -5.131  1.00 45.98 LIG-0.34  N 
ATOM     50  C   ASN Z  38     -11.420  10.086  -5.974  1.00 57.47 LIG 0.24  C 
ATOM     51 O    ASN Z  38     -11.353   9.865  -7.185  1.00 60.64 LIG-0.27  OA
ATOM     52 H    SER Z  39     -11.981   9.322  -4.275  1.00 45.98 LIG 0.16  HD
BRANCH 50 53
ATOM     53  CA  ASN Z  38     -10.747  11.319  -5.352  1.00 65.29 LIG 0.18  C 
BRANCH 53 54
ATOM     54  N   ASN Z  38     -11.506  12.041  -4.327  1.00 70.64 LIG-0.35  N 
ATOM     55 H    ASN Z  38     -11.183  11.955  -3.534  1.00 70.64 LIG 0.16  HD
ATOM     56  C   ACE Z  37     -12.592  12.762  -4.596  1.00 74.22 LIG 0.21  C 
ATOM     57  CH3 ACE Z  37     -13.234  13.474  -3.408  1.00 75.88 LIG 0.12  C 
ATOM     58 O    ACE Z  37     -13.073  12.859  -5.724  1.00 75.32 LIG-0.27  OA
ENDBRANCH 53 54
BRANCH 53 59
ATOM     59  CB  ASN Z  38      -9.373  10.914  -4.798  1.00 65.91 LIG 0.12  C 
BRANCH 59 60
ATOM     60  CG  ASN Z  38      -9.436  10.416  -3.363  1.00 66.48 LIG 0.15  C 
ATOM     61 OD1  ASN Z  38      -9.522  11.350  -2.423  1.00 67.09 LIG-0.18  OA
ATOM     62  ND2 ASN Z  38      -9.405   9.213  -3.101  1.00 65.12 LIG-0.38  N 
ATOM     63 22HD ASN Z  38      -9.349   8.635  -3.736  1.00 65.12 LIG 0.16  HD
ATOM     64 21HD ASN Z  38      -9.439   8.950  -2.283  1.00 65.12 LIG 0.16  HD
ENDBRANCH 59 60
ENDBRANCH 53 59
ENDBRANCH 50 53
ENDBRANCH 48 49
BRANCH 48 65
ATOM     65  CB  SER Z  39     -13.325   7.263  -4.500  1.00 33.12 LIG 0.20  C 
BRANCH 65 66
ATOM     66 OG   SER Z  39     -12.162   6.553  -4.093  1.00 30.52 LIG-0.40  OA
ATOM     67 HG   SER Z  39     -11.622   6.507  -4.735  1.00 30.52 LIG 0.21  HD
ENDBRANCH 65 66
ENDBRANCH 48 65
ENDBRANCH 46 48
ENDBRANCH 43 44
BRANCH 43 68
ATOM     68  CB  ASN Z  40     -16.143  11.766  -4.817  1.00 19.94 LIG 0.14  C 
BRANCH 68 69
ATOM     69  CG  ASN Z  40     -17.611  12.133  -4.921  1.00 19.97 LIG 0.22  C 
ATOM     70 OD1  ASN Z  40     -17.966  13.148  -5.525  1.00 23.42 LIG-0.27  OA
ATOM     71  ND2 ASN Z  40     -18.473  11.316  -4.323  1.00 19.32 LIG-0.37  N 
ATOM     72 21HD ASN Z  40     -19.316  11.488  -4.348  1.00 19.32 LIG 0.16  HD
ATOM     73 22HD ASN Z  40     -18.188  10.617  -3.911  1.00 19.32 LIG 0.16  HD
ENDBRANCH 68 69
ENDBRANCH 43 68
ENDBRANCH 40 43
ENDBRANCH 1 39
TORSDOF 29
ENDMDL
MODEL 27
USER: ADFR SOLUTION from run 168
USER: SCORE 19.418217 LL:  -5.547 LR: -16.133 RR:   0.000 FEB:  -7.483
USER: RMSD 12.097730
USER: SEED 167
USER: STATUS searching
USER: GENES 31
USER: genes 0 Translation |==|  0.55575 0.51865 0.32098
USER: genes 1 Rotation |==|  0.92567 0.46575 0.24052 0.51750
USER: genes 2 Torsion [N]-CA--C-[N] |==|  0.16702
USER: genes 3 Torsion [C]-N--CA-[C] |==|  0.61577
USER: genes 4 Torsion [N]-CA--C-[N] |==|  0.45463
USER: genes 5 Torsion [C]-N--CA-[C] |==|  0.15662
USER: genes 6 Torsion [N]-CA--C-[N] |==|  0.61811
USER: genes 7 Torsion [C]-N--CA-[CB] |==|  0.54087
USER: genes 8 Torsion [N]-CA--CB-[CG] |==|  0.14170
USER: genes 9 Torsion [CA]-CB--CG-[OD1] |==|  0.09119
USER: genes 10 Torsion [N]-CA--C-[N] |==|  0.40616
USER: genes 11 Torsion [N]-CA--CB-[CG] |==|  0.59904
USER: genes 12 Torsion [CA]-CB--CG-[CD] |==|  0.66455
USER: genes 13 Torsion [CB]-CG--CD-[CE] |==|  0.36913
USER: genes 14 Torsion [CG]-CD--CE-[NZ] |==|  0.59966
USER: genes 15 Torsion [CD]-CE--NZ-[HZ3] |==|  0.12619
USER: genes 16 Torsion [N]-CA--CB-[CG1] |==|  0.07592
USER: genes 17 Torsion [CA]-CB--CG1-[CD1] |==|  0.26580
USER: genes 18 Torsion [CB]-CA--N-[C] |==|  0.82150
USER: genes 19 Torsion [N]-C--CA-[N] |==|  0.19031
USER: genes 20 Torsion [C]-CA--N-[C] |==|  0.77468
USER: genes 21 Torsion [N]-C--CA-[N] |==|  0.34606
USER: genes 22 Torsion [C]-CA--N-[C] |==|  0.63020
USER: genes 23 Torsion [N]-C--CA-[N] |==|  0.89252
USER: genes 24 Torsion [C]-CA--N-[C] |==|  0.87768
USER: genes 25 Torsion [C]-CA--CB-[CG] |==|  0.86981
USER: genes 26 Torsion [CA]-CB--CG-[OD1] |==|  0.27103
USER: genes 27 Torsion [C]-CA--CB-[OG] |==|  0.52822
USER: genes 28 Torsion [CA]-CB--OG-[HG] |==|  0.97255
USER: genes 29 Torsion [C]-CA--CB-[CG] |==|  0.38615
USER: genes 30 Torsion [CA]-CB--CG-[OD1] |==|  0.65305
ROOT
ATOM      1  CA  ALA Z  41     -15.642  13.222  -9.377  1.00 21.22 LIG 0.17  C 
ATOM      2  CB  ALA Z  41     -16.673  12.508 -10.248  1.00 23.94 LIG 0.04  C 
ENDROOT
BRANCH 1 3
ATOM      3  C   ALA Z  41     -16.121  14.632  -9.035  1.00 23.72 LIG 0.24  C 
ATOM      4 O    ALA Z  41     -17.228  15.026  -9.401  1.00 25.98 LIG-0.27  OA
ATOM      5  N   ILE Z  42     -15.284  15.390  -8.335  1.00 25.83 LIG-0.35  N 
ATOM      6 H    ILE Z  42     -14.509  15.136  -8.063  1.00 25.83 LIG 0.16  HD
BRANCH 5 7
ATOM      7  CA  ILE Z  42     -15.644  16.756  -7.970  1.00 30.93 LIG 0.18  C 
BRANCH 7 8
ATOM      8  C   ILE Z  42     -14.473  17.727  -8.134  1.00 34.23 LIG 0.24  C 
ATOM      9 O    ILE Z  42     -13.320  17.306  -8.232  1.00 38.88 LIG-0.27  OA
ATOM     10  N   LYS Z  43     -14.766  19.025  -8.156  1.00 34.26 LIG-0.35  N 
ATOM     11 H    LYS Z  43     -15.550  19.349  -8.017  1.00 34.26 LIG 0.16  HD
BRANCH 10 12
ATOM     12  CA  LYS Z  43     -13.728  20.018  -8.428  1.00 43.39 LIG 0.18  C 
BRANCH 12 13
ATOM     13  C   LYS Z  43     -12.993  19.808  -9.752  1.00 55.57 LIG 0.24  C 
ATOM     14  N   ASN Z  44     -11.672  19.970  -9.736  1.00 60.92 LIG-0.34  N 
ATOM     15 H    ASN Z  44     -11.226  20.158  -9.025  1.00 60.92 LIG 0.16  HD
ATOM     16 O    LYS Z  43     -13.622  19.502 -10.768  1.00 61.19 LIG-0.27  OA
BRANCH 14 17
ATOM     17  CA  ASN Z  44     -10.848  19.841 -10.942  1.00 70.44 LIG 0.19  C 
BRANCH 17 18
ATOM     18  CB  ASN Z  44      -9.359  19.714 -10.591  1.00 74.13 LIG 0.14  C 
BRANCH 18 19
ATOM     19  CG  ASN Z  44      -9.089  18.638  -9.555  1.00 76.38 LIG 0.22  C 
ATOM     20  ND2 ASN Z  44      -8.079  18.860  -8.718  1.00 76.67 LIG-0.37  N 
ATOM     21 21HD ASN Z  44      -7.886  18.280  -8.114  1.00 76.67 LIG 0.16  HD
ATOM     22 22HD ASN Z  44      -7.619  19.584  -8.782  1.00 76.67 LIG 0.16  HD
ATOM     23 OD1  ASN Z  44      -9.779  17.618  -9.507  1.00 76.30 LIG-0.27  OA
ENDBRANCH 18 19
ENDBRANCH 17 18
BRANCH 17 24
ATOM     24  C   ASN Z  44     -11.280  18.676 -11.836  1.00 74.17 LIG 0.28  C 
ATOM     25 O    ASN Z  44     -11.730  17.637 -11.349  1.00 72.97 LIG-0.27  OA
ATOM     26  N   NH2 Z  45     -11.136  18.857 -13.145  1.00 76.38 LIG-0.11  N 
ENDBRANCH 17 24
ENDBRANCH 14 17
ENDBRANCH 12 13
BRANCH 12 27
ATOM     27  CB  LYS Z  43     -12.739  20.115  -7.261  1.00 40.99 LIG 0.04  C 
BRANCH 27 28
ATOM     28  CG  LYS Z  43     -12.228  21.531  -7.017  1.00 39.01 LIG 0.00  C 
BRANCH 28 29
ATOM     29  CD  LYS Z  43     -10.713  21.624  -7.140  1.00 38.38 LIG 0.03  C 
BRANCH 29 30
ATOM     30  CE  LYS Z  43     -10.310  22.816  -8.003  1.00 38.40 LIG 0.23  C 
BRANCH 30 31
ATOM     31  NZ  LYS Z  43      -9.105  22.545  -8.846  1.00 35.26 LIG-0.08  N 
ATOM     32 HZ3  LYS Z  43      -9.186  21.747  -9.233  1.00 35.26 LIG 0.27  HD
ATOM     33 HZ2  LYS Z  43      -8.376  22.554  -8.336  1.00 35.26 LIG 0.27  HD
ATOM     34 HZ1  LYS Z  43      -9.034  23.173  -9.474  1.00 35.26 LIG 0.27  HD
ENDBRANCH 30 31
ENDBRANCH 29 30
ENDBRANCH 28 29
ENDBRANCH 27 28
ENDBRANCH 12 27
ENDBRANCH 10 12
ENDBRANCH 7 8
BRANCH 7 35
ATOM     35  CB  ILE Z  42     -16.178  16.847  -6.529  1.00 30.84 LIG 0.01  C 
ATOM     36  CG2 ILE Z  42     -17.699  16.737  -6.517  1.00 35.03 LIG 0.01  C 
BRANCH 35 37
ATOM     37  CG1 ILE Z  42     -15.596  15.729  -5.669  1.00 30.67 LIG 0.00  C 
ATOM     38  CD1 ILE Z  42     -14.372  16.150  -4.877  1.00 26.38 LIG 0.01  C 
ENDBRANCH 35 37
ENDBRANCH 7 35
ENDBRANCH 5 7
ENDBRANCH 1 3
BRANCH 1 39
ATOM     39  N   ALA Z  41     -15.365  12.449  -8.168  1.00 17.22 LIG-0.35  N 
ATOM     40  C   ASN Z  40     -16.305  12.229  -7.252  1.00 21.77 LIG 0.24  C 
ATOM     41 O    ASN Z  40     -17.458  12.652  -7.357  1.00 19.61 LIG-0.27  OA
ATOM     42 H    ALA Z  41     -14.558  12.159  -8.108  1.00 17.22 LIG 0.16  HD
BRANCH 40 43
ATOM     43  CA  ASN Z  40     -15.898  11.408  -6.034  1.00 23.64 LIG 0.18  C 
BRANCH 43 44
ATOM     44  N   ASN Z  40     -14.955  12.086  -5.148  1.00 28.07 LIG-0.34  N 
ATOM     45 H    ASN Z  40     -15.310  12.457  -4.457  1.00 28.07 LIG 0.16  HD
ATOM     46  C   SER Z  39     -13.657  12.104  -5.428  1.00 29.35 LIG 0.24  C 
ATOM     47 O    SER Z  39     -13.191  11.636  -6.469  1.00 27.34 LIG-0.27  OA
BRANCH 46 48
ATOM     48  CA  SER Z  39     -12.744  12.745  -4.395  1.00 36.10 LIG 0.20  C 
BRANCH 48 49
ATOM     49  N   SER Z  39     -11.726  11.770  -4.027  1.00 45.98 LIG-0.34  N 
ATOM     50  C   ASN Z  38     -11.413  11.535  -2.757  1.00 57.47 LIG 0.24  C 
ATOM     51 O    ASN Z  38     -11.758  12.277  -1.835  1.00 60.64 LIG-0.27  OA
ATOM     52 H    SER Z  39     -11.356  11.373  -4.694  1.00 45.98 LIG 0.16  HD
BRANCH 50 53
ATOM     53  CA  ASN Z  38     -10.580  10.271  -2.492  1.00 65.29 LIG 0.18  C 
BRANCH 53 54
ATOM     54  N   ASN Z  38     -10.905   9.084  -3.287  1.00 70.64 LIG-0.35  N 
ATOM     55 H    ASN Z  38     -10.214   8.672  -3.591  1.00 70.64 LIG 0.16  HD
ATOM     56  C   ACE Z  37     -12.152   8.681  -3.519  1.00 74.22 LIG 0.21  C 
ATOM     57  CH3 ACE Z  37     -12.301   7.403  -4.342  1.00 75.88 LIG 0.12  C 
ATOM     58 O    ACE Z  37     -13.142   9.287  -3.113  1.00 75.32 LIG-0.27  OA
ENDBRANCH 53 54
BRANCH 53 59
ATOM     59  CB  ASN Z  38      -9.090  10.611  -2.643  1.00 65.91 LIG 0.12  C 
BRANCH 59 60
ATOM     60  CG  ASN Z  38      -8.790  11.410  -3.902  1.00 66.48 LIG 0.15  C 
ATOM     61 OD1  ASN Z  38      -8.691  12.725  -3.750  1.00 67.09 LIG-0.18  OA
ATOM     62  ND2 ASN Z  38      -8.654  10.856  -4.994  1.00 65.12 LIG-0.38  N 
ATOM     63 22HD ASN Z  38      -8.724  10.001  -5.054  1.00 65.12 LIG 0.16  HD
ATOM     64 21HD ASN Z  38      -8.487  11.324  -5.696  1.00 65.12 LIG 0.16  HD
ENDBRANCH 59 60
ENDBRANCH 53 59
ENDBRANCH 50 53
ENDBRANCH 48 49
BRANCH 48 65
ATOM     65  CB  SER Z  39     -12.121  14.012  -4.974  1.00 33.12 LIG 0.20  C 
BRANCH 65 66
ATOM     66 OG   SER Z  39     -11.092  14.500  -4.122  1.00 30.52 LIG-0.40  OA
ATOM     67 HG   SER Z  39     -11.107  14.080  -3.395  1.00 30.52 LIG 0.21  HD
ENDBRANCH 65 66
ENDBRANCH 48 65
ENDBRANCH 46 48
ENDBRANCH 43 44
BRANCH 43 68
ATOM     68  CB  ASN Z  40     -17.148  10.963  -5.272  1.00 19.94 LIG 0.14  C 
BRANCH 68 69
ATOM     69  CG  ASN Z  40     -17.046   9.532  -4.779  1.00 19.97 LIG 0.22  C 
ATOM     70 OD1  ASN Z  40     -17.910   8.702  -5.073  1.00 23.42 LIG-0.27  OA
ATOM     71  ND2 ASN Z  40     -15.997   9.237  -4.018  1.00 19.32 LIG-0.37  N 
ATOM     72 21HD ASN Z  40     -15.902   8.441  -3.708  1.00 19.32 LIG 0.16  HD
ATOM     73 22HD ASN Z  40     -15.416   9.844  -3.834  1.00 19.32 LIG 0.16  HD
ENDBRANCH 68 69
ENDBRANCH 43 68
ENDBRANCH 40 43
ENDBRANCH 1 39
TORSDOF 29
ENDMDL
MODEL 28
USER: ADFR SOLUTION from run 79
USER: SCORE 21.367107 LL:  -6.702 LR: -16.058 RR:   0.000 FEB:  -7.407
USER: RMSD 6.395159
USER: SEED 78
USER: STATUS searching
USER: GENES 31
USER: genes 0 Translation |==|  0.49744 0.48529 0.31723
USER: genes 1 Rotation |==|  0.27525 0.83287 0.55068 0.79345
USER: genes 2 Torsion [N]-CA--C-[N] |==|  0.02714
USER: genes 3 Torsion [C]-N--CA-[C] |==|  0.85169
USER: genes 4 Torsion [N]-CA--C-[N] |==|  0.39955
USER: genes 5 Torsion [C]-N--CA-[C] |==|  0.76780
USER: genes 6 Torsion [N]-CA--C-[N] |==|  0.17126
USER: genes 7 Torsion [C]-N--CA-[CB] |==|  0.16391
USER: genes 8 Torsion [N]-CA--CB-[CG] |==|  0.66055
USER: genes 9 Torsion [CA]-CB--CG-[OD1] |==|  0.66057
USER: genes 10 Torsion [N]-CA--C-[N] |==|  0.11125
USER: genes 11 Torsion [N]-CA--CB-[CG] |==|  0.12419
USER: genes 12 Torsion [CA]-CB--CG-[CD] |==|  0.31147
USER: genes 13 Torsion [CB]-CG--CD-[CE] |==|  0.70725
USER: genes 14 Torsion [CG]-CD--CE-[NZ] |==|  0.35611
USER: genes 15 Torsion [CD]-CE--NZ-[HZ3] |==|  0.16286
USER: genes 16 Torsion [N]-CA--CB-[CG1] |==|  0.64824
USER: genes 17 Torsion [CA]-CB--CG1-[CD1] |==|  0.15718
USER: genes 18 Torsion [CB]-CA--N-[C] |==|  0.83630
USER: genes 19 Torsion [N]-C--CA-[N] |==|  0.12462
USER: genes 20 Torsion [C]-CA--N-[C] |==|  0.16637
USER: genes 21 Torsion [N]-C--CA-[N] |==|  0.06619
USER: genes 22 Torsion [C]-CA--N-[C] |==|  0.64571
USER: genes 23 Torsion [N]-C--CA-[N] |==|  0.35626
USER: genes 24 Torsion [C]-CA--N-[C] |==|  0.84674
USER: genes 25 Torsion [C]-CA--CB-[CG] |==|  0.26519
USER: genes 26 Torsion [CA]-CB--CG-[OD1] |==|  0.78259
USER: genes 27 Torsion [C]-CA--CB-[OG] |==|  0.66128
USER: genes 28 Torsion [CA]-CB--OG-[HG] |==|  0.87492
USER: genes 29 Torsion [C]-CA--CB-[CG] |==|  0.36797
USER: genes 30 Torsion [CA]-CB--CG-[OD1] |==|  0.01662
ROOT
ATOM      1  CA  ALA Z  41     -17.041  12.446  -9.461  1.00 21.22 LIG 0.17  C 
ATOM      2  CB  ALA Z  41     -16.584  13.504 -10.463  1.00 23.94 LIG 0.04  C 
ENDROOT
BRANCH 1 3
ATOM      3  C   ALA Z  41     -15.973  12.233  -8.390  1.00 23.72 LIG 0.24  C 
ATOM      4 O    ALA Z  41     -14.791  12.085  -8.701  1.00 25.98 LIG-0.27  OA
ATOM      5  N   ILE Z  42     -16.392  12.212  -7.129  1.00 25.83 LIG-0.35  N 
ATOM      6 H    ILE Z  42     -17.210  12.318  -6.887  1.00 25.83 LIG 0.16  HD
BRANCH 5 7
ATOM      7  CA  ILE Z  42     -15.451  12.002  -6.034  1.00 30.93 LIG 0.18  C 
BRANCH 7 8
ATOM      8  C   ILE Z  42     -14.610  10.738  -6.228  1.00 34.23 LIG 0.24  C 
ATOM      9 O    ILE Z  42     -15.104   9.729  -6.732  1.00 38.88 LIG-0.27  OA
ATOM     10  N   LYS Z  43     -13.344  10.789  -5.820  1.00 34.26 LIG-0.35  N 
ATOM     11 H    LYS Z  43     -12.994  11.453  -5.400  1.00 34.26 LIG 0.16  HD
BRANCH 10 12
ATOM     12  CA  LYS Z  43     -12.435   9.673  -6.073  1.00 43.39 LIG 0.18  C 
BRANCH 12 13
ATOM     13  C   LYS Z  43     -12.527   8.546  -5.044  1.00 55.57 LIG 0.24  C 
ATOM     14  N   ASN Z  44     -13.697   7.922  -4.942  1.00 60.92 LIG-0.34  N 
ATOM     15 H    ASN Z  44     -14.377   8.106  -5.435  1.00 60.92 LIG 0.16  HD
ATOM     16 O    LYS Z  43     -11.544   8.253  -4.358  1.00 61.19 LIG-0.27  OA
BRANCH 14 17
ATOM     17  CA  ASN Z  44     -13.937   6.853  -3.968  1.00 70.44 LIG 0.19  C 
BRANCH 17 18
ATOM     18  CB  ASN Z  44     -13.709   7.343  -2.531  1.00 74.13 LIG 0.14  C 
BRANCH 18 19
ATOM     19  CG  ASN Z  44     -12.658   6.532  -1.794  1.00 76.38 LIG 0.22  C 
ATOM     20  ND2 ASN Z  44     -11.451   6.482  -2.349  1.00 76.67 LIG-0.37  N 
ATOM     21 21HD ASN Z  44     -10.821   6.035  -1.970  1.00 76.67 LIG 0.16  HD
ATOM     22 22HD ASN Z  44     -11.299   6.896  -3.087  1.00 76.67 LIG 0.16  HD
ATOM     23 OD1  ASN Z  44     -12.928   5.957  -0.739  1.00 76.30 LIG-0.27  OA
ENDBRANCH 18 19
ENDBRANCH 17 18
BRANCH 17 24
ATOM     24  C   ASN Z  44     -15.330   6.231  -4.098  1.00 74.17 LIG 0.28  C 
ATOM     25 O    ASN Z  44     -15.982   5.926  -3.097  1.00 72.97 LIG-0.27  OA
ATOM     26  N   NH2 Z  45     -15.776   6.043  -5.336  1.00 76.38 LIG-0.11  N 
ENDBRANCH 17 24
ENDBRANCH 14 17
ENDBRANCH 12 13
BRANCH 12 27
ATOM     27  CB  LYS Z  43     -10.990  10.163  -6.222  1.00 40.99 LIG 0.04  C 
BRANCH 27 28
ATOM     28  CG  LYS Z  43     -10.585  11.184  -5.164  1.00 39.01 LIG 0.00  C 
BRANCH 28 29
ATOM     29  CD  LYS Z  43      -9.540  10.631  -4.203  1.00 38.38 LIG 0.03  C 
BRANCH 29 30
ATOM     30  CE  LYS Z  43     -10.164  10.306  -2.849  1.00 38.40 LIG 0.23  C 
BRANCH 30 31
ATOM     31  NZ  LYS Z  43      -9.861   8.916  -2.387  1.00 35.26 LIG-0.08  N 
ATOM     32 HZ3  LYS Z  43      -8.979   8.808  -2.329  1.00 35.26 LIG 0.27  HD
ATOM     33 HZ2  LYS Z  43     -10.195   8.330  -2.968  1.00 35.26 LIG 0.27  HD
ATOM     34 HZ1  LYS Z  43     -10.229   8.783  -1.587  1.00 35.26 LIG 0.27  HD
ENDBRANCH 30 31
ENDBRANCH 29 30
ENDBRANCH 28 29
ENDBRANCH 27 28
ENDBRANCH 12 27
ENDBRANCH 10 12
ENDBRANCH 7 8
BRANCH 7 35
ATOM     35  CB  ILE Z  42     -16.159  11.934  -4.669  1.00 30.84 LIG 0.01  C 
ATOM     36  CG2 ILE Z  42     -16.050  10.531  -4.081  1.00 35.03 LIG 0.01  C 
BRANCH 35 37
ATOM     37  CG1 ILE Z  42     -15.535  12.928  -3.692  1.00 30.67 LIG 0.00  C 
ATOM     38  CD1 ILE Z  42     -15.545  14.358  -4.197  1.00 26.38 LIG 0.01  C 
ENDBRANCH 35 37
ENDBRANCH 7 35
ENDBRANCH 5 7
ENDBRANCH 1 3
BRANCH 1 39
ATOM     39  N   ALA Z  41     -18.322  12.819  -8.864  1.00 17.22 LIG-0.35  N 
ATOM     40  C   ASN Z  40     -18.470  13.958  -8.190  1.00 21.77 LIG 0.24  C 
ATOM     41 O    ASN Z  40     -17.553  14.765  -8.025  1.00 19.61 LIG-0.27  OA
ATOM     42 H    ALA Z  41     -18.952  12.248  -8.988  1.00 17.22 LIG 0.16  HD
BRANCH 40 43
ATOM     43  CA  ASN Z  40     -19.853  14.239  -7.614  1.00 23.64 LIG 0.18  C 
BRANCH 43 44
ATOM     44  N   ASN Z  40     -20.465  13.092  -6.950  1.00 28.07 LIG-0.34  N 
ATOM     45 H    ASN Z  40     -21.214  12.836  -7.288  1.00 28.07 LIG 0.16  HD
ATOM     46  C   SER Z  39     -19.875  12.518  -5.908  1.00 29.35 LIG 0.24  C 
ATOM     47 O    SER Z  39     -18.844  12.960  -5.396  1.00 27.34 LIG-0.27  OA
BRANCH 46 48
ATOM     48  CA  SER Z  39     -20.537  11.269  -5.350  1.00 36.10 LIG 0.20  C 
BRANCH 48 49
ATOM     49  N   SER Z  39     -21.337  10.671  -6.410  1.00 45.98 LIG-0.34  N 
ATOM     50  C   ASN Z  38     -22.620  10.370  -6.231  1.00 57.47 LIG 0.24  C 
ATOM     51 O    ASN Z  38     -23.148  10.333  -5.118  1.00 60.64 LIG-0.27  OA
ATOM     52 H    SER Z  39     -20.910  10.535  -7.144  1.00 45.98 LIG 0.16  HD
BRANCH 50 53
ATOM     53  CA  ASN Z  38     -23.423  10.061  -7.504  1.00 65.29 LIG 0.18  C 
BRANCH 53 54
ATOM     54  N   ASN Z  38     -24.187   8.810  -7.517  1.00 70.64 LIG-0.35  N 
ATOM     55 H    ASN Z  38     -25.023   8.919  -7.689  1.00 70.64 LIG 0.16  HD
ATOM     56  C   ACE Z  37     -23.640   7.619  -7.287  1.00 74.22 LIG 0.21  C 
ATOM     57  CH3 ACE Z  37     -24.582   6.421  -7.375  1.00 75.88 LIG 0.12  C 
ATOM     58 O    ACE Z  37     -22.452   7.466  -7.010  1.00 75.32 LIG-0.27  OA
ENDBRANCH 53 54
BRANCH 53 59
ATOM     59  CB  ASN Z  38     -24.351  11.245  -7.811  1.00 65.91 LIG 0.12  C 
BRANCH 59 60
ATOM     60  CG  ASN Z  38     -23.753  12.222  -8.811  1.00 66.48 LIG 0.15  C 
ATOM     61 OD1  ASN Z  38     -22.844  13.064  -8.335  1.00 67.09 LIG-0.18  OA
ATOM     62  ND2 ASN Z  38     -24.105  12.223  -9.992  1.00 65.12 LIG-0.38  N 
ATOM     63 22HD ASN Z  38     -24.697  11.662 -10.266  1.00 65.12 LIG 0.16  HD
ATOM     64 21HD ASN Z  38     -23.758  12.785 -10.543  1.00 65.12 LIG 0.16  HD
ENDBRANCH 59 60
ENDBRANCH 53 59
ENDBRANCH 50 53
ENDBRANCH 48 49
BRANCH 48 65
ATOM     65  CB  SER Z  39     -19.470  10.303  -4.843  1.00 33.12 LIG 0.20  C 
BRANCH 65 66
ATOM     66 OG   SER Z  39     -19.573   9.049  -5.505  1.00 30.52 LIG-0.40  OA
ATOM     67 HG   SER Z  39     -20.379   8.813  -5.536  1.00 30.52 LIG 0.21  HD
ENDBRANCH 65 66
ENDBRANCH 48 65
ENDBRANCH 46 48
ENDBRANCH 43 44
BRANCH 43 68
ATOM     68  CB  ASN Z  40     -19.784  15.446  -6.676  1.00 19.94 LIG 0.14  C 
BRANCH 68 69
ATOM     69  CG  ASN Z  40     -20.888  16.451  -6.945  1.00 19.97 LIG 0.22  C 
ATOM     70 OD1  ASN Z  40     -21.780  16.204  -7.760  1.00 23.42 LIG-0.27  OA
ATOM     71  ND2 ASN Z  40     -20.829  17.595  -6.271  1.00 19.32 LIG-0.37  N 
ATOM     72 21HD ASN Z  40     -21.428  18.199  -6.396  1.00 19.32 LIG 0.16  HD
ATOM     73 22HD ASN Z  40     -20.191  17.731  -5.710  1.00 19.32 LIG 0.16  HD
ENDBRANCH 68 69
ENDBRANCH 43 68
ENDBRANCH 40 43
ENDBRANCH 1 39
TORSDOF 29
ENDMDL
MODEL 29
USER: ADFR SOLUTION from run 160
USER: SCORE 18.161800 LL:  -5.620 LR: -16.055 RR:   0.000 FEB:  -7.404
USER: RMSD 6.797253
USER: SEED 159
USER: STATUS no improvement in best in 4 clusters for 5 generations
USER: GENES 31
USER: genes 0 Translation |==|  0.59862 0.27780 0.49141
USER: genes 1 Rotation |==|  0.23409 0.83839 0.33201 0.69120
USER: genes 2 Torsion [N]-CA--C-[N] |==|  0.65156
USER: genes 3 Torsion [C]-N--CA-[C] |==|  0.11688
USER: genes 4 Torsion [N]-CA--C-[N] |==|  0.18856
USER: genes 5 Torsion [C]-N--CA-[C] |==|  0.17773
USER: genes 6 Torsion [N]-CA--C-[N] |==|  0.08646
USER: genes 7 Torsion [C]-N--CA-[CB] |==|  0.86381
USER: genes 8 Torsion [N]-CA--CB-[CG] |==|  0.34474
USER: genes 9 Torsion [CA]-CB--CG-[OD1] |==|  0.23397
USER: genes 10 Torsion [N]-CA--C-[N] |==|  0.90911
USER: genes 11 Torsion [N]-CA--CB-[CG] |==|  0.63820
USER: genes 12 Torsion [CA]-CB--CG-[CD] |==|  0.57684
USER: genes 13 Torsion [CB]-CG--CD-[CE] |==|  0.74286
USER: genes 14 Torsion [CG]-CD--CE-[NZ] |==|  0.02288
USER: genes 15 Torsion [CD]-CE--NZ-[HZ3] |==|  0.81429
USER: genes 16 Torsion [N]-CA--CB-[CG1] |==|  0.89532
USER: genes 17 Torsion [CA]-CB--CG1-[CD1] |==|  0.29977
USER: genes 18 Torsion [CB]-CA--N-[C] |==|  0.42575
USER: genes 19 Torsion [N]-C--CA-[N] |==|  0.49760
USER: genes 20 Torsion [C]-CA--N-[C] |==|  0.74625
USER: genes 21 Torsion [N]-C--CA-[N] |==|  0.52926
USER: genes 22 Torsion [C]-CA--N-[C] |==|  0.76028
USER: genes 23 Torsion [N]-C--CA-[N] |==|  0.22449
USER: genes 24 Torsion [C]-CA--N-[C] |==|  0.78889
USER: genes 25 Torsion [C]-CA--CB-[CG] |==|  0.40825
USER: genes 26 Torsion [CA]-CB--CG-[OD1] |==|  0.37438
USER: genes 27 Torsion [C]-CA--CB-[OG] |==|  0.66139
USER: genes 28 Torsion [CA]-CB--OG-[HG] |==|  0.86862
USER: genes 29 Torsion [C]-CA--CB-[CG] |==|  0.25300
USER: genes 30 Torsion [CA]-CB--CG-[OD1] |==|  0.81499
ROOT
ATOM      1  CA  ALA Z  41     -14.613   7.622  -5.542  1.00 21.22 LIG 0.17  C 
ATOM      2  CB  ALA Z  41     -13.839   7.300  -6.819  1.00 23.94 LIG 0.04  C 
ENDROOT
BRANCH 1 3
ATOM      3  C   ALA Z  41     -13.653   8.051  -4.433  1.00 23.72 LIG 0.24  C 
ATOM      4 O    ALA Z  41     -14.079   8.398  -3.332  1.00 25.98 LIG-0.27  OA
ATOM      5  N   ILE Z  42     -12.358   8.031  -4.728  1.00 25.83 LIG-0.35  N 
ATOM      6 H    ILE Z  42     -12.036   7.788  -5.488  1.00 25.83 LIG 0.16  HD
BRANCH 5 7
ATOM      7  CA  ILE Z  42     -11.362   8.435  -3.742  1.00 30.93 LIG 0.18  C 
BRANCH 7 8
ATOM      8  C   ILE Z  42     -11.676   7.893  -2.346  1.00 34.23 LIG 0.24  C 
ATOM      9 O    ILE Z  42     -11.991   8.658  -1.434  1.00 38.88 LIG-0.27  OA
ATOM     10  N   LYS Z  43     -11.581   6.577  -2.176  1.00 34.26 LIG-0.35  N 
ATOM     11 H    LYS Z  43     -11.293   6.028  -2.773  1.00 34.26 LIG 0.16  HD
BRANCH 10 12
ATOM     12  CA  LYS Z  43     -11.976   5.959  -0.912  1.00 43.39 LIG 0.18  C 
BRANCH 12 13
ATOM     13  C   LYS Z  43     -13.462   6.104  -0.582  1.00 55.57 LIG 0.24  C 
ATOM     14  N   ASN Z  44     -14.302   6.149  -1.613  1.00 60.92 LIG-0.34  N 
ATOM     15 H    ASN Z  44     -14.052   6.077  -2.432  1.00 60.92 LIG 0.16  HD
ATOM     16 O    LYS Z  43     -13.832   6.173   0.592  1.00 61.19 LIG-0.27  OA
BRANCH 14 17
ATOM     17  CA  ASN Z  44     -15.747   6.329  -1.443  1.00 70.44 LIG 0.19  C 
BRANCH 17 18
ATOM     18  CB  ASN Z  44     -16.313   5.363  -0.392  1.00 74.13 LIG 0.14  C 
BRANCH 18 19
ATOM     19  CG  ASN Z  44     -17.051   6.078   0.726  1.00 76.38 LIG 0.22  C 
ATOM     20  ND2 ASN Z  44     -16.355   6.330   1.830  1.00 76.67 LIG-0.37  N 
ATOM     21 21HD ASN Z  44     -16.728   6.733   2.492  1.00 76.67 LIG 0.16  HD
ATOM     22 22HD ASN Z  44     -15.531   6.092   1.883  1.00 76.67 LIG 0.16  HD
ATOM     23 OD1  ASN Z  44     -18.234   6.398   0.598  1.00 76.30 LIG-0.27  OA
ENDBRANCH 18 19
ENDBRANCH 17 18
BRANCH 17 24
ATOM     24  C   ASN Z  44     -16.131   7.770  -1.095  1.00 74.17 LIG 0.28  C 
ATOM     25 O    ASN Z  44     -17.197   8.252  -1.483  1.00 72.97 LIG-0.27  OA
ATOM     26  N   NH2 Z  45     -15.255   8.450  -0.363  1.00 76.38 LIG-0.11  N 
ENDBRANCH 17 24
ENDBRANCH 14 17
ENDBRANCH 12 13
BRANCH 12 27
ATOM     27  CB  LYS Z  43     -11.107   6.465   0.245  1.00 40.99 LIG 0.04  C 
BRANCH 27 28
ATOM     28  CG  LYS Z  43     -10.530   5.345   1.104  1.00 39.01 LIG 0.00  C 
BRANCH 28 29
ATOM     29  CD  LYS Z  43     -10.274   5.796   2.537  1.00 38.38 LIG 0.03  C 
BRANCH 29 30
ATOM     30  CE  LYS Z  43      -8.843   6.298   2.701  1.00 38.40 LIG 0.23  C 
BRANCH 30 31
ATOM     31  NZ  LYS Z  43      -8.112   6.413   1.401  1.00 35.26 LIG-0.08  N 
ATOM     32 HZ3  LYS Z  43      -7.988   5.601   1.058  1.00 35.26 LIG 0.27  HD
ATOM     33 HZ2  LYS Z  43      -7.322   6.801   1.537  1.00 35.26 LIG 0.27  HD
ATOM     34 HZ1  LYS Z  43      -8.590   6.905   0.834  1.00 35.26 LIG 0.27  HD
ENDBRANCH 30 31
ENDBRANCH 29 30
ENDBRANCH 28 29
ENDBRANCH 27 28
ENDBRANCH 12 27
ENDBRANCH 10 12
ENDBRANCH 7 8
BRANCH 7 35
ATOM     35  CB  ILE Z  42     -11.211   9.966  -3.668  1.00 30.84 LIG 0.01  C 
ATOM     36  CG2 ILE Z  42      -9.857  10.339  -3.072  1.00 35.03 LIG 0.01  C 
BRANCH 35 37
ATOM     37  CG1 ILE Z  42     -11.325  10.583  -5.060  1.00 30.67 LIG 0.00  C 
ATOM     38  CD1 ILE Z  42     -12.621  11.339  -5.281  1.00 26.38 LIG 0.01  C 
ENDBRANCH 35 37
ENDBRANCH 7 35
ENDBRANCH 5 7
ENDBRANCH 1 3
BRANCH 1 39
ATOM     39  N   ALA Z  41     -15.622   8.648  -5.795  1.00 17.22 LIG-0.35  N 
ATOM     40  C   ASN Z  40     -16.728   8.734  -5.059  1.00 21.77 LIG 0.24  C 
ATOM     41 O    ASN Z  40     -16.975   7.968  -4.126  1.00 19.61 LIG-0.27  OA
ATOM     42 H    ALA Z  41     -15.437   9.176  -6.448  1.00 17.22 LIG 0.16  HD
BRANCH 40 43
ATOM     43  CA  ASN Z  40     -17.706   9.847  -5.417  1.00 23.64 LIG 0.18  C 
BRANCH 43 44
ATOM     44  N   ASN Z  40     -18.906   9.874  -4.585  1.00 28.07 LIG-0.34  N 
ATOM     45 H    ASN Z  40     -18.839  10.343  -3.867  1.00 28.07 LIG 0.16  HD
ATOM     46  C   SER Z  39     -19.996   9.209  -4.950  1.00 29.35 LIG 0.24  C 
ATOM     47 O    SER Z  39     -20.034   8.478  -5.942  1.00 27.34 LIG-0.27  OA
BRANCH 46 48
ATOM     48  CA  SER Z  39     -21.227   9.381  -4.073  1.00 36.10 LIG 0.20  C 
BRANCH 48 49
ATOM     49  N   SER Z  39     -22.216   8.394  -4.486  1.00 45.98 LIG-0.34  N 
ATOM     50  C   ASN Z  38     -23.069   8.634  -5.477  1.00 57.47 LIG 0.24  C 
ATOM     51 O    ASN Z  38     -23.259   9.763  -5.936  1.00 60.64 LIG-0.27  OA
ATOM     52 H    SER Z  39     -22.194   7.660  -4.039  1.00 45.98 LIG 0.16  HD
BRANCH 50 53
ATOM     53  CA  ASN Z  38     -23.822   7.414  -6.028  1.00 65.29 LIG 0.18  C 
BRANCH 53 54
ATOM     54  N   ASN Z  38     -24.992   6.960  -5.269  1.00 70.64 LIG-0.35  N 
ATOM     55 H    ASN Z  38     -25.742   7.176  -5.630  1.00 70.64 LIG 0.16  HD
ATOM     56  C   ACE Z  37     -24.902   6.278  -4.130  1.00 74.22 LIG 0.21  C 
ATOM     57  CH3 ACE Z  37     -26.225   5.857  -3.495  1.00 75.88 LIG 0.12  C 
ATOM     58 O    ACE Z  37     -23.830   5.996  -3.597  1.00 75.32 LIG-0.27  OA
ENDBRANCH 53 54
BRANCH 53 59
ATOM     59  CB  ASN Z  38     -24.218   7.685  -7.487  1.00 65.91 LIG 0.12  C 
BRANCH 59 60
ATOM     60  CG  ASN Z  38     -24.215   6.429  -8.344  1.00 66.48 LIG 0.15  C 
ATOM     61 OD1  ASN Z  38     -25.261   6.265  -9.145  1.00 67.09 LIG-0.18  OA
ATOM     62  ND2 ASN Z  38     -23.290   5.617  -8.286  1.00 65.12 LIG-0.38  N 
ATOM     63 22HD ASN Z  38     -22.627   5.757  -7.755  1.00 65.12 LIG 0.16  HD
ATOM     64 21HD ASN Z  38     -23.306   4.911  -8.776  1.00 65.12 LIG 0.16  HD
ENDBRANCH 59 60
ENDBRANCH 53 59
ENDBRANCH 50 53
ENDBRANCH 48 49
BRANCH 48 65
ATOM     65  CB  SER Z  39     -20.843   9.206  -2.607  1.00 33.12 LIG 0.20  C 
BRANCH 65 66
ATOM     66 OG   SER Z  39     -21.594   8.155  -2.013  1.00 30.52 LIG-0.40  OA
ATOM     67 HG   SER Z  39     -22.405   8.244  -2.209  1.00 30.52 LIG 0.21  HD
ENDBRANCH 65 66
ENDBRANCH 48 65
ENDBRANCH 46 48
ENDBRANCH 43 44
BRANCH 43 68
ATOM     68  CB  ASN Z  40     -16.984  11.195  -5.387  1.00 19.94 LIG 0.14  C 
BRANCH 68 69
ATOM     69  CG  ASN Z  40     -16.404  11.571  -6.737  1.00 19.97 LIG 0.22  C 
ATOM     70 OD1  ASN Z  40     -15.480  10.919  -7.229  1.00 23.42 LIG-0.27  OA
ATOM     71  ND2 ASN Z  40     -16.932  12.632  -7.337  1.00 19.32 LIG-0.37  N 
ATOM     72 21HD ASN Z  40     -16.630  12.889  -8.101  1.00 19.32 LIG 0.16  HD
ATOM     73 22HD ASN Z  40     -17.575  13.063  -6.962  1.00 19.32 LIG 0.16  HD
ENDBRANCH 68 69
ENDBRANCH 43 68
ENDBRANCH 40 43
ENDBRANCH 1 39
TORSDOF 29
ENDMDL
MODEL 30
USER: ADFR SOLUTION from run 19
USER: SCORE 17.650981 LL:  -4.969 LR: -16.043 RR:   0.000 FEB:  -7.393
USER: RMSD 12.360871
USER: SEED 18
USER: STATUS no improvement in best in 4 clusters for 5 generations
USER: GENES 31
USER: genes 0 Translation |==|  0.56267 0.53211 0.39325
USER: genes 1 Rotation |==|  0.84615 0.40711 0.15769 0.56611
USER: genes 2 Torsion [N]-CA--C-[N] |==|  0.09138
USER: genes 3 Torsion [C]-N--CA-[C] |==|  0.58427
USER: genes 4 Torsion [N]-CA--C-[N] |==|  0.99452
USER: genes 5 Torsion [C]-N--CA-[C] |==|  0.86034
USER: genes 6 Torsion [N]-CA--C-[N] |==|  0.84792
USER: genes 7 Torsion [C]-N--CA-[CB] |==|  0.36205
USER: genes 8 Torsion [N]-CA--CB-[CG] |==|  0.34283
USER: genes 9 Torsion [CA]-CB--CG-[OD1] |==|  0.23139
USER: genes 10 Torsion [N]-CA--C-[N] |==|  0.38687
USER: genes 11 Torsion [N]-CA--CB-[CG] |==|  0.41310
USER: genes 12 Torsion [CA]-CB--CG-[CD] |==|  0.25068
USER: genes 13 Torsion [CB]-CG--CD-[CE] |==|  0.63021
USER: genes 14 Torsion [CG]-CD--CE-[NZ] |==|  0.87663
USER: genes 15 Torsion [CD]-CE--NZ-[HZ3] |==|  0.65755
USER: genes 16 Torsion [N]-CA--CB-[CG1] |==|  0.56665
USER: genes 17 Torsion [CA]-CB--CG1-[CD1] |==|  0.18211
USER: genes 18 Torsion [CB]-CA--N-[C] |==|  0.15051
USER: genes 19 Torsion [N]-C--CA-[N] |==|  0.45967
USER: genes 20 Torsion [C]-CA--N-[C] |==|  0.73727
USER: genes 21 Torsion [N]-C--CA-[N] |==|  0.29453
USER: genes 22 Torsion [C]-CA--N-[C] |==|  0.77700
USER: genes 23 Torsion [N]-C--CA-[N] |==|  0.36928
USER: genes 24 Torsion [C]-CA--N-[C] |==|  0.73761
USER: genes 25 Torsion [C]-CA--CB-[CG] |==|  0.90944
USER: genes 26 Torsion [CA]-CB--CG-[OD1] |==|  0.28211
USER: genes 27 Torsion [C]-CA--CB-[OG] |==|  0.61525
USER: genes 28 Torsion [CA]-CB--OG-[HG] |==|  0.87360
USER: genes 29 Torsion [C]-CA--CB-[CG] |==|  0.73348
USER: genes 30 Torsion [CA]-CB--CG-[OD1] |==|  0.19319
ROOT
ATOM      1  CA  ALA Z  41     -15.476  13.534  -7.751  1.00 21.22 LIG 0.17  C 
ATOM      2  CB  ALA Z  41     -16.834  12.845  -7.860  1.00 23.94 LIG 0.04  C 
ENDROOT
BRANCH 1 3
ATOM      3  C   ALA Z  41     -15.656  15.050  -7.673  1.00 23.72 LIG 0.24  C 
ATOM      4 O    ALA Z  41     -16.666  15.588  -8.126  1.00 25.98 LIG-0.27  OA
ATOM      5  N   ILE Z  42     -14.672  15.736  -7.101  1.00 25.83 LIG-0.35  N 
ATOM      6 H    ILE Z  42     -13.960  15.383  -6.772  1.00 25.83 LIG 0.16  HD
BRANCH 5 7
ATOM      7  CA  ILE Z  42     -14.743  17.189  -6.990  1.00 30.93 LIG 0.18  C 
BRANCH 7 8
ATOM      8  C   ILE Z  42     -13.359  17.841  -7.023  1.00 34.23 LIG 0.24  C 
ATOM      9 O    ILE Z  42     -13.244  19.066  -6.985  1.00 38.88 LIG-0.27  OA
ATOM     10  N   LYS Z  43     -12.311  17.025  -7.104  1.00 34.26 LIG-0.35  N 
ATOM     11 H    LYS Z  43     -12.364  16.173  -7.205  1.00 34.26 LIG 0.16  HD
BRANCH 10 12
ATOM     12  CA  LYS Z  43     -10.950  17.551  -7.020  1.00 43.39 LIG 0.18  C 
BRANCH 12 13
ATOM     13  C   LYS Z  43     -10.675  18.728  -7.958  1.00 55.57 LIG 0.24  C 
ATOM     14  N   ASN Z  44     -10.931  18.536  -9.250  1.00 60.92 LIG-0.34  N 
ATOM     15 H    ASN Z  44     -11.259  17.807  -9.565  1.00 60.92 LIG 0.16  HD
ATOM     16 O    LYS Z  43     -10.239  19.789  -7.507  1.00 61.19 LIG-0.27  OA
BRANCH 14 17
ATOM     17  CA  ASN Z  44     -10.674  19.564 -10.264  1.00 70.44 LIG 0.19  C 
BRANCH 17 18
ATOM     18  CB  ASN Z  44      -9.883  18.994 -11.450  1.00 74.13 LIG 0.14  C 
BRANCH 18 19
ATOM     19  CG  ASN Z  44     -10.593  19.191 -12.778  1.00 76.38 LIG 0.22  C 
ATOM     20  ND2 ASN Z  44     -11.309  18.164 -13.226  1.00 76.67 LIG-0.37  N 
ATOM     21 21HD ASN Z  44     -11.730  18.226 -13.973  1.00 76.67 LIG 0.16  HD
ATOM     22 22HD ASN Z  44     -11.353  17.438 -12.768  1.00 76.67 LIG 0.16  HD
ATOM     23 OD1  ASN Z  44     -10.498  20.254 -13.394  1.00 76.30 LIG-0.27  OA
ENDBRANCH 18 19
ENDBRANCH 17 18
BRANCH 17 24
ATOM     24  C   ASN Z  44     -11.953  20.243 -10.761  1.00 74.17 LIG 0.28  C 
ATOM     25 O    ASN Z  44     -12.975  19.589 -10.973  1.00 72.97 LIG-0.27  OA
ATOM     26  N   NH2 Z  45     -11.884  21.558 -10.946  1.00 76.38 LIG-0.11  N 
ENDBRANCH 17 24
ENDBRANCH 14 17
ENDBRANCH 12 13
BRANCH 12 27
ATOM     27  CB  LYS Z  43      -9.916  16.438  -7.222  1.00 40.99 LIG 0.04  C 
BRANCH 27 28
ATOM     28  CG  LYS Z  43      -8.629  16.919  -7.884  1.00 39.01 LIG 0.00  C 
BRANCH 28 29
ATOM     29  CD  LYS Z  43      -7.594  17.374  -6.863  1.00 38.38 LIG 0.03  C 
BRANCH 29 30
ATOM     30  CE  LYS Z  43      -6.989  18.717  -7.263  1.00 38.40 LIG 0.23  C 
BRANCH 30 31
ATOM     31  NZ  LYS Z  43      -6.636  18.788  -8.714  1.00 35.26 LIG-0.08  N 
ATOM     32 HZ3  LYS Z  43      -5.772  18.987  -8.800  1.00 35.26 LIG 0.27  HD
ATOM     33 HZ2  LYS Z  43      -7.125  19.418  -9.109  1.00 35.26 LIG 0.27  HD
ATOM     34 HZ1  LYS Z  43      -6.798  18.002  -9.099  1.00 35.26 LIG 0.27  HD
ENDBRANCH 30 31
ENDBRANCH 29 30
ENDBRANCH 28 29
ENDBRANCH 27 28
ENDBRANCH 12 27
ENDBRANCH 10 12
ENDBRANCH 7 8
BRANCH 7 35
ATOM     35  CB  ILE Z  42     -15.482  17.636  -5.716  1.00 30.84 LIG 0.01  C 
ATOM     36  CG2 ILE Z  42     -14.533  17.640  -4.523  1.00 35.03 LIG 0.01  C 
BRANCH 35 37
ATOM     37  CG1 ILE Z  42     -16.057  19.039  -5.895  1.00 30.67 LIG 0.00  C 
ATOM     38  CD1 ILE Z  42     -17.145  19.117  -6.949  1.00 26.38 LIG 0.01  C 
ENDBRANCH 35 37
ENDBRANCH 7 35
ENDBRANCH 5 7
ENDBRANCH 1 3
BRANCH 1 39
ATOM     39  N   ALA Z  41     -14.732  13.030  -6.599  1.00 17.22 LIG-0.35  N 
ATOM     40  C   ASN Z  40     -14.506  11.729  -6.432  1.00 21.77 LIG 0.24  C 
ATOM     41 O    ASN Z  40     -14.900  10.871  -7.224  1.00 19.61 LIG-0.27  OA
ATOM     42 H    ALA Z  41     -14.461  13.639  -6.055  1.00 17.22 LIG 0.16  HD
BRANCH 40 43
ATOM     43  CA  ASN Z  40     -13.716  11.323  -5.193  1.00 23.64 LIG 0.18  C 
BRANCH 43 44
ATOM     44  N   ASN Z  40     -13.785   9.898  -4.884  1.00 28.07 LIG-0.34  N 
ATOM     45 H    ASN Z  40     -13.211   9.409  -5.298  1.00 28.07 LIG 0.16  HD
ATOM     46  C   SER Z  39     -14.683   9.435  -4.021  1.00 29.35 LIG 0.24  C 
ATOM     47 O    SER Z  39     -15.547  10.149  -3.508  1.00 27.34 LIG-0.27  OA
BRANCH 46 48
ATOM     48  CA  SER Z  39     -14.610   7.953  -3.688  1.00 36.10 LIG 0.20  C 
BRANCH 48 49
ATOM     49  N   SER Z  39     -14.058   7.821  -2.346  1.00 45.98 LIG-0.34  N 
ATOM     50  C   ASN Z  38     -12.751   7.901  -2.119  1.00 57.47 LIG 0.24  C 
ATOM     51 O    ASN Z  38     -11.911   7.838  -3.019  1.00 60.64 LIG-0.27  OA
ATOM     52 H    SER Z  39     -14.646   7.688  -1.731  1.00 45.98 LIG 0.16  HD
BRANCH 50 53
ATOM     53  CA  ASN Z  38     -12.332   8.076  -0.651  1.00 65.29 LIG 0.18  C 
BRANCH 53 54
ATOM     54  N   ASN Z  38     -11.255   7.212  -0.162  1.00 70.64 LIG-0.35  N 
ATOM     55 H    ASN Z  38     -10.467   7.521  -0.318  1.00 70.64 LIG 0.16  HD
ATOM     56  C   ACE Z  37     -11.473   6.058   0.464  1.00 74.22 LIG 0.21  C 
ATOM     57  CH3 ACE Z  37     -10.230   5.305   0.934  1.00 75.88 LIG 0.12  C 
ATOM     58 O    ACE Z  37     -12.597   5.599   0.659  1.00 75.32 LIG-0.27  OA
ENDBRANCH 53 54
BRANCH 53 59
ATOM     59  CB  ASN Z  38     -11.975   9.549  -0.404  1.00 65.91 LIG 0.12  C 
BRANCH 59 60
ATOM     60  CG  ASN Z  38     -11.366  10.224  -1.623  1.00 66.48 LIG 0.15  C 
ATOM     61 OD1  ASN Z  38     -12.178  11.005  -2.325  1.00 67.09 LIG-0.18  OA
ATOM     62  ND2 ASN Z  38     -10.187  10.043  -1.932  1.00 65.12 LIG-0.38  N 
ATOM     63 22HD ASN Z  38      -9.690   9.530  -1.452  1.00 65.12 LIG 0.16  HD
ATOM     64 21HD ASN Z  38      -9.860  10.431  -2.626  1.00 65.12 LIG 0.16  HD
ENDBRANCH 59 60
ENDBRANCH 53 59
ENDBRANCH 50 53
ENDBRANCH 48 49
BRANCH 48 65
ATOM     65  CB  SER Z  39     -16.002   7.335  -3.783  1.00 33.12 LIG 0.20  C 
BRANCH 65 66
ATOM     66 OG   SER Z  39     -16.223   6.429  -2.709  1.00 30.52 LIG-0.40  OA
ATOM     67 HG   SER Z  39     -15.550   5.936  -2.615  1.00 30.52 LIG 0.21  HD
ENDBRANCH 65 66
ENDBRANCH 48 65
ENDBRANCH 46 48
ENDBRANCH 43 44
BRANCH 43 68
ATOM     68  CB  ASN Z  40     -12.265  11.788  -5.333  1.00 19.94 LIG 0.14  C 
BRANCH 68 69
ATOM     69  CG  ASN Z  40     -11.357  10.694  -5.862  1.00 19.97 LIG 0.22  C 
ATOM     70 OD1  ASN Z  40     -11.453  10.305  -7.028  1.00 23.42 LIG-0.27  OA
ATOM     71  ND2 ASN Z  40     -10.478  10.184  -5.006  1.00 19.32 LIG-0.37  N 
ATOM     72 21HD ASN Z  40      -9.947   9.556  -5.258  1.00 19.32 LIG 0.16  HD
ATOM     73 22HD ASN Z  40     -10.440  10.481  -4.200  1.00 19.32 LIG 0.16  HD
ENDBRANCH 68 69
ENDBRANCH 43 68
ENDBRANCH 40 43
ENDBRANCH 1 39
TORSDOF 29
ENDMDL
MODEL 31
USER: ADFR SOLUTION from run 128
USER: SCORE 18.695490 LL:  -4.773 LR: -16.006 RR:   0.000 FEB:  -7.355
USER: RMSD 2.615407
USER: SEED 127
USER: STATUS no improvement in best in 4 clusters for 5 generations
USER: GENES 31
USER: genes 0 Translation |==|  0.57111 0.45453 0.47218
USER: genes 1 Rotation |==|  0.52830 0.43321 0.54893 0.99228
USER: genes 2 Torsion [N]-CA--C-[N] |==|  0.35556
USER: genes 3 Torsion [C]-N--CA-[C] |==|  0.80535
USER: genes 4 Torsion [N]-CA--C-[N] |==|  0.88442
USER: genes 5 Torsion [C]-N--CA-[C] |==|  0.81373
USER: genes 6 Torsion [N]-CA--C-[N] |==|  0.42339
USER: genes 7 Torsion [C]-N--CA-[CB] |==|  0.48894
USER: genes 8 Torsion [N]-CA--CB-[CG] |==|  0.59289
USER: genes 9 Torsion [CA]-CB--CG-[OD1] |==|  0.80755
USER: genes 10 Torsion [N]-CA--C-[N] |==|  0.87310
USER: genes 11 Torsion [N]-CA--CB-[CG] |==|  0.90468
USER: genes 12 Torsion [CA]-CB--CG-[CD] |==|  0.72496
USER: genes 13 Torsion [CB]-CG--CD-[CE] |==|  0.80017
USER: genes 14 Torsion [CG]-CD--CE-[NZ] |==|  0.55817
USER: genes 15 Torsion [CD]-CE--NZ-[HZ3] |==|  0.74743
USER: genes 16 Torsion [N]-CA--CB-[CG1] |==|  0.69267
USER: genes 17 Torsion [CA]-CB--CG1-[CD1] |==|  0.56831
USER: genes 18 Torsion [CB]-CA--N-[C] |==|  0.50268
USER: genes 19 Torsion [N]-C--CA-[N] |==|  0.97009
USER: genes 20 Torsion [C]-CA--N-[C] |==|  0.75780
USER: genes 21 Torsion [N]-C--CA-[N] |==|  0.40343
USER: genes 22 Torsion [C]-CA--N-[C] |==|  0.77458
USER: genes 23 Torsion [N]-C--CA-[N] |==|  0.97727
USER: genes 24 Torsion [C]-CA--N-[C] |==|  0.77914
USER: genes 25 Torsion [C]-CA--CB-[CG] |==|  0.86157
USER: genes 26 Torsion [CA]-CB--CG-[OD1] |==|  0.87397
USER: genes 27 Torsion [C]-CA--CB-[OG] |==|  0.67104
USER: genes 28 Torsion [CA]-CB--OG-[HG] |==|  0.85563
USER: genes 29 Torsion [C]-CA--CB-[CG] |==|  0.24979
USER: genes 30 Torsion [CA]-CB--CG-[OD1] |==|  0.15748
ROOT
ATOM      1  CA  ALA Z  41     -15.273  11.731  -5.975  1.00 21.22 LIG 0.17  C 
ATOM      2  CB  ALA Z  41     -15.356  12.280  -4.552  1.00 23.94 LIG 0.04  C 
ENDROOT
BRANCH 1 3
ATOM      3  C   ALA Z  41     -15.766  10.285  -6.015  1.00 23.72 LIG 0.24  C 
ATOM      4 O    ALA Z  41     -16.960  10.022  -5.871  1.00 25.98 LIG-0.27  OA
ATOM      5  N   ILE Z  42     -14.843   9.348  -6.205  1.00 25.83 LIG-0.35  N 
ATOM      6 H    ILE Z  42     -14.005   9.506  -6.313  1.00 25.83 LIG 0.16  HD
BRANCH 5 7
ATOM      7  CA  ILE Z  42     -15.210   7.937  -6.246  1.00 30.93 LIG 0.18  C 
BRANCH 7 8
ATOM      8  C   ILE Z  42     -15.633   7.409  -4.873  1.00 34.23 LIG 0.24  C 
ATOM      9 O    ILE Z  42     -16.605   6.660  -4.764  1.00 38.88 LIG-0.27  OA
ATOM     10  N   LYS Z  43     -14.912   7.804  -3.828  1.00 34.26 LIG-0.35  N 
ATOM     11 H    LYS Z  43     -14.276   8.382  -3.865  1.00 34.26 LIG 0.16  HD
BRANCH 10 12
ATOM     12  CA  LYS Z  43     -15.168   7.257  -2.497  1.00 43.39 LIG 0.18  C 
BRANCH 12 13
ATOM     13  C   LYS Z  43     -16.520   7.657  -1.905  1.00 55.57 LIG 0.24  C 
ATOM     14  N   ASN Z  44     -17.065   6.813  -1.032  1.00 60.92 LIG-0.34  N 
ATOM     15 H    ASN Z  44     -16.686   6.085  -0.776  1.00 60.92 LIG 0.16  HD
ATOM     16 O    LYS Z  43     -17.053   8.717  -2.241  1.00 61.19 LIG-0.27  OA
BRANCH 14 17
ATOM     17  CA  ASN Z  44     -18.376   7.050  -0.421  1.00 70.44 LIG 0.19  C 
BRANCH 17 18
ATOM     18  CB  ASN Z  44     -18.801   5.873   0.468  1.00 74.13 LIG 0.14  C 
BRANCH 18 19
ATOM     19  CG  ASN Z  44     -20.302   5.643   0.461  1.00 76.38 LIG 0.22  C 
ATOM     20  ND2 ASN Z  44     -20.730   4.538  -0.142  1.00 76.67 LIG-0.37  N 
ATOM     21 21HD ASN Z  44     -21.571   4.362  -0.173  1.00 76.67 LIG 0.16  HD
ATOM     22 22HD ASN Z  44     -20.166   3.997  -0.500  1.00 76.67 LIG 0.16  HD
ATOM     23 OD1  ASN Z  44     -21.068   6.450   0.990  1.00 76.30 LIG-0.27  OA
ENDBRANCH 18 19
ENDBRANCH 17 18
BRANCH 17 24
ATOM     24  C   ASN Z  44     -18.436   8.358   0.372  1.00 74.17 LIG 0.28  C 
ATOM     25 O    ASN Z  44     -19.388   9.131   0.248  1.00 72.97 LIG-0.27  OA
ATOM     26  N   NH2 Z  45     -17.411   8.599   1.184  1.00 76.38 LIG-0.11  N 
ENDBRANCH 17 24
ENDBRANCH 14 17
ENDBRANCH 12 13
BRANCH 12 27
ATOM     27  CB  LYS Z  43     -14.026   7.597  -1.532  1.00 40.99 LIG 0.04  C 
BRANCH 27 28
ATOM     28  CG  LYS Z  43     -12.657   7.628  -2.202  1.00 39.01 LIG 0.00  C 
BRANCH 28 29
ATOM     29  CD  LYS Z  43     -11.880   6.336  -1.981  1.00 38.38 LIG 0.03  C 
BRANCH 29 30
ATOM     30  CE  LYS Z  43     -11.400   6.232  -0.536  1.00 38.40 LIG 0.23  C 
BRANCH 30 31
ATOM     31  NZ  LYS Z  43     -10.252   5.288  -0.370  1.00 35.26 LIG-0.08  N 
ATOM     32 HZ3  LYS Z  43     -10.561   4.473  -0.190  1.00 35.26 LIG 0.27  HD
ATOM     33 HZ2  LYS Z  43      -9.735   5.563   0.301  1.00 35.26 LIG 0.27  HD
ATOM     34 HZ1  LYS Z  43      -9.775   5.265  -1.121  1.00 35.26 LIG 0.27  HD
ENDBRANCH 30 31
ENDBRANCH 29 30
ENDBRANCH 28 29
ENDBRANCH 27 28
ENDBRANCH 12 27
ENDBRANCH 10 12
ENDBRANCH 7 8
BRANCH 7 35
ATOM     35  CB  ILE Z  42     -14.072   7.059  -6.797  1.00 30.84 LIG 0.01  C 
ATOM     36  CG2 ILE Z  42     -13.792   5.894  -5.853  1.00 35.03 LIG 0.01  C 
BRANCH 35 37
ATOM     37  CG1 ILE Z  42     -14.441   6.503  -8.170  1.00 30.67 LIG 0.00  C 
ATOM     38  CD1 ILE Z  42     -13.710   5.221  -8.520  1.00 26.38 LIG 0.01  C 
ENDBRANCH 35 37
ENDBRANCH 7 35
ENDBRANCH 5 7
ENDBRANCH 1 3
BRANCH 1 39
ATOM     39  N   ALA Z  41     -16.030  12.573  -6.899  1.00 17.22 LIG-0.35  N 
ATOM     40  C   ASN Z  40     -16.118  12.280  -8.195  1.00 21.77 LIG 0.24  C 
ATOM     41 O    ASN Z  40     -15.579  11.293  -8.698  1.00 19.61 LIG-0.27  OA
ATOM     42 H    ALA Z  41     -16.402  13.256  -6.534  1.00 17.22 LIG 0.16  HD
BRANCH 40 43
ATOM     43  CA  ASN Z  40     -16.937  13.232  -9.059  1.00 23.64 LIG 0.18  C 
BRANCH 43 44
ATOM     44  N   ASN Z  40     -17.718  14.203  -8.298  1.00 28.07 LIG-0.34  N 
ATOM     45 H    ASN Z  40     -17.325  14.956  -8.162  1.00 28.07 LIG 0.16  HD
ATOM     46  C   SER Z  39     -18.938  13.903  -7.869  1.00 29.35 LIG 0.24  C 
ATOM     47 O    SER Z  39     -19.440  12.785  -8.008  1.00 27.34 LIG-0.27  OA
BRANCH 46 48
ATOM     48  CA  SER Z  39     -19.711  15.013  -7.175  1.00 36.10 LIG 0.20  C 
BRANCH 48 49
ATOM     49  N   SER Z  39     -21.120  14.860  -7.515  1.00 45.98 LIG-0.34  N 
ATOM     50  C   ASN Z  38     -21.612  15.306  -8.667  1.00 57.47 LIG 0.24  C 
ATOM     51 O    ASN Z  38     -20.997  16.084  -9.399  1.00 60.64 LIG-0.27  OA
ATOM     52 H    SER Z  39     -21.590  14.464  -6.913  1.00 45.98 LIG 0.16  HD
BRANCH 50 53
ATOM     53  CA  ASN Z  38     -23.012  14.798  -9.043  1.00 65.29 LIG 0.18  C 
BRANCH 53 54
ATOM     54  N   ASN Z  38     -23.582  13.742  -8.201  1.00 70.64 LIG-0.35  N 
ATOM     55 H    ASN Z  38     -24.153  14.030  -7.626  1.00 70.64 LIG 0.16  HD
ATOM     56  C   ACE Z  37     -23.248  12.459  -8.315  1.00 74.22 LIG 0.21  C 
ATOM     57  CH3 ACE Z  37     -23.969  11.493  -7.377  1.00 75.88 LIG 0.12  C 
ATOM     58 O    ACE Z  37     -22.408  12.049  -9.116  1.00 75.32 LIG-0.27  OA
ENDBRANCH 53 54
BRANCH 53 59
ATOM     59  CB  ASN Z  38     -23.977  15.990  -9.113  1.00 65.91 LIG 0.12  C 
BRANCH 59 60
ATOM     60  CG  ASN Z  38     -23.906  16.881  -7.883  1.00 66.48 LIG 0.15  C 
ATOM     61 OD1  ASN Z  38     -23.895  16.259  -6.710  1.00 67.09 LIG-0.18  OA
ATOM     62  ND2 ASN Z  38     -23.867  18.109  -7.983  1.00 65.12 LIG-0.38  N 
ATOM     63 22HD ASN Z  38     -23.876  18.477  -8.760  1.00 65.12 LIG 0.16  HD
ATOM     64 21HD ASN Z  38     -23.830  18.597  -7.276  1.00 65.12 LIG 0.16  HD
ENDBRANCH 59 60
ENDBRANCH 53 59
ENDBRANCH 50 53
ENDBRANCH 48 49
BRANCH 48 65
ATOM     65  CB  SER Z  39     -19.488  14.932  -5.668  1.00 33.12 LIG 0.20  C 
BRANCH 65 66
ATOM     66 OG   SER Z  39     -20.717  14.701  -4.990  1.00 30.52 LIG-0.40  OA
ATOM     67 HG   SER Z  39     -21.285  15.269  -5.238  1.00 30.52 LIG 0.21  HD
ENDBRANCH 65 66
ENDBRANCH 48 65
ENDBRANCH 46 48
ENDBRANCH 43 44
BRANCH 43 68
ATOM     68  CB  ASN Z  40     -16.020  13.929 -10.066  1.00 19.94 LIG 0.14  C 
BRANCH 68 69
ATOM     69  CG  ASN Z  40     -15.899  13.160 -11.367  1.00 19.97 LIG 0.22  C 
ATOM     70 OD1  ASN Z  40     -16.902  12.874 -12.026  1.00 23.42 LIG-0.27  OA
ATOM     71  ND2 ASN Z  40     -14.673  12.809 -11.740  1.00 19.32 LIG-0.37  N 
ATOM     72 21HD ASN Z  40     -14.555  12.364 -12.467  1.00 19.32 LIG 0.16  HD
ATOM     73 22HD ASN Z  40     -13.997  13.026 -11.255  1.00 19.32 LIG 0.16  HD
ENDBRANCH 68 69
ENDBRANCH 43 68
ENDBRANCH 40 43
ENDBRANCH 1 39
TORSDOF 29
ENDMDL
MODEL 32
USER: ADFR SOLUTION from run 120
USER: SCORE 18.497833 LL:  -5.014 LR: -15.996 RR:   0.000 FEB:  -7.346
USER: RMSD 12.117741
USER: SEED 119
USER: STATUS searching
USER: GENES 31
USER: genes 0 Translation |==|  0.57343 0.55561 0.40754
USER: genes 1 Rotation |==|  0.14921 0.64262 0.81410 0.58915
USER: genes 2 Torsion [N]-CA--C-[N] |==|  0.63190
USER: genes 3 Torsion [C]-N--CA-[C] |==|  0.21006
USER: genes 4 Torsion [N]-CA--C-[N] |==|  0.03963
USER: genes 5 Torsion [C]-N--CA-[C] |==|  0.19034
USER: genes 6 Torsion [N]-CA--C-[N] |==|  0.97240
USER: genes 7 Torsion [C]-N--CA-[CB] |==|  0.15543
USER: genes 8 Torsion [N]-CA--CB-[CG] |==|  0.66470
USER: genes 9 Torsion [CA]-CB--CG-[OD1] |==|  0.87557
USER: genes 10 Torsion [N]-CA--C-[N] |==|  0.14349
USER: genes 11 Torsion [N]-CA--CB-[CG] |==|  0.56933
USER: genes 12 Torsion [CA]-CB--CG-[CD] |==|  0.04314
USER: genes 13 Torsion [CB]-CG--CD-[CE] |==|  0.50320
USER: genes 14 Torsion [CG]-CD--CE-[NZ] |==|  0.49879
USER: genes 15 Torsion [CD]-CE--NZ-[HZ3] |==|  0.00628
USER: genes 16 Torsion [N]-CA--CB-[CG1] |==|  0.88142
USER: genes 17 Torsion [CA]-CB--CG1-[CD1] |==|  0.40454
USER: genes 18 Torsion [CB]-CA--N-[C] |==|  0.20275
USER: genes 19 Torsion [N]-C--CA-[N] |==|  0.84518
USER: genes 20 Torsion [C]-CA--N-[C] |==|  0.84237
USER: genes 21 Torsion [N]-C--CA-[N] |==|  0.21793
USER: genes 22 Torsion [C]-CA--N-[C] |==|  0.77345
USER: genes 23 Torsion [N]-C--CA-[N] |==|  0.89150
USER: genes 24 Torsion [C]-CA--N-[C] |==|  0.82486
USER: genes 25 Torsion [C]-CA--CB-[CG] |==|  0.43884
USER: genes 26 Torsion [CA]-CB--CG-[OD1] |==|  0.91920
USER: genes 27 Torsion [C]-CA--CB-[OG] |==|  0.56244
USER: genes 28 Torsion [CA]-CB--OG-[HG] |==|  0.34047
USER: genes 29 Torsion [C]-CA--CB-[CG] |==|  0.29839
USER: genes 30 Torsion [CA]-CB--CG-[OD1] |==|  0.15310
ROOT
ATOM      1  CA  ALA Z  41     -15.218  14.081  -7.429  1.00 21.22 LIG 0.17  C 
ATOM      2  CB  ALA Z  41     -16.639  14.283  -7.951  1.00 23.94 LIG 0.04  C 
ENDROOT
BRANCH 1 3
ATOM      3  C   ALA Z  41     -14.657  15.397  -6.892  1.00 23.72 LIG 0.24  C 
ATOM      4 O    ALA Z  41     -13.596  15.422  -6.269  1.00 25.98 LIG-0.27  OA
ATOM      5  N   ILE Z  42     -15.374  16.490  -7.132  1.00 25.83 LIG-0.35  N 
ATOM      6 H    ILE Z  42     -16.115  16.499  -7.569  1.00 25.83 LIG 0.16  HD
BRANCH 5 7
ATOM      7  CA  ILE Z  42     -14.931  17.793  -6.649  1.00 30.93 LIG 0.18  C 
BRANCH 7 8
ATOM      8  C   ILE Z  42     -13.779  18.359  -7.482  1.00 34.23 LIG 0.24  C 
ATOM      9 O    ILE Z  42     -13.121  19.315  -7.072  1.00 38.88 LIG-0.27  OA
ATOM     10  N   LYS Z  43     -13.542  17.777  -8.655  1.00 34.26 LIG-0.35  N 
ATOM     11 H    LYS Z  43     -14.029  17.157  -8.999  1.00 34.26 LIG 0.16  HD
BRANCH 10 12
ATOM     12  CA  LYS Z  43     -12.389  18.171  -9.462  1.00 43.39 LIG 0.18  C 
BRANCH 12 13
ATOM     13  C   LYS Z  43     -11.039  17.782  -8.858  1.00 55.57 LIG 0.24  C 
ATOM     14  N   ASN Z  44     -11.051  17.330  -7.607  1.00 60.92 LIG-0.34  N 
ATOM     15 H    ASN Z  44     -11.770  17.227  -7.147  1.00 60.92 LIG 0.16  HD
ATOM     16 O    LYS Z  43     -10.007  17.894  -9.525  1.00 61.19 LIG-0.27  OA
BRANCH 14 17
ATOM     17  CA  ASN Z  44      -9.826  16.962  -6.891  1.00 70.44 LIG 0.19  C 
BRANCH 17 18
ATOM     18  CB  ASN Z  44      -8.825  18.126  -6.858  1.00 74.13 LIG 0.14  C 
BRANCH 18 19
ATOM     19  CG  ASN Z  44      -7.498  17.777  -7.507  1.00 76.38 LIG 0.22  C 
ATOM     20  ND2 ASN Z  44      -6.982  18.687  -8.329  1.00 76.67 LIG-0.37  N 
ATOM     21 21HD ASN Z  44      -6.232  18.537  -8.722  1.00 76.67 LIG 0.16  HD
ATOM     22 22HD ASN Z  44      -7.399  19.426  -8.468  1.00 76.67 LIG 0.16  HD
ATOM     23 OD1  ASN Z  44      -6.942  16.703  -7.273  1.00 76.30 LIG-0.27  OA
ENDBRANCH 18 19
ENDBRANCH 17 18
BRANCH 17 24
ATOM     24  C   ASN Z  44     -10.094  16.458  -5.470  1.00 74.17 LIG 0.28  C 
ATOM     25 O    ASN Z  44      -9.494  16.936  -4.505  1.00 72.97 LIG-0.27  OA
ATOM     26  N   NH2 Z  45     -10.997  15.489  -5.352  1.00 76.38 LIG-0.11  N 
ENDBRANCH 17 24
ENDBRANCH 14 17
ENDBRANCH 12 13
BRANCH 12 27
ATOM     27  CB  LYS Z  43     -12.431  19.669  -9.788  1.00 40.99 LIG 0.04  C 
BRANCH 27 28
ATOM     28  CG  LYS Z  43     -11.667  20.034 -11.056  1.00 39.01 LIG 0.00  C 
BRANCH 28 29
ATOM     29  CD  LYS Z  43     -11.357  18.812 -11.912  1.00 38.38 LIG 0.03  C 
BRANCH 29 30
ATOM     30  CE  LYS Z  43     -10.569  19.206 -13.157  1.00 38.40 LIG 0.23  C 
BRANCH 30 31
ATOM     31  NZ  LYS Z  43     -10.230  18.038 -14.027  1.00 35.26 LIG-0.08  N 
ATOM     32 HZ3  LYS Z  43     -10.581  17.297 -13.680  1.00 35.26 LIG 0.27  HD
ATOM     33 HZ2  LYS Z  43      -9.345  17.951 -14.078  1.00 35.26 LIG 0.27  HD
ATOM     34 HZ1  LYS Z  43     -10.561  18.169 -14.843  1.00 35.26 LIG 0.27  HD
ENDBRANCH 30 31
ENDBRANCH 29 30
ENDBRANCH 28 29
ENDBRANCH 27 28
ENDBRANCH 12 27
ENDBRANCH 10 12
ENDBRANCH 7 8
BRANCH 7 35
ATOM     35  CB  ILE Z  42     -14.511  17.749  -5.169  1.00 30.84 LIG 0.01  C 
ATOM     36  CG2 ILE Z  42     -14.454  19.158  -4.588  1.00 35.03 LIG 0.01  C 
BRANCH 35 37
ATOM     37  CG1 ILE Z  42     -15.501  16.919  -4.356  1.00 30.67 LIG 0.00  C 
ATOM     38  CD1 ILE Z  42     -14.854  16.144  -3.224  1.00 26.38 LIG 0.01  C 
ENDBRANCH 35 37
ENDBRANCH 7 35
ENDBRANCH 5 7
ENDBRANCH 1 3
BRANCH 1 39
ATOM     39  N   ALA Z  41     -15.187  13.037  -6.408  1.00 17.22 LIG-0.35  N 
ATOM     40  C   ASN Z  40     -15.324  11.750  -6.723  1.00 21.77 LIG 0.24  C 
ATOM     41 O    ASN Z  40     -15.482  11.355  -7.879  1.00 19.61 LIG-0.27  OA
ATOM     42 H    ALA Z  41     -15.074  13.326  -5.606  1.00 17.22 LIG 0.16  HD
BRANCH 40 43
ATOM     43  CA  ASN Z  40     -15.273  10.753  -5.571  1.00 23.64 LIG 0.18  C 
BRANCH 43 44
ATOM     44  N   ASN Z  40     -14.062  10.842  -4.760  1.00 28.07 LIG-0.34  N 
ATOM     45 H    ASN Z  40     -14.197  10.981  -3.922  1.00 28.07 LIG 0.16  HD
ATOM     46  C   SER Z  39     -12.864  10.714  -5.318  1.00 29.35 LIG 0.24  C 
ATOM     47 O    SER Z  39     -12.700  10.600  -6.534  1.00 27.34 LIG-0.27  OA
BRANCH 46 48
ATOM     48  CA  SER Z  39     -11.668  10.719  -4.377  1.00 36.10 LIG 0.20  C 
BRANCH 48 49
ATOM     49  N   SER Z  39     -11.574   9.402  -3.762  1.00 45.98 LIG-0.34  N 
ATOM     50  C   ASN Z  38     -12.322   9.066  -2.715  1.00 57.47 LIG 0.24  C 
ATOM     51 O    ASN Z  38     -12.944   9.894  -2.045  1.00 60.64 LIG-0.27  OA
ATOM     52 H    SER Z  39     -11.002   8.877  -4.131  1.00 45.98 LIG 0.16  HD
BRANCH 50 53
ATOM     53  CA  ASN Z  38     -12.370   7.569  -2.375  1.00 65.29 LIG 0.18  C 
BRANCH 53 54
ATOM     54  N   ASN Z  38     -12.421   6.634  -3.502  1.00 70.64 LIG-0.35  N 
ATOM     55 H    ASN Z  38     -11.738   6.115  -3.551  1.00 70.64 LIG 0.16  HD
ATOM     56  C   ACE Z  37     -13.430   6.592  -4.369  1.00 74.22 LIG 0.21  C 
ATOM     57  CH3 ACE Z  37     -13.331   5.530  -5.462  1.00 75.88 LIG 0.12  C 
ATOM     58 O    ACE Z  37     -14.393   7.356  -4.319  1.00 75.32 LIG-0.27  OA
ENDBRANCH 53 54
BRANCH 53 59
ATOM     59  CB  ASN Z  38     -11.183   7.224  -1.463  1.00 65.91 LIG 0.12  C 
BRANCH 59 60
ATOM     60  CG  ASN Z  38     -11.409   5.959  -0.651  1.00 66.48 LIG 0.15  C 
ATOM     61 OD1  ASN Z  38     -12.670   5.674  -0.349  1.00 67.09 LIG-0.18  OA
ATOM     62  ND2 ASN Z  38     -10.466   5.249  -0.296  1.00 65.12 LIG-0.38  N 
ATOM     63 22HD ASN Z  38      -9.661   5.465  -0.510  1.00 65.12 LIG 0.16  HD
ATOM     64 21HD ASN Z  38     -10.612   4.538   0.165  1.00 65.12 LIG 0.16  HD
ENDBRANCH 59 60
ENDBRANCH 53 59
ENDBRANCH 50 53
ENDBRANCH 48 49
BRANCH 48 65
ATOM     65  CB  SER Z  39     -10.402  11.064  -5.156  1.00 33.12 LIG 0.20  C 
BRANCH 65 66
ATOM     66 OG   SER Z  39      -9.249  10.589  -4.474  1.00 30.52 LIG-0.40  OA
ATOM     67 HG   SER Z  39      -8.818  10.073  -4.977  1.00 30.52 LIG 0.21  HD
ENDBRANCH 65 66
ENDBRANCH 48 65
ENDBRANCH 46 48
ENDBRANCH 43 44
BRANCH 43 68
ATOM     68  CB  ASN Z  40     -16.528  10.900  -4.707  1.00 19.94 LIG 0.14  C 
BRANCH 68 69
ATOM     69  CG  ASN Z  40     -17.492   9.744  -4.886  1.00 19.97 LIG 0.22  C 
ATOM     70 OD1  ASN Z  40     -17.120   8.581  -4.714  1.00 23.42 LIG-0.27  OA
ATOM     71  ND2 ASN Z  40     -18.734  10.053  -5.245  1.00 19.32 LIG-0.37  N 
ATOM     72 21HD ASN Z  40     -19.314   9.430  -5.366  1.00 19.32 LIG 0.16  HD
ATOM     73 22HD ASN Z  40     -18.957  10.877  -5.355  1.00 19.32 LIG 0.16  HD
ENDBRANCH 68 69
ENDBRANCH 43 68
ENDBRANCH 40 43
ENDBRANCH 1 39
TORSDOF 29
ENDMDL
MODEL 33
USER: ADFR SOLUTION from run 18
USER: SCORE 19.134614 LL:  -5.606 LR: -16.001 RR:   0.000 FEB:  -7.351
USER: RMSD 7.183749
USER: SEED 17
USER: STATUS no improvement in best in 4 clusters for 5 generations
USER: GENES 31
USER: genes 0 Translation |==|  0.57352 0.42471 0.47925
USER: genes 1 Rotation |==|  0.62103 0.07897 0.73451 0.55560
USER: genes 2 Torsion [N]-CA--C-[N] |==|  0.13329
USER: genes 3 Torsion [C]-N--CA-[C] |==|  0.81389
USER: genes 4 Torsion [N]-CA--C-[N] |==|  0.33940
USER: genes 5 Torsion [C]-N--CA-[C] |==|  0.16148
USER: genes 6 Torsion [N]-CA--C-[N] |==|  0.08390
USER: genes 7 Torsion [C]-N--CA-[CB] |==|  0.17521
USER: genes 8 Torsion [N]-CA--CB-[CG] |==|  0.66323
USER: genes 9 Torsion [CA]-CB--CG-[OD1] |==|  0.64591
USER: genes 10 Torsion [N]-CA--C-[N] |==|  0.15720
USER: genes 11 Torsion [N]-CA--CB-[CG] |==|  0.55812
USER: genes 12 Torsion [CA]-CB--CG-[CD] |==|  0.61837
USER: genes 13 Torsion [CB]-CG--CD-[CE] |==|  0.52690
USER: genes 14 Torsion [CG]-CD--CE-[NZ] |==|  0.07190
USER: genes 15 Torsion [CD]-CE--NZ-[HZ3] |==|  0.74711
USER: genes 16 Torsion [N]-CA--CB-[CG1] |==|  0.93410
USER: genes 17 Torsion [CA]-CB--CG1-[CD1] |==|  0.80126
USER: genes 18 Torsion [CB]-CA--N-[C] |==|  0.16710
USER: genes 19 Torsion [N]-C--CA-[N] |==|  0.90563
USER: genes 20 Torsion [C]-CA--N-[C] |==|  0.52790
USER: genes 21 Torsion [N]-C--CA-[N] |==|  0.34444
USER: genes 22 Torsion [C]-CA--N-[C] |==|  0.66608
USER: genes 23 Torsion [N]-C--CA-[N] |==|  0.09571
USER: genes 24 Torsion [C]-CA--N-[C] |==|  0.71099
USER: genes 25 Torsion [C]-CA--CB-[CG] |==|  0.74535
USER: genes 26 Torsion [CA]-CB--CG-[OD1] |==|  0.08480
USER: genes 27 Torsion [C]-CA--CB-[OG] |==|  0.18051
USER: genes 28 Torsion [CA]-CB--OG-[HG] |==|  0.60105
USER: genes 29 Torsion [C]-CA--CB-[CG] |==|  0.06674
USER: genes 30 Torsion [CA]-CB--CG-[OD1] |==|  0.77131
ROOT
ATOM      1  CA  ALA Z  41     -15.215  11.038  -5.816  1.00 21.22 LIG 0.17  C 
ATOM      2  CB  ALA Z  41     -15.859  10.108  -6.843  1.00 23.94 LIG 0.04  C 
ENDROOT
BRANCH 1 3
ATOM      3  C   ALA Z  41     -13.904  10.439  -5.308  1.00 23.72 LIG 0.24  C 
ATOM      4 O    ALA Z  41     -13.584   9.287  -5.598  1.00 25.98 LIG-0.27  OA
ATOM      5  N   ILE Z  42     -13.149  11.224  -4.546  1.00 25.83 LIG-0.35  N 
ATOM      6 H    ILE Z  42     -13.349  12.033  -4.334  1.00 25.83 LIG 0.16  HD
BRANCH 5 7
ATOM      7  CA  ILE Z  42     -11.886  10.740  -4.001  1.00 30.93 LIG 0.18  C 
BRANCH 7 8
ATOM      8  C   ILE Z  42     -12.086   9.628  -2.970  1.00 34.23 LIG 0.24  C 
ATOM      9 O    ILE Z  42     -12.768   9.824  -1.963  1.00 38.88 LIG-0.27  OA
ATOM     10  N   LYS Z  43     -11.487   8.466  -3.214  1.00 34.26 LIG-0.35  N 
ATOM     11 H    LYS Z  43     -10.948   8.324  -3.868  1.00 34.26 LIG 0.16  HD
BRANCH 10 12
ATOM     12  CA  LYS Z  43     -11.720   7.312  -2.347  1.00 43.39 LIG 0.18  C 
BRANCH 12 13
ATOM     13  C   LYS Z  43     -13.187   6.894  -2.242  1.00 55.57 LIG 0.24  C 
ATOM     14  N   ASN Z  44     -13.954   7.128  -3.304  1.00 60.92 LIG-0.34  N 
ATOM     15 H    ASN Z  44     -13.659   7.471  -4.035  1.00 60.92 LIG 0.16  HD
ATOM     16 O    LYS Z  43     -13.608   6.367  -1.209  1.00 61.19 LIG-0.27  OA
BRANCH 14 17
ATOM     17  CA  ASN Z  44     -15.386   6.817  -3.324  1.00 70.44 LIG 0.19  C 
BRANCH 17 18
ATOM     18  CB  ASN Z  44     -16.153   7.643  -2.281  1.00 74.13 LIG 0.14  C 
BRANCH 18 19
ATOM     19  CG  ASN Z  44     -16.891   6.778  -1.274  1.00 76.38 LIG 0.22  C 
ATOM     20  ND2 ASN Z  44     -16.173   5.846  -0.655  1.00 76.67 LIG-0.37  N 
ATOM     21 21HD ASN Z  44     -16.545   5.330  -0.076  1.00 76.67 LIG 0.16  HD
ATOM     22 22HD ASN Z  44     -15.337   5.758  -0.832  1.00 76.67 LIG 0.16  HD
ATOM     23 OD1  ASN Z  44     -18.092   6.946  -1.057  1.00 76.30 LIG-0.27  OA
ENDBRANCH 18 19
ENDBRANCH 17 18
BRANCH 17 24
ATOM     24  C   ASN Z  44     -16.016   7.000  -4.707  1.00 74.17 LIG 0.28  C 
ATOM     25 O    ASN Z  44     -16.980   7.752  -4.869  1.00 72.97 LIG-0.27  OA
ATOM     26  N   NH2 Z  45     -15.466   6.306  -5.699  1.00 76.38 LIG-0.11  N 
ENDBRANCH 17 24
ENDBRANCH 14 17
ENDBRANCH 12 13
BRANCH 12 27
ATOM     27  CB  LYS Z  43     -11.113   7.535  -0.958  1.00 40.99 LIG 0.04  C 
BRANCH 27 28
ATOM     28  CG  LYS Z  43     -10.865   6.241  -0.190  1.00 39.01 LIG 0.00  C 
BRANCH 28 29
ATOM     29  CD  LYS Z  43     -11.275   6.355   1.273  1.00 38.38 LIG 0.03  C 
BRANCH 29 30
ATOM     30  CE  LYS Z  43     -10.800   5.141   2.067  1.00 38.40 LIG 0.23  C 
BRANCH 30 31
ATOM     31  NZ  LYS Z  43      -9.600   4.484   1.465  1.00 35.26 LIG-0.08  N 
ATOM     32 HZ3  LYS Z  43      -9.861   3.848   0.899  1.00 35.26 LIG 0.27  HD
ATOM     33 HZ2  LYS Z  43      -9.105   4.120   2.110  1.00 35.26 LIG 0.27  HD
ATOM     34 HZ1  LYS Z  43      -9.117   5.090   1.028  1.00 35.26 LIG 0.27  HD
ENDBRANCH 30 31
ENDBRANCH 29 30
ENDBRANCH 28 29
ENDBRANCH 27 28
ENDBRANCH 12 27
ENDBRANCH 10 12
ENDBRANCH 7 8
BRANCH 7 35
ATOM     35  CB  ILE Z  42     -11.058  11.874  -3.368  1.00 30.84 LIG 0.01  C 
ATOM     36  CG2 ILE Z  42      -9.570  11.646  -3.609  1.00 35.03 LIG 0.01  C 
BRANCH 35 37
ATOM     37  CG1 ILE Z  42     -11.454  13.223  -3.964  1.00 30.67 LIG 0.00  C 
ATOM     38  CD1 ILE Z  42     -10.989  13.411  -5.395  1.00 26.38 LIG 0.01  C 
ENDBRANCH 35 37
ENDBRANCH 7 35
ENDBRANCH 5 7
ENDBRANCH 1 3
BRANCH 1 39
ATOM     39  N   ALA Z  41     -15.005  12.368  -6.383  1.00 17.22 LIG-0.35  N 
ATOM     40  C   ASN Z  40     -16.022  13.102  -6.831  1.00 21.77 LIG 0.24  C 
ATOM     41 O    ASN Z  40     -17.193  12.720  -6.797  1.00 19.61 LIG-0.27  OA
ATOM     42 H    ALA Z  41     -14.184  12.622  -6.400  1.00 17.22 LIG 0.16  HD
BRANCH 40 43
ATOM     43  CA  ASN Z  40     -15.678  14.474  -7.400  1.00 23.64 LIG 0.18  C 
BRANCH 43 44
ATOM     44  N   ASN Z  40     -14.554  15.128  -6.736  1.00 28.07 LIG-0.34  N 
ATOM     45 H    ASN Z  40     -14.115  14.629  -6.191  1.00 28.07 LIG 0.16  HD
ATOM     46  C   SER Z  39     -14.268  16.400  -6.987  1.00 29.35 LIG 0.24  C 
ATOM     47 O    SER Z  39     -14.967  17.113  -7.710  1.00 27.34 LIG-0.27  OA
BRANCH 46 48
ATOM     48  CA  SER Z  39     -13.019  16.963  -6.327  1.00 36.10 LIG 0.20  C 
BRANCH 48 49
ATOM     49  N   SER Z  39     -12.158  17.497  -7.374  1.00 45.98 LIG-0.34  N 
ATOM     50  C   ASN Z  38     -10.926  17.035  -7.566  1.00 57.47 LIG 0.24  C 
ATOM     51 O    ASN Z  38     -10.341  16.328  -6.743  1.00 60.64 LIG-0.27  OA
ATOM     52 H    SER Z  39     -12.515  18.123  -7.843  1.00 45.98 LIG 0.16  HD
BRANCH 50 53
ATOM     53  CA  ASN Z  38     -10.254  17.438  -8.888  1.00 65.29 LIG 0.18  C 
BRANCH 53 54
ATOM     54  N   ASN Z  38     -10.569  18.770  -9.412  1.00 70.64 LIG-0.35  N 
ATOM     55 H    ASN Z  38     -10.168  19.407  -8.996  1.00 70.64 LIG 0.16  HD
ATOM     56  C   ACE Z  37     -11.397  18.975 -10.433  1.00 74.22 LIG 0.21  C 
ATOM     57  CH3 ACE Z  37     -11.580  20.428 -10.866  1.00 75.88 LIG 0.12  C 
ATOM     58 O    ACE Z  37     -11.996  18.067 -11.007  1.00 75.32 LIG-0.27  OA
ENDBRANCH 53 54
BRANCH 53 59
ATOM     59  CB  ASN Z  38      -8.734  17.276  -8.748  1.00 65.91 LIG 0.12  C 
BRANCH 59 60
ATOM     60  CG  ASN Z  38      -8.044  18.547  -8.279  1.00 66.48 LIG 0.15  C 
ATOM     61 OD1  ASN Z  38      -8.757  19.343  -7.491  1.00 67.09 LIG-0.18  OA
ATOM     62  ND2 ASN Z  38      -6.890  18.813  -8.622  1.00 65.12 LIG-0.38  N 
ATOM     63 22HD ASN Z  38      -6.458  18.273  -9.133  1.00 65.12 LIG 0.16  HD
ATOM     64 21HD ASN Z  38      -6.517  19.538  -8.349  1.00 65.12 LIG 0.16  HD
ENDBRANCH 59 60
ENDBRANCH 53 59
ENDBRANCH 50 53
ENDBRANCH 48 49
BRANCH 48 65
ATOM     65  CB  SER Z  39     -13.410  18.043  -5.322  1.00 33.12 LIG 0.20  C 
BRANCH 65 66
ATOM     66 OG   SER Z  39     -14.162  17.484  -4.252  1.00 30.52 LIG-0.40  OA
ATOM     67 HG   SER Z  39     -14.754  18.028  -4.011  1.00 30.52 LIG 0.21  HD
ENDBRANCH 65 66
ENDBRANCH 48 65
ENDBRANCH 46 48
ENDBRANCH 43 44
BRANCH 43 68
ATOM     68  CB  ASN Z  40     -15.440  14.361  -8.907  1.00 19.94 LIG 0.14  C 
BRANCH 68 69
ATOM     69  CG  ASN Z  40     -16.138  13.160  -9.514  1.00 19.97 LIG 0.22  C 
ATOM     70 OD1  ASN Z  40     -15.626  12.039  -9.460  1.00 23.42 LIG-0.27  OA
ATOM     71  ND2 ASN Z  40     -17.306  13.387 -10.108  1.00 19.32 LIG-0.37  N 
ATOM     72 21HD ASN Z  40     -17.735  12.737 -10.474  1.00 19.32 LIG 0.16  HD
ATOM     73 22HD ASN Z  40     -17.631  14.183 -10.125  1.00 19.32 LIG 0.16  HD
ENDBRANCH 68 69
ENDBRANCH 43 68
ENDBRANCH 40 43
ENDBRANCH 1 39
TORSDOF 29
ENDMDL
MODEL 34
USER: ADFR SOLUTION from run 194
USER: SCORE 20.042431 LL:  -5.870 LR: -15.979 RR:   0.000 FEB:  -7.329
USER: RMSD 11.617773
USER: SEED 193
USER: STATUS no improvement in best in 3 clusters for 5 generations
USER: GENES 31
USER: genes 0 Translation |==|  0.56057 0.55228 0.38434
USER: genes 1 Rotation |==|  0.10655 0.60988 0.76662 0.60969
USER: genes 2 Torsion [N]-CA--C-[N] |==|  0.17213
USER: genes 3 Torsion [C]-N--CA-[C] |==|  0.75348
USER: genes 4 Torsion [N]-CA--C-[N] |==|  0.88844
USER: genes 5 Torsion [C]-N--CA-[C] |==|  0.81562
USER: genes 6 Torsion [N]-CA--C-[N] |==|  0.30702
USER: genes 7 Torsion [C]-N--CA-[CB] |==|  0.82687
USER: genes 8 Torsion [N]-CA--CB-[CG] |==|  0.83334
USER: genes 9 Torsion [CA]-CB--CG-[OD1] |==|  0.34242
USER: genes 10 Torsion [N]-CA--C-[N] |==|  0.38393
USER: genes 11 Torsion [N]-CA--CB-[CG] |==|  0.60098
USER: genes 12 Torsion [CA]-CB--CG-[CD] |==|  0.17260
USER: genes 13 Torsion [CB]-CG--CD-[CE] |==|  0.50639
USER: genes 14 Torsion [CG]-CD--CE-[NZ] |==|  0.03171
USER: genes 15 Torsion [CD]-CE--NZ-[HZ3] |==|  0.10927
USER: genes 16 Torsion [N]-CA--CB-[CG1] |==|  0.11634
USER: genes 17 Torsion [CA]-CB--CG1-[CD1] |==|  0.27974
USER: genes 18 Torsion [CB]-CA--N-[C] |==|  0.18865
USER: genes 19 Torsion [N]-C--CA-[N] |==|  0.72529
USER: genes 20 Torsion [C]-CA--N-[C] |==|  0.71644
USER: genes 21 Torsion [N]-C--CA-[N] |==|  0.95632
USER: genes 22 Torsion [C]-CA--N-[C] |==|  0.79396
USER: genes 23 Torsion [N]-C--CA-[N] |==|  0.91150
USER: genes 24 Torsion [C]-CA--N-[C] |==|  0.80823
USER: genes 25 Torsion [C]-CA--CB-[CG] |==|  0.76128
USER: genes 26 Torsion [CA]-CB--CG-[OD1] |==|  0.15503
USER: genes 27 Torsion [C]-CA--CB-[OG] |==|  0.46963
USER: genes 28 Torsion [CA]-CB--OG-[HG] |==|  0.99224
USER: genes 29 Torsion [C]-CA--CB-[CG] |==|  0.44613
USER: genes 30 Torsion [CA]-CB--CG-[OD1] |==|  0.96505
ROOT
ATOM      1  CA  ALA Z  41     -15.526  14.003  -7.951  1.00 21.22 LIG 0.17  C 
ATOM      2  CB  ALA Z  41     -16.752  14.172  -8.847  1.00 23.94 LIG 0.04  C 
ENDROOT
BRANCH 1 3
ATOM      3  C   ALA Z  41     -15.224  15.308  -7.216  1.00 23.72 LIG 0.24  C 
ATOM      4 O    ALA Z  41     -15.978  16.276  -7.315  1.00 25.98 LIG-0.27  OA
ATOM      5  N   ILE Z  42     -14.117  15.333  -6.482  1.00 25.83 LIG-0.35  N 
ATOM      6 H    ILE Z  42     -13.577  14.669  -6.393  1.00 25.83 LIG 0.16  HD
BRANCH 5 7
ATOM      7  CA  ILE Z  42     -13.733  16.536  -5.752  1.00 30.93 LIG 0.18  C 
BRANCH 7 8
ATOM      8  C   ILE Z  42     -12.870  17.476  -6.596  1.00 34.23 LIG 0.24  C 
ATOM      9 O    ILE Z  42     -13.044  18.695  -6.550  1.00 38.88 LIG-0.27  OA
ATOM     10  N   LYS Z  43     -11.949  16.913  -7.372  1.00 34.26 LIG-0.35  N 
ATOM     11 H    LYS Z  43     -11.855  16.065  -7.480  1.00 34.26 LIG 0.16  HD
BRANCH 10 12
ATOM     12  CA  LYS Z  43     -11.001  17.736  -8.121  1.00 43.39 LIG 0.18  C 
BRANCH 12 13
ATOM     13  C   LYS Z  43     -11.642  18.585  -9.220  1.00 55.57 LIG 0.24  C 
ATOM     14  N   ASN Z  44     -11.665  19.901  -9.023  1.00 60.92 LIG-0.34  N 
ATOM     15 H    ASN Z  44     -11.322  20.284  -8.334  1.00 60.92 LIG 0.16  HD
ATOM     16 O    LYS Z  43     -12.105  18.046 -10.228  1.00 61.19 LIG-0.27  OA
BRANCH 14 17
ATOM     17  CA  ASN Z  44     -12.286  20.828  -9.974  1.00 70.44 LIG 0.19  C 
BRANCH 17 18
ATOM     18  CB  ASN Z  44     -11.586  20.782 -11.340  1.00 74.13 LIG 0.14  C 
BRANCH 18 19
ATOM     19  CG  ASN Z  44     -10.117  21.157 -11.259  1.00 76.38 LIG 0.22  C 
ATOM     20  ND2 ASN Z  44      -9.836  22.347 -10.737  1.00 76.67 LIG-0.37  N 
ATOM     21 21HD ASN Z  44      -9.019  22.606 -10.669  1.00 76.67 LIG 0.16  HD
ATOM     22 22HD ASN Z  44     -10.471  22.859 -10.465  1.00 76.67 LIG 0.16  HD
ATOM     23 OD1  ASN Z  44      -9.244  20.386 -11.663  1.00 76.30 LIG-0.27  OA
ENDBRANCH 18 19
ENDBRANCH 17 18
BRANCH 17 24
ATOM     24  C   ASN Z  44     -13.789  20.589 -10.144  1.00 74.17 LIG 0.28  C 
ATOM     25 O    ASN Z  44     -14.242  19.446 -10.225  1.00 72.97 LIG-0.27  OA
ATOM     26  N   NH2 Z  45     -14.553  21.675 -10.201  1.00 76.38 LIG-0.11  N 
ENDBRANCH 17 24
ENDBRANCH 14 17
ENDBRANCH 12 13
BRANCH 12 27
ATOM     27  CB  LYS Z  43      -9.857  16.885  -8.684  1.00 40.99 LIG 0.04  C 
BRANCH 27 28
ATOM     28  CG  LYS Z  43      -8.509  17.599  -8.672  1.00 39.01 LIG 0.00  C 
BRANCH 28 29
ATOM     29  CD  LYS Z  43      -8.059  17.951  -7.260  1.00 38.38 LIG 0.03  C 
BRANCH 29 30
ATOM     30  CE  LYS Z  43      -6.737  18.713  -7.285  1.00 38.40 LIG 0.23  C 
BRANCH 30 31
ATOM     31  NZ  LYS Z  43      -6.349  19.163  -8.657  1.00 35.26 LIG-0.08  N 
ATOM     32 HZ3  LYS Z  43      -7.073  19.440  -9.095  1.00 35.26 LIG 0.27  HD
ATOM     33 HZ2  LYS Z  43      -5.977  18.485  -9.099  1.00 35.26 LIG 0.27  HD
ATOM     34 HZ1  LYS Z  43      -5.765  19.832  -8.596  1.00 35.26 LIG 0.27  HD
ENDBRANCH 30 31
ENDBRANCH 29 30
ENDBRANCH 28 29
ENDBRANCH 27 28
ENDBRANCH 12 27
ENDBRANCH 10 12
ENDBRANCH 7 8
BRANCH 7 35
ATOM     35  CB  ILE Z  42     -12.991  16.207  -4.443  1.00 30.84 LIG 0.01  C 
ATOM     36  CG2 ILE Z  42     -13.980  15.792  -3.360  1.00 35.03 LIG 0.01  C 
BRANCH 35 37
ATOM     37  CG1 ILE Z  42     -11.995  15.071  -4.664  1.00 30.67 LIG 0.00  C 
ATOM     38  CD1 ILE Z  42     -10.563  15.545  -4.823  1.00 26.38 LIG 0.01  C 
ENDBRANCH 35 37
ENDBRANCH 7 35
ENDBRANCH 5 7
ENDBRANCH 1 3
BRANCH 1 39
ATOM     39  N   ALA Z  41     -15.720  12.900  -7.013  1.00 17.22 LIG-0.35  N 
ATOM     40  C   ASN Z  40     -15.781  11.636  -7.428  1.00 21.77 LIG 0.24  C 
ATOM     41 O    ASN Z  40     -15.679  11.312  -8.613  1.00 19.61 LIG-0.27  OA
ATOM     42 H    ALA Z  41     -15.789  13.140  -6.191  1.00 17.22 LIG 0.16  HD
BRANCH 40 43
ATOM     43  CA  ASN Z  40     -15.985  10.571  -6.357  1.00 23.64 LIG 0.18  C 
BRANCH 43 44
ATOM     44  N   ASN Z  40     -14.755   9.900  -5.945  1.00 28.07 LIG-0.34  N 
ATOM     45 H    ASN Z  40     -14.260  10.351  -5.405  1.00 28.07 LIG 0.16  HD
ATOM     46  C   SER Z  39     -14.464   8.685  -6.394  1.00 29.35 LIG 0.24  C 
ATOM     47 O    SER Z  39     -15.153   8.100  -7.233  1.00 27.34 LIG-0.27  OA
BRANCH 46 48
ATOM     48  CA  SER Z  39     -13.215   8.028  -5.830  1.00 36.10 LIG 0.20  C 
BRANCH 48 49
ATOM     49  N   SER Z  39     -12.416   9.062  -5.184  1.00 45.98 LIG-0.34  N 
ATOM     50  C   ASN Z  38     -11.724   9.951  -5.889  1.00 57.47 LIG 0.24  C 
ATOM     51 O    ASN Z  38     -11.502   9.821  -7.095  1.00 60.64 LIG-0.27  OA
ATOM     52 H    SER Z  39     -12.434   9.040  -4.324  1.00 45.98 LIG 0.16  HD
BRANCH 50 53
ATOM     53  CA  ASN Z  38     -11.203  11.169  -5.111  1.00 65.29 LIG 0.18  C 
BRANCH 53 54
ATOM     54  N   ASN Z  38     -12.019  11.637  -3.988  1.00 70.64 LIG-0.35  N 
ATOM     55 H    ASN Z  38     -11.657  11.504  -3.219  1.00 70.64 LIG 0.16  HD
ATOM     56  C   ACE Z  37     -13.209  12.213  -4.142  1.00 74.22 LIG 0.21  C 
ATOM     57  CH3 ACE Z  37     -13.903  12.669  -2.860  1.00 75.88 LIG 0.12  C 
ATOM     58 O    ACE Z  37     -13.743  12.374  -5.238  1.00 75.32 LIG-0.27  OA
ENDBRANCH 53 54
BRANCH 53 59
ATOM     59  CB  ASN Z  38      -9.771  10.884  -4.635  1.00 65.91 LIG 0.12  C 
BRANCH 59 60
ATOM     60  CG  ASN Z  38      -9.725  10.142  -3.308  1.00 66.48 LIG 0.15  C 
ATOM     61 OD1  ASN Z  38     -10.388   8.993  -3.257  1.00 67.09 LIG-0.18  OA
ATOM     62  ND2 ASN Z  38      -9.107  10.595  -2.343  1.00 65.12 LIG-0.38  N 
ATOM     63 22HD ASN Z  38      -8.688  11.343  -2.413  1.00 65.12 LIG 0.16  HD
ATOM     64 21HD ASN Z  38      -9.095  10.163  -1.599  1.00 65.12 LIG 0.16  HD
ENDBRANCH 59 60
ENDBRANCH 53 59
ENDBRANCH 50 53
ENDBRANCH 48 49
BRANCH 48 65
ATOM     65  CB  SER Z  39     -13.609   6.931  -4.846  1.00 33.12 LIG 0.20  C 
BRANCH 65 66
ATOM     66 OG   SER Z  39     -12.480   6.139  -4.498  1.00 30.52 LIG-0.40  OA
ATOM     67 HG   SER Z  39     -11.809   6.401  -4.930  1.00 30.52 LIG 0.21  HD
ENDBRANCH 65 66
ENDBRANCH 48 65
ENDBRANCH 46 48
ENDBRANCH 43 44
BRANCH 43 68
ATOM     68  CB  ASN Z  40     -16.709  11.183  -5.155  1.00 19.94 LIG 0.14  C 
BRANCH 68 69
ATOM     69  CG  ASN Z  40     -17.357  10.132  -4.275  1.00 19.97 LIG 0.22  C 
ATOM     70 OD1  ASN Z  40     -17.472   8.967  -4.664  1.00 23.42 LIG-0.27  OA
ATOM     71  ND2 ASN Z  40     -17.795  10.537  -3.087  1.00 19.32 LIG-0.37  N 
ATOM     72 21HD ASN Z  40     -18.176   9.978  -2.556  1.00 19.32 LIG 0.16  HD
ATOM     73 22HD ASN Z  40     -17.696  11.358  -2.850  1.00 19.32 LIG 0.16  HD
ENDBRANCH 68 69
ENDBRANCH 43 68
ENDBRANCH 40 43
ENDBRANCH 1 39
TORSDOF 29
ENDMDL
MODEL 35
USER: ADFR SOLUTION from run 100
USER: SCORE 19.809252 LL:  -6.425 LR: -15.970 RR:   0.000 FEB:  -7.319
USER: RMSD 11.706559
USER: SEED 99
USER: STATUS no improvement in best in 11 clusters for 5 generations
USER: GENES 31
USER: genes 0 Translation |==|  0.57194 0.51002 0.36254
USER: genes 1 Rotation |==|  0.06245 0.51448 0.72862 0.57793
USER: genes 2 Torsion [N]-CA--C-[N] |==|  0.21095
USER: genes 3 Torsion [C]-N--CA-[C] |==|  0.80800
USER: genes 4 Torsion [N]-CA--C-[N] |==|  0.81914
USER: genes 5 Torsion [C]-N--CA-[C] |==|  0.57653
USER: genes 6 Torsion [N]-CA--C-[N] |==|  0.89617
USER: genes 7 Torsion [C]-N--CA-[CB] |==|  0.11094
USER: genes 8 Torsion [N]-CA--CB-[CG] |==|  0.63746
USER: genes 9 Torsion [CA]-CB--CG-[OD1] |==|  0.54478
USER: genes 10 Torsion [N]-CA--C-[N] |==|  0.18889
USER: genes 11 Torsion [N]-CA--CB-[CG] |==|  0.16969
USER: genes 12 Torsion [CA]-CB--CG-[CD] |==|  0.30748
USER: genes 13 Torsion [CB]-CG--CD-[CE] |==|  0.65037
USER: genes 14 Torsion [CG]-CD--CE-[NZ] |==|  0.41679
USER: genes 15 Torsion [CD]-CE--NZ-[HZ3] |==|  0.93509
USER: genes 16 Torsion [N]-CA--CB-[CG1] |==|  0.05835
USER: genes 17 Torsion [CA]-CB--CG1-[CD1] |==|  0.28550
USER: genes 18 Torsion [CB]-CA--N-[C] |==|  0.80813
USER: genes 19 Torsion [N]-C--CA-[N] |==|  0.02720
USER: genes 20 Torsion [C]-CA--N-[C] |==|  0.67556
USER: genes 21 Torsion [N]-C--CA-[N] |==|  0.99859
USER: genes 22 Torsion [C]-CA--N-[C] |==|  0.73724
USER: genes 23 Torsion [N]-C--CA-[N] |==|  0.93772
USER: genes 24 Torsion [C]-CA--N-[C] |==|  0.78550
USER: genes 25 Torsion [C]-CA--CB-[CG] |==|  0.72604
USER: genes 26 Torsion [CA]-CB--CG-[OD1] |==|  0.74513
USER: genes 27 Torsion [C]-CA--CB-[OG] |==|  0.60567
USER: genes 28 Torsion [CA]-CB--OG-[HG] |==|  0.82172
USER: genes 29 Torsion [C]-CA--CB-[CG] |==|  0.40204
USER: genes 30 Torsion [CA]-CB--CG-[OD1] |==|  0.09310
ROOT
ATOM      1  CA  ALA Z  41     -15.253  13.021  -8.442  1.00 21.22 LIG 0.17  C 
ATOM      2  CB  ALA Z  41     -16.181  12.810  -9.636  1.00 23.94 LIG 0.04  C 
ENDROOT
BRANCH 1 3
ATOM      3  C   ALA Z  41     -15.651  14.283  -7.678  1.00 23.72 LIG 0.24  C 
ATOM      4 O    ALA Z  41     -16.771  14.775  -7.815  1.00 25.98 LIG-0.27  OA
ATOM      5  N   ILE Z  42     -14.730  14.807  -6.876  1.00 25.83 LIG-0.35  N 
ATOM      6 H    ILE Z  42     -13.944  14.479  -6.759  1.00 25.83 LIG 0.16  HD
BRANCH 5 7
ATOM      7  CA  ILE Z  42     -15.008  16.019  -6.114  1.00 30.93 LIG 0.18  C 
BRANCH 7 8
ATOM      8  C   ILE Z  42     -15.128  17.253  -7.010  1.00 34.23 LIG 0.24  C 
ATOM      9 O    ILE Z  42     -16.201  17.848  -7.116  1.00 38.88 LIG-0.27  OA
ATOM     10  N   LYS Z  43     -14.032  17.633  -7.662  1.00 34.26 LIG-0.35  N 
ATOM     11 H    LYS Z  43     -13.291  17.196  -7.665  1.00 34.26 LIG 0.16  HD
BRANCH 10 12
ATOM     12  CA  LYS Z  43     -14.020  18.867  -8.445  1.00 43.39 LIG 0.18  C 
BRANCH 12 13
ATOM     13  C   LYS Z  43     -13.032  18.858  -9.612  1.00 55.57 LIG 0.24  C 
ATOM     14  N   ASN Z  44     -11.868  18.248  -9.406  1.00 60.92 LIG-0.34  N 
ATOM     15 H    ASN Z  44     -11.665  17.848  -8.672  1.00 60.92 LIG 0.16  HD
ATOM     16 O    LYS Z  43     -13.330  19.398 -10.680  1.00 61.19 LIG-0.27  OA
BRANCH 14 17
ATOM     17  CA  ASN Z  44     -10.813  18.201 -10.423  1.00 70.44 LIG 0.19  C 
BRANCH 17 18
ATOM     18  CB  ASN Z  44     -10.693  19.539 -11.167  1.00 74.13 LIG 0.14  C 
BRANCH 18 19
ATOM     19  CG  ASN Z  44     -10.680  19.372 -12.676  1.00 76.38 LIG 0.22  C 
ATOM     20  ND2 ASN Z  44     -11.096  18.200 -13.147  1.00 76.67 LIG-0.37  N 
ATOM     21 21HD ASN Z  44     -11.107  18.056 -13.995  1.00 76.67 LIG 0.16  HD
ATOM     22 22HD ASN Z  44     -11.355  17.586 -12.604  1.00 76.67 LIG 0.16  HD
ATOM     23 OD1  ASN Z  44     -10.300  20.286 -13.411  1.00 76.30 LIG-0.27  OA
ENDBRANCH 18 19
ENDBRANCH 17 18
BRANCH 17 24
ATOM     24  C   ASN Z  44      -9.452  17.793  -9.851  1.00 74.17 LIG 0.28  C 
ATOM     25 O    ASN Z  44      -8.519  18.597  -9.804  1.00 72.97 LIG-0.27  OA
ATOM     26  N   NH2 Z  45      -9.349  16.539  -9.422  1.00 76.38 LIG-0.11  N 
ENDBRANCH 17 24
ENDBRANCH 14 17
ENDBRANCH 12 13
BRANCH 12 27
ATOM     27  CB  LYS Z  43     -13.795  20.088  -7.546  1.00 40.99 LIG 0.04  C 
BRANCH 27 28
ATOM     28  CG  LYS Z  43     -12.463  20.056  -6.804  1.00 39.01 LIG 0.00  C 
BRANCH 28 29
ATOM     29  CD  LYS Z  43     -11.496  21.116  -7.317  1.00 38.38 LIG 0.03  C 
BRANCH 29 30
ATOM     30  CE  LYS Z  43     -10.166  20.487  -7.721  1.00 38.40 LIG 0.23  C 
BRANCH 30 31
ATOM     31  NZ  LYS Z  43      -9.480  21.230  -8.823  1.00 35.26 LIG-0.08  N 
ATOM     32 HZ3  LYS Z  43     -10.081  21.696  -9.286  1.00 35.26 LIG 0.27  HD
ATOM     33 HZ2  LYS Z  43      -9.073  20.651  -9.364  1.00 35.26 LIG 0.27  HD
ATOM     34 HZ1  LYS Z  43      -8.877  21.786  -8.477  1.00 35.26 LIG 0.27  HD
ENDBRANCH 30 31
ENDBRANCH 29 30
ENDBRANCH 28 29
ENDBRANCH 27 28
ENDBRANCH 12 27
ENDBRANCH 10 12
ENDBRANCH 7 8
BRANCH 7 35
ATOM     35  CB  ILE Z  42     -13.942  16.280  -5.034  1.00 30.84 LIG 0.01  C 
ATOM     36  CG2 ILE Z  42     -14.440  15.813  -3.670  1.00 35.03 LIG 0.01  C 
BRANCH 35 37
ATOM     37  CG1 ILE Z  42     -12.649  15.540  -5.368  1.00 30.67 LIG 0.00  C 
ATOM     38  CD1 ILE Z  42     -11.568  16.438  -5.938  1.00 26.38 LIG 0.01  C 
ENDBRANCH 35 37
ENDBRANCH 7 35
ENDBRANCH 5 7
ENDBRANCH 1 3
BRANCH 1 39
ATOM     39  N   ALA Z  41     -15.261  11.849  -7.568  1.00 17.22 LIG-0.35  N 
ATOM     40  C   ASN Z  40     -16.334  11.525  -6.849  1.00 21.77 LIG 0.24  C 
ATOM     41 O    ASN Z  40     -17.379  12.178  -6.869  1.00 19.61 LIG-0.27  OA
ATOM     42 H    ALA Z  41     -14.527  11.403  -7.565  1.00 17.22 LIG 0.16  HD
BRANCH 40 43
ATOM     43  CA  ASN Z  40     -16.223  10.280  -5.976  1.00 23.64 LIG 0.18  C 
BRANCH 43 44
ATOM     44  N   ASN Z  40     -14.870   9.740  -5.880  1.00 28.07 LIG-0.34  N 
ATOM     45 H    ASN Z  40     -14.296  10.263  -5.510  1.00 28.07 LIG 0.16  HD
ATOM     46  C   SER Z  39     -14.593   8.526  -6.343  1.00 29.35 LIG 0.24  C 
ATOM     47 O    SER Z  39     -15.417   7.834  -6.944  1.00 27.34 LIG-0.27  OA
BRANCH 46 48
ATOM     48  CA  SER Z  39     -13.182   8.011  -6.106  1.00 36.10 LIG 0.20  C 
BRANCH 48 49
ATOM     49  N   SER Z  39     -12.438   9.044  -5.398  1.00 45.98 LIG-0.34  N 
ATOM     50  C   ASN Z  38     -11.682   9.926  -6.044  1.00 57.47 LIG 0.24  C 
ATOM     51 O    ASN Z  38     -11.355   9.788  -7.225  1.00 60.64 LIG-0.27  OA
ATOM     52 H    SER Z  39     -12.533   9.028  -4.543  1.00 45.98 LIG 0.16  HD
BRANCH 50 53
ATOM     53  CA  ASN Z  38     -11.225  11.146  -5.230  1.00 65.29 LIG 0.18  C 
BRANCH 53 54
ATOM     54  N   ASN Z  38     -12.026  11.495  -4.053  1.00 70.64 LIG-0.35  N 
ATOM     55 H    ASN Z  38     -11.668  11.256  -3.309  1.00 70.64 LIG 0.16  HD
ATOM     56  C   ACE Z  37     -13.197  12.123  -4.129  1.00 74.22 LIG 0.21  C 
ATOM     57  CH3 ACE Z  37     -13.876  12.436  -2.797  1.00 75.88 LIG 0.12  C 
ATOM     58 O    ACE Z  37     -13.726  12.437  -5.194  1.00 75.32 LIG-0.27  OA
ENDBRANCH 53 54
BRANCH 53 59
ATOM     59  CB  ASN Z  38      -9.756  10.957  -4.825  1.00 65.91 LIG 0.12  C 
BRANCH 59 60
ATOM     60  CG  ASN Z  38      -9.594  10.441  -3.404  1.00 66.48 LIG 0.15  C 
ATOM     61 OD1  ASN Z  38      -9.463  11.364  -2.458  1.00 67.09 LIG-0.18  OA
ATOM     62  ND2 ASN Z  38      -9.584   9.234  -3.159  1.00 65.12 LIG-0.38  N 
ATOM     63 22HD ASN Z  38      -9.672   8.664  -3.797  1.00 65.12 LIG 0.16  HD
ATOM     64 21HD ASN Z  38      -9.489   8.960  -2.349  1.00 65.12 LIG 0.16  HD
ENDBRANCH 59 60
ENDBRANCH 53 59
ENDBRANCH 50 53
ENDBRANCH 48 49
BRANCH 48 65
ATOM     65  CB  SER Z  39     -13.234   6.713  -5.306  1.00 33.12 LIG 0.20  C 
BRANCH 65 66
ATOM     66 OG   SER Z  39     -12.166   6.657  -4.369  1.00 30.52 LIG-0.40  OA
ATOM     67 HG   SER Z  39     -11.434   6.637  -4.779  1.00 30.52 LIG 0.21  HD
ENDBRANCH 65 66
ENDBRANCH 48 65
ENDBRANCH 46 48
ENDBRANCH 43 44
BRANCH 43 68
ATOM     68  CB  ASN Z  40     -16.800  10.572  -4.589  1.00 19.94 LIG 0.14  C 
BRANCH 68 69
ATOM     69  CG  ASN Z  40     -17.506   9.370  -3.992  1.00 19.97 LIG 0.22  C 
ATOM     70 OD1  ASN Z  40     -17.106   8.226  -4.221  1.00 23.42 LIG-0.27  OA
ATOM     71  ND2 ASN Z  40     -18.567   9.619  -3.232  1.00 19.32 LIG-0.37  N 
ATOM     72 21HD ASN Z  40     -19.005   8.968  -2.878  1.00 19.32 LIG 0.16  HD
ATOM     73 22HD ASN Z  40     -18.817  10.431  -3.094  1.00 19.32 LIG 0.16  HD
ENDBRANCH 68 69
ENDBRANCH 43 68
ENDBRANCH 40 43
ENDBRANCH 1 39
TORSDOF 29
ENDMDL
MODEL 36
USER: ADFR SOLUTION from run 116
USER: SCORE 19.011168 LL:  -4.980 LR: -15.951 RR:   0.000 FEB:  -7.301
USER: RMSD 6.699071
USER: SEED 115
USER: STATUS searching
USER: GENES 31
USER: genes 0 Translation |==|  0.55544 0.23854 0.47528
USER: genes 1 Rotation |==|  0.26892 0.90685 0.39967 0.64494
USER: genes 2 Torsion [N]-CA--C-[N] |==|  0.85150
USER: genes 3 Torsion [C]-N--CA-[C] |==|  0.81934
USER: genes 4 Torsion [N]-CA--C-[N] |==|  0.37439
USER: genes 5 Torsion [C]-N--CA-[C] |==|  0.14602
USER: genes 6 Torsion [N]-CA--C-[N] |==|  0.60743
USER: genes 7 Torsion [C]-N--CA-[CB] |==|  0.82196
USER: genes 8 Torsion [N]-CA--CB-[CG] |==|  0.29737
USER: genes 9 Torsion [CA]-CB--CG-[OD1] |==|  0.74506
USER: genes 10 Torsion [N]-CA--C-[N] |==|  0.43507
USER: genes 11 Torsion [N]-CA--CB-[CG] |==|  0.57838
USER: genes 12 Torsion [CA]-CB--CG-[CD] |==|  0.02900
USER: genes 13 Torsion [CB]-CG--CD-[CE] |==|  0.36867
USER: genes 14 Torsion [CG]-CD--CE-[NZ] |==|  0.81868
USER: genes 15 Torsion [CD]-CE--NZ-[HZ3] |==|  0.67912
USER: genes 16 Torsion [N]-CA--CB-[CG1] |==|  0.40815
USER: genes 17 Torsion [CA]-CB--CG1-[CD1] |==|  0.47389
USER: genes 18 Torsion [CB]-CA--N-[C] |==|  0.86648
USER: genes 19 Torsion [N]-C--CA-[N] |==|  0.04740
USER: genes 20 Torsion [C]-CA--N-[C] |==|  0.78206
USER: genes 21 Torsion [N]-C--CA-[N] |==|  0.50715
USER: genes 22 Torsion [C]-CA--N-[C] |==|  0.77117
USER: genes 23 Torsion [N]-C--CA-[N] |==|  0.34318
USER: genes 24 Torsion [C]-CA--N-[C] |==|  0.67403
USER: genes 25 Torsion [C]-CA--CB-[CG] |==|  0.30193
USER: genes 26 Torsion [CA]-CB--CG-[OD1] |==|  0.31450
USER: genes 27 Torsion [C]-CA--CB-[OG] |==|  0.93887
USER: genes 28 Torsion [CA]-CB--OG-[HG] |==|  0.28510
USER: genes 29 Torsion [C]-CA--CB-[CG] |==|  0.22869
USER: genes 30 Torsion [CA]-CB--CG-[OD1] |==|  0.82572
ROOT
ATOM      1  CA  ALA Z  41     -15.650   6.709  -5.905  1.00 21.22 LIG 0.17  C 
ATOM      2  CB  ALA Z  41     -15.384   6.609  -7.406  1.00 23.94 LIG 0.04  C 
ENDROOT
BRANCH 1 3
ATOM      3  C   ALA Z  41     -14.333   6.684  -5.131  1.00 23.72 LIG 0.24  C 
ATOM      4 O    ALA Z  41     -14.029   5.713  -4.437  1.00 25.98 LIG-0.27  OA
ATOM      5  N   ILE Z  42     -13.555   7.755  -5.247  1.00 25.83 LIG-0.35  N 
ATOM      6 H    ILE Z  42     -13.742   8.442  -5.729  1.00 25.83 LIG 0.16  HD
BRANCH 5 7
ATOM      7  CA  ILE Z  42     -12.283   7.834  -4.536  1.00 30.93 LIG 0.18  C 
BRANCH 7 8
ATOM      8  C   ILE Z  42     -12.468   7.863  -3.018  1.00 34.23 LIG 0.24  C 
ATOM      9 O    ILE Z  42     -13.315   8.596  -2.505  1.00 38.88 LIG-0.27  OA
ATOM     10  N   LYS Z  43     -11.673   7.076  -2.299  1.00 34.26 LIG-0.35  N 
ATOM     11 H    LYS Z  43     -11.026   6.611  -2.623  1.00 34.26 LIG 0.16  HD
BRANCH 10 12
ATOM     12  CA  LYS Z  43     -11.858   6.950  -0.854  1.00 43.39 LIG 0.18  C 
BRANCH 12 13
ATOM     13  C   LYS Z  43     -13.283   6.586  -0.436  1.00 55.57 LIG 0.24  C 
ATOM     14  N   ASN Z  44     -13.754   7.176   0.660  1.00 60.92 LIG-0.34  N 
ATOM     15 H    ASN Z  44     -13.311   7.755   1.115  1.00 60.92 LIG 0.16  HD
ATOM     16 O    LYS Z  43     -13.938   5.782  -1.103  1.00 61.19 LIG-0.27  OA
BRANCH 14 17
ATOM     17  CA  ASN Z  44     -15.087   6.887   1.198  1.00 70.44 LIG 0.19  C 
BRANCH 17 18
ATOM     18  CB  ASN Z  44     -16.191   7.314   0.220  1.00 74.13 LIG 0.14  C 
BRANCH 18 19
ATOM     19  CG  ASN Z  44     -16.864   6.133  -0.457  1.00 76.38 LIG 0.22  C 
ATOM     20  ND2 ASN Z  44     -17.904   5.599   0.178  1.00 76.67 LIG-0.37  N 
ATOM     21 21HD ASN Z  44     -18.319   4.929  -0.164  1.00 76.67 LIG 0.16  HD
ATOM     22 22HD ASN Z  44     -18.162   5.926   0.931  1.00 76.67 LIG 0.16  HD
ATOM     23 OD1  ASN Z  44     -16.455   5.704  -1.537  1.00 76.30 LIG-0.27  OA
ENDBRANCH 18 19
ENDBRANCH 17 18
BRANCH 17 24
ATOM     24  C   ASN Z  44     -15.267   5.418   1.587  1.00 74.17 LIG 0.28  C 
ATOM     25 O    ASN Z  44     -14.571   4.538   1.076  1.00 72.97 LIG-0.27  OA
ATOM     26  N   NH2 Z  45     -16.207   5.161   2.491  1.00 76.38 LIG-0.11  N 
ENDBRANCH 17 24
ENDBRANCH 14 17
ENDBRANCH 12 13
BRANCH 12 27
ATOM     27  CB  LYS Z  43     -11.378   8.210  -0.125  1.00 40.99 LIG 0.04  C 
BRANCH 27 28
ATOM     28  CG  LYS Z  43     -10.899   7.940   1.298  1.00 39.01 LIG 0.00  C 
BRANCH 28 29
ATOM     29  CD  LYS Z  43     -10.767   6.450   1.586  1.00 38.38 LIG 0.03  C 
BRANCH 29 30
ATOM     30  CE  LYS Z  43      -9.433   6.143   2.259  1.00 38.40 LIG 0.23  C 
BRANCH 30 31
ATOM     31  NZ  LYS Z  43      -8.257   6.413   1.375  1.00 35.26 LIG-0.08  N 
ATOM     32 HZ3  LYS Z  43      -7.833   5.649   1.203  1.00 35.26 LIG 0.27  HD
ATOM     33 HZ2  LYS Z  43      -7.701   6.975   1.783  1.00 35.26 LIG 0.27  HD
ATOM     34 HZ1  LYS Z  43      -8.537   6.775   0.612  1.00 35.26 LIG 0.27  HD
ENDBRANCH 30 31
ENDBRANCH 29 30
ENDBRANCH 28 29
ENDBRANCH 27 28
ENDBRANCH 12 27
ENDBRANCH 10 12
ENDBRANCH 7 8
BRANCH 7 35
ATOM     35  CB  ILE Z  42     -11.454   9.057  -4.969  1.00 30.84 LIG 0.01  C 
ATOM     36  CG2 ILE Z  42     -12.367  10.165  -5.483  1.00 35.03 LIG 0.01  C 
BRANCH 35 37
ATOM     37  CG1 ILE Z  42     -10.638   9.593  -3.795  1.00 30.67 LIG 0.00  C 
ATOM     38  CD1 ILE Z  42      -9.628  10.652  -4.195  1.00 26.38 LIG 0.01  C 
ENDBRANCH 35 37
ENDBRANCH 7 35
ENDBRANCH 5 7
ENDBRANCH 1 3
BRANCH 1 39
ATOM     39  N   ALA Z  41     -16.422   7.910  -5.597  1.00 17.22 LIG-0.35  N 
ATOM     40  C   ASN Z  40     -16.084   9.101  -6.088  1.00 21.77 LIG 0.24  C 
ATOM     41 O    ASN Z  40     -15.113   9.271  -6.827  1.00 19.61 LIG-0.27  OA
ATOM     42 H    ALA Z  41     -17.097   7.777  -5.081  1.00 17.22 LIG 0.16  HD
BRANCH 40 43
ATOM     43  CA  ASN Z  40     -16.967  10.280  -5.697  1.00 23.64 LIG 0.18  C 
BRANCH 43 44
ATOM     44  N   ASN Z  40     -17.820  10.026  -4.540  1.00 28.07 LIG-0.34  N 
ATOM     45 H    ASN Z  40     -17.539  10.366  -3.801  1.00 28.07 LIG 0.16  HD
ATOM     46  C   SER Z  39     -18.936   9.318  -4.665  1.00 29.35 LIG 0.24  C 
ATOM     47 O    SER Z  39     -19.268   8.773  -5.720  1.00 27.34 LIG-0.27  OA
BRANCH 46 48
ATOM     48  CA  SER Z  39     -19.810   9.194  -3.426  1.00 36.10 LIG 0.20  C 
BRANCH 48 49
ATOM     49  N   SER Z  39     -20.940   8.336  -3.757  1.00 45.98 LIG-0.34  N 
ATOM     50  C   ASN Z  38     -22.016   8.809  -4.379  1.00 57.47 LIG 0.24  C 
ATOM     51 O    ASN Z  38     -22.247  10.015  -4.490  1.00 60.64 LIG-0.27  OA
ATOM     52 H    SER Z  39     -20.847   7.516  -3.517  1.00 45.98 LIG 0.16  HD
BRANCH 50 53
ATOM     53  CA  ASN Z  38     -22.975   7.759  -4.958  1.00 65.29 LIG 0.18  C 
BRANCH 53 54
ATOM     54  N   ASN Z  38     -24.370   7.817  -4.511  1.00 70.64 LIG-0.35  N 
ATOM     55 H    ASN Z  38     -24.771   8.546  -4.727  1.00 70.64 LIG 0.16  HD
ATOM     56  C   ACE Z  37     -24.960   6.834  -3.835  1.00 74.22 LIG 0.21  C 
ATOM     57  CH3 ACE Z  37     -26.429   7.054  -3.480  1.00 75.88 LIG 0.12  C 
ATOM     58 O    ACE Z  37     -24.379   5.804  -3.498  1.00 75.32 LIG-0.27  OA
ENDBRANCH 53 54
BRANCH 53 59
ATOM     59  CB  ASN Z  38     -22.914   7.815  -6.492  1.00 65.91 LIG 0.12  C 
BRANCH 59 60
ATOM     60  CG  ASN Z  38     -22.216   6.609  -7.101  1.00 66.48 LIG 0.15  C 
ATOM     61 OD1  ASN Z  38     -22.976   5.795  -7.822  1.00 67.09 LIG-0.18  OA
ATOM     62  ND2 ASN Z  38     -21.012   6.410  -6.923  1.00 65.12 LIG-0.38  N 
ATOM     63 22HD ASN Z  38     -20.551   6.960  -6.450  1.00 65.12 LIG 0.16  HD
ATOM     64 21HD ASN Z  38     -20.635   5.721  -7.274  1.00 65.12 LIG 0.16  HD
ENDBRANCH 59 60
ENDBRANCH 53 59
ENDBRANCH 50 53
ENDBRANCH 48 49
BRANCH 48 65
ATOM     65  CB  SER Z  39     -18.992   8.620  -2.274  1.00 33.12 LIG 0.20  C 
BRANCH 65 66
ATOM     66 OG   SER Z  39     -17.862   7.910  -2.766  1.00 30.52 LIG-0.40  OA
ATOM     67 HG   SER Z  39     -17.172   8.381  -2.675  1.00 30.52 LIG 0.21  HD
ENDBRANCH 65 66
ENDBRANCH 48 65
ENDBRANCH 46 48
ENDBRANCH 43 44
BRANCH 43 68
ATOM     68  CB  ASN Z  40     -16.099  11.522  -5.481  1.00 19.94 LIG 0.14  C 
BRANCH 68 69
ATOM     69  CG  ASN Z  40     -15.764  12.227  -6.781  1.00 19.97 LIG 0.22  C 
ATOM     70 OD1  ASN Z  40     -15.102  11.660  -7.653  1.00 23.42 LIG-0.27  OA
ATOM     71  ND2 ASN Z  40     -16.208  13.473  -6.915  1.00 19.32 LIG-0.37  N 
ATOM     72 21HD ASN Z  40     -16.036  13.916  -7.632  1.00 19.32 LIG 0.16  HD
ATOM     73 22HD ASN Z  40     -16.667  13.836  -6.284  1.00 19.32 LIG 0.16  HD
ENDBRANCH 68 69
ENDBRANCH 43 68
ENDBRANCH 40 43
ENDBRANCH 1 39
TORSDOF 29
ENDMDL
MODEL 37
USER: ADFR SOLUTION from run 88
USER: SCORE 21.474445 LL:  -7.381 LR: -15.932 RR:   0.000 FEB:  -7.281
USER: RMSD 5.951237
USER: SEED 87
USER: STATUS no improvement in best in 3 clusters for 5 generations
USER: GENES 31
USER: genes 0 Translation |==|  0.56110 0.25872 0.45007
USER: genes 1 Rotation |==|  0.30684 0.91679 0.39597 0.66779
USER: genes 2 Torsion [N]-CA--C-[N] |==|  0.86665
USER: genes 3 Torsion [C]-N--CA-[C] |==|  0.80636
USER: genes 4 Torsion [N]-CA--C-[N] |==|  0.39815
USER: genes 5 Torsion [C]-N--CA-[C] |==|  0.82933
USER: genes 6 Torsion [N]-CA--C-[N] |==|  0.89045
USER: genes 7 Torsion [C]-N--CA-[CB] |==|  0.84437
USER: genes 8 Torsion [N]-CA--CB-[CG] |==|  0.83684
USER: genes 9 Torsion [CA]-CB--CG-[OD1] |==|  0.76199
USER: genes 10 Torsion [N]-CA--C-[N] |==|  0.37919
USER: genes 11 Torsion [N]-CA--CB-[CG] |==|  0.25535
USER: genes 12 Torsion [CA]-CB--CG-[CD] |==|  0.32856
USER: genes 13 Torsion [CB]-CG--CD-[CE] |==|  0.51779
USER: genes 14 Torsion [CG]-CD--CE-[NZ] |==|  0.81057
USER: genes 15 Torsion [CD]-CE--NZ-[HZ3] |==|  0.02904
USER: genes 16 Torsion [N]-CA--CB-[CG1] |==|  0.35038
USER: genes 17 Torsion [CA]-CB--CG1-[CD1] |==|  0.40754
USER: genes 18 Torsion [CB]-CA--N-[C] |==|  0.46102
USER: genes 19 Torsion [N]-C--CA-[N] |==|  0.90065
USER: genes 20 Torsion [C]-CA--N-[C] |==|  0.84684
USER: genes 21 Torsion [N]-C--CA-[N] |==|  0.96444
USER: genes 22 Torsion [C]-CA--N-[C] |==|  0.79822
USER: genes 23 Torsion [N]-C--CA-[N] |==|  0.97891
USER: genes 24 Torsion [C]-CA--N-[C] |==|  0.77586
USER: genes 25 Torsion [C]-CA--CB-[CG] |==|  0.25927
USER: genes 26 Torsion [CA]-CB--CG-[OD1] |==|  0.10418
USER: genes 27 Torsion [C]-CA--CB-[OG] |==|  0.68178
USER: genes 28 Torsion [CA]-CB--OG-[HG] |==|  0.73465
USER: genes 29 Torsion [C]-CA--CB-[CG] |==|  0.36439
USER: genes 30 Torsion [CA]-CB--CG-[OD1] |==|  0.79933
ROOT
ATOM      1  CA  ALA Z  41     -15.513   7.178  -6.472  1.00 21.22 LIG 0.17  C 
ATOM      2  CB  ALA Z  41     -15.106   7.158  -7.944  1.00 23.94 LIG 0.04  C 
ENDROOT
BRANCH 1 3
ATOM      3  C   ALA Z  41     -14.298   6.922  -5.582  1.00 23.72 LIG 0.24  C 
ATOM      4 O    ALA Z  41     -14.141   5.833  -5.030  1.00 25.98 LIG-0.27  OA
ATOM      5  N   ILE Z  42     -13.443   7.929  -5.441  1.00 25.83 LIG-0.35  N 
ATOM      6 H    ILE Z  42     -13.528   8.696  -5.819  1.00 25.83 LIG 0.16  HD
BRANCH 5 7
ATOM      7  CA  ILE Z  42     -12.258   7.789  -4.601  1.00 30.93 LIG 0.18  C 
BRANCH 7 8
ATOM      8  C   ILE Z  42     -12.608   7.711  -3.113  1.00 34.23 LIG 0.24  C 
ATOM      9 O    ILE Z  42     -13.528   8.387  -2.651  1.00 38.88 LIG-0.27  OA
ATOM     10  N   LYS Z  43     -11.871   6.896  -2.363  1.00 34.26 LIG-0.35  N 
ATOM     11 H    LYS Z  43     -11.179   6.470  -2.643  1.00 34.26 LIG 0.16  HD
BRANCH 10 12
ATOM     12  CA  LYS Z  43     -12.208   6.668  -0.959  1.00 43.39 LIG 0.18  C 
BRANCH 12 13
ATOM     13  C   LYS Z  43     -12.161   7.926  -0.092  1.00 55.57 LIG 0.24  C 
ATOM     14  N   ASN Z  44     -11.170   8.782  -0.332  1.00 60.92 LIG-0.34  N 
ATOM     15 H    ASN Z  44     -10.588   8.671  -0.954  1.00 60.92 LIG 0.16  HD
ATOM     16 O    LYS Z  43     -13.014   8.110   0.779  1.00 61.19 LIG-0.27  OA
BRANCH 14 17
ATOM     17  CA  ASN Z  44     -10.980  10.006   0.453  1.00 70.44 LIG 0.19  C 
BRANCH 17 18
ATOM     18  CB  ASN Z  44     -12.241  10.881   0.439  1.00 74.13 LIG 0.14  C 
BRANCH 18 19
ATOM     19  CG  ASN Z  44     -12.657  11.290  -0.963  1.00 76.38 LIG 0.22  C 
ATOM     20  ND2 ASN Z  44     -13.563  10.522  -1.561  1.00 76.67 LIG-0.37  N 
ATOM     21 21HD ASN Z  44     -13.831  10.712  -2.356  1.00 76.67 LIG 0.16  HD
ATOM     22 22HD ASN Z  44     -13.881   9.836  -1.153  1.00 76.67 LIG 0.16  HD
ATOM     23 OD1  ASN Z  44     -12.169  12.285  -1.503  1.00 76.30 LIG-0.27  OA
ENDBRANCH 18 19
ENDBRANCH 17 18
BRANCH 17 24
ATOM     24  C   ASN Z  44     -10.547   9.728   1.894  1.00 74.17 LIG 0.28  C 
ATOM     25 O    ASN Z  44     -11.085   8.838   2.556  1.00 72.97 LIG-0.27  OA
ATOM     26  N   NH2 Z  45      -9.576  10.499   2.374  1.00 76.38 LIG-0.11  N 
ENDBRANCH 17 24
ENDBRANCH 14 17
ENDBRANCH 12 13
BRANCH 12 27
ATOM     27  CB  LYS Z  43     -11.341   5.556  -0.359  1.00 40.99 LIG 0.04  C 
BRANCH 27 28
ATOM     28  CG  LYS Z  43     -10.067   6.072   0.303  1.00 39.01 LIG 0.00  C 
BRANCH 28 29
ATOM     29  CD  LYS Z  43     -10.023   5.750   1.791  1.00 38.38 LIG 0.03  C 
BRANCH 29 30
ATOM     30  CE  LYS Z  43      -8.820   6.412   2.455  1.00 38.40 LIG 0.23  C 
BRANCH 30 31
ATOM     31  NZ  LYS Z  43      -7.515   5.828   2.014  1.00 35.26 LIG-0.08  N 
ATOM     32 HZ3  LYS Z  43      -7.652   5.288   1.320  1.00 35.26 LIG 0.27  HD
ATOM     33 HZ2  LYS Z  43      -7.155   5.365   2.684  1.00 35.26 LIG 0.27  HD
ATOM     34 HZ1  LYS Z  43      -6.962   6.483   1.776  1.00 35.26 LIG 0.27  HD
ENDBRANCH 30 31
ENDBRANCH 29 30
ENDBRANCH 28 29
ENDBRANCH 27 28
ENDBRANCH 12 27
ENDBRANCH 10 12
ENDBRANCH 7 8
BRANCH 7 35
ATOM     35  CB  ILE Z  42     -11.252   8.932  -4.825  1.00 30.84 LIG 0.01  C 
ATOM     36  CG2 ILE Z  42     -11.835   9.977  -5.770  1.00 35.03 LIG 0.01  C 
BRANCH 35 37
ATOM     37  CG1 ILE Z  42     -10.902   9.605  -3.500  1.00 30.67 LIG 0.00  C 
ATOM     38  CD1 ILE Z  42      -9.473  10.112  -3.439  1.00 26.38 LIG 0.01  C 
ENDBRANCH 35 37
ENDBRANCH 7 35
ENDBRANCH 5 7
ENDBRANCH 1 3
BRANCH 1 39
ATOM     39  N   ALA Z  41     -16.160   8.444  -6.133  1.00 17.22 LIG-0.35  N 
ATOM     40  C   ASN Z  40     -16.843   8.595  -5.000  1.00 21.77 LIG 0.24  C 
ATOM     41 O    ASN Z  40     -16.974   7.694  -4.169  1.00 19.61 LIG-0.27  OA
ATOM     42 H    ALA Z  41     -16.060   9.064  -6.720  1.00 17.22 LIG 0.16  HD
BRANCH 40 43
ATOM     43  CA  ASN Z  40     -17.472   9.962  -4.756  1.00 23.64 LIG 0.18  C 
BRANCH 43 44
ATOM     44  N   ASN Z  40     -16.671  11.081  -5.244  1.00 28.07 LIG-0.34  N 
ATOM     45 H    ASN Z  40     -17.080  11.609  -5.786  1.00 28.07 LIG 0.16  HD
ATOM     46  C   SER Z  39     -15.412  11.233  -4.852  1.00 29.35 LIG 0.24  C 
ATOM     47 O    SER Z  39     -14.829  10.413  -4.140  1.00 27.34 LIG-0.27  OA
BRANCH 46 48
ATOM     48  CA  SER Z  39     -14.692  12.483  -5.333  1.00 36.10 LIG 0.20  C 
BRANCH 48 49
ATOM     49  N   SER Z  39     -15.497  13.088  -6.386  1.00 45.98 LIG-0.34  N 
ATOM     50  C   ASN Z  38     -15.585  12.545  -7.596  1.00 57.47 LIG 0.24  C 
ATOM     51 O    ASN Z  38     -14.818  11.663  -7.990  1.00 60.64 LIG-0.27  OA
ATOM     52 H    SER Z  39     -15.899  13.813  -6.155  1.00 45.98 LIG 0.16  HD
BRANCH 50 53
ATOM     53  CA  ASN Z  38     -16.707  13.084  -8.497  1.00 65.29 LIG 0.18  C 
BRANCH 53 54
ATOM     54  N   ASN Z  38     -17.664  14.007  -7.881  1.00 70.64 LIG-0.35  N 
ATOM     55 H    ASN Z  38     -17.501  14.835  -8.049  1.00 70.64 LIG 0.16  HD
ATOM     56  C   ACE Z  37     -18.689  13.604  -7.134  1.00 74.22 LIG 0.21  C 
ATOM     57  CH3 ACE Z  37     -19.604  14.705  -6.602  1.00 75.88 LIG 0.12  C 
ATOM     58 O    ACE Z  37     -18.905  12.423  -6.868  1.00 75.32 LIG-0.27  OA
ENDBRANCH 53 54
BRANCH 53 59
ATOM     59  CB  ASN Z  38     -16.083  13.729  -9.743  1.00 65.91 LIG 0.12  C 
BRANCH 59 60
ATOM     60  CG  ASN Z  38     -15.974  12.768 -10.916  1.00 66.48 LIG 0.15  C 
ATOM     61 OD1  ASN Z  38     -16.980  11.915 -11.068  1.00 67.09 LIG-0.18  OA
ATOM     62  ND2 ASN Z  38     -15.001  12.788 -11.671  1.00 65.12 LIG-0.38  N 
ATOM     63 22HD ASN Z  38     -14.368  13.356 -11.542  1.00 65.12 LIG 0.16  HD
ATOM     64 21HD ASN Z  38     -14.955  12.235 -12.328  1.00 65.12 LIG 0.16  HD
ENDBRANCH 59 60
ENDBRANCH 53 59
ENDBRANCH 50 53
ENDBRANCH 48 49
BRANCH 48 65
ATOM     65  CB  SER Z  39     -14.489  13.442  -4.165  1.00 33.12 LIG 0.20  C 
BRANCH 65 66
ATOM     66 OG   SER Z  39     -15.236  14.637  -4.359  1.00 30.52 LIG-0.40  OA
ATOM     67 HG   SER Z  39     -14.743  15.223  -4.704  1.00 30.52 LIG 0.21  HD
ENDBRANCH 65 66
ENDBRANCH 48 65
ENDBRANCH 46 48
ENDBRANCH 43 44
BRANCH 43 68
ATOM     68  CB  ASN Z  40     -18.882   9.992  -5.349  1.00 19.94 LIG 0.14  C 
BRANCH 68 69
ATOM     69  CG  ASN Z  40     -19.909  10.531  -4.372  1.00 19.97 LIG 0.22  C 
ATOM     70 OD1  ASN Z  40     -20.268   9.860  -3.401  1.00 23.42 LIG-0.27  OA
ATOM     71  ND2 ASN Z  40     -20.398  11.740  -4.627  1.00 19.32 LIG-0.37  N 
ATOM     72 21HD ASN Z  40     -20.989  12.084  -4.106  1.00 19.32 LIG 0.16  HD
ATOM     73 22HD ASN Z  40     -20.123  12.179  -5.314  1.00 19.32 LIG 0.16  HD
ENDBRANCH 68 69
ENDBRANCH 43 68
ENDBRANCH 40 43
ENDBRANCH 1 39
TORSDOF 29
ENDMDL
MODEL 38
USER: ADFR SOLUTION from run 30
USER: SCORE 18.638688 LL:  -5.642 LR: -15.925 RR:   0.000 FEB:  -7.274
USER: RMSD 12.173357
USER: SEED 29
USER: STATUS no improvement in best in 5 clusters for 5 generations
USER: GENES 31
USER: genes 0 Translation |==|  0.55349 0.55780 0.36567
USER: genes 1 Rotation |==|  0.10283 0.61664 0.77387 0.56043
USER: genes 2 Torsion [N]-CA--C-[N] |==|  0.18505
USER: genes 3 Torsion [C]-N--CA-[C] |==|  0.81055
USER: genes 4 Torsion [N]-CA--C-[N] |==|  0.50162
USER: genes 5 Torsion [C]-N--CA-[C] |==|  0.87241
USER: genes 6 Torsion [N]-CA--C-[N] |==|  0.79081
USER: genes 7 Torsion [C]-N--CA-[CB] |==|  0.53585
USER: genes 8 Torsion [N]-CA--CB-[CG] |==|  0.13323
USER: genes 9 Torsion [CA]-CB--CG-[OD1] |==|  0.10513
USER: genes 10 Torsion [N]-CA--C-[N] |==|  0.40349
USER: genes 11 Torsion [N]-CA--CB-[CG] |==|  0.49393
USER: genes 12 Torsion [CA]-CB--CG-[CD] |==|  0.71069
USER: genes 13 Torsion [CB]-CG--CD-[CE] |==|  0.92374
USER: genes 14 Torsion [CG]-CD--CE-[NZ] |==|  0.44839
USER: genes 15 Torsion [CD]-CE--NZ-[HZ3] |==|  0.54143
USER: genes 16 Torsion [N]-CA--CB-[CG1] |==|  0.15622
USER: genes 17 Torsion [CA]-CB--CG1-[CD1] |==|  0.41782
USER: genes 18 Torsion [CB]-CA--N-[C] |==|  0.16284
USER: genes 19 Torsion [N]-C--CA-[N] |==|  0.72620
USER: genes 20 Torsion [C]-CA--N-[C] |==|  0.69791
USER: genes 21 Torsion [N]-C--CA-[N] |==|  0.00545
USER: genes 22 Torsion [C]-CA--N-[C] |==|  0.76315
USER: genes 23 Torsion [N]-C--CA-[N] |==|  0.91111
USER: genes 24 Torsion [C]-CA--N-[C] |==|  0.79162
USER: genes 25 Torsion [C]-CA--CB-[CG] |==|  0.82374
USER: genes 26 Torsion [CA]-CB--CG-[OD1] |==|  0.19525
USER: genes 27 Torsion [C]-CA--CB-[OG] |==|  0.50317
USER: genes 28 Torsion [CA]-CB--OG-[HG] |==|  0.90099
USER: genes 29 Torsion [C]-CA--CB-[CG] |==|  0.32431
USER: genes 30 Torsion [CA]-CB--CG-[OD1] |==|  0.59072
ROOT
ATOM      1  CA  ALA Z  41     -15.696  14.132  -8.371  1.00 21.22 LIG 0.17  C 
ATOM      2  CB  ALA Z  41     -16.981  14.039  -9.192  1.00 23.94 LIG 0.04  C 
ENDROOT
BRANCH 1 3
ATOM      3  C   ALA Z  41     -15.483  15.563  -7.881  1.00 23.72 LIG 0.24  C 
ATOM      4 O    ALA Z  41     -16.368  16.410  -8.006  1.00 25.98 LIG-0.27  OA
ATOM      5  N   ILE Z  42     -14.305  15.832  -7.327  1.00 25.83 LIG-0.35  N 
ATOM      6 H    ILE Z  42     -13.674  15.257  -7.224  1.00 25.83 LIG 0.16  HD
BRANCH 5 7
ATOM      7  CA  ILE Z  42     -13.999  17.172  -6.840  1.00 30.93 LIG 0.18  C 
BRANCH 7 8
ATOM      8  C   ILE Z  42     -13.871  18.187  -7.977  1.00 34.23 LIG 0.24  C 
ATOM      9 O    ILE Z  42     -14.025  17.838  -9.148  1.00 38.88 LIG-0.27  OA
ATOM     10  N   LYS Z  43     -13.580  19.440  -7.636  1.00 34.26 LIG-0.35  N 
ATOM     11 H    LYS Z  43     -13.395  19.697  -6.836  1.00 34.26 LIG 0.16  HD
BRANCH 10 12
ATOM     12  CA  LYS Z  43     -13.556  20.500  -8.643  1.00 43.39 LIG 0.18  C 
BRANCH 12 13
ATOM     13  C   LYS Z  43     -12.811  20.128  -9.925  1.00 55.57 LIG 0.24  C 
ATOM     14  N   ASN Z  44     -11.482  20.115  -9.863  1.00 60.92 LIG-0.34  N 
ATOM     15 H    ASN Z  44     -11.039  20.279  -9.145  1.00 60.92 LIG 0.16  HD
ATOM     16 O    LYS Z  43     -13.441  19.857 -10.950  1.00 61.19 LIG-0.27  OA
BRANCH 14 17
ATOM     17  CA  ASN Z  44     -10.642  19.819 -11.028  1.00 70.44 LIG 0.19  C 
BRANCH 17 18
ATOM     18  CB  ASN Z  44      -9.186  19.559 -10.617  1.00 74.13 LIG 0.14  C 
BRANCH 18 19
ATOM     19  CG  ASN Z  44      -9.068  18.588  -9.455  1.00 76.38 LIG 0.22  C 
ATOM     20  ND2 ASN Z  44      -8.118  18.846  -8.560  1.00 76.67 LIG-0.37  N 
ATOM     21 21HD ASN Z  44      -8.011  18.326  -7.884  1.00 76.67 LIG 0.16  HD
ATOM     22 22HD ASN Z  44      -7.611  19.534  -8.657  1.00 76.67 LIG 0.16  HD
ATOM     23 OD1  ASN Z  44      -9.821  17.617  -9.363  1.00 76.30 LIG-0.27  OA
ENDBRANCH 18 19
ENDBRANCH 17 18
BRANCH 17 24
ATOM     24  C   ASN Z  44     -11.171  18.648 -11.861  1.00 74.17 LIG 0.28  C 
ATOM     25 O    ASN Z  44     -11.729  17.690 -11.322  1.00 72.97 LIG-0.27  OA
ATOM     26  N   NH2 Z  45     -10.988  18.733 -13.175  1.00 76.38 LIG-0.11  N 
ENDBRANCH 17 24
ENDBRANCH 14 17
ENDBRANCH 12 13
BRANCH 12 27
ATOM     27  CB  LYS Z  43     -13.014  21.807  -8.054  1.00 40.99 LIG 0.04  C 
BRANCH 27 28
ATOM     28  CG  LYS Z  43     -12.916  22.936  -9.074  1.00 39.01 LIG 0.00  C 
BRANCH 28 29
ATOM     29  CD  LYS Z  43     -11.481  23.181  -9.523  1.00 38.38 LIG 0.03  C 
BRANCH 29 30
ATOM     30  CE  LYS Z  43     -10.493  22.773  -8.433  1.00 38.40 LIG 0.23  C 
BRANCH 30 31
ATOM     31  NZ  LYS Z  43      -9.105  22.570  -8.950  1.00 35.26 LIG-0.08  N 
ATOM     32 HZ3  LYS Z  43      -8.623  22.133  -8.342  1.00 35.26 LIG 0.27  HD
ATOM     33 HZ2  LYS Z  43      -8.729  23.360  -9.113  1.00 35.26 LIG 0.27  HD
ATOM     34 HZ1  LYS Z  43      -9.135  22.095  -9.702  1.00 35.26 LIG 0.27  HD
ENDBRANCH 30 31
ENDBRANCH 29 30
ENDBRANCH 28 29
ENDBRANCH 27 28
ENDBRANCH 12 27
ENDBRANCH 10 12
ENDBRANCH 7 8
BRANCH 7 35
ATOM     35  CB  ILE Z  42     -12.715  17.199  -5.990  1.00 30.84 LIG 0.01  C 
ATOM     36  CG2 ILE Z  42     -12.898  16.373  -4.722  1.00 35.03 LIG 0.01  C 
BRANCH 35 37
ATOM     37  CG1 ILE Z  42     -11.538  16.635  -6.782  1.00 30.67 LIG 0.00  C 
ATOM     38  CD1 ILE Z  42     -10.200  17.231  -6.383  1.00 26.38 LIG 0.01  C 
ENDBRANCH 35 37
ENDBRANCH 7 35
ENDBRANCH 5 7
ENDBRANCH 1 3
BRANCH 1 39
ATOM     39  N   ALA Z  41     -15.728  13.189  -7.255  1.00 17.22 LIG-0.35  N 
ATOM     40  C   ASN Z  40     -15.871  11.881  -7.453  1.00 21.77 LIG 0.24  C 
ATOM     41 O    ASN Z  40     -15.984  11.379  -8.573  1.00 19.61 LIG-0.27  OA
ATOM     42 H    ALA Z  41     -15.647  13.552  -6.480  1.00 17.22 LIG 0.16  HD
BRANCH 40 43
ATOM     43  CA  ASN Z  40     -15.888  10.997  -6.211  1.00 23.64 LIG 0.18  C 
BRANCH 43 44
ATOM     44  N   ASN Z  40     -14.608  10.359  -5.918  1.00 28.07 LIG-0.34  N 
ATOM     45 H    ASN Z  40     -13.996  10.891  -5.631  1.00 28.07 LIG 0.16  HD
ATOM     46  C   SER Z  39     -14.446   9.053  -6.095  1.00 29.35 LIG 0.24  C 
ATOM     47 O    SER Z  39     -15.317   8.332  -6.587  1.00 27.34 LIG-0.27  OA
BRANCH 46 48
ATOM     48  CA  SER Z  39     -13.111   8.465  -5.666  1.00 36.10 LIG 0.20  C 
BRANCH 48 49
ATOM     49  N   SER Z  39     -12.310   9.538  -5.092  1.00 45.98 LIG-0.34  N 
ATOM     50  C   ASN Z  38     -11.569  10.338  -5.852  1.00 57.47 LIG 0.24  C 
ATOM     51 O    ASN Z  38     -11.305  10.085  -7.029  1.00 60.64 LIG-0.27  OA
ATOM     52 H    SER Z  39     -12.362   9.602  -4.235  1.00 45.98 LIG 0.16  HD
BRANCH 50 53
ATOM     53  CA  ASN Z  38     -11.045  11.614  -5.175  1.00 65.29 LIG 0.18  C 
BRANCH 53 54
ATOM     54  N   ASN Z  38     -11.893  12.211  -4.139  1.00 70.64 LIG-0.35  N 
ATOM     55 H    ASN Z  38     -11.606  12.076  -3.339  1.00 70.64 LIG 0.16  HD
ATOM     56  C   ACE Z  37     -13.001  12.897  -4.409  1.00 74.22 LIG 0.21  C 
ATOM     57  CH3 ACE Z  37     -13.740  13.475  -3.204  1.00 75.88 LIG 0.12  C 
ATOM     58 O    ACE Z  37     -13.429  13.063  -5.549  1.00 75.32 LIG-0.27  OA
ENDBRANCH 53 54
BRANCH 53 59
ATOM     59  CB  ASN Z  38      -9.642  11.344  -4.613  1.00 65.91 LIG 0.12  C 
BRANCH 59 60
ATOM     60  CG  ASN Z  38      -9.635  10.284  -3.523  1.00 66.48 LIG 0.15  C 
ATOM     61 OD1  ASN Z  38      -9.874   9.038  -3.916  1.00 67.09 LIG-0.18  OA
ATOM     62  ND2 ASN Z  38      -9.424  10.578  -2.345  1.00 65.12 LIG-0.38  N 
ATOM     63 22HD ASN Z  38      -9.272  11.396  -2.127  1.00 65.12 LIG 0.16  HD
ATOM     64 21HD ASN Z  38      -9.426   9.966  -1.742  1.00 65.12 LIG 0.16  HD
ENDBRANCH 59 60
ENDBRANCH 53 59
ENDBRANCH 50 53
ENDBRANCH 48 49
BRANCH 48 65
ATOM     65  CB  SER Z  39     -13.343   7.341  -4.660  1.00 33.12 LIG 0.20  C 
BRANCH 65 66
ATOM     66 OG   SER Z  39     -12.104   6.794  -4.225  1.00 30.52 LIG-0.40  OA
ATOM     67 HG   SER Z  39     -11.558   6.793  -4.863  1.00 30.52 LIG 0.21  HD
ENDBRANCH 65 66
ENDBRANCH 48 65
ENDBRANCH 46 48
ENDBRANCH 43 44
BRANCH 43 68
ATOM     68  CB  ASN Z  40     -16.390  11.805  -5.012  1.00 19.94 LIG 0.14  C 
BRANCH 68 69
ATOM     69  CG  ASN Z  40     -17.688  11.259  -4.450  1.00 19.97 LIG 0.22  C 
ATOM     70 OD1  ASN Z  40     -18.525  12.015  -3.949  1.00 23.42 LIG-0.27  OA
ATOM     71  ND2 ASN Z  40     -17.860   9.943  -4.517  1.00 19.32 LIG-0.37  N 
ATOM     72 21HD ASN Z  40     -18.578   9.587  -4.204  1.00 19.32 LIG 0.16  HD
ATOM     73 22HD ASN Z  40     -17.254   9.448  -4.874  1.00 19.32 LIG 0.16  HD
ENDBRANCH 68 69
ENDBRANCH 43 68
ENDBRANCH 40 43
ENDBRANCH 1 39
TORSDOF 29
ENDMDL
MODEL 39
USER: ADFR SOLUTION from run 120
USER: SCORE 19.337859 LL:  -6.194 LR: -15.909 RR:   0.000 FEB:  -7.259
USER: RMSD 11.722062
USER: SEED 119
USER: STATUS searching
USER: GENES 31
USER: genes 0 Translation |==|  0.56279 0.57049 0.38393
USER: genes 1 Rotation |==|  0.14030 0.64557 0.80139 0.59269
USER: genes 2 Torsion [N]-CA--C-[N] |==|  0.63740
USER: genes 3 Torsion [C]-N--CA-[C] |==|  0.20215
USER: genes 4 Torsion [N]-CA--C-[N] |==|  0.04065
USER: genes 5 Torsion [C]-N--CA-[C] |==|  0.19663
USER: genes 6 Torsion [N]-CA--C-[N] |==|  0.96792
USER: genes 7 Torsion [C]-N--CA-[CB] |==|  0.15556
USER: genes 8 Torsion [N]-CA--CB-[CG] |==|  0.66232
USER: genes 9 Torsion [CA]-CB--CG-[OD1] |==|  0.87375
USER: genes 10 Torsion [N]-CA--C-[N] |==|  0.14319
USER: genes 11 Torsion [N]-CA--CB-[CG] |==|  0.57043
USER: genes 12 Torsion [CA]-CB--CG-[CD] |==|  0.05760
USER: genes 13 Torsion [CB]-CG--CD-[CE] |==|  0.49406
USER: genes 14 Torsion [CG]-CD--CE-[NZ] |==|  0.47904
USER: genes 15 Torsion [CD]-CE--NZ-[HZ3] |==|  0.00696
USER: genes 16 Torsion [N]-CA--CB-[CG1] |==|  0.88394
USER: genes 17 Torsion [CA]-CB--CG1-[CD1] |==|  0.36612
USER: genes 18 Torsion [CB]-CA--N-[C] |==|  0.22203
USER: genes 19 Torsion [N]-C--CA-[N] |==|  0.69236
USER: genes 20 Torsion [C]-CA--N-[C] |==|  0.69803
USER: genes 21 Torsion [N]-C--CA-[N] |==|  0.99878
USER: genes 22 Torsion [C]-CA--N-[C] |==|  0.77598
USER: genes 23 Torsion [N]-C--CA-[N] |==|  0.88056
USER: genes 24 Torsion [C]-CA--N-[C] |==|  0.80211
USER: genes 25 Torsion [C]-CA--CB-[CG] |==|  0.73574
USER: genes 26 Torsion [CA]-CB--CG-[OD1] |==|  0.76619
USER: genes 27 Torsion [C]-CA--CB-[OG] |==|  0.56794
USER: genes 28 Torsion [CA]-CB--OG-[HG] |==|  0.80669
USER: genes 29 Torsion [C]-CA--CB-[CG] |==|  0.19214
USER: genes 30 Torsion [CA]-CB--CG-[OD1] |==|  0.13167
ROOT
ATOM      1  CA  ALA Z  41     -15.473  14.427  -7.960  1.00 21.22 LIG 0.17  C 
ATOM      2  CB  ALA Z  41     -16.857  14.642  -8.570  1.00 23.94 LIG 0.04  C 
ENDROOT
BRANCH 1 3
ATOM      3  C   ALA Z  41     -14.924  15.744  -7.414  1.00 23.72 LIG 0.24  C 
ATOM      4 O    ALA Z  41     -13.882  15.768  -6.759  1.00 25.98 LIG-0.27  OA
ATOM      5  N   ILE Z  42     -15.629  16.838  -7.682  1.00 25.83 LIG-0.35  N 
ATOM      6 H    ILE Z  42     -16.356  16.848  -8.141  1.00 25.83 LIG 0.16  HD
BRANCH 5 7
ATOM      7  CA  ILE Z  42     -15.195  18.143  -7.194  1.00 30.93 LIG 0.18  C 
BRANCH 7 8
ATOM      8  C   ILE Z  42     -13.973  18.668  -7.949  1.00 34.23 LIG 0.24  C 
ATOM      9 O    ILE Z  42     -13.323  19.615  -7.506  1.00 38.88 LIG-0.27  OA
ATOM     10  N   LYS Z  43     -13.666  18.061  -9.092  1.00 34.26 LIG-0.35  N 
ATOM     11 H    LYS Z  43     -14.142  17.447  -9.462  1.00 34.26 LIG 0.16  HD
BRANCH 10 12
ATOM     12  CA  LYS Z  43     -12.448  18.415  -9.820  1.00 43.39 LIG 0.18  C 
BRANCH 12 13
ATOM     13  C   LYS Z  43     -11.157  17.957  -9.140  1.00 55.57 LIG 0.24  C 
ATOM     14  N   ASN Z  44     -11.263  17.518  -7.889  1.00 60.92 LIG-0.34  N 
ATOM     15 H    ASN Z  44     -12.010  17.459  -7.468  1.00 60.92 LIG 0.16  HD
ATOM     16 O    LYS Z  43     -10.086  18.004  -9.750  1.00 61.19 LIG-0.27  OA
BRANCH 14 17
ATOM     17  CA  ASN Z  44     -10.101  17.088  -7.104  1.00 70.44 LIG 0.19  C 
BRANCH 17 18
ATOM     18  CB  ASN Z  44      -9.040  18.195  -7.024  1.00 74.13 LIG 0.14  C 
BRANCH 18 19
ATOM     19  CG  ASN Z  44      -7.695  17.761  -7.578  1.00 76.38 LIG 0.22  C 
ATOM     20  ND2 ASN Z  44      -7.082  18.619  -8.389  1.00 76.67 LIG-0.37  N 
ATOM     21 21HD ASN Z  44      -6.318  18.419  -8.729  1.00 76.67 LIG 0.16  HD
ATOM     22 22HD ASN Z  44      -7.450  19.374  -8.573  1.00 76.67 LIG 0.16  HD
ATOM     23 OD1  ASN Z  44      -7.212  16.667  -7.281  1.00 76.30 LIG-0.27  OA
ENDBRANCH 18 19
ENDBRANCH 17 18
BRANCH 17 24
ATOM     24  C   ASN Z  44     -10.474  16.613  -5.698  1.00 74.17 LIG 0.28  C 
ATOM     25 O    ASN Z  44      -9.900  17.064  -4.704  1.00 72.97 LIG-0.27  OA
ATOM     26  N   NH2 Z  45     -11.436  15.699  -5.623  1.00 76.38 LIG-0.11  N 
ENDBRANCH 17 24
ENDBRANCH 14 17
ENDBRANCH 12 13
BRANCH 12 27
ATOM     27  CB  LYS Z  43     -12.405  19.917 -10.121  1.00 40.99 LIG 0.04  C 
BRANCH 27 28
ATOM     28  CG  LYS Z  43     -11.555  20.266 -11.339  1.00 39.01 LIG 0.00  C 
BRANCH 28 29
ATOM     29  CD  LYS Z  43     -11.360  19.071 -12.264  1.00 38.38 LIG 0.03  C 
BRANCH 29 30
ATOM     30  CE  LYS Z  43     -10.552  19.464 -13.497  1.00 38.40 LIG 0.23  C 
BRANCH 30 31
ATOM     31  NZ  LYS Z  43     -10.178  18.292 -14.348  1.00 35.26 LIG-0.08  N 
ATOM     32 HZ3  LYS Z  43     -10.529  17.551 -14.002  1.00 35.26 LIG 0.27  HD
ATOM     33 HZ2  LYS Z  43      -9.292  18.216 -14.376  1.00 35.26 LIG 0.27  HD
ATOM     34 HZ1  LYS Z  43     -10.492  18.412 -15.172  1.00 35.26 LIG 0.27  HD
ENDBRANCH 30 31
ENDBRANCH 29 30
ENDBRANCH 28 29
ENDBRANCH 27 28
ENDBRANCH 12 27
ENDBRANCH 10 12
ENDBRANCH 7 8
BRANCH 7 35
ATOM     35  CB  ILE Z  42     -14.887  18.122  -5.685  1.00 30.84 LIG 0.01  C 
ATOM     36  CG2 ILE Z  42     -14.867  19.540  -5.126  1.00 35.03 LIG 0.01  C 
BRANCH 35 37
ATOM     37  CG1 ILE Z  42     -15.941  17.311  -4.935  1.00 30.67 LIG 0.00  C 
ATOM     38  CD1 ILE Z  42     -15.351  16.303  -3.966  1.00 26.38 LIG 0.01  C 
ENDBRANCH 35 37
ENDBRANCH 7 35
ENDBRANCH 5 7
ENDBRANCH 1 3
BRANCH 1 39
ATOM     39  N   ALA Z  41     -15.520  13.402  -6.920  1.00 17.22 LIG-0.35  N 
ATOM     40  C   ASN Z  40     -15.523  12.105  -7.221  1.00 21.77 LIG 0.24  C 
ATOM     41 O    ASN Z  40     -15.483  11.683  -8.378  1.00 19.61 LIG-0.27  OA
ATOM     42 H    ALA Z  41     -15.546  13.709  -6.118  1.00 17.22 LIG 0.16  HD
BRANCH 40 43
ATOM     43  CA  ASN Z  40     -15.573  11.129  -6.051  1.00 23.64 LIG 0.18  C 
BRANCH 43 44
ATOM     44  N   ASN Z  40     -14.339  10.374  -5.853  1.00 28.07 LIG-0.34  N 
ATOM     45 H    ASN Z  40     -13.678  10.832  -5.548  1.00 28.07 LIG 0.16  HD
ATOM     46  C   SER Z  39     -14.287   9.078  -6.136  1.00 29.35 LIG 0.24  C 
ATOM     47 O    SER Z  39     -15.226   8.467  -6.651  1.00 27.34 LIG-0.27  OA
BRANCH 46 48
ATOM     48  CA  SER Z  39     -12.991   8.356  -5.802  1.00 36.10 LIG 0.20  C 
BRANCH 48 49
ATOM     49  N   SER Z  39     -12.070   9.328  -5.228  1.00 45.98 LIG-0.34  N 
ATOM     50  C   ASN Z  38     -11.364  10.156  -5.992  1.00 57.47 LIG 0.24  C 
ATOM     51 O    ASN Z  38     -11.241  10.000  -7.209  1.00 60.64 LIG-0.27  OA
ATOM     52 H    SER Z  39     -12.028   9.314  -4.369  1.00 45.98 LIG 0.16  HD
BRANCH 50 53
ATOM     53  CA  ASN Z  38     -10.695  11.334  -5.269  1.00 65.29 LIG 0.18  C 
BRANCH 53 54
ATOM     54  N   ASN Z  38     -11.496  12.035  -4.261  1.00 70.64 LIG-0.35  N 
ATOM     55 H    ASN Z  38     -11.237  11.890  -3.454  1.00 70.64 LIG 0.16  HD
ATOM     56  C   ACE Z  37     -12.526  12.820  -4.565  1.00 74.22 LIG 0.21  C 
ATOM     57  CH3 ACE Z  37     -13.224  13.495  -3.387  1.00 75.88 LIG 0.12  C 
ATOM     58 O    ACE Z  37     -12.918  13.002  -5.717  1.00 75.32 LIG-0.27  OA
ENDBRANCH 53 54
BRANCH 53 59
ATOM     59  CB  ASN Z  38      -9.373  10.857  -4.649  1.00 65.91 LIG 0.12  C 
BRANCH 59 60
ATOM     60  CG  ASN Z  38      -9.516  10.451  -3.191  1.00 66.48 LIG 0.15  C 
ATOM     61 OD1  ASN Z  38      -9.445  11.432  -2.300  1.00 67.09 LIG-0.18  OA
ATOM     62  ND2 ASN Z  38      -9.685   9.273  -2.869  1.00 65.12 LIG-0.38  N 
ATOM     63 22HD ASN Z  38      -9.726   8.663  -3.474  1.00 65.12 LIG 0.16  HD
ATOM     64 21HD ASN Z  38      -9.761   9.061  -2.039  1.00 65.12 LIG 0.16  HD
ENDBRANCH 59 60
ENDBRANCH 53 59
ENDBRANCH 50 53
ENDBRANCH 48 49
BRANCH 48 65
ATOM     65  CB  SER Z  39     -13.273   7.213  -4.831  1.00 33.12 LIG 0.20  C 
BRANCH 65 66
ATOM     66 OG   SER Z  39     -12.109   6.893  -4.080  1.00 30.52 LIG-0.40  OA
ATOM     67 HG   SER Z  39     -11.539   6.537  -4.584  1.00 30.52 LIG 0.21  HD
ENDBRANCH 65 66
ENDBRANCH 48 65
ENDBRANCH 46 48
ENDBRANCH 43 44
BRANCH 43 68
ATOM     68  CB  ASN Z  40     -15.972  11.876  -4.776  1.00 19.94 LIG 0.14  C 
BRANCH 68 69
ATOM     69  CG  ASN Z  40     -17.415  12.342  -4.807  1.00 19.97 LIG 0.22  C 
ATOM     70 OD1  ASN Z  40     -18.318  11.575  -5.149  1.00 23.42 LIG-0.27  OA
ATOM     71  ND2 ASN Z  40     -17.640  13.606  -4.463  1.00 19.32 LIG-0.37  N 
ATOM     72 21HD ASN Z  40     -18.442  13.918  -4.474  1.00 19.32 LIG 0.16  HD
ATOM     73 22HD ASN Z  40     -16.984  14.112  -4.230  1.00 19.32 LIG 0.16  HD
ENDBRANCH 68 69
ENDBRANCH 43 68
ENDBRANCH 40 43
ENDBRANCH 1 39
TORSDOF 29
ENDMDL
MODEL 40
USER: ADFR SOLUTION from run 48
USER: SCORE 18.954933 LL:  -6.305 LR: -15.886 RR:   0.000 FEB:  -7.235
USER: RMSD 12.185654
USER: SEED 47
USER: STATUS no improvement in best in 6 clusters for 5 generations
USER: GENES 31
USER: genes 0 Translation |==|  0.55010 0.56661 0.38840
USER: genes 1 Rotation |==|  0.17505 0.62129 0.86013 0.50181
USER: genes 2 Torsion [N]-CA--C-[N] |==|  0.05630
USER: genes 3 Torsion [C]-N--CA-[C] |==|  0.66364
USER: genes 4 Torsion [N]-CA--C-[N] |==|  0.47703
USER: genes 5 Torsion [C]-N--CA-[C] |==|  0.21178
USER: genes 6 Torsion [N]-CA--C-[N] |==|  0.45599
USER: genes 7 Torsion [C]-N--CA-[CB] |==|  0.83434
USER: genes 8 Torsion [N]-CA--CB-[CG] |==|  0.31826
USER: genes 9 Torsion [CA]-CB--CG-[OD1] |==|  0.82499
USER: genes 10 Torsion [N]-CA--C-[N] |==|  0.42645
USER: genes 11 Torsion [N]-CA--CB-[CG] |==|  0.29718
USER: genes 12 Torsion [CA]-CB--CG-[CD] |==|  0.42352
USER: genes 13 Torsion [CB]-CG--CD-[CE] |==|  0.85587
USER: genes 14 Torsion [CG]-CD--CE-[NZ] |==|  0.75322
USER: genes 15 Torsion [CD]-CE--NZ-[HZ3] |==|  0.47331
USER: genes 16 Torsion [N]-CA--CB-[CG1] |==|  0.28971
USER: genes 17 Torsion [CA]-CB--CG1-[CD1] |==|  0.51847
USER: genes 18 Torsion [CB]-CA--N-[C] |==|  0.21111
USER: genes 19 Torsion [N]-C--CA-[N] |==|  0.85365
USER: genes 20 Torsion [C]-CA--N-[C] |==|  0.19945
USER: genes 21 Torsion [N]-C--CA-[N] |==|  0.95664
USER: genes 22 Torsion [C]-CA--N-[C] |==|  0.73796
USER: genes 23 Torsion [N]-C--CA-[N] |==|  0.80351
USER: genes 24 Torsion [C]-CA--N-[C] |==|  0.89954
USER: genes 25 Torsion [C]-CA--CB-[CG] |==|  0.15018
USER: genes 26 Torsion [CA]-CB--CG-[OD1] |==|  0.80083
USER: genes 27 Torsion [C]-CA--CB-[OG] |==|  0.51345
USER: genes 28 Torsion [CA]-CB--OG-[HG] |==|  0.10383
USER: genes 29 Torsion [C]-CA--CB-[CG] |==|  0.29891
USER: genes 30 Torsion [CA]-CB--CG-[OD1] |==|  0.69165
ROOT
ATOM      1  CA  ALA Z  41     -15.778  14.337  -7.860  1.00 21.22 LIG 0.17  C 
ATOM      2  CB  ALA Z  41     -17.279  14.079  -7.962  1.00 23.94 LIG 0.04  C 
ENDROOT
BRANCH 1 3
ATOM      3  C   ALA Z  41     -15.510  15.821  -7.613  1.00 23.72 LIG 0.24  C 
ATOM      4 O    ALA Z  41     -16.209  16.683  -8.146  1.00 25.98 LIG-0.27  OA
ATOM      5  N   ILE Z  42     -14.495  16.116  -6.809  1.00 25.83 LIG-0.35  N 
ATOM      6 H    ILE Z  42     -13.996  15.532  -6.421  1.00 25.83 LIG 0.16  HD
BRANCH 5 7
ATOM      7  CA  ILE Z  42     -14.150  17.504  -6.521  1.00 30.93 LIG 0.18  C 
BRANCH 7 8
ATOM      8  C   ILE Z  42     -12.715  17.841  -6.929  1.00 34.23 LIG 0.24  C 
ATOM      9 O    ILE Z  42     -11.941  16.953  -7.288  1.00 38.88 LIG-0.27  OA
ATOM     10  N   LYS Z  43     -12.357  19.121  -6.866  1.00 34.26 LIG-0.35  N 
ATOM     11 H    LYS Z  43     -12.851  19.750  -6.551  1.00 34.26 LIG 0.16  HD
BRANCH 10 12
ATOM     12  CA  LYS Z  43     -11.046  19.552  -7.349  1.00 43.39 LIG 0.18  C 
BRANCH 12 13
ATOM     13  C   LYS Z  43     -10.935  19.631  -8.873  1.00 55.57 LIG 0.24  C 
ATOM     14  N   ASN Z  44      -9.904  20.314  -9.363  1.00 60.92 LIG-0.34  N 
ATOM     15 H    ASN Z  44      -9.302  20.680  -8.872  1.00 60.92 LIG 0.16  HD
ATOM     16 O    LYS Z  43     -11.777  19.076  -9.583  1.00 61.19 LIG-0.27  OA
BRANCH 14 17
ATOM     17  CA  ASN Z  44      -9.701  20.505 -10.803  1.00 70.44 LIG 0.19  C 
BRANCH 17 18
ATOM     18  CB  ASN Z  44      -9.556  19.161 -11.531  1.00 74.13 LIG 0.14  C 
BRANCH 18 19
ATOM     19  CG  ASN Z  44     -10.696  18.892 -12.499  1.00 76.38 LIG 0.22  C 
ATOM     20  ND2 ASN Z  44     -10.371  18.794 -13.785  1.00 76.67 LIG-0.37  N 
ATOM     21 21HD ASN Z  44     -10.980  18.643 -14.372  1.00 76.67 LIG 0.16  HD
ATOM     22 22HD ASN Z  44      -9.551  18.881 -14.029  1.00 76.67 LIG 0.16  HD
ATOM     23 OD1  ASN Z  44     -11.854  18.775 -12.095  1.00 76.30 LIG-0.27  OA
ENDBRANCH 18 19
ENDBRANCH 17 18
BRANCH 17 24
ATOM     24  C   ASN Z  44     -10.804  21.342 -11.454  1.00 74.17 LIG 0.28  C 
ATOM     25 O    ASN Z  44     -11.939  21.377 -10.973  1.00 72.97 LIG-0.27  OA
ATOM     26  N   NH2 Z  45     -10.464  22.010 -12.552  1.00 76.38 LIG-0.11  N 
ENDBRANCH 17 24
ENDBRANCH 14 17
ENDBRANCH 12 13
BRANCH 12 27
ATOM     27  CB  LYS Z  43      -9.929  18.681  -6.763  1.00 40.99 LIG 0.04  C 
BRANCH 27 28
ATOM     28  CG  LYS Z  43      -9.318  17.718  -7.776  1.00 39.01 LIG 0.00  C 
BRANCH 28 29
ATOM     29  CD  LYS Z  43      -7.872  17.376  -7.441  1.00 38.38 LIG 0.03  C 
BRANCH 29 30
ATOM     30  CE  LYS Z  43      -7.048  18.643  -7.228  1.00 38.40 LIG 0.23  C 
BRANCH 30 31
ATOM     31  NZ  LYS Z  43      -6.441  19.163  -8.492  1.00 35.26 LIG-0.08  N 
ATOM     32 HZ3  LYS Z  43      -6.091  19.969  -8.344  1.00 35.26 LIG 0.27  HD
ATOM     33 HZ2  LYS Z  43      -7.068  19.223  -9.121  1.00 35.26 LIG 0.27  HD
ATOM     34 HZ1  LYS Z  43      -5.800  18.608  -8.764  1.00 35.26 LIG 0.27  HD
ENDBRANCH 30 31
ENDBRANCH 29 30
ENDBRANCH 28 29
ENDBRANCH 27 28
ENDBRANCH 12 27
ENDBRANCH 10 12
ENDBRANCH 7 8
BRANCH 7 35
ATOM     35  CB  ILE Z  42     -14.349  17.853  -5.034  1.00 30.84 LIG 0.01  C 
ATOM     36  CG2 ILE Z  42     -15.216  16.800  -4.352  1.00 35.03 LIG 0.01  C 
BRANCH 35 37
ATOM     37  CG1 ILE Z  42     -13.004  17.925  -4.317  1.00 30.67 LIG 0.00  C 
ATOM     38  CD1 ILE Z  42     -13.129  18.107  -2.816  1.00 26.38 LIG 0.01  C 
ENDBRANCH 35 37
ENDBRANCH 7 35
ENDBRANCH 5 7
ENDBRANCH 1 3
BRANCH 1 39
ATOM     39  N   ALA Z  41     -15.182  13.511  -6.812  1.00 17.22 LIG-0.35  N 
ATOM     40  C   ASN Z  40     -14.957  12.211  -6.994  1.00 21.77 LIG 0.24  C 
ATOM     41 O    ASN Z  40     -15.229  11.622  -8.042  1.00 19.61 LIG-0.27  OA
ATOM     42 H    ALA Z  41     -14.996  13.934  -6.087  1.00 17.22 LIG 0.16  HD
BRANCH 40 43
ATOM     43  CA  ASN Z  40     -14.330  11.454  -5.829  1.00 23.64 LIG 0.18  C 
BRANCH 43 44
ATOM     44  N   ASN Z  40     -13.104  12.060  -5.318  1.00 28.07 LIG-0.34  N 
ATOM     45 H    ASN Z  40     -12.382  11.629  -5.503  1.00 28.07 LIG 0.16  HD
ATOM     46  C   SER Z  39     -13.147  13.192  -4.625  1.00 29.35 LIG 0.24  C 
ATOM     47 O    SER Z  39     -14.203  13.741  -4.305  1.00 27.34 LIG-0.27  OA
BRANCH 46 48
ATOM     48  CA  SER Z  39     -11.811  13.798  -4.223  1.00 36.10 LIG 0.20  C 
BRANCH 48 49
ATOM     49  N   SER Z  39     -10.785  12.777  -4.388  1.00 45.98 LIG-0.34  N 
ATOM     50  C   ASN Z  38     -10.401  12.005  -3.377  1.00 57.47 LIG 0.24  C 
ATOM     51 O    ASN Z  38     -10.682  12.252  -2.202  1.00 60.64 LIG-0.27  OA
ATOM     52 H    SER Z  39     -10.461  12.724  -5.183  1.00 45.98 LIG 0.16  HD
BRANCH 50 53
ATOM     53  CA  ASN Z  38      -9.570  10.768  -3.751  1.00 65.29 LIG 0.18  C 
BRANCH 53 54
ATOM     54  N   ASN Z  38     -10.271   9.682  -4.442  1.00 70.64 LIG-0.35  N 
ATOM     55 H    ASN Z  38      -9.792   9.286  -5.036  1.00 70.64 LIG 0.16  HD
ATOM     56  C   ACE Z  37     -11.530   9.342  -4.175  1.00 74.22 LIG 0.21  C 
ATOM     57  CH3 ACE Z  37     -12.087   8.163  -4.970  1.00 75.88 LIG 0.12  C 
ATOM     58 O    ACE Z  37     -12.226   9.929  -3.348  1.00 75.32 LIG-0.27  OA
ENDBRANCH 53 54
BRANCH 53 59
ATOM     59  CB  ASN Z  38      -8.353  11.213  -4.576  1.00 65.91 LIG 0.12  C 
BRANCH 59 60
ATOM     60  CG  ASN Z  38      -7.526  12.284  -3.881  1.00 66.48 LIG 0.15  C 
ATOM     61 OD1  ASN Z  38      -8.071  13.493  -3.815  1.00 67.09 LIG-0.18  OA
ATOM     62  ND2 ASN Z  38      -6.414  12.030  -3.414  1.00 65.12 LIG-0.38  N 
ATOM     63 22HD ASN Z  38      -6.093  11.235  -3.475  1.00 65.12 LIG 0.16  HD
ATOM     64 21HD ASN Z  38      -5.959  12.649  -3.026  1.00 65.12 LIG 0.16  HD
ENDBRANCH 59 60
ENDBRANCH 53 59
ENDBRANCH 50 53
ENDBRANCH 48 49
BRANCH 48 65
ATOM     65  CB  SER Z  39     -11.522  15.025  -5.083  1.00 33.12 LIG 0.20  C 
BRANCH 65 66
ATOM     66 OG   SER Z  39     -10.228  15.543  -4.800  1.00 30.52 LIG-0.40  OA
ATOM     67 HG   SER Z  39      -9.697  14.908  -4.659  1.00 30.52 LIG 0.21  HD
ENDBRANCH 65 66
ENDBRANCH 48 65
ENDBRANCH 46 48
ENDBRANCH 43 44
BRANCH 43 68
ATOM     68  CB  ASN Z  40     -15.363  11.276  -4.715  1.00 19.94 LIG 0.14  C 
BRANCH 68 69
ATOM     69  CG  ASN Z  40     -15.853   9.845  -4.605  1.00 19.97 LIG 0.22  C 
ATOM     70 OD1  ASN Z  40     -17.010   9.549  -4.913  1.00 23.42 LIG-0.27  OA
ATOM     71  ND2 ASN Z  40     -14.981   8.950  -4.152  1.00 19.32 LIG-0.37  N 
ATOM     72 21HD ASN Z  40     -15.216   8.127  -4.064  1.00 19.32 LIG 0.16  HD
ATOM     73 22HD ASN Z  40     -14.182   9.194  -3.947  1.00 19.32 LIG 0.16  HD
ENDBRANCH 68 69
ENDBRANCH 43 68
ENDBRANCH 40 43
ENDBRANCH 1 39
TORSDOF 29
ENDMDL
MODEL 41
USER: ADFR SOLUTION from run 77
USER: SCORE 19.035174 LL:  -5.654 LR: -15.883 RR:   0.000 FEB:  -7.232
USER: RMSD 11.150737
USER: SEED 76
USER: STATUS no improvement in best in 7 clusters for 5 generations
USER: GENES 31
USER: genes 0 Translation |==|  0.55393 0.56979 0.42025
USER: genes 1 Rotation |==|  0.94851 0.34108 0.60810 0.60908
USER: genes 2 Torsion [N]-CA--C-[N] |==|  0.22455
USER: genes 3 Torsion [C]-N--CA-[C] |==|  0.69652
USER: genes 4 Torsion [N]-CA--C-[N] |==|  0.38271
USER: genes 5 Torsion [C]-N--CA-[C] |==|  0.57955
USER: genes 6 Torsion [N]-CA--C-[N] |==|  0.02187
USER: genes 7 Torsion [C]-N--CA-[CB] |==|  0.78315
USER: genes 8 Torsion [N]-CA--CB-[CG] |==|  0.91067
USER: genes 9 Torsion [CA]-CB--CG-[OD1] |==|  0.37609
USER: genes 10 Torsion [N]-CA--C-[N] |==|  0.18336
USER: genes 11 Torsion [N]-CA--CB-[CG] |==|  0.54053
USER: genes 12 Torsion [CA]-CB--CG-[CD] |==|  0.18545
USER: genes 13 Torsion [CB]-CG--CD-[CE] |==|  0.67106
USER: genes 14 Torsion [CG]-CD--CE-[NZ] |==|  0.93174
USER: genes 15 Torsion [CD]-CE--NZ-[HZ3] |==|  0.83904
USER: genes 16 Torsion [N]-CA--CB-[CG1] |==|  0.46632
USER: genes 17 Torsion [CA]-CB--CG1-[CD1] |==|  0.19807
USER: genes 18 Torsion [CB]-CA--N-[C] |==|  0.78877
USER: genes 19 Torsion [N]-C--CA-[N] |==|  0.87222
USER: genes 20 Torsion [C]-CA--N-[C] |==|  0.78388
USER: genes 21 Torsion [N]-C--CA-[N] |==|  0.42736
USER: genes 22 Torsion [C]-CA--N-[C] |==|  0.60085
USER: genes 23 Torsion [N]-C--CA-[N] |==|  0.79066
USER: genes 24 Torsion [C]-CA--N-[C] |==|  0.17482
USER: genes 25 Torsion [C]-CA--CB-[CG] |==|  0.20809
USER: genes 26 Torsion [CA]-CB--CG-[OD1] |==|  0.65068
USER: genes 27 Torsion [C]-CA--CB-[OG] |==|  0.64103
USER: genes 28 Torsion [CA]-CB--OG-[HG] |==|  0.89031
USER: genes 29 Torsion [C]-CA--CB-[CG] |==|  0.15738
USER: genes 30 Torsion [CA]-CB--CG-[OD1] |==|  0.15446
ROOT
ATOM      1  CA  ALA Z  41     -15.686  14.411  -7.143  1.00 21.22 LIG 0.17  C 
ATOM      2  CB  ALA Z  41     -15.520  13.051  -7.818  1.00 23.94 LIG 0.04  C 
ENDROOT
BRANCH 1 3
ATOM      3  C   ALA Z  41     -15.261  15.529  -8.093  1.00 23.72 LIG 0.24  C 
ATOM      4 O    ALA Z  41     -15.274  15.359  -9.313  1.00 25.98 LIG-0.27  OA
ATOM      5  N   ILE Z  42     -14.880  16.672  -7.532  1.00 25.83 LIG-0.35  N 
ATOM      6 H    ILE Z  42     -14.867  16.817  -6.685  1.00 25.83 LIG 0.16  HD
BRANCH 5 7
ATOM      7  CA  ILE Z  42     -14.443  17.796  -8.353  1.00 30.93 LIG 0.18  C 
BRANCH 7 8
ATOM      8  C   ILE Z  42     -12.938  18.049  -8.237  1.00 34.23 LIG 0.24  C 
ATOM      9 O    ILE Z  42     -12.379  18.003  -7.140  1.00 38.88 LIG-0.27  OA
ATOM     10  N   LYS Z  43     -12.285  18.324  -9.363  1.00 34.26 LIG-0.35  N 
ATOM     11 H    LYS Z  43     -12.660  18.435 -10.129  1.00 34.26 LIG 0.16  HD
BRANCH 10 12
ATOM     12  CA  LYS Z  43     -10.830  18.461  -9.365  1.00 43.39 LIG 0.18  C 
BRANCH 12 13
ATOM     13  C   LYS Z  43     -10.292  19.401 -10.445  1.00 55.57 LIG 0.24  C 
ATOM     14  N   ASN Z  44     -11.192  20.097 -11.135  1.00 60.92 LIG-0.34  N 
ATOM     15 H    ASN Z  44     -12.037  20.060 -10.985  1.00 60.92 LIG 0.16  HD
ATOM     16 O    LYS Z  43      -9.078  19.486 -10.642  1.00 61.19 LIG-0.27  OA
BRANCH 14 17
ATOM     17  CA  ASN Z  44     -10.818  21.002 -12.227  1.00 70.44 LIG 0.19  C 
BRANCH 17 18
ATOM     18  CB  ASN Z  44     -10.275  22.334 -11.690  1.00 74.13 LIG 0.14  C 
BRANCH 18 19
ATOM     19  CG  ASN Z  44     -10.917  22.743 -10.376  1.00 76.38 LIG 0.22  C 
ATOM     20  ND2 ASN Z  44     -12.239  22.613 -10.296  1.00 76.67 LIG-0.37  N 
ATOM     21 21HD ASN Z  44     -12.649  22.832  -9.573  1.00 76.67 LIG 0.16  HD
ATOM     22 22HD ASN Z  44     -12.683  22.310 -10.967  1.00 76.67 LIG 0.16  HD
ATOM     23 OD1  ASN Z  44     -10.234  23.170  -9.444  1.00 76.30 LIG-0.27  OA
ENDBRANCH 18 19
ENDBRANCH 17 18
BRANCH 17 24
ATOM     24  C   ASN Z  44      -9.815  20.378 -13.200  1.00 74.17 LIG 0.28  C 
ATOM     25 O    ASN Z  44      -8.671  20.826 -13.304  1.00 72.97 LIG-0.27  OA
ATOM     26  N   NH2 Z  45     -10.253  19.345 -13.913  1.00 76.38 LIG-0.11  N 
ENDBRANCH 17 24
ENDBRANCH 14 17
ENDBRANCH 12 13
BRANCH 12 27
ATOM     27  CB  LYS Z  43     -10.148  17.091  -9.442  1.00 40.99 LIG 0.04  C 
BRANCH 27 28
ATOM     28  CG  LYS Z  43      -8.663  17.133  -9.097  1.00 39.01 LIG 0.00  C 
BRANCH 28 29
ATOM     29  CD  LYS Z  43      -8.424  17.486  -7.635  1.00 38.38 LIG 0.03  C 
BRANCH 29 30
ATOM     30  CE  LYS Z  43      -7.634  18.786  -7.512  1.00 38.40 LIG 0.23  C 
BRANCH 30 31
ATOM     31  NZ  LYS Z  43      -6.805  19.082  -8.721  1.00 35.26 LIG-0.08  N 
ATOM     32 HZ3  LYS Z  43      -6.242  18.408  -8.867  1.00 35.26 LIG 0.27  HD
ATOM     33 HZ2  LYS Z  43      -6.342  19.831  -8.588  1.00 35.26 LIG 0.27  HD
ATOM     34 HZ1  LYS Z  43      -7.336  19.183  -9.427  1.00 35.26 LIG 0.27  HD
ENDBRANCH 30 31
ENDBRANCH 29 30
ENDBRANCH 28 29
ENDBRANCH 27 28
ENDBRANCH 12 27
ENDBRANCH 10 12
ENDBRANCH 7 8
BRANCH 7 35
ATOM     35  CB  ILE Z  42     -15.201  19.092  -8.010  1.00 30.84 LIG 0.01  C 
ATOM     36  CG2 ILE Z  42     -15.239  19.303  -6.501  1.00 35.03 LIG 0.01  C 
BRANCH 35 37
ATOM     37  CG1 ILE Z  42     -14.526  20.296  -8.661  1.00 30.67 LIG 0.00  C 
ATOM     38  CD1 ILE Z  42     -14.702  20.347 -10.167  1.00 26.38 LIG 0.01  C 
ENDBRANCH 35 37
ENDBRANCH 7 35
ENDBRANCH 5 7
ENDBRANCH 1 3
BRANCH 1 39
ATOM     39  N   ALA Z  41     -17.062  14.597  -6.689  1.00 17.22 LIG-0.35  N 
ATOM     40  C   ASN Z  40     -18.043  14.888  -7.541  1.00 21.77 LIG 0.24  C 
ATOM     41 O    ASN Z  40     -17.863  15.017  -8.754  1.00 19.61 LIG-0.27  OA
ATOM     42 H    ALA Z  41     -17.173  14.503  -5.842  1.00 17.22 LIG 0.16  HD
BRANCH 40 43
ATOM     43  CA  ASN Z  40     -19.437  15.058  -6.950  1.00 23.64 LIG 0.18  C 
BRANCH 43 44
ATOM     44  N   ASN Z  40     -19.812  14.013  -6.001  1.00 28.07 LIG-0.34  N 
ATOM     45 H    ASN Z  40     -19.759  14.240  -5.173  1.00 28.07 LIG 0.16  HD
ATOM     46  C   SER Z  39     -20.199  12.818  -6.430  1.00 29.35 LIG 0.24  C 
ATOM     47 O    SER Z  39     -20.184  12.496  -7.620  1.00 27.34 LIG-0.27  OA
BRANCH 46 48
ATOM     48  CA  SER Z  39     -20.667  11.830  -5.372  1.00 36.10 LIG 0.20  C 
BRANCH 48 49
ATOM     49  N   SER Z  39     -21.590  10.897  -6.004  1.00 45.98 LIG-0.34  N 
ATOM     50  C   ASN Z  38     -22.652  10.422  -5.360  1.00 57.47 LIG 0.24  C 
ATOM     51 O    ASN Z  38     -22.793  10.525  -4.139  1.00 60.64 LIG-0.27  OA
ATOM     52 H    SER Z  39     -21.387  10.689  -6.814  1.00 45.98 LIG 0.16  HD
BRANCH 50 53
ATOM     53  CA  ASN Z  38     -23.709   9.723  -6.228  1.00 65.29 LIG 0.18  C 
BRANCH 53 54
ATOM     54  N   ASN Z  38     -24.577  10.584  -7.036  1.00 70.64 LIG-0.35  N 
ATOM     55 H    ASN Z  38     -25.409  10.532  -6.823  1.00 70.64 LIG 0.16  HD
ATOM     56  C   ACE Z  37     -24.123  11.371  -8.008  1.00 74.22 LIG 0.21  C 
ATOM     57  CH3 ACE Z  37     -25.168  12.224  -8.723  1.00 75.88 LIG 0.12  C 
ATOM     58 O    ACE Z  37     -22.938  11.422  -8.335  1.00 75.32 LIG-0.27  OA
ENDBRANCH 53 54
BRANCH 53 59
ATOM     59  CB  ASN Z  38     -23.017   8.687  -7.125  1.00 65.91 LIG 0.12  C 
BRANCH 59 60
ATOM     60  CG  ASN Z  38     -22.593   7.438  -6.368  1.00 66.48 LIG 0.15  C 
ATOM     61 OD1  ASN Z  38     -21.314   7.096  -6.474  1.00 67.09 LIG-0.18  OA
ATOM     62  ND2 ASN Z  38     -23.401   6.788  -5.702  1.00 65.12 LIG-0.38  N 
ATOM     63 22HD ASN Z  38     -24.222   7.040  -5.656  1.00 65.12 LIG 0.16  HD
ATOM     64 21HD ASN Z  38     -23.143   6.083  -5.283  1.00 65.12 LIG 0.16  HD
ENDBRANCH 59 60
ENDBRANCH 53 59
ENDBRANCH 50 53
ENDBRANCH 48 49
BRANCH 48 65
ATOM     65  CB  SER Z  39     -19.464  11.107  -4.775  1.00 33.12 LIG 0.20  C 
BRANCH 65 66
ATOM     66 OG   SER Z  39     -19.664   9.699  -4.795  1.00 30.52 LIG-0.40  OA
ATOM     67 HG   SER Z  39     -20.462   9.526  -4.602  1.00 30.52 LIG 0.21  HD
ENDBRANCH 65 66
ENDBRANCH 48 65
ENDBRANCH 46 48
ENDBRANCH 43 44
BRANCH 43 68
ATOM     68  CB  ASN Z  40     -19.563  16.447  -6.319  1.00 19.94 LIG 0.14  C 
BRANCH 68 69
ATOM     69  CG  ASN Z  40     -19.265  17.559  -7.306  1.00 19.97 LIG 0.22  C 
ATOM     70 OD1  ASN Z  40     -19.885  17.641  -8.369  1.00 23.42 LIG-0.27  OA
ATOM     71  ND2 ASN Z  40     -18.307  18.415  -6.967  1.00 19.32 LIG-0.37  N 
ATOM     72 21HD ASN Z  40     -18.097  19.058  -7.499  1.00 19.32 LIG 0.16  HD
ATOM     73 22HD ASN Z  40     -17.897  18.326  -6.216  1.00 19.32 LIG 0.16  HD
ENDBRANCH 68 69
ENDBRANCH 43 68
ENDBRANCH 40 43
ENDBRANCH 1 39
TORSDOF 29
ENDMDL
MODEL 42
USER: ADFR SOLUTION from run 45
USER: SCORE 19.832262 LL:  -5.865 LR: -15.849 RR:   0.000 FEB:  -7.199
USER: RMSD 11.886329
USER: SEED 44
USER: STATUS searching
USER: GENES 31
USER: genes 0 Translation |==|  0.56819 0.51146 0.32465
USER: genes 1 Rotation |==|  0.06240 0.51513 0.74139 0.50340
USER: genes 2 Torsion [N]-CA--C-[N] |==|  0.16272
USER: genes 3 Torsion [C]-N--CA-[C] |==|  0.62033
USER: genes 4 Torsion [N]-CA--C-[N] |==|  0.93287
USER: genes 5 Torsion [C]-N--CA-[C] |==|  0.80841
USER: genes 6 Torsion [N]-CA--C-[N] |==|  0.99324
USER: genes 7 Torsion [C]-N--CA-[CB] |==|  0.86631
USER: genes 8 Torsion [N]-CA--CB-[CG] |==|  0.32507
USER: genes 9 Torsion [CA]-CB--CG-[OD1] |==|  0.22706
USER: genes 10 Torsion [N]-CA--C-[N] |==|  0.37502
USER: genes 11 Torsion [N]-CA--CB-[CG] |==|  0.27010
USER: genes 12 Torsion [CA]-CB--CG-[CD] |==|  0.33109
USER: genes 13 Torsion [CB]-CG--CD-[CE] |==|  0.65205
USER: genes 14 Torsion [CG]-CD--CE-[NZ] |==|  0.48831
USER: genes 15 Torsion [CD]-CE--NZ-[HZ3] |==|  0.76980
USER: genes 16 Torsion [N]-CA--CB-[CG1] |==|  0.84197
USER: genes 17 Torsion [CA]-CB--CG1-[CD1] |==|  0.79205
USER: genes 18 Torsion [CB]-CA--N-[C] |==|  0.80818
USER: genes 19 Torsion [N]-C--CA-[N] |==|  0.91427
USER: genes 20 Torsion [C]-CA--N-[C] |==|  0.66279
USER: genes 21 Torsion [N]-C--CA-[N] |==|  0.15556
USER: genes 22 Torsion [C]-CA--N-[C] |==|  0.15467
USER: genes 23 Torsion [N]-C--CA-[N] |==|  0.12837
USER: genes 24 Torsion [C]-CA--N-[C] |==|  0.14767
USER: genes 25 Torsion [C]-CA--CB-[CG] |==|  0.29207
USER: genes 26 Torsion [CA]-CB--CG-[OD1] |==|  0.60565
USER: genes 27 Torsion [C]-CA--CB-[OG] |==|  0.49439
USER: genes 28 Torsion [CA]-CB--OG-[HG] |==|  0.19847
USER: genes 29 Torsion [C]-CA--CB-[CG] |==|  0.84807
USER: genes 30 Torsion [CA]-CB--CG-[OD1] |==|  0.88944
ROOT
ATOM      1  CA  ALA Z  41     -15.343  13.055  -9.294  1.00 21.22 LIG 0.17  C 
ATOM      2  CB  ALA Z  41     -16.271  12.417 -10.327  1.00 23.94 LIG 0.04  C 
ENDROOT
BRANCH 1 3
ATOM      3  C   ALA Z  41     -15.896  14.408  -8.849  1.00 23.72 LIG 0.24  C 
ATOM      4 O    ALA Z  41     -16.965  14.827  -9.293  1.00 25.98 LIG-0.27  OA
ATOM      5  N   ILE Z  42     -15.164  15.090  -7.976  1.00 25.83 LIG-0.35  N 
ATOM      6 H    ILE Z  42     -14.417  14.816  -7.648  1.00 25.83 LIG 0.16  HD
BRANCH 5 7
ATOM      7  CA  ILE Z  42     -15.599  16.399  -7.500  1.00 30.93 LIG 0.18  C 
BRANCH 7 8
ATOM      8  C   ILE Z  42     -14.451  17.410  -7.454  1.00 34.23 LIG 0.24  C 
ATOM      9 O    ILE Z  42     -14.679  18.618  -7.522  1.00 38.88 LIG-0.27  OA
ATOM     10  N   LYS Z  43     -13.220  16.918  -7.348  1.00 34.26 LIG-0.35  N 
ATOM     11 H    LYS Z  43     -13.026  16.081  -7.372  1.00 34.26 LIG 0.16  HD
BRANCH 10 12
ATOM     12  CA  LYS Z  43     -12.074  17.810  -7.177  1.00 43.39 LIG 0.18  C 
BRANCH 12 13
ATOM     13  C   LYS Z  43     -11.751  18.657  -8.409  1.00 55.57 LIG 0.24  C 
ATOM     14  N   ASN Z  44     -12.502  18.453  -9.489  1.00 60.92 LIG-0.34  N 
ATOM     15 H    ASN Z  44     -13.158  17.899  -9.513  1.00 60.92 LIG 0.16  HD
ATOM     16 O    LYS Z  43     -10.834  19.481  -8.371  1.00 61.19 LIG-0.27  OA
BRANCH 14 17
ATOM     17  CA  ASN Z  44     -12.274  19.165 -10.751  1.00 70.44 LIG 0.19  C 
BRANCH 17 18
ATOM     18  CB  ASN Z  44     -12.119  20.675 -10.522  1.00 74.13 LIG 0.14  C 
BRANCH 18 19
ATOM     19  CG  ASN Z  44     -10.748  21.191 -10.922  1.00 76.38 LIG 0.22  C 
ATOM     20  ND2 ASN Z  44      -9.863  21.346  -9.941  1.00 76.67 LIG-0.37  N 
ATOM     21 21HD ASN Z  44      -9.073  21.636 -10.115  1.00 76.67 LIG 0.16  HD
ATOM     22 22HD ASN Z  44     -10.081  21.155  -9.131  1.00 76.67 LIG 0.16  HD
ATOM     23 OD1  ASN Z  44     -10.487  21.449 -12.098  1.00 76.30 LIG-0.27  OA
ENDBRANCH 18 19
ENDBRANCH 17 18
BRANCH 17 24
ATOM     24  C   ASN Z  44     -11.074  18.624 -11.532  1.00 74.17 LIG 0.28  C 
ATOM     25 O    ASN Z  44     -10.007  18.381 -10.964  1.00 72.97 LIG-0.27  OA
ATOM     26  N   NH2 Z  45     -11.257  18.441 -12.836  1.00 76.38 LIG-0.11  N 
ENDBRANCH 17 24
ENDBRANCH 14 17
ENDBRANCH 12 13
BRANCH 12 27
ATOM     27  CB  LYS Z  43     -10.838  17.035  -6.707  1.00 40.99 LIG 0.04  C 
BRANCH 27 28
ATOM     28  CG  LYS Z  43      -9.890  16.660  -7.841  1.00 39.01 LIG 0.00  C 
BRANCH 28 29
ATOM     29  CD  LYS Z  43      -8.508  17.274  -7.660  1.00 38.38 LIG 0.03  C 
BRANCH 29 30
ATOM     30  CE  LYS Z  43      -8.106  18.081  -8.891  1.00 38.40 LIG 0.23  C 
BRANCH 30 31
ATOM     31  NZ  LYS Z  43      -6.799  18.788  -8.724  1.00 35.26 LIG-0.08  N 
ATOM     32 HZ3  LYS Z  43      -6.929  19.554  -8.289  1.00 35.26 LIG 0.27  HD
ATOM     33 HZ2  LYS Z  43      -6.448  18.958  -9.524  1.00 35.26 LIG 0.27  HD
ATOM     34 HZ1  LYS Z  43      -6.240  18.274  -8.259  1.00 35.26 LIG 0.27  HD
ENDBRANCH 30 31
ENDBRANCH 29 30
ENDBRANCH 28 29
ENDBRANCH 27 28
ENDBRANCH 12 27
ENDBRANCH 10 12
ENDBRANCH 7 8
BRANCH 7 35
ATOM     35  CB  ILE Z  42     -16.258  16.318  -6.110  1.00 30.84 LIG 0.01  C 
ATOM     36  CG2 ILE Z  42     -16.755  17.693  -5.676  1.00 35.03 LIG 0.01  C 
BRANCH 35 37
ATOM     37  CG1 ILE Z  42     -17.439  15.352  -6.133  1.00 30.67 LIG 0.00  C 
ATOM     38  CD1 ILE Z  42     -18.667  15.913  -6.826  1.00 26.38 LIG 0.01  C 
ENDBRANCH 35 37
ENDBRANCH 7 35
ENDBRANCH 5 7
ENDBRANCH 1 3
BRANCH 1 39
ATOM     39  N   ALA Z  41     -15.149  12.162  -8.154  1.00 17.22 LIG-0.35  N 
ATOM     40  C   ASN Z  40     -16.136  11.897  -7.301  1.00 21.77 LIG 0.24  C 
ATOM     41 O    ASN Z  40     -17.266  12.375  -7.412  1.00 19.61 LIG-0.27  OA
ATOM     42 H    ALA Z  41     -14.357  11.834  -8.090  1.00 17.22 LIG 0.16  HD
BRANCH 40 43
ATOM     43  CA  ASN Z  40     -15.813  10.950  -6.151  1.00 23.64 LIG 0.18  C 
BRANCH 43 44
ATOM     44  N   ASN Z  40     -14.804   9.945  -6.474  1.00 28.07 LIG-0.34  N 
ATOM     45 H    ASN Z  40     -14.044  10.262  -6.723  1.00 28.07 LIG 0.16  HD
ATOM     46  C   SER Z  39     -15.083   8.650  -6.376  1.00 29.35 LIG 0.24  C 
ATOM     47 O    SER Z  39     -16.207   8.227  -6.097  1.00 27.34 LIG-0.27  OA
BRANCH 46 48
ATOM     48  CA  SER Z  39     -13.939   7.683  -6.634  1.00 36.10 LIG 0.20  C 
BRANCH 48 49
ATOM     49  N   SER Z  39     -12.851   8.019  -5.725  1.00 45.98 LIG-0.34  N 
ATOM     50  C   ASN Z  38     -13.032   8.069  -4.409  1.00 57.47 LIG 0.24  C 
ATOM     51 O    ASN Z  38     -14.149   8.089  -3.889  1.00 60.64 LIG-0.27  OA
ATOM     52 H    SER Z  39     -12.100   8.178  -6.113  1.00 45.98 LIG 0.16  HD
BRANCH 50 53
ATOM     53  CA  ASN Z  38     -11.756   8.106  -3.555  1.00 65.29 LIG 0.18  C 
BRANCH 53 54
ATOM     54  N   ASN Z  38     -10.704   9.038  -3.974  1.00 70.64 LIG-0.35  N 
ATOM     55 H    ASN Z  38      -9.934   8.668  -4.071  1.00 70.64 LIG 0.16  HD
ATOM     56  C   ACE Z  37     -10.921  10.334  -4.185  1.00 74.22 LIG 0.21  C 
ATOM     57  CH3 ACE Z  37      -9.715  11.147  -4.650  1.00 75.88 LIG 0.12  C 
ATOM     58 O    ACE Z  37     -12.014  10.871  -4.016  1.00 75.32 LIG-0.27  OA
ENDBRANCH 53 54
BRANCH 53 59
ATOM     59  CB  ASN Z  38     -12.139   8.373  -2.092  1.00 65.91 LIG 0.12  C 
BRANCH 59 60
ATOM     60  CG  ASN Z  38     -12.038   7.132  -1.219  1.00 66.48 LIG 0.15  C 
ATOM     61 OD1  ASN Z  38     -12.979   6.991  -0.293  1.00 67.09 LIG-0.18  OA
ATOM     62  ND2 ASN Z  38     -11.128   6.315  -1.370  1.00 65.12 LIG-0.38  N 
ATOM     63 22HD ASN Z  38     -10.536   6.439  -1.981  1.00 65.12 LIG 0.16  HD
ATOM     64 21HD ASN Z  38     -11.086   5.620  -0.865  1.00 65.12 LIG 0.16  HD
ENDBRANCH 59 60
ENDBRANCH 53 59
ENDBRANCH 50 53
ENDBRANCH 48 49
BRANCH 48 65
ATOM     65  CB  SER Z  39     -14.419   6.250  -6.424  1.00 33.12 LIG 0.20  C 
BRANCH 65 66
ATOM     66 OG   SER Z  39     -13.376   5.325  -6.706  1.00 30.52 LIG-0.40  OA
ATOM     67 HG   SER Z  39     -12.795   5.364  -6.101  1.00 30.52 LIG 0.21  HD
ENDBRANCH 65 66
ENDBRANCH 48 65
ENDBRANCH 46 48
ENDBRANCH 43 44
BRANCH 43 68
ATOM     68  CB  ASN Z  40     -15.410  11.759  -4.916  1.00 19.94 LIG 0.14  C 
BRANCH 68 69
ATOM     69  CG  ASN Z  40     -14.271  12.718  -5.200  1.00 19.97 LIG 0.22  C 
ATOM     70 OD1  ASN Z  40     -13.329  12.382  -5.922  1.00 23.42 LIG-0.27  OA
ATOM     71  ND2 ASN Z  40     -14.341  13.914  -4.624  1.00 19.32 LIG-0.37  N 
ATOM     72 21HD ASN Z  40     -13.714  14.489  -4.749  1.00 19.32 LIG 0.16  HD
ATOM     73 22HD ASN Z  40     -15.014  14.112  -4.126  1.00 19.32 LIG 0.16  HD
ENDBRANCH 68 69
ENDBRANCH 43 68
ENDBRANCH 40 43
ENDBRANCH 1 39
TORSDOF 29
ENDMDL
MODEL 43
USER: ADFR SOLUTION from run 126
USER: SCORE 19.536445 LL:  -4.977 LR: -15.847 RR:   0.000 FEB:  -7.196
USER: RMSD 7.290664
USER: SEED 125
USER: STATUS searching
USER: GENES 31
USER: genes 0 Translation |==|  0.79192 0.39511 0.52833
USER: genes 1 Rotation |==|  0.59063 0.56488 0.31520 0.95103
USER: genes 2 Torsion [N]-CA--C-[N] |==|  0.38395
USER: genes 3 Torsion [C]-N--CA-[C] |==|  0.81703
USER: genes 4 Torsion [N]-CA--C-[N] |==|  0.92323
USER: genes 5 Torsion [C]-N--CA-[C] |==|  0.75398
USER: genes 6 Torsion [N]-CA--C-[N] |==|  0.85482
USER: genes 7 Torsion [C]-N--CA-[CB] |==|  0.16605
USER: genes 8 Torsion [N]-CA--CB-[CG] |==|  0.65913
USER: genes 9 Torsion [CA]-CB--CG-[OD1] |==|  0.70053
USER: genes 10 Torsion [N]-CA--C-[N] |==|  0.08374
USER: genes 11 Torsion [N]-CA--CB-[CG] |==|  0.28996
USER: genes 12 Torsion [CA]-CB--CG-[CD] |==|  0.31088
USER: genes 13 Torsion [CB]-CG--CD-[CE] |==|  0.52864
USER: genes 14 Torsion [CG]-CD--CE-[NZ] |==|  0.79598
USER: genes 15 Torsion [CD]-CE--NZ-[HZ3] |==|  0.67510
USER: genes 16 Torsion [N]-CA--CB-[CG1] |==|  0.70030
USER: genes 17 Torsion [CA]-CB--CG1-[CD1] |==|  0.48516
USER: genes 18 Torsion [CB]-CA--N-[C] |==|  0.84073
USER: genes 19 Torsion [N]-C--CA-[N] |==|  0.29023
USER: genes 20 Torsion [C]-CA--N-[C] |==|  0.62327
USER: genes 21 Torsion [N]-C--CA-[N] |==|  0.51391
USER: genes 22 Torsion [C]-CA--N-[C] |==|  0.72858
USER: genes 23 Torsion [N]-C--CA-[N] |==|  0.40010
USER: genes 24 Torsion [C]-CA--N-[C] |==|  0.60774
USER: genes 25 Torsion [C]-CA--CB-[CG] |==|  0.34191
USER: genes 26 Torsion [CA]-CB--CG-[OD1] |==|  0.11005
USER: genes 27 Torsion [C]-CA--CB-[OG] |==|  0.59185
USER: genes 28 Torsion [CA]-CB--OG-[HG] |==|  0.00894
USER: genes 29 Torsion [C]-CA--CB-[CG] |==|  0.19974
USER: genes 30 Torsion [CA]-CB--CG-[OD1] |==|  0.94115
ROOT
ATOM      1  CA  ALA Z  41      -9.974  10.349  -4.711  1.00 21.22 LIG 0.17  C 
ATOM      2  CB  ALA Z  41      -9.078   9.988  -3.528  1.00 23.94 LIG 0.04  C 
ENDROOT
BRANCH 1 3
ATOM      3  C   ALA Z  41     -11.389   9.817  -4.488  1.00 23.72 LIG 0.24  C 
ATOM      4 O    ALA Z  41     -12.188  10.432  -3.782  1.00 25.98 LIG-0.27  OA
ATOM      5  N   ILE Z  42     -11.694   8.671  -5.087  1.00 25.83 LIG-0.35  N 
ATOM      6 H    ILE Z  42     -11.155   8.226  -5.588  1.00 25.83 LIG 0.16  HD
BRANCH 5 7
ATOM      7  CA  ILE Z  42     -13.015   8.073  -4.924  1.00 30.93 LIG 0.18  C 
BRANCH 7 8
ATOM      8  C   ILE Z  42     -13.274   7.623  -3.485  1.00 34.23 LIG 0.24  C 
ATOM      9 O    ILE Z  42     -14.421   7.587  -3.039  1.00 38.88 LIG-0.27  OA
ATOM     10  N   LYS Z  43     -12.212   7.290  -2.757  1.00 34.26 LIG-0.35  N 
ATOM     11 H    LYS Z  43     -11.397   7.375  -3.018  1.00 34.26 LIG 0.16  HD
BRANCH 10 12
ATOM     12  CA  LYS Z  43     -12.373   6.736  -1.414  1.00 43.39 LIG 0.18  C 
BRANCH 12 13
ATOM     13  C   LYS Z  43     -12.439   7.788  -0.307  1.00 55.57 LIG 0.24  C 
ATOM     14  N   ASN Z  44     -11.458   8.686  -0.275  1.00 60.92 LIG-0.34  N 
ATOM     15 H    ASN Z  44     -10.820   8.712  -0.850  1.00 60.92 LIG 0.16  HD
ATOM     16 O    LYS Z  43     -13.371   7.779   0.501  1.00 61.19 LIG-0.27  OA
BRANCH 14 17
ATOM     17  CA  ASN Z  44     -11.374   9.724   0.758  1.00 70.44 LIG 0.19  C 
BRANCH 17 18
ATOM     18  CB  ASN Z  44     -11.275   9.110   2.162  1.00 74.13 LIG 0.14  C 
BRANCH 18 19
ATOM     19  CG  ASN Z  44     -12.385   9.578   3.087  1.00 76.38 LIG 0.22  C 
ATOM     20  ND2 ASN Z  44     -13.601   9.096   2.845  1.00 76.67 LIG-0.37  N 
ATOM     21 21HD ASN Z  44     -14.263   9.331   3.341  1.00 76.67 LIG 0.16  HD
ATOM     22 22HD ASN Z  44     -13.725   8.549   2.194  1.00 76.67 LIG 0.16  HD
ATOM     23 OD1  ASN Z  44     -12.152  10.363   4.007  1.00 76.30 LIG-0.27  OA
ENDBRANCH 18 19
ENDBRANCH 17 18
BRANCH 17 24
ATOM     24  C   ASN Z  44     -10.219  10.701   0.527  1.00 74.17 LIG 0.28  C 
ATOM     25 O    ASN Z  44      -9.657  11.252   1.476  1.00 72.97 LIG-0.27  OA
ATOM     26  N   NH2 Z  45      -9.873  10.913  -0.739  1.00 76.38 LIG-0.11  N 
ENDBRANCH 17 24
ENDBRANCH 14 17
ENDBRANCH 12 13
BRANCH 12 27
ATOM     27  CB  LYS Z  43     -11.289   5.694  -1.115  1.00 40.99 LIG 0.04  C 
BRANCH 27 28
ATOM     28  CG  LYS Z  43     -10.197   6.207  -0.183  1.00 39.01 LIG 0.00  C 
BRANCH 28 29
ATOM     29  CD  LYS Z  43     -10.230   5.516   1.175  1.00 38.38 LIG 0.03  C 
BRANCH 29 30
ATOM     30  CE  LYS Z  43      -9.304   6.217   2.165  1.00 38.40 LIG 0.23  C 
BRANCH 30 31
ATOM     31  NZ  LYS Z  43      -7.856   5.961   1.892  1.00 35.26 LIG-0.08  N 
ATOM     32 HZ3  LYS Z  43      -7.496   5.527   2.581  1.00 35.26 LIG 0.27  HD
ATOM     33 HZ2  LYS Z  43      -7.434   6.736   1.776  1.00 35.26 LIG 0.27  HD
ATOM     34 HZ1  LYS Z  43      -7.776   5.467   1.156  1.00 35.26 LIG 0.27  HD
ENDBRANCH 30 31
ENDBRANCH 29 30
ENDBRANCH 28 29
ENDBRANCH 27 28
ENDBRANCH 12 27
ENDBRANCH 10 12
ENDBRANCH 7 8
BRANCH 7 35
ATOM     35  CB  ILE Z  42     -13.230   6.880  -5.874  1.00 30.84 LIG 0.01  C 
ATOM     36  CG2 ILE Z  42     -13.786   5.684  -5.109  1.00 35.03 LIG 0.01  C 
BRANCH 35 37
ATOM     37  CG1 ILE Z  42     -14.206   7.251  -6.987  1.00 30.67 LIG 0.00  C 
ATOM     38  CD1 ILE Z  42     -14.369   6.167  -8.035  1.00 26.38 LIG 0.01  C 
ENDBRANCH 35 37
ENDBRANCH 7 35
ENDBRANCH 5 7
ENDBRANCH 1 3
BRANCH 1 39
ATOM     39  N   ALA Z  41      -9.981  11.794  -4.932  1.00 17.22 LIG-0.35  N 
ATOM     40  C   ASN Z  40     -10.347  12.642  -3.973  1.00 21.77 LIG 0.24  C 
ATOM     41 O    ASN Z  40     -10.699  12.276  -2.850  1.00 19.61 LIG-0.27  OA
ATOM     42 H    ALA Z  41      -9.733  12.035  -5.718  1.00 17.22 LIG 0.16  HD
BRANCH 40 43
ATOM     43  CA  ASN Z  40     -10.313  14.126  -4.321  1.00 23.64 LIG 0.18  C 
BRANCH 43 44
ATOM     44  N   ASN Z  40     -11.629  14.712  -4.557  1.00 28.07 LIG-0.34  N 
ATOM     45 H    ASN Z  40     -12.233  14.488  -3.987  1.00 28.07 LIG 0.16  HD
ATOM     46  C   SER Z  39     -11.832  15.525  -5.587  1.00 29.35 LIG 0.24  C 
ATOM     47 O    SER Z  39     -10.968  15.760  -6.435  1.00 27.34 LIG-0.27  OA
BRANCH 46 48
ATOM     48  CA  SER Z  39     -13.207  16.166  -5.692  1.00 36.10 LIG 0.20  C 
BRANCH 48 49
ATOM     49  N   SER Z  39     -13.261  16.915  -6.941  1.00 45.98 LIG-0.34  N 
ATOM     50  C   ASN Z  38     -13.045  18.226  -6.977  1.00 57.47 LIG 0.24  C 
ATOM     51 O    ASN Z  38     -13.039  18.931  -5.964  1.00 60.64 LIG-0.27  OA
ATOM     52 H    SER Z  39     -13.441  16.439  -7.634  1.00 45.98 LIG 0.16  HD
BRANCH 50 53
ATOM     53  CA  ASN Z  38     -12.804  18.831  -8.368  1.00 65.29 LIG 0.18  C 
BRANCH 53 54
ATOM     54  N   ASN Z  38     -13.344  20.172  -8.610  1.00 70.64 LIG-0.35  N 
ATOM     55 H    ASN Z  38     -13.271  20.700  -7.935  1.00 70.64 LIG 0.16  HD
ATOM     56  C   ACE Z  37     -13.894  20.538  -9.765  1.00 74.22 LIG 0.21  C 
ATOM     57  CH3 ACE Z  37     -14.373  21.986  -9.849  1.00 75.88 LIG 0.12  C 
ATOM     58 O    ACE Z  37     -14.028  19.775 -10.720  1.00 75.32 LIG-0.27  OA
ENDBRANCH 53 54
BRANCH 53 59
ATOM     59  CB  ASN Z  38     -11.298  18.811  -8.670  1.00 65.91 LIG 0.12  C 
BRANCH 59 60
ATOM     60  CG  ASN Z  38     -10.961  18.060  -9.949  1.00 66.48 LIG 0.15  C 
ATOM     61 OD1  ASN Z  38     -11.793  18.238 -10.968  1.00 67.09 LIG-0.18  OA
ATOM     62  ND2 ASN Z  38      -9.971  17.330 -10.020  1.00 65.12 LIG-0.38  N 
ATOM     63 22HD ASN Z  38      -9.454  17.239  -9.339  1.00 65.12 LIG 0.16  HD
ATOM     64 21HD ASN Z  38      -9.798  16.911 -10.751  1.00 65.12 LIG 0.16  HD
ENDBRANCH 59 60
ENDBRANCH 53 59
ENDBRANCH 50 53
ENDBRANCH 48 49
BRANCH 48 65
ATOM     65  CB  SER Z  39     -14.284  15.086  -5.642  1.00 33.12 LIG 0.20  C 
BRANCH 65 66
ATOM     66 OG   SER Z  39     -15.400  15.453  -6.443  1.00 30.52 LIG-0.40  OA
ATOM     67 HG   SER Z  39     -15.240  16.180  -6.832  1.00 30.52 LIG 0.21  HD
ENDBRANCH 65 66
ENDBRANCH 48 65
ENDBRANCH 46 48
ENDBRANCH 43 44
BRANCH 43 68
ATOM     68  CB  ASN Z  40      -9.555  14.891  -3.233  1.00 19.94 LIG 0.14  C 
BRANCH 68 69
ATOM     69  CG  ASN Z  40      -8.063  14.625  -3.272  1.00 19.97 LIG 0.22  C 
ATOM     70 OD1  ASN Z  40      -7.617  13.614  -3.818  1.00 23.42 LIG-0.27  OA
ATOM     71  ND2 ASN Z  40      -7.282  15.525  -2.682  1.00 19.32 LIG-0.37  N 
ATOM     72 21HD ASN Z  40      -6.429  15.413  -2.671  1.00 19.32 LIG 0.16  HD
ATOM     73 22HD ASN Z  40      -7.630  16.218  -2.310  1.00 19.32 LIG 0.16  HD
ENDBRANCH 68 69
ENDBRANCH 43 68
ENDBRANCH 40 43
ENDBRANCH 1 39
TORSDOF 29
ENDMDL
MODEL 44
USER: ADFR SOLUTION from run 149
USER: SCORE 18.931589 LL:  -4.861 LR: -15.824 RR:   0.000 FEB:  -7.173
USER: RMSD 3.802647
USER: SEED 148
USER: STATUS 1 or 2 clusters left
USER: GENES 31
USER: genes 0 Translation |==|  0.61620 0.48646 0.46492
USER: genes 1 Rotation |==|  0.47476 0.51745 0.55356 0.99617
USER: genes 2 Torsion [N]-CA--C-[N] |==|  0.42060
USER: genes 3 Torsion [C]-N--CA-[C] |==|  0.64810
USER: genes 4 Torsion [N]-CA--C-[N] |==|  0.35853
USER: genes 5 Torsion [C]-N--CA-[C] |==|  0.17105
USER: genes 6 Torsion [N]-CA--C-[N] |==|  0.69486
USER: genes 7 Torsion [C]-N--CA-[CB] |==|  0.85750
USER: genes 8 Torsion [N]-CA--CB-[CG] |==|  0.34187
USER: genes 9 Torsion [CA]-CB--CG-[OD1] |==|  0.24579
USER: genes 10 Torsion [N]-CA--C-[N] |==|  0.37778
USER: genes 11 Torsion [N]-CA--CB-[CG] |==|  0.59602
USER: genes 12 Torsion [CA]-CB--CG-[CD] |==|  0.59859
USER: genes 13 Torsion [CB]-CG--CD-[CE] |==|  0.30424
USER: genes 14 Torsion [CG]-CD--CE-[NZ] |==|  0.44768
USER: genes 15 Torsion [CD]-CE--NZ-[HZ3] |==|  0.69049
USER: genes 16 Torsion [N]-CA--CB-[CG1] |==|  0.77772
USER: genes 17 Torsion [CA]-CB--CG1-[CD1] |==|  0.54693
USER: genes 18 Torsion [CB]-CA--N-[C] |==|  0.49246
USER: genes 19 Torsion [N]-C--CA-[N] |==|  0.94041
USER: genes 20 Torsion [C]-CA--N-[C] |==|  0.78479
USER: genes 21 Torsion [N]-C--CA-[N] |==|  0.34197
USER: genes 22 Torsion [C]-CA--N-[C] |==|  0.79427
USER: genes 23 Torsion [N]-C--CA-[N] |==|  0.47446
USER: genes 24 Torsion [C]-CA--N-[C] |==|  0.66388
USER: genes 25 Torsion [C]-CA--CB-[CG] |==|  0.49652
USER: genes 26 Torsion [CA]-CB--CG-[OD1] |==|  0.71296
USER: genes 27 Torsion [C]-CA--CB-[OG] |==|  0.15789
USER: genes 28 Torsion [CA]-CB--OG-[HG] |==|  0.84930
USER: genes 29 Torsion [C]-CA--CB-[CG] |==|  0.23161
USER: genes 30 Torsion [CA]-CB--CG-[OD1] |==|  0.15096
ROOT
ATOM      1  CA  ALA Z  41     -14.191  12.473  -6.138  1.00 21.22 LIG 0.17  C 
ATOM      2  CB  ALA Z  41     -13.862  13.355  -4.935  1.00 23.94 LIG 0.04  C 
ENDROOT
BRANCH 1 3
ATOM      3  C   ALA Z  41     -14.606  11.077  -5.675  1.00 23.72 LIG 0.24  C 
ATOM      4 O    ALA Z  41     -15.793  10.794  -5.517  1.00 25.98 LIG-0.27  OA
ATOM      5  N   ILE Z  42     -13.625  10.209  -5.455  1.00 25.83 LIG-0.35  N 
ATOM      6 H    ILE Z  42     -12.789  10.382  -5.563  1.00 25.83 LIG 0.16  HD
BRANCH 5 7
ATOM      7  CA  ILE Z  42     -13.917   8.855  -4.997  1.00 30.93 LIG 0.18  C 
BRANCH 7 8
ATOM      8  C   ILE Z  42     -13.138   8.490  -3.732  1.00 34.23 LIG 0.24  C 
ATOM      9 O    ILE Z  42     -11.918   8.649  -3.680  1.00 38.88 LIG-0.27  OA
ATOM     10  N   LYS Z  43     -13.839   7.993  -2.716  1.00 34.26 LIG-0.35  N 
ATOM     11 H    LYS Z  43     -14.677   7.803  -2.750  1.00 34.26 LIG 0.16  HD
BRANCH 10 12
ATOM     12  CA  LYS Z  43     -13.200   7.728  -1.429  1.00 43.39 LIG 0.18  C 
BRANCH 12 13
ATOM     13  C   LYS Z  43     -12.620   8.971  -0.751  1.00 55.57 LIG 0.24  C 
ATOM     14  N   ASN Z  44     -11.293   9.058  -0.696  1.00 60.92 LIG-0.34  N 
ATOM     15 H    ASN Z  44     -10.765   8.473  -1.038  1.00 60.92 LIG 0.16  HD
ATOM     16 O    LYS Z  43     -13.373   9.832  -0.289  1.00 61.19 LIG-0.27  OA
BRANCH 14 17
ATOM     17  CA  ASN Z  44     -10.605  10.173  -0.038  1.00 70.44 LIG 0.19  C 
BRANCH 17 18
ATOM     18  CB  ASN Z  44     -11.128  11.527  -0.537  1.00 74.13 LIG 0.14  C 
BRANCH 18 19
ATOM     19  CG  ASN Z  44     -11.652  12.405   0.587  1.00 76.38 LIG 0.22  C 
ATOM     20  ND2 ASN Z  44     -12.948  12.301   0.866  1.00 76.67 LIG-0.37  N 
ATOM     21 21HD ASN Z  44     -13.292  12.777   1.494  1.00 76.67 LIG 0.16  HD
ATOM     22 22HD ASN Z  44     -13.442  11.757   0.420  1.00 76.67 LIG 0.16  HD
ATOM     23 OD1  ASN Z  44     -10.900  13.168   1.196  1.00 76.30 LIG-0.27  OA
ENDBRANCH 18 19
ENDBRANCH 17 18
BRANCH 17 24
ATOM     24  C   ASN Z  44     -10.688  10.106   1.489  1.00 74.17 LIG 0.28  C 
ATOM     25 O    ASN Z  44     -11.750   9.832   2.054  1.00 72.97 LIG-0.27  OA
ATOM     26  N   NH2 Z  45      -9.563  10.361   2.150  1.00 76.38 LIG-0.11  N 
ENDBRANCH 17 24
ENDBRANCH 14 17
ENDBRANCH 12 13
BRANCH 12 27
ATOM     27  CB  LYS Z  43     -12.140   6.629  -1.556  1.00 40.99 LIG 0.04  C 
BRANCH 27 28
ATOM     28  CG  LYS Z  43     -12.038   5.740  -0.321  1.00 39.01 LIG 0.00  C 
BRANCH 28 29
ATOM     29  CD  LYS Z  43     -10.605   5.302  -0.045  1.00 38.38 LIG 0.03  C 
BRANCH 29 30
ATOM     30  CE  LYS Z  43     -10.057   5.989   1.202  1.00 38.40 LIG 0.23  C 
BRANCH 30 31
ATOM     31  NZ  LYS Z  43      -8.865   5.293   1.776  1.00 35.26 LIG-0.08  N 
ATOM     32 HZ3  LYS Z  43      -9.082   4.928   2.559  1.00 35.26 LIG 0.27  HD
ATOM     33 HZ2  LYS Z  43      -8.206   5.879   1.895  1.00 35.26 LIG 0.27  HD
ATOM     34 HZ1  LYS Z  43      -8.596   4.655   1.217  1.00 35.26 LIG 0.27  HD
ENDBRANCH 30 31
ENDBRANCH 29 30
ENDBRANCH 28 29
ENDBRANCH 27 28
ENDBRANCH 12 27
ENDBRANCH 10 12
ENDBRANCH 7 8
BRANCH 7 35
ATOM     35  CB  ILE Z  42     -13.634   7.803  -6.086  1.00 30.84 LIG 0.01  C 
ATOM     36  CG2 ILE Z  42     -13.453   6.424  -5.461  1.00 35.03 LIG 0.01  C 
BRANCH 35 37
ATOM     37  CG1 ILE Z  42     -14.786   7.745  -7.086  1.00 30.67 LIG 0.00  C 
ATOM     38  CD1 ILE Z  42     -14.786   6.488  -7.935  1.00 26.38 LIG 0.01  C 
ENDBRANCH 35 37
ENDBRANCH 7 35
ENDBRANCH 5 7
ENDBRANCH 1 3
BRANCH 1 39
ATOM     39  N   ALA Z  41     -15.231  13.089  -6.960  1.00 17.22 LIG-0.35  N 
ATOM     40  C   ASN Z  40     -15.645  12.527  -8.094  1.00 21.77 LIG 0.24  C 
ATOM     41 O    ASN Z  40     -15.191  11.465  -8.523  1.00 19.61 LIG-0.27  OA
ATOM     42 H    ALA Z  41     -15.540  13.828  -6.648  1.00 17.22 LIG 0.16  HD
BRANCH 40 43
ATOM     43  CA  ASN Z  40     -16.737  13.262  -8.864  1.00 23.64 LIG 0.18  C 
BRANCH 43 44
ATOM     44  N   ASN Z  40     -17.518  14.188  -8.051  1.00 28.07 LIG-0.34  N 
ATOM     45 H    ASN Z  40     -17.313  15.018  -8.148  1.00 28.07 LIG 0.16  HD
ATOM     46  C   SER Z  39     -18.465  13.739  -7.235  1.00 29.35 LIG 0.24  C 
ATOM     47 O    SER Z  39     -18.678  12.539  -7.054  1.00 27.34 LIG-0.27  OA
BRANCH 46 48
ATOM     48  CA  SER Z  39     -19.292  14.787  -6.506  1.00 36.10 LIG 0.20  C 
BRANCH 48 49
ATOM     49  N   SER Z  39     -20.694  14.557  -6.829  1.00 45.98 LIG-0.34  N 
ATOM     50  C   ASN Z  38     -21.196  14.872  -8.020  1.00 57.47 LIG 0.24  C 
ATOM     51 O    ASN Z  38     -20.603  15.594  -8.825  1.00 60.64 LIG-0.27  OA
ATOM     52 H    SER Z  39     -21.154  14.207  -6.192  1.00 45.98 LIG 0.16  HD
BRANCH 50 53
ATOM     53  CA  ASN Z  38     -22.578  14.285  -8.345  1.00 65.29 LIG 0.18  C 
BRANCH 53 54
ATOM     54  N   ASN Z  38     -23.241  14.782  -9.554  1.00 70.64 LIG-0.35  N 
ATOM     55 H    ASN Z  38     -22.787  14.652 -10.273  1.00 70.64 LIG 0.16  HD
ATOM     56  C   ACE Z  37     -24.431  15.376  -9.541  1.00 74.22 LIG 0.21  C 
ATOM     57  CH3 ACE Z  37     -24.984  15.798 -10.900  1.00 75.88 LIG 0.12  C 
ATOM     58 O    ACE Z  37     -25.066  15.590  -8.510  1.00 75.32 LIG-0.27  OA
ENDBRANCH 53 54
BRANCH 53 59
ATOM     59  CB  ASN Z  38     -22.473  12.754  -8.396  1.00 65.91 LIG 0.12  C 
BRANCH 59 60
ATOM     60  CG  ASN Z  38     -23.805  12.079  -8.683  1.00 66.48 LIG 0.15  C 
ATOM     61 OD1  ASN Z  38     -24.413  11.520  -7.644  1.00 67.09 LIG-0.18  OA
ATOM     62  ND2 ASN Z  38     -24.278  12.055  -9.821  1.00 65.12 LIG-0.38  N 
ATOM     63 22HD ASN Z  38     -23.856  12.428 -10.470  1.00 65.12 LIG 0.16  HD
ATOM     64 21HD ASN Z  38     -25.031  11.666  -9.965  1.00 65.12 LIG 0.16  HD
ENDBRANCH 59 60
ENDBRANCH 53 59
ENDBRANCH 50 53
ENDBRANCH 48 49
BRANCH 48 65
ATOM     65  CB  SER Z  39     -19.042  14.688  -5.004  1.00 33.12 LIG 0.20  C 
BRANCH 65 66
ATOM     66 OG   SER Z  39     -17.657  14.833  -4.715  1.00 30.52 LIG-0.40  OA
ATOM     67 HG   SER Z  39     -17.217  14.276  -5.164  1.00 30.52 LIG 0.21  HD
ENDBRANCH 65 66
ENDBRANCH 48 65
ENDBRANCH 46 48
ENDBRANCH 43 44
BRANCH 43 68
ATOM     68  CB  ASN Z  40     -16.123  13.971 -10.074  1.00 19.94 LIG 0.14  C 
BRANCH 68 69
ATOM     69  CG  ASN Z  40     -15.962  13.048 -11.266  1.00 19.97 LIG 0.22  C 
ATOM     70 OD1  ASN Z  40     -16.924  12.414 -11.706  1.00 23.42 LIG-0.27  OA
ATOM     71  ND2 ASN Z  40     -14.743  12.955 -11.787  1.00 19.32 LIG-0.37  N 
ATOM     72 21HD ASN Z  40     -14.601  12.438 -12.459  1.00 19.32 LIG 0.16  HD
ATOM     73 22HD ASN Z  40     -14.097  13.413 -11.452  1.00 19.32 LIG 0.16  HD
ENDBRANCH 68 69
ENDBRANCH 43 68
ENDBRANCH 40 43
ENDBRANCH 1 39
TORSDOF 29
ENDMDL
MODEL 45
USER: ADFR SOLUTION from run 194
USER: SCORE 18.628683 LL:  -5.302 LR: -15.813 RR:   0.000 FEB:  -7.162
USER: RMSD 11.965383
USER: SEED 193
USER: STATUS no improvement in best in 3 clusters for 5 generations
USER: GENES 31
USER: genes 0 Translation |==|  0.56250 0.56480 0.38477
USER: genes 1 Rotation |==|  0.08451 0.64687 0.70812 0.61173
USER: genes 2 Torsion [N]-CA--C-[N] |==|  0.14149
USER: genes 3 Torsion [C]-N--CA-[C] |==|  0.81826
USER: genes 4 Torsion [N]-CA--C-[N] |==|  0.89555
USER: genes 5 Torsion [C]-N--CA-[C] |==|  0.81633
USER: genes 6 Torsion [N]-CA--C-[N] |==|  0.32905
USER: genes 7 Torsion [C]-N--CA-[CB] |==|  0.81277
USER: genes 8 Torsion [N]-CA--CB-[CG] |==|  0.95307
USER: genes 9 Torsion [CA]-CB--CG-[OD1] |==|  0.33787
USER: genes 10 Torsion [N]-CA--C-[N] |==|  0.31877
USER: genes 11 Torsion [N]-CA--CB-[CG] |==|  0.58308
USER: genes 12 Torsion [CA]-CB--CG-[CD] |==|  0.21805
USER: genes 13 Torsion [CB]-CG--CD-[CE] |==|  0.58772
USER: genes 14 Torsion [CG]-CD--CE-[NZ] |==|  0.91282
USER: genes 15 Torsion [CD]-CE--NZ-[HZ3] |==|  0.18588
USER: genes 16 Torsion [N]-CA--CB-[CG1] |==|  0.08787
USER: genes 17 Torsion [CA]-CB--CG1-[CD1] |==|  0.24371
USER: genes 18 Torsion [CB]-CA--N-[C] |==|  0.43697
USER: genes 19 Torsion [N]-C--CA-[N] |==|  0.37050
USER: genes 20 Torsion [C]-CA--N-[C] |==|  0.84022
USER: genes 21 Torsion [N]-C--CA-[N] |==|  0.97234
USER: genes 22 Torsion [C]-CA--N-[C] |==|  0.67268
USER: genes 23 Torsion [N]-C--CA-[N] |==|  0.39247
USER: genes 24 Torsion [C]-CA--N-[C] |==|  0.73028
USER: genes 25 Torsion [C]-CA--CB-[CG] |==|  0.87350
USER: genes 26 Torsion [CA]-CB--CG-[OD1] |==|  0.34220
USER: genes 27 Torsion [C]-CA--CB-[OG] |==|  0.84709
USER: genes 28 Torsion [CA]-CB--OG-[HG] |==|  0.60143
USER: genes 29 Torsion [C]-CA--CB-[CG] |==|  0.21222
USER: genes 30 Torsion [CA]-CB--CG-[OD1] |==|  0.84403
ROOT
ATOM      1  CA  ALA Z  41     -15.480  14.295  -7.942  1.00 21.22 LIG 0.17  C 
ATOM      2  CB  ALA Z  41     -16.471  14.486  -9.088  1.00 23.94 LIG 0.04  C 
ENDROOT
BRANCH 1 3
ATOM      3  C   ALA Z  41     -15.109  15.645  -7.330  1.00 23.72 LIG 0.24  C 
ATOM      4 O    ALA Z  41     -15.505  16.695  -7.836  1.00 25.98 LIG-0.27  OA
ATOM      5  N   ILE Z  42     -14.345  15.615  -6.243  1.00 25.83 LIG-0.35  N 
ATOM      6 H    ILE Z  42     -14.061  14.895  -5.869  1.00 25.83 LIG 0.16  HD
BRANCH 5 7
ATOM      7  CA  ILE Z  42     -13.925  16.851  -5.593  1.00 30.93 LIG 0.18  C 
BRANCH 7 8
ATOM      8  C   ILE Z  42     -12.998  17.686  -6.478  1.00 34.23 LIG 0.24  C 
ATOM      9 O    ILE Z  42     -13.085  18.915  -6.491  1.00 38.88 LIG-0.27  OA
ATOM     10  N   LYS Z  43     -12.118  17.023  -7.223  1.00 34.26 LIG-0.35  N 
ATOM     11 H    LYS Z  43     -12.084  16.166  -7.289  1.00 34.26 LIG 0.16  HD
BRANCH 10 12
ATOM     12  CA  LYS Z  43     -11.115  17.740  -8.007  1.00 43.39 LIG 0.18  C 
BRANCH 12 13
ATOM     13  C   LYS Z  43     -11.694  18.583  -9.144  1.00 55.57 LIG 0.24  C 
ATOM     14  N   ASN Z  44     -11.478  19.895  -9.086  1.00 60.92 LIG-0.34  N 
ATOM     15 H    ASN Z  44     -11.017  20.273  -8.467  1.00 60.92 LIG 0.16  HD
ATOM     16 O    LYS Z  43     -12.326  18.043 -10.055  1.00 61.19 LIG-0.27  OA
BRANCH 14 17
ATOM     17  CA  ASN Z  44     -12.012  20.825 -10.086  1.00 70.44 LIG 0.19  C 
BRANCH 17 18
ATOM     18  CB  ASN Z  44     -11.355  20.612 -11.457  1.00 74.13 LIG 0.14  C 
BRANCH 18 19
ATOM     19  CG  ASN Z  44     -10.066  19.814 -11.373  1.00 76.38 LIG 0.22  C 
ATOM     20  ND2 ASN Z  44      -9.105  20.318 -10.604  1.00 76.67 LIG-0.37  N 
ATOM     21 21HD ASN Z  44      -8.356  19.904 -10.524  1.00 76.67 LIG 0.16  HD
ATOM     22 22HD ASN Z  44      -9.233  21.059 -10.186  1.00 76.67 LIG 0.16  HD
ATOM     23 OD1  ASN Z  44      -9.935  18.756 -11.992  1.00 76.30 LIG-0.27  OA
ENDBRANCH 18 19
ENDBRANCH 17 18
BRANCH 17 24
ATOM     24  C   ASN Z  44     -13.535  20.751 -10.214  1.00 74.17 LIG 0.28  C 
ATOM     25 O    ASN Z  44     -14.086  19.731 -10.635  1.00 72.97 LIG-0.27  OA
ATOM     26  N   NH2 Z  45     -14.208  21.839  -9.852  1.00 76.38 LIG-0.11  N 
ENDBRANCH 17 24
ENDBRANCH 14 17
ENDBRANCH 12 13
BRANCH 12 27
ATOM     27  CB  LYS Z  43     -10.037  16.784  -8.529  1.00 40.99 LIG 0.04  C 
BRANCH 27 28
ATOM     28  CG  LYS Z  43      -8.672  17.442  -8.695  1.00 39.01 LIG 0.00  C 
BRANCH 28 29
ATOM     29  CD  LYS Z  43      -7.940  17.590  -7.367  1.00 38.38 LIG 0.03  C 
BRANCH 29 30
ATOM     30  CE  LYS Z  43      -7.055  18.832  -7.368  1.00 38.40 LIG 0.23  C 
BRANCH 30 31
ATOM     31  NZ  LYS Z  43      -6.514  19.162  -8.723  1.00 35.26 LIG-0.08  N 
ATOM     32 HZ3  LYS Z  43      -7.183  19.408  -9.258  1.00 35.26 LIG 0.27  HD
ATOM     33 HZ2  LYS Z  43      -6.110  18.446  -9.065  1.00 35.26 LIG 0.27  HD
ATOM     34 HZ1  LYS Z  43      -5.929  19.828  -8.655  1.00 35.26 LIG 0.27  HD
ENDBRANCH 30 31
ENDBRANCH 29 30
ENDBRANCH 28 29
ENDBRANCH 27 28
ENDBRANCH 12 27
ENDBRANCH 10 12
ENDBRANCH 7 8
BRANCH 7 35
ATOM     35  CB  ILE Z  42     -13.234  16.588  -4.242  1.00 30.84 LIG 0.01  C 
ATOM     36  CG2 ILE Z  42     -14.261  16.550  -3.116  1.00 35.03 LIG 0.01  C 
BRANCH 35 37
ATOM     37  CG1 ILE Z  42     -12.487  15.257  -4.274  1.00 30.67 LIG 0.00  C 
ATOM     38  CD1 ILE Z  42     -11.067  15.373  -4.795  1.00 26.38 LIG 0.01  C 
ENDBRANCH 35 37
ENDBRANCH 7 35
ENDBRANCH 5 7
ENDBRANCH 1 3
BRANCH 1 39
ATOM     39  N   ALA Z  41     -16.026  13.389  -6.933  1.00 17.22 LIG-0.35  N 
ATOM     40  C   ASN Z  40     -15.235  12.721  -6.096  1.00 21.77 LIG 0.24  C 
ATOM     41 O    ASN Z  40     -14.007  12.820  -6.110  1.00 19.61 LIG-0.27  OA
ATOM     42 H    ALA Z  41     -16.884  13.331  -6.933  1.00 17.22 LIG 0.16  HD
BRANCH 40 43
ATOM     43  CA  ASN Z  40     -15.920  11.808  -5.086  1.00 23.64 LIG 0.18  C 
BRANCH 43 44
ATOM     44  N   ASN Z  40     -15.322  10.480  -4.984  1.00 28.07 LIG-0.34  N 
ATOM     45 H    ASN Z  40     -15.052  10.264  -4.196  1.00 28.07 LIG 0.16  HD
ATOM     46  C   SER Z  39     -15.222   9.699  -6.054  1.00 29.35 LIG 0.24  C 
ATOM     47 O    SER Z  39     -15.540  10.070  -7.185  1.00 27.34 LIG-0.27  OA
BRANCH 46 48
ATOM     48  CA  SER Z  39     -14.678   8.297  -5.828  1.00 36.10 LIG 0.20  C 
BRANCH 48 49
ATOM     49  N   SER Z  39     -14.164   8.227  -4.466  1.00 45.98 LIG-0.34  N 
ATOM     50  C   ASN Z  38     -12.881   7.986  -4.217  1.00 57.47 LIG 0.24  C 
ATOM     51 O    ASN Z  38     -12.102   7.561  -5.073  1.00 60.64 LIG-0.27  OA
ATOM     52 H    SER Z  39     -14.757   8.354  -3.856  1.00 45.98 LIG 0.16  HD
BRANCH 50 53
ATOM     53  CA  ASN Z  38     -12.410   8.264  -2.781  1.00 65.29 LIG 0.18  C 
BRANCH 53 54
ATOM     54  N   ASN Z  38     -11.449   7.319  -2.204  1.00 70.64 LIG-0.35  N 
ATOM     55 H    ASN Z  38     -10.634   7.477  -2.429  1.00 70.64 LIG 0.16  HD
ATOM     56  C   ACE Z  37     -11.804   6.313  -1.409  1.00 74.22 LIG 0.21  C 
ATOM     57  CH3 ACE Z  37     -10.664   5.449  -0.873  1.00 75.88 LIG 0.12  C 
ATOM     58 O    ACE Z  37     -12.972   6.067  -1.114  1.00 75.32 LIG-0.27  OA
ENDBRANCH 53 54
BRANCH 53 59
ATOM     59  CB  ASN Z  38     -11.852   9.692  -2.704  1.00 65.91 LIG 0.12  C 
BRANCH 59 60
ATOM     60  CG  ASN Z  38     -10.921  10.027  -3.860  1.00 66.48 LIG 0.15  C 
ATOM     61 OD1  ASN Z  38     -11.251  11.086  -4.589  1.00 67.09 LIG-0.18  OA
ATOM     62  ND2 ASN Z  38      -9.924   9.343  -4.097  1.00 65.12 LIG-0.38  N 
ATOM     63 22HD ASN Z  38      -9.741   8.663  -3.602  1.00 65.12 LIG 0.16  HD
ATOM     64 21HD ASN Z  38      -9.410   9.546  -4.756  1.00 65.12 LIG 0.16  HD
ENDBRANCH 59 60
ENDBRANCH 53 59
ENDBRANCH 50 53
ENDBRANCH 48 49
BRANCH 48 65
ATOM     65  CB  SER Z  39     -15.784   7.272  -6.061  1.00 33.12 LIG 0.20  C 
BRANCH 65 66
ATOM     66 OG   SER Z  39     -16.914   7.559  -5.247  1.00 30.52 LIG-0.40  OA
ATOM     67 HG   SER Z  39     -17.262   6.841  -4.985  1.00 30.52 LIG 0.21  HD
ENDBRANCH 65 66
ENDBRANCH 48 65
ENDBRANCH 46 48
ENDBRANCH 43 44
BRANCH 43 68
ATOM     68  CB  ASN Z  40     -15.971  12.496  -3.721  1.00 19.94 LIG 0.14  C 
BRANCH 68 69
ATOM     69  CG  ASN Z  40     -17.041  13.568  -3.653  1.00 19.97 LIG 0.22  C 
ATOM     70 OD1  ASN Z  40     -17.056  14.497  -4.464  1.00 23.42 LIG-0.27  OA
ATOM     71  ND2 ASN Z  40     -17.937  13.454  -2.677  1.00 19.32 LIG-0.37  N 
ATOM     72 21HD ASN Z  40     -18.559  14.043  -2.594  1.00 19.32 LIG 0.16  HD
ATOM     73 22HD ASN Z  40     -17.895  12.792  -2.130  1.00 19.32 LIG 0.16  HD
ENDBRANCH 68 69
ENDBRANCH 43 68
ENDBRANCH 40 43
ENDBRANCH 1 39
TORSDOF 29
ENDMDL
MODEL 46
USER: ADFR SOLUTION from run 125
USER: SCORE 18.655435 LL:  -5.097 LR: -15.804 RR:   0.000 FEB:  -7.153
USER: RMSD 11.025614
USER: SEED 124
USER: STATUS no improvement in best in 18 clusters for 5 generations
USER: GENES 31
USER: genes 0 Translation |==|  0.55633 0.51779 0.37517
USER: genes 1 Rotation |==|  0.98211 0.37763 0.45679 0.52705
USER: genes 2 Torsion [N]-CA--C-[N] |==|  0.19166
USER: genes 3 Torsion [C]-N--CA-[C] |==|  0.65512
USER: genes 4 Torsion [N]-CA--C-[N] |==|  0.28626
USER: genes 5 Torsion [C]-N--CA-[C] |==|  0.55722
USER: genes 6 Torsion [N]-CA--C-[N] |==|  0.46096
USER: genes 7 Torsion [C]-N--CA-[CB] |==|  0.86663
USER: genes 8 Torsion [N]-CA--CB-[CG] |==|  0.45645
USER: genes 9 Torsion [CA]-CB--CG-[OD1] |==|  0.68834
USER: genes 10 Torsion [N]-CA--C-[N] |==|  0.40836
USER: genes 11 Torsion [N]-CA--CB-[CG] |==|  0.33866
USER: genes 12 Torsion [CA]-CB--CG-[CD] |==|  0.36564
USER: genes 13 Torsion [CB]-CG--CD-[CE] |==|  0.79699
USER: genes 14 Torsion [CG]-CD--CE-[NZ] |==|  0.63271
USER: genes 15 Torsion [CD]-CE--NZ-[HZ3] |==|  0.12735
USER: genes 16 Torsion [N]-CA--CB-[CG1] |==|  0.10539
USER: genes 17 Torsion [CA]-CB--CG1-[CD1] |==|  0.66973
USER: genes 18 Torsion [CB]-CA--N-[C] |==|  0.81046
USER: genes 19 Torsion [N]-C--CA-[N] |==|  0.56364
USER: genes 20 Torsion [C]-CA--N-[C] |==|  0.66300
USER: genes 21 Torsion [N]-C--CA-[N] |==|  0.14627
USER: genes 22 Torsion [C]-CA--N-[C] |==|  0.73079
USER: genes 23 Torsion [N]-C--CA-[N] |==|  0.97649
USER: genes 24 Torsion [C]-CA--N-[C] |==|  0.80304
USER: genes 25 Torsion [C]-CA--CB-[CG] |==|  0.52699
USER: genes 26 Torsion [CA]-CB--CG-[OD1] |==|  0.71893
USER: genes 27 Torsion [C]-CA--CB-[OG] |==|  0.69489
USER: genes 28 Torsion [CA]-CB--OG-[HG] |==|  0.35943
USER: genes 29 Torsion [C]-CA--CB-[CG] |==|  0.34287
USER: genes 30 Torsion [CA]-CB--CG-[OD1] |==|  0.81635
ROOT
ATOM      1  CA  ALA Z  41     -15.628  13.202  -8.158  1.00 21.22 LIG 0.17  C 
ATOM      2  CB  ALA Z  41     -15.839  12.334  -9.397  1.00 23.94 LIG 0.04  C 
ENDROOT
BRANCH 1 3
ATOM      3  C   ALA Z  41     -15.711  14.682  -8.526  1.00 23.72 LIG 0.24  C 
ATOM      4 O    ALA Z  41     -16.136  15.034  -9.627  1.00 25.98 LIG-0.27  OA
ATOM      5  N   ILE Z  42     -15.302  15.548  -7.605  1.00 25.83 LIG-0.35  N 
ATOM      6 H    ILE Z  42     -15.007  15.327  -6.828  1.00 25.83 LIG 0.16  HD
BRANCH 5 7
ATOM      7  CA  ILE Z  42     -15.329  16.983  -7.865  1.00 30.93 LIG 0.18  C 
BRANCH 7 8
ATOM      8  C   ILE Z  42     -13.958  17.633  -7.673  1.00 34.23 LIG 0.24  C 
ATOM      9 O    ILE Z  42     -13.531  17.869  -6.542  1.00 38.88 LIG-0.27  OA
ATOM     10  N   LYS Z  43     -13.273  17.930  -8.774  1.00 34.26 LIG-0.35  N 
ATOM     11 H    LYS Z  43     -13.576  17.844  -9.574  1.00 34.26 LIG 0.16  HD
BRANCH 10 12
ATOM     12  CA  LYS Z  43     -11.906  18.442  -8.686  1.00 43.39 LIG 0.18  C 
BRANCH 12 13
ATOM     13  C   LYS Z  43     -11.436  19.189  -9.935  1.00 55.57 LIG 0.24  C 
ATOM     14  N   ASN Z  44     -10.330  19.918  -9.815  1.00 60.92 LIG-0.34  N 
ATOM     15 H    ASN Z  44      -9.869  19.965  -9.091  1.00 60.92 LIG 0.16  HD
ATOM     16 O    LYS Z  43     -12.073  19.097 -10.987  1.00 61.19 LIG-0.27  OA
BRANCH 14 17
ATOM     17  CA  ASN Z  44      -9.791  20.718 -10.920  1.00 70.44 LIG 0.19  C 
BRANCH 17 18
ATOM     18  CB  ASN Z  44      -9.722  19.903 -12.219  1.00 74.13 LIG 0.14  C 
BRANCH 18 19
ATOM     19  CG  ASN Z  44      -9.537  20.774 -13.449  1.00 76.38 LIG 0.22  C 
ATOM     20  ND2 ASN Z  44      -8.371  21.403 -13.561  1.00 76.67 LIG-0.37  N 
ATOM     21 21HD ASN Z  44      -8.218  21.908 -14.240  1.00 76.67 LIG 0.16  HD
ATOM     22 22HD ASN Z  44      -7.769  21.304 -12.956  1.00 76.67 LIG 0.16  HD
ATOM     23 OD1  ASN Z  44     -10.433  20.881 -14.288  1.00 76.30 LIG-0.27  OA
ENDBRANCH 18 19
ENDBRANCH 17 18
BRANCH 17 24
ATOM     24  C   ASN Z  44     -10.571  22.015 -11.152  1.00 74.17 LIG 0.28  C 
ATOM     25 O    ASN Z  44     -11.786  22.067 -10.950  1.00 72.97 LIG-0.27  OA
ATOM     26  N   NH2 Z  45      -9.864  23.056 -11.580  1.00 76.38 LIG-0.11  N 
ENDBRANCH 17 24
ENDBRANCH 14 17
ENDBRANCH 12 13
BRANCH 12 27
ATOM     27  CB  LYS Z  43     -10.923  17.327  -8.311  1.00 40.99 LIG 0.04  C 
BRANCH 27 28
ATOM     28  CG  LYS Z  43      -9.812  17.131  -9.337  1.00 39.01 LIG 0.00  C 
BRANCH 28 29
ATOM     29  CD  LYS Z  43      -8.436  17.066  -8.686  1.00 38.38 LIG 0.03  C 
BRANCH 29 30
ATOM     30  CE  LYS Z  43      -7.996  18.446  -8.207  1.00 38.40 LIG 0.23  C 
BRANCH 30 31
ATOM     31  NZ  LYS Z  43      -6.599  18.788  -8.616  1.00 35.26 LIG-0.08  N 
ATOM     32 HZ3  LYS Z  43      -6.482  18.582  -9.474  1.00 35.26 LIG 0.27  HD
ATOM     33 HZ2  LYS Z  43      -6.022  18.327  -8.119  1.00 35.26 LIG 0.27  HD
ATOM     34 HZ1  LYS Z  43      -6.460  19.659  -8.499  1.00 35.26 LIG 0.27  HD
ENDBRANCH 30 31
ENDBRANCH 29 30
ENDBRANCH 28 29
ENDBRANCH 27 28
ENDBRANCH 12 27
ENDBRANCH 10 12
ENDBRANCH 7 8
BRANCH 7 35
ATOM     35  CB  ILE Z  42     -16.362  17.710  -6.985  1.00 30.84 LIG 0.01  C 
ATOM     36  CG2 ILE Z  42     -17.754  17.603  -7.598  1.00 35.03 LIG 0.01  C 
BRANCH 35 37
ATOM     37  CG1 ILE Z  42     -16.392  17.106  -5.584  1.00 30.67 LIG 0.00  C 
ATOM     38  CD1 ILE Z  42     -17.739  16.519  -5.207  1.00 26.38 LIG 0.01  C 
ENDBRANCH 35 37
ENDBRANCH 7 35
ENDBRANCH 5 7
ENDBRANCH 1 3
BRANCH 1 39
ATOM     39  N   ALA Z  41     -16.596  12.860  -7.118  1.00 17.22 LIG-0.35  N 
ATOM     40  C   ASN Z  40     -17.894  13.121  -7.262  1.00 21.77 LIG 0.24  C 
ATOM     41 O    ASN Z  40     -18.363  13.658  -8.267  1.00 19.61 LIG-0.27  OA
ATOM     42 H    ALA Z  41     -16.256  12.485  -6.423  1.00 17.22 LIG 0.16  HD
BRANCH 40 43
ATOM     43  CA  ASN Z  40     -18.807  12.717  -6.110  1.00 23.64 LIG 0.18  C 
BRANCH 43 44
ATOM     44  N   ASN Z  40     -20.202  12.527  -6.496  1.00 28.07 LIG-0.34  N 
ATOM     45 H    ASN Z  40     -20.332  11.932  -7.103  1.00 28.07 LIG 0.16  HD
ATOM     46  C   SER Z  39     -21.165  13.243  -5.926  1.00 29.35 LIG 0.24  C 
ATOM     47 O    SER Z  39     -20.939  14.147  -5.120  1.00 27.34 LIG-0.27  OA
BRANCH 46 48
ATOM     48  CA  SER Z  39     -22.594  12.902  -6.320  1.00 36.10 LIG 0.20  C 
BRANCH 48 49
ATOM     49  N   SER Z  39     -22.786  11.471  -6.125  1.00 45.98 LIG-0.34  N 
ATOM     50  C   ASN Z  38     -22.670  10.609  -7.131  1.00 57.47 LIG 0.24  C 
ATOM     51 O    ASN Z  38     -22.650  10.960  -8.313  1.00 60.64 LIG-0.27  OA
ATOM     52 H    SER Z  39     -22.975  11.244  -5.317  1.00 45.98 LIG 0.16  HD
BRANCH 50 53
ATOM     53  CA  ASN Z  38     -22.567   9.127  -6.739  1.00 65.29 LIG 0.18  C 
BRANCH 53 54
ATOM     54  N   ASN Z  38     -22.414   8.828  -5.312  1.00 70.64 LIG-0.35  N 
ATOM     55 H    ASN Z  38     -23.112   8.473  -4.957  1.00 70.64 LIG 0.16  HD
ATOM     56  C   ACE Z  37     -21.299   9.081  -4.630  1.00 74.22 LIG 0.21  C 
ATOM     57  CH3 ACE Z  37     -21.307   8.672  -3.159  1.00 75.88 LIG 0.12  C 
ATOM     58 O    ACE Z  37     -20.311   9.617  -5.129  1.00 75.32 LIG-0.27  OA
ENDBRANCH 53 54
BRANCH 53 59
ATOM     59  CB  ASN Z  38     -23.780   8.373  -7.304  1.00 65.91 LIG 0.12  C 
BRANCH 59 60
ATOM     60  CG  ASN Z  38     -23.893   6.952  -6.775  1.00 66.48 LIG 0.15  C 
ATOM     61 OD1  ASN Z  38     -23.474   5.990  -7.589  1.00 67.09 LIG-0.18  OA
ATOM     62  ND2 ASN Z  38     -24.353   6.721  -5.655  1.00 65.12 LIG-0.38  N 
ATOM     63 22HD ASN Z  38     -24.614   7.370  -5.155  1.00 65.12 LIG 0.16  HD
ATOM     64 21HD ASN Z  38     -24.411   5.910  -5.374  1.00 65.12 LIG 0.16  HD
ENDBRANCH 59 60
ENDBRANCH 53 59
ENDBRANCH 50 53
ENDBRANCH 48 49
BRANCH 48 65
ATOM     65  CB  SER Z  39     -23.569  13.716  -5.475  1.00 33.12 LIG 0.20  C 
BRANCH 65 66
ATOM     66 OG   SER Z  39     -24.256  12.878  -4.554  1.00 30.52 LIG-0.40  OA
ATOM     67 HG   SER Z  39     -24.204  13.207  -3.782  1.00 30.52 LIG 0.21  HD
ENDBRANCH 65 66
ENDBRANCH 48 65
ENDBRANCH 46 48
ENDBRANCH 43 44
BRANCH 43 68
ATOM     68  CB  ASN Z  40     -18.249  11.467  -5.426  1.00 19.94 LIG 0.14  C 
BRANCH 68 69
ATOM     69  CG  ASN Z  40     -18.011  11.678  -3.943  1.00 19.97 LIG 0.22  C 
ATOM     70 OD1  ASN Z  40     -17.151  12.470  -3.549  1.00 23.42 LIG-0.27  OA
ATOM     71  ND2 ASN Z  40     -18.761  10.963  -3.111  1.00 19.32 LIG-0.37  N 
ATOM     72 21HD ASN Z  40     -18.656  11.042  -2.261  1.00 19.32 LIG 0.16  HD
ATOM     73 22HD ASN Z  40     -19.351  10.421  -3.423  1.00 19.32 LIG 0.16  HD
ENDBRANCH 68 69
ENDBRANCH 43 68
ENDBRANCH 40 43
ENDBRANCH 1 39
TORSDOF 29
ENDMDL
MODEL 47
USER: ADFR SOLUTION from run 159
USER: SCORE 19.842122 LL:  -5.868 LR: -15.778 RR:   0.000 FEB:  -7.127
USER: RMSD 7.153092
USER: SEED 158
USER: STATUS no improvement in best in 5 clusters for 5 generations
USER: GENES 31
USER: genes 0 Translation |==|  0.49511 0.53402 0.37342
USER: genes 1 Rotation |==|  0.44374 0.99128 0.45179 0.55615
USER: genes 2 Torsion [N]-CA--C-[N] |==|  0.09326
USER: genes 3 Torsion [C]-N--CA-[C] |==|  0.77493
USER: genes 4 Torsion [N]-CA--C-[N] |==|  0.49444
USER: genes 5 Torsion [C]-N--CA-[C] |==|  0.83165
USER: genes 6 Torsion [N]-CA--C-[N] |==|  0.92002
USER: genes 7 Torsion [C]-N--CA-[CB] |==|  0.82469
USER: genes 8 Torsion [N]-CA--CB-[CG] |==|  0.93033
USER: genes 9 Torsion [CA]-CB--CG-[OD1] |==|  0.30839
USER: genes 10 Torsion [N]-CA--C-[N] |==|  0.36359
USER: genes 11 Torsion [N]-CA--CB-[CG] |==|  0.23669
USER: genes 12 Torsion [CA]-CB--CG-[CD] |==|  0.79146
USER: genes 13 Torsion [CB]-CG--CD-[CE] |==|  0.42058
USER: genes 14 Torsion [CG]-CD--CE-[NZ] |==|  0.34985
USER: genes 15 Torsion [CD]-CE--NZ-[HZ3] |==|  0.43871
USER: genes 16 Torsion [N]-CA--CB-[CG1] |==|  0.57208
USER: genes 17 Torsion [CA]-CB--CG1-[CD1] |==|  0.43419
USER: genes 18 Torsion [CB]-CA--N-[C] |==|  0.86649
USER: genes 19 Torsion [N]-C--CA-[N] |==|  0.34118
USER: genes 20 Torsion [C]-CA--N-[C] |==|  0.83038
USER: genes 21 Torsion [N]-C--CA-[N] |==|  0.95795
USER: genes 22 Torsion [C]-CA--N-[C] |==|  0.72962
USER: genes 23 Torsion [N]-C--CA-[N] |==|  0.89123
USER: genes 24 Torsion [C]-CA--N-[C] |==|  0.75748
USER: genes 25 Torsion [C]-CA--CB-[CG] |==|  0.21639
USER: genes 26 Torsion [CA]-CB--CG-[OD1] |==|  0.85030
USER: genes 27 Torsion [C]-CA--CB-[OG] |==|  0.67263
USER: genes 28 Torsion [CA]-CB--OG-[HG] |==|  0.84553
USER: genes 29 Torsion [C]-CA--CB-[CG] |==|  0.22972
USER: genes 30 Torsion [CA]-CB--CG-[OD1] |==|  0.88401
ROOT
ATOM      1  CA  ALA Z  41     -17.097  13.579  -8.197  1.00 21.22 LIG 0.17  C 
ATOM      2  CB  ALA Z  41     -17.303  13.909  -9.674  1.00 23.94 LIG 0.04  C 
ENDROOT
BRANCH 1 3
ATOM      3  C   ALA Z  41     -16.071  12.458  -8.042  1.00 23.72 LIG 0.24  C 
ATOM      4 O    ALA Z  41     -15.854  11.671  -8.964  1.00 25.98 LIG-0.27  OA
ATOM      5  N   ILE Z  42     -15.443  12.384  -6.873  1.00 25.83 LIG-0.35  N 
ATOM      6 H    ILE Z  42     -15.573  12.924  -6.217  1.00 25.83 LIG 0.16  HD
BRANCH 5 7
ATOM      7  CA  ILE Z  42     -14.455  11.341  -6.622  1.00 30.93 LIG 0.18  C 
BRANCH 7 8
ATOM      8  C   ILE Z  42     -15.103  10.009  -6.237  1.00 34.23 LIG 0.24  C 
ATOM      9 O    ILE Z  42     -16.326   9.918  -6.124  1.00 38.88 LIG-0.27  OA
ATOM     10  N   LYS Z  43     -14.286   8.981  -6.027  1.00 34.26 LIG-0.35  N 
ATOM     11 H    LYS Z  43     -13.428   9.033  -6.027  1.00 34.26 LIG 0.16  HD
BRANCH 10 12
ATOM     12  CA  LYS Z  43     -14.821   7.644  -5.773  1.00 43.39 LIG 0.18  C 
BRANCH 12 13
ATOM     13  C   LYS Z  43     -15.701   7.549  -4.526  1.00 55.57 LIG 0.24  C 
ATOM     14  N   ASN Z  44     -15.436   8.402  -3.540  1.00 60.92 LIG-0.34  N 
ATOM     15 H    ASN Z  44     -14.824   9.004  -3.585  1.00 60.92 LIG 0.16  HD
ATOM     16 O    LYS Z  43     -16.605   6.712  -4.469  1.00 61.19 LIG-0.27  OA
BRANCH 14 17
ATOM     17  CA  ASN Z  44     -16.173   8.393  -2.272  1.00 70.44 LIG 0.19  C 
BRANCH 17 18
ATOM     18  CB  ASN Z  44     -17.658   8.719  -2.485  1.00 74.13 LIG 0.14  C 
BRANCH 18 19
ATOM     19  CG  ASN Z  44     -17.906   9.535  -3.742  1.00 76.38 LIG 0.22  C 
ATOM     20  ND2 ASN Z  44     -17.463  10.789  -3.731  1.00 76.67 LIG-0.37  N 
ATOM     21 21HD ASN Z  44     -17.579  11.292  -4.419  1.00 76.67 LIG 0.16  HD
ATOM     22 22HD ASN Z  44     -17.060  11.097  -3.038  1.00 76.67 LIG 0.16  HD
ATOM     23 OD1  ASN Z  44     -18.489   9.044  -4.710  1.00 76.30 LIG-0.27  OA
ENDBRANCH 18 19
ENDBRANCH 17 18
BRANCH 17 24
ATOM     24  C   ASN Z  44     -16.027   7.075  -1.508  1.00 74.17 LIG 0.28  C 
ATOM     25 O    ASN Z  44     -16.208   5.993  -2.072  1.00 72.97 LIG-0.27  OA
ATOM     26  N   NH2 Z  45     -15.702   7.174  -0.223  1.00 76.38 LIG-0.11  N 
ENDBRANCH 17 24
ENDBRANCH 14 17
ENDBRANCH 12 13
BRANCH 12 27
ATOM     27  CB  LYS Z  43     -13.699   6.601  -5.732  1.00 40.99 LIG 0.04  C 
BRANCH 27 28
ATOM     28  CG  LYS Z  43     -13.037   6.477  -4.364  1.00 39.01 LIG 0.00  C 
BRANCH 28 29
ATOM     29  CD  LYS Z  43     -12.105   7.646  -4.070  1.00 38.38 LIG 0.03  C 
BRANCH 29 30
ATOM     30  CE  LYS Z  43     -12.015   7.906  -2.569  1.00 38.40 LIG 0.23  C 
BRANCH 30 31
ATOM     31  NZ  LYS Z  43     -10.609   7.912  -2.061  1.00 35.26 LIG-0.08  N 
ATOM     32 HZ3  LYS Z  43     -10.572   8.366  -1.295  1.00 35.26 LIG 0.27  HD
ATOM     33 HZ2  LYS Z  43     -10.077   8.300  -2.661  1.00 35.26 LIG 0.27  HD
ATOM     34 HZ1  LYS Z  43     -10.339   7.076  -1.922  1.00 35.26 LIG 0.27  HD
ENDBRANCH 30 31
ENDBRANCH 29 30
ENDBRANCH 28 29
ENDBRANCH 27 28
ENDBRANCH 12 27
ENDBRANCH 10 12
ENDBRANCH 7 8
BRANCH 7 35
ATOM     35  CB  ILE Z  42     -13.449  11.748  -5.530  1.00 30.84 LIG 0.01  C 
ATOM     36  CG2 ILE Z  42     -14.004  11.425  -4.147  1.00 35.03 LIG 0.01  C 
BRANCH 35 37
ATOM     37  CG1 ILE Z  42     -12.127  11.008  -5.717  1.00 30.67 LIG 0.00  C 
ATOM     38  CD1 ILE Z  42     -10.942  11.722  -5.094  1.00 26.38 LIG 0.01  C 
ENDBRANCH 35 37
ENDBRANCH 7 35
ENDBRANCH 5 7
ENDBRANCH 1 3
BRANCH 1 39
ATOM     39  N   ALA Z  41     -16.695  14.770  -7.453  1.00 17.22 LIG-0.35  N 
ATOM     40  C   ASN Z  40     -15.723  15.569  -7.889  1.00 21.77 LIG 0.24  C 
ATOM     41 O    ASN Z  40     -15.105  15.364  -8.935  1.00 19.61 LIG-0.27  OA
ATOM     42 H    ALA Z  41     -17.135  14.902  -6.726  1.00 17.22 LIG 0.16  HD
BRANCH 40 43
ATOM     43  CA  ASN Z  40     -15.394  16.782  -7.027  1.00 23.64 LIG 0.18  C 
BRANCH 43 44
ATOM     44  N   ASN Z  40     -14.000  16.844  -6.596  1.00 28.07 LIG-0.34  N 
ATOM     45 H    ASN Z  40     -13.568  17.537  -6.866  1.00 28.07 LIG 0.16  HD
ATOM     46  C   SER Z  39     -13.482  15.881  -5.843  1.00 29.35 LIG 0.24  C 
ATOM     47 O    SER Z  39     -14.103  14.859  -5.543  1.00 27.34 LIG-0.27  OA
BRANCH 46 48
ATOM     48  CA  SER Z  39     -12.054  16.084  -5.360  1.00 36.10 LIG 0.20  C 
BRANCH 48 49
ATOM     49  N   SER Z  39     -11.460  17.156  -6.148  1.00 45.98 LIG-0.34  N 
ATOM     50  C   ASN Z  38     -10.691  16.902  -7.202  1.00 57.47 LIG 0.24  C 
ATOM     51 O    ASN Z  38     -10.224  15.785  -7.435  1.00 60.64 LIG-0.27  OA
ATOM     52 H    SER Z  39     -11.651  17.948  -5.872  1.00 45.98 LIG 0.16  HD
BRANCH 50 53
ATOM     53  CA  ASN Z  38     -10.405  18.093  -8.130  1.00 65.29 LIG 0.18  C 
BRANCH 53 54
ATOM     54  N   ASN Z  38     -11.513  19.020  -8.379  1.00 70.64 LIG-0.35  N 
ATOM     55 H    ASN Z  38     -11.531  19.689  -7.838  1.00 70.64 LIG 0.16  HD
ATOM     56  C   ACE Z  37     -12.407  18.844  -9.348  1.00 74.22 LIG 0.21  C 
ATOM     57  CH3 ACE Z  37     -13.473  19.930  -9.482  1.00 75.88 LIG 0.12  C 
ATOM     58 O    ACE Z  37     -12.401  17.872 -10.101  1.00 75.32 LIG-0.27  OA
ENDBRANCH 53 54
BRANCH 53 59
ATOM     59  CB  ASN Z  38      -9.188  18.863  -7.597  1.00 65.91 LIG 0.12  C 
BRANCH 59 60
ATOM     60  CG  ASN Z  38      -7.868  18.182  -7.924  1.00 66.48 LIG 0.15  C 
ATOM     61 OD1  ASN Z  38      -7.756  16.912  -7.553  1.00 67.09 LIG-0.18  OA
ATOM     62  ND2 ASN Z  38      -6.961  18.788  -8.498  1.00 65.12 LIG-0.38  N 
ATOM     63 22HD ASN Z  38      -7.069  19.611  -8.724  1.00 65.12 LIG 0.16  HD
ATOM     64 21HD ASN Z  38      -6.220  18.388  -8.672  1.00 65.12 LIG 0.16  HD
ENDBRANCH 59 60
ENDBRANCH 53 59
ENDBRANCH 50 53
ENDBRANCH 48 49
BRANCH 48 65
ATOM     65  CB  SER Z  39     -12.057  16.422  -3.872  1.00 33.12 LIG 0.20  C 
BRANCH 65 66
ATOM     66 OG   SER Z  39     -11.513  17.716  -3.649  1.00 30.52 LIG-0.40  OA
ATOM     67 HG   SER Z  39     -10.745  17.759  -3.985  1.00 30.52 LIG 0.21  HD
ENDBRANCH 65 66
ENDBRANCH 48 65
ENDBRANCH 46 48
ENDBRANCH 43 44
BRANCH 43 68
ATOM     68  CB  ASN Z  40     -15.801  18.061  -7.763  1.00 19.94 LIG 0.14  C 
BRANCH 68 69
ATOM     69  CG  ASN Z  40     -17.275  18.378  -7.599  1.00 19.97 LIG 0.22  C 
ATOM     70 OD1  ASN Z  40     -18.122  17.484  -7.662  1.00 23.42 LIG-0.27  OA
ATOM     71  ND2 ASN Z  40     -17.591  19.654  -7.400  1.00 19.32 LIG-0.37  N 
ATOM     72 21HD ASN Z  40     -18.415  19.883  -7.309  1.00 19.32 LIG 0.16  HD
ATOM     73 22HD ASN Z  40     -16.972  20.249  -7.362  1.00 19.32 LIG 0.16  HD
ENDBRANCH 68 69
ENDBRANCH 43 68
ENDBRANCH 40 43
ENDBRANCH 1 39
TORSDOF 29
ENDMDL
MODEL 48
USER: ADFR SOLUTION from run 79
USER: SCORE 20.096470 LL:  -5.915 LR: -15.759 RR:   0.000 FEB:  -7.109
USER: RMSD 5.509330
USER: SEED 78
USER: STATUS searching
USER: GENES 31
USER: genes 0 Translation |==|  0.49412 0.48538 0.31848
USER: genes 1 Rotation |==|  0.30549 0.88208 0.42767 0.74688
USER: genes 2 Torsion [N]-CA--C-[N] |==|  0.12474
USER: genes 3 Torsion [C]-N--CA-[C] |==|  0.85768
USER: genes 4 Torsion [N]-CA--C-[N] |==|  0.38620
USER: genes 5 Torsion [C]-N--CA-[C] |==|  0.76185
USER: genes 6 Torsion [N]-CA--C-[N] |==|  0.17290
USER: genes 7 Torsion [C]-N--CA-[CB] |==|  0.16111
USER: genes 8 Torsion [N]-CA--CB-[CG] |==|  0.66181
USER: genes 9 Torsion [CA]-CB--CG-[OD1] |==|  0.66079
USER: genes 10 Torsion [N]-CA--C-[N] |==|  0.11625
USER: genes 11 Torsion [N]-CA--CB-[CG] |==|  0.12752
USER: genes 12 Torsion [CA]-CB--CG-[CD] |==|  0.31302
USER: genes 13 Torsion [CB]-CG--CD-[CE] |==|  0.70621
USER: genes 14 Torsion [CG]-CD--CE-[NZ] |==|  0.36268
USER: genes 15 Torsion [CD]-CE--NZ-[HZ3] |==|  0.16550
USER: genes 16 Torsion [N]-CA--CB-[CG1] |==|  0.38903
USER: genes 17 Torsion [CA]-CB--CG1-[CD1] |==|  0.26031
USER: genes 18 Torsion [CB]-CA--N-[C] |==|  0.81844
USER: genes 19 Torsion [N]-C--CA-[N] |==|  0.00094
USER: genes 20 Torsion [C]-CA--N-[C] |==|  0.21351
USER: genes 21 Torsion [N]-C--CA-[N] |==|  0.01270
USER: genes 22 Torsion [C]-CA--N-[C] |==|  0.74939
USER: genes 23 Torsion [N]-C--CA-[N] |==|  0.43590
USER: genes 24 Torsion [C]-CA--N-[C] |==|  0.66456
USER: genes 25 Torsion [C]-CA--CB-[CG] |==|  0.46274
USER: genes 26 Torsion [CA]-CB--CG-[OD1] |==|  0.38898
USER: genes 27 Torsion [C]-CA--CB-[OG] |==|  0.66077
USER: genes 28 Torsion [CA]-CB--OG-[HG] |==|  0.86197
USER: genes 29 Torsion [C]-CA--CB-[CG] |==|  0.42540
USER: genes 30 Torsion [CA]-CB--CG-[OD1] |==|  0.01676
ROOT
ATOM      1  CA  ALA Z  41     -17.121  12.448  -9.433  1.00 21.22 LIG 0.17  C 
ATOM      2  CB  ALA Z  41     -16.377  12.802 -10.719  1.00 23.94 LIG 0.04  C 
ENDROOT
BRANCH 1 3
ATOM      3  C   ALA Z  41     -16.129  12.176  -8.304  1.00 23.72 LIG 0.24  C 
ATOM      4 O    ALA Z  41     -14.928  12.038  -8.540  1.00 25.98 LIG-0.27  OA
ATOM      5  N   ILE Z  42     -16.632  12.097  -7.077  1.00 25.83 LIG-0.35  N 
ATOM      6 H    ILE Z  42     -17.465  12.195  -6.886  1.00 25.83 LIG 0.16  HD
BRANCH 5 7
ATOM      7  CA  ILE Z  42     -15.768  11.827  -5.933  1.00 30.93 LIG 0.18  C 
BRANCH 7 8
ATOM      8  C   ILE Z  42     -14.881  10.600  -6.152  1.00 34.23 LIG 0.24  C 
ATOM      9 O    ILE Z  42     -15.335   9.587  -6.684  1.00 38.88 LIG-0.27  OA
ATOM     10  N   LYS Z  43     -13.621  10.687  -5.735  1.00 34.26 LIG-0.35  N 
ATOM     11 H    LYS Z  43     -13.297  11.352  -5.296  1.00 34.26 LIG 0.16  HD
BRANCH 10 12
ATOM     12  CA  LYS Z  43     -12.670   9.611  -6.010  1.00 43.39 LIG 0.18  C 
BRANCH 12 13
ATOM     13  C   LYS Z  43     -12.690   8.480  -4.981  1.00 55.57 LIG 0.24  C 
ATOM     14  N   ASN Z  44     -13.827   7.798  -4.864  1.00 60.92 LIG-0.34  N 
ATOM     15 H    ASN Z  44     -14.522   7.948  -5.347  1.00 60.92 LIG 0.16  HD
ATOM     16 O    LYS Z  43     -11.685   8.236  -4.310  1.00 61.19 LIG-0.27  OA
BRANCH 14 17
ATOM     17  CA  ASN Z  44     -13.999   6.718  -3.888  1.00 70.44 LIG 0.19  C 
BRANCH 17 18
ATOM     18  CB  ASN Z  44     -13.750   7.212  -2.455  1.00 74.13 LIG 0.14  C 
BRANCH 18 19
ATOM     19  CG  ASN Z  44     -12.642   6.447  -1.754  1.00 76.38 LIG 0.22  C 
ATOM     20  ND2 ASN Z  44     -11.450   6.456  -2.344  1.00 76.67 LIG-0.37  N 
ATOM     21 21HD ASN Z  44     -10.790   6.037  -1.987  1.00 76.67 LIG 0.16  HD
ATOM     22 22HD ASN Z  44     -11.339   6.881  -3.083  1.00 76.67 LIG 0.16  HD
ATOM     23 OD1  ASN Z  44     -12.854   5.855  -0.695  1.00 76.30 LIG-0.27  OA
ENDBRANCH 18 19
ENDBRANCH 17 18
BRANCH 17 24
ATOM     24  C   ASN Z  44     -15.370   6.043  -3.982  1.00 74.17 LIG 0.28  C 
ATOM     25 O    ASN Z  44     -15.997   5.740  -2.965  1.00 72.97 LIG-0.27  OA
ATOM     26  N   NH2 Z  45     -15.825   5.809  -5.208  1.00 76.38 LIG-0.11  N 
ENDBRANCH 17 24
ENDBRANCH 14 17
ENDBRANCH 12 13
BRANCH 12 27
ATOM     27  CB  LYS Z  43     -11.251  10.163  -6.190  1.00 40.99 LIG 0.04  C 
BRANCH 27 28
ATOM     28  CG  LYS Z  43     -10.857  11.178  -5.122  1.00 39.01 LIG 0.00  C 
BRANCH 28 29
ATOM     29  CD  LYS Z  43      -9.752  10.655  -4.212  1.00 38.38 LIG 0.03  C 
BRANCH 29 30
ATOM     30  CE  LYS Z  43     -10.309  10.277  -2.843  1.00 38.40 LIG 0.23  C 
BRANCH 30 31
ATOM     31  NZ  LYS Z  43      -9.883   8.916  -2.394  1.00 35.26 LIG-0.08  N 
ATOM     32 HZ3  LYS Z  43      -8.995   8.883  -2.349  1.00 35.26 LIG 0.27  HD
ATOM     33 HZ2  LYS Z  43     -10.173   8.307  -2.975  1.00 35.26 LIG 0.27  HD
ATOM     34 HZ1  LYS Z  43     -10.228   8.746  -1.591  1.00 35.26 LIG 0.27  HD
ENDBRANCH 30 31
ENDBRANCH 29 30
ENDBRANCH 28 29
ENDBRANCH 27 28
ENDBRANCH 12 27
ENDBRANCH 10 12
ENDBRANCH 7 8
BRANCH 7 35
ATOM     35  CB  ILE Z  42     -16.572  11.644  -4.632  1.00 30.84 LIG 0.01  C 
ATOM     36  CG2 ILE Z  42     -18.028  11.316  -4.947  1.00 35.03 LIG 0.01  C 
BRANCH 35 37
ATOM     37  CG1 ILE Z  42     -15.982  10.514  -3.793  1.00 30.67 LIG 0.00  C 
ATOM     38  CD1 ILE Z  42     -14.982  10.990  -2.756  1.00 26.38 LIG 0.01  C 
ENDBRANCH 35 37
ENDBRANCH 7 35
ENDBRANCH 5 7
ENDBRANCH 1 3
BRANCH 1 39
ATOM     39  N   ALA Z  41     -18.058  13.509  -9.070  1.00 17.22 LIG-0.35  N 
ATOM     40  C   ASN Z  40     -17.634  14.724  -8.725  1.00 21.77 LIG 0.24  C 
ATOM     41 O    ASN Z  40     -16.443  15.034  -8.690  1.00 19.61 LIG-0.27  OA
ATOM     42 H    ALA Z  41     -18.886  13.279  -9.101  1.00 17.22 LIG 0.16  HD
BRANCH 40 43
ATOM     43  CA  ASN Z  40     -18.705  15.748  -8.369  1.00 23.64 LIG 0.18  C 
BRANCH 43 44
ATOM     44  N   ASN Z  40     -20.070  15.235  -8.452  1.00 28.07 LIG-0.34  N 
ATOM     45 H    ASN Z  40     -20.507  15.481  -9.151  1.00 28.07 LIG 0.16  HD
ATOM     46  C   SER Z  39     -20.557  14.450  -7.498  1.00 29.35 LIG 0.24  C 
ATOM     47 O    SER Z  39     -19.935  14.184  -6.468  1.00 27.34 LIG-0.27  OA
BRANCH 46 48
ATOM     48  CA  SER Z  39     -21.950  13.884  -7.723  1.00 36.10 LIG 0.20  C 
BRANCH 48 49
ATOM     49  N   SER Z  39     -22.388  14.283  -9.055  1.00 45.98 LIG-0.34  N 
ATOM     50  C   ASN Z  38     -23.055  15.415  -9.259  1.00 57.47 LIG 0.24  C 
ATOM     51 O    ASN Z  38     -23.564  16.065  -8.344  1.00 60.64 LIG-0.27  OA
ATOM     52 H    SER Z  39     -22.179  13.729  -9.679  1.00 45.98 LIG 0.16  HD
BRANCH 50 53
ATOM     53  CA  ASN Z  38     -23.165  15.876 -10.720  1.00 65.29 LIG 0.18  C 
BRANCH 53 54
ATOM     54  N   ASN Z  38     -24.277  16.773 -11.050  1.00 70.64 LIG-0.35  N 
ATOM     55 H    ASN Z  38     -24.270  17.508 -10.604  1.00 70.64 LIG 0.16  HD
ATOM     56  C   ACE Z  37     -25.208  16.478 -11.953  1.00 74.22 LIG 0.21  C 
ATOM     57  CH3 ACE Z  37     -26.273  17.546 -12.191  1.00 75.88 LIG 0.12  C 
ATOM     58 O    ACE Z  37     -25.236  15.413 -12.569  1.00 75.32 LIG-0.27  OA
ENDBRANCH 53 54
BRANCH 53 59
ATOM     59  CB  ASN Z  38     -21.834  16.513 -11.147  1.00 65.91 LIG 0.12  C 
BRANCH 59 60
ATOM     60  CG  ASN Z  38     -21.726  16.707 -12.651  1.00 66.48 LIG 0.15  C 
ATOM     61 OD1  ASN Z  38     -21.164  17.840 -13.056  1.00 67.09 LIG-0.18  OA
ATOM     62  ND2 ASN Z  38     -22.143  15.855 -13.438  1.00 65.12 LIG-0.38  N 
ATOM     63 22HD ASN Z  38     -22.501  15.132 -13.139  1.00 65.12 LIG 0.16  HD
ATOM     64 21HD ASN Z  38     -22.076  15.983 -14.285  1.00 65.12 LIG 0.16  HD
ENDBRANCH 59 60
ENDBRANCH 53 59
ENDBRANCH 50 53
ENDBRANCH 48 49
BRANCH 48 65
ATOM     65  CB  SER Z  39     -21.919  12.366  -7.577  1.00 33.12 LIG 0.20  C 
BRANCH 65 66
ATOM     66 OG   SER Z  39     -22.383  11.737  -8.766  1.00 30.52 LIG-0.40  OA
ATOM     67 HG   SER Z  39     -23.113  12.082  -8.999  1.00 30.52 LIG 0.21  HD
ENDBRANCH 65 66
ENDBRANCH 48 65
ENDBRANCH 46 48
ENDBRANCH 43 44
BRANCH 43 68
ATOM     68  CB  ASN Z  40     -18.419  16.331  -6.983  1.00 19.94 LIG 0.14  C 
BRANCH 68 69
ATOM     69  CG  ASN Z  40     -18.978  17.730  -6.818  1.00 19.97 LIG 0.22  C 
ATOM     70 OD1  ASN Z  40     -19.680  18.237  -7.696  1.00 23.42 LIG-0.27  OA
ATOM     71  ND2 ASN Z  40     -18.661  18.370  -5.696  1.00 19.32 LIG-0.37  N 
ATOM     72 21HD ASN Z  40     -18.948  19.169  -5.562  1.00 19.32 LIG 0.16  HD
ATOM     73 22HD ASN Z  40     -18.169  17.984  -5.106  1.00 19.32 LIG 0.16  HD
ENDBRANCH 68 69
ENDBRANCH 43 68
ENDBRANCH 40 43
ENDBRANCH 1 39
TORSDOF 29
ENDMDL
MODEL 49
USER: ADFR SOLUTION from run 21
USER: SCORE 19.780485 LL:  -5.606 LR: -15.765 RR:   0.000 FEB:  -7.114
USER: RMSD 8.009556
USER: SEED 20
USER: STATUS no improvement in best in 3 clusters for 5 generations
USER: GENES 31
USER: genes 0 Translation |==|  0.58179 0.51556 0.45708
USER: genes 1 Rotation |==|  0.56762 0.01412 0.59631 0.50875
USER: genes 2 Torsion [N]-CA--C-[N] |==|  0.06242
USER: genes 3 Torsion [C]-N--CA-[C] |==|  0.81646
USER: genes 4 Torsion [N]-CA--C-[N] |==|  0.45815
USER: genes 5 Torsion [C]-N--CA-[C] |==|  0.16683
USER: genes 6 Torsion [N]-CA--C-[N] |==|  0.07514
USER: genes 7 Torsion [C]-N--CA-[CB] |==|  0.78884
USER: genes 8 Torsion [N]-CA--CB-[CG] |==|  0.73820
USER: genes 9 Torsion [CA]-CB--CG-[OD1] |==|  0.96786
USER: genes 10 Torsion [N]-CA--C-[N] |==|  0.20945
USER: genes 11 Torsion [N]-CA--CB-[CG] |==|  0.72852
USER: genes 12 Torsion [CA]-CB--CG-[CD] |==|  0.57205
USER: genes 13 Torsion [CB]-CG--CD-[CE] |==|  0.42738
USER: genes 14 Torsion [CG]-CD--CE-[NZ] |==|  0.22838
USER: genes 15 Torsion [CD]-CE--NZ-[HZ3] |==|  0.60281
USER: genes 16 Torsion [N]-CA--CB-[CG1] |==|  0.56636
USER: genes 17 Torsion [CA]-CB--CG1-[CD1] |==|  0.51743
USER: genes 18 Torsion [CB]-CA--N-[C] |==|  0.18134
USER: genes 19 Torsion [N]-C--CA-[N] |==|  0.04304
USER: genes 20 Torsion [C]-CA--N-[C] |==|  0.72043
USER: genes 21 Torsion [N]-C--CA-[N] |==|  0.03855
USER: genes 22 Torsion [C]-CA--N-[C] |==|  0.73884
USER: genes 23 Torsion [N]-C--CA-[N] |==|  0.97067
USER: genes 24 Torsion [C]-CA--N-[C] |==|  0.58889
USER: genes 25 Torsion [C]-CA--CB-[CG] |==|  0.85693
USER: genes 26 Torsion [CA]-CB--CG-[OD1] |==|  0.23271
USER: genes 27 Torsion [C]-CA--CB-[OG] |==|  0.70071
USER: genes 28 Torsion [CA]-CB--OG-[HG] |==|  0.39287
USER: genes 29 Torsion [C]-CA--CB-[CG] |==|  0.79292
USER: genes 30 Torsion [CA]-CB--CG-[OD1] |==|  0.05562
ROOT
ATOM      1  CA  ALA Z  41     -15.017  13.150  -6.315  1.00 21.22 LIG 0.17  C 
ATOM      2  CB  ALA Z  41     -15.569  13.149  -7.739  1.00 23.94 LIG 0.04  C 
ENDROOT
BRANCH 1 3
ATOM      3  C   ALA Z  41     -13.953  12.065  -6.157  1.00 23.72 LIG 0.24  C 
ATOM      4 O    ALA Z  41     -14.049  10.997  -6.762  1.00 25.98 LIG-0.27  OA
ATOM      5  N   ILE Z  42     -12.941  12.339  -5.341  1.00 25.83 LIG-0.35  N 
ATOM      6 H    ILE Z  42     -12.849  13.079  -4.912  1.00 25.83 LIG 0.16  HD
BRANCH 5 7
ATOM      7  CA  ILE Z  42     -11.881  11.363  -5.113  1.00 30.93 LIG 0.18  C 
BRANCH 7 8
ATOM      8  C   ILE Z  42     -12.388  10.115  -4.386  1.00 34.23 LIG 0.24  C 
ATOM      9 O    ILE Z  42     -13.478  10.125  -3.813  1.00 38.88 LIG-0.27  OA
ATOM     10  N   LYS Z  43     -11.596   9.047  -4.401  1.00 34.26 LIG-0.35  N 
ATOM     11 H    LYS Z  43     -10.801   9.034  -4.729  1.00 34.26 LIG 0.16  HD
BRANCH 10 12
ATOM     12  CA  LYS Z  43     -12.049   7.776  -3.837  1.00 43.39 LIG 0.18  C 
BRANCH 12 13
ATOM     13  C   LYS Z  43     -13.302   7.206  -4.505  1.00 55.57 LIG 0.24  C 
ATOM     14  N   ASN Z  44     -13.512   7.548  -5.773  1.00 60.92 LIG-0.34  N 
ATOM     15 H    ASN Z  44     -12.974   8.041  -6.227  1.00 60.92 LIG 0.16  HD
ATOM     16 O    LYS Z  43     -14.059   6.469  -3.870  1.00 61.19 LIG-0.27  OA
BRANCH 14 17
ATOM     17  CA  ASN Z  44     -14.694   7.108  -6.521  1.00 70.44 LIG 0.19  C 
BRANCH 17 18
ATOM     18  CB  ASN Z  44     -14.574   5.638  -6.946  1.00 74.13 LIG 0.14  C 
BRANCH 18 19
ATOM     19  CG  ASN Z  44     -14.012   5.475  -8.348  1.00 76.38 LIG 0.22  C 
ATOM     20  ND2 ASN Z  44     -13.653   4.246  -8.704  1.00 76.67 LIG-0.37  N 
ATOM     21 21HD ASN Z  44     -13.329   4.102  -9.487  1.00 76.67 LIG 0.16  HD
ATOM     22 22HD ASN Z  44     -13.744   3.594  -8.151  1.00 76.67 LIG 0.16  HD
ATOM     23 OD1  ASN Z  44     -13.903   6.444  -9.101  1.00 76.30 LIG-0.27  OA
ENDBRANCH 18 19
ENDBRANCH 17 18
BRANCH 17 24
ATOM     24  C   ASN Z  44     -16.000   7.329  -5.754  1.00 74.17 LIG 0.28  C 
ATOM     25 O    ASN Z  44     -16.594   6.385  -5.229  1.00 72.97 LIG-0.27  OA
ATOM     26  N   NH2 Z  45     -16.442   8.582  -5.696  1.00 76.38 LIG-0.11  N 
ENDBRANCH 17 24
ENDBRANCH 14 17
ENDBRANCH 12 13
BRANCH 12 27
ATOM     27  CB  LYS Z  43     -12.237   7.883  -2.320  1.00 40.99 LIG 0.04  C 
BRANCH 27 28
ATOM     28  CG  LYS Z  43     -11.047   7.360  -1.524  1.00 39.01 LIG 0.00  C 
BRANCH 28 29
ATOM     29  CD  LYS Z  43     -11.450   6.885  -0.134  1.00 38.38 LIG 0.03  C 
BRANCH 29 30
ATOM     30  CE  LYS Z  43     -10.480   5.827   0.383  1.00 38.40 LIG 0.23  C 
BRANCH 30 31
ATOM     31  NZ  LYS Z  43      -9.241   6.413   0.980  1.00 35.26 LIG-0.08  N 
ATOM     32 HZ3  LYS Z  43      -8.542   5.899   0.779  1.00 35.26 LIG 0.27  HD
ATOM     33 HZ2  LYS Z  43      -9.330   6.459   1.864  1.00 35.26 LIG 0.27  HD
ATOM     34 HZ1  LYS Z  43      -9.111   7.230   0.652  1.00 35.26 LIG 0.27  HD
ENDBRANCH 30 31
ENDBRANCH 29 30
ENDBRANCH 28 29
ENDBRANCH 27 28
ENDBRANCH 12 27
ENDBRANCH 10 12
ENDBRANCH 7 8
BRANCH 7 35
ATOM     35  CB  ILE Z  42     -10.702  11.963  -4.326  1.00 30.84 LIG 0.01  C 
ATOM     36  CG2 ILE Z  42     -10.990  11.931  -2.828  1.00 35.03 LIG 0.01  C 
BRANCH 35 37
ATOM     37  CG1 ILE Z  42      -9.421  11.179  -4.599  1.00 30.67 LIG 0.00  C 
ATOM     38  CD1 ILE Z  42      -8.249  11.619  -3.742  1.00 26.38 LIG 0.01  C 
ENDBRANCH 35 37
ENDBRANCH 7 35
ENDBRANCH 5 7
ENDBRANCH 1 3
BRANCH 1 39
ATOM     39  N   ALA Z  41     -14.486  14.466  -5.968  1.00 17.22 LIG-0.35  N 
ATOM     40  C   ASN Z  40     -15.276  15.534  -5.875  1.00 21.77 LIG 0.24  C 
ATOM     41 O    ASN Z  40     -16.492  15.488  -6.069  1.00 19.61 LIG-0.27  OA
ATOM     42 H    ALA Z  41     -13.637  14.483  -5.834  1.00 17.22 LIG 0.16  HD
BRANCH 40 43
ATOM     43  CA  ASN Z  40     -14.607  16.852  -5.505  1.00 23.64 LIG 0.18  C 
BRANCH 43 44
ATOM     44  N   ASN Z  40     -13.154  16.843  -5.650  1.00 28.07 LIG-0.34  N 
ATOM     45 H    ASN Z  40     -12.870  16.943  -6.455  1.00 28.07 LIG 0.16  HD
ATOM     46  C   SER Z  39     -12.370  16.689  -4.589  1.00 29.35 LIG 0.24  C 
ATOM     47 O    SER Z  39     -12.809  16.464  -3.459  1.00 27.34 LIG-0.27  OA
BRANCH 46 48
ATOM     48  CA  SER Z  39     -10.871  16.795  -4.825  1.00 36.10 LIG 0.20  C 
BRANCH 48 49
ATOM     49  N   SER Z  39     -10.664  17.375  -6.146  1.00 45.98 LIG-0.34  N 
ATOM     50  C   ASN Z  38     -10.485  16.615  -7.221  1.00 57.47 LIG 0.24  C 
ATOM     51 O    ASN Z  38     -10.230  15.411  -7.153  1.00 60.64 LIG-0.27  OA
ATOM     52 H    SER Z  39     -10.669  18.235  -6.161  1.00 45.98 LIG 0.16  HD
BRANCH 50 53
ATOM     53  CA  ASN Z  38     -10.609  17.327  -8.577  1.00 65.29 LIG 0.18  C 
BRANCH 53 54
ATOM     54  N   ASN Z  38     -11.140  18.693  -8.563  1.00 70.64 LIG-0.35  N 
ATOM     55 H    ASN Z  38     -10.940  19.133  -7.851  1.00 70.64 LIG 0.16  HD
ATOM     56  C   ACE Z  37     -11.864  19.204  -9.555  1.00 74.22 LIG 0.21  C 
ATOM     57  CH3 ACE Z  37     -12.305  20.656  -9.384  1.00 75.88 LIG 0.12  C 
ATOM     58 O    ACE Z  37     -12.177  18.565 -10.559  1.00 75.32 LIG-0.27  OA
ENDBRANCH 53 54
BRANCH 53 59
ATOM     59  CB  ASN Z  38      -9.245  17.303  -9.283  1.00 65.91 LIG 0.12  C 
BRANCH 59 60
ATOM     60  CG  ASN Z  38      -8.115  17.814  -8.404  1.00 66.48 LIG 0.15  C 
ATOM     61 OD1  ASN Z  38      -7.577  16.931  -7.571  1.00 67.09 LIG-0.18  OA
ATOM     62  ND2 ASN Z  38      -7.733  18.984  -8.468  1.00 65.12 LIG-0.38  N 
ATOM     63 22HD ASN Z  38      -8.105  19.528  -9.021  1.00 65.12 LIG 0.16  HD
ATOM     64 21HD ASN Z  38      -7.093  19.256  -7.961  1.00 65.12 LIG 0.16  HD
ENDBRANCH 59 60
ENDBRANCH 53 59
ENDBRANCH 50 53
ENDBRANCH 48 49
BRANCH 48 65
ATOM     65  CB  SER Z  39     -10.237  17.651  -3.733  1.00 33.12 LIG 0.20  C 
BRANCH 65 66
ATOM     66 OG   SER Z  39      -9.849  18.917  -4.250  1.00 30.52 LIG-0.40  OA
ATOM     67 HG   SER Z  39     -10.004  19.513  -3.679  1.00 30.52 LIG 0.21  HD
ENDBRANCH 65 66
ENDBRANCH 48 65
ENDBRANCH 46 48
ENDBRANCH 43 44
BRANCH 43 68
ATOM     68  CB  ASN Z  40     -15.234  17.991  -6.312  1.00 19.94 LIG 0.14  C 
BRANCH 68 69
ATOM     69  CG  ASN Z  40     -14.786  17.988  -7.761  1.00 19.97 LIG 0.22  C 
ATOM     70 OD1  ASN Z  40     -14.317  16.969  -8.273  1.00 23.42 LIG-0.27  OA
ATOM     71  ND2 ASN Z  40     -14.916  19.131  -8.427  1.00 19.32 LIG-0.37  N 
ATOM     72 21HD ASN Z  40     -14.668  19.180  -9.249  1.00 19.32 LIG 0.16  HD
ATOM     73 22HD ASN Z  40     -15.248  19.821  -8.036  1.00 19.32 LIG 0.16  HD
ENDBRANCH 68 69
ENDBRANCH 43 68
ENDBRANCH 40 43
ENDBRANCH 1 39
TORSDOF 29
ENDMDL
MODEL 50
USER: ADFR SOLUTION from run 43
USER: SCORE 18.107103 LL:  -4.979 LR: -15.755 RR:   0.000 FEB:  -7.104
USER: RMSD 12.375571
USER: SEED 42
USER: STATUS no improvement in best in 9 clusters for 5 generations
USER: GENES 31
USER: genes 0 Translation |==|  0.55910 0.51020 0.35058
USER: genes 1 Rotation |==|  0.92453 0.36690 0.27701 0.54829
USER: genes 2 Torsion [N]-CA--C-[N] |==|  0.09445
USER: genes 3 Torsion [C]-N--CA-[C] |==|  0.65931
USER: genes 4 Torsion [N]-CA--C-[N] |==|  0.32365
USER: genes 5 Torsion [C]-N--CA-[C] |==|  0.52784
USER: genes 6 Torsion [N]-CA--C-[N] |==|  0.37702
USER: genes 7 Torsion [C]-N--CA-[CB] |==|  0.49631
USER: genes 8 Torsion [N]-CA--CB-[CG] |==|  0.91852
USER: genes 9 Torsion [CA]-CB--CG-[OD1] |==|  0.82032
USER: genes 10 Torsion [N]-CA--C-[N] |==|  0.45808
USER: genes 11 Torsion [N]-CA--CB-[CG] |==|  0.64674
USER: genes 12 Torsion [CA]-CB--CG-[CD] |==|  0.85258
USER: genes 13 Torsion [CB]-CG--CD-[CE] |==|  0.56446
USER: genes 14 Torsion [CG]-CD--CE-[NZ] |==|  0.29504
USER: genes 15 Torsion [CD]-CE--NZ-[HZ3] |==|  0.50743
USER: genes 16 Torsion [N]-CA--CB-[CG1] |==|  0.86278
USER: genes 17 Torsion [CA]-CB--CG1-[CD1] |==|  0.31894
USER: genes 18 Torsion [CB]-CA--N-[C] |==|  0.14957
USER: genes 19 Torsion [N]-C--CA-[N] |==|  0.89173
USER: genes 20 Torsion [C]-CA--N-[C] |==|  0.83731
USER: genes 21 Torsion [N]-C--CA-[N] |==|  0.36934
USER: genes 22 Torsion [C]-CA--N-[C] |==|  0.53649
USER: genes 23 Torsion [N]-C--CA-[N] |==|  0.84763
USER: genes 24 Torsion [C]-CA--N-[C] |==|  0.89370
USER: genes 25 Torsion [C]-CA--CB-[CG] |==|  0.76396
USER: genes 26 Torsion [CA]-CB--CG-[OD1] |==|  0.81973
USER: genes 27 Torsion [C]-CA--CB-[OG] |==|  0.09121
USER: genes 28 Torsion [CA]-CB--OG-[HG] |==|  0.54207
USER: genes 29 Torsion [C]-CA--CB-[CG] |==|  0.35261
USER: genes 30 Torsion [CA]-CB--CG-[OD1] |==|  0.80026
ROOT
ATOM      1  CA  ALA Z  41     -15.562  13.025  -8.711  1.00 21.22 LIG 0.17  C 
ATOM      2  CB  ALA Z  41     -16.678  12.335  -9.492  1.00 23.94 LIG 0.04  C 
ENDROOT
BRANCH 1 3
ATOM      3  C   ALA Z  41     -15.650  14.540  -8.886  1.00 23.72 LIG 0.24  C 
ATOM      4 O    ALA Z  41     -16.221  15.029  -9.861  1.00 25.98 LIG-0.27  OA
ATOM      5  N   ILE Z  42     -15.082  15.282  -7.941  1.00 25.83 LIG-0.35  N 
ATOM      6 H    ILE Z  42     -14.682  14.964  -7.249  1.00 25.83 LIG 0.16  HD
BRANCH 5 7
ATOM      7  CA  ILE Z  42     -15.100  16.738  -8.024  1.00 30.93 LIG 0.18  C 
BRANCH 7 8
ATOM      8  C   ILE Z  42     -13.693  17.338  -8.002  1.00 34.23 LIG 0.24  C 
ATOM      9 O    ILE Z  42     -12.974  17.209  -7.011  1.00 38.88 LIG-0.27  OA
ATOM     10  N   LYS Z  43     -13.305  18.001  -9.087  1.00 34.26 LIG-0.35  N 
ATOM     11 H    LYS Z  43     -13.810  18.169  -9.763  1.00 34.26 LIG 0.16  HD
BRANCH 10 12
ATOM     12  CA  LYS Z  43     -11.937  18.505  -9.203  1.00 43.39 LIG 0.18  C 
BRANCH 12 13
ATOM     13  C   LYS Z  43     -11.715  19.445 -10.389  1.00 55.57 LIG 0.24  C 
ATOM     14  N   ASN Z  44     -11.009  20.548 -10.154  1.00 60.92 LIG-0.34  N 
ATOM     15 H    ASN Z  44     -10.662  20.735  -9.390  1.00 60.92 LIG 0.16  HD
ATOM     16 O    LYS Z  43     -12.179  19.164 -11.496  1.00 61.19 LIG-0.27  OA
BRANCH 14 17
ATOM     17  CA  ASN Z  44     -10.757  21.556 -11.188  1.00 70.44 LIG 0.19  C 
BRANCH 17 18
ATOM     18  CB  ASN Z  44      -9.947  22.737 -10.634  1.00 74.13 LIG 0.14  C 
BRANCH 18 19
ATOM     19  CG  ASN Z  44     -10.193  22.974  -9.154  1.00 76.38 LIG 0.22  C 
ATOM     20  ND2 ASN Z  44      -9.155  22.789  -8.343  1.00 76.67 LIG-0.37  N 
ATOM     21 21HD ASN Z  44      -9.243  22.911  -7.497  1.00 76.67 LIG 0.16  HD
ATOM     22 22HD ASN Z  44      -8.395  22.548  -8.665  1.00 76.67 LIG 0.16  HD
ATOM     23 OD1  ASN Z  44     -11.302  23.320  -8.745  1.00 76.30 LIG-0.27  OA
ENDBRANCH 18 19
ENDBRANCH 17 18
BRANCH 17 24
ATOM     24  C   ASN Z  44     -10.067  20.979 -12.427  1.00 74.17 LIG 0.28  C 
ATOM     25 O    ASN Z  44      -9.530  19.870 -12.393  1.00 72.97 LIG-0.27  OA
ATOM     26  N   NH2 Z  45     -10.084  21.741 -13.516  1.00 76.38 LIG-0.11  N 
ENDBRANCH 17 24
ENDBRANCH 14 17
ENDBRANCH 12 13
BRANCH 12 27
ATOM     27  CB  LYS Z  43     -10.926  17.353  -9.220  1.00 40.99 LIG 0.04  C 
BRANCH 27 28
ATOM     28  CG  LYS Z  43      -9.818  17.504  -8.184  1.00 39.01 LIG 0.00  C 
BRANCH 28 29
ATOM     29  CD  LYS Z  43      -9.117  18.854  -8.286  1.00 38.38 LIG 0.03  C 
BRANCH 29 30
ATOM     30  CE  LYS Z  43      -7.715  18.785  -7.688  1.00 38.40 LIG 0.23  C 
BRANCH 30 31
ATOM     31  NZ  LYS Z  43      -6.638  18.787  -8.724  1.00 35.26 LIG-0.08  N 
ATOM     32 HZ3  LYS Z  43      -5.844  18.707  -8.328  1.00 35.26 LIG 0.27  HD
ATOM     33 HZ2  LYS Z  43      -6.665  19.551  -9.180  1.00 35.26 LIG 0.27  HD
ATOM     34 HZ1  LYS Z  43      -6.760  18.105  -9.282  1.00 35.26 LIG 0.27  HD
ENDBRANCH 30 31
ENDBRANCH 29 30
ENDBRANCH 28 29
ENDBRANCH 27 28
ENDBRANCH 12 27
ENDBRANCH 10 12
ENDBRANCH 7 8
BRANCH 7 35
ATOM     35  CB  ILE Z  42     -15.938  17.370  -6.897  1.00 30.84 LIG 0.01  C 
ATOM     36  CG2 ILE Z  42     -16.140  18.859  -7.154  1.00 35.03 LIG 0.01  C 
BRANCH 35 37
ATOM     37  CG1 ILE Z  42     -17.304  16.695  -6.802  1.00 30.67 LIG 0.00  C 
ATOM     38  CD1 ILE Z  42     -17.518  15.943  -5.502  1.00 26.38 LIG 0.01  C 
ENDBRANCH 35 37
ENDBRANCH 7 35
ENDBRANCH 5 7
ENDBRANCH 1 3
BRANCH 1 39
ATOM     39  N   ALA Z  41     -15.613  12.652  -7.299  1.00 17.22 LIG-0.35  N 
ATOM     40  C   ASN Z  40     -15.613  11.376  -6.916  1.00 21.77 LIG 0.24  C 
ATOM     41 O    ASN Z  40     -15.569  10.436  -7.711  1.00 19.61 LIG-0.27  OA
ATOM     42 H    ALA Z  41     -15.641  13.317  -6.756  1.00 17.22 LIG 0.16  HD
BRANCH 40 43
ATOM     43  CA  ASN Z  40     -15.667  11.111  -5.416  1.00 23.64 LIG 0.18  C 
BRANCH 43 44
ATOM     44  N   ASN Z  40     -14.868  12.037  -4.619  1.00 28.07 LIG-0.34  N 
ATOM     45 H    ASN Z  40     -15.309  12.481  -4.029  1.00 28.07 LIG 0.16  HD
ATOM     46  C   SER Z  39     -13.561  12.153  -4.825  1.00 29.35 LIG 0.24  C 
ATOM     47 O    SER Z  39     -12.972  11.566  -5.734  1.00 27.34 LIG-0.27  OA
BRANCH 46 48
ATOM     48  CA  SER Z  39     -12.799  13.067  -3.878  1.00 36.10 LIG 0.20  C 
BRANCH 48 49
ATOM     49  N   SER Z  39     -11.604  12.360  -3.436  1.00 45.98 LIG-0.34  N 
ATOM     50  C   ASN Z  38     -10.875  12.795  -2.412  1.00 57.47 LIG 0.24  C 
ATOM     51 O    ASN Z  38     -10.998  13.926  -1.938  1.00 60.64 LIG-0.27  OA
ATOM     52 H    SER Z  39     -11.420  11.653  -3.890  1.00 45.98 LIG 0.16  HD
BRANCH 50 53
ATOM     53  CA  ASN Z  38      -9.851  11.800  -1.844  1.00 65.29 LIG 0.18  C 
BRANCH 53 54
ATOM     54  N   ASN Z  38     -10.361  10.491  -1.426  1.00 70.64 LIG-0.35  N 
ATOM     55 H    ASN Z  38      -9.829   9.840  -1.610  1.00 70.64 LIG 0.16  HD
ATOM     56  C   ACE Z  37     -11.534  10.324  -0.821  1.00 74.22 LIG 0.21  C 
ATOM     57  CH3 ACE Z  37     -11.887   8.892  -0.427  1.00 75.88 LIG 0.12  C 
ATOM     58 O    ACE Z  37     -12.309  11.250  -0.587  1.00 75.32 LIG-0.27  OA
ENDBRANCH 53 54
BRANCH 53 59
ATOM     59  CB  ASN Z  38      -8.711  11.620  -2.857  1.00 65.91 LIG 0.12  C 
BRANCH 59 60
ATOM     60  CG  ASN Z  38      -9.021  10.575  -3.917  1.00 66.48 LIG 0.15  C 
ATOM     61 OD1  ASN Z  38      -9.157   9.327  -3.486  1.00 67.09 LIG-0.18  OA
ATOM     62  ND2 ASN Z  38      -9.134  10.883  -5.105  1.00 65.12 LIG-0.38  N 
ATOM     63 22HD ASN Z  38      -9.040  11.703  -5.348  1.00 65.12 LIG 0.16  HD
ATOM     64 21HD ASN Z  38      -9.307  10.278  -5.692  1.00 65.12 LIG 0.16  HD
ENDBRANCH 59 60
ENDBRANCH 53 59
ENDBRANCH 50 53
ENDBRANCH 48 49
BRANCH 48 65
ATOM     65  CB  SER Z  39     -12.446  14.369  -4.591  1.00 33.12 LIG 0.20  C 
BRANCH 65 66
ATOM     66 OG   SER Z  39     -13.456  14.716  -5.530  1.00 30.52 LIG-0.40  OA
ATOM     67 HG   SER Z  39     -13.162  15.304  -6.053  1.00 30.52 LIG 0.21  HD
ENDBRANCH 65 66
ENDBRANCH 48 65
ENDBRANCH 46 48
ENDBRANCH 43 44
BRANCH 43 68
ATOM     68  CB  ASN Z  40     -17.124  11.096  -4.949  1.00 19.94 LIG 0.14  C 
BRANCH 68 69
ATOM     69  CG  ASN Z  40     -17.472   9.835  -4.181  1.00 19.97 LIG 0.22  C 
ATOM     70 OD1  ASN Z  40     -17.580   8.753  -4.762  1.00 23.42 LIG-0.27  OA
ATOM     71  ND2 ASN Z  40     -17.662   9.968  -2.872  1.00 19.32 LIG-0.37  N 
ATOM     72 21HD ASN Z  40     -17.869   9.283  -2.396  1.00 19.32 LIG 0.16  HD
ATOM     73 22HD ASN Z  40     -17.578  10.740  -2.502  1.00 19.32 LIG 0.16  HD
ENDBRANCH 68 69
ENDBRANCH 43 68
ENDBRANCH 40 43
ENDBRANCH 1 39
TORSDOF 29
ENDMDL
MODEL 51
USER: ADFR SOLUTION from run 191
USER: SCORE 16.714825 LL:  -4.376 LR: -15.747 RR:   0.000 FEB:  -7.096
USER: RMSD 10.479547
USER: SEED 190
USER: STATUS searching
USER: GENES 31
USER: genes 0 Translation |==|  0.53038 0.55848 0.37743
USER: genes 1 Rotation |==|  0.06718 0.69129 0.57495 0.64303
USER: genes 2 Torsion [N]-CA--C-[N] |==|  0.20573
USER: genes 3 Torsion [C]-N--CA-[C] |==|  0.75911
USER: genes 4 Torsion [N]-CA--C-[N] |==|  0.43512
USER: genes 5 Torsion [C]-N--CA-[C] |==|  0.21183
USER: genes 6 Torsion [N]-CA--C-[N] |==|  0.34378
USER: genes 7 Torsion [C]-N--CA-[CB] |==|  0.77362
USER: genes 8 Torsion [N]-CA--CB-[CG] |==|  0.54825
USER: genes 9 Torsion [CA]-CB--CG-[OD1] |==|  0.70016
USER: genes 10 Torsion [N]-CA--C-[N] |==|  0.17856
USER: genes 11 Torsion [N]-CA--CB-[CG] |==|  0.53382
USER: genes 12 Torsion [CA]-CB--CG-[CD] |==|  0.67657
USER: genes 13 Torsion [CB]-CG--CD-[CE] |==|  0.31549
USER: genes 14 Torsion [CG]-CD--CE-[NZ] |==|  0.28603
USER: genes 15 Torsion [CD]-CE--NZ-[HZ3] |==|  0.37941
USER: genes 16 Torsion [N]-CA--CB-[CG1] |==|  0.27686
USER: genes 17 Torsion [CA]-CB--CG1-[CD1] |==|  0.43173
USER: genes 18 Torsion [CB]-CA--N-[C] |==|  0.83099
USER: genes 19 Torsion [N]-C--CA-[N] |==|  0.74427
USER: genes 20 Torsion [C]-CA--N-[C] |==|  0.72419
USER: genes 21 Torsion [N]-C--CA-[N] |==|  0.11828
USER: genes 22 Torsion [C]-CA--N-[C] |==|  0.16315
USER: genes 23 Torsion [N]-C--CA-[N] |==|  0.94359
USER: genes 24 Torsion [C]-CA--N-[C] |==|  0.60451
USER: genes 25 Torsion [C]-CA--CB-[CG] |==|  0.59634
USER: genes 26 Torsion [CA]-CB--CG-[OD1] |==|  0.22645
USER: genes 27 Torsion [C]-CA--CB-[OG] |==|  0.55785
USER: genes 28 Torsion [CA]-CB--OG-[HG] |==|  0.57965
USER: genes 29 Torsion [C]-CA--CB-[CG] |==|  0.55903
USER: genes 30 Torsion [CA]-CB--CG-[OD1] |==|  0.32475
ROOT
ATOM      1  CA  ALA Z  41     -16.251  14.148  -8.107  1.00 21.22 LIG 0.17  C 
ATOM      2  CB  ALA Z  41     -16.537  14.343  -9.594  1.00 23.94 LIG 0.04  C 
ENDROOT
BRANCH 1 3
ATOM      3  C   ALA Z  41     -15.768  15.456  -7.483  1.00 23.72 LIG 0.24  C 
ATOM      4 O    ALA Z  41     -15.947  16.531  -8.057  1.00 25.98 LIG-0.27  OA
ATOM      5  N   ILE Z  42     -15.152  15.363  -6.309  1.00 25.83 LIG-0.35  N 
ATOM      6 H    ILE Z  42     -15.020  14.626  -5.887  1.00 25.83 LIG 0.16  HD
BRANCH 5 7
ATOM      7  CA  ILE Z  42     -14.642  16.554  -5.639  1.00 30.93 LIG 0.18  C 
BRANCH 7 8
ATOM      8  C   ILE Z  42     -13.227  16.916  -6.095  1.00 34.23 LIG 0.24  C 
ATOM      9 O    ILE Z  42     -12.485  16.056  -6.572  1.00 38.88 LIG-0.27  OA
ATOM     10  N   LYS Z  43     -12.851  18.182  -5.942  1.00 34.26 LIG-0.35  N 
ATOM     11 H    LYS Z  43     -13.320  18.785  -5.547  1.00 34.26 LIG 0.16  HD
BRANCH 10 12
ATOM     12  CA  LYS Z  43     -11.564  18.645  -6.459  1.00 43.39 LIG 0.18  C 
BRANCH 12 13
ATOM     13  C   LYS Z  43     -11.537  18.855  -7.973  1.00 55.57 LIG 0.24  C 
ATOM     14  N   ASN Z  44     -11.180  20.063  -8.403  1.00 60.92 LIG-0.34  N 
ATOM     15 H    ASN Z  44     -10.948  20.703  -7.880  1.00 60.92 LIG 0.16  HD
ATOM     16 O    LYS Z  43     -11.835  17.930  -8.732  1.00 61.19 LIG-0.27  OA
BRANCH 14 17
ATOM     17  CA  ASN Z  44     -11.153  20.415  -9.826  1.00 70.44 LIG 0.19  C 
BRANCH 17 18
ATOM     18  CB  ASN Z  44      -9.861  19.929 -10.499  1.00 74.13 LIG 0.14  C 
BRANCH 18 19
ATOM     19  CG  ASN Z  44      -9.595  20.616 -11.826  1.00 76.38 LIG 0.22  C 
ATOM     20  ND2 ASN Z  44      -9.217  21.890 -11.770  1.00 76.67 LIG-0.37  N 
ATOM     21 21HD ASN Z  44      -9.055  22.324 -12.494  1.00 76.67 LIG 0.16  HD
ATOM     22 22HD ASN Z  44      -9.133  22.280 -11.008  1.00 76.67 LIG 0.16  HD
ATOM     23 OD1  ASN Z  44      -9.729  20.010 -12.891  1.00 76.30 LIG-0.27  OA
ENDBRANCH 18 19
ENDBRANCH 17 18
BRANCH 17 24
ATOM     24  C   ASN Z  44     -12.372  19.895 -10.592  1.00 74.17 LIG 0.28  C 
ATOM     25 O    ASN Z  44     -12.247  19.058 -11.489  1.00 72.97 LIG-0.27  OA
ATOM     26  N   NH2 Z  45     -13.549  20.400 -10.234  1.00 76.38 LIG-0.11  N 
ENDBRANCH 17 24
ENDBRANCH 14 17
ENDBRANCH 12 13
BRANCH 12 27
ATOM     27  CB  LYS Z  43     -10.427  17.718  -6.014  1.00 40.99 LIG 0.04  C 
BRANCH 27 28
ATOM     28  CG  LYS Z  43      -9.039  18.297  -6.267  1.00 39.01 LIG 0.00  C 
BRANCH 28 29
ATOM     29  CD  LYS Z  43      -8.243  17.465  -7.264  1.00 38.38 LIG 0.03  C 
BRANCH 29 30
ATOM     30  CE  LYS Z  43      -7.998  18.247  -8.551  1.00 38.40 LIG 0.23  C 
BRANCH 30 31
ATOM     31  NZ  LYS Z  43      -6.608  18.788  -8.650  1.00 35.26 LIG-0.08  N 
ATOM     32 HZ3  LYS Z  43      -6.296  18.656  -9.474  1.00 35.26 LIG 0.27  HD
ATOM     33 HZ2  LYS Z  43      -6.083  18.370  -8.065  1.00 35.26 LIG 0.27  HD
ATOM     34 HZ1  LYS Z  43      -6.614  19.660  -8.472  1.00 35.26 LIG 0.27  HD
ENDBRANCH 30 31
ENDBRANCH 29 30
ENDBRANCH 28 29
ENDBRANCH 27 28
ENDBRANCH 12 27
ENDBRANCH 10 12
ENDBRANCH 7 8
BRANCH 7 35
ATOM     35  CB  ILE Z  42     -14.656  16.405  -4.106  1.00 30.84 LIG 0.01  C 
ATOM     36  CG2 ILE Z  42     -15.641  15.318  -3.686  1.00 35.03 LIG 0.01  C 
BRANCH 35 37
ATOM     37  CG1 ILE Z  42     -13.267  16.038  -3.591  1.00 30.67 LIG 0.00  C 
ATOM     38  CD1 ILE Z  42     -13.033  16.438  -2.146  1.00 26.38 LIG 0.01  C 
ENDBRANCH 35 37
ENDBRANCH 7 35
ENDBRANCH 5 7
ENDBRANCH 1 3
BRANCH 1 39
ATOM     39  N   ALA Z  41     -17.433  13.637  -7.416  1.00 17.22 LIG-0.35  N 
ATOM     40  C   ASN Z  40     -18.572  14.325  -7.385  1.00 21.77 LIG 0.24  C 
ATOM     41 O    ASN Z  40     -18.710  15.423  -7.929  1.00 19.61 LIG-0.27  OA
ATOM     42 H    ALA Z  41     -17.324  12.871  -7.042  1.00 17.22 LIG 0.16  HD
BRANCH 40 43
ATOM     43  CA  ASN Z  40     -19.737  13.690  -6.635  1.00 23.64 LIG 0.18  C 
BRANCH 43 44
ATOM     44  N   ASN Z  40     -20.613  12.878  -7.475  1.00 28.07 LIG-0.34  N 
ATOM     45 H    ASN Z  40     -20.326  12.084  -7.636  1.00 28.07 LIG 0.16  HD
ATOM     46  C   SER Z  39     -21.758  13.371  -7.933  1.00 29.35 LIG 0.24  C 
ATOM     47 O    SER Z  39     -22.102  14.541  -7.754  1.00 27.34 LIG-0.27  OA
BRANCH 46 48
ATOM     48  CA  SER Z  39     -22.649  12.418  -8.713  1.00 36.10 LIG 0.20  C 
BRANCH 48 49
ATOM     49  N   SER Z  39     -22.657  11.137  -8.018  1.00 45.98 LIG-0.34  N 
ATOM     50  C   ASN Z  38     -23.062  11.031  -6.757  1.00 57.47 LIG 0.24  C 
ATOM     51 O    ASN Z  38     -23.213  12.007  -6.019  1.00 60.64 LIG-0.27  OA
ATOM     52 H    SER Z  39     -22.380  10.474  -8.491  1.00 45.98 LIG 0.16  HD
BRANCH 50 53
ATOM     53  CA  ASN Z  38     -23.333   9.605  -6.254  1.00 65.29 LIG 0.18  C 
BRANCH 53 54
ATOM     54  N   ASN Z  38     -23.572   8.578  -7.273  1.00 70.64 LIG-0.35  N 
ATOM     55 H    ASN Z  38     -23.084   8.670  -7.975  1.00 70.64 LIG 0.16  HD
ATOM     56  C   ACE Z  37     -24.458   7.597  -7.125  1.00 74.22 LIG 0.21  C 
ATOM     57  CH3 ACE Z  37     -24.548   6.596  -8.275  1.00 75.88 LIG 0.12  C 
ATOM     58 O    ACE Z  37     -25.178   7.483  -6.134  1.00 75.32 LIG-0.27  OA
ENDBRANCH 53 54
BRANCH 53 59
ATOM     59  CB  ASN Z  38     -22.185   9.171  -5.332  1.00 65.91 LIG 0.12  C 
BRANCH 59 60
ATOM     60  CG  ASN Z  38     -21.862   7.689  -5.444  1.00 66.48 LIG 0.15  C 
ATOM     61 OD1  ASN Z  38     -21.089   7.335  -6.464  1.00 67.09 LIG-0.18  OA
ATOM     62  ND2 ASN Z  38     -22.304   6.875  -4.631  1.00 65.12 LIG-0.38  N 
ATOM     63 22HD ASN Z  38     -22.802   7.141  -3.983  1.00 65.12 LIG 0.16  HD
ATOM     64 21HD ASN Z  38     -22.113   6.040  -4.712  1.00 65.12 LIG 0.16  HD
ENDBRANCH 59 60
ENDBRANCH 53 59
ENDBRANCH 50 53
ENDBRANCH 48 49
BRANCH 48 65
ATOM     65  CB  SER Z  39     -24.055  13.001  -8.824  1.00 33.12 LIG 0.20  C 
BRANCH 65 66
ATOM     66 OG   SER Z  39     -25.002  11.978  -9.104  1.00 30.52 LIG-0.40  OA
ATOM     67 HG   SER Z  39     -25.647  12.302  -9.534  1.00 30.52 LIG 0.21  HD
ENDBRANCH 65 66
ENDBRANCH 48 65
ENDBRANCH 46 48
ENDBRANCH 43 44
BRANCH 43 68
ATOM     68  CB  ASN Z  40     -19.206  12.881  -5.449  1.00 19.94 LIG 0.14  C 
BRANCH 68 69
ATOM     69  CG  ASN Z  40     -20.193  11.832  -4.976  1.00 19.97 LIG 0.22  C 
ATOM     70 OD1  ASN Z  40     -19.914  10.632  -5.036  1.00 23.42 LIG-0.27  OA
ATOM     71  ND2 ASN Z  40     -21.357  12.275  -4.513  1.00 19.32 LIG-0.37  N 
ATOM     72 21HD ASN Z  40     -21.952  11.717  -4.241  1.00 19.32 LIG 0.16  HD
ATOM     73 22HD ASN Z  40     -21.516  13.120  -4.486  1.00 19.32 LIG 0.16  HD
ENDBRANCH 68 69
ENDBRANCH 43 68
ENDBRANCH 40 43
ENDBRANCH 1 39
TORSDOF 29
ENDMDL
