MODEL 1
USER: ADFR SOLUTION from run 26
USER: SCORE 23.463193 LL:  -6.429 LR: -18.651 RR:   0.000 FEB: -11.193
USER: RMSD 13.126996
USER: SEED 25
USER: STATUS no improvement in best in 2 clusters for 5 generations
USER: GENES 27
USER: genes 0 Translation |==|  0.45725 0.53151 0.53973
USER: genes 1 Rotation |==|  0.34038 0.94206 0.67046 0.50699
USER: genes 2 Torsion [N]-CA--C-[N] |==|  0.43190
USER: genes 3 Torsion [C]-N--CA-[C] |==|  0.78892
USER: genes 4 Torsion [N]-CA--CB-[CG] |==|  0.86196
USER: genes 5 Torsion [CA]-CB--CG-[CD1] |==|  0.41999
USER: genes 6 Torsion [N]-CA--C-[N] |==|  0.87551
USER: genes 7 Torsion [C]-N--CA-[CB] |==|  0.44650
USER: genes 8 Torsion [N]-CA--CB-[CG] |==|  0.66517
USER: genes 9 Torsion [CA]-CB--CG-[CD1] |==|  0.56233
USER: genes 10 Torsion [N]-CA--C-[N] |==|  0.48322
USER: genes 11 Torsion [C]-N--CA-[C] |==|  0.79962
USER: genes 12 Torsion [N]-CA--C-[O] |==|  0.00937
USER: genes 13 Torsion [N]-CA--CB-[OG] |==|  0.23157
USER: genes 14 Torsion [CA]-CB--OG-[HG] |==|  0.81521
USER: genes 15 Torsion [N]-C--CA-[N] |==|  0.38640
USER: genes 16 Torsion [C]-CA--N-[C] |==|  0.71482
USER: genes 17 Torsion [N]-C--CA-[N] |==|  0.38195
USER: genes 18 Torsion [C]-CA--N-[C] |==|  0.63756
USER: genes 19 Torsion [N]-C--CA-[N] |==|  0.83220
USER: genes 20 Torsion [C]-CA--CB-[CG] |==|  0.35780
USER: genes 21 Torsion [CA]-CB--CG-[CD] |==|  0.14114
USER: genes 22 Torsion [CB]-CG--CD-[OE1] |==|  0.02209
USER: genes 23 Torsion [C]-CA--CB-[CG] |==|  0.91035
USER: genes 24 Torsion [CA]-CB--CG-[CD2] |==|  0.73485
USER: genes 25 Torsion [C]-CA--CB-[CG] |==|  0.28355
USER: genes 26 Torsion [CA]-CB--CG-[CD2] |==|  0.08300
ROOT
ATOM      1  C   LEU D   6      16.711  12.486  43.446  1.00 70.97 LIG 0.24  C 
ATOM      2 O    LEU D   6      16.161  13.400  44.041  1.00 69.80 LIG-0.27  OA
ATOM      3  N   PRO D   7      16.164  11.913  42.361  1.00 67.36 LIG-0.34  N 
ATOM      4  CA  PRO D   7      14.872  12.390  41.875  1.00 66.95 LIG 0.18  C 
ATOM      5  CB  PRO D   7      14.982  12.206  40.353  1.00 69.23 LIG 0.04  C 
ATOM      6  CG  PRO D   7      16.099  11.178  40.142  1.00 73.99 LIG 0.02  C 
ATOM      7  CD  PRO D   7      16.689  10.842  41.489  1.00 69.55 LIG 0.13  C 
ENDROOT
BRANCH 4 8
ATOM      8  C   PRO D   7      13.707  11.599  42.464  1.00 67.39 LIG 0.24  C 
ATOM      9  N   LEU D   8      12.540  12.232  42.504  1.00 63.51 LIG-0.35  N 
ATOM     10 H    LEU D   8      12.435  13.051  42.264  1.00 63.51 LIG 0.16  HD
ATOM     11 O    PRO D   7      13.857  10.444  42.869  1.00 65.73 LIG-0.27  OA
BRANCH 9 12
ATOM     12  CA  LEU D   8      11.324  11.591  42.963  1.00 63.43 LIG 0.18  C 
BRANCH 12 13
ATOM     13  CB  LEU D   8      10.279  12.617  43.388  1.00 63.06 LIG 0.04  C 
BRANCH 13 14
ATOM     14  CG  LEU D   8      10.842  13.652  44.333  1.00 67.32 LIG-0.02  C 
ATOM     15  CD1 LEU D   8      10.118  14.943  44.198  1.00 66.57 LIG 0.01  C 
ATOM     16  CD2 LEU D   8      10.859  13.149  45.751  1.00 70.19 LIG 0.01  C 
ENDBRANCH 13 14
ENDBRANCH 12 13
BRANCH 12 17
ATOM     17  C   LEU D   8      10.795  10.658  41.896  1.00 69.22 LIG 0.24  C 
ATOM     18  N   PHE D   9      10.776  11.118  40.639  1.00 66.75 LIG-0.35  N 
ATOM     19 H    PHE D   9      11.043  11.906  40.419  1.00 66.75 LIG 0.16  HD
ATOM     20 O    LEU D   8      10.360   9.552  42.217  1.00 69.38 LIG-0.27  OA
BRANCH 18 21
ATOM     21  CA  PHE D   9      10.298  10.322  39.517  1.00 67.50 LIG 0.18  C 
BRANCH 21 22
ATOM     22  CB  PHE D   9       9.942  11.216  38.321  1.00 70.09 LIG 0.07  C 
BRANCH 22 23
ATOM     23  CG  PHE D   9       8.519  11.169  37.809  1.00 72.62 LIG-0.06  A 
ATOM     24  CD2 PHE D   9       7.471  10.833  38.659  1.00 75.26 LIG 0.01  A 
ATOM     25  CE2 PHE D   9       6.154  10.826  38.199  1.00 78.46 LIG 0.00  A 
ATOM     26  CZ  PHE D   9       5.877  11.160  36.890  1.00 76.95 LIG 0.00  A 
ATOM     27  CE1 PHE D   9       6.898  11.515  36.037  1.00 77.74 LIG 0.00  A 
ATOM     28  CD1 PHE D   9       8.212  11.553  36.506  1.00 76.53 LIG 0.01  A 
ENDBRANCH 22 23
ENDBRANCH 21 22
BRANCH 21 29
ATOM     29  C   PHE D   9      11.314   9.257  39.102  1.00 72.50 LIG 0.24  C 
ATOM     30 O    PHE D   9      12.424   9.218  39.639  1.00 71.57 LIG-0.27  OA
ATOM     31  N   SER D  10      10.932   8.377  38.157  1.00 70.70 LIG-0.34  N 
ATOM     32 H    SER D  10      10.153   8.381  37.792  1.00 70.70 LIG 0.16  HD
BRANCH 31 33
ATOM     33  CA  SER D  10      11.819   7.321  37.657  1.00110.54 LIG 0.19  C 
BRANCH 33 34
ATOM     34  C   SER D  10      12.926   7.898  36.774  1.00112.68 LIG 0.22  C 
ATOM     35 O    SER D  10      13.017   9.116  36.618  1.00 61.17 LIG-0.29  OA
ENDBRANCH 33 34
BRANCH 33 36
ATOM     36  CB  SER D  10      11.028   6.255  36.904  1.00114.99 LIG 0.20  C 
BRANCH 36 37
ATOM     37 OG   SER D  10      10.789   6.627  35.555  1.00125.63 LIG-0.40  OA
ATOM     38 HG   SER D  10      10.276   7.292  35.534  1.00125.63 LIG 0.21  HD
ENDBRANCH 36 37
ENDBRANCH 33 36
ENDBRANCH 31 33
ENDBRANCH 21 29
ENDBRANCH 18 21
ENDBRANCH 12 17
ENDBRANCH 9 12
ENDBRANCH 4 8
BRANCH 1 39
ATOM     39  CA  LEU D   6      18.019  11.945  43.952  1.00 70.47 LIG 0.18  C 
BRANCH 39 40
ATOM     40  N   LEU D   6      18.998  12.926  44.392  1.00 72.03 LIG-0.35  N 
ATOM     41  C   PHE D   5      20.035  13.246  43.621  1.00 78.51 LIG 0.24  C 
ATOM     42 O    PHE D   5      20.212  12.773  42.492  1.00 77.96 LIG-0.27  OA
ATOM     43 H    LEU D   6      18.846  13.264  45.168  1.00 72.03 LIG 0.16  HD
BRANCH 41 44
ATOM     44  CA  PHE D   5      21.078  14.145  44.246  1.00 78.26 LIG 0.18  C 
BRANCH 44 45
ATOM     45  N   PHE D   5      22.414  13.660  43.892  1.00 79.00 LIG-0.34  N 
ATOM     46 H    PHE D   5      22.528  13.505  43.053  1.00 79.00 LIG 0.16  HD
ATOM     47  C   GLU D   4      23.357  13.483  44.820  1.00 84.09 LIG 0.26  C 
ATOM     48 O    GLU D   4      23.204  13.798  45.999  1.00 84.89 LIG-0.27  OA
BRANCH 47 49
ATOM     49  CA  GLU D   4      24.675  12.873  44.379  1.00 80.59 LIG 0.40  C 
ATOM     50  N   GLU D   4      24.454  11.540  43.825  1.00 81.26 LIG 0.61  N 
BRANCH 49 51
ATOM     51  CB  GLU D   4      25.341  13.786  43.326  1.00 81.69 LIG 0.06  C 
BRANCH 51 52
ATOM     52  CG  GLU D   4      26.789  14.136  43.630  1.00 88.66 LIG 0.12  C 
BRANCH 52 53
ATOM     53  CD  GLU D   4      27.704  12.967  43.948  1.00 99.07 LIG 0.17  C 
ATOM     54 OE1  GLU D   4      27.272  11.801  43.796  1.00 74.80 LIG-0.65  OA
ATOM     55 OE2  GLU D   4      28.884  13.222  44.280  1.00 93.08 LIG-0.65  OA
ENDBRANCH 52 53
ENDBRANCH 51 52
ENDBRANCH 49 51
ENDBRANCH 47 49
ENDBRANCH 44 45
BRANCH 44 56
ATOM     56  CB  PHE D   5      20.875  15.636  43.963  1.00 80.27 LIG 0.07  C 
BRANCH 56 57
ATOM     57  CG  PHE D   5      20.253  15.889  42.608  1.00 81.89 LIG-0.06  A 
ATOM     58  CD2 PHE D   5      21.047  16.175  41.499  1.00 84.17 LIG 0.01  A 
ATOM     59  CE2 PHE D   5      20.472  16.419  40.248  1.00 86.81 LIG 0.00  A 
ATOM     60  CZ  PHE D   5      19.103  16.362  40.097  1.00 84.76 LIG 0.00  A 
ATOM     61  CE1 PHE D   5      18.301  16.090  41.186  1.00 85.59 LIG 0.00  A 
ATOM     62  CD1 PHE D   5      18.874  15.859  42.441  1.00 84.61 LIG 0.01  A 
ENDBRANCH 56 57
ENDBRANCH 44 56
ENDBRANCH 41 44
ENDBRANCH 39 40
BRANCH 39 63
ATOM     63  CB  LEU D   6      17.791  10.889  45.028  1.00 70.57 LIG 0.04  C 
BRANCH 63 64
ATOM     64  CG  LEU D   6      17.951   9.461  44.554  1.00 75.48 LIG-0.02  C 
ATOM     65  CD2 LEU D   6      18.922   9.377  43.458  1.00 78.97 LIG 0.01  C 
ATOM     66  CD1 LEU D   6      16.656   8.900  44.134  1.00 75.94 LIG 0.01  C 
ENDBRANCH 63 64
ENDBRANCH 39 63
ENDBRANCH 1 39
TORSDOF 25
ENDMDL
MODEL 2
USER: ADFR SOLUTION from run 14
USER: SCORE 23.144738 LL:  -6.698 LR: -17.897 RR:   0.000 FEB: -10.439
USER: RMSD 13.030181
USER: SEED 976615
USER: STATUS searching
USER: GENES 27
USER: genes 0 Translation |==|  0.50590 0.52848 0.48699
USER: genes 1 Rotation |==|  0.51311 0.82731 0.12896 0.57091
USER: genes 2 Torsion [N]-CA--C-[N] |==|  0.48955
USER: genes 3 Torsion [C]-N--CA-[C] |==|  0.79362
USER: genes 4 Torsion [N]-CA--CB-[CG] |==|  0.62359
USER: genes 5 Torsion [CA]-CB--CG-[CD1] |==|  0.75532
USER: genes 6 Torsion [N]-CA--C-[N] |==|  0.36874
USER: genes 7 Torsion [C]-N--CA-[CB] |==|  0.79444
USER: genes 8 Torsion [N]-CA--CB-[CG] |==|  0.74971
USER: genes 9 Torsion [CA]-CB--CG-[CD1] |==|  0.65265
USER: genes 10 Torsion [N]-CA--C-[N] |==|  0.12364
USER: genes 11 Torsion [C]-N--CA-[C] |==|  0.16927
USER: genes 12 Torsion [N]-CA--C-[O] |==|  0.08413
USER: genes 13 Torsion [N]-CA--CB-[OG] |==|  0.59868
USER: genes 14 Torsion [CA]-CB--OG-[HG] |==|  0.82033
USER: genes 15 Torsion [N]-C--CA-[N] |==|  0.43255
USER: genes 16 Torsion [C]-CA--N-[C] |==|  0.60393
USER: genes 17 Torsion [N]-C--CA-[N] |==|  0.74258
USER: genes 18 Torsion [C]-CA--N-[C] |==|  0.68159
USER: genes 19 Torsion [N]-C--CA-[N] |==|  0.14954
USER: genes 20 Torsion [C]-CA--CB-[CG] |==|  0.52586
USER: genes 21 Torsion [CA]-CB--CG-[CD] |==|  0.20525
USER: genes 22 Torsion [CB]-CG--CD-[OE1] |==|  0.20638
USER: genes 23 Torsion [C]-CA--CB-[CG] |==|  0.26038
USER: genes 24 Torsion [CA]-CB--CG-[CD2] |==|  0.04339
USER: genes 25 Torsion [C]-CA--CB-[CG] |==|  0.65170
USER: genes 26 Torsion [CA]-CB--CG-[CD2] |==|  0.64986
ROOT
ATOM      1  C   LEU D   6      18.135  12.432  42.417  1.00 70.97 LIG 0.24  C 
ATOM      2 O    LEU D   6      18.659  12.144  41.352  1.00 69.80 LIG-0.27  OA
ATOM      3  N   PRO D   7      17.086  11.745  42.902  1.00 67.36 LIG-0.34  N 
ATOM      4  CA  PRO D   7      16.553  10.621  42.137  1.00 66.95 LIG 0.18  C 
ATOM      5  CB  PRO D   7      16.075   9.651  43.230  1.00 69.23 LIG 0.04  C 
ATOM      6  CG  PRO D   7      15.901  10.505  44.491  1.00 73.99 LIG 0.02  C 
ATOM      7  CD  PRO D   7      16.353  11.908  44.174  1.00 69.55 LIG 0.13  C 
ENDROOT
BRANCH 4 8
ATOM      8  C   PRO D   7      15.416  11.043  41.210  1.00 67.39 LIG 0.24  C 
ATOM      9  N   LEU D   8      14.929  10.090  40.423  1.00 63.51 LIG-0.35  N 
ATOM     10 H    LEU D   8      15.250   9.293  40.387  1.00 63.51 LIG 0.16  HD
ATOM     11 O    PRO D   7      14.987  12.198  41.208  1.00 65.73 LIG-0.27  OA
BRANCH 9 12
ATOM     12  CA  LEU D   8      13.799  10.312  39.543  1.00 63.43 LIG 0.18  C 
BRANCH 12 13
ATOM     13  CB  LEU D   8      13.734   9.258  38.443  1.00 63.06 LIG 0.04  C 
BRANCH 13 14
ATOM     14  CG  LEU D   8      13.449   9.859  37.087  1.00 67.32 LIG-0.02  C 
ATOM     15  CD1 LEU D   8      11.986   9.967  36.851  1.00 66.57 LIG 0.01  C 
ATOM     16  CD2 LEU D   8      14.158  11.174  36.911  1.00 70.19 LIG 0.01  C 
ENDBRANCH 13 14
ENDBRANCH 12 13
BRANCH 12 17
ATOM     17  C   LEU D   8      12.519  10.368  40.346  1.00 69.22 LIG 0.24  C 
ATOM     18  N   PHE D   9      11.678  11.376  40.085  1.00 66.75 LIG-0.35  N 
ATOM     19 H    PHE D   9      11.834  11.982  39.494  1.00 66.75 LIG 0.16  HD
ATOM     20 O    LEU D   8      12.320   9.535  41.231  1.00 69.38 LIG-0.27  OA
BRANCH 18 21
ATOM     21  CA  PHE D   9      10.410  11.544  40.780  1.00 67.50 LIG 0.18  C 
BRANCH 21 22
ATOM     22  CB  PHE D   9       9.379  10.513  40.300  1.00 70.09 LIG 0.07  C 
BRANCH 22 23
ATOM     23  CG  PHE D   9       8.497  10.895  39.131  1.00 72.62 LIG-0.06  A 
ATOM     24  CD2 PHE D   9       9.054  11.220  37.900  1.00 75.26 LIG 0.01  A 
ATOM     25  CE2 PHE D   9       8.242  11.535  36.811  1.00 78.46 LIG 0.00  A 
ATOM     26  CZ  PHE D   9       6.869  11.521  36.944  1.00 76.95 LIG 0.00  A 
ATOM     27  CE1 PHE D   9       6.297  11.183  38.151  1.00 77.74 LIG 0.00  A 
ATOM     28  CD1 PHE D   9       7.109  10.836  39.231  1.00 76.53 LIG 0.01  A 
ENDBRANCH 22 23
ENDBRANCH 21 22
BRANCH 21 29
ATOM     29  C   PHE D   9      10.580  11.461  42.299  1.00 72.50 LIG 0.24  C 
ATOM     30 O    PHE D   9       9.797  10.788  42.973  1.00 71.57 LIG-0.27  OA
ATOM     31  N   SER D  10      11.614  12.133  42.839  1.00 70.70 LIG-0.34  N 
ATOM     32 H    SER D  10      12.178  12.588  42.376  1.00 70.70 LIG 0.16  HD
BRANCH 31 33
ATOM     33  CA  SER D  10      11.875  12.151  44.283  1.00110.54 LIG 0.19  C 
BRANCH 33 34
ATOM     34  C   SER D  10      12.139  10.742  44.816  1.00112.68 LIG 0.22  C 
ATOM     35 O    SER D  10      12.657   9.896  44.087  1.00 61.17 LIG-0.29  OA
ENDBRANCH 33 34
BRANCH 33 36
ATOM     36  CB  SER D  10      10.721  12.806  45.037  1.00114.99 LIG 0.20  C 
BRANCH 36 37
ATOM     37 OG   SER D  10      11.175  13.552  46.155  1.00125.63 LIG-0.40  OA
ATOM     38 HG   SER D  10      11.524  13.033  46.716  1.00125.63 LIG 0.21  HD
ENDBRANCH 36 37
ENDBRANCH 33 36
ENDBRANCH 31 33
ENDBRANCH 21 29
ENDBRANCH 18 21
ENDBRANCH 12 17
ENDBRANCH 9 12
ENDBRANCH 4 8
BRANCH 1 39
ATOM     39  CA  LEU D   6      18.634  13.613  43.201  1.00 70.47 LIG 0.18  C 
BRANCH 39 40
ATOM     40  N   LEU D   6      20.023  13.988  42.990  1.00 72.03 LIG-0.35  N 
ATOM     41  C   PHE D   5      20.773  14.421  44.002  1.00 78.51 LIG 0.24  C 
ATOM     42 O    PHE D   5      20.363  14.494  45.167  1.00 77.96 LIG-0.27  OA
ATOM     43 H    LEU D   6      20.300  13.907  42.180  1.00 72.03 LIG 0.16  HD
BRANCH 41 44
ATOM     44  CA  PHE D   5      22.144  14.944  43.640  1.00 78.26 LIG 0.18  C 
BRANCH 44 45
ATOM     45  N   PHE D   5      23.121  13.856  43.739  1.00 79.00 LIG-0.34  N 
ATOM     46 H    PHE D   5      23.006  13.219  43.172  1.00 79.00 LIG 0.16  HD
ATOM     47  C   GLU D   4      24.099  13.882  44.647  1.00 84.09 LIG 0.26  C 
ATOM     48 O    GLU D   4      24.303  14.844  45.386  1.00 84.89 LIG-0.27  OA
BRANCH 47 49
ATOM     49  CA  GLU D   4      24.998  12.663  44.750  1.00 80.59 LIG 0.40  C 
ATOM     50  N   GLU D   4      25.562  12.340  43.443  1.00 81.26 LIG 0.61  N 
BRANCH 49 51
ATOM     51  CB  GLU D   4      26.127  12.936  45.768  1.00 81.69 LIG 0.06  C 
BRANCH 51 52
ATOM     52  CG  GLU D   4      27.215  11.875  45.793  1.00 88.66 LIG 0.12  C 
BRANCH 52 53
ATOM     53  CD  GLU D   4      28.175  11.880  44.617  1.00 99.07 LIG 0.17  C 
ATOM     54 OE1  GLU D   4      29.049  12.776  44.550  1.00 74.80 LIG-0.65  OA
ATOM     55 OE2  GLU D   4      28.098  10.937  43.796  1.00 93.08 LIG-0.65  OA
ENDBRANCH 52 53
ENDBRANCH 51 52
ENDBRANCH 49 51
ENDBRANCH 47 49
ENDBRANCH 44 45
BRANCH 44 56
ATOM     56  CB  PHE D   5      22.200  15.696  42.307  1.00 80.27 LIG 0.07  C 
BRANCH 56 57
ATOM     57  CG  PHE D   5      22.030  17.188  42.478  1.00 81.89 LIG-0.06  A 
ATOM     58  CD2 PHE D   5      22.170  17.785  43.730  1.00 84.17 LIG 0.01  A 
ATOM     59  CE2 PHE D   5      22.002  19.164  43.889  1.00 86.81 LIG 0.00  A 
ATOM     60  CZ  PHE D   5      21.711  19.954  42.798  1.00 84.76 LIG 0.00  A 
ATOM     61  CE1 PHE D   5      21.558  19.378  41.553  1.00 85.59 LIG 0.00  A 
ATOM     62  CD1 PHE D   5      21.712  17.996  41.394  1.00 84.61 LIG 0.01  A 
ENDBRANCH 56 57
ENDBRANCH 44 56
ENDBRANCH 41 44
ENDBRANCH 39 40
BRANCH 39 63
ATOM     63  CB  LEU D   6      17.715  14.816  43.018  1.00 70.57 LIG 0.04  C 
BRANCH 63 64
ATOM     64  CG  LEU D   6      18.411  16.073  42.540  1.00 75.48 LIG-0.02  C 
ATOM     65  CD2 LEU D   6      18.131  17.201  43.434  1.00 78.97 LIG 0.01  C 
ATOM     66  CD1 LEU D   6      18.012  16.401  41.162  1.00 75.94 LIG 0.01  C 
ENDBRANCH 63 64
ENDBRANCH 39 63
ENDBRANCH 1 39
TORSDOF 25
ENDMDL
MODEL 3
USER: ADFR SOLUTION from run 99
USER: SCORE 22.251959 LL:  -6.440 LR: -17.878 RR:   0.000 FEB: -10.420
USER: RMSD 12.490711
USER: SEED 98
USER: STATUS searching
USER: GENES 27
USER: genes 0 Translation |==|  0.51334 0.54103 0.47732
USER: genes 1 Rotation |==|  0.44794 0.78219 0.09094 0.51824
USER: genes 2 Torsion [N]-CA--C-[N] |==|  0.30372
USER: genes 3 Torsion [C]-N--CA-[C] |==|  0.71555
USER: genes 4 Torsion [N]-CA--CB-[CG] |==|  0.48992
USER: genes 5 Torsion [CA]-CB--CG-[CD1] |==|  0.75152
USER: genes 6 Torsion [N]-CA--C-[N] |==|  0.86744
USER: genes 7 Torsion [C]-N--CA-[CB] |==|  0.87091
USER: genes 8 Torsion [N]-CA--CB-[CG] |==|  0.88508
USER: genes 9 Torsion [CA]-CB--CG-[CD1] |==|  0.33321
USER: genes 10 Torsion [N]-CA--C-[N] |==|  0.30864
USER: genes 11 Torsion [C]-N--CA-[C] |==|  0.83818
USER: genes 12 Torsion [N]-CA--C-[O] |==|  0.35094
USER: genes 13 Torsion [N]-CA--CB-[OG] |==|  0.07266
USER: genes 14 Torsion [CA]-CB--OG-[HG] |==|  0.79618
USER: genes 15 Torsion [N]-C--CA-[N] |==|  0.23889
USER: genes 16 Torsion [C]-CA--N-[C] |==|  0.66632
USER: genes 17 Torsion [N]-C--CA-[N] |==|  0.97080
USER: genes 18 Torsion [C]-CA--N-[C] |==|  0.58385
USER: genes 19 Torsion [N]-C--CA-[N] |==|  0.92174
USER: genes 20 Torsion [C]-CA--CB-[CG] |==|  0.19329
USER: genes 21 Torsion [CA]-CB--CG-[CD] |==|  0.32007
USER: genes 22 Torsion [CB]-CG--CD-[OE1] |==|  0.92118
USER: genes 23 Torsion [C]-CA--CB-[CG] |==|  0.89889
USER: genes 24 Torsion [CA]-CB--CG-[CD2] |==|  0.36855
USER: genes 25 Torsion [C]-CA--CB-[CG] |==|  0.30420
USER: genes 26 Torsion [CA]-CB--CG-[CD2] |==|  0.47250
ROOT
ATOM      1  C   LEU D   6      18.352  12.658  42.229  1.00 70.97 LIG 0.24  C 
ATOM      2 O    LEU D   6      18.536  12.078  41.169  1.00 69.80 LIG-0.27  OA
ATOM      3  N   PRO D   7      17.522  12.175  43.168  1.00 67.36 LIG-0.34  N 
ATOM      4  CA  PRO D   7      16.814  10.922  42.922  1.00 66.95 LIG 0.18  C 
ATOM      5  CB  PRO D   7      16.721  10.293  44.321  1.00 69.23 LIG 0.04  C 
ATOM      6  CG  PRO D   7      16.915  11.450  45.307  1.00 73.99 LIG 0.02  C 
ATOM      7  CD  PRO D   7      17.207  12.699  44.514  1.00 69.55 LIG 0.13  C 
ENDROOT
BRANCH 4 8
ATOM      8  C   PRO D   7      15.437  11.150  42.305  1.00 67.39 LIG 0.24  C 
ATOM      9  N   LEU D   8      15.308  10.792  41.032  1.00 63.51 LIG-0.35  N 
ATOM     10 H    LEU D   8      15.958  10.493  40.554  1.00 63.51 LIG 0.16  HD
ATOM     11 O    PRO D   7      14.513  11.635  42.961  1.00 65.73 LIG-0.27  OA
BRANCH 9 12
ATOM     12  CA  LEU D   8      14.045  10.874  40.327  1.00 63.43 LIG 0.18  C 
BRANCH 12 13
ATOM     13  CB  LEU D   8      14.210  11.532  38.961  1.00 63.06 LIG 0.04  C 
BRANCH 13 14
ATOM     14  CG  LEU D   8      12.923  11.549  38.172  1.00 67.32 LIG-0.02  C 
ATOM     15  CD1 LEU D   8      12.787  10.318  37.350  1.00 66.57 LIG 0.01  C 
ATOM     16  CD2 LEU D   8      11.735  11.777  39.066  1.00 70.19 LIG 0.01  C 
ENDBRANCH 13 14
ENDBRANCH 12 13
BRANCH 12 17
ATOM     17  C   LEU D   8      13.421   9.500  40.217  1.00 69.22 LIG 0.24  C 
ATOM     18  N   PHE D   9      14.212   8.502  39.803  1.00 66.75 LIG-0.35  N 
ATOM     19 H    PHE D   9      15.041   8.609  39.598  1.00 66.75 LIG 0.16  HD
ATOM     20 O    LEU D   8      12.222   9.356  40.456  1.00 69.38 LIG-0.27  OA
BRANCH 18 21
ATOM     21  CA  PHE D   9      13.741   7.132  39.660  1.00 67.50 LIG 0.18  C 
BRANCH 21 22
ATOM     22  CB  PHE D   9      12.935   6.697  40.891  1.00 70.09 LIG 0.07  C 
BRANCH 22 23
ATOM     23  CG  PHE D   9      13.455   7.107  42.251  1.00 72.62 LIG-0.06  A 
ATOM     24  CD2 PHE D   9      14.749   6.782  42.643  1.00 75.26 LIG 0.01  A 
ATOM     25  CE2 PHE D   9      15.244   7.192  43.880  1.00 78.46 LIG 0.00  A 
ATOM     26  CZ  PHE D   9      14.451   7.933  44.732  1.00 76.95 LIG 0.00  A 
ATOM     27  CE1 PHE D   9      13.173   8.282  44.355  1.00 77.74 LIG 0.00  A 
ATOM     28  CD1 PHE D   9      12.689   7.900  43.103  1.00 76.53 LIG 0.01  A 
ENDBRANCH 22 23
ENDBRANCH 21 22
BRANCH 21 29
ATOM     29  C   PHE D   9      12.913   6.946  38.387  1.00 72.50 LIG 0.24  C 
ATOM     30 O    PHE D   9      11.809   7.485  38.283  1.00 71.57 LIG-0.27  OA
ATOM     31  N   SER D  10      13.451   6.195  37.407  1.00 70.70 LIG-0.34  N 
ATOM     32 H    SER D  10      14.229   5.833  37.460  1.00 70.70 LIG 0.16  HD
BRANCH 31 33
ATOM     33  CA  SER D  10      12.751   5.924  36.146  1.00110.54 LIG 0.19  C 
BRANCH 33 34
ATOM     34  C   SER D  10      11.407   5.237  36.395  1.00112.68 LIG 0.22  C 
ATOM     35 O    SER D  10      10.376   5.712  35.921  1.00 61.17 LIG-0.29  OA
ENDBRANCH 33 34
BRANCH 33 36
ATOM     36  CB  SER D  10      13.620   5.089  35.209  1.00114.99 LIG 0.20  C 
BRANCH 36 37
ATOM     37 OG   SER D  10      14.560   4.300  35.921  1.00125.63 LIG-0.40  OA
ATOM     38 HG   SER D  10      15.171   4.794  36.220  1.00125.63 LIG 0.21  HD
ENDBRANCH 36 37
ENDBRANCH 33 36
ENDBRANCH 31 33
ENDBRANCH 21 29
ENDBRANCH 18 21
ENDBRANCH 12 17
ENDBRANCH 9 12
ENDBRANCH 4 8
BRANCH 1 39
ATOM     39  CA  LEU D   6      19.032  13.973  42.488  1.00 70.47 LIG 0.18  C 
BRANCH 39 40
ATOM     40  N   LEU D   6      20.277  13.920  43.238  1.00 72.03 LIG-0.35  N 
ATOM     41  C   PHE D   5      20.400  14.561  44.399  1.00 78.51 LIG 0.24  C 
ATOM     42 O    PHE D   5      19.477  15.196  44.924  1.00 77.96 LIG-0.27  OA
ATOM     43 H    LEU D   6      20.900  13.453  42.873  1.00 72.03 LIG 0.16  HD
BRANCH 41 44
ATOM     44  CA  PHE D   5      21.784  14.579  45.007  1.00 78.26 LIG 0.18  C 
BRANCH 44 45
ATOM     45  N   PHE D   5      22.649  13.651  44.275  1.00 79.00 LIG-0.34  N 
ATOM     46 H    PHE D   5      22.448  13.555  43.444  1.00 79.00 LIG 0.16  HD
ATOM     47  C   GLU D   4      23.660  13.021  44.878  1.00 84.09 LIG 0.26  C 
ATOM     48 O    GLU D   4      23.988  13.242  46.042  1.00 84.89 LIG-0.27  OA
BRANCH 47 49
ATOM     49  CA  GLU D   4      24.433  11.995  44.070  1.00 80.59 LIG 0.40  C 
ATOM     50  N   GLU D   4      23.575  11.407  43.046  1.00 81.26 LIG 0.61  N 
BRANCH 49 51
ATOM     51  CB  GLU D   4      25.660  12.669  43.417  1.00 81.69 LIG 0.06  C 
BRANCH 51 52
ATOM     52  CG  GLU D   4      26.745  13.077  44.400  1.00 88.66 LIG 0.12  C 
BRANCH 52 53
ATOM     53  CD  GLU D   4      28.076  12.360  44.259  1.00 99.07 LIG 0.17  C 
ATOM     54 OE1  GLU D   4      28.091  11.195  43.796  1.00 74.80 LIG-0.65  OA
ATOM     55 OE2  GLU D   4      29.116  12.995  44.546  1.00 93.08 LIG-0.65  OA
ENDBRANCH 52 53
ENDBRANCH 51 52
ENDBRANCH 49 51
ENDBRANCH 47 49
ENDBRANCH 44 45
BRANCH 44 56
ATOM     56  CB  PHE D   5      22.385  15.979  45.165  1.00 80.27 LIG 0.07  C 
BRANCH 56 57
ATOM     57  CG  PHE D   5      22.014  16.899  44.024  1.00 81.89 LIG-0.06  A 
ATOM     58  CD2 PHE D   5      21.549  18.190  44.268  1.00 84.17 LIG 0.01  A 
ATOM     59  CE2 PHE D   5      21.197  19.037  43.213  1.00 86.81 LIG 0.00  A 
ATOM     60  CZ  PHE D   5      21.322  18.605  41.911  1.00 84.76 LIG 0.00  A 
ATOM     61  CE1 PHE D   5      21.770  17.326  41.650  1.00 85.59 LIG 0.00  A 
ATOM     62  CD1 PHE D   5      22.111  16.472  42.706  1.00 84.61 LIG 0.01  A 
ENDBRANCH 56 57
ENDBRANCH 44 56
ENDBRANCH 41 44
ENDBRANCH 39 40
BRANCH 39 63
ATOM     63  CB  LEU D   6      19.215  14.756  41.193  1.00 70.57 LIG 0.04  C 
BRANCH 63 64
ATOM     64  CG  LEU D   6      18.337  15.983  41.069  1.00 75.48 LIG-0.02  C 
ATOM     65  CD2 LEU D   6      18.735  16.801  39.920  1.00 78.97 LIG 0.01  C 
ATOM     66  CD1 LEU D   6      18.377  16.783  42.305  1.00 75.94 LIG 0.01  C 
ENDBRANCH 63 64
ENDBRANCH 39 63
ENDBRANCH 1 39
TORSDOF 25
ENDMDL
MODEL 4
USER: ADFR SOLUTION from run 96
USER: SCORE 21.931667 LL:  -6.096 LR: -17.836 RR:   0.000 FEB: -10.379
USER: RMSD 12.815700
USER: SEED 95
USER: STATUS no improvement in best in 35 clusters for 5 generations
USER: GENES 27
USER: genes 0 Translation |==|  0.54640 0.58703 0.48546
USER: genes 1 Rotation |==|  0.58151 0.18776 0.88184 0.50777
USER: genes 2 Torsion [N]-CA--C-[N] |==|  0.42756
USER: genes 3 Torsion [C]-N--CA-[C] |==|  0.83810
USER: genes 4 Torsion [N]-CA--CB-[CG] |==|  0.67457
USER: genes 5 Torsion [CA]-CB--CG-[CD1] |==|  0.04818
USER: genes 6 Torsion [N]-CA--C-[N] |==|  0.38435
USER: genes 7 Torsion [C]-N--CA-[CB] |==|  0.51160
USER: genes 8 Torsion [N]-CA--CB-[CG] |==|  0.67343
USER: genes 9 Torsion [CA]-CB--CG-[CD1] |==|  0.90759
USER: genes 10 Torsion [N]-CA--C-[N] |==|  0.38651
USER: genes 11 Torsion [C]-N--CA-[C] |==|  0.83006
USER: genes 12 Torsion [N]-CA--C-[O] |==|  0.58452
USER: genes 13 Torsion [N]-CA--CB-[OG] |==|  0.81309
USER: genes 14 Torsion [CA]-CB--OG-[HG] |==|  0.18135
USER: genes 15 Torsion [N]-C--CA-[N] |==|  0.19372
USER: genes 16 Torsion [C]-CA--N-[C] |==|  0.70162
USER: genes 17 Torsion [N]-C--CA-[N] |==|  0.92483
USER: genes 18 Torsion [C]-CA--N-[C] |==|  0.23888
USER: genes 19 Torsion [N]-C--CA-[N] |==|  0.56939
USER: genes 20 Torsion [C]-CA--CB-[CG] |==|  0.74439
USER: genes 21 Torsion [CA]-CB--CG-[CD] |==|  0.77039
USER: genes 22 Torsion [CB]-CG--CD-[OE1] |==|  0.93922
USER: genes 23 Torsion [C]-CA--CB-[CG] |==|  0.00681
USER: genes 24 Torsion [CA]-CB--CG-[CD2] |==|  0.77934
USER: genes 25 Torsion [C]-CA--CB-[CG] |==|  0.25233
USER: genes 26 Torsion [CA]-CB--CG-[CD2] |==|  0.01556
ROOT
ATOM      1  C   LEU D   6      19.319  13.485  42.387  1.00 70.97 LIG 0.24  C 
ATOM      2 O    LEU D   6      19.299  13.064  41.241  1.00 69.80 LIG-0.27  OA
ATOM      3  N   PRO D   7      18.640  12.883  43.378  1.00 67.36 LIG-0.34  N 
ATOM      4  CA  PRO D   7      17.852  11.690  43.082  1.00 66.95 LIG 0.18  C 
ATOM      5  CB  PRO D   7      17.970  10.864  44.373  1.00 69.23 LIG 0.04  C 
ATOM      6  CG  PRO D   7      18.372  11.863  45.465  1.00 73.99 LIG 0.02  C 
ATOM      7  CD  PRO D   7      18.576  13.209  44.818  1.00 69.55 LIG 0.13  C 
ENDROOT
BRANCH 4 8
ATOM      8  C   PRO D   7      16.401  12.026  42.749  1.00 67.39 LIG 0.24  C 
ATOM      9  N   LEU D   8      15.768  11.151  41.974  1.00 63.51 LIG-0.35  N 
ATOM     10 H    LEU D   8      16.146  10.458  41.632  1.00 63.51 LIG 0.16  HD
ATOM     11 O    PRO D   7      15.865  13.048  43.182  1.00 65.73 LIG-0.27  OA
BRANCH 9 12
ATOM     12  CA  LEU D   8      14.367  11.289  41.632  1.00 63.43 LIG 0.18  C 
BRANCH 12 13
ATOM     13  CB  LEU D   8      13.916  10.190  40.675  1.00 63.06 LIG 0.04  C 
BRANCH 13 14
ATOM     14  CG  LEU D   8      13.465  10.738  39.343  1.00 67.32 LIG-0.02  C 
ATOM     15  CD1 LEU D   8      13.953  12.128  39.148  1.00 66.57 LIG 0.01  C 
ATOM     16  CD2 LEU D   8      13.860   9.827  38.213  1.00 70.19 LIG 0.01  C 
ENDBRANCH 13 14
ENDBRANCH 12 13
BRANCH 12 17
ATOM     17  C   LEU D   8      13.526  11.319  42.889  1.00 69.22 LIG 0.24  C 
ATOM     18  N   PHE D   9      12.521  12.203  42.930  1.00 66.75 LIG-0.35  N 
ATOM     19 H    PHE D   9      12.340  12.744  42.286  1.00 66.75 LIG 0.16  HD
ATOM     20 O    LEU D   8      13.819  10.586  43.834  1.00 69.38 LIG-0.27  OA
BRANCH 18 21
ATOM     21  CA  PHE D   9      11.633  12.333  44.076  1.00 67.50 LIG 0.18  C 
BRANCH 21 22
ATOM     22  CB  PHE D   9      10.519  13.350  43.796  1.00 70.09 LIG 0.07  C 
BRANCH 22 23
ATOM     23  CG  PHE D   9      10.462  14.586  44.667  1.00 72.62 LIG-0.06  A 
ATOM     24  CD2 PHE D   9       9.939  15.776  44.176  1.00 75.26 LIG 0.01  A 
ATOM     25  CE2 PHE D   9       9.850  16.906  44.988  1.00 78.46 LIG 0.00  A 
ATOM     26  CZ  PHE D   9      10.279  16.852  46.298  1.00 76.95 LIG 0.00  A 
ATOM     27  CE1 PHE D   9      10.783  15.676  46.811  1.00 77.74 LIG 0.00  A 
ATOM     28  CD1 PHE D   9      10.841  14.537  46.007  1.00 76.53 LIG 0.01  A 
ENDBRANCH 22 23
ENDBRANCH 21 22
BRANCH 21 29
ATOM     29  C   PHE D   9      11.034  10.985  44.486  1.00 72.50 LIG 0.24  C 
ATOM     30 O    PHE D   9      10.670  10.182  43.624  1.00 71.57 LIG-0.27  OA
ATOM     31  N   SER D  10      10.945  10.728  45.805  1.00 70.70 LIG-0.34  N 
ATOM     32 H    SER D  10      11.215  11.271  46.414  1.00 70.70 LIG 0.16  HD
BRANCH 31 33
ATOM     33  CA  SER D  10      10.372   9.483  46.328  1.00110.54 LIG 0.19  C 
BRANCH 33 34
ATOM     34  C   SER D  10       8.908   9.328  45.911  1.00112.68 LIG 0.22  C 
ATOM     35 O    SER D  10       8.122   8.724  46.640  1.00 61.17 LIG-0.29  OA
ENDBRANCH 33 34
BRANCH 33 36
ATOM     36  CB  SER D  10      10.511   9.414  47.846  1.00114.99 LIG 0.20  C 
BRANCH 36 37
ATOM     37 OG   SER D  10      11.867   9.296  48.249  1.00125.63 LIG-0.40  OA
ATOM     38 HG   SER D  10      12.284   9.994  48.038  1.00125.63 LIG 0.21  HD
ENDBRANCH 36 37
ENDBRANCH 33 36
ENDBRANCH 31 33
ENDBRANCH 21 29
ENDBRANCH 18 21
ENDBRANCH 12 17
ENDBRANCH 9 12
ENDBRANCH 4 8
BRANCH 1 39
ATOM     39  CA  LEU D   6      20.084  14.739  42.710  1.00 70.47 LIG 0.18  C 
BRANCH 39 40
ATOM     40  N   LEU D   6      21.263  14.579  43.546  1.00 72.03 LIG-0.35  N 
ATOM     41  C   PHE D   5      21.259  14.986  44.814  1.00 78.51 LIG 0.24  C 
ATOM     42 O    PHE D   5      20.267  15.479  45.364  1.00 77.96 LIG-0.27  OA
ATOM     43 H    LEU D   6      21.936  14.211  43.156  1.00 72.03 LIG 0.16  HD
BRANCH 41 44
ATOM     44  CA  PHE D   5      22.586  14.928  45.537  1.00 78.26 LIG 0.18  C 
BRANCH 44 45
ATOM     45  N   PHE D   5      23.418  13.881  44.941  1.00 79.00 LIG-0.34  N 
ATOM     46 H    PHE D   5      23.365  13.116  45.332  1.00 79.00 LIG 0.16  HD
ATOM     47  C   GLU D   4      24.186  14.125  43.877  1.00 84.09 LIG 0.26  C 
ATOM     48 O    GLU D   4      24.178  15.199  43.276  1.00 84.89 LIG-0.27  OA
BRANCH 47 49
ATOM     49  CA  GLU D   4      25.098  13.011  43.394  1.00 80.59 LIG 0.40  C 
ATOM     50  N   GLU D   4      26.237  13.569  42.671  1.00 81.26 LIG 0.61  N 
BRANCH 49 51
ATOM     51  CB  GLU D   4      25.586  12.182  44.603  1.00 81.69 LIG 0.06  C 
BRANCH 51 52
ATOM     52  CG  GLU D   4      26.903  12.657  45.195  1.00 88.66 LIG 0.12  C 
BRANCH 52 53
ATOM     53  CD  GLU D   4      28.160  12.168  44.498  1.00 99.07 LIG 0.17  C 
ATOM     54 OE1  GLU D   4      28.100  11.132  43.796  1.00 74.80 LIG-0.65  OA
ATOM     55 OE2  GLU D   4      29.194  12.868  44.597  1.00 93.08 LIG-0.65  OA
ENDBRANCH 52 53
ENDBRANCH 51 52
ENDBRANCH 49 51
ENDBRANCH 47 49
ENDBRANCH 44 45
BRANCH 44 56
ATOM     56  CB  PHE D   5      23.296  16.279  45.659  1.00 80.27 LIG 0.07  C 
BRANCH 56 57
ATOM     57  CG  PHE D   5      22.486  17.414  45.075  1.00 81.89 LIG-0.06  A 
ATOM     58  CD2 PHE D   5      22.454  17.635  43.699  1.00 84.17 LIG 0.01  A 
ATOM     59  CE2 PHE D   5      21.712  18.691  43.160  1.00 86.81 LIG 0.00  A 
ATOM     60  CZ  PHE D   5      20.989  19.519  43.990  1.00 84.76 LIG 0.00  A 
ATOM     61  CE1 PHE D   5      21.017  19.321  45.355  1.00 85.59 LIG 0.00  A 
ATOM     62  CD1 PHE D   5      21.769  18.273  45.898  1.00 84.61 LIG 0.01  A 
ENDBRANCH 56 57
ENDBRANCH 44 56
ENDBRANCH 41 44
ENDBRANCH 39 40
BRANCH 39 63
ATOM     63  CB  LEU D   6      20.423  15.511  41.440  1.00 70.57 LIG 0.04  C 
BRANCH 63 64
ATOM     64  CG  LEU D   6      19.389  16.540  41.033  1.00 75.48 LIG-0.02  C 
ATOM     65  CD2 LEU D   6      18.335  16.653  42.045  1.00 78.97 LIG 0.01  C 
ATOM     66  CD1 LEU D   6      18.807  16.207  39.723  1.00 75.94 LIG 0.01  C 
ENDBRANCH 63 64
ENDBRANCH 39 63
ENDBRANCH 1 39
TORSDOF 25
ENDMDL
MODEL 5
USER: ADFR SOLUTION from run 22
USER: SCORE 23.076272 LL:  -7.278 LR: -17.742 RR:   0.000 FEB: -10.284
USER: RMSD 4.789785
USER: SEED 21
USER: STATUS searching
USER: GENES 27
USER: genes 0 Translation |==|  0.52720 0.51675 0.50011
USER: genes 1 Rotation |==|  0.07770 0.26489 0.41203 0.59297
USER: genes 2 Torsion [N]-CA--C-[N] |==|  0.53464
USER: genes 3 Torsion [C]-N--CA-[C] |==|  0.15877
USER: genes 4 Torsion [N]-CA--CB-[CG] |==|  0.85016
USER: genes 5 Torsion [CA]-CB--CG-[CD1] |==|  0.91059
USER: genes 6 Torsion [N]-CA--C-[N] |==|  0.06718
USER: genes 7 Torsion [C]-N--CA-[CB] |==|  0.43889
USER: genes 8 Torsion [N]-CA--CB-[CG] |==|  0.74053
USER: genes 9 Torsion [CA]-CB--CG-[CD1] |==|  0.53373
USER: genes 10 Torsion [N]-CA--C-[N] |==|  0.97515
USER: genes 11 Torsion [C]-N--CA-[C] |==|  0.84193
USER: genes 12 Torsion [N]-CA--C-[O] |==|  0.28465
USER: genes 13 Torsion [N]-CA--CB-[OG] |==|  0.09502
USER: genes 14 Torsion [CA]-CB--OG-[HG] |==|  0.42610
USER: genes 15 Torsion [N]-C--CA-[N] |==|  0.24577
USER: genes 16 Torsion [C]-CA--N-[C] |==|  0.72413
USER: genes 17 Torsion [N]-C--CA-[N] |==|  0.38533
USER: genes 18 Torsion [C]-CA--N-[C] |==|  0.83740
USER: genes 19 Torsion [N]-C--CA-[N] |==|  0.50895
USER: genes 20 Torsion [C]-CA--CB-[CG] |==|  0.35928
USER: genes 21 Torsion [CA]-CB--CG-[CD] |==|  0.99044
USER: genes 22 Torsion [CB]-CG--CD-[OE1] |==|  0.33586
USER: genes 23 Torsion [C]-CA--CB-[CG] |==|  0.44316
USER: genes 24 Torsion [CA]-CB--CG-[CD2] |==|  0.69858
USER: genes 25 Torsion [C]-CA--CB-[CG] |==|  0.63317
USER: genes 26 Torsion [CA]-CB--CG-[CD2] |==|  0.70998
ROOT
ATOM      1  C   LEU D   6      18.758  12.221  42.673  1.00 70.97 LIG 0.24  C 
ATOM      2 O    LEU D   6      19.696  11.586  42.216  1.00 69.80 LIG-0.27  OA
ATOM      3  N   PRO D   7      18.772  13.562  42.740  1.00 67.36 LIG-0.34  N 
ATOM      4  CA  PRO D   7      19.942  14.290  42.255  1.00 66.95 LIG 0.18  C 
ATOM      5  CB  PRO D   7      19.337  15.588  41.696  1.00 69.23 LIG 0.04  C 
ATOM      6  CG  PRO D   7      17.964  15.724  42.364  1.00 73.99 LIG 0.02  C 
ATOM      7  CD  PRO D   7      17.731  14.499  43.210  1.00 69.55 LIG 0.13  C 
ENDROOT
BRANCH 4 8
ATOM      8  C   PRO D   7      20.953  14.561  43.365  1.00 67.39 LIG 0.24  C 
ATOM      9  N   LEU D   8      21.913  15.431  43.072  1.00 63.51 LIG-0.35  N 
ATOM     10 H    LEU D   8      22.006  15.795  42.298  1.00 63.51 LIG 0.16  HD
ATOM     11 O    PRO D   7      20.868  14.001  44.459  1.00 65.73 LIG-0.27  OA
BRANCH 9 12
ATOM     12  CA  LEU D   8      22.903  15.852  44.044  1.00 63.43 LIG 0.18  C 
BRANCH 12 13
ATOM     13  CB  LEU D   8      22.272  16.679  45.159  1.00 63.06 LIG 0.04  C 
BRANCH 13 14
ATOM     14  CG  LEU D   8      21.482  17.851  44.629  1.00 67.32 LIG-0.02  C 
ATOM     15  CD1 LEU D   8      22.082  18.372  43.373  1.00 66.57 LIG 0.01  C 
ATOM     16  CD2 LEU D   8      20.027  17.504  44.469  1.00 70.19 LIG 0.01  C 
ENDBRANCH 13 14
ENDBRANCH 12 13
BRANCH 12 17
ATOM     17  C   LEU D   8      23.643  14.649  44.584  1.00 69.22 LIG 0.24  C 
ATOM     18  N   PHE D   9      23.676  13.556  43.812  1.00 66.75 LIG-0.35  N 
ATOM     19 H    PHE D   9      23.300  13.510  43.040  1.00 66.75 LIG 0.16  HD
ATOM     20 O    LEU D   8      24.134  14.694  45.712  1.00 69.38 LIG-0.27  OA
BRANCH 18 21
ATOM     21  CA  PHE D   9      24.359  12.332  44.209  1.00 67.50 LIG 0.18  C 
BRANCH 21 22
ATOM     22  CB  PHE D   9      23.805  11.121  43.446  1.00 70.09 LIG 0.07  C 
BRANCH 22 23
ATOM     23  CG  PHE D   9      22.695  10.327  44.101  1.00 72.62 LIG-0.06  A 
ATOM     24  CD2 PHE D   9      21.968  10.864  45.157  1.00 75.26 LIG 0.01  A 
ATOM     25  CE2 PHE D   9      20.920  10.150  45.738  1.00 78.46 LIG 0.00  A 
ATOM     26  CZ  PHE D   9      20.589   8.898  45.263  1.00 76.95 LIG 0.00  A 
ATOM     27  CE1 PHE D   9      21.285   8.356  44.204  1.00 77.74 LIG 0.00  A 
ATOM     28  CD1 PHE D   9      22.312   9.084  43.603  1.00 76.53 LIG 0.01  A 
ENDBRANCH 22 23
ENDBRANCH 21 22
BRANCH 21 29
ATOM     29  C   PHE D   9      25.873  12.437  44.014  1.00 72.50 LIG 0.24  C 
ATOM     30 O    PHE D   9      26.615  11.549  44.440  1.00 71.57 LIG-0.27  OA
ATOM     31  N   SER D  10      26.334  13.517  43.355  1.00 70.70 LIG-0.34  N 
ATOM     32 H    SER D  10      25.825  14.131  43.035  1.00 70.70 LIG 0.16  HD
BRANCH 31 33
ATOM     33  CA  SER D  10      27.764  13.746  43.120  1.00110.54 LIG 0.19  C 
BRANCH 33 34
ATOM     34  C   SER D  10      28.545  13.768  44.435  1.00112.68 LIG 0.22  C 
ATOM     35 O    SER D  10      29.207  12.787  44.774  1.00 61.17 LIG-0.29  OA
ENDBRANCH 33 34
BRANCH 33 36
ATOM     36  CB  SER D  10      27.988  15.037  42.337  1.00114.99 LIG 0.20  C 
BRANCH 36 37
ATOM     37 OG   SER D  10      27.035  16.033  42.673  1.00125.63 LIG-0.40  OA
ATOM     38 HG   SER D  10      27.364  16.794  42.537  1.00125.63 LIG 0.21  HD
ENDBRANCH 36 37
ENDBRANCH 33 36
ENDBRANCH 31 33
ENDBRANCH 21 29
ENDBRANCH 18 21
ENDBRANCH 12 17
ENDBRANCH 9 12
ENDBRANCH 4 8
BRANCH 1 39
ATOM     39  CA  LEU D   6      17.562  11.494  43.223  1.00 70.47 LIG 0.18  C 
BRANCH 39 40
ATOM     40  N   LEU D   6      16.458  11.277  42.301  1.00 72.03 LIG-0.35  N 
ATOM     41  C   PHE D   5      15.392  12.075  42.316  1.00 78.51 LIG 0.24  C 
ATOM     42 O    PHE D   5      15.286  13.052  43.067  1.00 77.96 LIG-0.27  OA
ATOM     43 H    LEU D   6      16.558  10.610  41.768  1.00 72.03 LIG 0.16  HD
BRANCH 41 44
ATOM     44  CA  PHE D   5      14.234  11.657  41.437  1.00 78.26 LIG 0.18  C 
BRANCH 44 45
ATOM     45  N   PHE D   5      12.976  11.875  42.155  1.00 79.00 LIG-0.34  N 
ATOM     46 H    PHE D   5      12.426  12.406  41.759  1.00 79.00 LIG 0.16  HD
ATOM     47  C   GLU D   4      12.732  11.283  43.326  1.00 84.09 LIG 0.26  C 
ATOM     48 O    GLU D   4      13.491  10.456  43.830  1.00 84.89 LIG-0.27  OA
BRANCH 47 49
ATOM     49  CA  GLU D   4      11.450  11.652  44.050  1.00 80.59 LIG 0.40  C 
ATOM     50  N   GLU D   4      11.384  10.972  45.339  1.00 81.26 LIG 0.61  N 
BRANCH 49 51
ATOM     51  CB  GLU D   4      11.390  13.183  44.248  1.00 81.69 LIG 0.06  C 
BRANCH 51 52
ATOM     52  CG  GLU D   4      10.088  13.821  43.790  1.00 88.66 LIG 0.12  C 
BRANCH 52 53
ATOM     53  CD  GLU D   4       9.083  12.888  43.139  1.00 99.07 LIG 0.17  C 
ATOM     54 OE1  GLU D   4       7.945  12.771  43.650  1.00 74.80 LIG-0.65  OA
ATOM     55 OE2  GLU D   4       9.414  12.327  42.070  1.00 93.08 LIG-0.65  OA
ENDBRANCH 52 53
ENDBRANCH 51 52
ENDBRANCH 49 51
ENDBRANCH 47 49
ENDBRANCH 44 45
BRANCH 44 56
ATOM     56  CB  PHE D   5      14.254  12.272  40.036  1.00 80.27 LIG 0.07  C 
BRANCH 56 57
ATOM     57  CG  PHE D   5      13.416  11.491  39.049  1.00 81.89 LIG-0.06  A 
ATOM     58  CD2 PHE D   5      14.015  10.735  38.043  1.00 84.17 LIG 0.01  A 
ATOM     59  CE2 PHE D   5      13.239  10.021  37.125  1.00 86.81 LIG 0.00  A 
ATOM     60  CZ  PHE D   5      11.864  10.046  37.217  1.00 84.76 LIG 0.00  A 
ATOM     61  CE1 PHE D   5      11.254  10.799  38.199  1.00 85.59 LIG 0.00  A 
ATOM     62  CD1 PHE D   5      12.029  11.525  39.111  1.00 84.61 LIG 0.01  A 
ENDBRANCH 56 57
ENDBRANCH 44 56
ENDBRANCH 41 44
ENDBRANCH 39 40
BRANCH 39 63
ATOM     63  CB  LEU D   6      17.977  10.186  43.886  1.00 70.57 LIG 0.04  C 
BRANCH 63 64
ATOM     64  CG  LEU D   6      17.154   8.983  43.477  1.00 75.48 LIG-0.02  C 
ATOM     65  CD2 LEU D   6      16.213   8.605  44.535  1.00 78.97 LIG 0.01  C 
ATOM     66  CD1 LEU D   6      18.024   7.845  43.135  1.00 75.94 LIG 0.01  C 
ENDBRANCH 63 64
ENDBRANCH 39 63
ENDBRANCH 1 39
TORSDOF 25
ENDMDL
MODEL 6
USER: ADFR SOLUTION from run 58
USER: SCORE 23.815332 LL:  -6.749 LR: -17.734 RR:   0.000 FEB: -10.276
USER: RMSD 5.492174
USER: SEED 57
USER: STATUS 1 or 2 clusters left
USER: GENES 27
USER: genes 0 Translation |==|  0.50769 0.49372 0.49912
USER: genes 1 Rotation |==|  0.07424 0.31369 0.38389 0.64329
USER: genes 2 Torsion [N]-CA--C-[N] |==|  0.24600
USER: genes 3 Torsion [C]-N--CA-[C] |==|  0.84945
USER: genes 4 Torsion [N]-CA--CB-[CG] |==|  0.94651
USER: genes 5 Torsion [CA]-CB--CG-[CD1] |==|  0.44554
USER: genes 6 Torsion [N]-CA--C-[N] |==|  0.88698
USER: genes 7 Torsion [C]-N--CA-[CB] |==|  0.87413
USER: genes 8 Torsion [N]-CA--CB-[CG] |==|  0.77594
USER: genes 9 Torsion [CA]-CB--CG-[CD1] |==|  0.53119
USER: genes 10 Torsion [N]-CA--C-[N] |==|  0.89999
USER: genes 11 Torsion [C]-N--CA-[C] |==|  0.55488
USER: genes 12 Torsion [N]-CA--C-[O] |==|  0.20906
USER: genes 13 Torsion [N]-CA--CB-[OG] |==|  0.55991
USER: genes 14 Torsion [CA]-CB--OG-[HG] |==|  0.37582
USER: genes 15 Torsion [N]-C--CA-[N] |==|  0.31678
USER: genes 16 Torsion [C]-CA--N-[C] |==|  0.70963
USER: genes 17 Torsion [N]-C--CA-[N] |==|  0.42537
USER: genes 18 Torsion [C]-CA--N-[C] |==|  0.63321
USER: genes 19 Torsion [N]-C--CA-[N] |==|  0.90120
USER: genes 20 Torsion [C]-CA--CB-[CG] |==|  0.03651
USER: genes 21 Torsion [CA]-CB--CG-[CD] |==|  0.32089
USER: genes 22 Torsion [CB]-CG--CD-[OE1] |==|  0.34471
USER: genes 23 Torsion [C]-CA--CB-[CG] |==|  0.43274
USER: genes 24 Torsion [CA]-CB--CG-[CD2] |==|  0.34454
USER: genes 25 Torsion [C]-CA--CB-[CG] |==|  0.14455
USER: genes 26 Torsion [CA]-CB--CG-[CD2] |==|  0.48883
ROOT
ATOM      1  C   LEU D   6      18.187  11.806  42.654  1.00 70.97 LIG 0.24  C 
ATOM      2 O    LEU D   6      19.004  11.175  41.999  1.00 69.80 LIG-0.27  OA
ATOM      3  N   PRO D   7      18.417  13.068  43.052  1.00 67.36 LIG-0.34  N 
ATOM      4  CA  PRO D   7      19.679  13.712  42.696  1.00 66.95 LIG 0.18  C 
ATOM      5  CB  PRO D   7      19.281  15.185  42.514  1.00 69.23 LIG 0.04  C 
ATOM      6  CG  PRO D   7      17.959  15.351  43.272  1.00 73.99 LIG 0.02  C 
ATOM      7  CD  PRO D   7      17.548  14.000  43.800  1.00 69.55 LIG 0.13  C 
ENDROOT
BRANCH 4 8
ATOM      8  C   PRO D   7      20.740  13.536  43.778  1.00 67.39 LIG 0.24  C 
ATOM      9  N   LEU D   8      21.490  12.443  43.680  1.00 63.51 LIG-0.35  N 
ATOM     10 H    LEU D   8      21.371  11.837  43.082  1.00 63.51 LIG 0.16  HD
ATOM     11 O    PRO D   7      20.882  14.366  44.677  1.00 65.73 LIG-0.27  OA
BRANCH 9 12
ATOM     12  CA  LEU D   8      22.589  12.172  44.585  1.00 63.43 LIG 0.18  C 
BRANCH 12 13
ATOM     13  CB  LEU D   8      23.294  10.867  44.230  1.00 63.06 LIG 0.04  C 
BRANCH 13 14
ATOM     14  CG  LEU D   8      22.439   9.968  43.369  1.00 67.32 LIG-0.02  C 
ATOM     15  CD1 LEU D   8      23.273   8.961  42.661  1.00 66.57 LIG 0.01  C 
ATOM     16  CD2 LEU D   8      21.331   9.337  44.168  1.00 70.19 LIG 0.01  C 
ENDBRANCH 13 14
ENDBRANCH 12 13
BRANCH 12 17
ATOM     17  C   LEU D   8      23.547  13.342  44.603  1.00 69.22 LIG 0.24  C 
ATOM     18  N   PHE D   9      23.814  13.930  43.430  1.00 66.75 LIG-0.35  N 
ATOM     19 H    PHE D   9      23.473  13.674  42.683  1.00 66.75 LIG 0.16  HD
ATOM     20 O    LEU D   8      24.079  13.675  45.662  1.00 69.38 LIG-0.27  OA
BRANCH 18 21
ATOM     21  CA  PHE D   9      24.713  15.069  43.308  1.00 67.50 LIG 0.18  C 
BRANCH 21 22
ATOM     22  CB  PHE D   9      24.428  16.114  44.396  1.00 70.09 LIG 0.07  C 
BRANCH 22 23
ATOM     23  CG  PHE D   9      23.271  17.064  44.171  1.00 72.62 LIG-0.06  A 
ATOM     24  CD2 PHE D   9      22.309  16.792  43.205  1.00 75.26 LIG 0.01  A 
ATOM     25  CE2 PHE D   9      21.222  17.646  43.022  1.00 78.46 LIG 0.00  A 
ATOM     26  CZ  PHE D   9      21.088  18.773  43.806  1.00 76.95 LIG 0.00  A 
ATOM     27  CE1 PHE D   9      22.020  19.050  44.781  1.00 77.74 LIG 0.00  A 
ATOM     28  CD1 PHE D   9      23.090  18.178  44.986  1.00 76.53 LIG 0.01  A 
ENDBRANCH 22 23
ENDBRANCH 21 22
BRANCH 21 29
ATOM     29  C   PHE D   9      26.181  14.641  43.351  1.00 72.50 LIG 0.24  C 
ATOM     30 O    PHE D   9      27.019  15.235  42.668  1.00 71.57 LIG-0.27  OA
ATOM     31  N   SER D  10      26.499  13.619  44.168  1.00 70.70 LIG-0.34  N 
ATOM     32 H    SER D  10      25.927  13.212  44.664  1.00 70.70 LIG 0.16  HD
BRANCH 31 33
ATOM     33  CA  SER D  10      27.867  13.100  44.285  1.00110.54 LIG 0.19  C 
BRANCH 33 34
ATOM     34  C   SER D  10      27.875  11.687  44.870  1.00112.68 LIG 0.22  C 
ATOM     35 O    SER D  10      27.541  10.730  44.171  1.00 61.17 LIG-0.29  OA
ENDBRANCH 33 34
BRANCH 33 36
ATOM     36  CB  SER D  10      28.735  14.036  45.123  1.00114.99 LIG 0.20  C 
BRANCH 36 37
ATOM     37 OG   SER D  10      30.117  13.851  44.861  1.00125.63 LIG-0.40  OA
ATOM     38 HG   SER D  10      30.490  14.600  44.781  1.00125.63 LIG 0.21  HD
ENDBRANCH 36 37
ENDBRANCH 33 36
ENDBRANCH 31 33
ENDBRANCH 21 29
ENDBRANCH 18 21
ENDBRANCH 12 17
ENDBRANCH 9 12
ENDBRANCH 4 8
BRANCH 1 39
ATOM     39  CA  LEU D   6      16.900  11.152  43.074  1.00 70.47 LIG 0.18  C 
BRANCH 39 40
ATOM     40  N   LEU D   6      15.959  10.836  42.011  1.00 72.03 LIG-0.35  N 
ATOM     41  C   PHE D   5      14.868  11.577  41.825  1.00 78.51 LIG 0.24  C 
ATOM     42 O    PHE D   5      14.607  12.580  42.500  1.00 77.96 LIG-0.27  OA
ATOM     43 H    LEU D   6      16.169  10.151  41.535  1.00 72.03 LIG 0.16  HD
BRANCH 41 44
ATOM     44  CA  PHE D   5      13.877  11.059  40.807  1.00 78.26 LIG 0.18  C 
BRANCH 44 45
ATOM     45  N   PHE D   5      12.536  11.544  41.145  1.00 79.00 LIG-0.34  N 
ATOM     46 H    PHE D   5      12.493  12.386  41.317  1.00 79.00 LIG 0.16  HD
ATOM     47  C   GLU D   4      11.486  10.719  41.173  1.00 84.09 LIG 0.26  C 
ATOM     48 O    GLU D   4      11.552   9.539  40.834  1.00 84.89 LIG-0.27  OA
BRANCH 47 49
ATOM     49  CA  GLU D   4      10.158  11.286  41.640  1.00 80.59 LIG 0.40  C 
ATOM     50  N   GLU D   4      10.371  12.268  42.697  1.00 81.26 LIG 0.61  N 
BRANCH 49 51
ATOM     51  CB  GLU D   4       9.424  11.936  40.445  1.00 81.69 LIG 0.06  C 
BRANCH 51 52
ATOM     52  CG  GLU D   4      10.015  11.590  39.088  1.00 88.66 LIG 0.12  C 
BRANCH 52 53
ATOM     53  CD  GLU D   4       9.120  10.793  38.156  1.00 99.07 LIG 0.17  C 
ATOM     54 OE1  GLU D   4       8.872  11.249  37.016  1.00 74.80 LIG-0.65  OA
ATOM     55 OE2  GLU D   4       8.725   9.670  38.545  1.00 93.08 LIG-0.65  OA
ENDBRANCH 52 53
ENDBRANCH 51 52
ENDBRANCH 49 51
ENDBRANCH 47 49
ENDBRANCH 44 45
BRANCH 44 56
ATOM     56  CB  PHE D   5      14.274  11.322  39.352  1.00 80.27 LIG 0.07  C 
BRANCH 56 57
ATOM     57  CG  PHE D   5      13.635  10.343  38.393  1.00 81.89 LIG-0.06  A 
ATOM     58  CD2 PHE D   5      12.861  10.792  37.324  1.00 84.17 LIG 0.01  A 
ATOM     59  CE2 PHE D   5      12.262   9.886  36.443  1.00 86.81 LIG 0.00  A 
ATOM     60  CZ  PHE D   5      12.447   8.532  36.616  1.00 84.76 LIG 0.00  A 
ATOM     61  CE1 PHE D   5      13.201   8.069  37.675  1.00 85.59 LIG 0.00  A 
ATOM     62  CD1 PHE D   5      13.790   8.974  38.566  1.00 84.61 LIG 0.01  A 
ENDBRANCH 56 57
ENDBRANCH 44 56
ENDBRANCH 41 44
ENDBRANCH 39 40
BRANCH 39 63
ATOM     63  CB  LEU D   6      17.170   9.926  43.939  1.00 70.57 LIG 0.04  C 
BRANCH 63 64
ATOM     64  CG  LEU D   6      18.088  10.175  45.116  1.00 75.48 LIG-0.02  C 
ATOM     65  CD2 LEU D   6      18.218   8.973  45.946  1.00 78.97 LIG 0.01  C 
ATOM     66  CD1 LEU D   6      17.607  11.306  45.926  1.00 75.94 LIG 0.01  C 
ENDBRANCH 63 64
ENDBRANCH 39 63
ENDBRANCH 1 39
TORSDOF 25
ENDMDL
MODEL 7
USER: ADFR SOLUTION from run 34
USER: SCORE 22.291445 LL:  -6.213 LR: -17.732 RR:   0.000 FEB: -10.275
USER: RMSD 13.457123
USER: SEED 33
USER: STATUS no improvement in best in 17 clusters for 5 generations
USER: GENES 27
USER: genes 0 Translation |==|  0.55453 0.52280 0.54223
USER: genes 1 Rotation |==|  0.50017 0.18219 0.88575 0.51392
USER: genes 2 Torsion [N]-CA--C-[N] |==|  0.41716
USER: genes 3 Torsion [C]-N--CA-[C] |==|  0.80393
USER: genes 4 Torsion [N]-CA--CB-[CG] |==|  0.66085
USER: genes 5 Torsion [CA]-CB--CG-[CD1] |==|  0.53143
USER: genes 6 Torsion [N]-CA--C-[N] |==|  0.36687
USER: genes 7 Torsion [C]-N--CA-[CB] |==|  0.42367
USER: genes 8 Torsion [N]-CA--CB-[CG] |==|  0.62963
USER: genes 9 Torsion [CA]-CB--CG-[CD1] |==|  0.93784
USER: genes 10 Torsion [N]-CA--C-[N] |==|  0.89554
USER: genes 11 Torsion [C]-N--CA-[C] |==|  0.57466
USER: genes 12 Torsion [N]-CA--C-[O] |==|  0.39007
USER: genes 13 Torsion [N]-CA--CB-[OG] |==|  0.96721
USER: genes 14 Torsion [CA]-CB--OG-[HG] |==|  0.68915
USER: genes 15 Torsion [N]-C--CA-[N] |==|  0.38376
USER: genes 16 Torsion [C]-CA--N-[C] |==|  0.57527
USER: genes 17 Torsion [N]-C--CA-[N] |==|  0.44824
USER: genes 18 Torsion [C]-CA--N-[C] |==|  0.61116
USER: genes 19 Torsion [N]-C--CA-[N] |==|  0.89975
USER: genes 20 Torsion [C]-CA--CB-[CG] |==|  0.97581
USER: genes 21 Torsion [CA]-CB--CG-[CD] |==|  0.29006
USER: genes 22 Torsion [CB]-CG--CD-[OE1] |==|  0.54496
USER: genes 23 Torsion [C]-CA--CB-[CG] |==|  0.05159
USER: genes 24 Torsion [CA]-CB--CG-[CD2] |==|  0.25420
USER: genes 25 Torsion [C]-CA--CB-[CG] |==|  0.03123
USER: genes 26 Torsion [CA]-CB--CG-[CD2] |==|  0.72687
ROOT
ATOM      1  C   LEU D   6      19.557  12.329  43.494  1.00 70.97 LIG 0.24  C 
ATOM      2 O    LEU D   6      19.711  11.891  42.365  1.00 69.80 LIG-0.27  OA
ATOM      3  N   PRO D   7      18.549  11.921  44.284  1.00 67.36 LIG-0.34  N 
ATOM      4  CA  PRO D   7      17.607  10.925  43.783  1.00 66.95 LIG 0.18  C 
ATOM      5  CB  PRO D   7      17.235  10.131  45.046  1.00 69.23 LIG 0.04  C 
ATOM      6  CG  PRO D   7      17.583  11.046  46.225  1.00 73.99 LIG 0.02  C 
ATOM      7  CD  PRO D   7      18.227  12.294  45.677  1.00 69.55 LIG 0.13  C 
ENDROOT
BRANCH 4 8
ATOM      8  C   PRO D   7      16.385  11.565  43.129  1.00 67.39 LIG 0.24  C 
ATOM      9  N   LEU D   8      15.818  10.864  42.154  1.00 63.51 LIG-0.35  N 
ATOM     10 H    LEU D   8      16.130  10.118  41.861  1.00 63.51 LIG 0.16  HD
ATOM     11 O    PRO D   7      15.964  12.663  43.498  1.00 65.73 LIG-0.27  OA
BRANCH 9 12
ATOM     12  CA  LEU D   8      14.607  11.300  41.487  1.00 63.43 LIG 0.18  C 
BRANCH 12 13
ATOM     13  CB  LEU D   8      14.380  10.536  40.188  1.00 63.06 LIG 0.04  C 
BRANCH 13 14
ATOM     14  CG  LEU D   8      14.291  11.452  38.990  1.00 67.32 LIG-0.02  C 
ATOM     15  CD1 LEU D   8      13.804  10.716  37.794  1.00 66.57 LIG 0.01  C 
ATOM     16  CD2 LEU D   8      13.462  12.670  39.292  1.00 70.19 LIG 0.01  C 
ENDBRANCH 13 14
ENDBRANCH 12 13
BRANCH 12 17
ATOM     17  C   LEU D   8      13.427  11.180  42.425  1.00 69.22 LIG 0.24  C 
ATOM     18  N   PHE D   9      12.609  12.236  42.515  1.00 66.75 LIG-0.35  N 
ATOM     19 H    PHE D   9      12.727  12.965  42.074  1.00 66.75 LIG 0.16  HD
ATOM     20 O    LEU D   8      13.288  10.159  43.099  1.00 69.38 LIG-0.27  OA
BRANCH 18 21
ATOM     21  CA  PHE D   9      11.434  12.250  43.375  1.00 67.50 LIG 0.18  C 
BRANCH 21 22
ATOM     22  CB  PHE D   9      11.092  13.680  43.815  1.00 70.09 LIG 0.07  C 
BRANCH 22 23
ATOM     23  CG  PHE D   9      10.790  13.910  45.280  1.00 72.62 LIG-0.06  A 
ATOM     24  CD2 PHE D   9      10.834  15.190  45.820  1.00 75.26 LIG 0.01  A 
ATOM     25  CE2 PHE D   9      10.520  15.410  47.161  1.00 78.46 LIG 0.00  A 
ATOM     26  CZ  PHE D   9      10.155  14.353  47.968  1.00 76.95 LIG 0.00  A 
ATOM     27  CE1 PHE D   9      10.087  13.079  47.448  1.00 77.74 LIG 0.00  A 
ATOM     28  CD1 PHE D   9      10.370  12.865  46.099  1.00 76.53 LIG 0.01  A 
ENDBRANCH 22 23
ENDBRANCH 21 22
BRANCH 21 29
ATOM     29  C   PHE D   9      10.226  11.598  42.698  1.00 72.50 LIG 0.24  C 
ATOM     30 O    PHE D   9       9.436  10.922  43.360  1.00 71.57 LIG-0.27  OA
ATOM     31  N   SER D  10      10.073  11.812  41.377  1.00 70.70 LIG-0.34  N 
ATOM     32 H    SER D  10      10.605  12.299  40.910  1.00 70.70 LIG 0.16  HD
BRANCH 31 33
ATOM     33  CA  SER D  10       8.969  11.228  40.607  1.00110.54 LIG 0.19  C 
BRANCH 33 34
ATOM     34  C   SER D  10       9.351  11.052  39.136  1.00112.68 LIG 0.22  C 
ATOM     35 O    SER D  10       8.997  10.044  38.525  1.00 61.17 LIG-0.29  OA
ENDBRANCH 33 34
BRANCH 33 36
ATOM     36  CB  SER D  10       7.705  12.072  40.739  1.00114.99 LIG 0.20  C 
BRANCH 36 37
ATOM     37 OG   SER D  10       7.821  13.044  41.767  1.00125.63 LIG-0.40  OA
ATOM     38 HG   SER D  10       7.300  12.850  42.396  1.00125.63 LIG 0.21  HD
ENDBRANCH 36 37
ENDBRANCH 33 36
ENDBRANCH 31 33
ENDBRANCH 21 29
ENDBRANCH 18 21
ENDBRANCH 12 17
ENDBRANCH 9 12
ENDBRANCH 4 8
BRANCH 1 39
ATOM     39  CA  LEU D   6      20.485  13.390  44.017  1.00 70.47 LIG 0.18  C 
BRANCH 39 40
ATOM     40  N   LEU D   6      21.902  13.198  43.750  1.00 72.03 LIG-0.35  N 
ATOM     41  C   PHE D   5      22.823  13.714  44.562  1.00 78.51 LIG 0.24  C 
ATOM     42 O    PHE D   5      22.546  14.342  45.591  1.00 77.96 LIG-0.27  OA
ATOM     43 H    LEU D   6      22.077  12.737  43.046  1.00 72.03 LIG 0.16  HD
BRANCH 41 44
ATOM     44  CA  PHE D   5      24.258  13.599  44.099  1.00 78.26 LIG 0.18  C 
BRANCH 44 45
ATOM     45  N   PHE D   5      25.083  14.565  44.829  1.00 79.00 LIG-0.34  N 
ATOM     46 H    PHE D   5      24.888  14.644  45.663  1.00 79.00 LIG 0.16  HD
ATOM     47  C   GLU D   4      26.052  15.252  44.219  1.00 84.09 LIG 0.26  C 
ATOM     48 O    GLU D   4      26.377  15.058  43.048  1.00 84.89 LIG-0.27  OA
BRANCH 47 49
ATOM     49  CA  GLU D   4      26.782  16.310  45.027  1.00 80.59 LIG 0.40  C 
ATOM     50  N   GLU D   4      25.858  16.975  45.939  1.00 81.26 LIG 0.61  N 
BRANCH 49 51
ATOM     51  CB  GLU D   4      27.935  15.653  45.817  1.00 81.69 LIG 0.06  C 
BRANCH 51 52
ATOM     52  CG  GLU D   4      27.935  14.133  45.773  1.00 88.66 LIG 0.12  C 
BRANCH 52 53
ATOM     53  CD  GLU D   4      28.973  13.494  44.868  1.00 99.07 LIG 0.17  C 
ATOM     54 OE1  GLU D   4      28.837  12.290  44.547  1.00 74.80 LIG-0.65  OA
ATOM     55 OE2  GLU D   4      29.886  14.223  44.420  1.00 93.08 LIG-0.65  OA
ENDBRANCH 52 53
ENDBRANCH 51 52
ENDBRANCH 49 51
ENDBRANCH 47 49
ENDBRANCH 44 45
BRANCH 44 56
ATOM     56  CB  PHE D   5      24.817  12.174  44.126  1.00 80.27 LIG 0.07  C 
BRANCH 56 57
ATOM     57  CG  PHE D   5      23.728  11.127  44.174  1.00 81.89 LIG-0.06  A 
ATOM     58  CD2 PHE D   5      23.212  10.577  43.002  1.00 84.17 LIG 0.01  A 
ATOM     59  CE2 PHE D   5      22.197   9.616  43.046  1.00 86.81 LIG 0.00  A 
ATOM     60  CZ  PHE D   5      21.705   9.189  44.260  1.00 84.76 LIG 0.00  A 
ATOM     61  CE1 PHE D   5      22.196   9.730  45.431  1.00 85.59 LIG 0.00  A 
ATOM     62  CD1 PHE D   5      23.203  10.702  45.388  1.00 84.61 LIG 0.01  A 
ENDBRANCH 56 57
ENDBRANCH 44 56
ENDBRANCH 41 44
ENDBRANCH 39 40
BRANCH 39 63
ATOM     63  CB  LEU D   6      20.035  14.776  43.570  1.00 70.57 LIG 0.04  C 
BRANCH 63 64
ATOM     64  CG  LEU D   6      18.653  14.821  42.953  1.00 75.48 LIG-0.02  C 
ATOM     65  CD2 LEU D   6      18.731  14.813  41.489  1.00 78.97 LIG 0.01  C 
ATOM     66  CD1 LEU D   6      17.909  16.002  43.419  1.00 75.94 LIG 0.01  C 
ENDBRANCH 63 64
ENDBRANCH 39 63
ENDBRANCH 1 39
TORSDOF 25
ENDMDL
MODEL 8
USER: ADFR SOLUTION from run 142
USER: SCORE 22.526315 LL:  -6.876 LR: -17.705 RR:   0.000 FEB: -10.247
USER: RMSD 13.011428
USER: SEED 141
USER: STATUS searching
USER: GENES 27
USER: genes 0 Translation |==|  0.54697 0.58711 0.48297
USER: genes 1 Rotation |==|  0.43715 0.80776 0.11127 0.51501
USER: genes 2 Torsion [N]-CA--C-[N] |==|  0.39612
USER: genes 3 Torsion [C]-N--CA-[C] |==|  0.82707
USER: genes 4 Torsion [N]-CA--CB-[CG] |==|  0.57482
USER: genes 5 Torsion [CA]-CB--CG-[CD1] |==|  0.09080
USER: genes 6 Torsion [N]-CA--C-[N] |==|  0.33475
USER: genes 7 Torsion [C]-N--CA-[CB] |==|  0.37840
USER: genes 8 Torsion [N]-CA--CB-[CG] |==|  0.38627
USER: genes 9 Torsion [CA]-CB--CG-[CD1] |==|  0.73303
USER: genes 10 Torsion [N]-CA--C-[N] |==|  0.95408
USER: genes 11 Torsion [C]-N--CA-[C] |==|  0.54479
USER: genes 12 Torsion [N]-CA--C-[O] |==|  0.33638
USER: genes 13 Torsion [N]-CA--CB-[OG] |==|  0.76093
USER: genes 14 Torsion [CA]-CB--OG-[HG] |==|  0.12469
USER: genes 15 Torsion [N]-C--CA-[N] |==|  0.21942
USER: genes 16 Torsion [C]-CA--N-[C] |==|  0.68667
USER: genes 17 Torsion [N]-C--CA-[N] |==|  0.95890
USER: genes 18 Torsion [C]-CA--N-[C] |==|  0.73459
USER: genes 19 Torsion [N]-C--CA-[N] |==|  0.74333
USER: genes 20 Torsion [C]-CA--CB-[CG] |==|  0.21525
USER: genes 21 Torsion [CA]-CB--CG-[CD] |==|  0.26675
USER: genes 22 Torsion [CB]-CG--CD-[OE1] |==|  0.43377
USER: genes 23 Torsion [C]-CA--CB-[CG] |==|  0.96787
USER: genes 24 Torsion [CA]-CB--CG-[CD2] |==|  0.30673
USER: genes 25 Torsion [C]-CA--CB-[CG] |==|  0.25875
USER: genes 26 Torsion [CA]-CB--CG-[CD2] |==|  0.01126
ROOT
ATOM      1  C   LEU D   6      19.336  13.487  42.339  1.00 70.97 LIG 0.24  C 
ATOM      2 O    LEU D   6      19.462  13.047  41.206  1.00 69.80 LIG-0.27  OA
ATOM      3  N   PRO D   7      18.560  12.882  43.254  1.00 67.36 LIG-0.34  N 
ATOM      4  CA  PRO D   7      17.843  11.663  42.889  1.00 66.95 LIG 0.18  C 
ATOM      5  CB  PRO D   7      17.829  10.861  44.201  1.00 69.23 LIG 0.04  C 
ATOM      6  CG  PRO D   7      18.073  11.887  45.313  1.00 73.99 LIG 0.02  C 
ATOM      7  CD  PRO D   7      18.318  13.228  44.669  1.00 69.55 LIG 0.13  C 
ENDROOT
BRANCH 4 8
ATOM      8  C   PRO D   7      16.433  11.954  42.382  1.00 67.39 LIG 0.24  C 
ATOM      9  N   LEU D   8      16.009  11.187  41.384  1.00 63.51 LIG-0.35  N 
ATOM     10 H    LEU D   8      16.497  10.590  41.002  1.00 63.51 LIG 0.16  HD
ATOM     11 O    PRO D   7      15.745  12.848  42.879  1.00 65.73 LIG-0.27  OA
BRANCH 9 12
ATOM     12  CA  LEU D   8      14.668  11.287  40.843  1.00 63.43 LIG 0.18  C 
BRANCH 12 13
ATOM     13  CB  LEU D   8      14.500  10.416  39.603  1.00 63.06 LIG 0.04  C 
BRANCH 13 14
ATOM     14  CG  LEU D   8      13.436  10.944  38.670  1.00 67.32 LIG-0.02  C 
ATOM     15  CD1 LEU D   8      13.379  12.429  38.716  1.00 66.57 LIG 0.01  C 
ATOM     16  CD2 LEU D   8      13.622  10.419  37.273  1.00 70.19 LIG 0.01  C 
ENDBRANCH 13 14
ENDBRANCH 12 13
BRANCH 12 17
ATOM     17  C   LEU D   8      13.651  10.948  41.911  1.00 69.22 LIG 0.24  C 
ATOM     18  N   PHE D   9      12.756  11.893  42.223  1.00 66.75 LIG-0.35  N 
ATOM     19 H    PHE D   9      12.737  12.669  41.852  1.00 66.75 LIG 0.16  HD
ATOM     20 O    LEU D   8      13.711   9.859  42.483  1.00 69.38 LIG-0.27  OA
BRANCH 18 21
ATOM     21  CA  PHE D   9      11.720  11.695  43.228  1.00 67.50 LIG 0.18  C 
BRANCH 21 22
ATOM     22  CB  PHE D   9      11.591  12.927  44.134  1.00 70.09 LIG 0.07  C 
BRANCH 22 23
ATOM     23  CG  PHE D   9      10.196  13.372  44.519  1.00 72.62 LIG-0.06  A 
ATOM     24  CD2 PHE D   9       9.573  12.852  45.647  1.00 75.26 LIG 0.01  A 
ATOM     25  CE2 PHE D   9       8.304  13.288  46.026  1.00 78.46 LIG 0.00  A 
ATOM     26  CZ  PHE D   9       7.652  14.249  45.281  1.00 76.95 LIG 0.00  A 
ATOM     27  CE1 PHE D   9       8.259  14.790  44.170  1.00 77.74 LIG 0.00  A 
ATOM     28  CD1 PHE D   9       9.543  14.378  43.811  1.00 76.53 LIG 0.01  A 
ENDBRANCH 22 23
ENDBRANCH 21 22
BRANCH 21 29
ATOM     29  C   PHE D   9      10.370  11.357  42.593  1.00 72.50 LIG 0.24  C 
ATOM     30 O    PHE D   9       9.465  10.879  43.281  1.00 71.57 LIG-0.27  OA
ATOM     31  N   SER D  10      10.226  11.619  41.280  1.00 70.70 LIG-0.34  N 
ATOM     32 H    SER D  10      10.842  11.972  40.795  1.00 70.70 LIG 0.16  HD
BRANCH 31 33
ATOM     33  CA  SER D  10       8.989  11.323  40.548  1.00110.54 LIG 0.19  C 
BRANCH 33 34
ATOM     34  C   SER D  10       9.220  11.342  39.036  1.00112.68 LIG 0.22  C 
ATOM     35 O    SER D  10       8.985  10.338  38.365  1.00 61.17 LIG-0.29  OA
ENDBRANCH 33 34
BRANCH 33 36
ATOM     36  CB  SER D  10       7.879  12.295  40.937  1.00114.99 LIG 0.20  C 
BRANCH 36 37
ATOM     37 OG   SER D  10       7.175  11.862  42.091  1.00125.63 LIG-0.40  OA
ATOM     38 HG   SER D  10       7.724  11.603  42.673  1.00125.63 LIG 0.21  HD
ENDBRANCH 36 37
ENDBRANCH 33 36
ENDBRANCH 31 33
ENDBRANCH 21 29
ENDBRANCH 18 21
ENDBRANCH 12 17
ENDBRANCH 9 12
ENDBRANCH 4 8
BRANCH 1 39
ATOM     39  CA  LEU D   6      20.026  14.765  42.726  1.00 70.47 LIG 0.18  C 
BRANCH 39 40
ATOM     40  N   LEU D   6      21.229  14.632  43.531  1.00 72.03 LIG-0.35  N 
ATOM     41  C   PHE D   5      21.254  15.060  44.792  1.00 78.51 LIG 0.24  C 
ATOM     42 O    PHE D   5      20.272  15.551  45.362  1.00 77.96 LIG-0.27  OA
ATOM     43 H    LEU D   6      21.894  14.266  43.129  1.00 72.03 LIG 0.16  HD
BRANCH 41 44
ATOM     44  CA  PHE D   5      22.601  15.029  45.480  1.00 78.26 LIG 0.18  C 
BRANCH 44 45
ATOM     45  N   PHE D   5      23.524  14.199  44.702  1.00 79.00 LIG-0.34  N 
ATOM     46 H    PHE D   5      23.917  14.610  44.056  1.00 79.00 LIG 0.16  HD
ATOM     47  C   GLU D   4      23.718  12.911  44.998  1.00 84.09 LIG 0.26  C 
ATOM     48 O    GLU D   4      23.219  12.367  45.982  1.00 84.89 LIG-0.27  OA
BRANCH 47 49
ATOM     49  CA  GLU D   4      24.608  12.102  44.073  1.00 80.59 LIG 0.40  C 
ATOM     50  N   GLU D   4      23.804  11.448  43.044  1.00 81.26 LIG 0.61  N 
BRANCH 49 51
ATOM     51  CB  GLU D   4      25.658  13.029  43.422  1.00 81.69 LIG 0.06  C 
BRANCH 51 52
ATOM     52  CG  GLU D   4      26.816  13.397  44.335  1.00 88.66 LIG 0.12  C 
BRANCH 52 53
ATOM     53  CD  GLU D   4      28.069  12.552  44.193  1.00 99.07 LIG 0.17  C 
ATOM     54 OE1  GLU D   4      29.171  13.036  44.545  1.00 74.80 LIG-0.65  OA
ATOM     55 OE2  GLU D   4      27.937  11.372  43.796  1.00 93.08 LIG-0.65  OA
ENDBRANCH 52 53
ENDBRANCH 51 52
ENDBRANCH 49 51
ENDBRANCH 47 49
ENDBRANCH 44 45
BRANCH 44 56
ATOM     56  CB  PHE D   5      23.164  16.410  45.826  1.00 80.27 LIG 0.07  C 
BRANCH 56 57
ATOM     57  CG  PHE D   5      22.394  17.530  45.165  1.00 81.89 LIG-0.06  A 
ATOM     58  CD2 PHE D   5      21.602  18.395  45.918  1.00 84.17 LIG 0.01  A 
ATOM     59  CE2 PHE D   5      20.882  19.426  45.306  1.00 86.81 LIG 0.00  A 
ATOM     60  CZ  PHE D   5      20.962  19.606  43.942  1.00 84.76 LIG 0.00  A 
ATOM     61  CE1 PHE D   5      21.733  18.752  43.179  1.00 85.59 LIG 0.00  A 
ATOM     62  CD1 PHE D   5      22.443  17.713  43.789  1.00 84.61 LIG 0.01  A 
ENDBRANCH 56 57
ENDBRANCH 44 56
ENDBRANCH 41 44
ENDBRANCH 39 40
BRANCH 39 63
ATOM     63  CB  LEU D   6      20.290  15.634  41.500  1.00 70.57 LIG 0.04  C 
BRANCH 63 64
ATOM     64  CG  LEU D   6      19.210  16.653  41.206  1.00 75.48 LIG-0.02  C 
ATOM     65  CD2 LEU D   6      18.175  16.637  42.245  1.00 78.97 LIG 0.01  C 
ATOM     66  CD1 LEU D   6      18.610  16.414  39.883  1.00 75.94 LIG 0.01  C 
ENDBRANCH 63 64
ENDBRANCH 39 63
ENDBRANCH 1 39
TORSDOF 25
ENDMDL
MODEL 9
USER: ADFR SOLUTION from run 61
USER: SCORE 23.026816 LL:  -6.996 LR: -17.702 RR:   0.000 FEB: -10.244
USER: RMSD 2.236945
USER: SEED 60
USER: STATUS no improvement in best in 5 clusters for 5 generations
USER: GENES 27
USER: genes 0 Translation |==|  0.42545 0.51319 0.51422
USER: genes 1 Rotation |==|  0.55331 0.53174 0.47161 0.99532
USER: genes 2 Torsion [N]-CA--C-[N] |==|  0.34009
USER: genes 3 Torsion [C]-N--CA-[C] |==|  0.71710
USER: genes 4 Torsion [N]-CA--CB-[CG] |==|  0.90996
USER: genes 5 Torsion [CA]-CB--CG-[CD1] |==|  0.33337
USER: genes 6 Torsion [N]-CA--C-[N] |==|  0.33965
USER: genes 7 Torsion [C]-N--CA-[CB] |==|  0.23023
USER: genes 8 Torsion [N]-CA--CB-[CG] |==|  0.07740
USER: genes 9 Torsion [CA]-CB--CG-[CD1] |==|  0.12932
USER: genes 10 Torsion [N]-CA--C-[N] |==|  0.42996
USER: genes 11 Torsion [C]-N--CA-[C] |==|  0.54058
USER: genes 12 Torsion [N]-CA--C-[O] |==|  0.31906
USER: genes 13 Torsion [N]-CA--CB-[OG] |==|  0.08339
USER: genes 14 Torsion [CA]-CB--OG-[HG] |==|  0.38329
USER: genes 15 Torsion [N]-C--CA-[N] |==|  0.40669
USER: genes 16 Torsion [C]-CA--N-[C] |==|  0.83889
USER: genes 17 Torsion [N]-C--CA-[N] |==|  0.21482
USER: genes 18 Torsion [C]-CA--N-[C] |==|  0.60709
USER: genes 19 Torsion [N]-C--CA-[N] |==|  0.55170
USER: genes 20 Torsion [C]-CA--CB-[CG] |==|  0.82352
USER: genes 21 Torsion [CA]-CB--CG-[CD] |==|  0.76290
USER: genes 22 Torsion [CB]-CG--CD-[OE1] |==|  0.57032
USER: genes 23 Torsion [C]-CA--CB-[CG] |==|  0.30568
USER: genes 24 Torsion [CA]-CB--CG-[CD2] |==|  0.10863
USER: genes 25 Torsion [C]-CA--CB-[CG] |==|  0.50365
USER: genes 26 Torsion [CA]-CB--CG-[CD2] |==|  0.69455
ROOT
ATOM      1  C   LEU D   6      15.781  12.156  42.948  1.00 70.97 LIG 0.24  C 
ATOM      2 O    LEU D   6      15.745  13.282  43.421  1.00 69.80 LIG-0.27  OA
ATOM      3  N   PRO D   7      16.768  11.294  43.244  1.00 67.36 LIG-0.34  N 
ATOM      4  CA  PRO D   7      17.831  11.708  44.155  1.00 66.95 LIG 0.18  C 
ATOM      5  CB  PRO D   7      18.191  10.404  44.886  1.00 69.23 LIG 0.04  C 
ATOM      6  CG  PRO D   7      17.681   9.273  43.987  1.00 73.99 LIG 0.02  C 
ATOM      7  CD  PRO D   7      16.961   9.893  42.816  1.00 69.55 LIG 0.13  C 
ENDROOT
BRANCH 4 8
ATOM      8  C   PRO D   7      19.028  12.297  43.414  1.00 67.39 LIG 0.24  C 
ATOM      9  N   LEU D   8      19.367  13.535  43.757  1.00 63.51 LIG-0.35  N 
ATOM     10 H    LEU D   8      18.926  14.009  44.323  1.00 63.51 LIG 0.16  HD
ATOM     11 O    PRO D   7      19.632  11.650  42.556  1.00 65.73 LIG-0.27  OA
BRANCH 9 12
ATOM     12  CA  LEU D   8      20.525  14.205  43.201  1.00 63.43 LIG 0.18  C 
BRANCH 12 13
ATOM     13  CB  LEU D   8      20.189  15.625  42.759  1.00 63.06 LIG 0.04  C 
BRANCH 13 14
ATOM     14  CG  LEU D   8      18.768  15.752  42.264  1.00 67.32 LIG-0.02  C 
ATOM     15  CD1 LEU D   8      18.006  16.732  43.082  1.00 66.57 LIG 0.01  C 
ATOM     16  CD2 LEU D   8      18.726  16.073  40.795  1.00 70.19 LIG 0.01  C 
ENDBRANCH 13 14
ENDBRANCH 12 13
BRANCH 12 17
ATOM     17  C   LEU D   8      21.666  14.180  44.194  1.00 69.22 LIG 0.24  C 
ATOM     18  N   PHE D   9      22.811  13.613  43.794  1.00 66.75 LIG-0.35  N 
ATOM     19 H    PHE D   9      22.921  13.268  43.014  1.00 66.75 LIG 0.16  HD
ATOM     20 O    LEU D   8      21.493  14.622  45.330  1.00 69.38 LIG-0.27  OA
BRANCH 18 21
ATOM     21  CA  PHE D   9      23.988  13.528  44.648  1.00 67.50 LIG 0.18  C 
BRANCH 21 22
ATOM     22  CB  PHE D   9      23.894  12.322  45.593  1.00 70.09 LIG 0.07  C 
BRANCH 22 23
ATOM     23  CG  PHE D   9      23.083  11.131  45.132  1.00 72.62 LIG-0.06  A 
ATOM     24  CD2 PHE D   9      22.100  10.584  45.948  1.00 75.26 LIG 0.01  A 
ATOM     25  CE2 PHE D   9      21.325   9.510  45.511  1.00 78.46 LIG 0.00  A 
ATOM     26  CZ  PHE D   9      21.525   8.980  44.253  1.00 76.95 LIG 0.00  A 
ATOM     27  CE1 PHE D   9      22.481   9.520  43.421  1.00 77.74 LIG 0.00  A 
ATOM     28  CD1 PHE D   9      23.233  10.615  43.847  1.00 76.53 LIG 0.01  A 
ENDBRANCH 22 23
ENDBRANCH 21 22
BRANCH 21 29
ATOM     29  C   PHE D   9      25.280  13.465  43.830  1.00 72.50 LIG 0.24  C 
ATOM     30 O    PHE D   9      25.259  13.046  42.671  1.00 71.57 LIG-0.27  OA
ATOM     31  N   SER D  10      26.406  13.899  44.428  1.00 70.70 LIG-0.34  N 
ATOM     32 H    SER D  10      26.429  14.213  45.227  1.00 70.70 LIG 0.16  HD
BRANCH 31 33
ATOM     33  CA  SER D  10      27.712  13.873  43.760  1.00110.54 LIG 0.19  C 
BRANCH 33 34
ATOM     34  C   SER D  10      28.851  14.075  44.761  1.00112.68 LIG 0.22  C 
ATOM     35 O    SER D  10      29.658  13.168  44.966  1.00 61.17 LIG-0.29  OA
ENDBRANCH 33 34
BRANCH 33 36
ATOM     36  CB  SER D  10      27.778  14.918  42.650  1.00114.99 LIG 0.20  C 
BRANCH 36 37
ATOM     37 OG   SER D  10      26.962  16.044  42.933  1.00125.63 LIG-0.40  OA
ATOM     38 HG   SER D  10      27.372  16.747  42.725  1.00125.63 LIG 0.21  HD
ENDBRANCH 36 37
ENDBRANCH 33 36
ENDBRANCH 31 33
ENDBRANCH 21 29
ENDBRANCH 18 21
ENDBRANCH 12 17
ENDBRANCH 9 12
ENDBRANCH 4 8
BRANCH 1 39
ATOM     39  CA  LEU D   6      14.725  11.721  41.971  1.00 70.47 LIG 0.18  C 
BRANCH 39 40
ATOM     40  N   LEU D   6      13.383  12.229  42.202  1.00 72.03 LIG-0.35  N 
ATOM     41  C   PHE D   5      12.755  11.997  43.354  1.00 78.51 LIG 0.24  C 
ATOM     42 O    PHE D   5      13.272  11.384  44.296  1.00 77.96 LIG-0.27  OA
ATOM     43 H    LEU D   6      13.048  12.676  41.547  1.00 72.03 LIG 0.16  HD
BRANCH 41 44
ATOM     44  CA  PHE D   5      11.306  12.423  43.421  1.00 78.26 LIG 0.18  C 
BRANCH 44 45
ATOM     45  N   PHE D   5      10.479  11.447  42.707  1.00 79.00 LIG-0.34  N 
ATOM     46 H    PHE D   5      10.722  10.628  42.812  1.00 79.00 LIG 0.16  HD
ATOM     47  C   GLU D   4       9.439  11.830  41.963  1.00 84.09 LIG 0.26  C 
ATOM     48 O    GLU D   4       9.053  12.996  41.901  1.00 84.89 LIG-0.27  OA
BRANCH 47 49
ATOM     49  CA  GLU D   4       8.707  10.761  41.172  1.00 80.59 LIG 0.40  C 
ATOM     50  N   GLU D   4       7.918  11.373  40.107  1.00 81.26 LIG 0.61  N 
BRANCH 49 51
ATOM     51  CB  GLU D   4       9.728   9.767  40.577  1.00 81.69 LIG 0.06  C 
BRANCH 51 52
ATOM     52  CG  GLU D   4      10.687  10.384  39.571  1.00 88.66 LIG 0.12  C 
BRANCH 52 53
ATOM     53  CD  GLU D   4      10.190  10.462  38.139  1.00 99.07 LIG 0.17  C 
ATOM     54 OE1  GLU D   4      11.027  10.493  37.208  1.00 74.80 LIG-0.65  OA
ATOM     55 OE2  GLU D   4       8.953  10.419  37.947  1.00 93.08 LIG-0.65  OA
ENDBRANCH 52 53
ENDBRANCH 51 52
ENDBRANCH 49 51
ENDBRANCH 47 49
ENDBRANCH 44 45
BRANCH 44 56
ATOM     56  CB  PHE D   5      10.805  12.732  44.834  1.00 80.27 LIG 0.07  C 
BRANCH 56 57
ATOM     57  CG  PHE D   5      10.545  14.206  45.047  1.00 81.89 LIG-0.06  A 
ATOM     58  CD2 PHE D   5       9.972  14.982  44.041  1.00 84.17 LIG 0.01  A 
ATOM     59  CE2 PHE D   5       9.740  16.348  44.234  1.00 86.81 LIG 0.00  A 
ATOM     60  CZ  PHE D   5      10.065  16.939  45.436  1.00 84.76 LIG 0.00  A 
ATOM     61  CE1 PHE D   5      10.643  16.188  46.438  1.00 85.59 LIG 0.00  A 
ATOM     62  CD1 PHE D   5      10.887  14.824  46.242  1.00 84.61 LIG 0.01  A 
ENDBRANCH 56 57
ENDBRANCH 44 56
ENDBRANCH 41 44
ENDBRANCH 39 40
BRANCH 39 63
ATOM     63  CB  LEU D   6      15.166  11.992  40.537  1.00 70.57 LIG 0.04  C 
BRANCH 63 64
ATOM     64  CG  LEU D   6      14.148  11.612  39.483  1.00 75.48 LIG-0.02  C 
ATOM     65  CD2 LEU D   6      14.595  10.445  38.716  1.00 78.97 LIG 0.01  C 
ATOM     66  CD1 LEU D   6      13.880  12.745  38.581  1.00 75.94 LIG 0.01  C 
ENDBRANCH 63 64
ENDBRANCH 39 63
ENDBRANCH 1 39
TORSDOF 25
ENDMDL
MODEL 10
USER: ADFR SOLUTION from run 31
USER: SCORE 23.391085 LL:  -6.571 LR: -17.683 RR:   0.000 FEB: -10.225
USER: RMSD 6.179873
USER: SEED 30
USER: STATUS no improvement in best in 4 clusters for 5 generations
USER: GENES 27
USER: genes 0 Translation |==|  0.52975 0.54712 0.49318
USER: genes 1 Rotation |==|  0.07936 0.26780 0.43553 0.62242
USER: genes 2 Torsion [N]-CA--C-[N] |==|  0.52686
USER: genes 3 Torsion [C]-N--CA-[C] |==|  0.15414
USER: genes 4 Torsion [N]-CA--CB-[CG] |==|  0.89728
USER: genes 5 Torsion [CA]-CB--CG-[CD1] |==|  0.49155
USER: genes 6 Torsion [N]-CA--C-[N] |==|  0.10106
USER: genes 7 Torsion [C]-N--CA-[CB] |==|  0.90436
USER: genes 8 Torsion [N]-CA--CB-[CG] |==|  0.79032
USER: genes 9 Torsion [CA]-CB--CG-[CD1] |==|  0.01445
USER: genes 10 Torsion [N]-CA--C-[N] |==|  0.35003
USER: genes 11 Torsion [C]-N--CA-[C] |==|  0.56210
USER: genes 12 Torsion [N]-CA--C-[O] |==|  0.94981
USER: genes 13 Torsion [N]-CA--CB-[OG] |==|  0.08184
USER: genes 14 Torsion [CA]-CB--OG-[HG] |==|  0.76792
USER: genes 15 Torsion [N]-C--CA-[N] |==|  0.27236
USER: genes 16 Torsion [C]-CA--N-[C] |==|  0.73038
USER: genes 17 Torsion [N]-C--CA-[N] |==|  0.39697
USER: genes 18 Torsion [C]-CA--N-[C] |==|  0.81384
USER: genes 19 Torsion [N]-C--CA-[N] |==|  0.50210
USER: genes 20 Torsion [C]-CA--CB-[CG] |==|  0.38613
USER: genes 21 Torsion [CA]-CB--CG-[CD] |==|  0.04345
USER: genes 22 Torsion [CB]-CG--CD-[OE1] |==|  0.13201
USER: genes 23 Torsion [C]-CA--CB-[CG] |==|  0.39286
USER: genes 24 Torsion [CA]-CB--CG-[CD2] |==|  0.96853
USER: genes 25 Torsion [C]-CA--CB-[CG] |==|  0.63874
USER: genes 26 Torsion [CA]-CB--CG-[CD2] |==|  0.76738
ROOT
ATOM      1  C   LEU D   6      18.832  12.767  42.538  1.00 70.97 LIG 0.24  C 
ATOM      2 O    LEU D   6      19.717  12.193  41.921  1.00 69.80 LIG-0.27  OA
ATOM      3  N   PRO D   7      18.819  14.103  42.684  1.00 67.36 LIG-0.34  N 
ATOM      4  CA  PRO D   7      19.891  14.897  42.090  1.00 66.95 LIG 0.18  C 
ATOM      5  CB  PRO D   7      19.181  16.203  41.698  1.00 69.23 LIG 0.04  C 
ATOM      6  CG  PRO D   7      17.908  16.252  42.551  1.00 73.99 LIG 0.02  C 
ATOM      7  CD  PRO D   7      17.826  14.974  43.346  1.00 69.55 LIG 0.13  C 
ENDROOT
BRANCH 4 8
ATOM      8  C   PRO D   7      21.036  15.141  43.069  1.00 67.39 LIG 0.24  C 
ATOM      9  N   LEU D   8      21.954  16.018  42.677  1.00 63.51 LIG-0.35  N 
ATOM     10 H    LEU D   8      21.949  16.400  41.906  1.00 63.51 LIG 0.16  HD
ATOM     11 O    PRO D   7      21.089  14.555  44.152  1.00 65.73 LIG-0.27  OA
BRANCH 9 12
ATOM     12  CA  LEU D   8      23.061  16.415  43.524  1.00 63.43 LIG 0.18  C 
BRANCH 12 13
ATOM     13  CB  LEU D   8      22.585  17.249  44.709  1.00 63.06 LIG 0.04  C 
BRANCH 13 14
ATOM     14  CG  LEU D   8      21.451  18.175  44.340  1.00 67.32 LIG-0.02  C 
ATOM     15  CD1 LEU D   8      20.964  18.919  45.531  1.00 66.57 LIG 0.01  C 
ATOM     16  CD2 LEU D   8      21.836  19.090  43.209  1.00 70.19 LIG 0.01  C 
ENDBRANCH 13 14
ENDBRANCH 12 13
BRANCH 12 17
ATOM     17  C   LEU D   8      23.836  15.194  43.971  1.00 69.22 LIG 0.24  C 
ATOM     18  N   PHE D   9      23.963  14.196  43.088  1.00 66.75 LIG-0.35  N 
ATOM     19 H    PHE D   9      23.627  14.218  42.296  1.00 66.75 LIG 0.16  HD
ATOM     20 O    LEU D   8      24.268  15.137  45.122  1.00 69.38 LIG-0.27  OA
BRANCH 18 21
ATOM     21  CA  PHE D   9      24.688  12.969  43.387  1.00 67.50 LIG 0.18  C 
BRANCH 21 22
ATOM     22  CB  PHE D   9      25.888  13.249  44.301  1.00 70.09 LIG 0.07  C 
BRANCH 22 23
ATOM     23  CG  PHE D   9      27.109  13.893  43.679  1.00 72.62 LIG-0.06  A 
ATOM     24  CD2 PHE D   9      28.299  13.989  44.391  1.00 75.26 LIG 0.01  A 
ATOM     25  CE2 PHE D   9      29.436  14.547  43.807  1.00 78.46 LIG 0.00  A 
ATOM     26  CZ  PHE D   9      29.391  15.008  42.507  1.00 76.95 LIG 0.00  A 
ATOM     27  CE1 PHE D   9      28.226  14.904  41.779  1.00 77.74 LIG 0.00  A 
ATOM     28  CD1 PHE D   9      27.099  14.316  42.352  1.00 76.53 LIG 0.01  A 
ENDBRANCH 22 23
ENDBRANCH 21 22
BRANCH 21 29
ATOM     29  C   PHE D   9      23.778  11.909  44.011  1.00 72.50 LIG 0.24  C 
ATOM     30 O    PHE D   9      23.101  12.183  45.005  1.00 71.57 LIG-0.27  OA
ATOM     31  N   SER D  10      23.747  10.700  43.419  1.00 70.70 LIG-0.34  N 
ATOM     32 H    SER D  10      24.198  10.505  42.714  1.00 70.70 LIG 0.16  HD
BRANCH 31 33
ATOM     33  CA  SER D  10      22.932   9.592  43.931  1.00110.54 LIG 0.19  C 
BRANCH 33 34
ATOM     34  C   SER D  10      23.469   8.242  43.454  1.00112.68 LIG 0.22  C 
ATOM     35 O    SER D  10      24.235   8.189  42.493  1.00 61.17 LIG-0.29  OA
ENDBRANCH 33 34
BRANCH 33 36
ATOM     36  CB  SER D  10      21.469   9.763  43.532  1.00114.99 LIG 0.20  C 
BRANCH 36 37
ATOM     37 OG   SER D  10      21.333  10.464  42.306  1.00125.63 LIG-0.40  OA
ATOM     38 HG   SER D  10      21.366  11.291  42.451  1.00125.63 LIG 0.21  HD
ENDBRANCH 36 37
ENDBRANCH 33 36
ENDBRANCH 31 33
ENDBRANCH 21 29
ENDBRANCH 18 21
ENDBRANCH 12 17
ENDBRANCH 9 12
ENDBRANCH 4 8
BRANCH 1 39
ATOM     39  CA  LEU D   6      17.743  11.969  43.198  1.00 70.47 LIG 0.18  C 
BRANCH 39 40
ATOM     40  N   LEU D   6      16.624  11.581  42.355  1.00 72.03 LIG-0.35  N 
ATOM     41  C   PHE D   5      15.500  12.297  42.342  1.00 78.51 LIG 0.24  C 
ATOM     42 O    PHE D   5      15.350  13.334  42.999  1.00 77.96 LIG-0.27  OA
ATOM     43 H    LEU D   6      16.754  10.873  41.885  1.00 72.03 LIG 0.16  HD
BRANCH 41 44
ATOM     44  CA  PHE D   5      14.345  11.710  41.562  1.00 78.26 LIG 0.18  C 
BRANCH 44 45
ATOM     45  N   PHE D   5      13.091  11.995  42.264  1.00 79.00 LIG-0.34  N 
ATOM     46 H    PHE D   5      12.564  12.534  41.850  1.00 79.00 LIG 0.16  HD
ATOM     47  C   GLU D   4      12.818  11.444  43.450  1.00 84.09 LIG 0.26  C 
ATOM     48 O    GLU D   4      13.543  10.605  43.981  1.00 84.89 LIG-0.27  OA
BRANCH 47 49
ATOM     49  CA  GLU D   4      11.546  11.881  44.153  1.00 80.59 LIG 0.40  C 
ATOM     50  N   GLU D   4      11.418  11.196  45.435  1.00 81.26 LIG 0.61  N 
BRANCH 49 51
ATOM     51  CB  GLU D   4      11.570  13.411  44.364  1.00 81.69 LIG 0.06  C 
BRANCH 51 52
ATOM     52  CG  GLU D   4      10.238  14.097  44.107  1.00 88.66 LIG 0.12  C 
BRANCH 52 53
ATOM     53  CD  GLU D   4       9.022  13.190  44.051  1.00 99.07 LIG 0.17  C 
ATOM     54 OE1  GLU D   4       8.863  12.333  44.951  1.00 74.80 LIG-0.65  OA
ATOM     55 OE2  GLU D   4       8.186  13.389  43.140  1.00 93.08 LIG-0.65  OA
ENDBRANCH 52 53
ENDBRANCH 51 52
ENDBRANCH 49 51
ENDBRANCH 47 49
ENDBRANCH 44 45
BRANCH 44 56
ATOM     56  CB  PHE D   5      14.321  12.102  40.083  1.00 80.27 LIG 0.07  C 
BRANCH 56 57
ATOM     57  CG  PHE D   5      13.888  10.962  39.189  1.00 81.89 LIG-0.06  A 
ATOM     58  CD2 PHE D   5      13.790   9.663  39.685  1.00 84.17 LIG 0.01  A 
ATOM     59  CE2 PHE D   5      13.400   8.606  38.857  1.00 86.81 LIG 0.00  A 
ATOM     60  CZ  PHE D   5      13.092   8.845  37.535  1.00 84.76 LIG 0.00  A 
ATOM     61  CE1 PHE D   5      13.195  10.122  37.024  1.00 85.59 LIG 0.00  A 
ATOM     62  CD1 PHE D   5      13.598  11.179  37.849  1.00 84.61 LIG 0.01  A 
ENDBRANCH 56 57
ENDBRANCH 44 56
ENDBRANCH 41 44
ENDBRANCH 39 40
BRANCH 39 63
ATOM     63  CB  LEU D   6      18.318  10.757  43.923  1.00 70.57 LIG 0.04  C 
BRANCH 63 64
ATOM     64  CG  LEU D   6      17.632   9.447  43.602  1.00 75.48 LIG-0.02  C 
ATOM     65  CD2 LEU D   6      16.433   9.266  44.427  1.00 78.97 LIG 0.01  C 
ATOM     66  CD1 LEU D   6      18.554   8.314  43.785  1.00 75.94 LIG 0.01  C 
ENDBRANCH 63 64
ENDBRANCH 39 63
ENDBRANCH 1 39
TORSDOF 25
ENDMDL
MODEL 11
USER: ADFR SOLUTION from run 59
USER: SCORE 22.744290 LL:  -6.961 LR: -17.651 RR:   0.000 FEB: -10.193
USER: RMSD 12.048589
USER: SEED 58
USER: STATUS no improvement in best in 1 clusters for 5 generations
USER: GENES 27
USER: genes 0 Translation |==|  0.50449 0.52190 0.47946
USER: genes 1 Rotation |==|  0.67338 0.19063 0.85118 0.53003
USER: genes 2 Torsion [N]-CA--C-[N] |==|  0.19392
USER: genes 3 Torsion [C]-N--CA-[C] |==|  0.60556
USER: genes 4 Torsion [N]-CA--CB-[CG] |==|  0.62469
USER: genes 5 Torsion [CA]-CB--CG-[CD1] |==|  0.59126
USER: genes 6 Torsion [N]-CA--C-[N] |==|  0.79955
USER: genes 7 Torsion [C]-N--CA-[CB] |==|  0.78122
USER: genes 8 Torsion [N]-CA--CB-[CG] |==|  0.25326
USER: genes 9 Torsion [CA]-CB--CG-[CD1] |==|  0.77672
USER: genes 10 Torsion [N]-CA--C-[N] |==|  0.07221
USER: genes 11 Torsion [C]-N--CA-[C] |==|  0.89455
USER: genes 12 Torsion [N]-CA--C-[O] |==|  0.29217
USER: genes 13 Torsion [N]-CA--CB-[OG] |==|  0.00983
USER: genes 14 Torsion [CA]-CB--OG-[HG] |==|  0.10396
USER: genes 15 Torsion [N]-C--CA-[N] |==|  0.19648
USER: genes 16 Torsion [C]-CA--N-[C] |==|  0.62499
USER: genes 17 Torsion [N]-C--CA-[N] |==|  0.87881
USER: genes 18 Torsion [C]-CA--N-[C] |==|  0.80939
USER: genes 19 Torsion [N]-C--CA-[N] |==|  0.46153
USER: genes 20 Torsion [C]-CA--CB-[CG] |==|  0.39190
USER: genes 21 Torsion [CA]-CB--CG-[CD] |==|  0.14835
USER: genes 22 Torsion [CB]-CG--CD-[OE1] |==|  0.56929
USER: genes 23 Torsion [C]-CA--CB-[CG] |==|  0.16108
USER: genes 24 Torsion [CA]-CB--CG-[CD2] |==|  0.16028
USER: genes 25 Torsion [C]-CA--CB-[CG] |==|  0.47489
USER: genes 26 Torsion [CA]-CB--CG-[CD2] |==|  0.82244
ROOT
ATOM      1  C   LEU D   6      18.093  12.313  42.271  1.00 70.97 LIG 0.24  C 
ATOM      2 O    LEU D   6      17.731  11.928  41.169  1.00 69.80 LIG-0.27  OA
ATOM      3  N   PRO D   7      17.906  11.576  43.378  1.00 67.36 LIG-0.34  N 
ATOM      4  CA  PRO D   7      17.250  10.276  43.270  1.00 66.95 LIG 0.18  C 
ATOM      5  CB  PRO D   7      17.938   9.446  44.365  1.00 69.23 LIG 0.04  C 
ATOM      6  CG  PRO D   7      18.548  10.465  45.333  1.00 73.99 LIG 0.02  C 
ATOM      7  CD  PRO D   7      18.309  11.845  44.774  1.00 69.55 LIG 0.13  C 
ENDROOT
BRANCH 4 8
ATOM      8  C   PRO D   7      15.742  10.372  43.487  1.00 67.39 LIG 0.24  C 
ATOM      9  N   LEU D   8      15.058  10.983  42.527  1.00 63.51 LIG-0.35  N 
ATOM     10 H    LEU D   8      15.425  11.350  41.841  1.00 63.51 LIG 0.16  HD
ATOM     11 O    PRO D   7      15.210   9.905  44.496  1.00 65.73 LIG-0.27  OA
BRANCH 9 12
ATOM     12  CA  LEU D   8      13.612  11.087  42.549  1.00 63.43 LIG 0.18  C 
BRANCH 12 13
ATOM     13  CB  LEU D   8      13.157  12.392  43.193  1.00 63.06 LIG 0.04  C 
BRANCH 13 14
ATOM     14  CG  LEU D   8      12.023  12.185  44.169  1.00 67.32 LIG-0.02  C 
ATOM     15  CD1 LEU D   8      11.110  13.358  44.179  1.00 66.57 LIG 0.01  C 
ATOM     16  CD2 LEU D   8      11.297  10.895  43.901  1.00 70.19 LIG 0.01  C 
ENDBRANCH 13 14
ENDBRANCH 12 13
BRANCH 12 17
ATOM     17  C   LEU D   8      13.059  10.927  41.150  1.00 69.22 LIG 0.24  C 
ATOM     18  N   PHE D   9      13.253  11.941  40.298  1.00 66.75 LIG-0.35  N 
ATOM     19 H    PHE D   9      13.667  12.665  40.509  1.00 66.75 LIG 0.16  HD
ATOM     20 O    LEU D   8      12.417   9.916  40.862  1.00 69.38 LIG-0.27  OA
BRANCH 18 21
ATOM     21  CA  PHE D   9      12.778  11.914  38.922  1.00 67.50 LIG 0.18  C 
BRANCH 21 22
ATOM     22  CB  PHE D   9      13.708  11.074  38.036  1.00 70.09 LIG 0.07  C 
BRANCH 22 23
ATOM     23  CG  PHE D   9      13.389   9.602  37.881  1.00 72.62 LIG-0.06  A 
ATOM     24  CD2 PHE D   9      12.813   9.121  36.712  1.00 75.26 LIG 0.01  A 
ATOM     25  CE2 PHE D   9      12.553   7.760  36.552  1.00 78.46 LIG 0.00  A 
ATOM     26  CZ  PHE D   9      12.872   6.872  37.558  1.00 76.95 LIG 0.00  A 
ATOM     27  CE1 PHE D   9      13.461   7.326  38.718  1.00 77.74 LIG 0.00  A 
ATOM     28  CD1 PHE D   9      13.751   8.683  38.864  1.00 76.53 LIG 0.01  A 
ENDBRANCH 22 23
ENDBRANCH 21 22
BRANCH 21 29
ATOM     29  C   PHE D   9      11.341  11.398  38.827  1.00 72.50 LIG 0.24  C 
ATOM     30 O    PHE D   9      10.948  10.849  37.795  1.00 71.57 LIG-0.27  OA
ATOM     31  N   SER D  10      10.558  11.557  39.911  1.00 70.70 LIG-0.34  N 
ATOM     32 H    SER D  10      10.828  11.918  40.642  1.00 70.70 LIG 0.16  HD
BRANCH 31 33
ATOM     33  CA  SER D  10       9.156  11.124  39.941  1.00110.54 LIG 0.19  C 
BRANCH 33 34
ATOM     34  C   SER D  10       8.468  11.378  38.599  1.00112.68 LIG 0.22  C 
ATOM     35 O    SER D  10       8.236  10.439  37.839  1.00 61.17 LIG-0.29  OA
ENDBRANCH 33 34
BRANCH 33 36
ATOM     36  CB  SER D  10       8.398  11.809  41.075  1.00114.99 LIG 0.20  C 
BRANCH 36 37
ATOM     37 OG   SER D  10       9.210  12.749  41.762  1.00125.63 LIG-0.40  OA
ATOM     38 HG   SER D  10       9.709  13.143  41.213  1.00125.63 LIG 0.21  HD
ENDBRANCH 36 37
ENDBRANCH 33 36
ENDBRANCH 31 33
ENDBRANCH 21 29
ENDBRANCH 18 21
ENDBRANCH 12 17
ENDBRANCH 9 12
ENDBRANCH 4 8
BRANCH 1 39
ATOM     39  CA  LEU D   6      18.729  13.668  42.417  1.00 70.47 LIG 0.18  C 
BRANCH 39 40
ATOM     40  N   LEU D   6      20.143  13.685  42.756  1.00 72.03 LIG-0.35  N 
ATOM     41  C   PHE D   5      20.607  14.506  43.696  1.00 78.51 LIG 0.24  C 
ATOM     42 O    PHE D   5      19.883  15.262  44.355  1.00 77.96 LIG-0.27  OA
ATOM     43 H    LEU D   6      20.629  13.135  42.308  1.00 72.03 LIG 0.16  HD
BRANCH 41 44
ATOM     44  CA  PHE D   5      22.111  14.563  43.848  1.00 78.26 LIG 0.18  C 
BRANCH 44 45
ATOM     45  N   PHE D   5      22.656  13.204  43.797  1.00 79.00 LIG-0.34  N 
ATOM     46 H    PHE D   5      23.124  13.033  43.095  1.00 79.00 LIG 0.16  HD
ATOM     47  C   GLU D   4      22.428  12.327  44.777  1.00 84.09 LIG 0.26  C 
ATOM     48 O    GLU D   4      21.836  12.619  45.814  1.00 84.89 LIG-0.27  OA
BRANCH 47 49
ATOM     49  CA  GLU D   4      22.940  10.910  44.587  1.00 80.59 LIG 0.40  C 
ATOM     50  N   GLU D   4      22.902  10.186  45.854  1.00 81.26 LIG 0.61  N 
BRANCH 49 51
ATOM     51  CB  GLU D   4      22.077  10.185  43.531  1.00 81.69 LIG 0.06  C 
BRANCH 51 52
ATOM     52  CG  GLU D   4      22.864   9.281  42.596  1.00 88.66 LIG 0.12  C 
BRANCH 52 53
ATOM     53  CD  GLU D   4      23.755   8.249  43.262  1.00 99.07 LIG 0.17  C 
ATOM     54 OE1  GLU D   4      24.749   7.811  42.636  1.00 74.80 LIG-0.65  OA
ATOM     55 OE2  GLU D   4      23.497   7.930  44.445  1.00 93.08 LIG-0.65  OA
ENDBRANCH 52 53
ENDBRANCH 51 52
ENDBRANCH 49 51
ENDBRANCH 47 49
ENDBRANCH 44 45
BRANCH 44 56
ATOM     56  CB  PHE D   5      22.804  15.537  42.891  1.00 80.27 LIG 0.07  C 
BRANCH 56 57
ATOM     57  CG  PHE D   5      22.296  16.953  43.039  1.00 81.89 LIG-0.06  A 
ATOM     58  CD2 PHE D   5      22.362  17.612  44.265  1.00 84.17 LIG 0.01  A 
ATOM     59  CE2 PHE D   5      21.883  18.918  44.405  1.00 86.81 LIG 0.00  A 
ATOM     60  CZ  PHE D   5      21.350  19.576  43.318  1.00 84.76 LIG 0.00  A 
ATOM     61  CE1 PHE D   5      21.267  18.935  42.098  1.00 85.59 LIG 0.00  A 
ATOM     62  CD1 PHE D   5      21.734  17.624  41.960  1.00 84.61 LIG 0.01  A 
ENDBRANCH 56 57
ENDBRANCH 44 56
ENDBRANCH 41 44
ENDBRANCH 39 40
BRANCH 39 63
ATOM     63  CB  LEU D   6      18.458  14.532  41.190  1.00 70.57 LIG 0.04  C 
BRANCH 63 64
ATOM     64  CG  LEU D   6      18.873  15.980  41.336  1.00 75.48 LIG-0.02  C 
ATOM     65  CD2 LEU D   6      18.096  16.647  42.385  1.00 78.97 LIG 0.01  C 
ATOM     66  CD1 LEU D   6      18.728  16.698  40.058  1.00 75.94 LIG 0.01  C 
ENDBRANCH 63 64
ENDBRANCH 39 63
ENDBRANCH 1 39
TORSDOF 25
ENDMDL
MODEL 12
USER: ADFR SOLUTION from run 103
USER: SCORE 23.147862 LL:  -5.969 LR: -17.599 RR:   0.000 FEB: -10.142
USER: RMSD 4.303148
USER: SEED 102
USER: STATUS no improvement in best in 15 clusters for 5 generations
USER: GENES 27
USER: genes 0 Translation |==|  0.43030 0.52161 0.50509
USER: genes 1 Rotation |==|  0.55451 0.57398 0.51206 0.99133
USER: genes 2 Torsion [N]-CA--C-[N] |==|  0.23397
USER: genes 3 Torsion [C]-N--CA-[C] |==|  0.76970
USER: genes 4 Torsion [N]-CA--CB-[CG] |==|  0.57154
USER: genes 5 Torsion [CA]-CB--CG-[CD1] |==|  0.96051
USER: genes 6 Torsion [N]-CA--C-[N] |==|  0.19444
USER: genes 7 Torsion [C]-N--CA-[CB] |==|  0.14502
USER: genes 8 Torsion [N]-CA--CB-[CG] |==|  0.71017
USER: genes 9 Torsion [CA]-CB--CG-[CD1] |==|  0.85330
USER: genes 10 Torsion [N]-CA--C-[N] |==|  0.11788
USER: genes 11 Torsion [C]-N--CA-[C] |==|  0.18325
USER: genes 12 Torsion [N]-CA--C-[O] |==|  0.12334
USER: genes 13 Torsion [N]-CA--CB-[OG] |==|  0.65720
USER: genes 14 Torsion [CA]-CB--OG-[HG] |==|  0.06167
USER: genes 15 Torsion [N]-C--CA-[N] |==|  0.44434
USER: genes 16 Torsion [C]-CA--N-[C] |==|  0.80663
USER: genes 17 Torsion [N]-C--CA-[N] |==|  0.13194
USER: genes 18 Torsion [C]-CA--N-[C] |==|  0.16587
USER: genes 19 Torsion [N]-C--CA-[N] |==|  0.81950
USER: genes 20 Torsion [C]-CA--CB-[CG] |==|  0.65008
USER: genes 21 Torsion [CA]-CB--CG-[CD] |==|  0.79226
USER: genes 22 Torsion [CB]-CG--CD-[OE1] |==|  0.59942
USER: genes 23 Torsion [C]-CA--CB-[CG] |==|  0.28601
USER: genes 24 Torsion [CA]-CB--CG-[CD2] |==|  0.52225
USER: genes 25 Torsion [C]-CA--CB-[CG] |==|  0.53799
USER: genes 26 Torsion [CA]-CB--CG-[CD2] |==|  0.64114
ROOT
ATOM      1  C   LEU D   6      15.923  12.308  42.770  1.00 70.97 LIG 0.24  C 
ATOM      2 O    LEU D   6      15.763  13.403  43.287  1.00 69.80 LIG-0.27  OA
ATOM      3  N   PRO D   7      17.078  11.631  42.883  1.00 67.36 LIG-0.34  N 
ATOM      4  CA  PRO D   7      18.179  12.215  43.643  1.00 66.95 LIG 0.18  C 
ATOM      5  CB  PRO D   7      18.867  10.988  44.261  1.00 69.23 LIG 0.04  C 
ATOM      6  CG  PRO D   7      18.430   9.795  43.402  1.00 73.99 LIG 0.02  C 
ATOM      7  CD  PRO D   7      17.444  10.292  42.376  1.00 69.55 LIG 0.13  C 
ENDROOT
BRANCH 4 8
ATOM      8  C   PRO D   7      19.128  13.018  42.758  1.00 67.39 LIG 0.24  C 
ATOM      9  N   LEU D   8      18.769  14.274  42.516  1.00 63.51 LIG-0.35  N 
ATOM     10 H    LEU D   8      18.031  14.619  42.791  1.00 63.51 LIG 0.16  HD
ATOM     11 O    PRO D   7      20.160  12.517  42.306  1.00 65.73 LIG-0.27  OA
BRANCH 9 12
ATOM     12  CA  LEU D   8      19.601  15.187  41.757  1.00 63.43 LIG 0.18  C 
BRANCH 12 13
ATOM     13  CB  LEU D   8      18.764  16.253  41.057  1.00 63.06 LIG 0.04  C 
BRANCH 13 14
ATOM     14  CG  LEU D   8      19.446  16.801  39.826  1.00 67.32 LIG-0.02  C 
ATOM     15  CD1 LEU D   8      20.882  16.419  39.800  1.00 66.57 LIG 0.01  C 
ATOM     16  CD2 LEU D   8      18.721  16.396  38.572  1.00 70.19 LIG 0.01  C 
ENDBRANCH 13 14
ENDBRANCH 12 13
BRANCH 12 17
ATOM     17  C   LEU D   8      20.654  15.798  42.655  1.00 69.22 LIG 0.24  C 
ATOM     18  N   PHE D   9      21.631  14.990  43.087  1.00 66.75 LIG-0.35  N 
ATOM     19 H    PHE D   9      21.681  14.157  42.881  1.00 66.75 LIG 0.16  HD
ATOM     20 O    LEU D   8      20.552  16.976  42.996  1.00 69.38 LIG-0.27  OA
BRANCH 18 21
ATOM     21  CA  PHE D   9      22.708  15.451  43.951  1.00 67.50 LIG 0.18  C 
BRANCH 21 22
ATOM     22  CB  PHE D   9      22.152  16.171  45.187  1.00 70.09 LIG 0.07  C 
BRANCH 22 23
ATOM     23  CG  PHE D   9      22.240  17.682  45.217  1.00 72.62 LIG-0.06  A 
ATOM     24  CD2 PHE D   9      21.132  18.449  45.557  1.00 75.26 LIG 0.01  A 
ATOM     25  CE2 PHE D   9      21.220  19.839  45.624  1.00 78.46 LIG 0.00  A 
ATOM     26  CZ  PHE D   9      22.418  20.470  45.355  1.00 76.95 LIG 0.00  A 
ATOM     27  CE1 PHE D   9      23.532  19.727  45.036  1.00 77.74 LIG 0.00  A 
ATOM     28  CD1 PHE D   9      23.451  18.334  45.001  1.00 76.53 LIG 0.01  A 
ENDBRANCH 22 23
ENDBRANCH 21 22
BRANCH 21 29
ATOM     29  C   PHE D   9      23.629  14.304  44.372  1.00 72.50 LIG 0.24  C 
ATOM     30 O    PHE D   9      24.015  14.217  45.540  1.00 71.57 LIG-0.27  OA
ATOM     31  N   SER D  10      23.970  13.410  43.424  1.00 70.70 LIG-0.34  N 
ATOM     32 H    SER D  10      23.689  13.449  42.612  1.00 70.70 LIG 0.16  HD
BRANCH 31 33
ATOM     33  CA  SER D  10      24.862  12.277  43.693  1.00110.54 LIG 0.19  C 
BRANCH 33 34
ATOM     34  C   SER D  10      24.222  11.287  44.669  1.00112.68 LIG 0.22  C 
ATOM     35 O    SER D  10      23.045  10.957  44.526  1.00 61.17 LIG-0.29  OA
ENDBRANCH 33 34
BRANCH 33 36
ATOM     36  CB  SER D  10      26.211  12.758  44.220  1.00114.99 LIG 0.20  C 
BRANCH 36 37
ATOM     37 OG   SER D  10      27.288  12.294  43.421  1.00125.63 LIG-0.40  OA
ATOM     38 HG   SER D  10      27.005  12.102  42.654  1.00125.63 LIG 0.21  HD
ENDBRANCH 36 37
ENDBRANCH 33 36
ENDBRANCH 31 33
ENDBRANCH 21 29
ENDBRANCH 18 21
ENDBRANCH 12 17
ENDBRANCH 9 12
ENDBRANCH 4 8
BRANCH 1 39
ATOM     39  CA  LEU D   6      14.823  11.704  41.943  1.00 70.47 LIG 0.18  C 
BRANCH 39 40
ATOM     40  N   LEU D   6      13.479  12.200  42.195  1.00 72.03 LIG-0.35  N 
ATOM     41  C   PHE D   5      12.852  11.918  43.335  1.00 78.51 LIG 0.24  C 
ATOM     42 O    PHE D   5      13.369  11.265  44.250  1.00 77.96 LIG-0.27  OA
ATOM     43 H    LEU D   6      13.144  12.674  41.560  1.00 72.03 LIG 0.16  HD
BRANCH 41 44
ATOM     44  CA  PHE D   5      11.402  12.338  43.420  1.00 78.26 LIG 0.18  C 
BRANCH 44 45
ATOM     45  N   PHE D   5      10.702  11.919  42.202  1.00 79.00 LIG-0.34  N 
ATOM     46 H    PHE D   5      10.351  12.563  41.752  1.00 79.00 LIG 0.16  HD
ATOM     47  C   GLU D   4      10.634  10.634  41.848  1.00 84.09 LIG 0.26  C 
ATOM     48 O    GLU D   4      11.222   9.739  42.454  1.00 84.89 LIG-0.27  OA
BRANCH 47 49
ATOM     49  CA  GLU D   4       9.797  10.281  40.632  1.00 80.59 LIG 0.40  C 
ATOM     50  N   GLU D   4       8.390  10.575  40.886  1.00 81.26 LIG 0.61  N 
BRANCH 49 51
ATOM     51  CB  GLU D   4      10.299  11.081  39.409  1.00 81.69 LIG 0.06  C 
BRANCH 51 52
ATOM     52  CG  GLU D   4       9.218  11.883  38.702  1.00 88.66 LIG 0.12  C 
BRANCH 52 53
ATOM     53  CD  GLU D   4       8.247  11.086  37.850  1.00 99.07 LIG 0.17  C 
ATOM     54 OE1  GLU D   4       7.819  11.590  36.786  1.00 74.80 LIG-0.65  OA
ATOM     55 OE2  GLU D   4       7.971   9.920  38.215  1.00 93.08 LIG-0.65  OA
ENDBRANCH 52 53
ENDBRANCH 51 52
ENDBRANCH 49 51
ENDBRANCH 47 49
ENDBRANCH 44 45
BRANCH 44 56
ATOM     56  CB  PHE D   5      10.696  11.909  44.709  1.00 80.27 LIG 0.07  C 
BRANCH 56 57
ATOM     57  CG  PHE D   5      10.538  13.050  45.689  1.00 81.89 LIG-0.06  A 
ATOM     58  CD2 PHE D   5      10.070  12.822  46.982  1.00 84.17 LIG 0.01  A 
ATOM     59  CE2 PHE D   5       9.914  13.878  47.885  1.00 86.81 LIG 0.00  A 
ATOM     60  CZ  PHE D   5      10.239  15.162  47.505  1.00 84.76 LIG 0.00  A 
ATOM     61  CE1 PHE D   5      10.693  15.408  46.225  1.00 85.59 LIG 0.00  A 
ATOM     62  CD1 PHE D   5      10.837  14.354  45.317  1.00 84.61 LIG 0.01  A 
ENDBRANCH 56 57
ENDBRANCH 44 56
ENDBRANCH 41 44
ENDBRANCH 39 40
BRANCH 39 63
ATOM     63  CB  LEU D   6      15.156  11.777  40.457  1.00 70.57 LIG 0.04  C 
BRANCH 63 64
ATOM     64  CG  LEU D   6      13.988  11.499  39.535  1.00 75.48 LIG-0.02  C 
ATOM     65  CD2 LEU D   6      14.339  10.488  38.533  1.00 78.97 LIG 0.01  C 
ATOM     66  CD1 LEU D   6      13.533  12.735  38.877  1.00 75.94 LIG 0.01  C 
ENDBRANCH 63 64
ENDBRANCH 39 63
ENDBRANCH 1 39
TORSDOF 25
ENDMDL
MODEL 13
USER: ADFR SOLUTION from run 129
USER: SCORE 22.314782 LL:  -5.860 LR: -17.590 RR:   0.000 FEB: -10.132
USER: RMSD 13.415111
USER: SEED 128
USER: STATUS no improvement in best in 17 clusters for 5 generations
USER: GENES 27
USER: genes 0 Translation |==|  0.55828 0.53980 0.53909
USER: genes 1 Rotation |==|  0.51960 0.13071 0.83537 0.52774
USER: genes 2 Torsion [N]-CA--C-[N] |==|  0.48327
USER: genes 3 Torsion [C]-N--CA-[C] |==|  0.79389
USER: genes 4 Torsion [N]-CA--CB-[CG] |==|  0.80593
USER: genes 5 Torsion [CA]-CB--CG-[CD1] |==|  0.39316
USER: genes 6 Torsion [N]-CA--C-[N] |==|  0.44868
USER: genes 7 Torsion [C]-N--CA-[CB] |==|  0.50557
USER: genes 8 Torsion [N]-CA--CB-[CG] |==|  0.69890
USER: genes 9 Torsion [CA]-CB--CG-[CD1] |==|  0.40838
USER: genes 10 Torsion [N]-CA--C-[N] |==|  0.37409
USER: genes 11 Torsion [C]-N--CA-[C] |==|  0.83938
USER: genes 12 Torsion [N]-CA--C-[O] |==|  0.29018
USER: genes 13 Torsion [N]-CA--CB-[OG] |==|  0.05063
USER: genes 14 Torsion [CA]-CB--OG-[HG] |==|  0.81422
USER: genes 15 Torsion [N]-C--CA-[N] |==|  0.36492
USER: genes 16 Torsion [C]-CA--N-[C] |==|  0.56652
USER: genes 17 Torsion [N]-C--CA-[N] |==|  0.43529
USER: genes 18 Torsion [C]-CA--N-[C] |==|  0.62970
USER: genes 19 Torsion [N]-C--CA-[N] |==|  0.91040
USER: genes 20 Torsion [C]-CA--CB-[CG] |==|  0.91881
USER: genes 21 Torsion [CA]-CB--CG-[CD] |==|  0.31369
USER: genes 22 Torsion [CB]-CG--CD-[OE1] |==|  0.16993
USER: genes 23 Torsion [C]-CA--CB-[CG] |==|  0.04129
USER: genes 24 Torsion [CA]-CB--CG-[CD2] |==|  0.24458
USER: genes 25 Torsion [C]-CA--CB-[CG] |==|  0.94980
USER: genes 26 Torsion [CA]-CB--CG-[CD2] |==|  0.70120
ROOT
ATOM      1  C   LEU D   6      19.667  12.635  43.433  1.00 70.97 LIG 0.24  C 
ATOM      2 O    LEU D   6      19.715  12.540  42.216  1.00 69.80 LIG-0.27  OA
ATOM      3  N   PRO D   7      18.728  12.005  44.159  1.00 67.36 LIG-0.34  N 
ATOM      4  CA  PRO D   7      17.733  11.180  43.479  1.00 66.95 LIG 0.18  C 
ATOM      5  CB  PRO D   7      17.465  10.053  44.490  1.00 69.23 LIG 0.04  C 
ATOM      6  CG  PRO D   7      17.928  10.598  45.846  1.00 73.99 LIG 0.02  C 
ATOM      7  CD  PRO D   7      18.535  11.959  45.623  1.00 69.55 LIG 0.13  C 
ENDROOT
BRANCH 4 8
ATOM      8  C   PRO D   7      16.467  11.963  43.147  1.00 67.39 LIG 0.24  C 
ATOM      9  N   LEU D   8      15.563  11.318  42.417  1.00 63.51 LIG-0.35  N 
ATOM     10 H    LEU D   8      15.683  10.526  42.102  1.00 63.51 LIG 0.16  HD
ATOM     11 O    PRO D   7      16.307  13.120  43.540  1.00 65.73 LIG-0.27  OA
BRANCH 9 12
ATOM     12  CA  LEU D   8      14.277  11.897  42.083  1.00 63.43 LIG 0.18  C 
BRANCH 12 13
ATOM     13  CB  LEU D   8      13.636  11.185  40.896  1.00 63.06 LIG 0.04  C 
BRANCH 13 14
ATOM     14  CG  LEU D   8      14.364  11.460  39.602  1.00 67.32 LIG-0.02  C 
ATOM     15  CD1 LEU D   8      14.416  10.241  38.753  1.00 66.57 LIG 0.01  C 
ATOM     16  CD2 LEU D   8      13.771  12.638  38.878  1.00 70.19 LIG 0.01  C 
ENDBRANCH 13 14
ENDBRANCH 12 13
BRANCH 12 17
ATOM     17  C   LEU D   8      13.374  11.890  43.297  1.00 69.22 LIG 0.24  C 
ATOM     18  N   PHE D   9      12.317  12.711  43.276  1.00 66.75 LIG-0.35  N 
ATOM     19 H    PHE D   9      12.136  13.233  42.616  1.00 66.75 LIG 0.16  HD
ATOM     20 O    LEU D   8      13.662  11.186  44.265  1.00 69.38 LIG-0.27  OA
BRANCH 18 21
ATOM     21  CA  PHE D   9      11.366  12.799  44.375  1.00 67.50 LIG 0.18  C 
BRANCH 21 22
ATOM     22  CB  PHE D   9      10.236  13.785  44.047  1.00 70.09 LIG 0.07  C 
BRANCH 22 23
ATOM     23  CG  PHE D   9      10.222  15.106  44.785  1.00 72.62 LIG-0.06  A 
ATOM     24  CD2 PHE D   9      10.765  15.211  46.061  1.00 75.26 LIG 0.01  A 
ATOM     25  CE2 PHE D   9      10.787  16.436  46.728  1.00 78.46 LIG 0.00  A 
ATOM     26  CZ  PHE D   9      10.272  17.563  46.122  1.00 76.95 LIG 0.00  A 
ATOM     27  CE1 PHE D   9       9.748  17.484  44.851  1.00 77.74 LIG 0.00  A 
ATOM     28  CD1 PHE D   9       9.755  16.266  44.171  1.00 76.53 LIG 0.01  A 
ENDBRANCH 22 23
ENDBRANCH 21 22
BRANCH 21 29
ATOM     29  C   PHE D   9      10.789  11.429  44.738  1.00 72.50 LIG 0.24  C 
ATOM     30 O    PHE D   9      10.420  10.658  43.849  1.00 71.57 LIG-0.27  OA
ATOM     31  N   SER D  10      10.725  11.117  46.046  1.00 70.70 LIG-0.34  N 
ATOM     32 H    SER D  10      11.000  11.637  46.673  1.00 70.70 LIG 0.16  HD
BRANCH 31 33
ATOM     33  CA  SER D  10      10.175   9.844  46.526  1.00110.54 LIG 0.19  C 
BRANCH 33 34
ATOM     34  C   SER D  10       8.732   9.652  46.057  1.00112.68 LIG 0.22  C 
ATOM     35 O    SER D  10       8.482   8.870  45.140  1.00 61.17 LIG-0.29  OA
ENDBRANCH 33 34
BRANCH 33 36
ATOM     36  CB  SER D  10      10.266   9.750  48.047  1.00114.99 LIG 0.20  C 
BRANCH 36 37
ATOM     37 OG   SER D  10      10.456  11.023  48.646  1.00125.63 LIG-0.40  OA
ATOM     38 HG   SER D  10      11.212  11.322  48.435  1.00125.63 LIG 0.21  HD
ENDBRANCH 36 37
ENDBRANCH 33 36
ENDBRANCH 31 33
ENDBRANCH 21 29
ENDBRANCH 18 21
ENDBRANCH 12 17
ENDBRANCH 9 12
ENDBRANCH 4 8
BRANCH 1 39
ATOM     39  CA  LEU D   6      20.650  13.515  44.153  1.00 70.47 LIG 0.18  C 
BRANCH 39 40
ATOM     40  N   LEU D   6      22.053  13.318  43.826  1.00 72.03 LIG-0.35  N 
ATOM     41  C   PHE D   5      23.008  13.664  44.689  1.00 78.51 LIG 0.24  C 
ATOM     42 O    PHE D   5      22.773  14.127  45.811  1.00 77.96 LIG-0.27  OA
ATOM     43 H    LEU D   6      22.199  12.972  43.053  1.00 72.03 LIG 0.16  HD
BRANCH 41 44
ATOM     44  CA  PHE D   5      24.429  13.575  44.180  1.00 78.26 LIG 0.18  C 
BRANCH 44 45
ATOM     45  N   PHE D   5      25.284  14.467  44.968  1.00 79.00 LIG-0.34  N 
ATOM     46 H    PHE D   5      25.173  14.410  45.819  1.00 79.00 LIG 0.16  HD
ATOM     47  C   GLU D   4      26.156  15.290  44.380  1.00 84.09 LIG 0.26  C 
ATOM     48 O    GLU D   4      26.366  15.290  43.169  1.00 84.89 LIG-0.27  OA
BRANCH 47 49
ATOM     49  CA  GLU D   4      26.920  16.256  45.267  1.00 80.59 LIG 0.40  C 
ATOM     50  N   GLU D   4      26.098  16.655  46.405  1.00 81.26 LIG 0.61  N 
BRANCH 49 51
ATOM     51  CB  GLU D   4      28.224  15.587  45.757  1.00 81.69 LIG 0.06  C 
BRANCH 51 52
ATOM     52  CG  GLU D   4      28.141  14.075  45.883  1.00 88.66 LIG 0.12  C 
BRANCH 52 53
ATOM     53  CD  GLU D   4      28.994  13.278  44.913  1.00 99.07 LIG 0.17  C 
ATOM     54 OE1  GLU D   4      30.239  13.421  44.941  1.00 74.80 LIG-0.65  OA
ATOM     55 OE2  GLU D   4      28.417  12.450  44.171  1.00 93.08 LIG-0.65  OA
ENDBRANCH 52 53
ENDBRANCH 51 52
ENDBRANCH 49 51
ENDBRANCH 47 49
ENDBRANCH 44 45
BRANCH 44 56
ATOM     56  CB  PHE D   5      24.971  12.147  44.072  1.00 80.27 LIG 0.07  C 
BRANCH 56 57
ATOM     57  CG  PHE D   5      23.877  11.106  44.150  1.00 81.89 LIG-0.06  A 
ATOM     58  CD2 PHE D   5      23.207  10.685  43.003  1.00 84.17 LIG 0.01  A 
ATOM     59  CE2 PHE D   5      22.189   9.730  43.076  1.00 86.81 LIG 0.00  A 
ATOM     60  CZ  PHE D   5      21.846   9.180  44.292  1.00 84.76 LIG 0.00  A 
ATOM     61  CE1 PHE D   5      22.492   9.592  45.440  1.00 85.59 LIG 0.00  A 
ATOM     62  CD1 PHE D   5      23.502  10.558  45.370  1.00 84.61 LIG 0.01  A 
ENDBRANCH 56 57
ENDBRANCH 44 56
ENDBRANCH 41 44
ENDBRANCH 39 40
BRANCH 39 63
ATOM     63  CB  LEU D   6      20.265  14.985  44.020  1.00 70.57 LIG 0.04  C 
BRANCH 63 64
ATOM     64  CG  LEU D   6      19.298  15.283  42.894  1.00 75.48 LIG-0.02  C 
ATOM     65  CD2 LEU D   6      19.972  15.976  41.792  1.00 78.97 LIG 0.01  C 
ATOM     66  CD1 LEU D   6      18.159  16.079  43.379  1.00 75.94 LIG 0.01  C 
ENDBRANCH 63 64
ENDBRANCH 39 63
ENDBRANCH 1 39
TORSDOF 25
ENDMDL
MODEL 14
USER: ADFR SOLUTION from run 35
USER: SCORE 21.758978 LL:  -6.486 LR: -17.488 RR:   0.000 FEB: -10.031
USER: RMSD 13.303126
USER: SEED 34
USER: STATUS no improvement in best in 17 clusters for 5 generations
USER: GENES 27
USER: genes 0 Translation |==|  0.55020 0.52077 0.53949
USER: genes 1 Rotation |==|  0.48796 0.17942 0.88321 0.51522
USER: genes 2 Torsion [N]-CA--C-[N] |==|  0.39145
USER: genes 3 Torsion [C]-N--CA-[C] |==|  0.69814
USER: genes 4 Torsion [N]-CA--CB-[CG] |==|  0.45816
USER: genes 5 Torsion [CA]-CB--CG-[CD1] |==|  0.27714
USER: genes 6 Torsion [N]-CA--C-[N] |==|  0.43757
USER: genes 7 Torsion [C]-N--CA-[CB] |==|  0.40470
USER: genes 8 Torsion [N]-CA--CB-[CG] |==|  0.88782
USER: genes 9 Torsion [CA]-CB--CG-[CD1] |==|  0.41960
USER: genes 10 Torsion [N]-CA--C-[N] |==|  0.15091
USER: genes 11 Torsion [C]-N--CA-[C] |==|  0.75999
USER: genes 12 Torsion [N]-CA--C-[O] |==|  0.13238
USER: genes 13 Torsion [N]-CA--CB-[OG] |==|  0.06187
USER: genes 14 Torsion [CA]-CB--OG-[HG] |==|  0.54667
USER: genes 15 Torsion [N]-C--CA-[N] |==|  0.38548
USER: genes 16 Torsion [C]-CA--N-[C] |==|  0.56719
USER: genes 17 Torsion [N]-C--CA-[N] |==|  0.44405
USER: genes 18 Torsion [C]-CA--N-[C] |==|  0.62198
USER: genes 19 Torsion [N]-C--CA-[N] |==|  0.89702
USER: genes 20 Torsion [C]-CA--CB-[CG] |==|  0.97915
USER: genes 21 Torsion [CA]-CB--CG-[CD] |==|  0.30171
USER: genes 22 Torsion [CB]-CG--CD-[OE1] |==|  0.55127
USER: genes 23 Torsion [C]-CA--CB-[CG] |==|  0.06341
USER: genes 24 Torsion [CA]-CB--CG-[CD2] |==|  0.74816
USER: genes 25 Torsion [C]-CA--CB-[CG] |==|  0.03355
USER: genes 26 Torsion [CA]-CB--CG-[CD2] |==|  0.72689
ROOT
ATOM      1  C   LEU D   6      19.430  12.293  43.441  1.00 70.97 LIG 0.24  C 
ATOM      2 O    LEU D   6      19.608  11.864  42.311  1.00 69.80 LIG-0.27  OA
ATOM      3  N   PRO D   7      18.382  11.911  44.190  1.00 67.36 LIG-0.34  N 
ATOM      4  CA  PRO D   7      17.423  10.955  43.642  1.00 66.95 LIG 0.18  C 
ATOM      5  CB  PRO D   7      16.980  10.158  44.880  1.00 69.23 LIG 0.04  C 
ATOM      6  CG  PRO D   7      17.319  11.045  46.083  1.00 73.99 LIG 0.02  C 
ATOM      7  CD  PRO D   7      18.024  12.277  45.576  1.00 69.55 LIG 0.13  C 
ENDROOT
BRANCH 4 8
ATOM      8  C   PRO D   7      16.249  11.647  42.956  1.00 67.39 LIG 0.24  C 
ATOM      9  N   LEU D   8      15.815  11.076  41.838  1.00 63.51 LIG-0.35  N 
ATOM     10 H    LEU D   8      16.187  10.388  41.480  1.00 63.51 LIG 0.16  HD
ATOM     11 O    PRO D   7      15.745  12.670  43.425  1.00 65.73 LIG-0.27  OA
BRANCH 9 12
ATOM     12  CA  LEU D   8      14.661  11.567  41.112  1.00 63.43 LIG 0.18  C 
BRANCH 12 13
ATOM     13  CB  LEU D   8      14.993  11.825  39.646  1.00 63.06 LIG 0.04  C 
BRANCH 13 14
ATOM     14  CG  LEU D   8      13.754  11.983  38.796  1.00 67.32 LIG-0.02  C 
ATOM     15  CD1 LEU D   8      13.462  13.419  38.546  1.00 66.57 LIG 0.01  C 
ATOM     16  CD2 LEU D   8      13.858  11.188  37.524  1.00 70.19 LIG 0.01  C 
ENDBRANCH 13 14
ENDBRANCH 12 13
BRANCH 12 17
ATOM     17  C   LEU D   8      13.503  10.606  41.266  1.00 69.22 LIG 0.24  C 
ATOM     18  N   PHE D   9      12.272  11.097  41.072  1.00 66.75 LIG-0.35  N 
ATOM     19 H    PHE D   9      12.117  11.919  40.870  1.00 66.75 LIG 0.16  HD
ATOM     20 O    LEU D   8      13.719   9.444  41.610  1.00 69.38 LIG-0.27  OA
BRANCH 18 21
ATOM     21  CA  PHE D   9      11.072  10.280  41.183  1.00 67.50 LIG 0.18  C 
BRANCH 21 22
ATOM     22  CB  PHE D   9       9.902  11.097  41.747  1.00 70.09 LIG 0.07  C 
BRANCH 22 23
ATOM     23  CG  PHE D   9      10.200  12.065  42.872  1.00 72.62 LIG-0.06  A 
ATOM     24  CD2 PHE D   9      11.300  11.873  43.699  1.00 75.26 LIG 0.01  A 
ATOM     25  CE2 PHE D   9      11.599  12.784  44.711  1.00 78.46 LIG 0.00  A 
ATOM     26  CZ  PHE D   9      10.802  13.895  44.901  1.00 76.95 LIG 0.00  A 
ATOM     27  CE1 PHE D   9       9.718  14.113  44.080  1.00 77.74 LIG 0.00  A 
ATOM     28  CD1 PHE D   9       9.438  13.219  43.046  1.00 76.53 LIG 0.01  A 
ENDBRANCH 22 23
ENDBRANCH 21 22
BRANCH 21 29
ATOM     29  C   PHE D   9      10.686   9.652  39.842  1.00 72.50 LIG 0.24  C 
ATOM     30 O    PHE D   9       9.557   9.829  39.378  1.00 71.57 LIG-0.27  OA
ATOM     31  N   SER D  10      11.629   8.930  39.208  1.00 70.70 LIG-0.34  N 
ATOM     32 H    SER D  10      12.426   8.819  39.511  1.00 70.70 LIG 0.16  HD
BRANCH 31 33
ATOM     33  CA  SER D  10      11.380   8.260  37.926  1.00110.54 LIG 0.19  C 
BRANCH 33 34
ATOM     34  C   SER D  10      10.775   6.871  38.136  1.00112.68 LIG 0.22  C 
ATOM     35 O    SER D  10       9.829   6.722  38.909  1.00 61.17 LIG-0.29  OA
ENDBRANCH 33 34
BRANCH 33 36
ATOM     36  CB  SER D  10      12.660   8.173  37.099  1.00114.99 LIG 0.20  C 
BRANCH 36 37
ATOM     37 OG   SER D  10      13.821   8.271  37.908  1.00125.63 LIG-0.40  OA
ATOM     38 HG   SER D  10      14.485   8.450  37.425  1.00125.63 LIG 0.21  HD
ENDBRANCH 36 37
ENDBRANCH 33 36
ENDBRANCH 31 33
ENDBRANCH 21 29
ENDBRANCH 18 21
ENDBRANCH 12 17
ENDBRANCH 9 12
ENDBRANCH 4 8
BRANCH 1 39
ATOM     39  CA  LEU D   6      20.377  13.313  44.011  1.00 70.47 LIG 0.18  C 
BRANCH 39 40
ATOM     40  N   LEU D   6      21.793  13.081  43.778  1.00 72.03 LIG-0.35  N 
ATOM     41  C   PHE D   5      22.710  13.600  44.592  1.00 78.51 LIG 0.24  C 
ATOM     42 O    PHE D   5      22.427  14.264  45.597  1.00 77.96 LIG-0.27  OA
ATOM     43 H    LEU D   6      21.972  12.596  43.091  1.00 72.03 LIG 0.16  HD
BRANCH 41 44
ATOM     44  CA  PHE D   5      24.151  13.440  44.162  1.00 78.26 LIG 0.18  C 
BRANCH 44 45
ATOM     45  N   PHE D   5      24.978  14.432  44.853  1.00 79.00 LIG-0.34  N 
ATOM     46 H    PHE D   5      24.805  14.521  45.692  1.00 79.00 LIG 0.16  HD
ATOM     47  C   GLU D   4      25.917  15.126  44.206  1.00 84.09 LIG 0.26  C 
ATOM     48 O    GLU D   4      26.212  14.919  43.030  1.00 84.89 LIG-0.27  OA
BRANCH 47 49
ATOM     49  CA  GLU D   4      26.650  16.209  44.976  1.00 80.59 LIG 0.40  C 
ATOM     50  N   GLU D   4      25.734  16.888  45.887  1.00 81.26 LIG 0.61  N 
BRANCH 49 51
ATOM     51  CB  GLU D   4      27.822  15.582  45.764  1.00 81.69 LIG 0.06  C 
BRANCH 51 52
ATOM     52  CG  GLU D   4      27.851  14.062  45.732  1.00 88.66 LIG 0.12  C 
BRANCH 52 53
ATOM     53  CD  GLU D   4      28.957  13.436  44.902  1.00 99.07 LIG 0.17  C 
ATOM     54 OE1  GLU D   4      28.845  12.239  44.546  1.00 74.80 LIG-0.65  OA
ATOM     55 OE2  GLU D   4      29.908  14.169  44.546  1.00 93.08 LIG-0.65  OA
ENDBRANCH 52 53
ENDBRANCH 51 52
ENDBRANCH 49 51
ENDBRANCH 47 49
ENDBRANCH 44 45
BRANCH 44 56
ATOM     56  CB  PHE D   5      24.687  12.011  44.276  1.00 80.27 LIG 0.07  C 
BRANCH 56 57
ATOM     57  CG  PHE D   5      23.585  10.976  44.258  1.00 81.89 LIG-0.06  A 
ATOM     58  CD2 PHE D   5      22.992  10.542  45.442  1.00 84.17 LIG 0.01  A 
ATOM     59  CE2 PHE D   5      21.980   9.578  45.426  1.00 86.81 LIG 0.00  A 
ATOM     60  CZ  PHE D   5      21.544   9.055  44.228  1.00 84.76 LIG 0.00  A 
ATOM     61  CE1 PHE D   5      22.127   9.466  43.046  1.00 85.59 LIG 0.00  A 
ATOM     62  CD1 PHE D   5      23.150  10.421  43.062  1.00 84.61 LIG 0.01  A 
ENDBRANCH 56 57
ENDBRANCH 44 56
ENDBRANCH 41 44
ENDBRANCH 39 40
BRANCH 39 63
ATOM     63  CB  LEU D   6      19.982  14.722  43.580  1.00 70.57 LIG 0.04  C 
BRANCH 63 64
ATOM     64  CG  LEU D   6      18.612  14.825  42.945  1.00 75.48 LIG-0.02  C 
ATOM     65  CD2 LEU D   6      18.710  14.838  41.483  1.00 78.97 LIG 0.01  C 
ATOM     66  CD1 LEU D   6      17.903  16.025  43.421  1.00 75.94 LIG 0.01  C 
ENDBRANCH 63 64
ENDBRANCH 39 63
ENDBRANCH 1 39
TORSDOF 25
ENDMDL
MODEL 15
USER: ADFR SOLUTION from run 129
USER: SCORE 22.257983 LL:  -6.043 LR: -17.489 RR:   0.000 FEB: -10.031
USER: RMSD 12.872026
USER: SEED 128
USER: STATUS no improvement in best in 17 clusters for 5 generations
USER: GENES 27
USER: genes 0 Translation |==|  0.54022 0.57752 0.48364
USER: genes 1 Rotation |==|  0.57630 0.16870 0.86610 0.51971
USER: genes 2 Torsion [N]-CA--C-[N] |==|  0.43358
USER: genes 3 Torsion [C]-N--CA-[C] |==|  0.83457
USER: genes 4 Torsion [N]-CA--CB-[CG] |==|  0.74653
USER: genes 5 Torsion [CA]-CB--CG-[CD1] |==|  0.60012
USER: genes 6 Torsion [N]-CA--C-[N] |==|  0.37567
USER: genes 7 Torsion [C]-N--CA-[CB] |==|  0.53404
USER: genes 8 Torsion [N]-CA--CB-[CG] |==|  0.68427
USER: genes 9 Torsion [CA]-CB--CG-[CD1] |==|  0.39929
USER: genes 10 Torsion [N]-CA--C-[N] |==|  0.38105
USER: genes 11 Torsion [C]-N--CA-[C] |==|  0.78461
USER: genes 12 Torsion [N]-CA--C-[O] |==|  0.96371
USER: genes 13 Torsion [N]-CA--CB-[OG] |==|  0.13990
USER: genes 14 Torsion [CA]-CB--OG-[HG] |==|  0.74408
USER: genes 15 Torsion [N]-C--CA-[N] |==|  0.23989
USER: genes 16 Torsion [C]-CA--N-[C] |==|  0.54471
USER: genes 17 Torsion [N]-C--CA-[N] |==|  0.97222
USER: genes 18 Torsion [C]-CA--N-[C] |==|  0.70017
USER: genes 19 Torsion [N]-C--CA-[N] |==|  0.48625
USER: genes 20 Torsion [C]-CA--CB-[CG] |==|  0.43436
USER: genes 21 Torsion [CA]-CB--CG-[CD] |==|  0.11719
USER: genes 22 Torsion [CB]-CG--CD-[OE1] |==|  0.63804
USER: genes 23 Torsion [C]-CA--CB-[CG] |==|  0.50529
USER: genes 24 Torsion [CA]-CB--CG-[CD2] |==|  0.27188
USER: genes 25 Torsion [C]-CA--CB-[CG] |==|  0.14793
USER: genes 26 Torsion [CA]-CB--CG-[CD2] |==|  0.53342
ROOT
ATOM      1  C   LEU D   6      19.138  13.314  42.352  1.00 70.97 LIG 0.24  C 
ATOM      2 O    LEU D   6      19.068  13.000  41.173  1.00 69.80 LIG-0.27  OA
ATOM      3  N   PRO D   7      18.442  12.668  43.302  1.00 67.36 LIG-0.34  N 
ATOM      4  CA  PRO D   7      17.574  11.557  42.922  1.00 66.95 LIG 0.18  C 
ATOM      5  CB  PRO D   7      17.665  10.614  44.132  1.00 69.23 LIG 0.04  C 
ATOM      6  CG  PRO D   7      18.152  11.483  45.297  1.00 73.99 LIG 0.02  C 
ATOM      7  CD  PRO D   7      18.429  12.867  44.766  1.00 69.55 LIG 0.13  C 
ENDROOT
BRANCH 4 8
ATOM      8  C   PRO D   7      16.141  12.011  42.658  1.00 67.39 LIG 0.24  C 
ATOM      9  N   LEU D   8      15.424  11.226  41.861  1.00 63.51 LIG-0.35  N 
ATOM     10 H    LEU D   8      15.741  10.529  41.470  1.00 63.51 LIG 0.16  HD
ATOM     11 O    PRO D   7      15.692  13.043  43.162  1.00 65.73 LIG-0.27  OA
BRANCH 9 12
ATOM     12  CA  LEU D   8      14.026  11.479  41.575  1.00 63.43 LIG 0.18  C 
BRANCH 12 13
ATOM     13  CB  LEU D   8      13.478  10.488  40.554  1.00 63.06 LIG 0.04  C 
BRANCH 13 14
ATOM     14  CG  LEU D   8      13.611  10.990  39.136  1.00 67.32 LIG-0.02  C 
ATOM     15  CD1 LEU D   8      12.446  10.574  38.314  1.00 66.57 LIG 0.01  C 
ATOM     16  CD2 LEU D   8      13.839  12.476  39.100  1.00 70.19 LIG 0.01  C 
ENDBRANCH 13 14
ENDBRANCH 12 13
BRANCH 12 17
ATOM     17  C   LEU D   8      13.224  11.468  42.857  1.00 69.22 LIG 0.24  C 
ATOM     18  N   PHE D   9      12.326  12.447  43.024  1.00 66.75 LIG-0.35  N 
ATOM     19 H    PHE D   9      12.192  13.070  42.446  1.00 66.75 LIG 0.16  HD
ATOM     20 O    LEU D   8      13.454  10.611  43.711  1.00 69.38 LIG-0.27  OA
BRANCH 18 21
ATOM     21  CA  PHE D   9      11.485  12.551  44.208  1.00 67.50 LIG 0.18  C 
BRANCH 21 22
ATOM     22  CB  PHE D   9      10.359  13.572  43.995  1.00 70.09 LIG 0.07  C 
BRANCH 22 23
ATOM     23  CG  PHE D   9      10.388  14.832  44.831  1.00 72.62 LIG-0.06  A 
ATOM     24  CD2 PHE D   9      10.912  14.817  46.118  1.00 75.26 LIG 0.01  A 
ATOM     25  CE2 PHE D   9      10.975  15.985  46.877  1.00 78.46 LIG 0.00  A 
ATOM     26  CZ  PHE D   9      10.518  17.176  46.353  1.00 76.95 LIG 0.00  A 
ATOM     27  CE1 PHE D   9      10.012  17.217  45.072  1.00 77.74 LIG 0.00  A 
ATOM     28  CD1 PHE D   9       9.980  16.054  44.301  1.00 76.53 LIG 0.01  A 
ENDBRANCH 22 23
ENDBRANCH 21 22
BRANCH 21 29
ATOM     29  C   PHE D   9      10.905  11.194  44.613  1.00 72.50 LIG 0.24  C 
ATOM     30 O    PHE D   9      10.474  10.424  43.752  1.00 71.57 LIG-0.27  OA
ATOM     31  N   SER D  10      10.907  10.892  45.925  1.00 70.70 LIG-0.34  N 
ATOM     32 H    SER D  10      11.224  11.412  46.531  1.00 70.70 LIG 0.16  HD
BRANCH 31 33
ATOM     33  CA  SER D  10      10.361   9.633  46.445  1.00110.54 LIG 0.19  C 
BRANCH 33 34
ATOM     34  C   SER D  10       8.833   9.670  46.496  1.00112.68 LIG 0.22  C 
ATOM     35 O    SER D  10       8.239  10.739  46.359  1.00 61.17 LIG-0.29  OA
ENDBRANCH 33 34
BRANCH 33 36
ATOM     36  CB  SER D  10      10.940   9.315  47.821  1.00114.99 LIG 0.20  C 
BRANCH 36 37
ATOM     37 OG   SER D  10      10.837  10.419  48.707  1.00125.63 LIG-0.40  OA
ATOM     38 HG   SER D  10      11.539  10.879  48.664  1.00125.63 LIG 0.21  HD
ENDBRANCH 36 37
ENDBRANCH 33 36
ENDBRANCH 31 33
ENDBRANCH 21 29
ENDBRANCH 18 21
ENDBRANCH 12 17
ENDBRANCH 9 12
ENDBRANCH 4 8
BRANCH 1 39
ATOM     39  CA  LEU D   6      19.988  14.484  42.764  1.00 70.47 LIG 0.18  C 
BRANCH 39 40
ATOM     40  N   LEU D   6      21.337  14.176  43.214  1.00 72.03 LIG-0.35  N 
ATOM     41  C   PHE D   5      22.050  15.075  43.890  1.00 78.51 LIG 0.24  C 
ATOM     42 O    PHE D   5      21.613  16.187  44.208  1.00 77.96 LIG-0.27  OA
ATOM     43 H    LEU D   6      21.616  13.389  43.007  1.00 72.03 LIG 0.16  HD
BRANCH 41 44
ATOM     44  CA  PHE D   5      23.494  14.714  44.158  1.00 78.26 LIG 0.18  C 
BRANCH 44 45
ATOM     45  N   PHE D   5      23.719  13.312  43.799  1.00 79.00 LIG-0.34  N 
ATOM     46 H    PHE D   5      23.724  13.155  42.953  1.00 79.00 LIG 0.16  HD
ATOM     47  C   GLU D   4      23.900  12.376  44.734  1.00 84.09 LIG 0.26  C 
ATOM     48 O    GLU D   4      23.983  12.634  45.934  1.00 84.89 LIG-0.27  OA
BRANCH 47 49
ATOM     49  CA  GLU D   4      24.017  10.934  44.275  1.00 80.59 LIG 0.40  C 
ATOM     50  N   GLU D   4      24.326  10.067  45.407  1.00 81.26 LIG 0.61  N 
BRANCH 49 51
ATOM     51  CB  GLU D   4      22.694  10.494  43.610  1.00 81.69 LIG 0.06  C 
BRANCH 51 52
ATOM     52  CG  GLU D   4      22.840   9.337  42.634  1.00 88.66 LIG 0.12  C 
BRANCH 52 53
ATOM     53  CD  GLU D   4      23.752   8.206  43.075  1.00 99.07 LIG 0.17  C 
ATOM     54 OE1  GLU D   4      24.634   7.796  42.286  1.00 74.80 LIG-0.65  OA
ATOM     55 OE2  GLU D   4      23.628   7.778  44.246  1.00 93.08 LIG-0.65  OA
ENDBRANCH 52 53
ENDBRANCH 51 52
ENDBRANCH 49 51
ENDBRANCH 47 49
ENDBRANCH 44 45
BRANCH 44 56
ATOM     56  CB  PHE D   5      24.509  15.676  43.535  1.00 80.27 LIG 0.07  C 
BRANCH 56 57
ATOM     57  CG  PHE D   5      25.938  15.252  43.790  1.00 81.89 LIG-0.06  A 
ATOM     58  CD2 PHE D   5      26.657  14.546  42.826  1.00 84.17 LIG 0.01  A 
ATOM     59  CE2 PHE D   5      27.975  14.145  43.065  1.00 86.81 LIG 0.00  A 
ATOM     60  CZ  PHE D   5      28.585  14.461  44.259  1.00 84.76 LIG 0.00  A 
ATOM     61  CE1 PHE D   5      27.886  15.150  45.229  1.00 85.59 LIG 0.00  A 
ATOM     62  CD1 PHE D   5      26.562  15.540  44.996  1.00 84.61 LIG 0.01  A 
ENDBRANCH 56 57
ENDBRANCH 44 56
ENDBRANCH 41 44
ENDBRANCH 39 40
BRANCH 39 63
ATOM     63  CB  LEU D   6      20.013  15.550  41.675  1.00 70.57 LIG 0.04  C 
BRANCH 63 64
ATOM     64  CG  LEU D   6      18.646  16.007  41.210  1.00 75.48 LIG-0.02  C 
ATOM     65  CD2 LEU D   6      18.747  16.807  39.986  1.00 78.97 LIG 0.01  C 
ATOM     66  CD1 LEU D   6      17.963  16.773  42.266  1.00 75.94 LIG 0.01  C 
ENDBRANCH 63 64
ENDBRANCH 39 63
ENDBRANCH 1 39
TORSDOF 25
ENDMDL
MODEL 16
USER: ADFR SOLUTION from run 130
USER: SCORE 24.296404 LL:  -7.335 LR: -17.465 RR:   0.000 FEB: -10.007
USER: RMSD 5.818274
USER: SEED 129
USER: STATUS searching
USER: GENES 27
USER: genes 0 Translation |==|  0.51786 0.48117 0.50037
USER: genes 1 Rotation |==|  0.09019 0.28879 0.38850 0.65816
USER: genes 2 Torsion [N]-CA--C-[N] |==|  0.23609
USER: genes 3 Torsion [C]-N--CA-[C] |==|  0.84945
USER: genes 4 Torsion [N]-CA--CB-[CG] |==|  0.91087
USER: genes 5 Torsion [CA]-CB--CG-[CD1] |==|  0.28059
USER: genes 6 Torsion [N]-CA--C-[N] |==|  0.88558
USER: genes 7 Torsion [C]-N--CA-[CB] |==|  0.86109
USER: genes 8 Torsion [N]-CA--CB-[CG] |==|  0.81866
USER: genes 9 Torsion [CA]-CB--CG-[CD1] |==|  0.91827
USER: genes 10 Torsion [N]-CA--C-[N] |==|  0.91667
USER: genes 11 Torsion [C]-N--CA-[C] |==|  0.59683
USER: genes 12 Torsion [N]-CA--C-[O] |==|  0.21036
USER: genes 13 Torsion [N]-CA--CB-[OG] |==|  0.83425
USER: genes 14 Torsion [CA]-CB--OG-[HG] |==|  0.96952
USER: genes 15 Torsion [N]-C--CA-[N] |==|  0.25590
USER: genes 16 Torsion [C]-CA--N-[C] |==|  0.75581
USER: genes 17 Torsion [N]-C--CA-[N] |==|  0.39107
USER: genes 18 Torsion [C]-CA--N-[C] |==|  0.85487
USER: genes 19 Torsion [N]-C--CA-[N] |==|  0.50740
USER: genes 20 Torsion [C]-CA--CB-[CG] |==|  0.41416
USER: genes 21 Torsion [CA]-CB--CG-[CD] |==|  0.98545
USER: genes 22 Torsion [CB]-CG--CD-[OE1] |==|  0.21024
USER: genes 23 Torsion [C]-CA--CB-[CG] |==|  0.40973
USER: genes 24 Torsion [CA]-CB--CG-[CD2] |==|  0.67565
USER: genes 25 Torsion [C]-CA--CB-[CG] |==|  0.23367
USER: genes 26 Torsion [CA]-CB--CG-[CD2] |==|  0.07404
ROOT
ATOM      1  C   LEU D   6      18.484  11.580  42.678  1.00 70.97 LIG 0.24  C 
ATOM      2 O    LEU D   6      19.377  11.085  42.006  1.00 69.80 LIG-0.27  OA
ATOM      3  N   PRO D   7      18.551  12.845  43.126  1.00 67.36 LIG-0.34  N 
ATOM      4  CA  PRO D   7      19.721  13.657  42.805  1.00 66.95 LIG 0.18  C 
ATOM      5  CB  PRO D   7      19.139  15.074  42.677  1.00 69.23 LIG 0.04  C 
ATOM      6  CG  PRO D   7      17.804  15.040  43.430  1.00 73.99 LIG 0.02  C 
ATOM      7  CD  PRO D   7      17.567  13.628  43.902  1.00 69.55 LIG 0.13  C 
ENDROOT
BRANCH 4 8
ATOM      8  C   PRO D   7      20.793  13.575  43.888  1.00 67.39 LIG 0.24  C 
ATOM      9  N   LEU D   8      21.631  12.549  43.795  1.00 63.51 LIG-0.35  N 
ATOM     10 H    LEU D   8      21.563  11.932  43.200  1.00 63.51 LIG 0.16  HD
ATOM     11 O    PRO D   7      20.864  14.419  44.784  1.00 65.73 LIG-0.27  OA
BRANCH 9 12
ATOM     12  CA  LEU D   8      22.749  12.374  44.701  1.00 63.43 LIG 0.18  C 
BRANCH 12 13
ATOM     13  CB  LEU D   8      23.561  11.131  44.352  1.00 63.06 LIG 0.04  C 
BRANCH 13 14
ATOM     14  CG  LEU D   8      22.705  10.032  43.770  1.00 67.32 LIG-0.02  C 
ATOM     15  CD1 LEU D   8      22.837   9.984  42.290  1.00 66.57 LIG 0.01  C 
ATOM     16  CD2 LEU D   8      23.003   8.706  44.415  1.00 70.19 LIG 0.01  C 
ENDBRANCH 13 14
ENDBRANCH 12 13
BRANCH 12 17
ATOM     17  C   LEU D   8      23.606  13.621  44.714  1.00 69.22 LIG 0.24  C 
ATOM     18  N   PHE D   9      23.832  14.218  43.538  1.00 66.75 LIG-0.35  N 
ATOM     19 H    PHE D   9      23.519  13.926  42.791  1.00 66.75 LIG 0.16  HD
ATOM     20 O    LEU D   8      24.100  14.007  45.773  1.00 69.38 LIG-0.27  OA
BRANCH 18 21
ATOM     21  CA  PHE D   9      24.633  15.427  43.409  1.00 67.50 LIG 0.18  C 
BRANCH 21 22
ATOM     22  CB  PHE D   9      24.176  16.498  44.409  1.00 70.09 LIG 0.07  C 
BRANCH 22 23
ATOM     23  CG  PHE D   9      22.787  17.073  44.234  1.00 72.62 LIG-0.06  A 
ATOM     24  CD2 PHE D   9      22.107  17.624  45.314  1.00 75.26 LIG 0.01  A 
ATOM     25  CE2 PHE D   9      20.843  18.189  45.148  1.00 78.46 LIG 0.00  A 
ATOM     26  CZ  PHE D   9      20.253  18.210  43.902  1.00 76.95 LIG 0.00  A 
ATOM     27  CE1 PHE D   9      20.917  17.686  42.815  1.00 77.74 LIG 0.00  A 
ATOM     28  CD1 PHE D   9      22.196  17.151  42.975  1.00 76.53 LIG 0.01  A 
ENDBRANCH 22 23
ENDBRANCH 21 22
BRANCH 21 29
ATOM     29  C   PHE D   9      26.126  15.139  43.582  1.00 72.50 LIG 0.24  C 
ATOM     30 O    PHE D   9      26.962  15.842  43.010  1.00 71.57 LIG-0.27  OA
ATOM     31  N   SER D  10      26.465  14.114  44.386  1.00 70.70 LIG-0.34  N 
ATOM     32 H    SER D  10      25.892  13.631  44.807  1.00 70.70 LIG 0.16  HD
BRANCH 31 33
ATOM     33  CA  SER D  10      27.860  13.722  44.620  1.00110.54 LIG 0.19  C 
BRANCH 33 34
ATOM     34  C   SER D  10      27.991  12.207  44.783  1.00112.68 LIG 0.22  C 
ATOM     35 O    SER D  10      27.928  11.474  43.796  1.00 61.17 LIG-0.29  OA
ENDBRANCH 33 34
BRANCH 33 36
ATOM     36  CB  SER D  10      28.434  14.448  45.834  1.00114.99 LIG 0.20  C 
BRANCH 36 37
ATOM     37 OG   SER D  10      28.402  15.858  45.672  1.00125.63 LIG-0.40  OA
ATOM     38 HG   SER D  10      28.210  16.044  44.876  1.00125.63 LIG 0.21  HD
ENDBRANCH 36 37
ENDBRANCH 33 36
ENDBRANCH 31 33
ENDBRANCH 21 29
ENDBRANCH 18 21
ENDBRANCH 12 17
ENDBRANCH 9 12
ENDBRANCH 4 8
BRANCH 1 39
ATOM     39  CA  LEU D   6      17.290  10.752  43.062  1.00 70.47 LIG 0.18  C 
BRANCH 39 40
ATOM     40  N   LEU D   6      16.168  10.768  42.138  1.00 72.03 LIG-0.35  N 
ATOM     41  C   PHE D   5      15.220  11.699  42.235  1.00 78.51 LIG 0.24  C 
ATOM     42 O    PHE D   5      15.248  12.611  43.070  1.00 77.96 LIG-0.27  OA
ATOM     43 H    LEU D   6      16.177  10.143  41.547  1.00 72.03 LIG 0.16  HD
BRANCH 41 44
ATOM     44  CA  PHE D   5      14.017  11.521  41.336  1.00 78.26 LIG 0.18  C 
BRANCH 44 45
ATOM     45  N   PHE D   5      12.804  11.890  42.068  1.00 79.00 LIG-0.34  N 
ATOM     46 H    PHE D   5      12.303  12.462  41.665  1.00 79.00 LIG 0.16  HD
ATOM     47  C   GLU D   4      12.526  11.363  43.264  1.00 84.09 LIG 0.26  C 
ATOM     48 O    GLU D   4      13.207  10.479  43.780  1.00 84.89 LIG-0.27  OA
BRANCH 47 49
ATOM     49  CA  GLU D   4      11.305  11.886  43.998  1.00 80.59 LIG 0.40  C 
ATOM     50  N   GLU D   4      11.191  11.248  45.305  1.00 81.26 LIG 0.61  N 
BRANCH 49 51
ATOM     51  CB  GLU D   4      11.414  13.419  44.157  1.00 81.69 LIG 0.06  C 
BRANCH 51 52
ATOM     52  CG  GLU D   4      10.076  14.142  44.167  1.00 88.66 LIG 0.12  C 
BRANCH 52 53
ATOM     53  CD  GLU D   4       8.854  13.283  43.898  1.00 99.07 LIG 0.17  C 
ATOM     54 OE1  GLU D   4       8.429  12.531  44.805  1.00 74.80 LIG-0.65  OA
ATOM     55 OE2  GLU D   4       8.276  13.419  42.795  1.00 93.08 LIG-0.65  OA
ENDBRANCH 52 53
ENDBRANCH 51 52
ENDBRANCH 49 51
ENDBRANCH 47 49
ENDBRANCH 44 45
BRANCH 44 56
ATOM     56  CB  PHE D   5      14.142  12.208  39.973  1.00 80.27 LIG 0.07  C 
BRANCH 56 57
ATOM     57  CG  PHE D   5      13.424  11.454  38.877  1.00 81.89 LIG-0.06  A 
ATOM     58  CD2 PHE D   5      14.127  10.914  37.802  1.00 84.17 LIG 0.01  A 
ATOM     59  CE2 PHE D   5      13.462  10.225  36.783  1.00 86.81 LIG 0.00  A 
ATOM     60  CZ  PHE D   5      12.095  10.061  36.841  1.00 84.76 LIG 0.00  A 
ATOM     61  CE1 PHE D   5      11.381  10.599  37.893  1.00 85.59 LIG 0.00  A 
ATOM     62  CD1 PHE D   5      12.044  11.299  38.907  1.00 84.61 LIG 0.01  A 
ENDBRANCH 56 57
ENDBRANCH 44 56
ENDBRANCH 41 44
ENDBRANCH 39 40
BRANCH 39 63
ATOM     63  CB  LEU D   6      17.703   9.320  43.386  1.00 70.57 LIG 0.04  C 
BRANCH 63 64
ATOM     64  CG  LEU D   6      18.188   9.109  44.804  1.00 75.48 LIG-0.02  C 
ATOM     65  CD2 LEU D   6      17.597  10.096  45.713  1.00 78.97 LIG 0.01  C 
ATOM     66  CD1 LEU D   6      19.657   9.168  44.870  1.00 75.94 LIG 0.01  C 
ENDBRANCH 63 64
ENDBRANCH 39 63
ENDBRANCH 1 39
TORSDOF 25
ENDMDL
MODEL 17
USER: ADFR SOLUTION from run 155
USER: SCORE 23.022502 LL:  -6.585 LR: -17.443 RR:   0.000 FEB:  -9.985
USER: RMSD 12.950840
USER: SEED 154
USER: STATUS no improvement in best in 4 clusters for 5 generations
USER: GENES 27
USER: genes 0 Translation |==|  0.45709 0.53156 0.54146
USER: genes 1 Rotation |==|  0.64181 0.05596 0.32095 0.52570
USER: genes 2 Torsion [N]-CA--C-[N] |==|  0.45132
USER: genes 3 Torsion [C]-N--CA-[C] |==|  0.73477
USER: genes 4 Torsion [N]-CA--CB-[CG] |==|  0.16831
USER: genes 5 Torsion [CA]-CB--CG-[CD1] |==|  0.26985
USER: genes 6 Torsion [N]-CA--C-[N] |==|  0.93421
USER: genes 7 Torsion [C]-N--CA-[CB] |==|  0.50036
USER: genes 8 Torsion [N]-CA--CB-[CG] |==|  0.23836
USER: genes 9 Torsion [CA]-CB--CG-[CD1] |==|  0.25924
USER: genes 10 Torsion [N]-CA--C-[N] |==|  0.42251
USER: genes 11 Torsion [C]-N--CA-[C] |==|  0.18835
USER: genes 12 Torsion [N]-CA--C-[O] |==|  0.99466
USER: genes 13 Torsion [N]-CA--CB-[OG] |==|  0.67136
USER: genes 14 Torsion [CA]-CB--OG-[HG] |==|  0.23183
USER: genes 15 Torsion [N]-C--CA-[N] |==|  0.40748
USER: genes 16 Torsion [C]-CA--N-[C] |==|  0.64444
USER: genes 17 Torsion [N]-C--CA-[N] |==|  0.45123
USER: genes 18 Torsion [C]-CA--N-[C] |==|  0.72411
USER: genes 19 Torsion [N]-C--CA-[N] |==|  0.12741
USER: genes 20 Torsion [C]-CA--CB-[CG] |==|  0.67969
USER: genes 21 Torsion [CA]-CB--CG-[CD] |==|  0.73437
USER: genes 22 Torsion [CB]-CG--CD-[OE1] |==|  0.98664
USER: genes 23 Torsion [C]-CA--CB-[CG] |==|  0.89977
USER: genes 24 Torsion [CA]-CB--CG-[CD2] |==|  0.75969
USER: genes 25 Torsion [C]-CA--CB-[CG] |==|  0.20483
USER: genes 26 Torsion [CA]-CB--CG-[CD2] |==|  0.56318
ROOT
ATOM      1  C   LEU D   6      16.707  12.487  43.479  1.00 70.97 LIG 0.24  C 
ATOM      2 O    LEU D   6      16.270  13.419  44.138  1.00 69.80 LIG-0.27  OA
ATOM      3  N   PRO D   7      15.991  11.913  42.498  1.00 67.36 LIG-0.34  N 
ATOM      4  CA  PRO D   7      14.650  12.412  42.205  1.00 66.95 LIG 0.18  C 
ATOM      5  CB  PRO D   7      14.526  12.209  40.686  1.00 69.23 LIG 0.04  C 
ATOM      6  CG  PRO D   7      15.579  11.154  40.325  1.00 73.99 LIG 0.02  C 
ATOM      7  CD  PRO D   7      16.358  10.822  41.572  1.00 69.55 LIG 0.13  C 
ENDROOT
BRANCH 4 8
ATOM      8  C   PRO D   7      13.573  11.653  42.974  1.00 67.39 LIG 0.24  C 
ATOM      9  N   LEU D   8      12.390  12.253  43.055  1.00 63.51 LIG-0.35  N 
ATOM     10 H    LEU D   8      12.233  13.039  42.744  1.00 63.51 LIG 0.16  HD
ATOM     11 O    PRO D   7      13.802  10.552  43.478  1.00 65.73 LIG-0.27  OA
BRANCH 9 12
ATOM     12  CA  LEU D   8      11.244  11.627  43.684  1.00 63.43 LIG 0.18  C 
BRANCH 12 13
ATOM     13  CB  LEU D   8      10.445  12.631  44.510  1.00 63.06 LIG 0.04  C 
BRANCH 13 14
ATOM     14  CG  LEU D   8       9.907  13.765  43.671  1.00 67.32 LIG-0.02  C 
ATOM     15  CD1 LEU D   8       8.496  13.513  43.279  1.00 66.57 LIG 0.01  C 
ATOM     16  CD2 LEU D   8      10.083  15.090  44.362  1.00 70.19 LIG 0.01  C 
ENDBRANCH 13 14
ENDBRANCH 12 13
BRANCH 12 17
ATOM     17  C   LEU D   8      10.386  10.947  42.641  1.00 69.22 LIG 0.24  C 
ATOM     18  N   PHE D   9      10.482  11.398  41.384  1.00 66.75 LIG-0.35  N 
ATOM     19 H    PHE D   9      10.997  12.046  41.151  1.00 66.75 LIG 0.16  HD
ATOM     20 O    LEU D   8       9.606  10.057  42.981  1.00 69.38 LIG-0.27  OA
BRANCH 18 21
ATOM     21  CA  PHE D   9       9.717  10.829  40.283  1.00 67.50 LIG 0.18  C 
BRANCH 21 22
ATOM     22  CB  PHE D   9      10.036  11.546  38.964  1.00 70.09 LIG 0.07  C 
BRANCH 22 23
ATOM     23  CG  PHE D   9      11.231  11.060  38.173  1.00 72.62 LIG-0.06  A 
ATOM     24  CD2 PHE D   9      12.515  11.480  38.501  1.00 75.26 LIG 0.01  A 
ATOM     25  CE2 PHE D   9      13.622  11.004  37.798  1.00 78.46 LIG 0.00  A 
ATOM     26  CZ  PHE D   9      13.452  10.103  36.767  1.00 76.95 LIG 0.00  A 
ATOM     27  CE1 PHE D   9      12.190   9.660  36.440  1.00 77.74 LIG 0.00  A 
ATOM     28  CD1 PHE D   9      11.086  10.111  37.164  1.00 76.53 LIG 0.01  A 
ENDBRANCH 22 23
ENDBRANCH 21 22
BRANCH 21 29
ATOM     29  C   PHE D   9       9.956   9.324  40.143  1.00 72.50 LIG 0.24  C 
ATOM     30 O    PHE D   9      11.020   8.829  40.523  1.00 71.57 LIG-0.27  OA
ATOM     31  N   SER D  10       8.960   8.591  39.612  1.00 70.70 LIG-0.34  N 
ATOM     32 H    SER D  10       8.206   8.922  39.365  1.00 70.70 LIG 0.16  HD
BRANCH 31 33
ATOM     33  CA  SER D  10       9.071   7.142  39.406  1.00110.54 LIG 0.19  C 
BRANCH 33 34
ATOM     34  C   SER D  10       9.122   6.394  40.740  1.00112.68 LIG 0.22  C 
ATOM     35 O    SER D  10       9.106   7.022  41.798  1.00 61.17 LIG-0.29  OA
ENDBRANCH 33 34
BRANCH 33 36
ATOM     36  CB  SER D  10      10.289   6.805  38.551  1.00114.99 LIG 0.20  C 
BRANCH 36 37
ATOM     37 OG   SER D  10       9.924   6.167  37.337  1.00125.63 LIG-0.40  OA
ATOM     38 HG   SER D  10       9.712   6.748  36.768  1.00125.63 LIG 0.21  HD
ENDBRANCH 36 37
ENDBRANCH 33 36
ENDBRANCH 31 33
ENDBRANCH 21 29
ENDBRANCH 18 21
ENDBRANCH 12 17
ENDBRANCH 9 12
ENDBRANCH 4 8
BRANCH 1 39
ATOM     39  CA  LEU D   6      18.065  11.924  43.791  1.00 70.47 LIG 0.18  C 
BRANCH 39 40
ATOM     40  N   LEU D   6      19.074  12.875  44.231  1.00 72.03 LIG-0.35  N 
ATOM     41  C   PHE D   5      20.265  12.926  43.638  1.00 78.51 LIG 0.24  C 
ATOM     42 O    PHE D   5      20.574  12.216  42.673  1.00 77.96 LIG-0.27  OA
ATOM     43 H    LEU D   6      18.834  13.378  44.885  1.00 72.03 LIG 0.16  HD
BRANCH 41 44
ATOM     44  CA  PHE D   5      21.292  13.829  44.283  1.00 78.26 LIG 0.18  C 
BRANCH 44 45
ATOM     45  N   PHE D   5      22.627  13.472  43.796  1.00 79.00 LIG-0.34  N 
ATOM     46 H    PHE D   5      22.825  13.797  43.024  1.00 79.00 LIG 0.16  HD
ATOM     47  C   GLU D   4      23.447  12.703  44.517  1.00 84.09 LIG 0.26  C 
ATOM     48 O    GLU D   4      23.181  12.325  45.657  1.00 84.89 LIG-0.27  OA
BRANCH 47 49
ATOM     49  CA  GLU D   4      24.766  12.294  43.886  1.00 80.59 LIG 0.40  C 
ATOM     50  N   GLU D   4      25.405  13.448  43.261  1.00 81.26 LIG 0.61  N 
BRANCH 49 51
ATOM     51  CB  GLU D   4      25.691  11.691  44.967  1.00 81.69 LIG 0.06  C 
BRANCH 51 52
ATOM     52  CG  GLU D   4      26.950  12.499  45.232  1.00 88.66 LIG 0.12  C 
BRANCH 52 53
ATOM     53  CD  GLU D   4      28.195  12.056  44.484  1.00 99.07 LIG 0.17  C 
ATOM     54 OE1  GLU D   4      28.143  11.020  43.780  1.00 74.80 LIG-0.65  OA
ATOM     55 OE2  GLU D   4      29.207  12.791  44.546  1.00 93.08 LIG-0.65  OA
ENDBRANCH 52 53
ENDBRANCH 51 52
ENDBRANCH 49 51
ENDBRANCH 47 49
ENDBRANCH 44 45
BRANCH 44 56
ATOM     56  CB  PHE D   5      20.979  15.323  44.168  1.00 80.27 LIG 0.07  C 
BRANCH 56 57
ATOM     57  CG  PHE D   5      20.331  15.678  42.849  1.00 81.89 LIG-0.06  A 
ATOM     58  CD2 PHE D   5      21.105  15.966  41.726  1.00 84.17 LIG 0.01  A 
ATOM     59  CE2 PHE D   5      20.506  16.304  40.509  1.00 86.81 LIG 0.00  A 
ATOM     60  CZ  PHE D   5      19.133  16.342  40.404  1.00 84.76 LIG 0.00  A 
ATOM     61  CE1 PHE D   5      18.350  16.070  41.508  1.00 85.59 LIG 0.00  A 
ATOM     62  CD1 PHE D   5      18.949  15.744  42.730  1.00 84.61 LIG 0.01  A 
ENDBRANCH 56 57
ENDBRANCH 44 56
ENDBRANCH 41 44
ENDBRANCH 39 40
BRANCH 39 63
ATOM     63  CB  LEU D   6      17.960  10.758  44.768  1.00 70.57 LIG 0.04  C 
BRANCH 63 64
ATOM     64  CG  LEU D   6      17.418   9.479  44.166  1.00 75.48 LIG-0.02  C 
ATOM     65  CD2 LEU D   6      16.849   8.611  45.201  1.00 78.97 LIG 0.01  C 
ATOM     66  CD1 LEU D   6      18.468   8.765  43.420  1.00 75.94 LIG 0.01  C 
ENDBRANCH 63 64
ENDBRANCH 39 63
ENDBRANCH 1 39
TORSDOF 25
ENDMDL
MODEL 18
USER: ADFR SOLUTION from run 73
USER: SCORE 23.190439 LL:  -6.646 LR: -17.441 RR:   0.000 FEB:  -9.984
USER: RMSD 12.493561
USER: SEED 72
USER: STATUS no improvement in best in 10 clusters for 5 generations
USER: GENES 27
USER: genes 0 Translation |==|  0.50467 0.53896 0.47120
USER: genes 1 Rotation |==|  0.54014 0.79387 0.10562 0.58060
USER: genes 2 Torsion [N]-CA--C-[N] |==|  0.54686
USER: genes 3 Torsion [C]-N--CA-[C] |==|  0.71059
USER: genes 4 Torsion [N]-CA--CB-[CG] |==|  0.61146
USER: genes 5 Torsion [CA]-CB--CG-[CD1] |==|  0.77685
USER: genes 6 Torsion [N]-CA--C-[N] |==|  0.39313
USER: genes 7 Torsion [C]-N--CA-[CB] |==|  0.76490
USER: genes 8 Torsion [N]-CA--CB-[CG] |==|  0.74199
USER: genes 9 Torsion [CA]-CB--CG-[CD1] |==|  0.16154
USER: genes 10 Torsion [N]-CA--C-[N] |==|  0.15188
USER: genes 11 Torsion [C]-N--CA-[C] |==|  0.71993
USER: genes 12 Torsion [N]-CA--C-[O] |==|  0.89434
USER: genes 13 Torsion [N]-CA--CB-[OG] |==|  0.05642
USER: genes 14 Torsion [CA]-CB--OG-[HG] |==|  0.03540
USER: genes 15 Torsion [N]-C--CA-[N] |==|  0.37778
USER: genes 16 Torsion [C]-CA--N-[C] |==|  0.56867
USER: genes 17 Torsion [N]-C--CA-[N] |==|  0.90335
USER: genes 18 Torsion [C]-CA--N-[C] |==|  0.77840
USER: genes 19 Torsion [N]-C--CA-[N] |==|  0.47129
USER: genes 20 Torsion [C]-CA--CB-[CG] |==|  0.44592
USER: genes 21 Torsion [CA]-CB--CG-[CD] |==|  0.15080
USER: genes 22 Torsion [CB]-CG--CD-[OE1] |==|  0.10466
USER: genes 23 Torsion [C]-CA--CB-[CG] |==|  0.17946
USER: genes 24 Torsion [CA]-CB--CG-[CD2] |==|  0.61361
USER: genes 25 Torsion [C]-CA--CB-[CG] |==|  0.76195
USER: genes 26 Torsion [CA]-CB--CG-[CD2] |==|  0.73590
ROOT
ATOM      1  C   LEU D   6      18.099  12.620  42.109  1.00 70.97 LIG 0.24  C 
ATOM      2 O    LEU D   6      18.724  12.151  41.170  1.00 69.80 LIG-0.27  OA
ATOM      3  N   PRO D   7      16.957  12.066  42.550  1.00 67.36 LIG-0.34  N 
ATOM      4  CA  PRO D   7      16.442  10.868  41.892  1.00 66.95 LIG 0.18  C 
ATOM      5  CB  PRO D   7      15.775  10.097  43.042  1.00 69.23 LIG 0.04  C 
ATOM      6  CG  PRO D   7      15.513  11.137  44.138  1.00 73.99 LIG 0.02  C 
ATOM      7  CD  PRO D   7      16.092  12.453  43.684  1.00 69.55 LIG 0.13  C 
ENDROOT
BRANCH 4 8
ATOM      8  C   PRO D   7      15.453  11.203  40.779  1.00 67.39 LIG 0.24  C 
ATOM      9  N   LEU D   8      14.684  10.201  40.369  1.00 63.51 LIG-0.35  N 
ATOM     10 H    LEU D   8      14.755   9.396  40.663  1.00 63.51 LIG 0.16  HD
ATOM     11 O    PRO D   7      15.384  12.339  40.304  1.00 65.73 LIG-0.27  OA
BRANCH 9 12
ATOM     12  CA  LEU D   8      13.644  10.377  39.375  1.00 63.43 LIG 0.18  C 
BRANCH 12 13
ATOM     13  CB  LEU D   8      13.731   9.316  38.283  1.00 63.06 LIG 0.04  C 
BRANCH 13 14
ATOM     14  CG  LEU D   8      13.462   9.882  36.909  1.00 67.32 LIG-0.02  C 
ATOM     15  CD1 LEU D   8      12.002  10.026  36.671  1.00 66.57 LIG 0.01  C 
ATOM     16  CD2 LEU D   8      14.210  11.169  36.690  1.00 70.19 LIG 0.01  C 
ENDBRANCH 13 14
ENDBRANCH 12 13
BRANCH 12 17
ATOM     17  C   LEU D   8      12.286  10.388  40.041  1.00 69.22 LIG 0.24  C 
ATOM     18  N   PHE D   9      11.377  11.246  39.560  1.00 66.75 LIG-0.35  N 
ATOM     19 H    PHE D   9      11.532  11.781  38.905  1.00 66.75 LIG 0.16  HD
ATOM     20 O    LEU D   8      12.081   9.663  41.015  1.00 69.38 LIG-0.27  OA
BRANCH 18 21
ATOM     21  CA  PHE D   9      10.032  11.354  40.105  1.00 67.50 LIG 0.18  C 
BRANCH 21 22
ATOM     22  CB  PHE D   9       9.100  10.306  39.482  1.00 70.09 LIG 0.07  C 
BRANCH 22 23
ATOM     23  CG  PHE D   9       8.300  10.714  38.264  1.00 72.62 LIG-0.06  A 
ATOM     24  CD2 PHE D   9       6.911  10.735  38.303  1.00 75.26 LIG 0.01  A 
ATOM     25  CE2 PHE D   9       6.172  11.148  37.195  1.00 78.46 LIG 0.00  A 
ATOM     26  CZ  PHE D   9       6.817  11.546  36.042  1.00 76.95 LIG 0.00  A 
ATOM     27  CE1 PHE D   9       8.193  11.551  35.989  1.00 77.74 LIG 0.00  A 
ATOM     28  CD1 PHE D   9       8.933  11.169  37.109  1.00 76.53 LIG 0.01  A 
ENDBRANCH 22 23
ENDBRANCH 21 22
BRANCH 21 29
ATOM     29  C   PHE D   9      10.025  11.233  41.631  1.00 72.50 LIG 0.24  C 
ATOM     30 O    PHE D   9       9.323  10.381  42.181  1.00 71.57 LIG-0.27  OA
ATOM     31  N   SER D  10      10.820  12.075  42.317  1.00 70.70 LIG-0.34  N 
ATOM     32 H    SER D  10      11.329  12.658  41.943  1.00 70.70 LIG 0.16  HD
BRANCH 31 33
ATOM     33  CA  SER D  10      10.890  12.075  43.783  1.00110.54 LIG 0.19  C 
BRANCH 33 34
ATOM     34  C   SER D  10      10.058  13.213  44.378  1.00112.68 LIG 0.22  C 
ATOM     35 O    SER D  10      10.027  14.309  43.819  1.00 61.17 LIG-0.29  OA
ENDBRANCH 33 34
BRANCH 33 36
ATOM     36  CB  SER D  10      12.337  12.158  44.260  1.00114.99 LIG 0.20  C 
BRANCH 36 37
ATOM     37 OG   SER D  10      13.198  12.669  43.254  1.00125.63 LIG-0.40  OA
ATOM     38 HG   SER D  10      12.738  12.999  42.633  1.00125.63 LIG 0.21  HD
ENDBRANCH 36 37
ENDBRANCH 33 36
ENDBRANCH 31 33
ENDBRANCH 21 29
ENDBRANCH 18 21
ENDBRANCH 12 17
ENDBRANCH 9 12
ENDBRANCH 4 8
BRANCH 1 39
ATOM     39  CA  LEU D   6      18.581  13.879  42.775  1.00 70.47 LIG 0.18  C 
BRANCH 39 40
ATOM     40  N   LEU D   6      20.001  13.943  43.084  1.00 72.03 LIG-0.35  N 
ATOM     41  C   PHE D   5      20.449  14.728  44.062  1.00 78.51 LIG 0.24  C 
ATOM     42 O    PHE D   5      19.707  15.408  44.781  1.00 77.96 LIG-0.27  OA
ATOM     43 H    LEU D   6      20.500  13.445  42.592  1.00 72.03 LIG 0.16  HD
BRANCH 41 44
ATOM     44  CA  PHE D   5      21.952  14.847  44.184  1.00 78.26 LIG 0.18  C 
BRANCH 44 45
ATOM     45  N   PHE D   5      22.571  13.567  43.831  1.00 79.00 LIG-0.34  N 
ATOM     46 H    PHE D   5      22.891  13.533  43.033  1.00 79.00 LIG 0.16  HD
ATOM     47  C   GLU D   4      22.621  12.556  44.702  1.00 84.09 LIG 0.26  C 
ATOM     48 O    GLU D   4      22.242  12.656  45.868  1.00 84.89 LIG-0.27  OA
BRANCH 47 49
ATOM     49  CA  GLU D   4      23.182  11.233  44.213  1.00 80.59 LIG 0.40  C 
ATOM     50  N   GLU D   4      23.389  10.327  45.339  1.00 81.26 LIG 0.61  N 
BRANCH 49 51
ATOM     51  CB  GLU D   4      22.210  10.604  43.191  1.00 81.69 LIG 0.06  C 
BRANCH 51 52
ATOM     52  CG  GLU D   4      22.841   9.550  42.296  1.00 88.66 LIG 0.12  C 
BRANCH 52 53
ATOM     53  CD  GLU D   4      23.550   8.411  43.008  1.00 99.07 LIG 0.17  C 
ATOM     54 OE1  GLU D   4      23.057   7.958  44.068  1.00 74.80 LIG-0.65  OA
ATOM     55 OE2  GLU D   4      24.564   7.921  42.461  1.00 93.08 LIG-0.65  OA
ENDBRANCH 52 53
ENDBRANCH 51 52
ENDBRANCH 49 51
ENDBRANCH 47 49
ENDBRANCH 44 45
BRANCH 44 56
ATOM     56  CB  PHE D   5      22.551  16.043  43.440  1.00 80.27 LIG 0.07  C 
BRANCH 56 57
ATOM     57  CG  PHE D   5      22.090  17.367  44.005  1.00 81.89 LIG-0.06  A 
ATOM     58  CD2 PHE D   5      21.761  18.428  43.164  1.00 84.17 LIG 0.01  A 
ATOM     59  CE2 PHE D   5      21.344  19.656  43.687  1.00 86.81 LIG 0.00  A 
ATOM     60  CZ  PHE D   5      21.239  19.824  45.051  1.00 84.76 LIG 0.00  A 
ATOM     61  CE1 PHE D   5      21.572  18.788  45.899  1.00 85.59 LIG 0.00  A 
ATOM     62  CD1 PHE D   5      22.002  17.563  45.377  1.00 84.61 LIG 0.01  A 
ENDBRANCH 56 57
ENDBRANCH 44 56
ENDBRANCH 41 44
ENDBRANCH 39 40
BRANCH 39 63
ATOM     63  CB  LEU D   6      18.143  15.111  41.991  1.00 70.57 LIG 0.04  C 
BRANCH 63 64
ATOM     64  CG  LEU D   6      19.073  15.504  40.863  1.00 75.48 LIG-0.02  C 
ATOM     65  CD2 LEU D   6      20.026  16.528  41.301  1.00 78.97 LIG 0.01  C 
ATOM     66  CD1 LEU D   6      18.311  15.980  39.697  1.00 75.94 LIG 0.01  C 
ENDBRANCH 63 64
ENDBRANCH 39 63
ENDBRANCH 1 39
TORSDOF 25
ENDMDL
MODEL 19
USER: ADFR SOLUTION from run 40
USER: SCORE 22.212618 LL:  -6.003 LR: -17.405 RR:   0.000 FEB:  -9.947
USER: RMSD 12.328622
USER: SEED 39
USER: STATUS no improvement in best in 17 clusters for 5 generations
USER: GENES 27
USER: genes 0 Translation |==|  0.52607 0.59517 0.48545
USER: genes 1 Rotation |==|  0.59341 0.13885 0.83293 0.50073
USER: genes 2 Torsion [N]-CA--C-[N] |==|  0.45803
USER: genes 3 Torsion [C]-N--CA-[C] |==|  0.84635
USER: genes 4 Torsion [N]-CA--CB-[CG] |==|  0.77672
USER: genes 5 Torsion [CA]-CB--CG-[CD1] |==|  0.92031
USER: genes 6 Torsion [N]-CA--C-[N] |==|  0.37642
USER: genes 7 Torsion [C]-N--CA-[CB] |==|  0.52778
USER: genes 8 Torsion [N]-CA--CB-[CG] |==|  0.70333
USER: genes 9 Torsion [CA]-CB--CG-[CD1] |==|  0.88980
USER: genes 10 Torsion [N]-CA--C-[N] |==|  0.37922
USER: genes 11 Torsion [C]-N--CA-[C] |==|  0.79496
USER: genes 12 Torsion [N]-CA--C-[O] |==|  0.97599
USER: genes 13 Torsion [N]-CA--CB-[OG] |==|  0.14430
USER: genes 14 Torsion [CA]-CB--OG-[HG] |==|  0.76838
USER: genes 15 Torsion [N]-C--CA-[N] |==|  0.26132
USER: genes 16 Torsion [C]-CA--N-[C] |==|  0.61812
USER: genes 17 Torsion [N]-C--CA-[N] |==|  0.88232
USER: genes 18 Torsion [C]-CA--N-[C] |==|  0.73492
USER: genes 19 Torsion [N]-C--CA-[N] |==|  0.45245
USER: genes 20 Torsion [C]-CA--CB-[CG] |==|  0.66837
USER: genes 21 Torsion [CA]-CB--CG-[CD] |==|  0.81800
USER: genes 22 Torsion [CB]-CG--CD-[OE1] |==|  0.50132
USER: genes 23 Torsion [C]-CA--CB-[CG] |==|  0.10626
USER: genes 24 Torsion [CA]-CB--CG-[CD2] |==|  0.75872
USER: genes 25 Torsion [C]-CA--CB-[CG] |==|  0.82859
USER: genes 26 Torsion [CA]-CB--CG-[CD2] |==|  0.70905
ROOT
ATOM      1  C   LEU D   6      18.725  13.632  42.387  1.00 70.97 LIG 0.24  C 
ATOM      2 O    LEU D   6      18.652  13.540  41.171  1.00 69.80 LIG-0.27  OA
ATOM      3  N   PRO D   7      18.101  12.766  43.204  1.00 67.36 LIG-0.34  N 
ATOM      4  CA  PRO D   7      17.311  11.682  42.627  1.00 66.95 LIG 0.18  C 
ATOM      5  CB  PRO D   7      17.501  10.538  43.636  1.00 69.23 LIG 0.04  C 
ATOM      6  CG  PRO D   7      17.946  11.208  44.940  1.00 73.99 LIG 0.02  C 
ATOM      7  CD  PRO D   7      18.105  12.684  44.679  1.00 69.55 LIG 0.13  C 
ENDROOT
BRANCH 4 8
ATOM      8  C   PRO D   7      15.842  12.063  42.465  1.00 67.39 LIG 0.24  C 
ATOM      9  N   LEU D   8      15.124  11.273  41.675  1.00 63.51 LIG-0.35  N 
ATOM     10 H    LEU D   8      15.455  10.611  41.236  1.00 63.51 LIG 0.16  HD
ATOM     11 O    PRO D   7      15.368  13.045  43.040  1.00 65.73 LIG-0.27  OA
BRANCH 9 12
ATOM     12  CA  LEU D   8      13.700  11.457  41.480  1.00 63.43 LIG 0.18  C 
BRANCH 12 13
ATOM     13  CB  LEU D   8      13.128  10.412  40.527  1.00 63.06 LIG 0.04  C 
BRANCH 13 14
ATOM     14  CG  LEU D   8      13.378  10.759  39.078  1.00 67.32 LIG-0.02  C 
ATOM     15  CD1 LEU D   8      13.466  12.231  38.892  1.00 66.57 LIG 0.01  C 
ATOM     16  CD2 LEU D   8      14.586  10.039  38.543  1.00 70.19 LIG 0.01  C 
ENDBRANCH 13 14
ENDBRANCH 12 13
BRANCH 12 17
ATOM     17  C   LEU D   8      12.988  11.450  42.815  1.00 69.22 LIG 0.24  C 
ATOM     18  N   PHE D   9      12.056  12.390  43.015  1.00 66.75 LIG-0.35  N 
ATOM     19 H    PHE D   9      11.853  12.987  42.429  1.00 66.75 LIG 0.16  HD
ATOM     20 O    LEU D   8      13.317  10.632  43.675  1.00 69.38 LIG-0.27  OA
BRANCH 18 21
ATOM     21  CA  PHE D   9      11.294  12.493  44.251  1.00 67.50 LIG 0.18  C 
BRANCH 21 22
ATOM     22  CB  PHE D   9      10.140  13.495  44.104  1.00 70.09 LIG 0.07  C 
BRANCH 22 23
ATOM     23  CG  PHE D   9      10.279  14.831  44.801  1.00 72.62 LIG-0.06  A 
ATOM     24  CD2 PHE D   9       9.765  15.987  44.225  1.00 75.26 LIG 0.01  A 
ATOM     25  CE2 PHE D   9       9.857  17.213  44.883  1.00 78.46 LIG 0.00  A 
ATOM     26  CZ  PHE D   9      10.459  17.290  46.121  1.00 76.95 LIG 0.00  A 
ATOM     27  CE1 PHE D   9      10.958  16.153  46.718  1.00 77.74 LIG 0.00  A 
ATOM     28  CD1 PHE D   9      10.836  14.921  46.074  1.00 76.53 LIG 0.01  A 
ENDBRANCH 22 23
ENDBRANCH 21 22
BRANCH 21 29
ATOM     29  C   PHE D   9      10.763  11.131  44.705  1.00 72.50 LIG 0.24  C 
ATOM     30 O    PHE D   9      10.277  10.351  43.883  1.00 71.57 LIG-0.27  OA
ATOM     31  N   SER D  10      10.869  10.836  46.014  1.00 70.70 LIG-0.34  N 
ATOM     32 H    SER D  10      11.225  11.363  46.593  1.00 70.70 LIG 0.16  HD
BRANCH 31 33
ATOM     33  CA  SER D  10      10.380   9.574  46.580  1.00110.54 LIG 0.19  C 
BRANCH 33 34
ATOM     34  C   SER D  10       8.852   9.557  46.662  1.00112.68 LIG 0.22  C 
ATOM     35 O    SER D  10       8.213  10.583  46.428  1.00 61.17 LIG-0.29  OA
ENDBRANCH 33 34
BRANCH 33 36
ATOM     36  CB  SER D  10      10.997   9.316  47.952  1.00114.99 LIG 0.20  C 
BRANCH 36 37
ATOM     37 OG   SER D  10      10.840  10.427  48.821  1.00125.63 LIG-0.40  OA
ATOM     38 HG   SER D  10      11.449  10.986  48.674  1.00125.63 LIG 0.21  HD
ENDBRANCH 36 37
ENDBRANCH 33 36
ENDBRANCH 31 33
ENDBRANCH 21 29
ENDBRANCH 18 21
ENDBRANCH 12 17
ENDBRANCH 9 12
ENDBRANCH 4 8
BRANCH 1 39
ATOM     39  CA  LEU D   6      19.493  14.766  43.007  1.00 70.47 LIG 0.18  C 
BRANCH 39 40
ATOM     40  N   LEU D   6      20.914  14.544  43.219  1.00 72.03 LIG-0.35  N 
ATOM     41  C   PHE D   5      21.502  14.931  44.350  1.00 78.51 LIG 0.24  C 
ATOM     42 O    PHE D   5      20.889  15.456  45.288  1.00 77.96 LIG-0.27  OA
ATOM     43 H    LEU D   6      21.320  14.154  42.569  1.00 72.03 LIG 0.16  HD
BRANCH 41 44
ATOM     44  CA  PHE D   5      23.008  14.806  44.395  1.00 78.26 LIG 0.18  C 
BRANCH 44 45
ATOM     45  N   PHE D   5      23.408  13.530  43.797  1.00 79.00 LIG-0.34  N 
ATOM     46 H    PHE D   5      23.484  13.545  42.940  1.00 79.00 LIG 0.16  HD
ATOM     47  C   GLU D   4      23.629  12.449  44.550  1.00 84.09 LIG 0.26  C 
ATOM     48 O    GLU D   4      23.605  12.472  45.779  1.00 84.89 LIG-0.27  OA
BRANCH 47 49
ATOM     49  CA  GLU D   4      23.932  11.144  43.837  1.00 80.59 LIG 0.40  C 
ATOM     50  N   GLU D   4      24.534  10.191  44.763  1.00 81.26 LIG 0.61  N 
BRANCH 49 51
ATOM     51  CB  GLU D   4      22.628  10.564  43.243  1.00 81.69 LIG 0.06  C 
BRANCH 51 52
ATOM     52  CG  GLU D   4      22.253   9.193  43.784  1.00 88.66 LIG 0.12  C 
BRANCH 52 53
ATOM     53  CD  GLU D   4      23.202   8.060  43.439  1.00 99.07 LIG 0.17  C 
ATOM     54 OE1  GLU D   4      22.941   6.904  43.849  1.00 74.80 LIG-0.65  OA
ATOM     55 OE2  GLU D   4      24.174   8.317  42.693  1.00 93.08 LIG-0.65  OA
ENDBRANCH 52 53
ENDBRANCH 51 52
ENDBRANCH 49 51
ENDBRANCH 47 49
ENDBRANCH 44 45
BRANCH 44 56
ATOM     56  CB  PHE D   5      23.757  16.012  43.822  1.00 80.27 LIG 0.07  C 
BRANCH 56 57
ATOM     57  CG  PHE D   5      23.091  17.324  44.167  1.00 81.89 LIG-0.06  A 
ATOM     58  CD2 PHE D   5      22.077  17.844  43.364  1.00 84.17 LIG 0.01  A 
ATOM     59  CE2 PHE D   5      21.468  19.063  43.677  1.00 86.81 LIG 0.00  A 
ATOM     60  CZ  PHE D   5      21.858  19.760  44.800  1.00 84.76 LIG 0.00  A 
ATOM     61  CE1 PHE D   5      22.868  19.266  45.600  1.00 85.59 LIG 0.00  A 
ATOM     62  CD1 PHE D   5      23.488  18.052  45.281  1.00 84.61 LIG 0.01  A 
ENDBRANCH 56 57
ENDBRANCH 44 56
ENDBRANCH 41 44
ENDBRANCH 39 40
BRANCH 39 63
ATOM     63  CB  LEU D   6      19.258  16.064  42.242  1.00 70.57 LIG 0.04  C 
BRANCH 63 64
ATOM     64  CG  LEU D   6      19.711  16.036  40.798  1.00 75.48 LIG-0.02  C 
ATOM     65  CD2 LEU D   6      20.958  16.788  40.624  1.00 78.97 LIG 0.01  C 
ATOM     66  CD1 LEU D   6      18.664  16.568  39.910  1.00 75.94 LIG 0.01  C 
ENDBRANCH 63 64
ENDBRANCH 39 63
ENDBRANCH 1 39
TORSDOF 25
ENDMDL
MODEL 20
USER: ADFR SOLUTION from run 99
USER: SCORE 22.704342 LL:  -6.701 LR: -17.225 RR:   0.000 FEB:  -9.767
USER: RMSD 12.271794
USER: SEED 98
USER: STATUS searching
USER: GENES 27
USER: genes 0 Translation |==|  0.51248 0.54322 0.47607
USER: genes 1 Rotation |==|  0.56893 0.19376 0.88916 0.50498
USER: genes 2 Torsion [N]-CA--C-[N] |==|  0.38254
USER: genes 3 Torsion [C]-N--CA-[C] |==|  0.59581
USER: genes 4 Torsion [N]-CA--CB-[CG] |==|  0.21971
USER: genes 5 Torsion [CA]-CB--CG-[CD1] |==|  0.89759
USER: genes 6 Torsion [N]-CA--C-[N] |==|  0.96077
USER: genes 7 Torsion [C]-N--CA-[CB] |==|  0.84495
USER: genes 8 Torsion [N]-CA--CB-[CG] |==|  0.35788
USER: genes 9 Torsion [CA]-CB--CG-[CD1] |==|  0.72243
USER: genes 10 Torsion [N]-CA--C-[N] |==|  0.36573
USER: genes 11 Torsion [C]-N--CA-[C] |==|  0.82334
USER: genes 12 Torsion [N]-CA--C-[O] |==|  0.39547
USER: genes 13 Torsion [N]-CA--CB-[OG] |==|  0.85816
USER: genes 14 Torsion [CA]-CB--OG-[HG] |==|  0.58609
USER: genes 15 Torsion [N]-C--CA-[N] |==|  0.24372
USER: genes 16 Torsion [C]-CA--N-[C] |==|  0.61959
USER: genes 17 Torsion [N]-C--CA-[N] |==|  0.91255
USER: genes 18 Torsion [C]-CA--N-[C] |==|  0.78480
USER: genes 19 Torsion [N]-C--CA-[N] |==|  0.48637
USER: genes 20 Torsion [C]-CA--CB-[CG] |==|  0.39916
USER: genes 21 Torsion [CA]-CB--CG-[CD] |==|  0.12093
USER: genes 22 Torsion [CB]-CG--CD-[OE1] |==|  0.07669
USER: genes 23 Torsion [C]-CA--CB-[CG] |==|  0.02403
USER: genes 24 Torsion [CA]-CB--CG-[CD2] |==|  0.26041
USER: genes 25 Torsion [C]-CA--CB-[CG] |==|  0.26339
USER: genes 26 Torsion [CA]-CB--CG-[CD2] |==|  0.50225
ROOT
ATOM      1  C   LEU D   6      18.327  12.697  42.204  1.00 70.97 LIG 0.24  C 
ATOM      2 O    LEU D   6      18.355  12.235  41.074  1.00 69.80 LIG-0.27  OA
ATOM      3  N   PRO D   7      17.588  12.143  43.180  1.00 67.36 LIG-0.34  N 
ATOM      4  CA  PRO D   7      16.793  10.953  42.887  1.00 66.95 LIG 0.18  C 
ATOM      5  CB  PRO D   7      16.831  10.173  44.211  1.00 69.23 LIG 0.04  C 
ATOM      6  CG  PRO D   7      17.198  11.203  45.285  1.00 73.99 LIG 0.02  C 
ATOM      7  CD  PRO D   7      17.460  12.521  44.603  1.00 69.55 LIG 0.13  C 
ENDROOT
BRANCH 4 8
ATOM      8  C   PRO D   7      15.367  11.303  42.470  1.00 67.39 LIG 0.24  C 
ATOM      9  N   LEU D   8      14.877  10.608  41.449  1.00 63.51 LIG-0.35  N 
ATOM     10 H    LEU D   8      15.332  10.028  41.007  1.00 63.51 LIG 0.16  HD
ATOM     11 O    PRO D   7      14.724  12.176  43.057  1.00 65.73 LIG-0.27  OA
BRANCH 9 12
ATOM     12  CA  LEU D   8      13.513  10.768  40.984  1.00 63.43 LIG 0.18  C 
BRANCH 12 13
ATOM     13  CB  LEU D   8      13.413  11.849  39.913  1.00 63.06 LIG 0.04  C 
BRANCH 13 14
ATOM     14  CG  LEU D   8      13.856  11.355  38.556  1.00 67.32 LIG-0.02  C 
ATOM     15  CD1 LEU D   8      15.005  10.421  38.681  1.00 66.57 LIG 0.01  C 
ATOM     16  CD2 LEU D   8      12.709  10.757  37.789  1.00 70.19 LIG 0.01  C 
ENDBRANCH 13 14
ENDBRANCH 12 13
BRANCH 12 17
ATOM     17  C   LEU D   8      12.972   9.442  40.498  1.00 69.22 LIG 0.24  C 
ATOM     18  N   PHE D   9      13.858   8.459  40.294  1.00 66.75 LIG-0.35  N 
ATOM     19 H    PHE D   9      14.704   8.550  40.422  1.00 66.75 LIG 0.16  HD
ATOM     20 O    LEU D   8      11.770   9.327  40.260  1.00 69.38 LIG-0.27  OA
BRANCH 18 21
ATOM     21  CA  PHE D   9      13.471   7.133  39.833  1.00 67.50 LIG 0.18  C 
BRANCH 21 22
ATOM     22  CB  PHE D   9      12.422   6.512  40.766  1.00 70.09 LIG 0.07  C 
BRANCH 22 23
ATOM     23  CG  PHE D   9      11.161   5.961  40.135  1.00 72.62 LIG-0.06  A 
ATOM     24  CD2 PHE D   9      11.132   4.670  39.621  1.00 75.26 LIG 0.01  A 
ATOM     25  CE2 PHE D   9       9.961   4.147  39.074  1.00 78.46 LIG 0.00  A 
ATOM     26  CZ  PHE D   9       8.811   4.909  39.042  1.00 76.95 LIG 0.00  A 
ATOM     27  CE1 PHE D   9       8.814   6.184  39.563  1.00 77.74 LIG 0.00  A 
ATOM     28  CD1 PHE D   9       9.977   6.695  40.140  1.00 76.53 LIG 0.01  A 
ENDBRANCH 22 23
ENDBRANCH 21 22
BRANCH 21 29
ATOM     29  C   PHE D   9      12.954   7.161  38.393  1.00 72.50 LIG 0.24  C 
ATOM     30 O    PHE D   9      12.124   8.005  38.050  1.00 71.57 LIG-0.27  OA
ATOM     31  N   SER D  10      13.458   6.247  37.542  1.00 70.70 LIG-0.34  N 
ATOM     32 H    SER D  10      14.053   5.668  37.765  1.00 70.70 LIG 0.16  HD
BRANCH 31 33
ATOM     33  CA  SER D  10      13.031   6.155  36.141  1.00110.54 LIG 0.19  C 
BRANCH 33 34
ATOM     34  C   SER D  10      11.550   5.786  36.036  1.00112.68 LIG 0.22  C 
ATOM     35 O    SER D  10      10.851   6.292  35.158  1.00 61.17 LIG-0.29  OA
ENDBRANCH 33 34
BRANCH 33 36
ATOM     36  CB  SER D  10      13.892   5.156  35.373  1.00114.99 LIG 0.20  C 
BRANCH 36 37
ATOM     37 OG   SER D  10      15.278   5.409  35.546  1.00125.63 LIG-0.40  OA
ATOM     38 HG   SER D  10      15.694   5.177  34.854  1.00125.63 LIG 0.21  HD
ENDBRANCH 36 37
ENDBRANCH 33 36
ENDBRANCH 31 33
ENDBRANCH 21 29
ENDBRANCH 18 21
ENDBRANCH 12 17
ENDBRANCH 9 12
ENDBRANCH 4 8
BRANCH 1 39
ATOM     39  CA  LEU D   6      19.099  13.947  42.521  1.00 70.47 LIG 0.18  C 
BRANCH 39 40
ATOM     40  N   LEU D   6      20.434  13.761  43.067  1.00 72.03 LIG-0.35  N 
ATOM     41  C   PHE D   5      20.861  14.504  44.087  1.00 78.51 LIG 0.24  C 
ATOM     42 O    PHE D   5      20.158  15.353  44.649  1.00 77.96 LIG-0.27  OA
ATOM     43 H    LEU D   6      20.900  13.150  42.682  1.00 72.03 LIG 0.16  HD
BRANCH 41 44
ATOM     44  CA  PHE D   5      22.317  14.346  44.462  1.00 78.26 LIG 0.18  C 
BRANCH 44 45
ATOM     45  N   PHE D   5      22.745  12.974  44.181  1.00 79.00 LIG-0.34  N 
ATOM     46 H    PHE D   5      23.211  12.884  43.462  1.00 79.00 LIG 0.16  HD
ATOM     47  C   GLU D   4      22.423  11.965  44.994  1.00 84.09 LIG 0.26  C 
ATOM     48 O    GLU D   4      21.837  12.126  46.063  1.00 84.89 LIG-0.27  OA
BRANCH 47 49
ATOM     49  CA  GLU D   4      22.815  10.562  44.566  1.00 80.59 LIG 0.40  C 
ATOM     50  N   GLU D   4      22.492   9.604  45.619  1.00 81.26 LIG 0.61  N 
BRANCH 49 51
ATOM     51  CB  GLU D   4      22.076  10.193  43.261  1.00 81.69 LIG 0.06  C 
BRANCH 51 52
ATOM     52  CG  GLU D   4      22.895   9.351  42.296  1.00 88.66 LIG 0.12  C 
BRANCH 52 53
ATOM     53  CD  GLU D   4      23.687   8.213  42.913  1.00 99.07 LIG 0.17  C 
ATOM     54 OE1  GLU D   4      23.271   7.690  43.974  1.00 74.80 LIG-0.65  OA
ATOM     55 OE2  GLU D   4      24.690   7.794  42.292  1.00 93.08 LIG-0.65  OA
ENDBRANCH 52 53
ENDBRANCH 51 52
ENDBRANCH 49 51
ENDBRANCH 47 49
ENDBRANCH 44 45
BRANCH 44 56
ATOM     56  CB  PHE D   5      23.241  15.410  43.864  1.00 80.27 LIG 0.07  C 
BRANCH 56 57
ATOM     57  CG  PHE D   5      22.477  16.525  43.187  1.00 81.89 LIG-0.06  A 
ATOM     58  CD2 PHE D   5      22.154  17.692  43.877  1.00 84.17 LIG 0.01  A 
ATOM     59  CE2 PHE D   5      21.438  18.719  43.254  1.00 86.81 LIG 0.00  A 
ATOM     60  CZ  PHE D   5      21.057  18.591  41.936  1.00 84.76 LIG 0.00  A 
ATOM     61  CE1 PHE D   5      21.359  17.439  41.240  1.00 85.59 LIG 0.00  A 
ATOM     62  CD1 PHE D   5      22.064  16.404  41.866  1.00 84.61 LIG 0.01  A 
ENDBRANCH 56 57
ENDBRANCH 44 56
ENDBRANCH 41 44
ENDBRANCH 39 40
BRANCH 39 63
ATOM     63  CB  LEU D   6      19.134  14.884  41.318  1.00 70.57 LIG 0.04  C 
BRANCH 63 64
ATOM     64  CG  LEU D   6      18.058  15.949  41.319  1.00 75.48 LIG-0.02  C 
ATOM     65  CD2 LEU D   6      18.151  16.792  40.123  1.00 78.97 LIG 0.01  C 
ATOM     66  CD1 LEU D   6      18.140  16.776  42.535  1.00 75.94 LIG 0.01  C 
ENDBRANCH 63 64
ENDBRANCH 39 63
ENDBRANCH 1 39
TORSDOF 25
ENDMDL
MODEL 21
USER: ADFR SOLUTION from run 103
USER: SCORE 23.253531 LL:  -6.677 LR: -17.182 RR:   0.000 FEB:  -9.724
USER: RMSD 3.188734
USER: SEED 102
USER: STATUS no improvement in best in 15 clusters for 5 generations
USER: GENES 27
USER: genes 0 Translation |==|  0.43011 0.51321 0.50786
USER: genes 1 Rotation |==|  0.57228 0.57056 0.51897 0.98932
USER: genes 2 Torsion [N]-CA--C-[N] |==|  0.23918
USER: genes 3 Torsion [C]-N--CA-[C] |==|  0.73966
USER: genes 4 Torsion [N]-CA--CB-[CG] |==|  0.56908
USER: genes 5 Torsion [CA]-CB--CG-[CD1] |==|  0.97913
USER: genes 6 Torsion [N]-CA--C-[N] |==|  0.24710
USER: genes 7 Torsion [C]-N--CA-[CB] |==|  0.17673
USER: genes 8 Torsion [N]-CA--CB-[CG] |==|  0.12041
USER: genes 9 Torsion [CA]-CB--CG-[CD1] |==|  0.63143
USER: genes 10 Torsion [N]-CA--C-[N] |==|  0.06111
USER: genes 11 Torsion [C]-N--CA-[C] |==|  0.20238
USER: genes 12 Torsion [N]-CA--C-[O] |==|  0.53819
USER: genes 13 Torsion [N]-CA--CB-[OG] |==|  0.73124
USER: genes 14 Torsion [CA]-CB--OG-[HG] |==|  0.36975
USER: genes 15 Torsion [N]-C--CA-[N] |==|  0.45466
USER: genes 16 Torsion [C]-CA--N-[C] |==|  0.81652
USER: genes 17 Torsion [N]-C--CA-[N] |==|  0.12765
USER: genes 18 Torsion [C]-CA--N-[C] |==|  0.16939
USER: genes 19 Torsion [N]-C--CA-[N] |==|  0.81610
USER: genes 20 Torsion [C]-CA--CB-[CG] |==|  0.65622
USER: genes 21 Torsion [CA]-CB--CG-[CD] |==|  0.79544
USER: genes 22 Torsion [CB]-CG--CD-[OE1] |==|  0.60689
USER: genes 23 Torsion [C]-CA--CB-[CG] |==|  0.27707
USER: genes 24 Torsion [CA]-CB--CG-[CD2] |==|  0.52443
USER: genes 25 Torsion [C]-CA--CB-[CG] |==|  0.53376
USER: genes 26 Torsion [CA]-CB--CG-[CD2] |==|  0.65020
ROOT
ATOM      1  C   LEU D   6      15.918  12.157  42.824  1.00 70.97 LIG 0.24  C 
ATOM      2 O    LEU D   6      15.734  13.208  43.420  1.00 69.80 LIG-0.27  OA
ATOM      3  N   PRO D   7      17.082  11.490  42.902  1.00 67.36 LIG-0.34  N 
ATOM      4  CA  PRO D   7      18.164  12.032  43.720  1.00 66.95 LIG 0.18  C 
ATOM      5  CB  PRO D   7      18.863  10.772  44.253  1.00 69.23 LIG 0.04  C 
ATOM      6  CG  PRO D   7      18.456   9.641  43.301  1.00 73.99 LIG 0.02  C 
ATOM      7  CD  PRO D   7      17.476  10.199  42.301  1.00 69.55 LIG 0.13  C 
ENDROOT
BRANCH 4 8
ATOM      8  C   PRO D   7      19.111  12.913  42.910  1.00 67.39 LIG 0.24  C 
ATOM      9  N   LEU D   8      18.755  14.187  42.791  1.00 63.51 LIG-0.35  N 
ATOM     10 H    LEU D   8      18.019  14.507  43.101  1.00 63.51 LIG 0.16  HD
ATOM     11 O    PRO D   7      20.139  12.455  42.408  1.00 65.73 LIG-0.27  OA
BRANCH 9 12
ATOM     12  CA  LEU D   8      19.586  15.166  42.119  1.00 63.43 LIG 0.18  C 
BRANCH 12 13
ATOM     13  CB  LEU D   8      18.747  16.146  41.306  1.00 63.06 LIG 0.04  C 
BRANCH 13 14
ATOM     14  CG  LEU D   8      19.524  16.761  40.167  1.00 67.32 LIG-0.02  C 
ATOM     15  CD1 LEU D   8      20.961  16.387  40.242  1.00 66.57 LIG 0.01  C 
ATOM     16  CD2 LEU D   8      18.910  16.420  38.837  1.00 70.19 LIG 0.01  C 
ENDBRANCH 13 14
ENDBRANCH 12 13
BRANCH 12 17
ATOM     17  C   LEU D   8      20.466  15.877  43.123  1.00 69.22 LIG 0.24  C 
ATOM     18  N   PHE D   9      21.657  15.327  43.388  1.00 66.75 LIG-0.35  N 
ATOM     19 H    PHE D   9      21.935  14.600  43.021  1.00 66.75 LIG 0.16  HD
ATOM     20 O    LEU D   8      20.047  16.886  43.692  1.00 69.38 LIG-0.27  OA
BRANCH 18 21
ATOM     21  CA  PHE D   9      22.602  15.911  44.329  1.00 67.50 LIG 0.18  C 
BRANCH 21 22
ATOM     22  CB  PHE D   9      22.024  15.924  45.751  1.00 70.09 LIG 0.07  C 
BRANCH 22 23
ATOM     23  CG  PHE D   9      21.303  14.682  46.227  1.00 72.62 LIG-0.06  A 
ATOM     24  CD2 PHE D   9      21.905  13.433  46.133  1.00 75.26 LIG 0.01  A 
ATOM     25  CE2 PHE D   9      21.258  12.292  46.606  1.00 78.46 LIG 0.00  A 
ATOM     26  CZ  PHE D   9      20.007  12.393  47.179  1.00 76.95 LIG 0.00  A 
ATOM     27  CE1 PHE D   9      19.401  13.624  47.298  1.00 77.74 LIG 0.00  A 
ATOM     28  CD1 PHE D   9      20.062  14.770  46.855  1.00 76.53 LIG 0.01  A 
ENDBRANCH 22 23
ENDBRANCH 21 22
BRANCH 21 29
ATOM     29  C   PHE D   9      23.948  15.184  44.308  1.00 72.50 LIG 0.24  C 
ATOM     30 O    PHE D   9      24.700  15.244  45.284  1.00 71.57 LIG-0.27  OA
ATOM     31  N   SER D  10      24.249  14.480  43.200  1.00 70.70 LIG-0.34  N 
ATOM     32 H    SER D  10      23.723  14.413  42.523  1.00 70.70 LIG 0.16  HD
BRANCH 31 33
ATOM     33  CA  SER D  10      25.515  13.755  43.046  1.00110.54 LIG 0.19  C 
BRANCH 33 34
ATOM     34  C   SER D  10      25.546  12.500  43.920  1.00112.68 LIG 0.22  C 
ATOM     35 O    SER D  10      26.609  11.912  44.115  1.00 61.17 LIG-0.29  OA
ENDBRANCH 33 34
BRANCH 33 36
ATOM     36  CB  SER D  10      26.703  14.661  43.360  1.00114.99 LIG 0.20  C 
BRANCH 36 37
ATOM     37 OG   SER D  10      27.267  15.221  42.184  1.00125.63 LIG-0.40  OA
ATOM     38 HG   SER D  10      27.390  16.044  42.296  1.00125.63 LIG 0.21  HD
ENDBRANCH 36 37
ENDBRANCH 33 36
ENDBRANCH 31 33
ENDBRANCH 21 29
ENDBRANCH 18 21
ENDBRANCH 12 17
ENDBRANCH 9 12
ENDBRANCH 4 8
BRANCH 1 39
ATOM     39  CA  LEU D   6      14.838  11.601  41.939  1.00 70.47 LIG 0.18  C 
BRANCH 39 40
ATOM     40  N   LEU D   6      13.496  12.119  42.153  1.00 72.03 LIG-0.35  N 
ATOM     41  C   PHE D   5      12.846  11.877  43.290  1.00 78.51 LIG 0.24  C 
ATOM     42 O    PHE D   5      13.341  11.246  44.232  1.00 77.96 LIG-0.27  OA
ATOM     43 H    LEU D   6      13.177  12.577  41.499  1.00 72.03 LIG 0.16  HD
BRANCH 41 44
ATOM     44  CA  PHE D   5      11.400  12.316  43.338  1.00 78.26 LIG 0.18  C 
BRANCH 44 45
ATOM     45  N   PHE D   5      10.726  11.902  42.105  1.00 79.00 LIG-0.34  N 
ATOM     46 H    PHE D   5      10.409  12.550  41.636  1.00 79.00 LIG 0.16  HD
ATOM     47  C   GLU D   4      10.628  10.614  41.766  1.00 84.09 LIG 0.26  C 
ATOM     48 O    GLU D   4      11.168   9.711  42.402  1.00 84.89 LIG-0.27  OA
BRANCH 47 49
ATOM     49  CA  GLU D   4       9.818  10.271  40.529  1.00 80.59 LIG 0.40  C 
ATOM     50  N   GLU D   4       8.409  10.585  40.746  1.00 81.26 LIG 0.61  N 
BRANCH 49 51
ATOM     51  CB  GLU D   4      10.362  11.060  39.318  1.00 81.69 LIG 0.06  C 
BRANCH 51 52
ATOM     52  CG  GLU D   4       9.323  11.917  38.614  1.00 88.66 LIG 0.12  C 
BRANCH 52 53
ATOM     53  CD  GLU D   4       8.306  11.171  37.769  1.00 99.07 LIG 0.17  C 
ATOM     54 OE1  GLU D   4       7.939  11.670  36.680  1.00 74.80 LIG-0.65  OA
ATOM     55 OE2  GLU D   4       7.931  10.044  38.166  1.00 93.08 LIG-0.65  OA
ENDBRANCH 52 53
ENDBRANCH 51 52
ENDBRANCH 49 51
ENDBRANCH 47 49
ENDBRANCH 44 45
BRANCH 44 56
ATOM     56  CB  PHE D   5      10.658  11.901  44.610  1.00 80.27 LIG 0.07  C 
BRANCH 56 57
ATOM     57  CG  PHE D   5      10.558  13.027  45.615  1.00 81.89 LIG-0.06  A 
ATOM     58  CD2 PHE D   5      10.081  12.795  46.904  1.00 84.17 LIG 0.01  A 
ATOM     59  CE2 PHE D   5       9.979  13.837  47.830  1.00 86.81 LIG 0.00  A 
ATOM     60  CZ  PHE D   5      10.368  15.112  47.478  1.00 84.76 LIG 0.00  A 
ATOM     61  CE1 PHE D   5      10.833  15.362  46.203  1.00 85.59 LIG 0.00  A 
ATOM     62  CD1 PHE D   5      10.923  14.322  45.271  1.00 84.61 LIG 0.01  A 
ENDBRANCH 56 57
ENDBRANCH 44 56
ENDBRANCH 41 44
ENDBRANCH 39 40
BRANCH 39 63
ATOM     63  CB  LEU D   6      15.230  11.708  40.469  1.00 70.57 LIG 0.04  C 
BRANCH 63 64
ATOM     64  CG  LEU D   6      14.101  11.445  39.495  1.00 75.48 LIG-0.02  C 
ATOM     65  CD2 LEU D   6      14.469  10.402  38.533  1.00 78.97 LIG 0.01  C 
ATOM     66  CD1 LEU D   6      13.720  12.680  38.790  1.00 75.94 LIG 0.01  C 
ENDBRANCH 63 64
ENDBRANCH 39 63
ENDBRANCH 1 39
TORSDOF 25
ENDMDL
MODEL 22
USER: ADFR SOLUTION from run 27
USER: SCORE 21.875423 LL:  -6.901 LR: -17.161 RR:   0.000 FEB:  -9.703
USER: RMSD 13.296706
USER: SEED 26
USER: STATUS searching
USER: GENES 27
USER: genes 0 Translation |==|  0.53973 0.55717 0.49871
USER: genes 1 Rotation |==|  0.53519 0.20479 0.90200 0.50188
USER: genes 2 Torsion [N]-CA--C-[N] |==|  0.37578
USER: genes 3 Torsion [C]-N--CA-[C] |==|  0.82086
USER: genes 4 Torsion [N]-CA--CB-[CG] |==|  0.59058
USER: genes 5 Torsion [CA]-CB--CG-[CD1] |==|  0.08828
USER: genes 6 Torsion [N]-CA--C-[N] |==|  0.32292
USER: genes 7 Torsion [C]-N--CA-[CB] |==|  0.41520
USER: genes 8 Torsion [N]-CA--CB-[CG] |==|  0.41336
USER: genes 9 Torsion [CA]-CB--CG-[CD1] |==|  0.19075
USER: genes 10 Torsion [N]-CA--C-[N] |==|  0.90940
USER: genes 11 Torsion [C]-N--CA-[C] |==|  0.58203
USER: genes 12 Torsion [N]-CA--C-[O] |==|  0.32913
USER: genes 13 Torsion [N]-CA--CB-[OG] |==|  0.77216
USER: genes 14 Torsion [CA]-CB--OG-[HG] |==|  0.08265
USER: genes 15 Torsion [N]-C--CA-[N] |==|  0.28210
USER: genes 16 Torsion [C]-CA--N-[C] |==|  0.52778
USER: genes 17 Torsion [N]-C--CA-[N] |==|  0.99499
USER: genes 18 Torsion [C]-CA--N-[C] |==|  0.70106
USER: genes 19 Torsion [N]-C--CA-[N] |==|  0.47616
USER: genes 20 Torsion [C]-CA--CB-[CG] |==|  0.42438
USER: genes 21 Torsion [CA]-CB--CG-[CD] |==|  0.11084
USER: genes 22 Torsion [CB]-CG--CD-[OE1] |==|  0.12923
USER: genes 23 Torsion [C]-CA--CB-[CG] |==|  0.50254
USER: genes 24 Torsion [CA]-CB--CG-[CD2] |==|  0.27593
USER: genes 25 Torsion [C]-CA--CB-[CG] |==|  0.17090
USER: genes 26 Torsion [CA]-CB--CG-[CD2] |==|  0.52063
ROOT
ATOM      1  C   LEU D   6      19.124  12.948  42.646  1.00 70.97 LIG 0.24  C 
ATOM      2 O    LEU D   6      19.252  12.408  41.557  1.00 69.80 LIG-0.27  OA
ATOM      3  N   PRO D   7      18.239  12.510  43.557  1.00 67.36 LIG-0.34  N 
ATOM      4  CA  PRO D   7      17.402  11.355  43.243  1.00 66.95 LIG 0.18  C 
ATOM      5  CB  PRO D   7      17.231  10.668  44.607  1.00 69.23 LIG 0.04  C 
ATOM      6  CG  PRO D   7      17.541  11.745  45.653  1.00 73.99 LIG 0.02  C 
ATOM      7  CD  PRO D   7      17.972  12.993  44.927  1.00 69.55 LIG 0.13  C 
ENDROOT
BRANCH 4 8
ATOM      8  C   PRO D   7      16.063  11.763  42.636  1.00 67.39 LIG 0.24  C 
ATOM      9  N   LEU D   8      15.671  11.063  41.577  1.00 63.51 LIG-0.35  N 
ATOM     10 H    LEU D   8      16.148  10.448  41.211  1.00 63.51 LIG 0.16  HD
ATOM     11 O    PRO D   7      15.397  12.685  43.113  1.00 65.73 LIG-0.27  OA
BRANCH 9 12
ATOM     12  CA  LEU D   8      14.390  11.278  40.934  1.00 63.43 LIG 0.18  C 
BRANCH 12 13
ATOM     13  CB  LEU D   8      14.289  10.508  39.622  1.00 63.06 LIG 0.04  C 
BRANCH 13 14
ATOM     14  CG  LEU D   8      13.448  11.230  38.596  1.00 67.32 LIG-0.02  C 
ATOM     15  CD1 LEU D   8      13.562  12.703  38.757  1.00 66.57 LIG 0.01  C 
ATOM     16  CD2 LEU D   8      13.777  10.778  37.200  1.00 70.19 LIG 0.01  C 
ENDBRANCH 13 14
ENDBRANCH 12 13
BRANCH 12 17
ATOM     17  C   LEU D   8      13.268  10.921  41.884  1.00 69.22 LIG 0.24  C 
ATOM     18  N   PHE D   9      12.448  11.911  42.259  1.00 66.75 LIG-0.35  N 
ATOM     19 H    PHE D   9      12.534  12.724  41.991  1.00 66.75 LIG 0.16  HD
ATOM     20 O    LEU D   8      13.177   9.771  42.313  1.00 69.38 LIG-0.27  OA
BRANCH 18 21
ATOM     21  CA  PHE D   9      11.326  11.704  43.163  1.00 67.50 LIG 0.18  C 
BRANCH 21 22
ATOM     22  CB  PHE D   9      11.048  12.965  43.992  1.00 70.09 LIG 0.07  C 
BRANCH 22 23
ATOM     23  CG  PHE D   9       9.616  13.231  44.406  1.00 72.62 LIG-0.06  A 
ATOM     24  CD2 PHE D   9       8.878  14.239  43.796  1.00 75.26 LIG 0.01  A 
ATOM     25  CE2 PHE D   9       7.547  14.461  44.148  1.00 78.46 LIG 0.00  A 
ATOM     26  CZ  PHE D   9       6.945  13.674  45.108  1.00 76.95 LIG 0.00  A 
ATOM     27  CE1 PHE D   9       7.654  12.658  45.711  1.00 77.74 LIG 0.00  A 
ATOM     28  CD1 PHE D   9       8.975  12.415  45.335  1.00 76.53 LIG 0.01  A 
ENDBRANCH 22 23
ENDBRANCH 21 22
BRANCH 21 29
ATOM     29  C   PHE D   9      10.065  11.270  42.413  1.00 72.50 LIG 0.24  C 
ATOM     30 O    PHE D   9       9.250  10.520  42.955  1.00 71.57 LIG-0.27  OA
ATOM     31  N   SER D  10       9.893  11.755  41.169  1.00 70.70 LIG-0.34  N 
ATOM     32 H    SER D  10      10.443  12.296  40.790  1.00 70.70 LIG 0.16  HD
BRANCH 31 33
ATOM     33  CA  SER D  10       8.737  11.401  40.337  1.00110.54 LIG 0.19  C 
BRANCH 33 34
ATOM     34  C   SER D  10       9.091  11.441  38.850  1.00112.68 LIG 0.22  C 
ATOM     35 O    SER D  10       9.009  10.419  38.170  1.00 61.17 LIG-0.29  OA
ENDBRANCH 33 34
BRANCH 33 36
ATOM     36  CB  SER D  10       7.551  12.313  40.635  1.00114.99 LIG 0.20  C 
BRANCH 36 37
ATOM     37 OG   SER D  10       6.831  11.889  41.783  1.00125.63 LIG-0.40  OA
ATOM     38 HG   SER D  10       7.355  11.504  42.315  1.00125.63 LIG 0.21  HD
ENDBRANCH 36 37
ENDBRANCH 33 36
ENDBRANCH 31 33
ENDBRANCH 21 29
ENDBRANCH 18 21
ENDBRANCH 12 17
ENDBRANCH 9 12
ENDBRANCH 4 8
BRANCH 1 39
ATOM     39  CA  LEU D   6      19.940  14.167  42.976  1.00 70.47 LIG 0.18  C 
BRANCH 39 40
ATOM     40  N   LEU D   6      21.310  13.931  43.403  1.00 72.03 LIG-0.35  N 
ATOM     41  C   PHE D   5      22.047  14.921  43.904  1.00 78.51 LIG 0.24  C 
ATOM     42 O    PHE D   5      21.616  16.068  44.073  1.00 77.96 LIG-0.27  OA
ATOM     43 H    LEU D   6      21.585  13.122  43.304  1.00 72.03 LIG 0.16  HD
BRANCH 41 44
ATOM     44  CA  PHE D   5      23.504  14.606  44.156  1.00 78.26 LIG 0.18  C 
BRANCH 44 45
ATOM     45  N   PHE D   5      23.765  13.206  43.811  1.00 79.00 LIG-0.34  N 
ATOM     46 H    PHE D   5      23.766  13.040  42.966  1.00 79.00 LIG 0.16  HD
ATOM     47  C   GLU D   4      23.980  12.286  44.755  1.00 84.09 LIG 0.26  C 
ATOM     48 O    GLU D   4      24.066  12.561  45.950  1.00 84.89 LIG-0.27  OA
BRANCH 47 49
ATOM     49  CA  GLU D   4      24.133  10.843  44.310  1.00 80.59 LIG 0.40  C 
ATOM     50  N   GLU D   4      24.560  10.012  45.432  1.00 81.26 LIG 0.61  N 
BRANCH 49 51
ATOM     51  CB  GLU D   4      22.789  10.330  43.746  1.00 81.69 LIG 0.06  C 
BRANCH 51 52
ATOM     52  CG  GLU D   4      22.928   9.221  42.716  1.00 88.66 LIG 0.12  C 
BRANCH 52 53
ATOM     53  CD  GLU D   4      23.989   8.175  43.004  1.00 99.07 LIG 0.17  C 
ATOM     54 OE1  GLU D   4      24.059   7.681  44.154  1.00 74.80 LIG-0.65  OA
ATOM     55 OE2  GLU D   4      24.709   7.795  42.052  1.00 93.08 LIG-0.65  OA
ENDBRANCH 52 53
ENDBRANCH 51 52
ENDBRANCH 49 51
ENDBRANCH 47 49
ENDBRANCH 44 45
BRANCH 44 56
ATOM     56  CB  PHE D   5      24.482  15.588  43.506  1.00 80.27 LIG 0.07  C 
BRANCH 56 57
ATOM     57  CG  PHE D   5      25.926  15.223  43.765  1.00 81.89 LIG-0.06  A 
ATOM     58  CD2 PHE D   5      26.675  14.547  42.804  1.00 84.17 LIG 0.01  A 
ATOM     59  CE2 PHE D   5      28.008  14.200  43.047  1.00 86.81 LIG 0.00  A 
ATOM     60  CZ  PHE D   5      28.601  14.540  44.243  1.00 84.76 LIG 0.00  A 
ATOM     61  CE1 PHE D   5      27.871  15.199  45.211  1.00 85.59 LIG 0.00  A 
ATOM     62  CD1 PHE D   5      26.533  15.536  44.974  1.00 84.61 LIG 0.01  A 
ENDBRANCH 56 57
ENDBRANCH 44 56
ENDBRANCH 41 44
ENDBRANCH 39 40
BRANCH 39 63
ATOM     63  CB  LEU D   6      19.897  15.177  41.834  1.00 70.57 LIG 0.04  C 
BRANCH 63 64
ATOM     64  CG  LEU D   6      18.516  15.709  41.517  1.00 75.48 LIG-0.02  C 
ATOM     65  CD2 LEU D   6      18.536  16.532  40.304  1.00 78.97 LIG 0.01  C 
ATOM     66  CD1 LEU D   6      17.978  16.480  42.650  1.00 75.94 LIG 0.01  C 
ENDBRANCH 63 64
ENDBRANCH 39 63
ENDBRANCH 1 39
TORSDOF 25
ENDMDL
MODEL 23
USER: ADFR SOLUTION from run 164
USER: SCORE 23.058594 LL:  -7.191 LR: -17.129 RR:   0.000 FEB:  -9.672
USER: RMSD 12.008997
USER: SEED 163
USER: STATUS no improvement in best in 8 clusters for 5 generations
USER: GENES 27
USER: genes 0 Translation |==|  0.51883 0.54287 0.47756
USER: genes 1 Rotation |==|  0.44563 0.78679 0.09449 0.51900
USER: genes 2 Torsion [N]-CA--C-[N] |==|  0.34552
USER: genes 3 Torsion [C]-N--CA-[C] |==|  0.69444
USER: genes 4 Torsion [N]-CA--CB-[CG] |==|  0.40405
USER: genes 5 Torsion [CA]-CB--CG-[CD1] |==|  0.23043
USER: genes 6 Torsion [N]-CA--C-[N] |==|  0.93838
USER: genes 7 Torsion [C]-N--CA-[CB] |==|  0.79862
USER: genes 8 Torsion [N]-CA--CB-[CG] |==|  0.00342
USER: genes 9 Torsion [CA]-CB--CG-[CD1] |==|  0.28522
USER: genes 10 Torsion [N]-CA--C-[N] |==|  0.21857
USER: genes 11 Torsion [C]-N--CA-[C] |==|  0.48737
USER: genes 12 Torsion [N]-CA--C-[O] |==|  0.76307
USER: genes 13 Torsion [N]-CA--CB-[OG] |==|  0.48661
USER: genes 14 Torsion [CA]-CB--OG-[HG] |==|  0.39884
USER: genes 15 Torsion [N]-C--CA-[N] |==|  0.25571
USER: genes 16 Torsion [C]-CA--N-[C] |==|  0.63665
USER: genes 17 Torsion [N]-C--CA-[N] |==|  0.96715
USER: genes 18 Torsion [C]-CA--N-[C] |==|  0.70667
USER: genes 19 Torsion [N]-C--CA-[N] |==|  0.42693
USER: genes 20 Torsion [C]-CA--CB-[CG] |==|  0.67890
USER: genes 21 Torsion [CA]-CB--CG-[CD] |==|  0.81249
USER: genes 22 Torsion [CB]-CG--CD-[OE1] |==|  0.85548
USER: genes 23 Torsion [C]-CA--CB-[CG] |==|  0.92316
USER: genes 24 Torsion [CA]-CB--CG-[CD2] |==|  0.34603
USER: genes 25 Torsion [C]-CA--CB-[CG] |==|  0.36385
USER: genes 26 Torsion [CA]-CB--CG-[CD2] |==|  0.94067
ROOT
ATOM      1  C   LEU D   6      18.513  12.691  42.233  1.00 70.97 LIG 0.24  C 
ATOM      2 O    LEU D   6      18.691  12.137  41.159  1.00 69.80 LIG-0.27  OA
ATOM      3  N   PRO D   7      17.693  12.181  43.168  1.00 67.36 LIG-0.34  N 
ATOM      4  CA  PRO D   7      16.991  10.930  42.899  1.00 66.95 LIG 0.18  C 
ATOM      5  CB  PRO D   7      16.913  10.268  44.284  1.00 69.23 LIG 0.04  C 
ATOM      6  CG  PRO D   7      17.108  11.404  45.294  1.00 73.99 LIG 0.02  C 
ATOM      7  CD  PRO D   7      17.386  12.672  44.528  1.00 69.55 LIG 0.13  C 
ENDROOT
BRANCH 4 8
ATOM      8  C   PRO D   7      15.608  11.163  42.298  1.00 67.39 LIG 0.24  C 
ATOM      9  N   LEU D   8      15.373  10.561  41.137  1.00 63.51 LIG-0.35  N 
ATOM     10 H    LEU D   8      15.963  10.103  40.711  1.00 63.51 LIG 0.16  HD
ATOM     11 O    PRO D   7      14.772  11.867  42.868  1.00 65.73 LIG-0.27  OA
BRANCH 9 12
ATOM     12  CA  LEU D   8      14.084  10.622  40.477  1.00 63.43 LIG 0.18  C 
BRANCH 12 13
ATOM     13  CB  LEU D   8      14.213  11.138  39.048  1.00 63.06 LIG 0.04  C 
BRANCH 13 14
ATOM     14  CG  LEU D   8      13.221  10.489  38.112  1.00 67.32 LIG-0.02  C 
ATOM     15  CD1 LEU D   8      11.899  11.164  38.188  1.00 66.57 LIG 0.01  C 
ATOM     16  CD2 LEU D   8      13.754  10.428  36.706  1.00 70.19 LIG 0.01  C 
ENDBRANCH 13 14
ENDBRANCH 12 13
BRANCH 12 17
ATOM     17  C   LEU D   8      13.410   9.269  40.528  1.00 69.22 LIG 0.24  C 
ATOM     18  N   PHE D   9      14.199   8.201  40.707  1.00 66.75 LIG-0.35  N 
ATOM     19 H    PHE D   9      15.053   8.252  40.789  1.00 66.75 LIG 0.16  HD
ATOM     20 O    LEU D   8      12.194   9.188  40.355  1.00 69.38 LIG-0.27  OA
BRANCH 18 21
ATOM     21  CA  PHE D   9      13.679   6.843  40.781  1.00 67.50 LIG 0.18  C 
BRANCH 21 22
ATOM     22  CB  PHE D   9      12.946   6.606  42.108  1.00 70.09 LIG 0.07  C 
BRANCH 22 23
ATOM     23  CG  PHE D   9      12.853   7.767  43.075  1.00 72.62 LIG-0.06  A 
ATOM     24  CD2 PHE D   9      13.971   8.191  43.783  1.00 75.26 LIG 0.01  A 
ATOM     25  CE2 PHE D   9      13.897   9.284  44.645  1.00 78.46 LIG 0.00  A 
ATOM     26  CZ  PHE D   9      12.706   9.963  44.801  1.00 76.95 LIG 0.00  A 
ATOM     27  CE1 PHE D   9      11.591   9.571  44.094  1.00 77.74 LIG 0.00  A 
ATOM     28  CD1 PHE D   9      11.674   8.497  43.207  1.00 76.53 LIG 0.01  A 
ENDBRANCH 22 23
ENDBRANCH 21 22
BRANCH 21 29
ATOM     29  C   PHE D   9      12.761   6.521  39.600  1.00 72.50 LIG 0.24  C 
ATOM     30 O    PHE D   9      11.537   6.557  39.741  1.00 71.57 LIG-0.27  OA
ATOM     31  N   SER D  10      13.351   6.221  38.427  1.00 70.70 LIG-0.34  N 
ATOM     32 H    SER D  10      14.203   6.214  38.312  1.00 70.70 LIG 0.16  HD
BRANCH 31 33
ATOM     33  CA  SER D  10      12.584   5.875  37.225  1.00110.54 LIG 0.19  C 
BRANCH 33 34
ATOM     34  C   SER D  10      13.502   5.692  36.015  1.00112.68 LIG 0.22  C 
ATOM     35 O    SER D  10      13.840   6.668  35.346  1.00 61.17 LIG-0.29  OA
ENDBRANCH 33 34
BRANCH 33 36
ATOM     36  CB  SER D  10      11.516   6.926  36.938  1.00114.99 LIG 0.20  C 
BRANCH 36 37
ATOM     37 OG   SER D  10      10.834   6.670  35.720  1.00125.63 LIG-0.40  OA
ATOM     38 HG   SER D  10      10.025   6.880  35.802  1.00125.63 LIG 0.21  HD
ENDBRANCH 36 37
ENDBRANCH 33 36
ENDBRANCH 31 33
ENDBRANCH 21 29
ENDBRANCH 18 21
ENDBRANCH 12 17
ENDBRANCH 9 12
ENDBRANCH 4 8
BRANCH 1 39
ATOM     39  CA  LEU D   6      19.187  14.004  42.518  1.00 70.47 LIG 0.18  C 
BRANCH 39 40
ATOM     40  N   LEU D   6      20.501  13.935  43.135  1.00 72.03 LIG-0.35  N 
ATOM     41  C   PHE D   5      20.788  14.669  44.209  1.00 78.51 LIG 0.24  C 
ATOM     42 O    PHE D   5      19.967  15.409  44.764  1.00 77.96 LIG-0.27  OA
ATOM     43 H    LEU D   6      21.052  13.397  42.753  1.00 72.03 LIG 0.16  HD
BRANCH 41 44
ATOM     44  CA  PHE D   5      22.230  14.649  44.664  1.00 78.26 LIG 0.18  C 
BRANCH 44 45
ATOM     45  N   PHE D   5      22.947  13.582  43.961  1.00 79.00 LIG-0.34  N 
ATOM     46 H    PHE D   5      23.126  13.753  43.137  1.00 79.00 LIG 0.16  HD
ATOM     47  C   GLU D   4      23.281  12.446  44.579  1.00 84.09 LIG 0.26  C 
ATOM     48 O    GLU D   4      23.099  12.258  45.781  1.00 84.89 LIG-0.27  OA
BRANCH 47 49
ATOM     49  CA  GLU D   4      23.924  11.353  43.744  1.00 80.59 LIG 0.40  C 
ATOM     50  N   GLU D   4      24.761  10.502  44.585  1.00 81.26 LIG 0.61  N 
BRANCH 49 51
ATOM     51  CB  GLU D   4      22.824  10.512  43.059  1.00 81.69 LIG 0.06  C 
BRANCH 51 52
ATOM     52  CG  GLU D   4      22.774   9.062  43.512  1.00 88.66 LIG 0.12  C 
BRANCH 52 53
ATOM     53  CD  GLU D   4      23.961   8.200  43.122  1.00 99.07 LIG 0.17  C 
ATOM     54 OE1  GLU D   4      24.319   8.169  41.922  1.00 74.80 LIG-0.65  OA
ATOM     55 OE2  GLU D   4      24.581   7.611  44.037  1.00 93.08 LIG-0.65  OA
ENDBRANCH 52 53
ENDBRANCH 51 52
ENDBRANCH 49 51
ENDBRANCH 47 49
ENDBRANCH 44 45
BRANCH 44 56
ATOM     56  CB  PHE D   5      22.932  16.007  44.592  1.00 80.27 LIG 0.07  C 
BRANCH 56 57
ATOM     57  CG  PHE D   5      22.349  16.904  43.523  1.00 81.89 LIG-0.06  A 
ATOM     58  CD2 PHE D   5      21.880  18.178  43.837  1.00 84.17 LIG 0.01  A 
ATOM     59  CE2 PHE D   5      21.331  19.004  42.851  1.00 86.81 LIG 0.00  A 
ATOM     60  CZ  PHE D   5      21.262  18.566  41.546  1.00 84.76 LIG 0.00  A 
ATOM     61  CE1 PHE D   5      21.712  17.303  41.219  1.00 85.59 LIG 0.00  A 
ATOM     62  CD1 PHE D   5      22.250  16.471  42.207  1.00 84.61 LIG 0.01  A 
ENDBRANCH 56 57
ENDBRANCH 44 56
ENDBRANCH 41 44
ENDBRANCH 39 40
BRANCH 39 63
ATOM     63  CB  LEU D   6      19.221  14.880  41.270  1.00 70.57 LIG 0.04  C 
BRANCH 63 64
ATOM     64  CG  LEU D   6      18.744  16.301  41.485  1.00 75.48 LIG-0.02  C 
ATOM     65  CD2 LEU D   6      17.898  16.396  42.679  1.00 78.97 LIG 0.01  C 
ATOM     66  CD1 LEU D   6      18.018  16.794  40.303  1.00 75.94 LIG 0.01  C 
ENDBRANCH 63 64
ENDBRANCH 39 63
ENDBRANCH 1 39
TORSDOF 25
ENDMDL
MODEL 24
USER: ADFR SOLUTION from run 57
USER: SCORE 23.827138 LL:  -7.271 LR: -17.100 RR:   0.000 FEB:  -9.642
USER: RMSD 13.130404
USER: SEED 56
USER: STATUS searching
USER: GENES 27
USER: genes 0 Translation |==|  0.44667 0.51644 0.54262
USER: genes 1 Rotation |==|  0.32968 0.92946 0.68933 0.52668
USER: genes 2 Torsion [N]-CA--C-[N] |==|  0.43126
USER: genes 3 Torsion [C]-N--CA-[C] |==|  0.73575
USER: genes 4 Torsion [N]-CA--CB-[CG] |==|  0.96282
USER: genes 5 Torsion [CA]-CB--CG-[CD1] |==|  0.36230
USER: genes 6 Torsion [N]-CA--C-[N] |==|  0.93692
USER: genes 7 Torsion [C]-N--CA-[CB] |==|  0.84994
USER: genes 8 Torsion [N]-CA--CB-[CG] |==|  0.91763
USER: genes 9 Torsion [CA]-CB--CG-[CD1] |==|  0.81640
USER: genes 10 Torsion [N]-CA--C-[N] |==|  0.39930
USER: genes 11 Torsion [C]-N--CA-[C] |==|  0.74714
USER: genes 12 Torsion [N]-CA--C-[O] |==|  0.78003
USER: genes 13 Torsion [N]-CA--CB-[OG] |==|  0.05289
USER: genes 14 Torsion [CA]-CB--OG-[HG] |==|  0.22150
USER: genes 15 Torsion [N]-C--CA-[N] |==|  0.36522
USER: genes 16 Torsion [C]-CA--N-[C] |==|  0.69487
USER: genes 17 Torsion [N]-C--CA-[N] |==|  0.42366
USER: genes 18 Torsion [C]-CA--N-[C] |==|  0.58088
USER: genes 19 Torsion [N]-C--CA-[N] |==|  0.94801
USER: genes 20 Torsion [C]-CA--CB-[CG] |==|  0.50548
USER: genes 21 Torsion [CA]-CB--CG-[CD] |==|  0.87443
USER: genes 22 Torsion [CB]-CG--CD-[OE1] |==|  0.16723
USER: genes 23 Torsion [C]-CA--CB-[CG] |==|  0.87709
USER: genes 24 Torsion [CA]-CB--CG-[CD2] |==|  0.74286
USER: genes 25 Torsion [C]-CA--CB-[CG] |==|  0.25147
USER: genes 26 Torsion [CA]-CB--CG-[CD2] |==|  0.10387
ROOT
ATOM      1  C   LEU D   6      16.402  12.215  43.502  1.00 70.97 LIG 0.24  C 
ATOM      2 O    LEU D   6      15.789  13.044  44.157  1.00 69.80 LIG-0.27  OA
ATOM      3  N   PRO D   7      15.938  11.750  42.330  1.00 67.36 LIG-0.34  N 
ATOM      4  CA  PRO D   7      14.663  12.245  41.819  1.00 66.95 LIG 0.18  C 
ATOM      5  CB  PRO D   7      14.869  12.231  40.296  1.00 69.23 LIG 0.04  C 
ATOM      6  CG  PRO D   7      16.028  11.260  40.046  1.00 73.99 LIG 0.02  C 
ATOM      7  CD  PRO D   7      16.547  10.794  41.382  1.00 69.55 LIG 0.13  C 
ENDROOT
BRANCH 4 8
ATOM      8  C   PRO D   7      13.491  11.366  42.246  1.00 67.39 LIG 0.24  C 
ATOM      9  N   LEU D   8      12.305  11.963  42.286  1.00 63.51 LIG-0.35  N 
ATOM     10 H    LEU D   8      12.189  12.801  42.131  1.00 63.51 LIG 0.16  HD
ATOM     11 O    PRO D   7      13.652  10.177  42.529  1.00 65.73 LIG-0.27  OA
BRANCH 9 12
ATOM     12  CA  LEU D   8      11.084  11.246  42.597  1.00 63.43 LIG 0.18  C 
BRANCH 12 13
ATOM     13  CB  LEU D   8      10.165  12.072  43.490  1.00 63.06 LIG 0.04  C 
BRANCH 13 14
ATOM     14  CG  LEU D   8      10.867  13.269  44.087  1.00 67.32 LIG-0.02  C 
ATOM     15  CD1 LEU D   8      10.069  14.507  43.886  1.00 66.57 LIG 0.01  C 
ATOM     16  CD2 LEU D   8      11.213  13.036  45.532  1.00 70.19 LIG 0.01  C 
ENDBRANCH 13 14
ENDBRANCH 12 13
BRANCH 12 17
ATOM     17  C   LEU D   8      10.394  10.818  41.321  1.00 69.22 LIG 0.24  C 
ATOM     18  N   PHE D   9      10.684  11.507  40.210  1.00 66.75 LIG-0.35  N 
ATOM     19 H    PHE D   9      11.232  12.170  40.193  1.00 66.75 LIG 0.16  HD
ATOM     20 O    LEU D   8       9.568   9.906  41.353  1.00 69.38 LIG-0.27  OA
BRANCH 18 21
ATOM     21  CA  PHE D   9      10.096  11.196  38.915  1.00 67.50 LIG 0.18  C 
BRANCH 21 22
ATOM     22  CB  PHE D   9      10.313   9.720  38.552  1.00 70.09 LIG 0.07  C 
BRANCH 22 23
ATOM     23  CG  PHE D   9      11.552   9.040  39.094  1.00 72.62 LIG-0.06  A 
ATOM     24  CD2 PHE D   9      11.445   7.947  39.945  1.00 75.26 LIG 0.01  A 
ATOM     25  CE2 PHE D   9      12.584   7.294  40.415  1.00 78.46 LIG 0.00  A 
ATOM     26  CZ  PHE D   9      13.837   7.728  40.032  1.00 76.95 LIG 0.00  A 
ATOM     27  CE1 PHE D   9      13.964   8.797  39.174  1.00 77.74 LIG 0.00  A 
ATOM     28  CD1 PHE D   9      12.823   9.429  38.678  1.00 76.53 LIG 0.01  A 
ENDBRANCH 22 23
ENDBRANCH 21 22
BRANCH 21 29
ATOM     29  C   PHE D   9       8.606  11.542  38.870  1.00 72.50 LIG 0.24  C 
ATOM     30 O    PHE D   9       7.905  11.391  39.874  1.00 71.57 LIG-0.27  OA
ATOM     31  N   SER D  10       8.122  12.023  37.710  1.00 70.70 LIG-0.34  N 
ATOM     32 H    SER D  10       8.605  12.153  37.011  1.00 70.70 LIG 0.16  HD
BRANCH 31 33
ATOM     33  CA  SER D  10       6.708  12.374  37.530  1.00110.54 LIG 0.19  C 
BRANCH 33 34
ATOM     34  C   SER D  10       5.904  11.184  37.002  1.00112.68 LIG 0.22  C 
ATOM     35 O    SER D  10       5.946  10.896  35.806  1.00 61.17 LIG-0.29  OA
ENDBRANCH 33 34
BRANCH 33 36
ATOM     36  CB  SER D  10       6.558  13.579  36.607  1.00114.99 LIG 0.20  C 
BRANCH 36 37
ATOM     37 OG   SER D  10       7.721  13.793  35.822  1.00125.63 LIG-0.40  OA
ATOM     38 HG   SER D  10       7.721  13.261  35.171  1.00125.63 LIG 0.21  HD
ENDBRANCH 36 37
ENDBRANCH 33 36
ENDBRANCH 31 33
ENDBRANCH 21 29
ENDBRANCH 18 21
ENDBRANCH 12 17
ENDBRANCH 9 12
ENDBRANCH 4 8
BRANCH 1 39
ATOM     39  CA  LEU D   6      17.694  11.654  44.028  1.00 70.47 LIG 0.18  C 
BRANCH 39 40
ATOM     40  N   LEU D   6      18.684  12.621  44.474  1.00 72.03 LIG-0.35  N 
ATOM     41  C   PHE D   5      19.807  12.814  43.783  1.00 78.51 LIG 0.24  C 
ATOM     42 O    PHE D   5      20.059  12.229  42.723  1.00 77.96 LIG-0.27  OA
ATOM     43 H    LEU D   6      18.482  13.038  45.198  1.00 72.03 LIG 0.16  HD
BRANCH 41 44
ATOM     44  CA  PHE D   5      20.838  13.713  44.425  1.00 78.26 LIG 0.18  C 
BRANCH 44 45
ATOM     45  N   PHE D   5      22.173  13.336  43.953  1.00 79.00 LIG-0.34  N 
ATOM     46 H    PHE D   5      22.190  12.997  43.163  1.00 79.00 LIG 0.16  HD
ATOM     47  C   GLU D   4      23.256  13.519  44.713  1.00 84.09 LIG 0.26  C 
ATOM     48 O    GLU D   4      23.222  14.091  45.801  1.00 84.89 LIG-0.27  OA
BRANCH 47 49
ATOM     49  CA  GLU D   4      24.581  12.999  44.188  1.00 80.59 LIG 0.40  C 
ATOM     50  N   GLU D   4      24.355  12.007  43.141  1.00 81.26 LIG 0.61  N 
BRANCH 49 51
ATOM     51  CB  GLU D   4      25.418  14.176  43.637  1.00 81.69 LIG 0.06  C 
BRANCH 51 52
ATOM     52  CG  GLU D   4      26.753  13.765  43.039  1.00 88.66 LIG 0.12  C 
BRANCH 52 53
ATOM     53  CD  GLU D   4      27.568  12.772  43.847  1.00 99.07 LIG 0.17  C 
ATOM     54 OE1  GLU D   4      27.078  11.645  44.095  1.00 74.80 LIG-0.65  OA
ATOM     55 OE2  GLU D   4      28.733  13.098  44.171  1.00 93.08 LIG-0.65  OA
ENDBRANCH 52 53
ENDBRANCH 51 52
ENDBRANCH 49 51
ENDBRANCH 47 49
ENDBRANCH 44 45
BRANCH 44 56
ATOM     56  CB  PHE D   5      20.542  15.209  44.290  1.00 80.27 LIG 0.07  C 
BRANCH 56 57
ATOM     57  CG  PHE D   5      20.093  15.586  42.896  1.00 81.89 LIG-0.06  A 
ATOM     58  CD2 PHE D   5      21.013  16.012  41.940  1.00 84.17 LIG 0.01  A 
ATOM     59  CE2 PHE D   5      20.597  16.371  40.653  1.00 86.81 LIG 0.00  A 
ATOM     60  CZ  PHE D   5      19.264  16.290  40.313  1.00 84.76 LIG 0.00  A 
ATOM     61  CE1 PHE D   5      18.338  15.880  41.250  1.00 85.59 LIG 0.00  A 
ATOM     62  CD1 PHE D   5      18.751  15.534  42.542  1.00 84.61 LIG 0.01  A 
ENDBRANCH 56 57
ENDBRANCH 44 56
ENDBRANCH 41 44
ENDBRANCH 39 40
BRANCH 39 63
ATOM     63  CB  LEU D   6      17.434  10.610  45.108  1.00 70.57 LIG 0.04  C 
BRANCH 63 64
ATOM     64  CG  LEU D   6      17.303   9.192  44.595  1.00 75.48 LIG-0.02  C 
ATOM     65  CD2 LEU D   6      18.237   8.944  43.492  1.00 78.97 LIG 0.01  C 
ATOM     66  CD1 LEU D   6      15.922   8.915  44.167  1.00 75.94 LIG 0.01  C 
ENDBRANCH 63 64
ENDBRANCH 39 63
ENDBRANCH 1 39
TORSDOF 25
ENDMDL
MODEL 25
USER: ADFR SOLUTION from run 45
USER: SCORE 21.492162 LL:  -7.367 LR: -17.057 RR:   0.000 FEB:  -9.599
USER: RMSD 12.640836
USER: SEED 44
USER: STATUS no improvement in best in 20 clusters for 5 generations
USER: GENES 27
USER: genes 0 Translation |==|  0.47181 0.56134 0.46216
USER: genes 1 Rotation |==|  0.61919 0.18474 0.86785 0.53303
USER: genes 2 Torsion [N]-CA--C-[N] |==|  0.68880
USER: genes 3 Torsion [C]-N--CA-[C] |==|  0.18001
USER: genes 4 Torsion [N]-CA--CB-[CG] |==|  0.59229
USER: genes 5 Torsion [CA]-CB--CG-[CD1] |==|  0.67494
USER: genes 6 Torsion [N]-CA--C-[N] |==|  0.67536
USER: genes 7 Torsion [C]-N--CA-[CB] |==|  0.43266
USER: genes 8 Torsion [N]-CA--CB-[CG] |==|  0.48893
USER: genes 9 Torsion [CA]-CB--CG-[CD1] |==|  0.78012
USER: genes 10 Torsion [N]-CA--C-[N] |==|  0.91895
USER: genes 11 Torsion [C]-N--CA-[C] |==|  0.78426
USER: genes 12 Torsion [N]-CA--C-[O] |==|  0.96380
USER: genes 13 Torsion [N]-CA--CB-[OG] |==|  0.97110
USER: genes 14 Torsion [CA]-CB--OG-[HG] |==|  0.11878
USER: genes 15 Torsion [N]-C--CA-[N] |==|  0.11445
USER: genes 16 Torsion [C]-CA--N-[C] |==|  0.17688
USER: genes 17 Torsion [N]-C--CA-[N] |==|  0.58460
USER: genes 18 Torsion [C]-CA--N-[C] |==|  0.53677
USER: genes 19 Torsion [N]-C--CA-[N] |==|  0.78145
USER: genes 20 Torsion [C]-CA--CB-[CG] |==|  0.34996
USER: genes 21 Torsion [CA]-CB--CG-[CD] |==|  0.18863
USER: genes 22 Torsion [CB]-CG--CD-[OE1] |==|  0.97033
USER: genes 23 Torsion [C]-CA--CB-[CG] |==|  0.84927
USER: genes 24 Torsion [CA]-CB--CG-[CD2] |==|  0.30614
USER: genes 25 Torsion [C]-CA--CB-[CG] |==|  0.43954
USER: genes 26 Torsion [CA]-CB--CG-[CD2] |==|  0.65948
ROOT
ATOM      1  C   LEU D   6      17.137  13.023  41.933  1.00 70.97 LIG 0.24  C 
ATOM      2 O    LEU D   6      16.909  12.635  40.798  1.00 69.80 LIG-0.27  OA
ATOM      3  N   PRO D   7      16.662  12.381  43.013  1.00 67.36 LIG-0.34  N 
ATOM      4  CA  PRO D   7      15.846  11.184  42.832  1.00 66.95 LIG 0.18  C 
ATOM      5  CB  PRO D   7      16.212  10.324  44.053  1.00 69.23 LIG 0.04  C 
ATOM      6  CG  PRO D   7      16.799  11.298  45.081  1.00 73.99 LIG 0.02  C 
ATOM      7  CD  PRO D   7      16.864  12.665  44.449  1.00 69.55 LIG 0.13  C 
ENDROOT
BRANCH 4 8
ATOM      8  C   PRO D   7      14.355  11.505  42.785  1.00 67.39 LIG 0.24  C 
ATOM      9  N   LEU D   8      13.637  11.066  43.813  1.00 63.51 LIG-0.35  N 
ATOM     10 H    LEU D   8      13.961  10.588  44.451  1.00 63.51 LIG 0.16  HD
ATOM     11 O    PRO D   7      13.864  12.136  41.847  1.00 65.73 LIG-0.27  OA
BRANCH 9 12
ATOM     12  CA  LEU D   8      12.224  11.356  43.954  1.00 63.43 LIG 0.18  C 
BRANCH 12 13
ATOM     13  CB  LEU D   8      11.966  12.857  44.024  1.00 63.06 LIG 0.04  C 
BRANCH 13 14
ATOM     14  CG  LEU D   8      10.794  13.198  44.913  1.00 67.32 LIG-0.02  C 
ATOM     15  CD1 LEU D   8       9.707  13.846  44.133  1.00 66.57 LIG 0.01  C 
ATOM     16  CD2 LEU D   8      10.314  11.992  45.674  1.00 70.19 LIG 0.01  C 
ENDBRANCH 13 14
ENDBRANCH 12 13
BRANCH 12 17
ATOM     17  C   LEU D   8      11.446  10.704  42.832  1.00 69.22 LIG 0.24  C 
ATOM     18  N   PHE D   9      10.795  11.515  41.989  1.00 66.75 LIG-0.35  N 
ATOM     19 H    PHE D   9      10.798  12.372  42.060  1.00 66.75 LIG 0.16  HD
ATOM     20 O    LEU D   8      11.394   9.475  42.762  1.00 69.38 LIG-0.27  OA
BRANCH 18 21
ATOM     21  CA  PHE D   9      10.015  11.019  40.864  1.00 67.50 LIG 0.18  C 
BRANCH 21 22
ATOM     22  CB  PHE D   9       8.938  12.032  40.453  1.00 70.09 LIG 0.07  C 
BRANCH 22 23
ATOM     23  CG  PHE D   9       8.098  11.708  39.236  1.00 72.62 LIG-0.06  A 
ATOM     24  CD2 PHE D   9       6.780  11.289  39.376  1.00 75.26 LIG 0.01  A 
ATOM     25  CE2 PHE D   9       5.992  11.027  38.256  1.00 78.46 LIG 0.00  A 
ATOM     26  CZ  PHE D   9       6.516  11.186  36.989  1.00 76.95 LIG 0.00  A 
ATOM     27  CE1 PHE D   9       7.814  11.618  36.829  1.00 77.74 LIG 0.00  A 
ATOM     28  CD1 PHE D   9       8.591  11.912  37.949  1.00 76.53 LIG 0.01  A 
ENDBRANCH 22 23
ENDBRANCH 21 22
BRANCH 21 29
ATOM     29  C   PHE D   9      10.903  10.670  39.667  1.00 72.50 LIG 0.24  C 
ATOM     30 O    PHE D   9      10.552   9.796  38.870  1.00 71.57 LIG-0.27  OA
ATOM     31  N   SER D  10      12.049  11.363  39.529  1.00 70.70 LIG-0.34  N 
ATOM     32 H    SER D  10      12.293  11.989  40.066  1.00 70.70 LIG 0.16  HD
BRANCH 31 33
ATOM     33  CA  SER D  10      12.996  11.111  38.437  1.00110.54 LIG 0.19  C 
BRANCH 33 34
ATOM     34  C   SER D  10      13.834   9.861  38.707  1.00112.68 LIG 0.22  C 
ATOM     35 O    SER D  10      13.838   9.353  39.828  1.00 61.17 LIG-0.29  OA
ENDBRANCH 33 34
BRANCH 33 36
ATOM     36  CB  SER D  10      13.894  12.323  38.204  1.00114.99 LIG 0.20  C 
BRANCH 36 37
ATOM     37 OG   SER D  10      13.445  13.461  38.923  1.00125.63 LIG-0.40  OA
ATOM     38 HG   SER D  10      13.218  13.231  39.698  1.00125.63 LIG 0.21  HD
ENDBRANCH 36 37
ENDBRANCH 33 36
ENDBRANCH 31 33
ENDBRANCH 21 29
ENDBRANCH 18 21
ENDBRANCH 12 17
ENDBRANCH 9 12
ENDBRANCH 4 8
BRANCH 1 39
ATOM     39  CA  LEU D   6      17.935  14.279  42.147  1.00 70.47 LIG 0.18  C 
BRANCH 39 40
ATOM     40  N   LEU D   6      18.884  14.263  43.249  1.00 72.03 LIG-0.35  N 
ATOM     41  C   PHE D   5      19.919  13.424  43.243  1.00 78.51 LIG 0.24  C 
ATOM     42 O    PHE D   5      20.160  12.650  42.309  1.00 77.96 LIG-0.27  OA
ATOM     43 H    LEU D   6      18.717  14.825  43.877  1.00 72.03 LIG 0.16  HD
BRANCH 41 44
ATOM     44  CA  PHE D   5      20.741  13.373  44.511  1.00 78.26 LIG 0.18  C 
BRANCH 44 45
ATOM     45  N   PHE D   5      22.130  13.051  44.177  1.00 79.00 LIG-0.34  N 
ATOM     46 H    PHE D   5      22.321  13.115  43.340  1.00 79.00 LIG 0.16  HD
ATOM     47  C   GLU D   4      23.005  12.689  45.118  1.00 84.09 LIG 0.26  C 
ATOM     48 O    GLU D   4      22.738  12.692  46.319  1.00 84.89 LIG-0.27  OA
BRANCH 47 49
ATOM     49  CA  GLU D   4      24.392  12.268  44.667  1.00 80.59 LIG 0.40  C 
ATOM     50  N   GLU D   4      24.364  10.899  44.162  1.00 81.26 LIG 0.61  N 
BRANCH 49 51
ATOM     51  CB  GLU D   4      24.895  13.233  43.570  1.00 81.69 LIG 0.06  C 
BRANCH 51 52
ATOM     52  CG  GLU D   4      26.249  13.858  43.863  1.00 88.66 LIG 0.12  C 
BRANCH 52 53
ATOM     53  CD  GLU D   4      27.436  12.912  43.849  1.00 99.07 LIG 0.17  C 
ATOM     54 OE1  GLU D   4      27.227  11.677  43.807  1.00 74.80 LIG-0.65  OA
ATOM     55 OE2  GLU D   4      28.583  13.414  43.807  1.00 93.08 LIG-0.65  OA
ENDBRANCH 52 53
ENDBRANCH 51 52
ENDBRANCH 49 51
ENDBRANCH 47 49
ENDBRANCH 44 45
BRANCH 44 56
ATOM     56  CB  PHE D   5      20.598  14.607  45.405  1.00 80.27 LIG 0.07  C 
BRANCH 56 57
ATOM     57  CG  PHE D   5      20.888  15.894  44.666  1.00 81.89 LIG-0.06  A 
ATOM     58  CD2 PHE D   5      19.868  16.798  44.377  1.00 84.17 LIG 0.01  A 
ATOM     59  CE2 PHE D   5      20.135  17.983  43.684  1.00 86.81 LIG 0.00  A 
ATOM     60  CZ  PHE D   5      21.423  18.277  43.292  1.00 84.76 LIG 0.00  A 
ATOM     61  CE1 PHE D   5      22.444  17.388  43.561  1.00 85.59 LIG 0.00  A 
ATOM     62  CD1 PHE D   5      22.176  16.195  44.242  1.00 84.61 LIG 0.01  A 
ENDBRANCH 56 57
ENDBRANCH 44 56
ENDBRANCH 41 44
ENDBRANCH 39 40
BRANCH 39 63
ATOM     63  CB  LEU D   6      18.616  14.718  40.854  1.00 70.57 LIG 0.04  C 
BRANCH 63 64
ATOM     64  CG  LEU D   6      18.996  16.182  40.809  1.00 75.48 LIG-0.02  C 
ATOM     65  CD2 LEU D   6      18.377  16.851  39.660  1.00 78.97 LIG 0.01  C 
ATOM     66  CD1 LEU D   6      20.459  16.343  40.766  1.00 75.94 LIG 0.01  C 
ENDBRANCH 63 64
ENDBRANCH 39 63
ENDBRANCH 1 39
TORSDOF 25
ENDMDL
MODEL 26
USER: ADFR SOLUTION from run 89
USER: SCORE 23.024431 LL:  -7.529 LR: -17.064 RR:   0.000 FEB:  -9.606
USER: RMSD 12.767703
USER: SEED 88
USER: STATUS no improvement in best in 14 clusters for 5 generations
USER: GENES 27
USER: genes 0 Translation |==|  0.42957 0.52574 0.48045
USER: genes 1 Rotation |==|  0.64305 0.06175 0.30906 0.53196
USER: genes 2 Torsion [N]-CA--C-[N] |==|  0.34100
USER: genes 3 Torsion [C]-N--CA-[C] |==|  0.84229
USER: genes 4 Torsion [N]-CA--CB-[CG] |==|  0.16223
USER: genes 5 Torsion [CA]-CB--CG-[CD1] |==|  0.29030
USER: genes 6 Torsion [N]-CA--C-[N] |==|  0.90083
USER: genes 7 Torsion [C]-N--CA-[CB] |==|  0.38506
USER: genes 8 Torsion [N]-CA--CB-[CG] |==|  0.45089
USER: genes 9 Torsion [CA]-CB--CG-[CD1] |==|  0.20020
USER: genes 10 Torsion [N]-CA--C-[N] |==|  0.93991
USER: genes 11 Torsion [C]-N--CA-[C] |==|  0.17940
USER: genes 12 Torsion [N]-CA--C-[O] |==|  0.99908
USER: genes 13 Torsion [N]-CA--CB-[OG] |==|  0.31744
USER: genes 14 Torsion [CA]-CB--OG-[HG] |==|  0.82794
USER: genes 15 Torsion [N]-C--CA-[N] |==|  0.46665
USER: genes 16 Torsion [C]-CA--N-[C] |==|  0.64156
USER: genes 17 Torsion [N]-C--CA-[N] |==|  0.37295
USER: genes 18 Torsion [C]-CA--N-[C] |==|  0.72199
USER: genes 19 Torsion [N]-C--CA-[N] |==|  0.55896
USER: genes 20 Torsion [C]-CA--CB-[CG] |==|  0.78822
USER: genes 21 Torsion [CA]-CB--CG-[CD] |==|  0.78820
USER: genes 22 Torsion [CB]-CG--CD-[OE1] |==|  0.26990
USER: genes 23 Torsion [C]-CA--CB-[CG] |==|  0.93381
USER: genes 24 Torsion [CA]-CB--CG-[CD2] |==|  0.74271
USER: genes 25 Torsion [C]-CA--CB-[CG] |==|  0.63174
USER: genes 26 Torsion [CA]-CB--CG-[CD2] |==|  0.70376
ROOT
ATOM      1  C   LEU D   6      15.902  12.382  42.290  1.00 70.97 LIG 0.24  C 
ATOM      2 O    LEU D   6      15.473  13.277  43.003  1.00 69.80 LIG-0.27  OA
ATOM      3  N   PRO D   7      15.161  11.838  41.309  1.00 67.36 LIG-0.34  N 
ATOM      4  CA  PRO D   7      13.803  12.325  41.085  1.00 66.95 LIG 0.18  C 
ATOM      5  CB  PRO D   7      13.629  12.186  39.565  1.00 69.23 LIG 0.04  C 
ATOM      6  CG  PRO D   7      14.685  11.167  39.121  1.00 73.99 LIG 0.02  C 
ATOM      7  CD  PRO D   7      15.513  10.795  40.324  1.00 69.55 LIG 0.13  C 
ENDROOT
BRANCH 4 8
ATOM      8  C   PRO D   7      12.766  11.514  41.857  1.00 67.39 LIG 0.24  C 
ATOM      9  N   LEU D   8      11.997  12.204  42.692  1.00 63.51 LIG-0.35  N 
ATOM     10 H    LEU D   8      12.091  13.046  42.840  1.00 63.51 LIG 0.16  HD
ATOM     11 O    PRO D   7      12.661  10.295  41.701  1.00 65.73 LIG-0.27  OA
BRANCH 9 12
ATOM     12  CA  LEU D   8      10.916  11.591  43.438  1.00 63.43 LIG 0.18  C 
BRANCH 12 13
ATOM     13  CB  LEU D   8      10.221  12.602  44.345  1.00 63.06 LIG 0.04  C 
BRANCH 13 14
ATOM     14  CG  LEU D   8       9.658  13.772  43.574  1.00 67.32 LIG-0.02  C 
ATOM     15  CD1 LEU D   8       8.181  13.661  43.446  1.00 66.57 LIG 0.01  C 
ATOM     16  CD2 LEU D   8      10.086  15.082  44.176  1.00 70.19 LIG 0.01  C 
ENDBRANCH 13 14
ENDBRANCH 12 13
BRANCH 12 17
ATOM     17  C   LEU D   8       9.944  10.924  42.491  1.00 69.22 LIG 0.24  C 
ATOM     18  N   PHE D   9       9.729  11.525  41.314  1.00 66.75 LIG-0.35  N 
ATOM     19 H    PHE D   9      10.110  12.261  41.082  1.00 66.75 LIG 0.16  HD
ATOM     20 O    LEU D   8       9.355   9.902  42.844  1.00 69.38 LIG-0.27  OA
BRANCH 18 21
ATOM     21  CA  PHE D   9       8.823  10.987  40.309  1.00 67.50 LIG 0.18  C 
BRANCH 21 22
ATOM     22  CB  PHE D   9       7.991  12.104  39.665  1.00 70.09 LIG 0.07  C 
BRANCH 22 23
ATOM     23  CG  PHE D   9       7.312  11.801  38.347  1.00 72.62 LIG-0.06  A 
ATOM     24  CD2 PHE D   9       7.833  12.287  37.153  1.00 75.26 LIG 0.01  A 
ATOM     25  CE2 PHE D   9       7.231  11.978  35.934  1.00 78.46 LIG 0.00  A 
ATOM     26  CZ  PHE D   9       6.108  11.177  35.900  1.00 76.95 LIG 0.00  A 
ATOM     27  CE1 PHE D   9       5.587  10.670  37.069  1.00 77.74 LIG 0.00  A 
ATOM     28  CD1 PHE D   9       6.208  10.953  38.286  1.00 76.53 LIG 0.01  A 
ENDBRANCH 22 23
ENDBRANCH 21 22
BRANCH 21 29
ATOM     29  C   PHE D   9       9.572  10.194  39.236  1.00 72.50 LIG 0.24  C 
ATOM     30 O    PHE D   9       8.972   9.367  38.546  1.00 71.57 LIG-0.27  OA
ATOM     31  N   SER D  10      10.884  10.456  39.081  1.00 70.70 LIG-0.34  N 
ATOM     32 H    SER D  10      11.308  11.046  39.542  1.00 70.70 LIG 0.16  HD
BRANCH 31 33
ATOM     33  CA  SER D  10      11.719   9.751  38.102  1.00110.54 LIG 0.19  C 
BRANCH 33 34
ATOM     34  C   SER D  10      11.267  10.049  36.671  1.00112.68 LIG 0.22  C 
ATOM     35 O    SER D  10      10.308  10.794  36.472  1.00 61.17 LIG-0.29  OA
ENDBRANCH 33 34
BRANCH 33 36
ATOM     36  CB  SER D  10      11.718   8.248  38.367  1.00114.99 LIG 0.20  C 
BRANCH 36 37
ATOM     37 OG   SER D  10      11.096   7.525  37.316  1.00125.63 LIG-0.40  OA
ATOM     38 HG   SER D  10      10.292   7.759  37.253  1.00125.63 LIG 0.21  HD
ENDBRANCH 36 37
ENDBRANCH 33 36
ENDBRANCH 31 33
ENDBRANCH 21 29
ENDBRANCH 18 21
ENDBRANCH 12 17
ENDBRANCH 9 12
ENDBRANCH 4 8
BRANCH 1 39
ATOM     39  CA  LEU D   6      17.280  11.831  42.529  1.00 70.47 LIG 0.18  C 
BRANCH 39 40
ATOM     40  N   LEU D   6      18.144  12.609  43.402  1.00 72.03 LIG-0.35  N 
ATOM     41  C   PHE D   5      19.378  12.938  43.020  1.00 78.51 LIG 0.24  C 
ATOM     42 O    PHE D   5      19.845  12.647  41.913  1.00 77.96 LIG-0.27  OA
ATOM     43 H    LEU D   6      17.795  12.825  44.157  1.00 72.03 LIG 0.16  HD
BRANCH 41 44
ATOM     44  CA  PHE D   5      20.245  13.597  44.068  1.00 78.26 LIG 0.18  C 
BRANCH 44 45
ATOM     45  N   PHE D   5      21.574  12.980  44.058  1.00 79.00 LIG-0.34  N 
ATOM     46 H    PHE D   5      22.095  13.263  43.434  1.00 79.00 LIG 0.16  HD
ATOM     47  C   GLU D   4      21.918  12.056  44.959  1.00 84.09 LIG 0.26  C 
ATOM     48 O    GLU D   4      21.192  11.734  45.898  1.00 84.89 LIG-0.27  OA
BRANCH 47 49
ATOM     49  CA  GLU D   4      23.274  11.392  44.805  1.00 80.59 LIG 0.40  C 
ATOM     50  N   GLU D   4      23.294  10.115  45.511  1.00 81.26 LIG 0.61  N 
BRANCH 49 51
ATOM     51  CB  GLU D   4      23.579  11.180  43.305  1.00 81.69 LIG 0.06  C 
BRANCH 51 52
ATOM     52  CG  GLU D   4      22.826  10.020  42.674  1.00 88.66 LIG 0.12  C 
BRANCH 52 53
ATOM     53  CD  GLU D   4      23.347   8.632  42.999  1.00 99.07 LIG 0.17  C 
ATOM     54 OE1  GLU D   4      22.798   7.979  43.917  1.00 74.80 LIG-0.65  OA
ATOM     55 OE2  GLU D   4      24.262   8.168  42.282  1.00 93.08 LIG-0.65  OA
ENDBRANCH 52 53
ENDBRANCH 51 52
ENDBRANCH 49 51
ENDBRANCH 47 49
ENDBRANCH 44 45
BRANCH 44 56
ATOM     56  CB  PHE D   5      20.281  15.126  43.987  1.00 80.27 LIG 0.07  C 
BRANCH 56 57
ATOM     57  CG  PHE D   5      19.946  15.639  42.604  1.00 81.89 LIG-0.06  A 
ATOM     58  CD2 PHE D   5      20.951  15.890  41.672  1.00 84.17 LIG 0.01  A 
ATOM     59  CE2 PHE D   5      20.642  16.374  40.397  1.00 86.81 LIG 0.00  A 
ATOM     60  CZ  PHE D   5      19.328  16.594  40.044  1.00 84.76 LIG 0.00  A 
ATOM     61  CE1 PHE D   5      18.321  16.361  40.958  1.00 85.59 LIG 0.00  A 
ATOM     62  CD1 PHE D   5      18.630  15.889  42.238  1.00 84.61 LIG 0.01  A 
ENDBRANCH 56 57
ENDBRANCH 44 56
ENDBRANCH 41 44
ENDBRANCH 39 40
BRANCH 39 63
ATOM     63  CB  LEU D   6      17.212  10.379  42.990  1.00 70.57 LIG 0.04  C 
BRANCH 63 64
ATOM     64  CG  LEU D   6      18.070  10.061  44.196  1.00 75.48 LIG-0.02  C 
ATOM     65  CD2 LEU D   6      19.249   9.280  43.812  1.00 78.97 LIG 0.01  C 
ATOM     66  CD1 LEU D   6      17.291   9.341  45.218  1.00 75.94 LIG 0.01  C 
ENDBRANCH 63 64
ENDBRANCH 39 63
ENDBRANCH 1 39
TORSDOF 25
ENDMDL
MODEL 27
USER: ADFR SOLUTION from run 54
USER: SCORE 22.229270 LL:  -6.729 LR: -17.049 RR:   0.000 FEB:  -9.591
USER: RMSD 12.735528
USER: SEED 53
USER: STATUS no improvement in best in 8 clusters for 5 generations
USER: GENES 27
USER: genes 0 Translation |==|  0.51327 0.56440 0.46423
USER: genes 1 Rotation |==|  0.53826 0.19009 0.89032 0.51187
USER: genes 2 Torsion [N]-CA--C-[N] |==|  0.29465
USER: genes 3 Torsion [C]-N--CA-[C] |==|  0.79947
USER: genes 4 Torsion [N]-CA--CB-[CG] |==|  0.21739
USER: genes 5 Torsion [CA]-CB--CG-[CD1] |==|  0.88418
USER: genes 6 Torsion [N]-CA--C-[N] |==|  0.45216
USER: genes 7 Torsion [C]-N--CA-[CB] |==|  0.19191
USER: genes 8 Torsion [N]-CA--CB-[CG] |==|  0.09718
USER: genes 9 Torsion [CA]-CB--CG-[CD1] |==|  0.19428
USER: genes 10 Torsion [N]-CA--C-[N] |==|  0.18141
USER: genes 11 Torsion [C]-N--CA-[C] |==|  0.84156
USER: genes 12 Torsion [N]-CA--C-[O] |==|  0.88193
USER: genes 13 Torsion [N]-CA--CB-[OG] |==|  0.41909
USER: genes 14 Torsion [CA]-CB--OG-[HG] |==|  0.40804
USER: genes 15 Torsion [N]-C--CA-[N] |==|  0.24445
USER: genes 16 Torsion [C]-CA--N-[C] |==|  0.64818
USER: genes 17 Torsion [N]-C--CA-[N] |==|  0.90330
USER: genes 18 Torsion [C]-CA--N-[C] |==|  0.67423
USER: genes 19 Torsion [N]-C--CA-[N] |==|  0.56242
USER: genes 20 Torsion [C]-CA--CB-[CG] |==|  0.40121
USER: genes 21 Torsion [CA]-CB--CG-[CD] |==|  0.12686
USER: genes 22 Torsion [CB]-CG--CD-[OE1] |==|  0.59407
USER: genes 23 Torsion [C]-CA--CB-[CG] |==|  0.02377
USER: genes 24 Torsion [CA]-CB--CG-[CD2] |==|  0.76061
USER: genes 25 Torsion [C]-CA--CB-[CG] |==|  0.30878
USER: genes 26 Torsion [CA]-CB--CG-[CD2] |==|  0.99165
ROOT
ATOM      1  C   LEU D   6      18.350  13.078  41.973  1.00 70.97 LIG 0.24  C 
ATOM      2 O    LEU D   6      18.423  12.615  40.845  1.00 69.80 LIG-0.27  OA
ATOM      3  N   PRO D   7      17.485  12.600  42.884  1.00 67.36 LIG-0.34  N 
ATOM      4  CA  PRO D   7      16.602  11.495  42.520  1.00 66.95 LIG 0.18  C 
ATOM      5  CB  PRO D   7      16.459  10.715  43.837  1.00 69.23 LIG 0.04  C 
ATOM      6  CG  PRO D   7      16.838  11.704  44.944  1.00 73.99 LIG 0.02  C 
ATOM      7  CD  PRO D   7      17.282  12.990  44.294  1.00 69.55 LIG 0.13  C 
ENDROOT
BRANCH 4 8
ATOM      8  C   PRO D   7      15.256  11.983  41.994  1.00 67.39 LIG 0.24  C 
ATOM      9  N   LEU D   8      15.071  11.868  40.683  1.00 63.51 LIG-0.35  N 
ATOM     10 H    LEU D   8      15.676  11.585  40.141  1.00 63.51 LIG 0.16  HD
ATOM     11 O    PRO D   7      14.403  12.449  42.752  1.00 65.73 LIG-0.27  OA
BRANCH 9 12
ATOM     12  CA  LEU D   8      13.819  12.216  40.042  1.00 63.43 LIG 0.18  C 
BRANCH 12 13
ATOM     13  CB  LEU D   8      13.992  12.390  38.537  1.00 63.06 LIG 0.04  C 
BRANCH 13 14
ATOM     14  CG  LEU D   8      14.061  11.068  37.810  1.00 67.32 LIG-0.02  C 
ATOM     15  CD1 LEU D   8      14.894  10.092  38.560  1.00 66.57 LIG 0.01  C 
ATOM     16  CD2 LEU D   8      12.686  10.536  37.508  1.00 70.19 LIG 0.01  C 
ENDBRANCH 13 14
ENDBRANCH 12 13
BRANCH 12 17
ATOM     17  C   LEU D   8      12.764  11.183  40.371  1.00 69.22 LIG 0.24  C 
ATOM     18  N   PHE D   9      11.487  11.527  40.162  1.00 66.75 LIG-0.35  N 
ATOM     19 H    PHE D   9      11.247  12.295  39.857  1.00 66.75 LIG 0.16  HD
ATOM     20 O    LEU D   8      13.100  10.104  40.859  1.00 69.38 LIG-0.27  OA
BRANCH 18 21
ATOM     21  CA  PHE D   9      10.375  10.626  40.430  1.00 67.50 LIG 0.18  C 
BRANCH 21 22
ATOM     22  CB  PHE D   9      10.205  10.397  41.938  1.00 70.09 LIG 0.07  C 
BRANCH 22 23
ATOM     23  CG  PHE D   9      10.502  11.558  42.862  1.00 72.62 LIG-0.06  A 
ATOM     24  CD2 PHE D   9      11.669  11.583  43.617  1.00 75.26 LIG 0.01  A 
ATOM     25  CE2 PHE D   9      11.963  12.669  44.440  1.00 78.46 LIG 0.00  A 
ATOM     26  CZ  PHE D   9      11.096  13.740  44.509  1.00 76.95 LIG 0.00  A 
ATOM     27  CE1 PHE D   9       9.944  13.744  43.754  1.00 77.74 LIG 0.00  A 
ATOM     28  CD1 PHE D   9       9.666  12.672  42.906  1.00 76.53 LIG 0.01  A 
ENDBRANCH 22 23
ENDBRANCH 21 22
BRANCH 21 29
ATOM     29  C   PHE D   9       9.069  11.138  39.819  1.00 72.50 LIG 0.24  C 
ATOM     30 O    PHE D   9       8.138  11.485  40.550  1.00 71.57 LIG-0.27  OA
ATOM     31  N   SER D  10       9.003  11.201  38.475  1.00 70.70 LIG-0.34  N 
ATOM     32 H    SER D  10       9.653  10.982  37.957  1.00 70.70 LIG 0.16  HD
BRANCH 31 33
ATOM     33  CA  SER D  10       7.801  11.655  37.766  1.00110.54 LIG 0.19  C 
BRANCH 33 34
ATOM     34  C   SER D  10       6.582  10.810  38.143  1.00112.68 LIG 0.22  C 
ATOM     35 O    SER D  10       6.687   9.588  38.238  1.00 61.17 LIG-0.29  OA
ENDBRANCH 33 34
BRANCH 33 36
ATOM     36  CB  SER D  10       8.021  11.640  36.256  1.00114.99 LIG 0.20  C 
BRANCH 36 37
ATOM     37 OG   SER D  10       6.813  11.415  35.546  1.00125.63 LIG-0.40  OA
ATOM     38 HG   SER D  10       6.834  11.833  34.817  1.00125.63 LIG 0.21  HD
ENDBRANCH 36 37
ENDBRANCH 33 36
ENDBRANCH 31 33
ENDBRANCH 21 29
ENDBRANCH 18 21
ENDBRANCH 12 17
ENDBRANCH 9 12
ENDBRANCH 4 8
BRANCH 1 39
ATOM     39  CA  LEU D   6      19.214  14.246  42.359  1.00 70.47 LIG 0.18  C 
BRANCH 39 40
ATOM     40  N   LEU D   6      20.479  13.930  43.003  1.00 72.03 LIG-0.35  N 
ATOM     41  C   PHE D   5      20.805  14.481  44.171  1.00 78.51 LIG 0.24  C 
ATOM     42 O    PHE D   5      20.058  15.247  44.791  1.00 77.96 LIG-0.27  OA
ATOM     43 H    LEU D   6      20.975  13.376  42.572  1.00 72.03 LIG 0.16  HD
BRANCH 41 44
ATOM     44  CA  PHE D   5      22.209  14.216  44.664  1.00 78.26 LIG 0.18  C 
BRANCH 44 45
ATOM     45  N   PHE D   5      22.615  12.864  44.271  1.00 79.00 LIG-0.34  N 
ATOM     46 H    PHE D   5      22.653  12.735  43.421  1.00 79.00 LIG 0.16  HD
ATOM     47  C   GLU D   4      22.898  11.931  45.183  1.00 84.09 LIG 0.26  C 
ATOM     48 O    GLU D   4      22.928  12.161  46.391  1.00 84.89 LIG-0.27  OA
BRANCH 47 49
ATOM     49  CA  GLU D   4      23.203  10.529  44.686  1.00 80.59 LIG 0.40  C 
ATOM     50  N   GLU D   4      22.965   9.555  45.746  1.00 81.26 LIG 0.61  N 
BRANCH 49 51
ATOM     51  CB  GLU D   4      22.319  10.212  43.459  1.00 81.69 LIG 0.06  C 
BRANCH 51 52
ATOM     52  CG  GLU D   4      23.002   9.358  42.403  1.00 88.66 LIG 0.12  C 
BRANCH 52 53
ATOM     53  CD  GLU D   4      23.767   8.151  42.915  1.00 99.07 LIG 0.17  C 
ATOM     54 OE1  GLU D   4      24.808   7.794  42.316  1.00 74.80 LIG-0.65  OA
ATOM     55 OE2  GLU D   4      23.361   7.604  43.966  1.00 93.08 LIG-0.65  OA
ENDBRANCH 52 53
ENDBRANCH 51 52
ENDBRANCH 49 51
ENDBRANCH 47 49
ENDBRANCH 44 45
BRANCH 44 56
ATOM     56  CB  PHE D   5      23.225  15.295  44.282  1.00 80.27 LIG 0.07  C 
BRANCH 56 57
ATOM     57  CG  PHE D   5      22.572  16.511  43.663  1.00 81.89 LIG-0.06  A 
ATOM     58  CD2 PHE D   5      22.306  16.561  42.296  1.00 84.17 LIG 0.01  A 
ATOM     59  CE2 PHE D   5      21.711  17.689  41.722  1.00 86.81 LIG 0.00  A 
ATOM     60  CZ  PHE D   5      21.368  18.764  42.513  1.00 84.76 LIG 0.00  A 
ATOM     61  CE1 PHE D   5      21.634  18.736  43.867  1.00 85.59 LIG 0.00  A 
ATOM     62  CD1 PHE D   5      22.241  17.613  44.440  1.00 84.61 LIG 0.01  A 
ENDBRANCH 56 57
ENDBRANCH 44 56
ENDBRANCH 41 44
ENDBRANCH 39 40
BRANCH 39 63
ATOM     63  CB  LEU D   6      19.430  15.179  41.172  1.00 70.57 LIG 0.04  C 
BRANCH 63 64
ATOM     64  CG  LEU D   6      18.752  16.526  41.297  1.00 75.48 LIG-0.02  C 
ATOM     65  CD2 LEU D   6      17.964  16.605  42.531  1.00 78.97 LIG 0.01  C 
ATOM     66  CD1 LEU D   6      17.899  16.794  40.128  1.00 75.94 LIG 0.01  C 
ENDBRANCH 63 64
ENDBRANCH 39 63
ENDBRANCH 1 39
TORSDOF 25
ENDMDL
MODEL 28
USER: ADFR SOLUTION from run 13
USER: SCORE 23.522796 LL:  -7.182 LR: -16.980 RR:   0.000 FEB:  -9.523
USER: RMSD 12.706650
USER: SEED 43230
USER: STATUS 1 or 2 clusters left
USER: GENES 27
USER: genes 0 Translation |==|  0.51826 0.61564 0.49592
USER: genes 1 Rotation |==|  0.29353 0.83731 0.21121 0.60095
USER: genes 2 Torsion [N]-CA--C-[N] |==|  0.10788
USER: genes 3 Torsion [C]-N--CA-[C] |==|  0.69009
USER: genes 4 Torsion [N]-CA--CB-[CG] |==|  0.63759
USER: genes 5 Torsion [CA]-CB--CG-[CD1] |==|  0.70633
USER: genes 6 Torsion [N]-CA--C-[N] |==|  0.50684
USER: genes 7 Torsion [C]-N--CA-[CB] |==|  0.15518
USER: genes 8 Torsion [N]-CA--CB-[CG] |==|  0.18970
USER: genes 9 Torsion [CA]-CB--CG-[CD1] |==|  0.33567
USER: genes 10 Torsion [N]-CA--C-[N] |==|  0.11667
USER: genes 11 Torsion [C]-N--CA-[C] |==|  0.51386
USER: genes 12 Torsion [N]-CA--C-[O] |==|  0.96961
USER: genes 13 Torsion [N]-CA--CB-[OG] |==|  0.76739
USER: genes 14 Torsion [CA]-CB--OG-[HG] |==|  0.80826
USER: genes 15 Torsion [N]-C--CA-[N] |==|  0.11271
USER: genes 16 Torsion [C]-CA--N-[C] |==|  0.14626
USER: genes 17 Torsion [N]-C--CA-[N] |==|  0.48329
USER: genes 18 Torsion [C]-CA--N-[C] |==|  0.78946
USER: genes 19 Torsion [N]-C--CA-[N] |==|  0.57325
USER: genes 20 Torsion [C]-CA--CB-[CG] |==|  0.37920
USER: genes 21 Torsion [CA]-CB--CG-[CD] |==|  0.16496
USER: genes 22 Torsion [CB]-CG--CD-[OE1] |==|  0.47772
USER: genes 23 Torsion [C]-CA--CB-[CG] |==|  0.87479
USER: genes 24 Torsion [CA]-CB--CG-[CD2] |==|  0.75938
USER: genes 25 Torsion [C]-CA--CB-[CG] |==|  0.87159
USER: genes 26 Torsion [CA]-CB--CG-[CD2] |==|  0.67815
ROOT
ATOM      1  C   LEU D   6      18.496  14.000  42.591  1.00 70.97 LIG 0.24  C 
ATOM      2 O    LEU D   6      18.391  14.032  41.374  1.00 69.80 LIG-0.27  OA
ATOM      3  N   PRO D   7      18.560  12.842  43.270  1.00 67.36 LIG-0.34  N 
ATOM      4  CA  PRO D   7      18.503  11.580  42.537  1.00 66.95 LIG 0.18  C 
ATOM      5  CB  PRO D   7      19.403  10.653  43.369  1.00 69.23 LIG 0.04  C 
ATOM      6  CG  PRO D   7      19.482  11.294  44.759  1.00 73.99 LIG 0.02  C 
ATOM      7  CD  PRO D   7      18.732  12.601  44.717  1.00 69.55 LIG 0.13  C 
ENDROOT
BRANCH 4 8
ATOM      8  C   PRO D   7      17.078  11.044  42.425  1.00 67.39 LIG 0.24  C 
ATOM      9  N   LEU D   8      16.133  11.955  42.217  1.00 63.51 LIG-0.35  N 
ATOM     10 H    LEU D   8      16.285  12.801  42.192  1.00 63.51 LIG 0.16  HD
ATOM     11 O    PRO D   7      16.838   9.839  42.521  1.00 65.73 LIG-0.27  OA
BRANCH 9 12
ATOM     12  CA  LEU D   8      14.743  11.598  42.012  1.00 63.43 LIG 0.18  C 
BRANCH 12 13
ATOM     13  CB  LEU D   8      13.835  12.294  43.020  1.00 63.06 LIG 0.04  C 
BRANCH 13 14
ATOM     14  CG  LEU D   8      12.883  11.334  43.693  1.00 67.32 LIG-0.02  C 
ATOM     15  CD1 LEU D   8      11.503  11.499  43.167  1.00 66.57 LIG 0.01  C 
ATOM     16  CD2 LEU D   8      13.371   9.915  43.589  1.00 70.19 LIG 0.01  C 
ENDBRANCH 13 14
ENDBRANCH 12 13
BRANCH 12 17
ATOM     17  C   LEU D   8      14.336  11.899  40.587  1.00 69.22 LIG 0.24  C 
ATOM     18  N   PHE D   9      13.059  11.669  40.256  1.00 66.75 LIG-0.35  N 
ATOM     19 H    PHE D   9      12.475  11.362  40.808  1.00 66.75 LIG 0.16  HD
ATOM     20 O    LEU D   8      15.183  12.285  39.781  1.00 69.38 LIG-0.27  OA
BRANCH 18 21
ATOM     21  CA  PHE D   9      12.534  11.921  38.921  1.00 67.50 LIG 0.18  C 
BRANCH 21 22
ATOM     22  CB  PHE D   9      13.343  11.162  37.860  1.00 70.09 LIG 0.07  C 
BRANCH 22 23
ATOM     23  CG  PHE D   9      13.240   9.652  37.848  1.00 72.62 LIG-0.06  A 
ATOM     24  CD2 PHE D   9      13.507   8.914  38.995  1.00 75.26 LIG 0.01  A 
ATOM     25  CE2 PHE D   9      13.376   7.525  38.997  1.00 78.46 LIG 0.00  A 
ATOM     26  CZ  PHE D   9      12.973   6.867  37.853  1.00 76.95 LIG 0.00  A 
ATOM     27  CE1 PHE D   9      12.685   7.582  36.711  1.00 77.74 LIG 0.00  A 
ATOM     28  CD1 PHE D   9      12.785   8.973  36.720  1.00 76.53 LIG 0.01  A 
ENDBRANCH 22 23
ENDBRANCH 21 22
BRANCH 21 29
ATOM     29  C   PHE D   9      11.050  11.562  38.817  1.00 72.50 LIG 0.24  C 
ATOM     30 O    PHE D   9      10.627  10.961  37.827  1.00 71.57 LIG-0.27  OA
ATOM     31  N   SER D  10      10.259  11.916  39.848  1.00 70.70 LIG-0.34  N 
ATOM     32 H    SER D  10      10.547  12.315  40.552  1.00 70.70 LIG 0.16  HD
BRANCH 31 33
ATOM     33  CA  SER D  10       8.816  11.648  39.862  1.00110.54 LIG 0.19  C 
BRANCH 33 34
ATOM     34  C   SER D  10       8.150  12.264  41.094  1.00112.68 LIG 0.22  C 
ATOM     35 O    SER D  10       8.842  12.709  42.009  1.00 61.17 LIG-0.29  OA
ENDBRANCH 33 34
BRANCH 33 36
ATOM     36  CB  SER D  10       8.540  10.149  39.791  1.00114.99 LIG 0.20  C 
BRANCH 36 37
ATOM     37 OG   SER D  10       8.559   9.669  38.455  1.00125.63 LIG-0.40  OA
ATOM     38 HG   SER D  10       7.896   9.973  38.039  1.00125.63 LIG 0.21  HD
ENDBRANCH 36 37
ENDBRANCH 33 36
ENDBRANCH 31 33
ENDBRANCH 21 29
ENDBRANCH 18 21
ENDBRANCH 12 17
ENDBRANCH 9 12
ENDBRANCH 4 8
BRANCH 1 39
ATOM     39  CA  LEU D   6      18.510  15.284  43.373  1.00 70.47 LIG 0.18  C 
BRANCH 39 40
ATOM     40  N   LEU D   6      19.421  15.341  44.506  1.00 72.03 LIG-0.35  N 
ATOM     41  C   PHE D   5      20.711  15.043  44.357  1.00 78.51 LIG 0.24  C 
ATOM     42 O    PHE D   5      21.217  14.743  43.269  1.00 77.96 LIG-0.27  OA
ATOM     43 H    LEU D   6      19.059  15.576  45.249  1.00 72.03 LIG 0.16  HD
BRANCH 41 44
ATOM     44  CA  PHE D   5      21.528  14.969  45.627  1.00 78.26 LIG 0.18  C 
BRANCH 44 45
ATOM     45  N   PHE D   5      22.877  14.494  45.311  1.00 79.00 LIG-0.34  N 
ATOM     46 H    PHE D   5      23.482  15.106  45.314  1.00 79.00 LIG 0.16  HD
ATOM     47  C   GLU D   4      23.116  13.208  45.043  1.00 84.09 LIG 0.26  C 
ATOM     48 O    GLU D   4      22.255  12.334  45.134  1.00 84.89 LIG-0.27  OA
BRANCH 47 49
ATOM     49  CA  GLU D   4      24.522  12.826  44.618  1.00 80.59 LIG 0.40  C 
ATOM     50  N   GLU D   4      24.491  11.619  43.797  1.00 81.26 LIG 0.61  N 
BRANCH 49 51
ATOM     51  CB  GLU D   4      25.160  13.992  43.832  1.00 81.69 LIG 0.06  C 
BRANCH 51 52
ATOM     52  CG  GLU D   4      26.603  14.285  44.211  1.00 88.66 LIG 0.12  C 
BRANCH 52 53
ATOM     53  CD  GLU D   4      27.585  13.144  44.023  1.00 99.07 LIG 0.17  C 
ATOM     54 OE1  GLU D   4      28.809  13.366  44.172  1.00 74.80 LIG-0.65  OA
ATOM     55 OE2  GLU D   4      27.120  12.003  43.796  1.00 93.08 LIG-0.65  OA
ENDBRANCH 52 53
ENDBRANCH 51 52
ENDBRANCH 49 51
ENDBRANCH 47 49
ENDBRANCH 44 45
BRANCH 44 56
ATOM     56  CB  PHE D   5      21.512  16.253  46.462  1.00 80.27 LIG 0.07  C 
BRANCH 56 57
ATOM     57  CG  PHE D   5      21.709  17.493  45.620  1.00 81.89 LIG-0.06  A 
ATOM     58  CD2 PHE D   5      22.988  17.955  45.316  1.00 84.17 LIG 0.01  A 
ATOM     59  CE2 PHE D   5      23.171  19.107  44.546  1.00 86.81 LIG 0.00  A 
ATOM     60  CZ  PHE D   5      22.077  19.793  44.063  1.00 84.76 LIG 0.00  A 
ATOM     61  CE1 PHE D   5      20.803  19.357  44.363  1.00 85.59 LIG 0.00  A 
ATOM     62  CD1 PHE D   5      20.619  18.211  45.145  1.00 84.61 LIG 0.01  A 
ENDBRANCH 56 57
ENDBRANCH 44 56
ENDBRANCH 41 44
ENDBRANCH 39 40
BRANCH 39 63
ATOM     63  CB  LEU D   6      18.719  16.481  42.451  1.00 70.57 LIG 0.04  C 
BRANCH 63 64
ATOM     64  CG  LEU D   6      19.829  16.308  41.437  1.00 75.48 LIG-0.02  C 
ATOM     65  CD2 LEU D   6      20.910  17.270  41.671  1.00 78.97 LIG 0.01  C 
ATOM     66  CD1 LEU D   6      19.312  16.444  40.065  1.00 75.94 LIG 0.01  C 
ENDBRANCH 63 64
ENDBRANCH 39 63
ENDBRANCH 1 39
TORSDOF 25
ENDMDL
MODEL 29
USER: ADFR SOLUTION from run 37
USER: SCORE 22.345561 LL:  -6.874 LR: -16.978 RR:   0.000 FEB:  -9.520
USER: RMSD 12.948227
USER: SEED 36
USER: STATUS no improvement in best in 11 clusters for 5 generations
USER: GENES 27
USER: genes 0 Translation |==|  0.55141 0.57768 0.49954
USER: genes 1 Rotation |==|  0.57522 0.19632 0.88923 0.52487
USER: genes 2 Torsion [N]-CA--C-[N] |==|  0.48746
USER: genes 3 Torsion [C]-N--CA-[C] |==|  0.23063
USER: genes 4 Torsion [N]-CA--CB-[CG] |==|  0.62649
USER: genes 5 Torsion [CA]-CB--CG-[CD1] |==|  0.62367
USER: genes 6 Torsion [N]-CA--C-[N] |==|  0.44322
USER: genes 7 Torsion [C]-N--CA-[CB] |==|  0.15285
USER: genes 8 Torsion [N]-CA--CB-[CG] |==|  0.18950
USER: genes 9 Torsion [CA]-CB--CG-[CD1] |==|  0.31143
USER: genes 10 Torsion [N]-CA--C-[N] |==|  0.12302
USER: genes 11 Torsion [C]-N--CA-[C] |==|  0.52035
USER: genes 12 Torsion [N]-CA--C-[O] |==|  0.96317
USER: genes 13 Torsion [N]-CA--CB-[OG] |==|  0.74617
USER: genes 14 Torsion [CA]-CB--OG-[HG] |==|  0.10936
USER: genes 15 Torsion [N]-C--CA-[N] |==|  0.23482
USER: genes 16 Torsion [C]-CA--N-[C] |==|  0.62333
USER: genes 17 Torsion [N]-C--CA-[N] |==|  0.91683
USER: genes 18 Torsion [C]-CA--N-[C] |==|  0.83297
USER: genes 19 Torsion [N]-C--CA-[N] |==|  0.44920
USER: genes 20 Torsion [C]-CA--CB-[CG] |==|  0.57419
USER: genes 21 Torsion [CA]-CB--CG-[CD] |==|  0.85849
USER: genes 22 Torsion [CB]-CG--CD-[OE1] |==|  0.70196
USER: genes 23 Torsion [C]-CA--CB-[CG] |==|  0.54749
USER: genes 24 Torsion [CA]-CB--CG-[CD2] |==|  0.77638
USER: genes 25 Torsion [C]-CA--CB-[CG] |==|  0.14741
USER: genes 26 Torsion [CA]-CB--CG-[CD2] |==|  0.49917
ROOT
ATOM      1  C   LEU D   6      19.466  13.317  42.662  1.00 70.97 LIG 0.24  C 
ATOM      2 O    LEU D   6      19.396  12.835  41.542  1.00 69.80 LIG-0.27  OA
ATOM      3  N   PRO D   7      18.772  12.814  43.697  1.00 67.36 LIG-0.34  N 
ATOM      4  CA  PRO D   7      17.906  11.658  43.483  1.00 66.95 LIG 0.18  C 
ATOM      5  CB  PRO D   7      18.001  10.900  44.817  1.00 69.23 LIG 0.04  C 
ATOM      6  CG  PRO D   7      18.486  11.930  45.843  1.00 73.99 LIG 0.02  C 
ATOM      7  CD  PRO D   7      18.758  13.223  45.117  1.00 69.55 LIG 0.13  C 
ENDROOT
BRANCH 4 8
ATOM      8  C   PRO D   7      16.472  12.065  43.157  1.00 67.39 LIG 0.24  C 
ATOM      9  N   LEU D   8      15.643  11.071  42.856  1.00 63.51 LIG-0.35  N 
ATOM     10 H    LEU D   8      15.889  10.248  42.797  1.00 63.51 LIG 0.16  HD
ATOM     11 O    PRO D   7      16.121  13.246  43.178  1.00 65.73 LIG-0.27  OA
BRANCH 9 12
ATOM     12  CA  LEU D   8      14.233  11.286  42.599  1.00 63.43 LIG 0.18  C 
BRANCH 12 13
ATOM     13  CB  LEU D   8      13.633  12.287  43.580  1.00 63.06 LIG 0.04  C 
BRANCH 13 14
ATOM     14  CG  LEU D   8      12.309  11.822  44.137  1.00 67.32 LIG-0.02  C 
ATOM     15  CD1 LEU D   8      11.316  12.928  44.138  1.00 66.57 LIG 0.01  C 
ATOM     16  CD2 LEU D   8      11.808  10.602  43.414  1.00 70.19 LIG 0.01  C 
ENDBRANCH 13 14
ENDBRANCH 12 13
BRANCH 12 17
ATOM     17  C   LEU D   8      14.028  11.714  41.162  1.00 69.22 LIG 0.24  C 
ATOM     18  N   PHE D   9      12.804  11.549  40.646  1.00 66.75 LIG-0.35  N 
ATOM     19 H    PHE D   9      12.145  11.214  41.086  1.00 66.75 LIG 0.16  HD
ATOM     20 O    LEU D   8      14.983  12.140  40.513  1.00 69.38 LIG-0.27  OA
BRANCH 18 21
ATOM     21  CA  PHE D   9      12.470  11.924  39.279  1.00 67.50 LIG 0.18  C 
BRANCH 21 22
ATOM     22  CB  PHE D   9      13.415  11.248  38.277  1.00 70.09 LIG 0.07  C 
BRANCH 22 23
ATOM     23  CG  PHE D   9      13.311   9.746  38.118  1.00 72.62 LIG-0.06  A 
ATOM     24  CD2 PHE D   9      13.593   8.899  39.183  1.00 75.26 LIG 0.01  A 
ATOM     25  CE2 PHE D   9      13.461   7.518  39.051  1.00 78.46 LIG 0.00  A 
ATOM     26  CZ  PHE D   9      13.041   6.974  37.854  1.00 76.95 LIG 0.00  A 
ATOM     27  CE1 PHE D   9      12.738   7.797  36.792  1.00 77.74 LIG 0.00  A 
ATOM     28  CD1 PHE D   9      12.839   9.181  36.935  1.00 76.53 LIG 0.01  A 
ENDBRANCH 22 23
ENDBRANCH 21 22
BRANCH 21 29
ATOM     29  C   PHE D   9      11.013  11.599  38.941  1.00 72.50 LIG 0.24  C 
ATOM     30 O    PHE D   9      10.733  11.055  37.870  1.00 71.57 LIG-0.27  OA
ATOM     31  N   SER D  10      10.083  11.917  39.861  1.00 70.70 LIG-0.34  N 
ATOM     32 H    SER D  10      10.269  12.277  40.620  1.00 70.70 LIG 0.16  HD
BRANCH 31 33
ATOM     33  CA  SER D  10       8.651  11.676  39.651  1.00110.54 LIG 0.19  C 
BRANCH 33 34
ATOM     34  C   SER D  10       7.814  12.294  40.772  1.00112.68 LIG 0.22  C 
ATOM     35 O    SER D  10       8.360  12.680  41.806  1.00 61.17 LIG-0.29  OA
ENDBRANCH 33 34
BRANCH 33 36
ATOM     36  CB  SER D  10       8.363  10.183  39.521  1.00114.99 LIG 0.20  C 
BRANCH 36 37
ATOM     37 OG   SER D  10       8.410   9.749  38.171  1.00125.63 LIG-0.40  OA
ATOM     38 HG   SER D  10       9.042  10.135  37.775  1.00125.63 LIG 0.21  HD
ENDBRANCH 36 37
ENDBRANCH 33 36
ENDBRANCH 31 33
ENDBRANCH 21 29
ENDBRANCH 18 21
ENDBRANCH 12 17
ENDBRANCH 9 12
ENDBRANCH 4 8
BRANCH 1 39
ATOM     39  CA  LEU D   6      20.313  14.536  42.900  1.00 70.47 LIG 0.18  C 
BRANCH 39 40
ATOM     40  N   LEU D   6      21.648  14.303  43.427  1.00 72.03 LIG-0.35  N 
ATOM     41  C   PHE D   5      22.129  15.052  44.417  1.00 78.51 LIG 0.24  C 
ATOM     42 O    PHE D   5      21.478  15.948  44.968  1.00 77.96 LIG-0.27  OA
ATOM     43 H    LEU D   6      22.078  13.660  43.050  1.00 72.03 LIG 0.16  HD
BRANCH 41 44
ATOM     44  CA  PHE D   5      23.583  14.836  44.770  1.00 78.26 LIG 0.18  C 
BRANCH 44 45
ATOM     45  N   PHE D   5      23.952  13.447  44.484  1.00 79.00 LIG-0.34  N 
ATOM     46 H    PHE D   5      24.584  13.356  43.907  1.00 79.00 LIG 0.16  HD
ATOM     47  C   GLU D   4      23.336  12.427  45.087  1.00 84.09 LIG 0.26  C 
ATOM     48 O    GLU D   4      22.500  12.580  45.976  1.00 84.89 LIG-0.27  OA
BRANCH 47 49
ATOM     49  CA  GLU D   4      23.706  11.022  44.649  1.00 80.59 LIG 0.40  C 
ATOM     50  N   GLU D   4      23.296  10.053  45.661  1.00 81.26 LIG 0.61  N 
BRANCH 49 51
ATOM     51  CB  GLU D   4      23.027  10.705  43.298  1.00 81.69 LIG 0.06  C 
BRANCH 51 52
ATOM     52  CG  GLU D   4      22.771   9.225  43.060  1.00 88.66 LIG 0.12  C 
BRANCH 52 53
ATOM     53  CD  GLU D   4      23.960   8.303  43.263  1.00 99.07 LIG 0.17  C 
ATOM     54 OE1  GLU D   4      24.511   7.795  42.259  1.00 74.80 LIG-0.65  OA
ATOM     55 OE2  GLU D   4      24.386   8.147  44.430  1.00 93.08 LIG-0.65  OA
ENDBRANCH 52 53
ENDBRANCH 51 52
ENDBRANCH 49 51
ENDBRANCH 47 49
ENDBRANCH 44 45
BRANCH 44 56
ATOM     56  CB  PHE D   5      24.540  15.861  44.155  1.00 80.27 LIG 0.07  C 
BRANCH 56 57
ATOM     57  CG  PHE D   5      25.978  15.395  44.176  1.00 81.89 LIG-0.06  A 
ATOM     58  CD2 PHE D   5      26.749  15.506  45.332  1.00 84.17 LIG 0.01  A 
ATOM     59  CE2 PHE D   5      28.082  15.085  45.349  1.00 86.81 LIG 0.00  A 
ATOM     60  CZ  PHE D   5      28.646  14.537  44.217  1.00 84.76 LIG 0.00  A 
ATOM     61  CE1 PHE D   5      27.901  14.430  43.060  1.00 85.59 LIG 0.00  A 
ATOM     62  CD1 PHE D   5      26.571  14.863  43.038  1.00 84.61 LIG 0.01  A 
ENDBRANCH 56 57
ENDBRANCH 44 56
ENDBRANCH 41 44
ENDBRANCH 39 40
BRANCH 39 63
ATOM     63  CB  LEU D   6      20.370  15.411  41.652  1.00 70.57 LIG 0.04  C 
BRANCH 63 64
ATOM     64  CG  LEU D   6      19.018  15.785  41.083  1.00 75.48 LIG-0.02  C 
ATOM     65  CD2 LEU D   6      19.164  16.630  39.893  1.00 78.97 LIG 0.01  C 
ATOM     66  CD1 LEU D   6      18.194  16.466  42.095  1.00 75.94 LIG 0.01  C 
ENDBRANCH 63 64
ENDBRANCH 39 63
ENDBRANCH 1 39
TORSDOF 25
ENDMDL
MODEL 30
USER: ADFR SOLUTION from run 87
USER: SCORE 23.029886 LL:  -6.551 LR: -16.933 RR:   0.000 FEB:  -9.475
USER: RMSD 13.122566
USER: SEED 86
USER: STATUS no improvement in best in 13 clusters for 5 generations
USER: GENES 27
USER: genes 0 Translation |==|  0.56145 0.53018 0.54375
USER: genes 1 Rotation |==|  0.48302 0.20021 0.89966 0.51021
USER: genes 2 Torsion [N]-CA--C-[N] |==|  0.37992
USER: genes 3 Torsion [C]-N--CA-[C] |==|  0.77666
USER: genes 4 Torsion [N]-CA--CB-[CG] |==|  0.48632
USER: genes 5 Torsion [CA]-CB--CG-[CD1] |==|  0.15716
USER: genes 6 Torsion [N]-CA--C-[N] |==|  0.37956
USER: genes 7 Torsion [C]-N--CA-[CB] |==|  0.85745
USER: genes 8 Torsion [N]-CA--CB-[CG] |==|  0.87307
USER: genes 9 Torsion [CA]-CB--CG-[CD1] |==|  0.84248
USER: genes 10 Torsion [N]-CA--C-[N] |==|  0.35737
USER: genes 11 Torsion [C]-N--CA-[C] |==|  0.73882
USER: genes 12 Torsion [N]-CA--C-[O] |==|  0.10412
USER: genes 13 Torsion [N]-CA--CB-[OG] |==|  0.69059
USER: genes 14 Torsion [CA]-CB--OG-[HG] |==|  0.92678
USER: genes 15 Torsion [N]-C--CA-[N] |==|  0.39029
USER: genes 16 Torsion [C]-CA--N-[C] |==|  0.58699
USER: genes 17 Torsion [N]-C--CA-[N] |==|  0.44939
USER: genes 18 Torsion [C]-CA--N-[C] |==|  0.63516
USER: genes 19 Torsion [N]-C--CA-[N] |==|  0.88739
USER: genes 20 Torsion [C]-CA--CB-[CG] |==|  0.97885
USER: genes 21 Torsion [CA]-CB--CG-[CD] |==|  0.28419
USER: genes 22 Torsion [CB]-CG--CD-[OE1] |==|  0.38508
USER: genes 23 Torsion [C]-CA--CB-[CG] |==|  0.05245
USER: genes 24 Torsion [CA]-CB--CG-[CD2] |==|  0.75136
USER: genes 25 Torsion [C]-CA--CB-[CG] |==|  0.04084
USER: genes 26 Torsion [CA]-CB--CG-[CD2] |==|  0.70011
ROOT
ATOM      1  C   LEU D   6      19.759  12.462  43.524  1.00 70.97 LIG 0.24  C 
ATOM      2 O    LEU D   6      19.965  11.916  42.451  1.00 69.80 LIG-0.27  OA
ATOM      3  N   PRO D   7      18.694  12.158  44.284  1.00 67.36 LIG-0.34  N 
ATOM      4  CA  PRO D   7      17.750  11.146  43.820  1.00 66.95 LIG 0.18  C 
ATOM      5  CB  PRO D   7      17.278  10.484  45.124  1.00 69.23 LIG 0.04  C 
ATOM      6  CG  PRO D   7      17.587  11.495  46.234  1.00 73.99 LIG 0.02  C 
ATOM      7  CD  PRO D   7      18.303  12.668  45.614  1.00 69.55 LIG 0.13  C 
ENDROOT
BRANCH 4 8
ATOM      8  C   PRO D   7      16.591  11.756  43.036  1.00 67.39 LIG 0.24  C 
ATOM      9  N   LEU D   8      16.241  11.112  41.928  1.00 63.51 LIG-0.35  N 
ATOM     10 H    LEU D   8      16.657  10.422  41.627  1.00 63.51 LIG 0.16  HD
ATOM     11 O    PRO D   7      16.025  12.780  43.423  1.00 65.73 LIG-0.27  OA
BRANCH 9 12
ATOM     12  CA  LEU D   8      15.112  11.521  41.116  1.00 63.43 LIG 0.18  C 
BRANCH 12 13
ATOM     13  CB  LEU D   8      15.273  11.068  39.669  1.00 63.06 LIG 0.04  C 
BRANCH 13 14
ATOM     14  CG  LEU D   8      14.056  11.379  38.831  1.00 67.32 LIG-0.02  C 
ATOM     15  CD1 LEU D   8      13.738  12.830  38.874  1.00 66.57 LIG 0.01  C 
ATOM     16  CD2 LEU D   8      14.212  10.867  37.425  1.00 70.19 LIG 0.01  C 
ENDBRANCH 13 14
ENDBRANCH 12 13
BRANCH 12 17
ATOM     17  C   LEU D   8      13.824  11.013  41.725  1.00 69.22 LIG 0.24  C 
ATOM     18  N   PHE D   9      12.790  11.863  41.763  1.00 66.75 LIG-0.35  N 
ATOM     19 H    PHE D   9      12.829  12.669  41.466  1.00 66.75 LIG 0.16  HD
ATOM     20 O    LEU D   8      13.783   9.879  42.202  1.00 69.38 LIG-0.27  OA
BRANCH 18 21
ATOM     21  CA  PHE D   9      11.493  11.500  42.317  1.00 67.50 LIG 0.18  C 
BRANCH 21 22
ATOM     22  CB  PHE D   9      10.982  10.188  41.706  1.00 70.09 LIG 0.07  C 
BRANCH 22 23
ATOM     23  CG  PHE D   9      11.087  10.026  40.205  1.00 72.62 LIG-0.06  A 
ATOM     24  CD2 PHE D   9      11.691   8.901  39.654  1.00 75.26 LIG 0.01  A 
ATOM     25  CE2 PHE D   9      11.755   8.731  38.271  1.00 78.46 LIG 0.00  A 
ATOM     26  CZ  PHE D   9      11.212   9.682  37.431  1.00 76.95 LIG 0.00  A 
ATOM     27  CE1 PHE D   9      10.593  10.794  37.957  1.00 77.74 LIG 0.00  A 
ATOM     28  CD1 PHE D   9      10.500  10.948  39.341  1.00 76.53 LIG 0.01  A 
ENDBRANCH 22 23
ENDBRANCH 21 22
BRANCH 21 29
ATOM     29  C   PHE D   9      11.535  11.397  43.843  1.00 72.50 LIG 0.24  C 
ATOM     30 O    PHE D   9      12.408  10.721  44.393  1.00 71.57 LIG-0.27  OA
ATOM     31  N   SER D  10      10.602  12.080  44.531  1.00 70.70 LIG-0.34  N 
ATOM     32 H    SER D  10      10.002  12.572  44.159  1.00 70.70 LIG 0.16  HD
BRANCH 31 33
ATOM     33  CA  SER D  10      10.521  12.048  45.996  1.00110.54 LIG 0.19  C 
BRANCH 33 34
ATOM     34  C   SER D  10       9.538  10.978  46.474  1.00112.68 LIG 0.22  C 
ATOM     35 O    SER D  10       9.463   9.903  45.879  1.00 61.17 LIG-0.29  OA
ENDBRANCH 33 34
BRANCH 33 36
ATOM     36  CB  SER D  10      10.140  13.418  46.551  1.00114.99 LIG 0.20  C 
BRANCH 36 37
ATOM     37 OG   SER D  10      11.211  14.018  47.262  1.00125.63 LIG-0.40  OA
ATOM     38 HG   SER D  10      11.718  13.419  47.564  1.00125.63 LIG 0.21  HD
ENDBRANCH 36 37
ENDBRANCH 33 36
ENDBRANCH 31 33
ENDBRANCH 21 29
ENDBRANCH 18 21
ENDBRANCH 12 17
ENDBRANCH 9 12
ENDBRANCH 4 8
BRANCH 1 39
ATOM     39  CA  LEU D   6      20.690  13.541  44.004  1.00 70.47 LIG 0.18  C 
BRANCH 39 40
ATOM     40  N   LEU D   6      22.110  13.309  43.795  1.00 72.03 LIG-0.35  N 
ATOM     41  C   PHE D   5      23.012  13.795  44.647  1.00 78.51 LIG 0.24  C 
ATOM     42 O    PHE D   5      22.709  14.427  45.667  1.00 77.96 LIG-0.27  OA
ATOM     43 H    LEU D   6      22.302  12.846  43.097  1.00 72.03 LIG 0.16  HD
BRANCH 41 44
ATOM     44  CA  PHE D   5      24.461  13.641  44.244  1.00 78.26 LIG 0.18  C 
BRANCH 44 45
ATOM     45  N   PHE D   5      25.283  14.573  45.020  1.00 79.00 LIG-0.34  N 
ATOM     46 H    PHE D   5      25.133  14.562  45.867  1.00 79.00 LIG 0.16  HD
ATOM     47  C   GLU D   4      26.185  15.360  44.429  1.00 84.09 LIG 0.26  C 
ATOM     48 O    GLU D   4      26.450  15.294  43.230  1.00 84.89 LIG-0.27  OA
BRANCH 47 49
ATOM     49  CA  GLU D   4      26.913  16.372  45.296  1.00 80.59 LIG 0.40  C 
ATOM     50  N   GLU D   4      25.988  16.979  46.248  1.00 81.26 LIG 0.61  N 
BRANCH 49 51
ATOM     51  CB  GLU D   4      28.070  15.673  46.044  1.00 81.69 LIG 0.06  C 
BRANCH 51 52
ATOM     52  CG  GLU D   4      28.090  14.161  45.890  1.00 88.66 LIG 0.12  C 
BRANCH 52 53
ATOM     53  CD  GLU D   4      29.108  13.606  44.910  1.00 99.07 LIG 0.17  C 
ATOM     54 OE1  GLU D   4      29.746  12.572  45.218  1.00 74.80 LIG-0.65  OA
ATOM     55 OE2  GLU D   4      29.214  14.169  43.796  1.00 93.08 LIG-0.65  OA
ENDBRANCH 52 53
ENDBRANCH 51 52
ENDBRANCH 49 51
ENDBRANCH 47 49
ENDBRANCH 44 45
BRANCH 44 56
ATOM     56  CB  PHE D   5      24.973  12.198  44.278  1.00 80.27 LIG 0.07  C 
BRANCH 56 57
ATOM     57  CG  PHE D   5      23.852  11.185  44.260  1.00 81.89 LIG-0.06  A 
ATOM     58  CD2 PHE D   5      23.281  10.730  45.447  1.00 84.17 LIG 0.01  A 
ATOM     59  CE2 PHE D   5      22.250   9.785  45.431  1.00 86.81 LIG 0.00  A 
ATOM     60  CZ  PHE D   5      21.776   9.303  44.230  1.00 84.76 LIG 0.00  A 
ATOM     61  CE1 PHE D   5      22.337   9.734  43.046  1.00 85.59 LIG 0.00  A 
ATOM     62  CD1 PHE D   5      23.377  10.670  43.061  1.00 84.61 LIG 0.01  A 
ENDBRANCH 56 57
ENDBRANCH 44 56
ENDBRANCH 41 44
ENDBRANCH 39 40
BRANCH 39 63
ATOM     63  CB  LEU D   6      20.278  14.901  43.450  1.00 70.57 LIG 0.04  C 
BRANCH 63 64
ATOM     64  CG  LEU D   6      18.885  14.945  42.861  1.00 75.48 LIG-0.02  C 
ATOM     65  CD2 LEU D   6      18.934  15.041  41.399  1.00 78.97 LIG 0.01  C 
ATOM     66  CD1 LEU D   6      18.115  16.068  43.422  1.00 75.94 LIG 0.01  C 
ENDBRANCH 63 64
ENDBRANCH 39 63
ENDBRANCH 1 39
TORSDOF 25
ENDMDL
MODEL 31
USER: ADFR SOLUTION from run 45
USER: SCORE 21.569094 LL:  -6.697 LR: -16.919 RR:   0.000 FEB:  -9.461
USER: RMSD 12.853328
USER: SEED 44
USER: STATUS no improvement in best in 20 clusters for 5 generations
USER: GENES 27
USER: genes 0 Translation |==|  0.47926 0.54563 0.46776
USER: genes 1 Rotation |==|  0.59441 0.18227 0.87429 0.50639
USER: genes 2 Torsion [N]-CA--C-[N] |==|  0.55397
USER: genes 3 Torsion [C]-N--CA-[C] |==|  0.21333
USER: genes 4 Torsion [N]-CA--CB-[CG] |==|  0.54204
USER: genes 5 Torsion [CA]-CB--CG-[CD1] |==|  0.72430
USER: genes 6 Torsion [N]-CA--C-[N] |==|  0.81286
USER: genes 7 Torsion [C]-N--CA-[CB] |==|  0.76189
USER: genes 8 Torsion [N]-CA--CB-[CG] |==|  0.20365
USER: genes 9 Torsion [CA]-CB--CG-[CD1] |==|  0.79431
USER: genes 10 Torsion [N]-CA--C-[N] |==|  0.22528
USER: genes 11 Torsion [C]-N--CA-[C] |==|  0.17158
USER: genes 12 Torsion [N]-CA--C-[O] |==|  0.77191
USER: genes 13 Torsion [N]-CA--CB-[OG] |==|  0.75347
USER: genes 14 Torsion [CA]-CB--OG-[HG] |==|  0.44933
USER: genes 15 Torsion [N]-C--CA-[N] |==|  0.14686
USER: genes 16 Torsion [C]-CA--N-[C] |==|  0.15177
USER: genes 17 Torsion [N]-C--CA-[N] |==|  0.59435
USER: genes 18 Torsion [C]-CA--N-[C] |==|  0.53333
USER: genes 19 Torsion [N]-C--CA-[N] |==|  0.77752
USER: genes 20 Torsion [C]-CA--CB-[CG] |==|  0.34037
USER: genes 21 Torsion [CA]-CB--CG-[CD] |==|  0.15748
USER: genes 22 Torsion [CB]-CG--CD-[OE1] |==|  0.98572
USER: genes 23 Torsion [C]-CA--CB-[CG] |==|  0.84572
USER: genes 24 Torsion [CA]-CB--CG-[CD2] |==|  0.39418
USER: genes 25 Torsion [C]-CA--CB-[CG] |==|  0.40377
USER: genes 26 Torsion [CA]-CB--CG-[CD2] |==|  0.36185
ROOT
ATOM      1  C   LEU D   6      17.355  12.740  42.042  1.00 70.97 LIG 0.24  C 
ATOM      2 O    LEU D   6      17.302  12.361  40.882  1.00 69.80 LIG-0.27  OA
ATOM      3  N   PRO D   7      16.737  12.080  43.036  1.00 67.36 LIG-0.34  N 
ATOM      4  CA  PRO D   7      15.975  10.873  42.726  1.00 66.95 LIG 0.18  C 
ATOM      5  CB  PRO D   7      16.173  10.005  43.980  1.00 69.23 LIG 0.04  C 
ATOM      6  CG  PRO D   7      16.587  10.976  45.091  1.00 73.99 LIG 0.02  C 
ATOM      7  CD  PRO D   7      16.722  12.351  44.488  1.00 69.55 LIG 0.13  C 
ENDROOT
BRANCH 4 8
ATOM      8  C   PRO D   7      14.502  11.173  42.464  1.00 67.39 LIG 0.24  C 
ATOM      9  N   LEU D   8      13.674  10.140  42.573  1.00 63.51 LIG-0.35  N 
ATOM     10 H    LEU D   8      13.935   9.336  42.732  1.00 63.51 LIG 0.16  HD
ATOM     11 O    PRO D   7      14.122  12.309  42.174  1.00 65.73 LIG-0.27  OA
BRANCH 9 12
ATOM     12  CA  LEU D   8      12.239  10.277  42.430  1.00 63.43 LIG 0.18  C 
BRANCH 12 13
ATOM     13  CB  LEU D   8      11.704  11.441  43.257  1.00 63.06 LIG 0.04  C 
BRANCH 13 14
ATOM     14  CG  LEU D   8      10.204  11.388  43.422  1.00 67.32 LIG-0.02  C 
ATOM     15  CD1 LEU D   8       9.532  12.299  42.459  1.00 66.57 LIG 0.01  C 
ATOM     16  CD2 LEU D   8       9.692   9.976  43.331  1.00 70.19 LIG 0.01  C 
ENDBRANCH 13 14
ENDBRANCH 12 13
BRANCH 12 17
ATOM     17  C   LEU D   8      11.873  10.411  40.968  1.00 69.22 LIG 0.24  C 
ATOM     18  N   PHE D   9      12.266  11.527  40.341  1.00 66.75 LIG-0.35  N 
ATOM     19 H    PHE D   9      12.705  12.158  40.728  1.00 66.75 LIG 0.16  HD
ATOM     20 O    LEU D   8      11.197   9.536  40.428  1.00 69.38 LIG-0.27  OA
BRANCH 18 21
ATOM     21  CA  PHE D   9      11.986  11.780  38.935  1.00 67.50 LIG 0.18  C 
BRANCH 21 22
ATOM     22  CB  PHE D   9      13.058  11.147  38.038  1.00 70.09 LIG 0.07  C 
BRANCH 22 23
ATOM     23  CG  PHE D   9      13.044   9.641  37.883  1.00 72.62 LIG-0.06  A 
ATOM     24  CD2 PHE D   9      12.691   9.057  36.672  1.00 75.26 LIG 0.01  A 
ATOM     25  CE2 PHE D   9      12.713   7.672  36.514  1.00 78.46 LIG 0.00  A 
ATOM     26  CZ  PHE D   9      13.094   6.863  37.565  1.00 76.95 LIG 0.00  A 
ATOM     27  CE1 PHE D   9      13.466   7.422  38.767  1.00 77.74 LIG 0.00  A 
ATOM     28  CD1 PHE D   9      13.474   8.810  38.914  1.00 76.53 LIG 0.01  A 
ENDBRANCH 22 23
ENDBRANCH 21 22
BRANCH 21 29
ATOM     29  C   PHE D   9      10.595  11.282  38.534  1.00 72.50 LIG 0.24  C 
ATOM     30 O    PHE D   9      10.465  10.188  37.981  1.00 71.57 LIG-0.27  OA
ATOM     31  N   SER D  10       9.550  12.079  38.828  1.00 70.70 LIG-0.34  N 
ATOM     32 H    SER D  10       9.626  12.833  39.232  1.00 70.70 LIG 0.16  HD
BRANCH 31 33
ATOM     33  CA  SER D  10       8.168  11.727  38.480  1.00110.54 LIG 0.19  C 
BRANCH 33 34
ATOM     34  C   SER D  10       7.731  10.438  39.178  1.00112.68 LIG 0.22  C 
ATOM     35 O    SER D  10       8.038   9.345  38.701  1.00 61.17 LIG-0.29  OA
ENDBRANCH 33 34
BRANCH 33 36
ATOM     36  CB  SER D  10       8.002  11.605  36.967  1.00114.99 LIG 0.20  C 
BRANCH 36 37
ATOM     37 OG   SER D  10       7.664  12.847  36.370  1.00125.63 LIG-0.40  OA
ATOM     38 HG   SER D  10       7.821  12.813  35.545  1.00125.63 LIG 0.21  HD
ENDBRANCH 36 37
ENDBRANCH 33 36
ENDBRANCH 31 33
ENDBRANCH 21 29
ENDBRANCH 18 21
ENDBRANCH 12 17
ENDBRANCH 9 12
ENDBRANCH 4 8
BRANCH 1 39
ATOM     39  CA  LEU D   6      18.093  14.005  42.381  1.00 70.47 LIG 0.18  C 
BRANCH 39 40
ATOM     40  N   LEU D   6      19.071  13.916  43.454  1.00 72.03 LIG-0.35  N 
ATOM     41  C   PHE D   5      20.048  13.011  43.411  1.00 78.51 LIG 0.24  C 
ATOM     42 O    PHE D   5      20.210  12.233  42.463  1.00 77.96 LIG-0.27  OA
ATOM     43 H    LEU D   6      18.959  14.481  44.093  1.00 72.03 LIG 0.16  HD
BRANCH 41 44
ATOM     44  CA  PHE D   5      20.902  12.893  44.653  1.00 78.26 LIG 0.18  C 
BRANCH 44 45
ATOM     45  N   PHE D   5      22.277  12.567  44.268  1.00 79.00 LIG-0.34  N 
ATOM     46 H    PHE D   5      22.443  12.649  43.428  1.00 79.00 LIG 0.16  HD
ATOM     47  C   GLU D   4      23.177  12.176  45.174  1.00 84.09 LIG 0.26  C 
ATOM     48 O    GLU D   4      22.947  12.153  46.381  1.00 84.89 LIG-0.27  OA
BRANCH 47 49
ATOM     49  CA  GLU D   4      24.545  11.753  44.670  1.00 80.59 LIG 0.40  C 
ATOM     50  N   GLU D   4      24.496  10.384  44.165  1.00 81.26 LIG 0.61  N 
BRANCH 49 51
ATOM     51  CB  GLU D   4      25.008  12.718  43.555  1.00 81.69 LIG 0.06  C 
BRANCH 51 52
ATOM     52  CG  GLU D   4      26.334  13.404  43.836  1.00 88.66 LIG 0.12  C 
BRANCH 52 53
ATOM     53  CD  GLU D   4      27.515  12.488  44.100  1.00 99.07 LIG 0.17  C 
ATOM     54 OE1  GLU D   4      27.320  11.252  44.171  1.00 74.80 LIG-0.65  OA
ATOM     55 OE2  GLU D   4      28.654  13.005  44.165  1.00 93.08 LIG-0.65  OA
ENDBRANCH 52 53
ENDBRANCH 51 52
ENDBRANCH 49 51
ENDBRANCH 47 49
ENDBRANCH 44 45
BRANCH 44 56
ATOM     56  CB  PHE D   5      20.800  14.089  45.603  1.00 80.27 LIG 0.07  C 
BRANCH 56 57
ATOM     57  CG  PHE D   5      21.121  15.399  44.920  1.00 81.89 LIG-0.06  A 
ATOM     58  CD2 PHE D   5      20.411  16.559  45.228  1.00 84.17 LIG 0.01  A 
ATOM     59  CE2 PHE D   5      20.701  17.768  44.589  1.00 86.81 LIG 0.00  A 
ATOM     60  CZ  PHE D   5      21.710  17.828  43.652  1.00 84.76 LIG 0.00  A 
ATOM     61  CE1 PHE D   5      22.416  16.688  43.328  1.00 85.59 LIG 0.00  A 
ATOM     62  CD1 PHE D   5      22.119  15.474  43.957  1.00 84.61 LIG 0.01  A 
ENDBRANCH 56 57
ENDBRANCH 44 56
ENDBRANCH 41 44
ENDBRANCH 39 40
BRANCH 39 63
ATOM     63  CB  LEU D   6      18.716  14.623  41.134  1.00 70.57 LIG 0.04  C 
BRANCH 63 64
ATOM     64  CG  LEU D   6      18.738  16.137  41.125  1.00 75.48 LIG-0.02  C 
ATOM     65  CD2 LEU D   6      20.073  16.641  40.791  1.00 78.97 LIG 0.01  C 
ATOM     66  CD1 LEU D   6      18.298  16.675  42.423  1.00 75.94 LIG 0.01  C 
ENDBRANCH 63 64
ENDBRANCH 39 63
ENDBRANCH 1 39
TORSDOF 25
ENDMDL
MODEL 32
USER: ADFR SOLUTION from run 138
USER: SCORE 22.124650 LL:  -6.597 LR: -16.887 RR:   0.000 FEB:  -9.429
USER: RMSD 4.143735
USER: SEED 137
USER: STATUS no improvement in best in 8 clusters for 5 generations
USER: GENES 27
USER: genes 0 Translation |==|  0.37724 0.48078 0.47319
USER: genes 1 Rotation |==|  0.49770 0.49901 0.52355 0.99944
USER: genes 2 Torsion [N]-CA--C-[N] |==|  0.44321
USER: genes 3 Torsion [C]-N--CA-[C] |==|  0.65198
USER: genes 4 Torsion [N]-CA--CB-[CG] |==|  0.63900
USER: genes 5 Torsion [CA]-CB--CG-[CD1] |==|  0.38030
USER: genes 6 Torsion [N]-CA--C-[N] |==|  0.37900
USER: genes 7 Torsion [C]-N--CA-[CB] |==|  0.21667
USER: genes 8 Torsion [N]-CA--CB-[CG] |==|  0.07482
USER: genes 9 Torsion [CA]-CB--CG-[CD1] |==|  0.20715
USER: genes 10 Torsion [N]-CA--C-[N] |==|  0.59079
USER: genes 11 Torsion [C]-N--CA-[C] |==|  0.51430
USER: genes 12 Torsion [N]-CA--C-[O] |==|  0.49512
USER: genes 13 Torsion [N]-CA--CB-[OG] |==|  0.62489
USER: genes 14 Torsion [CA]-CB--OG-[HG] |==|  0.53403
USER: genes 15 Torsion [N]-C--CA-[N] |==|  0.44450
USER: genes 16 Torsion [C]-CA--N-[C] |==|  0.56000
USER: genes 17 Torsion [N]-C--CA-[N] |==|  0.90387
USER: genes 18 Torsion [C]-CA--N-[C] |==|  0.79474
USER: genes 19 Torsion [N]-C--CA-[N] |==|  0.36508
USER: genes 20 Torsion [C]-CA--CB-[CG] |==|  0.40070
USER: genes 21 Torsion [CA]-CB--CG-[CD] |==|  0.07809
USER: genes 22 Torsion [CB]-CG--CD-[OE1] |==|  0.12219
USER: genes 23 Torsion [C]-CA--CB-[CG] |==|  0.42980
USER: genes 24 Torsion [CA]-CB--CG-[CD2] |==|  0.50031
USER: genes 25 Torsion [C]-CA--CB-[CG] |==|  0.68094
USER: genes 26 Torsion [CA]-CB--CG-[CD2] |==|  0.55892
ROOT
ATOM      1  C   LEU D   6      14.371  11.573  42.148  1.00 70.97 LIG 0.24  C 
ATOM      2 O    LEU D   6      14.047  12.735  42.344  1.00 69.80 LIG-0.27  OA
ATOM      3  N   PRO D   7      15.443  11.024  42.745  1.00 67.36 LIG-0.34  N 
ATOM      4  CA  PRO D   7      16.248  11.834  43.655  1.00 66.95 LIG 0.18  C 
ATOM      5  CB  PRO D   7      16.725  10.813  44.701  1.00 69.23 LIG 0.04  C 
ATOM      6  CG  PRO D   7      16.589   9.442  44.029  1.00 73.99 LIG 0.02  C 
ATOM      7  CD  PRO D   7      15.963   9.643  42.673  1.00 69.55 LIG 0.13  C 
ENDROOT
BRANCH 4 8
ATOM      8  C   PRO D   7      17.415  12.512  42.943  1.00 67.39 LIG 0.24  C 
ATOM      9  N   LEU D   8      17.933  13.568  43.560  1.00 63.51 LIG-0.35  N 
ATOM     10 H    LEU D   8      17.617  13.895  44.290  1.00 63.51 LIG 0.16  HD
ATOM     11 O    PRO D   7      17.839  12.091  41.865  1.00 65.73 LIG-0.27  OA
BRANCH 9 12
ATOM     12  CA  LEU D   8      19.092  14.273  43.051  1.00 63.43 LIG 0.18  C 
BRANCH 12 13
ATOM     13  CB  LEU D   8      18.718  15.656  42.527  1.00 63.06 LIG 0.04  C 
BRANCH 13 14
ATOM     14  CG  LEU D   8      19.261  15.911  41.141  1.00 67.32 LIG-0.02  C 
ATOM     15  CD1 LEU D   8      18.240  16.566  40.283  1.00 66.57 LIG 0.01  C 
ATOM     16  CD2 LEU D   8      20.551  16.683  41.191  1.00 70.19 LIG 0.01  C 
ENDBRANCH 13 14
ENDBRANCH 12 13
BRANCH 12 17
ATOM     17  C   LEU D   8      20.164  14.347  44.117  1.00 69.22 LIG 0.24  C 
ATOM     18  N   PHE D   9      21.423  14.098  43.734  1.00 66.75 LIG-0.35  N 
ATOM     19 H    PHE D   9      21.641  13.900  42.926  1.00 66.75 LIG 0.16  HD
ATOM     20 O    LEU D   8      19.846  14.574  45.284  1.00 69.38 LIG-0.27  OA
BRANCH 18 21
ATOM     21  CA  PHE D   9      22.548  14.141  44.656  1.00 67.50 LIG 0.18  C 
BRANCH 21 22
ATOM     22  CB  PHE D   9      22.607  12.868  45.512  1.00 70.09 LIG 0.07  C 
BRANCH 22 23
ATOM     23  CG  PHE D   9      22.013  11.604  44.929  1.00 72.62 LIG-0.06  A 
ATOM     24  CD2 PHE D   9      20.750  11.171  45.315  1.00 75.26 LIG 0.01  A 
ATOM     25  CE2 PHE D   9      20.185  10.027  44.751  1.00 78.46 LIG 0.00  A 
ATOM     26  CZ  PHE D   9      20.877   9.313  43.795  1.00 76.95 LIG 0.00  A 
ATOM     27  CE1 PHE D   9      22.121   9.736  43.385  1.00 77.74 LIG 0.00  A 
ATOM     28  CD1 PHE D   9      22.673  10.898  43.925  1.00 76.53 LIG 0.01  A 
ENDBRANCH 22 23
ENDBRANCH 21 22
BRANCH 21 29
ATOM     29  C   PHE D   9      23.875  14.352  43.924  1.00 72.50 LIG 0.24  C 
ATOM     30 O    PHE D   9      23.915  15.041  42.902  1.00 71.57 LIG-0.27  OA
ATOM     31  N   SER D  10      24.969  13.772  44.454  1.00 70.70 LIG-0.34  N 
ATOM     32 H    SER D  10      24.957  13.308  45.178  1.00 70.70 LIG 0.16  HD
BRANCH 31 33
ATOM     33  CA  SER D  10      26.296  13.881  43.838  1.00110.54 LIG 0.19  C 
BRANCH 33 34
ATOM     34  C   SER D  10      27.324  13.025  44.580  1.00112.68 LIG 0.22  C 
ATOM     35 O    SER D  10      28.486  12.972  44.177  1.00 61.17 LIG-0.29  OA
ENDBRANCH 33 34
BRANCH 33 36
ATOM     36  CB  SER D  10      26.750  15.337  43.776  1.00114.99 LIG 0.20  C 
BRANCH 36 37
ATOM     37 OG   SER D  10      27.308  15.665  42.513  1.00125.63 LIG-0.40  OA
ATOM     38 HG   SER D  10      27.696  16.408  42.562  1.00125.63 LIG 0.21  HD
ENDBRANCH 36 37
ENDBRANCH 33 36
ENDBRANCH 31 33
ENDBRANCH 21 29
ENDBRANCH 18 21
ENDBRANCH 12 17
ENDBRANCH 9 12
ENDBRANCH 4 8
BRANCH 1 39
ATOM     39  CA  LEU D   6      13.587  10.731  41.180  1.00 70.47 LIG 0.18  C 
BRANCH 39 40
ATOM     40  N   LEU D   6      12.227  11.163  40.903  1.00 72.03 LIG-0.35  N 
ATOM     41  C   PHE D   5      11.324  10.306  40.428  1.00 78.51 LIG 0.24  C 
ATOM     42 O    PHE D   5      11.564   9.108  40.233  1.00 77.96 LIG-0.27  OA
ATOM     43 H    LEU D   6      12.070  11.992  41.069  1.00 72.03 LIG 0.16  HD
BRANCH 41 44
ATOM     44  CA  PHE D   5       9.995  10.898  40.017  1.00 78.26 LIG 0.18  C 
BRANCH 44 45
ATOM     45  N   PHE D   5       9.660  12.009  40.911  1.00 79.00 LIG-0.34  N 
ATOM     46 H    PHE D   5       9.748  12.790  40.560  1.00 79.00 LIG 0.16  HD
ATOM     47  C   GLU D   4       9.254  11.794  42.165  1.00 84.09 LIG 0.26  C 
ATOM     48 O    GLU D   4       9.046  10.669  42.618  1.00 84.89 LIG-0.27  OA
BRANCH 47 49
ATOM     49  CA  GLU D   4       9.035  13.005  43.053  1.00 80.59 LIG 0.40  C 
ATOM     50  N   GLU D   4       7.741  12.913  43.722  1.00 81.26 LIG 0.61  N 
BRANCH 49 51
ATOM     51  CB  GLU D   4      10.172  13.095  44.095  1.00 81.69 LIG 0.06  C 
BRANCH 51 52
ATOM     52  CG  GLU D   4      10.598  14.515  44.432  1.00 88.66 LIG 0.12  C 
BRANCH 52 53
ATOM     53  CD  GLU D   4       9.530  15.584  44.283  1.00 99.07 LIG 0.17  C 
ATOM     54 OE1  GLU D   4       8.376  15.353  44.714  1.00 74.80 LIG-0.65  OA
ATOM     55 OE2  GLU D   4       9.870  16.686  43.796  1.00 93.08 LIG-0.65  OA
ENDBRANCH 52 53
ENDBRANCH 51 52
ENDBRANCH 49 51
ENDBRANCH 47 49
ENDBRANCH 44 45
BRANCH 44 56
ATOM     56  CB  PHE D   5       9.898  11.257  38.532  1.00 80.27 LIG 0.07  C 
BRANCH 56 57
ATOM     57  CG  PHE D   5       8.473  11.255  38.029  1.00 81.89 LIG-0.06  A 
ATOM     58  CD2 PHE D   5       8.184  11.557  36.699  1.00 84.17 LIG 0.01  A 
ATOM     59  CE2 PHE D   5       6.865  11.565  36.235  1.00 86.81 LIG 0.00  A 
ATOM     60  CZ  PHE D   5       5.831  11.257  37.093  1.00 84.76 LIG 0.00  A 
ATOM     61  CE1 PHE D   5       6.098  10.966  38.416  1.00 85.59 LIG 0.00  A 
ATOM     62  CD1 PHE D   5       7.416  10.971  38.884  1.00 84.61 LIG 0.01  A 
ENDBRANCH 56 57
ENDBRANCH 44 56
ENDBRANCH 41 44
ENDBRANCH 39 40
BRANCH 39 63
ATOM     63  CB  LEU D   6      14.364  10.527  39.884  1.00 70.57 LIG 0.04  C 
BRANCH 63 64
ATOM     64  CG  LEU D   6      13.727  11.157  38.663  1.00 75.48 LIG-0.02  C 
ATOM     65  CD2 LEU D   6      14.215  10.527  37.432  1.00 78.97 LIG 0.01  C 
ATOM     66  CD1 LEU D   6      13.979  12.607  38.630  1.00 75.94 LIG 0.01  C 
ENDBRANCH 63 64
ENDBRANCH 39 63
ENDBRANCH 1 39
TORSDOF 25
ENDMDL
MODEL 33
USER: ADFR SOLUTION from run 125
USER: SCORE 22.712048 LL:  -6.940 LR: -16.880 RR:   0.000 FEB:  -9.422
USER: RMSD 12.826229
USER: SEED 124
USER: STATUS searching
USER: GENES 27
USER: genes 0 Translation |==|  0.50867 0.54947 0.47686
USER: genes 1 Rotation |==|  0.51796 0.82678 0.12573 0.55307
USER: genes 2 Torsion [N]-CA--C-[N] |==|  0.43380
USER: genes 3 Torsion [C]-N--CA-[C] |==|  0.79713
USER: genes 4 Torsion [N]-CA--CB-[CG] |==|  0.34326
USER: genes 5 Torsion [CA]-CB--CG-[CD1] |==|  0.30848
USER: genes 6 Torsion [N]-CA--C-[N] |==|  0.37846
USER: genes 7 Torsion [C]-N--CA-[CB] |==|  0.78639
USER: genes 8 Torsion [N]-CA--CB-[CG] |==|  0.74247
USER: genes 9 Torsion [CA]-CB--CG-[CD1] |==|  0.74549
USER: genes 10 Torsion [N]-CA--C-[N] |==|  0.14467
USER: genes 11 Torsion [C]-N--CA-[C] |==|  0.59768
USER: genes 12 Torsion [N]-CA--C-[O] |==|  0.08947
USER: genes 13 Torsion [N]-CA--CB-[OG] |==|  0.96208
USER: genes 14 Torsion [CA]-CB--OG-[HG] |==|  0.94743
USER: genes 15 Torsion [N]-C--CA-[N] |==|  0.34844
USER: genes 16 Torsion [C]-CA--N-[C] |==|  0.56904
USER: genes 17 Torsion [N]-C--CA-[N] |==|  0.88709
USER: genes 18 Torsion [C]-CA--N-[C] |==|  0.76111
USER: genes 19 Torsion [N]-C--CA-[N] |==|  0.50867
USER: genes 20 Torsion [C]-CA--CB-[CG] |==|  0.40788
USER: genes 21 Torsion [CA]-CB--CG-[CD] |==|  0.13931
USER: genes 22 Torsion [CB]-CG--CD-[OE1] |==|  0.58011
USER: genes 23 Torsion [C]-CA--CB-[CG] |==|  0.50271
USER: genes 24 Torsion [CA]-CB--CG-[CD2] |==|  0.69942
USER: genes 25 Torsion [C]-CA--CB-[CG] |==|  0.77275
USER: genes 26 Torsion [CA]-CB--CG-[CD2] |==|  0.71257
ROOT
ATOM      1  C   LEU D   6      18.216  12.810  42.220  1.00 70.97 LIG 0.24  C 
ATOM      2 O    LEU D   6      18.685  12.482  41.140  1.00 69.80 LIG-0.27  OA
ATOM      3  N   PRO D   7      17.140  12.197  42.742  1.00 67.36 LIG-0.34  N 
ATOM      4  CA  PRO D   7      16.507  11.108  42.002  1.00 66.95 LIG 0.18  C 
ATOM      5  CB  PRO D   7      16.001  10.178  43.116  1.00 69.23 LIG 0.04  C 
ATOM      6  CG  PRO D   7      15.926  11.047  44.377  1.00 73.99 LIG 0.02  C 
ATOM      7  CD  PRO D   7      16.461  12.415  44.036  1.00 69.55 LIG 0.13  C 
ENDROOT
BRANCH 4 8
ATOM      8  C   PRO D   7      15.372  11.602  41.110  1.00 67.39 LIG 0.24  C 
ATOM      9  N   LEU D   8      15.075  10.828  40.072  1.00 63.51 LIG-0.35  N 
ATOM     10 H    LEU D   8      15.512  10.116  39.869  1.00 63.51 LIG 0.16  HD
ATOM     11 O    PRO D   7      14.777  12.654  41.353  1.00 65.73 LIG-0.27  OA
BRANCH 9 12
ATOM     12  CA  LEU D   8      13.974  11.120  39.176  1.00 63.43 LIG 0.18  C 
BRANCH 12 13
ATOM     13  CB  LEU D   8      14.109  10.359  37.861  1.00 63.06 LIG 0.04  C 
BRANCH 13 14
ATOM     14  CG  LEU D   8      12.900   9.504  37.565  1.00 67.32 LIG-0.02  C 
ATOM     15  CD1 LEU D   8      12.139  10.041  36.408  1.00 66.57 LIG 0.01  C 
ATOM     16  CD2 LEU D   8      13.282   8.060  37.381  1.00 70.19 LIG 0.01  C 
ENDBRANCH 13 14
ENDBRANCH 12 13
BRANCH 12 17
ATOM     17  C   LEU D   8      12.657  10.830  39.861  1.00 69.22 LIG 0.24  C 
ATOM     18  N   PHE D   9      11.679  11.731  39.710  1.00 66.75 LIG-0.35  N 
ATOM     19 H    PHE D   9      11.768  12.454  39.252  1.00 66.75 LIG 0.16  HD
ATOM     20 O    LEU D   8      12.545   9.824  40.563  1.00 69.38 LIG-0.27  OA
BRANCH 18 21
ATOM     21  CA  PHE D   9      10.362  11.572  40.310  1.00 67.50 LIG 0.18  C 
BRANCH 21 22
ATOM     22  CB  PHE D   9       9.518  10.560  39.524  1.00 70.09 LIG 0.07  C 
BRANCH 22 23
ATOM     23  CG  PHE D   9       8.613  11.097  38.435  1.00 72.62 LIG-0.06  A 
ATOM     24  CD2 PHE D   9       9.054  11.169  37.119  1.00 75.26 LIG 0.01  A 
ATOM     25  CE2 PHE D   9       8.210  11.627  36.108  1.00 78.46 LIG 0.00  A 
ATOM     26  CZ  PHE D   9       6.919  12.011  36.406  1.00 76.95 LIG 0.00  A 
ATOM     27  CE1 PHE D   9       6.457  11.929  37.700  1.00 77.74 LIG 0.00  A 
ATOM     28  CD1 PHE D   9       7.291  11.440  38.706  1.00 76.53 LIG 0.01  A 
ENDBRANCH 22 23
ENDBRANCH 21 22
BRANCH 21 29
ATOM     29  C   PHE D   9      10.454  11.160  41.781  1.00 72.50 LIG 0.24  C 
ATOM     30 O    PHE D   9       9.844  10.168  42.185  1.00 71.57 LIG-0.27  OA
ATOM     31  N   SER D  10      11.233  11.912  42.582  1.00 70.70 LIG-0.34  N 
ATOM     32 H    SER D  10      11.680  12.593  42.307  1.00 70.70 LIG 0.16  HD
BRANCH 31 33
ATOM     33  CA  SER D  10      11.389  11.636  44.015  1.00110.54 LIG 0.19  C 
BRANCH 33 34
ATOM     34  C   SER D  10      11.528  12.930  44.818  1.00112.68 LIG 0.22  C 
ATOM     35 O    SER D  10      10.948  13.950  44.445  1.00 61.17 LIG-0.29  OA
ENDBRANCH 33 34
BRANCH 33 36
ATOM     36  CB  SER D  10      12.581  10.715  44.265  1.00114.99 LIG 0.20  C 
BRANCH 36 37
ATOM     37 OG   SER D  10      13.044  10.111  43.067  1.00125.63 LIG-0.40  OA
ATOM     38 HG   SER D  10      12.444  10.153  42.481  1.00125.63 LIG 0.21  HD
ENDBRANCH 36 37
ENDBRANCH 33 36
ENDBRANCH 31 33
ENDBRANCH 21 29
ENDBRANCH 18 21
ENDBRANCH 12 17
ENDBRANCH 9 12
ENDBRANCH 4 8
BRANCH 1 39
ATOM     39  CA  LEU D   6      18.819  13.958  42.980  1.00 70.47 LIG 0.18  C 
BRANCH 39 40
ATOM     40  N   LEU D   6      20.237  13.857  43.285  1.00 72.03 LIG-0.35  N 
ATOM     41  C   PHE D   5      20.759  14.511  44.321  1.00 78.51 LIG 0.24  C 
ATOM     42 O    PHE D   5      20.085  15.200  45.097  1.00 77.96 LIG-0.27  OA
ATOM     43 H    LEU D   6      20.686  13.354  42.752  1.00 72.03 LIG 0.16  HD
BRANCH 41 44
ATOM     44  CA  PHE D   5      22.265  14.472  44.444  1.00 78.26 LIG 0.18  C 
BRANCH 44 45
ATOM     45  N   PHE D   5      22.745  13.127  44.118  1.00 79.00 LIG-0.34  N 
ATOM     46 H    PHE D   5      22.980  13.020  43.297  1.00 79.00 LIG 0.16  HD
ATOM     47  C   GLU D   4      22.800  12.166  45.044  1.00 84.09 LIG 0.26  C 
ATOM     48 O    GLU D   4      22.548  12.364  46.231  1.00 84.89 LIG-0.27  OA
BRANCH 47 49
ATOM     49  CA  GLU D   4      23.205  10.775  44.592  1.00 80.59 LIG 0.40  C 
ATOM     50  N   GLU D   4      23.141   9.842  45.712  1.00 81.26 LIG 0.61  N 
BRANCH 49 51
ATOM     51  CB  GLU D   4      22.272  10.308  43.452  1.00 81.69 LIG 0.06  C 
BRANCH 51 52
ATOM     52  CG  GLU D   4      22.944   9.419  42.419  1.00 88.66 LIG 0.12  C 
BRANCH 52 53
ATOM     53  CD  GLU D   4      23.732   8.242  42.966  1.00 99.07 LIG 0.17  C 
ATOM     54 OE1  GLU D   4      24.711   7.812  42.312  1.00 74.80 LIG-0.65  OA
ATOM     55 OE2  GLU D   4      23.412   7.796  44.091  1.00 93.08 LIG-0.65  OA
ENDBRANCH 52 53
ENDBRANCH 51 52
ENDBRANCH 49 51
ENDBRANCH 47 49
ENDBRANCH 44 45
BRANCH 44 56
ATOM     56  CB  PHE D   5      22.989  15.582  43.677  1.00 80.27 LIG 0.07  C 
BRANCH 56 57
ATOM     57  CG  PHE D   5      24.492  15.490  43.808  1.00 81.89 LIG-0.06  A 
ATOM     58  CD2 PHE D   5      25.200  16.414  44.576  1.00 84.17 LIG 0.01  A 
ATOM     59  CE2 PHE D   5      26.591  16.335  44.689  1.00 86.81 LIG 0.00  A 
ATOM     60  CZ  PHE D   5      27.279  15.327  44.050  1.00 84.76 LIG 0.00  A 
ATOM     61  CE1 PHE D   5      26.596  14.410  43.277  1.00 85.59 LIG 0.00  A 
ATOM     62  CD1 PHE D   5      25.204  14.495  43.152  1.00 84.61 LIG 0.01  A 
ENDBRANCH 56 57
ENDBRANCH 44 56
ENDBRANCH 41 44
ENDBRANCH 39 40
BRANCH 39 63
ATOM     63  CB  LEU D   6      18.506  15.286  42.299  1.00 70.57 LIG 0.04  C 
BRANCH 63 64
ATOM     64  CG  LEU D   6      19.417  15.629  41.139  1.00 75.48 LIG-0.02  C 
ATOM     65  CD2 LEU D   6      20.402  16.643  41.527  1.00 78.97 LIG 0.01  C 
ATOM     66  CD1 LEU D   6      18.638  16.089  39.979  1.00 75.94 LIG 0.01  C 
ENDBRANCH 63 64
ENDBRANCH 39 63
ENDBRANCH 1 39
TORSDOF 25
ENDMDL
MODEL 34
USER: ADFR SOLUTION from run 34
USER: SCORE 21.679544 LL:  -6.465 LR: -16.879 RR:   0.000 FEB:  -9.422
USER: RMSD 12.505966
USER: SEED 33
USER: STATUS no improvement in best in 17 clusters for 5 generations
USER: GENES 27
USER: genes 0 Translation |==|  0.54293 0.56574 0.51742
USER: genes 1 Rotation |==|  0.46467 0.82612 0.12361 0.52697
USER: genes 2 Torsion [N]-CA--C-[N] |==|  0.42313
USER: genes 3 Torsion [C]-N--CA-[C] |==|  0.82186
USER: genes 4 Torsion [N]-CA--CB-[CG] |==|  0.65090
USER: genes 5 Torsion [CA]-CB--CG-[CD1] |==|  0.56126
USER: genes 6 Torsion [N]-CA--C-[N] |==|  0.34083
USER: genes 7 Torsion [C]-N--CA-[CB] |==|  0.40318
USER: genes 8 Torsion [N]-CA--CB-[CG] |==|  0.59697
USER: genes 9 Torsion [CA]-CB--CG-[CD1] |==|  0.94364
USER: genes 10 Torsion [N]-CA--C-[N] |==|  0.89180
USER: genes 11 Torsion [C]-N--CA-[C] |==|  0.57981
USER: genes 12 Torsion [N]-CA--C-[O] |==|  0.37340
USER: genes 13 Torsion [N]-CA--CB-[OG] |==|  0.97408
USER: genes 14 Torsion [CA]-CB--OG-[HG] |==|  0.75201
USER: genes 15 Torsion [N]-C--CA-[N] |==|  0.33059
USER: genes 16 Torsion [C]-CA--N-[C] |==|  0.60575
USER: genes 17 Torsion [N]-C--CA-[N] |==|  0.88704
USER: genes 18 Torsion [C]-CA--N-[C] |==|  0.81172
USER: genes 19 Torsion [N]-C--CA-[N] |==|  0.44067
USER: genes 20 Torsion [C]-CA--CB-[CG] |==|  0.68926
USER: genes 21 Torsion [CA]-CB--CG-[CD] |==|  0.80088
USER: genes 22 Torsion [CB]-CG--CD-[OE1] |==|  0.97049
USER: genes 23 Torsion [C]-CA--CB-[CG] |==|  0.07900
USER: genes 24 Torsion [CA]-CB--CG-[CD2] |==|  0.25541
USER: genes 25 Torsion [C]-CA--CB-[CG] |==|  0.86574
USER: genes 26 Torsion [CA]-CB--CG-[CD2] |==|  0.72131
ROOT
ATOM      1  C   LEU D   6      19.218  13.102  43.011  1.00 70.97 LIG 0.24  C 
ATOM      2 O    LEU D   6      19.451  12.767  41.859  1.00 69.80 LIG-0.27  OA
ATOM      3  N   PRO D   7      18.328  12.448  43.775  1.00 67.36 LIG-0.34  N 
ATOM      4  CA  PRO D   7      17.614  11.301  43.220  1.00 66.95 LIG 0.18  C 
ATOM      5  CB  PRO D   7      17.432  10.380  44.437  1.00 69.23 LIG 0.04  C 
ATOM      6  CG  PRO D   7      17.589  11.285  45.665  1.00 73.99 LIG 0.02  C 
ATOM      7  CD  PRO D   7      17.946  12.669  45.185  1.00 69.55 LIG 0.13  C 
ENDROOT
BRANCH 4 8
ATOM      8  C   PRO D   7      16.279  11.699  42.599  1.00 67.39 LIG 0.24  C 
ATOM      9  N   LEU D   8      15.843  10.920  41.615  1.00 63.51 LIG-0.35  N 
ATOM     10 H    LEU D   8      16.291  10.256  41.300  1.00 63.51 LIG 0.16  HD
ATOM     11 O    PRO D   7      15.655  12.685  42.999  1.00 65.73 LIG-0.27  OA
BRANCH 9 12
ATOM     12  CA  LEU D   8      14.558  11.121  40.976  1.00 63.43 LIG 0.18  C 
BRANCH 12 13
ATOM     13  CB  LEU D   8      14.401  10.231  39.747  1.00 63.06 LIG 0.04  C 
BRANCH 13 14
ATOM     14  CG  LEU D   8      14.048  11.020  38.509  1.00 67.32 LIG-0.02  C 
ATOM     15  CD1 LEU D   8      13.398  10.151  37.493  1.00 66.57 LIG 0.01  C 
ATOM     16  CD2 LEU D   8      13.219  12.229  38.847  1.00 70.19 LIG 0.01  C 
ENDBRANCH 13 14
ENDBRANCH 12 13
BRANCH 12 17
ATOM     17  C   LEU D   8      13.443  10.903  41.975  1.00 69.22 LIG 0.24  C 
ATOM     18  N   PHE D   9      12.588  11.915  42.166  1.00 66.75 LIG-0.35  N 
ATOM     19 H    PHE D   9      12.648  12.669  41.755  1.00 66.75 LIG 0.16  HD
ATOM     20 O    LEU D   8      13.388   9.846  42.604  1.00 69.38 LIG-0.27  OA
BRANCH 18 21
ATOM     21  CA  PHE D   9      11.468  11.836  43.092  1.00 67.50 LIG 0.18  C 
BRANCH 21 22
ATOM     22  CB  PHE D   9      11.210  13.193  43.761  1.00 70.09 LIG 0.07  C 
BRANCH 22 23
ATOM     23  CG  PHE D   9      10.739  13.188  45.199  1.00 72.62 LIG-0.06  A 
ATOM     24  CD2 PHE D   9      10.794  14.346  45.967  1.00 75.26 LIG 0.01  A 
ATOM     25  CE2 PHE D   9      10.326  14.354  47.280  1.00 78.46 LIG 0.00  A 
ATOM     26  CZ  PHE D   9       9.795  13.207  47.832  1.00 76.95 LIG 0.00  A 
ATOM     27  CE1 PHE D   9       9.714  12.054  47.083  1.00 77.74 LIG 0.00  A 
ATOM     28  CD1 PHE D   9      10.153  12.055  45.758  1.00 76.53 LIG 0.01  A 
ENDBRANCH 22 23
ENDBRANCH 21 22
BRANCH 21 29
ATOM     29  C   PHE D   9      10.197  11.330  42.406  1.00 72.50 LIG 0.24  C 
ATOM     30 O    PHE D   9       9.433  10.567  43.002  1.00 71.57 LIG-0.27  OA
ATOM     31  N   SER D  10       9.959  11.768  41.155  1.00 70.70 LIG-0.34  N 
ATOM     32 H    SER D  10      10.473  12.317  40.738  1.00 70.70 LIG 0.16  HD
BRANCH 31 33
ATOM     33  CA  SER D  10       8.787  11.343  40.380  1.00110.54 LIG 0.19  C 
BRANCH 33 34
ATOM     34  C   SER D  10       9.077  11.368  38.878  1.00112.68 LIG 0.22  C 
ATOM     35 O    SER D  10       8.738  10.419  38.171  1.00 61.17 LIG-0.29  OA
ENDBRANCH 33 34
BRANCH 33 36
ATOM     36  CB  SER D  10       7.573  12.206  40.711  1.00114.99 LIG 0.20  C 
BRANCH 36 37
ATOM     37 OG   SER D  10       7.813  13.054  41.823  1.00125.63 LIG-0.40  OA
ATOM     38 HG   SER D  10       7.602  12.655  42.531  1.00125.63 LIG 0.21  HD
ENDBRANCH 36 37
ENDBRANCH 33 36
ENDBRANCH 31 33
ENDBRANCH 21 29
ENDBRANCH 18 21
ENDBRANCH 12 17
ENDBRANCH 9 12
ENDBRANCH 4 8
BRANCH 1 39
ATOM     39  CA  LEU D   6      19.903  14.307  43.592  1.00 70.47 LIG 0.18  C 
BRANCH 39 40
ATOM     40  N   LEU D   6      21.352  14.236  43.701  1.00 72.03 LIG-0.35  N 
ATOM     41  C   PHE D   5      21.981  14.756  44.755  1.00 78.51 LIG 0.24  C 
ATOM     42 O    PHE D   5      21.390  15.284  45.704  1.00 77.96 LIG-0.27  OA
ATOM     43 H    LEU D   6      21.745  13.843  43.046  1.00 72.03 LIG 0.16  HD
BRANCH 41 44
ATOM     44  CA  PHE D   5      23.491  14.777  44.685  1.00 78.26 LIG 0.18  C 
BRANCH 44 45
ATOM     45  N   PHE D   5      23.968  13.523  44.099  1.00 79.00 LIG-0.34  N 
ATOM     46 H    PHE D   5      24.330  13.605  43.322  1.00 79.00 LIG 0.16  HD
ATOM     47  C   GLU D   4      23.839  12.361  44.744  1.00 84.09 LIG 0.26  C 
ATOM     48 O    GLU D   4      23.404  12.276  45.891  1.00 84.89 LIG-0.27  OA
BRANCH 47 49
ATOM     49  CA  GLU D   4      24.262  11.099  44.015  1.00 80.59 LIG 0.40  C 
ATOM     50  N   GLU D   4      24.538  10.032  44.971  1.00 81.26 LIG 0.61  N 
BRANCH 49 51
ATOM     51  CB  GLU D   4      23.146  10.666  43.038  1.00 81.69 LIG 0.06  C 
BRANCH 51 52
ATOM     52  CG  GLU D   4      22.446   9.373  43.423  1.00 88.66 LIG 0.12  C 
BRANCH 52 53
ATOM     53  CD  GLU D   4      23.256   8.101  43.248  1.00 99.07 LIG 0.17  C 
ATOM     54 OE1  GLU D   4      24.341   8.154  42.624  1.00 74.80 LIG-0.65  OA
ATOM     55 OE2  GLU D   4      22.835   7.059  43.801  1.00 93.08 LIG-0.65  OA
ENDBRANCH 52 53
ENDBRANCH 51 52
ENDBRANCH 49 51
ENDBRANCH 47 49
ENDBRANCH 44 45
BRANCH 44 56
ATOM     56  CB  PHE D   5      24.072  16.025  44.015  1.00 80.27 LIG 0.07  C 
BRANCH 56 57
ATOM     57  CG  PHE D   5      23.179  17.235  44.172  1.00 81.89 LIG-0.06  A 
ATOM     58  CD2 PHE D   5      23.346  18.113  45.242  1.00 84.17 LIG 0.01  A 
ATOM     59  CE2 PHE D   5      22.514  19.226  45.393  1.00 86.81 LIG 0.00  A 
ATOM     60  CZ  PHE D   5      21.523  19.476  44.469  1.00 84.76 LIG 0.00  A 
ATOM     61  CE1 PHE D   5      21.336  18.612  43.409  1.00 85.59 LIG 0.00  A 
ATOM     62  CD1 PHE D   5      22.160  17.490  43.264  1.00 84.61 LIG 0.01  A 
ENDBRANCH 56 57
ENDBRANCH 44 56
ENDBRANCH 41 44
ENDBRANCH 39 40
BRANCH 39 63
ATOM     63  CB  LEU D   6      19.479  15.579  42.865  1.00 70.57 LIG 0.04  C 
BRANCH 63 64
ATOM     64  CG  LEU D   6      19.534  15.489  41.354  1.00 75.48 LIG-0.02  C 
ATOM     65  CD2 LEU D   6      20.747  16.127  40.834  1.00 78.97 LIG 0.01  C 
ATOM     66  CD1 LEU D   6      18.337  16.096  40.749  1.00 75.94 LIG 0.01  C 
ENDBRANCH 63 64
ENDBRANCH 39 63
ENDBRANCH 1 39
TORSDOF 25
ENDMDL
MODEL 35
USER: ADFR SOLUTION from run 103
USER: SCORE 22.341880 LL:  -6.304 LR: -16.858 RR:   0.000 FEB:  -9.400
USER: RMSD 3.662748
USER: SEED 102
USER: STATUS no improvement in best in 15 clusters for 5 generations
USER: GENES 27
USER: genes 0 Translation |==|  0.42859 0.51862 0.50715
USER: genes 1 Rotation |==|  0.56708 0.56121 0.50679 0.99164
USER: genes 2 Torsion [N]-CA--C-[N] |==|  0.28168
USER: genes 3 Torsion [C]-N--CA-[C] |==|  0.75939
USER: genes 4 Torsion [N]-CA--CB-[CG] |==|  0.64597
USER: genes 5 Torsion [CA]-CB--CG-[CD1] |==|  0.88703
USER: genes 6 Torsion [N]-CA--C-[N] |==|  0.20673
USER: genes 7 Torsion [C]-N--CA-[CB] |==|  0.55467
USER: genes 8 Torsion [N]-CA--CB-[CG] |==|  0.39101
USER: genes 9 Torsion [CA]-CB--CG-[CD1] |==|  0.72047
USER: genes 10 Torsion [N]-CA--C-[N] |==|  0.33692
USER: genes 11 Torsion [C]-N--CA-[C] |==|  0.19830
USER: genes 12 Torsion [N]-CA--C-[O] |==|  0.56992
USER: genes 13 Torsion [N]-CA--CB-[OG] |==|  0.83189
USER: genes 14 Torsion [CA]-CB--OG-[HG] |==|  0.37910
USER: genes 15 Torsion [N]-C--CA-[N] |==|  0.43693
USER: genes 16 Torsion [C]-CA--N-[C] |==|  0.82063
USER: genes 17 Torsion [N]-C--CA-[N] |==|  0.13058
USER: genes 18 Torsion [C]-CA--N-[C] |==|  0.16656
USER: genes 19 Torsion [N]-C--CA-[N] |==|  0.81988
USER: genes 20 Torsion [C]-CA--CB-[CG] |==|  0.65095
USER: genes 21 Torsion [CA]-CB--CG-[CD] |==|  0.79332
USER: genes 22 Torsion [CB]-CG--CD-[OE1] |==|  0.59968
USER: genes 23 Torsion [C]-CA--CB-[CG] |==|  0.28149
USER: genes 24 Torsion [CA]-CB--CG-[CD2] |==|  0.52103
USER: genes 25 Torsion [C]-CA--CB-[CG] |==|  0.51742
USER: genes 26 Torsion [CA]-CB--CG-[CD2] |==|  0.68081
ROOT
ATOM      1  C   LEU D   6      15.873  12.254  42.810  1.00 70.97 LIG 0.24  C 
ATOM      2 O    LEU D   6      15.725  13.329  43.372  1.00 69.80 LIG-0.27  OA
ATOM      3  N   PRO D   7      16.999  11.532  42.943  1.00 67.36 LIG-0.34  N 
ATOM      4  CA  PRO D   7      18.081  12.043  43.781  1.00 66.95 LIG 0.18  C 
ATOM      5  CB  PRO D   7      18.698  10.764  44.370  1.00 69.23 LIG 0.04  C 
ATOM      6  CG  PRO D   7      18.264   9.629  43.436  1.00 73.99 LIG 0.02  C 
ATOM      7  CD  PRO D   7      17.345  10.207  42.390  1.00 69.55 LIG 0.13  C 
ENDROOT
BRANCH 4 8
ATOM      8  C   PRO D   7      19.097  12.852  42.980  1.00 67.39 LIG 0.24  C 
ATOM      9  N   LEU D   8      18.989  14.172  43.077  1.00 63.51 LIG-0.35  N 
ATOM     10 H    LEU D   8      18.365  14.568  43.518  1.00 63.51 LIG 0.16  HD
ATOM     11 O    PRO D   7      19.958  12.299  42.293  1.00 65.73 LIG-0.27  OA
BRANCH 9 12
ATOM     12  CA  LEU D   8      19.924  15.077  42.438  1.00 63.43 LIG 0.18  C 
BRANCH 12 13
ATOM     13  CB  LEU D   8      19.249  16.382  42.032  1.00 63.06 LIG 0.04  C 
BRANCH 13 14
ATOM     14  CG  LEU D   8      19.480  16.721  40.579  1.00 67.32 LIG-0.02  C 
ATOM     15  CD1 LEU D   8      20.880  16.419  40.180  1.00 66.57 LIG 0.01  C 
ATOM     16  CD2 LEU D   8      18.471  16.045  39.691  1.00 70.19 LIG 0.01  C 
ENDBRANCH 13 14
ENDBRANCH 12 13
BRANCH 12 17
ATOM     17  C   LEU D   8      21.113  15.316  43.342  1.00 69.22 LIG 0.24  C 
ATOM     18  N   PHE D   9      22.006  14.324  43.452  1.00 66.75 LIG-0.35  N 
ATOM     19 H    PHE D   9      21.930  13.572  43.041  1.00 66.75 LIG 0.16  HD
ATOM     20 O    LEU D   8      21.194  16.369  43.975  1.00 69.38 LIG-0.27  OA
BRANCH 18 21
ATOM     21  CA  PHE D   9      23.197  14.425  44.283  1.00 67.50 LIG 0.18  C 
BRANCH 21 22
ATOM     22  CB  PHE D   9      24.252  13.394  43.858  1.00 70.09 LIG 0.07  C 
BRANCH 22 23
ATOM     23  CG  PHE D   9      25.702  13.830  43.867  1.00 72.62 LIG-0.06  A 
ATOM     24  CD2 PHE D   9      26.448  13.786  45.039  1.00 75.26 LIG 0.01  A 
ATOM     25  CE2 PHE D   9      27.794  14.151  45.041  1.00 78.46 LIG 0.00  A 
ATOM     26  CZ  PHE D   9      28.403  14.556  43.872  1.00 76.95 LIG 0.00  A 
ATOM     27  CE1 PHE D   9      27.686  14.588  42.696  1.00 77.74 LIG 0.00  A 
ATOM     28  CD1 PHE D   9      26.349  14.192  42.687  1.00 76.53 LIG 0.01  A 
ENDBRANCH 22 23
ENDBRANCH 21 22
BRANCH 21 29
ATOM     29  C   PHE D   9      23.790  15.835  44.257  1.00 72.50 LIG 0.24  C 
ATOM     30 O    PHE D   9      24.130  16.344  43.187  1.00 71.57 LIG-0.27  OA
ATOM     31  N   SER D  10      23.898  16.478  45.436  1.00 70.70 LIG-0.34  N 
ATOM     32 H    SER D  10      23.644  16.142  46.185  1.00 70.70 LIG 0.16  HD
BRANCH 31 33
ATOM     33  CA  SER D  10      24.468  17.825  45.549  1.00110.54 LIG 0.19  C 
BRANCH 33 34
ATOM     34  C   SER D  10      23.523  18.877  44.965  1.00112.68 LIG 0.22  C 
ATOM     35 O    SER D  10      23.974  19.944  44.548  1.00 61.17 LIG-0.29  OA
ENDBRANCH 33 34
BRANCH 33 36
ATOM     36  CB  SER D  10      25.837  17.897  44.879  1.00114.99 LIG 0.20  C 
BRANCH 36 37
ATOM     37 OG   SER D  10      26.765  17.002  45.473  1.00125.63 LIG-0.40  OA
ATOM     38 HG   SER D  10      27.201  16.610  44.871  1.00125.63 LIG 0.21  HD
ENDBRANCH 36 37
ENDBRANCH 33 36
ENDBRANCH 31 33
ENDBRANCH 21 29
ENDBRANCH 18 21
ENDBRANCH 12 17
ENDBRANCH 9 12
ENDBRANCH 4 8
BRANCH 1 39
ATOM     39  CA  LEU D   6      14.794  11.728  41.905  1.00 70.47 LIG 0.18  C 
BRANCH 39 40
ATOM     40  N   LEU D   6      13.447  12.213  42.157  1.00 72.03 LIG-0.35  N 
ATOM     41  C   PHE D   5      12.822  11.925  43.298  1.00 78.51 LIG 0.24  C 
ATOM     42 O    PHE D   5      13.345  11.278  44.213  1.00 77.96 LIG-0.27  OA
ATOM     43 H    LEU D   6      13.107  12.683  41.523  1.00 72.03 LIG 0.16  HD
BRANCH 41 44
ATOM     44  CA  PHE D   5      11.369  12.334  43.383  1.00 78.26 LIG 0.18  C 
BRANCH 44 45
ATOM     45  N   PHE D   5      10.675  11.919  42.161  1.00 79.00 LIG-0.34  N 
ATOM     46 H    PHE D   5      10.322  12.564  41.713  1.00 79.00 LIG 0.16  HD
ATOM     47  C   GLU D   4      10.614  10.635  41.799  1.00 84.09 LIG 0.26  C 
ATOM     48 O    GLU D   4      11.203   9.740  42.401  1.00 84.89 LIG-0.27  OA
BRANCH 47 49
ATOM     49  CA  GLU D   4       9.782  10.287  40.578  1.00 80.59 LIG 0.40  C 
ATOM     50  N   GLU D   4       8.373  10.576  40.828  1.00 81.26 LIG 0.61  N 
BRANCH 49 51
ATOM     51  CB  GLU D   4      10.286  11.093  39.360  1.00 81.69 LIG 0.06  C 
BRANCH 51 52
ATOM     52  CG  GLU D   4       9.208  11.902  38.658  1.00 88.66 LIG 0.12  C 
BRANCH 52 53
ATOM     53  CD  GLU D   4       8.231  11.111  37.807  1.00 99.07 LIG 0.17  C 
ATOM     54 OE1  GLU D   4       7.804  11.619  36.744  1.00 74.80 LIG-0.65  OA
ATOM     55 OE2  GLU D   4       7.948   9.947  38.171  1.00 93.08 LIG-0.65  OA
ENDBRANCH 52 53
ENDBRANCH 51 52
ENDBRANCH 49 51
ENDBRANCH 47 49
ENDBRANCH 44 45
BRANCH 44 56
ATOM     56  CB  PHE D   5      10.663  11.889  44.667  1.00 80.27 LIG 0.07  C 
BRANCH 56 57
ATOM     57  CG  PHE D   5      10.529  13.011  45.671  1.00 81.89 LIG-0.06  A 
ATOM     58  CD2 PHE D   5      10.057  12.765  46.960  1.00 84.17 LIG 0.01  A 
ATOM     59  CE2 PHE D   5       9.924  13.804  47.885  1.00 86.81 LIG 0.00  A 
ATOM     60  CZ  PHE D   5      10.275  15.089  47.534  1.00 84.76 LIG 0.00  A 
ATOM     61  CE1 PHE D   5      10.734  15.353  46.259  1.00 85.59 LIG 0.00  A 
ATOM     62  CD1 PHE D   5      10.856  14.316  45.328  1.00 84.61 LIG 0.01  A 
ENDBRANCH 56 57
ENDBRANCH 44 56
ENDBRANCH 41 44
ENDBRANCH 39 40
BRANCH 39 63
ATOM     63  CB  LEU D   6      15.172  11.919  40.440  1.00 70.57 LIG 0.04  C 
BRANCH 63 64
ATOM     64  CG  LEU D   6      14.081  11.555  39.456  1.00 75.48 LIG-0.02  C 
ATOM     65  CD2 LEU D   6      14.475  10.406  38.635  1.00 78.97 LIG 0.01  C 
ATOM     66  CD1 LEU D   6      13.743  12.704  38.600  1.00 75.94 LIG 0.01  C 
ENDBRANCH 63 64
ENDBRANCH 39 63
ENDBRANCH 1 39
TORSDOF 25
ENDMDL
MODEL 36
USER: ADFR SOLUTION from run 103
USER: SCORE 22.543244 LL:  -6.414 LR: -16.845 RR:   0.000 FEB:  -9.388
USER: RMSD 5.666566
USER: SEED 102
USER: STATUS no improvement in best in 15 clusters for 5 generations
USER: GENES 27
USER: genes 0 Translation |==|  0.43195 0.52274 0.50545
USER: genes 1 Rotation |==|  0.55738 0.57550 0.51180 0.99078
USER: genes 2 Torsion [N]-CA--C-[N] |==|  0.23210
USER: genes 3 Torsion [C]-N--CA-[C] |==|  0.77037
USER: genes 4 Torsion [N]-CA--CB-[CG] |==|  0.57438
USER: genes 5 Torsion [CA]-CB--CG-[CD1] |==|  0.96141
USER: genes 6 Torsion [N]-CA--C-[N] |==|  0.19187
USER: genes 7 Torsion [C]-N--CA-[CB] |==|  0.14593
USER: genes 8 Torsion [N]-CA--CB-[CG] |==|  0.71178
USER: genes 9 Torsion [CA]-CB--CG-[CD1] |==|  0.85244
USER: genes 10 Torsion [N]-CA--C-[N] |==|  0.11790
USER: genes 11 Torsion [C]-N--CA-[C] |==|  0.18219
USER: genes 12 Torsion [N]-CA--C-[O] |==|  0.12320
USER: genes 13 Torsion [N]-CA--CB-[OG] |==|  0.65885
USER: genes 14 Torsion [CA]-CB--OG-[HG] |==|  0.06070
USER: genes 15 Torsion [N]-C--CA-[N] |==|  0.39170
USER: genes 16 Torsion [C]-CA--N-[C] |==|  0.79988
USER: genes 17 Torsion [N]-C--CA-[N] |==|  0.87857
USER: genes 18 Torsion [C]-CA--N-[C] |==|  0.66842
USER: genes 19 Torsion [N]-C--CA-[N] |==|  0.23652
USER: genes 20 Torsion [C]-CA--CB-[CG] |==|  0.46217
USER: genes 21 Torsion [CA]-CB--CG-[CD] |==|  0.12863
USER: genes 22 Torsion [CB]-CG--CD-[OE1] |==|  0.80396
USER: genes 23 Torsion [C]-CA--CB-[CG] |==|  0.76569
USER: genes 24 Torsion [CA]-CB--CG-[CD2] |==|  0.27511
USER: genes 25 Torsion [C]-CA--CB-[CG] |==|  0.50493
USER: genes 26 Torsion [CA]-CB--CG-[CD2] |==|  0.75774
ROOT
ATOM      1  C   LEU D   6      15.972  12.328  42.777  1.00 70.97 LIG 0.24  C 
ATOM      2 O    LEU D   6      15.818  13.418  43.308  1.00 69.80 LIG-0.27  OA
ATOM      3  N   PRO D   7      17.126  11.648  42.874  1.00 67.36 LIG-0.34  N 
ATOM      4  CA  PRO D   7      18.233  12.222  43.634  1.00 66.95 LIG 0.18  C 
ATOM      5  CB  PRO D   7      18.923  10.986  44.233  1.00 69.23 LIG 0.04  C 
ATOM      6  CG  PRO D   7      18.478   9.804  43.364  1.00 73.99 LIG 0.02  C 
ATOM      7  CD  PRO D   7      17.486  10.314  42.350  1.00 69.55 LIG 0.13  C 
ENDROOT
BRANCH 4 8
ATOM      8  C   PRO D   7      19.178  13.032  42.751  1.00 67.39 LIG 0.24  C 
ATOM      9  N   LEU D   8      18.813  14.287  42.514  1.00 63.51 LIG-0.35  N 
ATOM     10 H    LEU D   8      18.073  14.628  42.791  1.00 63.51 LIG 0.16  HD
ATOM     11 O    PRO D   7      20.212  12.538  42.297  1.00 65.73 LIG-0.27  OA
BRANCH 9 12
ATOM     12  CA  LEU D   8      19.640  15.207  41.759  1.00 63.43 LIG 0.18  C 
BRANCH 12 13
ATOM     13  CB  LEU D   8      18.798  16.275  41.069  1.00 63.06 LIG 0.04  C 
BRANCH 13 14
ATOM     14  CG  LEU D   8      19.463  16.816  39.825  1.00 67.32 LIG-0.02  C 
ATOM     15  CD1 LEU D   8      20.895  16.419  39.774  1.00 66.57 LIG 0.01  C 
ATOM     16  CD2 LEU D   8      18.712  16.417  38.584  1.00 70.19 LIG 0.01  C 
ENDBRANCH 13 14
ENDBRANCH 12 13
BRANCH 12 17
ATOM     17  C   LEU D   8      20.694  15.815  42.658  1.00 69.22 LIG 0.24  C 
ATOM     18  N   PHE D   9      21.664  15.003  43.096  1.00 66.75 LIG-0.35  N 
ATOM     19 H    PHE D   9      21.709  14.168  42.895  1.00 66.75 LIG 0.16  HD
ATOM     20 O    LEU D   8      20.599  16.996  42.993  1.00 69.38 LIG-0.27  OA
BRANCH 18 21
ATOM     21  CA  PHE D   9      22.742  15.461  43.962  1.00 67.50 LIG 0.18  C 
BRANCH 21 22
ATOM     22  CB  PHE D   9      22.186  16.183  45.197  1.00 70.09 LIG 0.07  C 
BRANCH 22 23
ATOM     23  CG  PHE D   9      22.267  17.695  45.220  1.00 72.62 LIG-0.06  A 
ATOM     24  CD2 PHE D   9      21.155  18.459  45.554  1.00 75.26 LIG 0.01  A 
ATOM     25  CE2 PHE D   9      21.237  19.849  45.614  1.00 78.46 LIG 0.00  A 
ATOM     26  CZ  PHE D   9      22.432  20.484  45.346  1.00 76.95 LIG 0.00  A 
ATOM     27  CE1 PHE D   9      23.550  19.744  45.032  1.00 77.74 LIG 0.00  A 
ATOM     28  CD1 PHE D   9      23.476  18.351  45.004  1.00 76.53 LIG 0.01  A 
ENDBRANCH 22 23
ENDBRANCH 21 22
BRANCH 21 29
ATOM     29  C   PHE D   9      23.658  14.310  44.385  1.00 72.50 LIG 0.24  C 
ATOM     30 O    PHE D   9      24.041  14.223  45.554  1.00 71.57 LIG-0.27  OA
ATOM     31  N   SER D  10      23.997  13.415  43.438  1.00 70.70 LIG-0.34  N 
ATOM     32 H    SER D  10      23.718  13.454  42.626  1.00 70.70 LIG 0.16  HD
BRANCH 31 33
ATOM     33  CA  SER D  10      24.884  12.278  43.710  1.00110.54 LIG 0.19  C 
BRANCH 33 34
ATOM     34  C   SER D  10      24.243  11.296  44.692  1.00112.68 LIG 0.22  C 
ATOM     35 O    SER D  10      23.064  10.972  44.555  1.00 61.17 LIG-0.29  OA
ENDBRANCH 33 34
BRANCH 33 36
ATOM     36  CB  SER D  10      26.238  12.756  44.230  1.00114.99 LIG 0.20  C 
BRANCH 36 37
ATOM     37 OG   SER D  10      27.308  12.294  43.421  1.00125.63 LIG-0.40  OA
ATOM     38 HG   SER D  10      27.019  12.101  42.656  1.00125.63 LIG 0.21  HD
ENDBRANCH 36 37
ENDBRANCH 33 36
ENDBRANCH 31 33
ENDBRANCH 21 29
ENDBRANCH 18 21
ENDBRANCH 12 17
ENDBRANCH 9 12
ENDBRANCH 4 8
BRANCH 1 39
ATOM     39  CA  LEU D   6      14.864  11.736  41.951  1.00 70.47 LIG 0.18  C 
BRANCH 39 40
ATOM     40  N   LEU D   6      13.516  11.888  42.473  1.00 72.03 LIG-0.35  N 
ATOM     41  C   PHE D   5      13.115  11.191  43.535  1.00 78.51 LIG 0.24  C 
ATOM     42 O    PHE D   5      13.853  10.417  44.157  1.00 77.96 LIG-0.27  OA
ATOM     43 H    LEU D   6      13.024  12.449  42.046  1.00 72.03 LIG 0.16  HD
BRANCH 41 44
ATOM     44  CA  PHE D   5      11.648  11.298  43.887  1.00 78.26 LIG 0.18  C 
BRANCH 44 45
ATOM     45  N   PHE D   5      11.226  12.698  43.791  1.00 79.00 LIG-0.34  N 
ATOM     46 H    PHE D   5      11.315  13.045  43.008  1.00 79.00 LIG 0.16  HD
ATOM     47  C   GLU D   4      10.747  13.354  44.850  1.00 84.09 LIG 0.26  C 
ATOM     48 O    GLU D   4      10.542  12.814  45.936  1.00 84.89 LIG-0.27  OA
BRANCH 47 49
ATOM     49  CA  GLU D   4      10.439  14.831  44.685  1.00 80.59 LIG 0.40  C 
ATOM     50  N   GLU D   4       9.098  15.007  44.135  1.00 81.26 LIG 0.61  N 
BRANCH 49 51
ATOM     51  CB  GLU D   4      10.555  15.541  46.052  1.00 81.69 LIG 0.06  C 
BRANCH 51 52
ATOM     52  CG  GLU D   4      10.590  17.058  45.966  1.00 88.66 LIG 0.12  C 
BRANCH 52 53
ATOM     53  CD  GLU D   4       9.554  17.698  45.059  1.00 99.07 LIG 0.17  C 
ATOM     54 OE1  GLU D   4       9.668  17.563  43.819  1.00 74.80 LIG-0.65  OA
ATOM     55 OE2  GLU D   4       8.583  18.276  45.598  1.00 93.08 LIG-0.65  OA
ENDBRANCH 52 53
ENDBRANCH 51 52
ENDBRANCH 49 51
ENDBRANCH 47 49
ENDBRANCH 44 45
BRANCH 44 56
ATOM     56  CB  PHE D   5      10.743  10.332  43.118  1.00 80.27 LIG 0.07  C 
BRANCH 56 57
ATOM     57  CG  PHE D   5      10.341  10.871  41.764  1.00 81.89 LIG-0.06  A 
ATOM     58  CD2 PHE D   5      11.003  10.463  40.607  1.00 84.17 LIG 0.01  A 
ATOM     59  CE2 PHE D   5      10.638  10.969  39.356  1.00 86.81 LIG 0.00  A 
ATOM     60  CZ  PHE D   5       9.601  11.871  39.253  1.00 84.76 LIG 0.00  A 
ATOM     61  CE1 PHE D   5       8.942  12.294  40.389  1.00 85.59 LIG 0.00  A 
ATOM     62  CD1 PHE D   5       9.315  11.799  41.643  1.00 84.61 LIG 0.01  A 
ENDBRANCH 56 57
ENDBRANCH 44 56
ENDBRANCH 41 44
ENDBRANCH 39 40
BRANCH 39 63
ATOM     63  CB  LEU D   6      14.942  12.223  40.508  1.00 70.57 LIG 0.04  C 
BRANCH 63 64
ATOM     64  CG  LEU D   6      13.838  11.709  39.609  1.00 75.48 LIG-0.02  C 
ATOM     65  CD2 LEU D   6      14.196  10.413  39.025  1.00 78.97 LIG 0.01  C 
ATOM     66  CD1 LEU D   6      13.531  12.681  38.548  1.00 75.94 LIG 0.01  C 
ENDBRANCH 63 64
ENDBRANCH 39 63
ENDBRANCH 1 39
TORSDOF 25
ENDMDL
MODEL 37
USER: ADFR SOLUTION from run 83
USER: SCORE 22.125205 LL:  -5.962 LR: -16.847 RR:   0.000 FEB:  -9.390
USER: RMSD 12.630767
USER: SEED 82
USER: STATUS no improvement in best in 20 clusters for 5 generations
USER: GENES 27
USER: genes 0 Translation |==|  0.51954 0.57243 0.48194
USER: genes 1 Rotation |==|  0.45055 0.82343 0.12471 0.54584
USER: genes 2 Torsion [N]-CA--C-[N] |==|  0.45739
USER: genes 3 Torsion [C]-N--CA-[C] |==|  0.82681
USER: genes 4 Torsion [N]-CA--CB-[CG] |==|  0.68505
USER: genes 5 Torsion [CA]-CB--CG-[CD1] |==|  0.66505
USER: genes 6 Torsion [N]-CA--C-[N] |==|  0.38318
USER: genes 7 Torsion [C]-N--CA-[CB] |==|  0.85370
USER: genes 8 Torsion [N]-CA--CB-[CG] |==|  0.90587
USER: genes 9 Torsion [CA]-CB--CG-[CD1] |==|  0.33325
USER: genes 10 Torsion [N]-CA--C-[N] |==|  0.35631
USER: genes 11 Torsion [C]-N--CA-[C] |==|  0.78020
USER: genes 12 Torsion [N]-CA--C-[O] |==|  0.75381
USER: genes 13 Torsion [N]-CA--CB-[OG] |==|  0.92230
USER: genes 14 Torsion [CA]-CB--OG-[HG] |==|  0.79004
USER: genes 15 Torsion [N]-C--CA-[N] |==|  0.31516
USER: genes 16 Torsion [C]-CA--N-[C] |==|  0.61443
USER: genes 17 Torsion [N]-C--CA-[N] |==|  0.86111
USER: genes 18 Torsion [C]-CA--N-[C] |==|  0.72735
USER: genes 19 Torsion [N]-C--CA-[N] |==|  0.99502
USER: genes 20 Torsion [C]-CA--CB-[CG] |==|  0.84106
USER: genes 21 Torsion [CA]-CB--CG-[CD] |==|  0.58475
USER: genes 22 Torsion [CB]-CG--CD-[OE1] |==|  0.09146
USER: genes 23 Torsion [C]-CA--CB-[CG] |==|  0.18105
USER: genes 24 Torsion [CA]-CB--CG-[CD2] |==|  0.24421
USER: genes 25 Torsion [C]-CA--CB-[CG] |==|  0.79111
USER: genes 26 Torsion [CA]-CB--CG-[CD2] |==|  0.74243
ROOT
ATOM      1  C   LEU D   6      18.534  13.223  42.319  1.00 70.97 LIG 0.24  C 
ATOM      2 O    LEU D   6      18.806  12.908  41.170  1.00 69.80 LIG-0.27  OA
ATOM      3  N   PRO D   7      17.704  12.489  43.079  1.00 67.36 LIG-0.34  N 
ATOM      4  CA  PRO D   7      17.106  11.278  42.523  1.00 66.95 LIG 0.18  C 
ATOM      5  CB  PRO D   7      17.003  10.348  43.742  1.00 69.23 LIG 0.04  C 
ATOM      6  CG  PRO D   7      17.065  11.267  44.968  1.00 73.99 LIG 0.02  C 
ATOM      7  CD  PRO D   7      17.293  12.677  44.486  1.00 69.55 LIG 0.13  C 
ENDROOT
BRANCH 4 8
ATOM      8  C   PRO D   7      15.743  11.547  41.891  1.00 67.39 LIG 0.24  C 
ATOM      9  N   LEU D   8      15.277  10.592  41.094  1.00 63.51 LIG-0.35  N 
ATOM     10 H    LEU D   8      15.719   9.881  40.895  1.00 63.51 LIG 0.16  HD
ATOM     11 O    PRO D   7      15.126  12.590  42.120  1.00 65.73 LIG-0.27  OA
BRANCH 9 12
ATOM     12  CA  LEU D   8      13.966  10.664  40.481  1.00 63.43 LIG 0.18  C 
BRANCH 12 13
ATOM     13  CB  LEU D   8      13.753   9.528  39.485  1.00 63.06 LIG 0.04  C 
BRANCH 13 14
ATOM     14  CG  LEU D   8      13.643  10.025  38.064  1.00 67.32 LIG-0.02  C 
ATOM     15  CD1 LEU D   8      12.336   9.643  37.468  1.00 66.57 LIG 0.01  C 
ATOM     16  CD2 LEU D   8      13.903  11.504  37.978  1.00 70.19 LIG 0.01  C 
ENDBRANCH 13 14
ENDBRANCH 12 13
BRANCH 12 17
ATOM     17  C   LEU D   8      12.894  10.683  41.549  1.00 69.22 LIG 0.24  C 
ATOM     18  N   PHE D   9      11.873  11.531  41.373  1.00 66.75 LIG-0.35  N 
ATOM     19 H    PHE D   9      11.804  12.055  40.694  1.00 66.75 LIG 0.16  HD
ATOM     20 O    LEU D   8      13.019   9.975  42.548  1.00 69.38 LIG-0.27  OA
BRANCH 18 21
ATOM     21  CA  PHE D   9      10.773  11.646  42.320  1.00 67.50 LIG 0.18  C 
BRANCH 21 22
ATOM     22  CB  PHE D   9      10.153  10.272  42.611  1.00 70.09 LIG 0.07  C 
BRANCH 22 23
ATOM     23  CG  PHE D   9      10.119   9.265  41.483  1.00 72.62 LIG-0.06  A 
ATOM     24  CD2 PHE D   9       9.524   9.582  40.267  1.00 75.26 LIG 0.01  A 
ATOM     25  CE2 PHE D   9       9.525   8.669  39.213  1.00 78.46 LIG 0.00  A 
ATOM     26  CZ  PHE D   9      10.125   7.436  39.365  1.00 76.95 LIG 0.00  A 
ATOM     27  CE1 PHE D   9      10.737   7.110  40.555  1.00 77.74 LIG 0.00  A 
ATOM     28  CD1 PHE D   9      10.764   8.035  41.599  1.00 76.53 LIG 0.01  A 
ENDBRANCH 22 23
ENDBRANCH 21 22
BRANCH 21 29
ATOM     29  C   PHE D   9      11.213  12.318  43.622  1.00 72.50 LIG 0.24  C 
ATOM     30 O    PHE D   9      12.210  11.912  44.223  1.00 71.57 LIG-0.27  OA
ATOM     31  N   SER D  10      10.479  13.362  44.053  1.00 70.70 LIG-0.34  N 
ATOM     32 H    SER D  10       9.795  13.667  43.631  1.00 70.70 LIG 0.16  HD
BRANCH 31 33
ATOM     33  CA  SER D  10      10.783  14.080  45.296  1.00110.54 LIG 0.19  C 
BRANCH 33 34
ATOM     34  C   SER D  10      10.277  13.311  46.518  1.00112.68 LIG 0.22  C 
ATOM     35 O    SER D  10       9.131  13.493  46.929  1.00 61.17 LIG-0.29  OA
ENDBRANCH 33 34
BRANCH 33 36
ATOM     36  CB  SER D  10      10.201  15.490  45.267  1.00114.99 LIG 0.20  C 
BRANCH 36 37
ATOM     37 OG   SER D  10      10.096  15.993  43.944  1.00125.63 LIG-0.40  OA
ATOM     38 HG   SER D  10      10.857  16.216  43.667  1.00125.63 LIG 0.21  HD
ENDBRANCH 36 37
ENDBRANCH 33 36
ENDBRANCH 31 33
ENDBRANCH 21 29
ENDBRANCH 18 21
ENDBRANCH 12 17
ENDBRANCH 9 12
ENDBRANCH 4 8
BRANCH 1 39
ATOM     39  CA  LEU D   6      19.098  14.489  42.900  1.00 70.47 LIG 0.18  C 
BRANCH 39 40
ATOM     40  N   LEU D   6      20.533  14.508  43.136  1.00 72.03 LIG-0.35  N 
ATOM     41  C   PHE D   5      21.033  15.051  44.245  1.00 78.51 LIG 0.24  C 
ATOM     42 O    PHE D   5      20.329  15.529  45.143  1.00 77.96 LIG-0.27  OA
ATOM     43 H    LEU D   6      21.006  14.149  42.515  1.00 72.03 LIG 0.16  HD
BRANCH 41 44
ATOM     44  CA  PHE D   5      22.539  15.169  44.308  1.00 78.26 LIG 0.18  C 
BRANCH 44 45
ATOM     45  N   PHE D   5      23.143  13.878  43.968  1.00 79.00 LIG-0.34  N 
ATOM     46 H    PHE D   5      23.204  13.724  43.123  1.00 79.00 LIG 0.16  HD
ATOM     47  C   GLU D   4      23.554  13.032  44.915  1.00 84.09 LIG 0.26  C 
ATOM     48 O    GLU D   4      23.542  13.311  46.113  1.00 84.89 LIG-0.27  OA
BRANCH 47 49
ATOM     49  CA  GLU D   4      24.065  11.673  44.473  1.00 80.59 LIG 0.40  C 
ATOM     50  N   GLU D   4      23.961  11.543  43.023  1.00 81.26 LIG 0.61  N 
BRANCH 49 51
ATOM     51  CB  GLU D   4      25.533  11.502  44.922  1.00 81.69 LIG 0.06  C 
BRANCH 51 52
ATOM     52  CG  GLU D   4      26.473  12.579  44.408  1.00 88.66 LIG 0.12  C 
BRANCH 52 53
ATOM     53  CD  GLU D   4      27.911  12.152  44.172  1.00 99.07 LIG 0.17  C 
ATOM     54 OE1  GLU D   4      28.140  10.979  43.794  1.00 74.80 LIG-0.65  OA
ATOM     55 OE2  GLU D   4      28.806  13.018  44.297  1.00 93.08 LIG-0.65  OA
ENDBRANCH 52 53
ENDBRANCH 51 52
ENDBRANCH 49 51
ENDBRANCH 47 49
ENDBRANCH 44 45
BRANCH 44 56
ATOM     56  CB  PHE D   5      23.113  16.342  43.509  1.00 80.27 LIG 0.07  C 
BRANCH 56 57
ATOM     57  CG  PHE D   5      22.687  17.683  44.063  1.00 81.89 LIG-0.06  A 
ATOM     58  CD2 PHE D   5      23.425  18.309  45.066  1.00 84.17 LIG 0.01  A 
ATOM     59  CE2 PHE D   5      23.025  19.545  45.585  1.00 86.81 LIG 0.00  A 
ATOM     60  CZ  PHE D   5      21.897  20.166  45.095  1.00 84.76 LIG 0.00  A 
ATOM     61  CE1 PHE D   5      21.148  19.555  44.110  1.00 85.59 LIG 0.00  A 
ATOM     62  CD1 PHE D   5      21.540  18.313  43.598  1.00 84.61 LIG 0.01  A 
ENDBRANCH 56 57
ENDBRANCH 44 56
ENDBRANCH 41 44
ENDBRANCH 39 40
BRANCH 39 63
ATOM     63  CB  LEU D   6      18.669  15.702  42.082  1.00 70.57 LIG 0.04  C 
BRANCH 63 64
ATOM     64  CG  LEU D   6      19.395  15.861  40.764  1.00 75.48 LIG-0.02  C 
ATOM     65  CD2 LEU D   6      20.570  16.725  40.911  1.00 78.97 LIG 0.01  C 
ATOM     66  CD1 LEU D   6      18.493  16.396  39.730  1.00 75.94 LIG 0.01  C 
ENDBRANCH 63 64
ENDBRANCH 39 63
ENDBRANCH 1 39
TORSDOF 25
ENDMDL
MODEL 38
USER: ADFR SOLUTION from run 119
USER: SCORE 22.925666 LL:  -6.663 LR: -16.824 RR:   0.000 FEB:  -9.367
USER: RMSD 12.628271
USER: SEED 118
USER: STATUS no improvement in best in 7 clusters for 5 generations
USER: GENES 27
USER: genes 0 Translation |==|  0.55368 0.77472 0.55746
USER: genes 1 Rotation |==|  0.16847 0.82385 0.67798 0.55943
USER: genes 2 Torsion [N]-CA--C-[N] |==|  0.07633
USER: genes 3 Torsion [C]-N--CA-[C] |==|  0.82988
USER: genes 4 Torsion [N]-CA--CB-[CG] |==|  0.63341
USER: genes 5 Torsion [CA]-CB--CG-[CD1] |==|  0.78173
USER: genes 6 Torsion [N]-CA--C-[N] |==|  0.35697
USER: genes 7 Torsion [C]-N--CA-[CB] |==|  0.53611
USER: genes 8 Torsion [N]-CA--CB-[CG] |==|  0.60625
USER: genes 9 Torsion [CA]-CB--CG-[CD1] |==|  0.34356
USER: genes 10 Torsion [N]-CA--C-[N] |==|  0.40407
USER: genes 11 Torsion [C]-N--CA-[C] |==|  0.79708
USER: genes 12 Torsion [N]-CA--C-[O] |==|  0.23804
USER: genes 13 Torsion [N]-CA--CB-[OG] |==|  0.18769
USER: genes 14 Torsion [CA]-CB--OG-[HG] |==|  0.82186
USER: genes 15 Torsion [N]-C--CA-[N] |==|  0.89890
USER: genes 16 Torsion [C]-CA--N-[C] |==|  0.84495
USER: genes 17 Torsion [N]-C--CA-[N] |==|  0.02565
USER: genes 18 Torsion [C]-CA--N-[C] |==|  0.68243
USER: genes 19 Torsion [N]-C--CA-[N] |==|  0.92248
USER: genes 20 Torsion [C]-CA--CB-[CG] |==|  0.00578
USER: genes 21 Torsion [CA]-CB--CG-[CD] |==|  0.34014
USER: genes 22 Torsion [CB]-CG--CD-[OE1] |==|  0.62457
USER: genes 23 Torsion [C]-CA--CB-[CG] |==|  0.31382
USER: genes 24 Torsion [CA]-CB--CG-[CD2] |==|  0.56924
USER: genes 25 Torsion [C]-CA--CB-[CG] |==|  0.75371
USER: genes 26 Torsion [CA]-CB--CG-[CD2] |==|  0.63726
ROOT
ATOM      1  C   LEU D   6      19.532  16.864  43.791  1.00 70.97 LIG 0.24  C 
ATOM      2 O    LEU D   6      18.368  17.000  44.135  1.00 69.80 LIG-0.27  OA
ATOM      3  N   PRO D   7      19.868  16.526  42.535  1.00 67.36 LIG-0.34  N 
ATOM      4  CA  PRO D   7      18.814  16.314  41.546  1.00 66.95 LIG 0.18  C 
ATOM      5  CB  PRO D   7      19.460  16.799  40.238  1.00 69.23 LIG 0.04  C 
ATOM      6  CG  PRO D   7      20.972  16.762  40.488  1.00 73.99 LIG 0.02  C 
ATOM      7  CD  PRO D   7      21.202  16.361  41.923  1.00 69.55 LIG 0.13  C 
ENDROOT
BRANCH 4 8
ATOM      8  C   PRO D   7      18.387  14.851  41.465  1.00 67.39 LIG 0.24  C 
ATOM      9  N   LEU D   8      18.549  14.139  42.575  1.00 63.51 LIG-0.35  N 
ATOM     10 H    LEU D   8      18.913  14.450  43.290  1.00 63.51 LIG 0.16  HD
ATOM     11 O    PRO D   7      17.921  14.377  40.427  1.00 65.73 LIG-0.27  OA
BRANCH 9 12
ATOM     12  CA  LEU D   8      18.122  12.759  42.681  1.00 63.43 LIG 0.18  C 
BRANCH 12 13
ATOM     13  CB  LEU D   8      18.557  12.141  44.006  1.00 63.06 LIG 0.04  C 
BRANCH 13 14
ATOM     14  CG  LEU D   8      19.210  10.792  43.824  1.00 67.32 LIG-0.02  C 
ATOM     15  CD1 LEU D   8      18.190   9.733  43.605  1.00 66.57 LIG 0.01  C 
ATOM     16  CD2 LEU D   8      20.245  10.827  42.733  1.00 70.19 LIG 0.01  C 
ENDBRANCH 13 14
ENDBRANCH 12 13
BRANCH 12 17
ATOM     17  C   LEU D   8      16.626  12.662  42.479  1.00 69.22 LIG 0.24  C 
ATOM     18  N   PHE D   9      16.189  11.776  41.575  1.00 66.75 LIG-0.35  N 
ATOM     19 H    PHE D   9      16.712  11.273  41.113  1.00 66.75 LIG 0.16  HD
ATOM     20 O    LEU D   8      15.879  13.419  43.098  1.00 69.38 LIG-0.27  OA
BRANCH 18 21
ATOM     21  CA  PHE D   9      14.775  11.578  41.288  1.00 67.50 LIG 0.18  C 
BRANCH 21 22
ATOM     22  CB  PHE D   9      14.556  10.301  40.465  1.00 70.09 LIG 0.07  C 
BRANCH 22 23
ATOM     23  CG  PHE D   9      13.499  10.337  39.382  1.00 72.62 LIG-0.06  A 
ATOM     24  CD2 PHE D   9      12.210  10.772  39.664  1.00 75.26 LIG 0.01  A 
ATOM     25  CE2 PHE D   9      11.245  10.843  38.660  1.00 78.46 LIG 0.00  A 
ATOM     26  CZ  PHE D   9      11.565  10.484  37.366  1.00 76.95 LIG 0.00  A 
ATOM     27  CE1 PHE D   9      12.842  10.068  37.062  1.00 77.74 LIG 0.00  A 
ATOM     28  CD1 PHE D   9      13.816  10.029  38.061  1.00 76.53 LIG 0.01  A 
ENDBRANCH 22 23
ENDBRANCH 21 22
BRANCH 21 29
ATOM     29  C   PHE D   9      13.935  11.539  42.566  1.00 72.50 LIG 0.24  C 
ATOM     30 O    PHE D   9      14.404  11.058  43.600  1.00 71.57 LIG-0.27  OA
ATOM     31  N   SER D  10      12.696  12.062  42.503  1.00 70.70 LIG-0.34  N 
ATOM     32 H    SER D  10      12.367  12.419  41.794  1.00 70.70 LIG 0.16  HD
BRANCH 31 33
ATOM     33  CA  SER D  10      11.783  12.068  43.652  1.00110.54 LIG 0.19  C 
BRANCH 33 34
ATOM     34  C   SER D  10      11.236  10.668  43.933  1.00112.68 LIG 0.22  C 
ATOM     35 O    SER D  10      11.877   9.886  44.636  1.00 61.17 LIG-0.29  OA
ENDBRANCH 33 34
BRANCH 33 36
ATOM     36  CB  SER D  10      10.644  13.060  43.438  1.00114.99 LIG 0.20  C 
BRANCH 36 37
ATOM     37 OG   SER D  10       9.775  12.652  42.393  1.00125.63 LIG-0.40  OA
ATOM     38 HG   SER D  10      10.195  12.645  41.665  1.00125.63 LIG 0.21  HD
ENDBRANCH 36 37
ENDBRANCH 33 36
ENDBRANCH 31 33
ENDBRANCH 21 29
ENDBRANCH 18 21
ENDBRANCH 12 17
ENDBRANCH 9 12
ENDBRANCH 4 8
BRANCH 1 39
ATOM     39  CA  LEU D   6      20.633  17.031  44.801  1.00 70.47 LIG 0.18  C 
BRANCH 39 40
ATOM     40  N   LEU D   6      21.760  16.118  44.686  1.00 72.03 LIG-0.35  N 
ATOM     41  C   PHE D   5      21.571  14.799  44.702  1.00 78.51 LIG 0.24  C 
ATOM     42 O    PHE D   5      20.453  14.275  44.774  1.00 77.96 LIG-0.27  OA
ATOM     43 H    LEU D   6      22.527  16.499  44.610  1.00 72.03 LIG 0.16  HD
BRANCH 41 44
ATOM     44  CA  PHE D   5      22.820  13.949  44.747  1.00 78.26 LIG 0.18  C 
BRANCH 44 45
ATOM     45  N   PHE D   5      23.984  14.806  44.986  1.00 79.00 LIG-0.34  N 
ATOM     46 H    PHE D   5      23.993  15.190  45.756  1.00 79.00 LIG 0.16  HD
ATOM     47  C   GLU D   4      24.936  14.957  44.062  1.00 84.09 LIG 0.26  C 
ATOM     48 O    GLU D   4      24.951  14.327  43.006  1.00 84.89 LIG-0.27  OA
BRANCH 47 49
ATOM     49  CA  GLU D   4      26.048  15.949  44.352  1.00 80.59 LIG 0.40  C 
ATOM     50  N   GLU D   4      25.565  17.004  45.237  1.00 81.26 LIG 0.61  N 
BRANCH 49 51
ATOM     51  CB  GLU D   4      27.243  15.214  44.998  1.00 81.69 LIG 0.06  C 
BRANCH 51 52
ATOM     52  CG  GLU D   4      27.049  13.713  45.138  1.00 88.66 LIG 0.12  C 
BRANCH 52 53
ATOM     53  CD  GLU D   4      28.093  12.841  44.464  1.00 99.07 LIG 0.17  C 
ATOM     54 OE1  GLU D   4      27.716  11.850  43.796  1.00 74.80 LIG-0.65  OA
ATOM     55 OE2  GLU D   4      29.291  13.195  44.546  1.00 93.08 LIG-0.65  OA
ENDBRANCH 52 53
ENDBRANCH 51 52
ENDBRANCH 49 51
ENDBRANCH 47 49
ENDBRANCH 44 45
BRANCH 44 56
ATOM     56  CB  PHE D   5      22.734  12.755  45.702  1.00 80.27 LIG 0.07  C 
BRANCH 56 57
ATOM     57  CG  PHE D   5      22.748  11.430  44.974  1.00 81.89 LIG-0.06  A 
ATOM     58  CD2 PHE D   5      22.182  10.293  45.547  1.00 84.17 LIG 0.01  A 
ATOM     59  CE2 PHE D   5      22.204   9.065  44.878  1.00 86.81 LIG 0.00  A 
ATOM     60  CZ  PHE D   5      22.777   8.972  43.629  1.00 84.76 LIG 0.00  A 
ATOM     61  CE1 PHE D   5      23.352  10.085  43.050  1.00 85.59 LIG 0.00  A 
ATOM     62  CD1 PHE D   5      23.342  11.311  43.724  1.00 84.61 LIG 0.01  A 
ENDBRANCH 56 57
ENDBRANCH 44 56
ENDBRANCH 41 44
ENDBRANCH 39 40
BRANCH 39 63
ATOM     63  CB  LEU D   6      21.114  18.478  44.848  1.00 70.57 LIG 0.04  C 
BRANCH 63 64
ATOM     64  CG  LEU D   6      22.224  18.805  43.873  1.00 75.48 LIG-0.02  C 
ATOM     65  CD2 LEU D   6      23.325  19.501  44.544  1.00 78.97 LIG 0.01  C 
ATOM     66  CD1 LEU D   6      21.715  19.613  42.752  1.00 75.94 LIG 0.01  C 
ENDBRANCH 63 64
ENDBRANCH 39 63
ENDBRANCH 1 39
TORSDOF 25
ENDMDL
MODEL 39
USER: ADFR SOLUTION from run 100
USER: SCORE 22.763404 LL:  -7.252 LR: -16.817 RR:   0.000 FEB:  -9.360
USER: RMSD 12.434306
USER: SEED 99
USER: STATUS searching
USER: GENES 27
USER: genes 0 Translation |==|  0.54708 0.78133 0.54379
USER: genes 1 Rotation |==|  0.15604 0.81799 0.67470 0.50733
USER: genes 2 Torsion [N]-CA--C-[N] |==|  0.21623
USER: genes 3 Torsion [C]-N--CA-[C] |==|  0.75892
USER: genes 4 Torsion [N]-CA--CB-[CG] |==|  0.81460
USER: genes 5 Torsion [CA]-CB--CG-[CD1] |==|  0.55246
USER: genes 6 Torsion [N]-CA--C-[N] |==|  0.25491
USER: genes 7 Torsion [C]-N--CA-[CB] |==|  0.54801
USER: genes 8 Torsion [N]-CA--CB-[CG] |==|  0.47149
USER: genes 9 Torsion [CA]-CB--CG-[CD1] |==|  0.15389
USER: genes 10 Torsion [N]-CA--C-[N] |==|  0.35497
USER: genes 11 Torsion [C]-N--CA-[C] |==|  0.60189
USER: genes 12 Torsion [N]-CA--C-[O] |==|  0.04475
USER: genes 13 Torsion [N]-CA--CB-[OG] |==|  0.07071
USER: genes 14 Torsion [CA]-CB--OG-[HG] |==|  0.96256
USER: genes 15 Torsion [N]-C--CA-[N] |==|  0.90777
USER: genes 16 Torsion [C]-CA--N-[C] |==|  0.83333
USER: genes 17 Torsion [N]-C--CA-[N] |==|  0.56574
USER: genes 18 Torsion [C]-CA--N-[C] |==|  0.64577
USER: genes 19 Torsion [N]-C--CA-[N] |==|  0.70882
USER: genes 20 Torsion [C]-CA--CB-[CG] |==|  0.44746
USER: genes 21 Torsion [CA]-CB--CG-[CD] |==|  0.97930
USER: genes 22 Torsion [CB]-CG--CD-[OE1] |==|  0.69285
USER: genes 23 Torsion [C]-CA--CB-[CG] |==|  0.46101
USER: genes 24 Torsion [CA]-CB--CG-[CD2] |==|  0.24429
USER: genes 25 Torsion [C]-CA--CB-[CG] |==|  0.69310
USER: genes 26 Torsion [CA]-CB--CG-[CD2] |==|  0.65275
ROOT
ATOM      1  C   LEU D   6      19.339  16.983  43.525  1.00 70.97 LIG 0.24  C 
ATOM      2 O    LEU D   6      18.205  17.038  43.977  1.00 69.80 LIG-0.27  OA
ATOM      3  N   PRO D   7      19.592  16.501  42.297  1.00 67.36 LIG-0.34  N 
ATOM      4  CA  PRO D   7      18.484  16.026  41.473  1.00 66.95 LIG 0.18  C 
ATOM      5  CB  PRO D   7      18.934  16.379  40.046  1.00 69.23 LIG 0.04  C 
ATOM      6  CG  PRO D   7      20.455  16.549  40.124  1.00 73.99 LIG 0.02  C 
ATOM      7  CD  PRO D   7      20.871  16.396  41.565  1.00 69.55 LIG 0.13  C 
ENDROOT
BRANCH 4 8
ATOM      8  C   PRO D   7      18.241  14.529  41.642  1.00 67.39 LIG 0.24  C 
ATOM      9  N   LEU D   8      17.594  14.169  42.745  1.00 63.51 LIG-0.35  N 
ATOM     10 H    LEU D   8      17.361  14.723  43.361  1.00 63.51 LIG 0.16  HD
ATOM     11 O    PRO D   7      18.625  13.718  40.796  1.00 65.73 LIG-0.27  OA
BRANCH 9 12
ATOM     12  CA  LEU D   8      17.221  12.795  43.014  1.00 63.43 LIG 0.18  C 
BRANCH 12 13
ATOM     13  CB  LEU D   8      17.225  12.498  44.509  1.00 63.06 LIG 0.04  C 
BRANCH 13 14
ATOM     14  CG  LEU D   8      18.612  12.556  45.103  1.00 67.32 LIG-0.02  C 
ATOM     15  CD1 LEU D   8      18.663  11.842  46.405  1.00 66.57 LIG 0.01  C 
ATOM     16  CD2 LEU D   8      19.645  12.054  44.132  1.00 70.19 LIG 0.01  C 
ENDBRANCH 13 14
ENDBRANCH 12 13
BRANCH 12 17
ATOM     17  C   LEU D   8      15.880  12.489  42.383  1.00 69.22 LIG 0.24  C 
ATOM     18  N   PHE D   9      15.890  11.987  41.142  1.00 66.75 LIG-0.35  N 
ATOM     19 H    PHE D   9      16.612  11.838  40.697  1.00 66.75 LIG 0.16  HD
ATOM     20 O    LEU D   8      14.846  12.755  42.995  1.00 69.38 LIG-0.27  OA
BRANCH 18 21
ATOM     21  CA  PHE D   9      14.672  11.644  40.422  1.00 67.50 LIG 0.18  C 
BRANCH 21 22
ATOM     22  CB  PHE D   9      14.977  10.717  39.237  1.00 70.09 LIG 0.07  C 
BRANCH 22 23
ATOM     23  CG  PHE D   9      13.804  10.075  38.528  1.00 72.62 LIG-0.06  A 
ATOM     24  CD2 PHE D   9      13.682   8.692  38.468  1.00 75.26 LIG 0.01  A 
ATOM     25  CE2 PHE D   9      12.583   8.098  37.850  1.00 78.46 LIG 0.00  A 
ATOM     26  CZ  PHE D   9      11.595   8.884  37.291  1.00 76.95 LIG 0.00  A 
ATOM     27  CE1 PHE D   9      11.687  10.257  37.357  1.00 77.74 LIG 0.00  A 
ATOM     28  CD1 PHE D   9      12.771  10.850  38.005  1.00 76.53 LIG 0.01  A 
ENDBRANCH 22 23
ENDBRANCH 21 22
BRANCH 21 29
ATOM     29  C   PHE D   9      13.629  11.007  41.342  1.00 72.50 LIG 0.24  C 
ATOM     30 O    PHE D   9      13.937  10.053  42.060  1.00 71.57 LIG-0.27  OA
ATOM     31  N   SER D  10      12.394  11.544  41.335  1.00 70.70 LIG-0.34  N 
ATOM     32 H    SER D  10      12.174  12.222  40.855  1.00 70.70 LIG 0.16  HD
BRANCH 31 33
ATOM     33  CA  SER D  10      11.299  11.013  42.155  1.00110.54 LIG 0.19  C 
BRANCH 33 34
ATOM     34  C   SER D  10       9.962  11.095  41.416  1.00112.68 LIG 0.22  C 
ATOM     35 O    SER D  10       9.943  11.276  40.199  1.00 61.17 LIG-0.29  OA
ENDBRANCH 33 34
BRANCH 33 36
ATOM     36  CB  SER D  10      11.221  11.740  43.495  1.00114.99 LIG 0.20  C 
BRANCH 36 37
ATOM     37 OG   SER D  10      11.766  13.048  43.421  1.00125.63 LIG-0.40  OA
ATOM     38 HG   SER D  10      12.202  13.130  42.707  1.00125.63 LIG 0.21  HD
ENDBRANCH 36 37
ENDBRANCH 33 36
ENDBRANCH 31 33
ENDBRANCH 21 29
ENDBRANCH 18 21
ENDBRANCH 12 17
ENDBRANCH 9 12
ENDBRANCH 4 8
BRANCH 1 39
ATOM     39  CA  LEU D   6      20.502  17.422  44.370  1.00 70.47 LIG 0.18  C 
BRANCH 39 40
ATOM     40  N   LEU D   6      21.741  16.678  44.200  1.00 72.03 LIG-0.35  N 
ATOM     41  C   PHE D   5      21.787  15.369  44.442  1.00 78.51 LIG 0.24  C 
ATOM     42 O    PHE D   5      20.799  14.706  44.779  1.00 77.96 LIG-0.27  OA
ATOM     43 H    LEU D   6      22.412  17.149  43.940  1.00 72.03 LIG 0.16  HD
BRANCH 41 44
ATOM     44  CA  PHE D   5      23.158  14.732  44.399  1.00 78.26 LIG 0.18  C 
BRANCH 44 45
ATOM     45  N   PHE D   5      23.020  13.301  44.117  1.00 79.00 LIG-0.34  N 
ATOM     46 H    PHE D   5      22.548  13.118  43.421  1.00 79.00 LIG 0.16  HD
ATOM     47  C   GLU D   4      23.594  12.381  44.896  1.00 84.09 LIG 0.26  C 
ATOM     48 O    GLU D   4      24.341  12.666  45.831  1.00 84.89 LIG-0.27  OA
BRANCH 47 49
ATOM     49  CA  GLU D   4      23.307  10.922  44.592  1.00 80.59 LIG 0.40  C 
ATOM     50  N   GLU D   4      22.372  10.377  45.570  1.00 81.26 LIG 0.61  N 
BRANCH 49 51
ATOM     51  CB  GLU D   4      22.725  10.795  43.166  1.00 81.69 LIG 0.06  C 
BRANCH 51 52
ATOM     52  CG  GLU D   4      22.818   9.397  42.577  1.00 88.66 LIG 0.12  C 
BRANCH 52 53
ATOM     53  CD  GLU D   4      23.613   8.386  43.383  1.00 99.07 LIG 0.17  C 
ATOM     54 OE1  GLU D   4      24.712   7.983  42.935  1.00 74.80 LIG-0.65  OA
ATOM     55 OE2  GLU D   4      23.167   8.052  44.504  1.00 93.08 LIG-0.65  OA
ENDBRANCH 52 53
ENDBRANCH 51 52
ENDBRANCH 49 51
ENDBRANCH 47 49
ENDBRANCH 44 45
BRANCH 44 56
ATOM     56  CB  PHE D   5      24.155  15.444  43.480  1.00 80.27 LIG 0.07  C 
BRANCH 56 57
ATOM     57  CG  PHE D   5      25.580  14.997  43.717  1.00 81.89 LIG-0.06  A 
ATOM     58  CD2 PHE D   5      26.105  13.895  43.044  1.00 84.17 LIG 0.01  A 
ATOM     59  CE2 PHE D   5      27.419  13.476  43.270  1.00 86.81 LIG 0.00  A 
ATOM     60  CZ  PHE D   5      28.219  14.164  44.157  1.00 84.76 LIG 0.00  A 
ATOM     61  CE1 PHE D   5      27.712  15.251  44.840  1.00 85.59 LIG 0.00  A 
ATOM     62  CD1 PHE D   5      26.393  15.664  44.624  1.00 84.61 LIG 0.01  A 
ENDBRANCH 56 57
ENDBRANCH 44 56
ENDBRANCH 41 44
ENDBRANCH 39 40
BRANCH 39 63
ATOM     63  CB  LEU D   6      20.747  18.920  44.224  1.00 70.57 LIG 0.04  C 
BRANCH 63 64
ATOM     64  CG  LEU D   6      22.019  19.281  43.486  1.00 75.48 LIG-0.02  C 
ATOM     65  CD2 LEU D   6      22.859  20.172  44.292  1.00 78.97 LIG 0.01  C 
ATOM     66  CD1 LEU D   6      21.712  19.903  42.187  1.00 75.94 LIG 0.01  C 
ENDBRANCH 63 64
ENDBRANCH 39 63
ENDBRANCH 1 39
TORSDOF 25
ENDMDL
MODEL 40
USER: ADFR SOLUTION from run 119
USER: SCORE 23.110213 LL:  -6.795 LR: -16.749 RR:   0.000 FEB:  -9.291
USER: RMSD 12.151094
USER: SEED 118
USER: STATUS no improvement in best in 7 clusters for 5 generations
USER: GENES 27
USER: genes 0 Translation |==|  0.54792 0.79023 0.55533
USER: genes 1 Rotation |==|  0.15923 0.83082 0.63527 0.57837
USER: genes 2 Torsion [N]-CA--C-[N] |==|  0.03220
USER: genes 3 Torsion [C]-N--CA-[C] |==|  0.83899
USER: genes 4 Torsion [N]-CA--CB-[CG] |==|  0.67266
USER: genes 5 Torsion [CA]-CB--CG-[CD1] |==|  0.40859
USER: genes 6 Torsion [N]-CA--C-[N] |==|  0.37223
USER: genes 7 Torsion [C]-N--CA-[CB] |==|  0.53649
USER: genes 8 Torsion [N]-CA--CB-[CG] |==|  0.63511
USER: genes 9 Torsion [CA]-CB--CG-[CD1] |==|  0.27402
USER: genes 10 Torsion [N]-CA--C-[N] |==|  0.42888
USER: genes 11 Torsion [C]-N--CA-[C] |==|  0.84530
USER: genes 12 Torsion [N]-CA--C-[O] |==|  0.82212
USER: genes 13 Torsion [N]-CA--CB-[OG] |==|  0.10588
USER: genes 14 Torsion [CA]-CB--OG-[HG] |==|  0.74643
USER: genes 15 Torsion [N]-C--CA-[N] |==|  0.88522
USER: genes 16 Torsion [C]-CA--N-[C] |==|  0.85322
USER: genes 17 Torsion [N]-C--CA-[N] |==|  0.95827
USER: genes 18 Torsion [C]-CA--N-[C] |==|  0.74924
USER: genes 19 Torsion [N]-C--CA-[N] |==|  0.06528
USER: genes 20 Torsion [C]-CA--CB-[CG] |==|  0.87434
USER: genes 21 Torsion [CA]-CB--CG-[CD] |==|  0.63385
USER: genes 22 Torsion [CB]-CG--CD-[OE1] |==|  0.06046
USER: genes 23 Torsion [C]-CA--CB-[CG] |==|  0.97095
USER: genes 24 Torsion [CA]-CB--CG-[CD2] |==|  0.79788
USER: genes 25 Torsion [C]-CA--CB-[CG] |==|  0.75735
USER: genes 26 Torsion [CA]-CB--CG-[CD2] |==|  0.68757
ROOT
ATOM      1  C   LEU D   6      19.364  17.143  43.750  1.00 70.97 LIG 0.24  C 
ATOM      2 O    LEU D   6      18.165  17.347  43.876  1.00 69.80 LIG-0.27  OA
ATOM      3  N   PRO D   7      19.891  16.697  42.597  1.00 67.36 LIG-0.34  N 
ATOM      4  CA  PRO D   7      19.012  16.445  41.459  1.00 66.95 LIG 0.18  C 
ATOM      5  CB  PRO D   7      19.893  16.804  40.252  1.00 69.23 LIG 0.04  C 
ATOM      6  CG  PRO D   7      21.337  16.733  40.761  1.00 73.99 LIG 0.02  C 
ATOM      7  CD  PRO D   7      21.300  16.437  42.238  1.00 69.55 LIG 0.13  C 
ENDROOT
BRANCH 4 8
ATOM      8  C   PRO D   7      18.535  14.996  41.409  1.00 67.39 LIG 0.24  C 
ATOM      9  N   LEU D   8      18.777  14.271  42.495  1.00 63.51 LIG-0.35  N 
ATOM     10 H    LEU D   8      19.214  14.564  43.175  1.00 63.51 LIG 0.16  HD
ATOM     11 O    PRO D   7      17.961  14.545  40.416  1.00 65.73 LIG-0.27  OA
BRANCH 9 12
ATOM     12  CA  LEU D   8      18.320  12.903  42.633  1.00 63.43 LIG 0.18  C 
BRANCH 12 13
ATOM     13  CB  LEU D   8      18.789  12.287  43.947  1.00 63.06 LIG 0.04  C 
BRANCH 13 14
ATOM     14  CG  LEU D   8      19.694  11.098  43.733  1.00 67.32 LIG-0.02  C 
ATOM     15  CD1 LEU D   8      20.713  11.005  44.811  1.00 66.57 LIG 0.01  C 
ATOM     16  CD2 LEU D   8      18.903   9.827  43.580  1.00 70.19 LIG 0.01  C 
ENDBRANCH 13 14
ENDBRANCH 12 13
BRANCH 12 17
ATOM     17  C   LEU D   8      16.815  12.842  42.488  1.00 69.22 LIG 0.24  C 
ATOM     18  N   PHE D   9      16.316  11.883  41.697  1.00 66.75 LIG-0.35  N 
ATOM     19 H    PHE D   9      16.806  11.316  41.275  1.00 66.75 LIG 0.16  HD
ATOM     20 O    LEU D   8      16.116  13.687  43.046  1.00 69.38 LIG-0.27  OA
BRANCH 18 21
ATOM     21  CA  PHE D   9      14.888  11.710  41.476  1.00 67.50 LIG 0.18  C 
BRANCH 21 22
ATOM     22  CB  PHE D   9      14.596  10.361  40.803  1.00 70.09 LIG 0.07  C 
BRANCH 22 23
ATOM     23  CG  PHE D   9      13.683  10.363  39.596  1.00 72.62 LIG-0.06  A 
ATOM     24  CD2 PHE D   9      12.307  10.489  39.747  1.00 75.26 LIG 0.01  A 
ATOM     25  CE2 PHE D   9      11.468  10.529  38.635  1.00 78.46 LIG 0.00  A 
ATOM     26  CZ  PHE D   9      11.999  10.448  37.364  1.00 76.95 LIG 0.00  A 
ATOM     27  CE1 PHE D   9      13.361  10.342  37.191  1.00 77.74 LIG 0.00  A 
ATOM     28  CD1 PHE D   9      14.203  10.335  38.304  1.00 76.53 LIG 0.01  A 
ENDBRANCH 22 23
ENDBRANCH 21 22
BRANCH 21 29
ATOM     29  C   PHE D   9      14.092  11.840  42.776  1.00 72.50 LIG 0.24  C 
ATOM     30 O    PHE D   9      14.634  11.611  43.859  1.00 71.57 LIG-0.27  OA
ATOM     31  N   SER D  10      12.806  12.226  42.672  1.00 70.70 LIG-0.34  N 
ATOM     32 H    SER D  10      12.423  12.409  41.925  1.00 70.70 LIG 0.16  HD
BRANCH 31 33
ATOM     33  CA  SER D  10      11.929  12.369  43.841  1.00110.54 LIG 0.19  C 
BRANCH 33 34
ATOM     34  C   SER D  10      11.873  11.075  44.654  1.00112.68 LIG 0.22  C 
ATOM     35 O    SER D  10      11.397  10.055  44.156  1.00 61.17 LIG-0.29  OA
ENDBRANCH 33 34
BRANCH 33 36
ATOM     36  CB  SER D  10      10.528  12.804  43.421  1.00114.99 LIG 0.20  C 
BRANCH 36 37
ATOM     37 OG   SER D  10      10.119  12.180  42.213  1.00125.63 LIG-0.40  OA
ATOM     38 HG   SER D  10      10.333  12.665  41.561  1.00125.63 LIG 0.21  HD
ENDBRANCH 36 37
ENDBRANCH 33 36
ENDBRANCH 31 33
ENDBRANCH 21 29
ENDBRANCH 18 21
ENDBRANCH 12 17
ENDBRANCH 9 12
ENDBRANCH 4 8
BRANCH 1 39
ATOM     39  CA  LEU D   6      20.284  17.350  44.920  1.00 70.47 LIG 0.18  C 
BRANCH 39 40
ATOM     40  N   LEU D   6      21.300  16.331  45.131  1.00 72.03 LIG-0.35  N 
ATOM     41  C   PHE D   5      20.966  15.044  45.213  1.00 78.51 LIG 0.24  C 
ATOM     42 O    PHE D   5      19.807  14.634  45.080  1.00 77.96 LIG-0.27  OA
ATOM     43 H    LEU D   6      22.104  16.629  45.195  1.00 72.03 LIG 0.16  HD
BRANCH 41 44
ATOM     44  CA  PHE D   5      22.075  14.092  45.602  1.00 78.26 LIG 0.18  C 
BRANCH 44 45
ATOM     45  N   PHE D   5      23.367  14.766  45.458  1.00 79.00 LIG-0.34  N 
ATOM     46 H    PHE D   5      23.634  15.181  46.163  1.00 79.00 LIG 0.16  HD
ATOM     47  C   GLU D   4      24.051  14.720  44.312  1.00 84.09 LIG 0.26  C 
ATOM     48 O    GLU D   4      23.698  14.044  43.347  1.00 84.89 LIG-0.27  OA
BRANCH 47 49
ATOM     49  CA  GLU D   4      25.327  15.538  44.219  1.00 80.59 LIG 0.40  C 
ATOM     50  N   GLU D   4      25.864  15.788  45.553  1.00 81.26 LIG 0.61  N 
BRANCH 49 51
ATOM     51  CB  GLU D   4      26.364  14.783  43.358  1.00 81.69 LIG 0.06  C 
BRANCH 51 52
ATOM     52  CG  GLU D   4      26.490  13.304  43.686  1.00 88.66 LIG 0.12  C 
BRANCH 52 53
ATOM     53  CD  GLU D   4      27.903  12.781  43.867  1.00 99.07 LIG 0.17  C 
ATOM     54 OE1  GLU D   4      28.817  13.590  44.152  1.00 74.80 LIG-0.65  OA
ATOM     55 OE2  GLU D   4      28.082  11.544  43.796  1.00 93.08 LIG-0.65  OA
ENDBRANCH 52 53
ENDBRANCH 51 52
ENDBRANCH 49 51
ENDBRANCH 47 49
ENDBRANCH 44 45
BRANCH 44 56
ATOM     56  CB  PHE D   5      21.882  13.424  46.966  1.00 80.27 LIG 0.07  C 
BRANCH 56 57
ATOM     57  CG  PHE D   5      20.751  14.041  47.757  1.00 81.89 LIG-0.06  A 
ATOM     58  CD2 PHE D   5      20.887  15.303  48.333  1.00 84.17 LIG 0.01  A 
ATOM     59  CE2 PHE D   5      19.844  15.869  49.074  1.00 86.81 LIG 0.00  A 
ATOM     60  CZ  PHE D   5      18.658  15.185  49.228  1.00 84.76 LIG 0.00  A 
ATOM     61  CE1 PHE D   5      18.510  13.930  48.674  1.00 85.59 LIG 0.00  A 
ATOM     62  CD1 PHE D   5      19.557  13.356  47.944  1.00 84.61 LIG 0.01  A 
ENDBRANCH 56 57
ENDBRANCH 44 56
ENDBRANCH 41 44
ENDBRANCH 39 40
BRANCH 39 63
ATOM     63  CB  LEU D   6      20.913  18.738  44.880  1.00 70.57 LIG 0.04  C 
BRANCH 63 64
ATOM     64  CG  LEU D   6      22.189  18.829  44.072  1.00 75.48 LIG-0.02  C 
ATOM     65  CD2 LEU D   6      23.342  19.095  44.938  1.00 78.97 LIG 0.01  C 
ATOM     66  CD1 LEU D   6      22.080  19.867  43.033  1.00 75.94 LIG 0.01  C 
ENDBRANCH 63 64
ENDBRANCH 39 63
ENDBRANCH 1 39
TORSDOF 25
ENDMDL
MODEL 41
USER: ADFR SOLUTION from run 125
USER: SCORE 21.789446 LL:  -6.434 LR: -16.699 RR:   0.000 FEB:  -9.242
USER: RMSD 13.956452
USER: SEED 124
USER: STATUS searching
USER: GENES 27
USER: genes 0 Translation |==|  0.50904 0.53228 0.48736
USER: genes 1 Rotation |==|  0.52465 0.84628 0.14504 0.55906
USER: genes 2 Torsion [N]-CA--C-[N] |==|  0.50526
USER: genes 3 Torsion [C]-N--CA-[C] |==|  0.71117
USER: genes 4 Torsion [N]-CA--CB-[CG] |==|  0.33378
USER: genes 5 Torsion [CA]-CB--CG-[CD1] |==|  0.33889
USER: genes 6 Torsion [N]-CA--C-[N] |==|  0.37456
USER: genes 7 Torsion [C]-N--CA-[CB] |==|  0.52801
USER: genes 8 Torsion [N]-CA--CB-[CG] |==|  0.24559
USER: genes 9 Torsion [CA]-CB--CG-[CD1] |==|  0.34308
USER: genes 10 Torsion [N]-CA--C-[N] |==|  0.40236
USER: genes 11 Torsion [C]-N--CA-[C] |==|  0.79701
USER: genes 12 Torsion [N]-CA--C-[O] |==|  0.03622
USER: genes 13 Torsion [N]-CA--CB-[OG] |==|  0.55968
USER: genes 14 Torsion [CA]-CB--OG-[HG] |==|  0.96639
USER: genes 15 Torsion [N]-C--CA-[N] |==|  0.44238
USER: genes 16 Torsion [C]-CA--N-[C] |==|  0.56130
USER: genes 17 Torsion [N]-C--CA-[N] |==|  0.76492
USER: genes 18 Torsion [C]-CA--N-[C] |==|  0.70488
USER: genes 19 Torsion [N]-C--CA-[N] |==|  0.12741
USER: genes 20 Torsion [C]-CA--CB-[CG] |==|  0.52468
USER: genes 21 Torsion [CA]-CB--CG-[CD] |==|  0.21647
USER: genes 22 Torsion [CB]-CG--CD-[OE1] |==|  0.21688
USER: genes 23 Torsion [C]-CA--CB-[CG] |==|  0.25339
USER: genes 24 Torsion [CA]-CB--CG-[CD2] |==|  0.54071
USER: genes 25 Torsion [C]-CA--CB-[CG] |==|  0.67682
USER: genes 26 Torsion [CA]-CB--CG-[CD2] |==|  0.64003
ROOT
ATOM      1  C   LEU D   6      18.226  12.500  42.424  1.00 70.97 LIG 0.24  C 
ATOM      2 O    LEU D   6      18.732  12.299  41.330  1.00 69.80 LIG-0.27  OA
ATOM      3  N   PRO D   7      17.144  11.823  42.842  1.00 67.36 LIG-0.34  N 
ATOM      4  CA  PRO D   7      16.547  10.817  41.968  1.00 66.95 LIG 0.18  C 
ATOM      5  CB  PRO D   7      16.021   9.764  42.956  1.00 69.23 LIG 0.04  C 
ATOM      6  CG  PRO D   7      15.898  10.487  44.302  1.00 73.99 LIG 0.02  C 
ATOM      7  CD  PRO D   7      16.424  11.889  44.131  1.00 69.55 LIG 0.13  C 
ENDROOT
BRANCH 4 8
ATOM      8  C   PRO D   7      15.433  11.395  41.101  1.00 67.39 LIG 0.24  C 
ATOM      9  N   LEU D   8      14.813  10.532  40.304  1.00 63.51 LIG-0.35  N 
ATOM     10 H    LEU D   8      15.040   9.705  40.231  1.00 63.51 LIG 0.16  HD
ATOM     11 O    PRO D   7      15.137  12.591  41.151  1.00 65.73 LIG-0.27  OA
BRANCH 9 12
ATOM     12  CA  LEU D   8      13.684  10.909  39.477  1.00 63.43 LIG 0.18  C 
BRANCH 12 13
ATOM     13  CB  LEU D   8      13.861  10.431  38.040  1.00 63.06 LIG 0.04  C 
BRANCH 13 14
ATOM     14  CG  LEU D   8      12.757   9.496  37.607  1.00 67.32 LIG-0.02  C 
ATOM     15  CD1 LEU D   8      12.054  10.023  36.409  1.00 66.57 LIG 0.01  C 
ATOM     16  CD2 LEU D   8      13.273   8.097  37.401  1.00 70.19 LIG 0.01  C 
ENDBRANCH 13 14
ENDBRANCH 12 13
BRANCH 12 17
ATOM     17  C   LEU D   8      12.399  10.396  40.088  1.00 69.22 LIG 0.24  C 
ATOM     18  N   PHE D   9      11.365  11.244  40.137  1.00 66.75 LIG-0.35  N 
ATOM     19 H    PHE D   9      11.402  12.053  39.845  1.00 66.75 LIG 0.16  HD
ATOM     20 O    LEU D   8      12.362   9.258  40.557  1.00 69.38 LIG-0.27  OA
BRANCH 18 21
ATOM     21  CA  PHE D   9      10.070  10.876  40.693  1.00 67.50 LIG 0.18  C 
BRANCH 21 22
ATOM     22  CB  PHE D   9       9.017  11.952  40.392  1.00 70.09 LIG 0.07  C 
BRANCH 22 23
ATOM     23  CG  PHE D   9       8.249  11.837  39.093  1.00 72.62 LIG-0.06  A 
ATOM     24  CD2 PHE D   9       8.919  11.688  37.884  1.00 75.26 LIG 0.01  A 
ATOM     25  CE2 PHE D   9       8.212  11.544  36.691  1.00 78.46 LIG 0.00  A 
ATOM     26  CZ  PHE D   9       6.833  11.542  36.699  1.00 76.95 LIG 0.00  A 
ATOM     27  CE1 PHE D   9       6.150  11.668  37.889  1.00 77.74 LIG 0.00  A 
ATOM     28  CD1 PHE D   9       6.857  11.780  39.086  1.00 76.53 LIG 0.01  A 
ENDBRANCH 22 23
ENDBRANCH 21 22
BRANCH 21 29
ATOM     29  C   PHE D   9       9.600   9.513  40.183  1.00 72.50 LIG 0.24  C 
ATOM     30 O    PHE D   9       9.870   9.155  39.034  1.00 71.57 LIG-0.27  OA
ATOM     31  N   SER D  10       8.909   8.740  41.043  1.00 70.70 LIG-0.34  N 
ATOM     32 H    SER D  10       8.734   8.970  41.853  1.00 70.70 LIG 0.16  HD
BRANCH 31 33
ATOM     33  CA  SER D  10       8.385   7.421  40.671  1.00110.54 LIG 0.19  C 
BRANCH 33 34
ATOM     34  C   SER D  10       7.183   7.545  39.735  1.00112.68 LIG 0.22  C 
ATOM     35 O    SER D  10       6.926   8.625  39.203  1.00 61.17 LIG-0.29  OA
ENDBRANCH 33 34
BRANCH 33 36
ATOM     36  CB  SER D  10       8.022   6.609  41.912  1.00114.99 LIG 0.20  C 
BRANCH 36 37
ATOM     37 OG   SER D  10       7.986   5.217  41.642  1.00125.63 LIG-0.40  OA
ATOM     38 HG   SER D  10       8.009   5.091  40.812  1.00125.63 LIG 0.21  HD
ENDBRANCH 36 37
ENDBRANCH 33 36
ENDBRANCH 31 33
ENDBRANCH 21 29
ENDBRANCH 18 21
ENDBRANCH 12 17
ENDBRANCH 9 12
ENDBRANCH 4 8
BRANCH 1 39
ATOM     39  CA  LEU D   6      18.792  13.563  43.325  1.00 70.47 LIG 0.18  C 
BRANCH 39 40
ATOM     40  N   LEU D   6      20.176  13.940  43.089  1.00 72.03 LIG-0.35  N 
ATOM     41  C   PHE D   5      20.898  14.514  44.050  1.00 78.51 LIG 0.24  C 
ATOM     42 O    PHE D   5      20.465  14.724  45.190  1.00 77.96 LIG-0.27  OA
ATOM     43 H    LEU D   6      20.470  13.763  42.301  1.00 72.03 LIG 0.16  HD
BRANCH 41 44
ATOM     44  CA  PHE D   5      22.265  15.017  43.646  1.00 78.26 LIG 0.18  C 
BRANCH 44 45
ATOM     45  N   PHE D   5      23.229  13.916  43.716  1.00 79.00 LIG-0.34  N 
ATOM     46 H    PHE D   5      23.158  13.338  43.082  1.00 79.00 LIG 0.16  HD
ATOM     47  C   GLU D   4      24.133  13.845  44.696  1.00 84.09 LIG 0.26  C 
ATOM     48 O    GLU D   4      24.279  14.729  45.538  1.00 84.89 LIG-0.27  OA
BRANCH 47 49
ATOM     49  CA  GLU D   4      25.018  12.613  44.751  1.00 80.59 LIG 0.40  C 
ATOM     50  N   GLU D   4      25.534  12.303  43.421  1.00 81.26 LIG 0.61  N 
BRANCH 49 51
ATOM     51  CB  GLU D   4      26.184  12.857  45.734  1.00 81.69 LIG 0.06  C 
BRANCH 51 52
ATOM     52  CG  GLU D   4      27.254  11.777  45.713  1.00 88.66 LIG 0.12  C 
BRANCH 52 53
ATOM     53  CD  GLU D   4      28.235  11.834  44.557  1.00 99.07 LIG 0.17  C 
ATOM     54 OE1  GLU D   4      29.168  12.670  44.593  1.00 74.80 LIG-0.65  OA
ATOM     55 OE2  GLU D   4      28.110  10.987  43.643  1.00 93.08 LIG-0.65  OA
ENDBRANCH 52 53
ENDBRANCH 51 52
ENDBRANCH 49 51
ENDBRANCH 47 49
ENDBRANCH 44 45
BRANCH 44 56
ATOM     56  CB  PHE D   5      22.291  15.768  42.312  1.00 80.27 LIG 0.07  C 
BRANCH 56 57
ATOM     57  CG  PHE D   5      22.087  17.257  42.482  1.00 81.89 LIG-0.06  A 
ATOM     58  CD2 PHE D   5      21.777  18.065  41.390  1.00 84.17 LIG 0.01  A 
ATOM     59  CE2 PHE D   5      21.598  19.443  41.546  1.00 86.81 LIG 0.00  A 
ATOM     60  CZ  PHE D   5      21.712  20.016  42.794  1.00 84.76 LIG 0.00  A 
ATOM     61  CE1 PHE D   5      22.029  19.232  43.885  1.00 85.59 LIG 0.00  A 
ATOM     62  CD1 PHE D   5      22.221  17.855  43.728  1.00 84.61 LIG 0.01  A 
ENDBRANCH 56 57
ENDBRANCH 44 56
ENDBRANCH 41 44
ENDBRANCH 39 40
BRANCH 39 63
ATOM     63  CB  LEU D   6      17.893  14.794  43.345  1.00 70.57 LIG 0.04  C 
BRANCH 63 64
ATOM     64  CG  LEU D   6      18.532  16.049  42.790  1.00 75.48 LIG-0.02  C 
ATOM     65  CD2 LEU D   6      18.376  17.173  43.719  1.00 78.97 LIG 0.01  C 
ATOM     66  CD1 LEU D   6      17.963  16.389  41.475  1.00 75.94 LIG 0.01  C 
ENDBRANCH 63 64
ENDBRANCH 39 63
ENDBRANCH 1 39
TORSDOF 25
ENDMDL
MODEL 42
USER: ADFR SOLUTION from run 108
USER: SCORE 22.088417 LL:  -6.687 LR: -16.701 RR:   0.000 FEB:  -9.243
USER: RMSD 13.232123
USER: SEED 107
USER: STATUS no improvement in best in 5 clusters for 5 generations
USER: GENES 27
USER: genes 0 Translation |==|  0.54973 0.57013 0.53934
USER: genes 1 Rotation |==|  0.44895 0.95405 0.30146 0.54256
USER: genes 2 Torsion [N]-CA--C-[N] |==|  0.51592
USER: genes 3 Torsion [C]-N--CA-[C] |==|  0.75296
USER: genes 4 Torsion [N]-CA--CB-[CG] |==|  0.25765
USER: genes 5 Torsion [CA]-CB--CG-[CD1] |==|  0.32106
USER: genes 6 Torsion [N]-CA--C-[N] |==|  0.48242
USER: genes 7 Torsion [C]-N--CA-[CB] |==|  0.24854
USER: genes 8 Torsion [N]-CA--CB-[CG] |==|  0.15658
USER: genes 9 Torsion [CA]-CB--CG-[CD1] |==|  0.13998
USER: genes 10 Torsion [N]-CA--C-[N] |==|  0.98142
USER: genes 11 Torsion [C]-N--CA-[C] |==|  0.16843
USER: genes 12 Torsion [N]-CA--C-[O] |==|  0.17626
USER: genes 13 Torsion [N]-CA--CB-[OG] |==|  0.78365
USER: genes 14 Torsion [CA]-CB--OG-[HG] |==|  0.18518
USER: genes 15 Torsion [N]-C--CA-[N] |==|  0.52222
USER: genes 16 Torsion [C]-CA--N-[C] |==|  0.78725
USER: genes 17 Torsion [N]-C--CA-[N] |==|  0.45983
USER: genes 18 Torsion [C]-CA--N-[C] |==|  0.75613
USER: genes 19 Torsion [N]-C--CA-[N] |==|  0.47756
USER: genes 20 Torsion [C]-CA--CB-[CG] |==|  0.77090
USER: genes 21 Torsion [CA]-CB--CG-[CD] |==|  0.74177
USER: genes 22 Torsion [CB]-CG--CD-[OE1] |==|  0.10730
USER: genes 23 Torsion [C]-CA--CB-[CG] |==|  0.96494
USER: genes 24 Torsion [CA]-CB--CG-[CD2] |==|  0.76809
USER: genes 25 Torsion [C]-CA--CB-[CG] |==|  0.46983
USER: genes 26 Torsion [CA]-CB--CG-[CD2] |==|  0.58959
ROOT
ATOM      1  C   LEU D   6      19.417  13.181  43.438  1.00 70.97 LIG 0.24  C 
ATOM      2 O    LEU D   6      19.531  13.875  42.439  1.00 69.80 LIG-0.27  OA
ATOM      3  N   PRO D   7      18.651  12.077  43.452  1.00 67.36 LIG-0.34  N 
ATOM      4  CA  PRO D   7      17.931  11.690  42.242  1.00 66.95 LIG 0.18  C 
ATOM      5  CB  PRO D   7      17.932  10.155  42.312  1.00 69.23 LIG 0.04  C 
ATOM      6  CG  PRO D   7      18.187   9.810  43.783  1.00 73.99 LIG 0.02  C 
ATOM      7  CD  PRO D   7      18.424  11.096  44.533  1.00 69.55 LIG 0.13  C 
ENDROOT
BRANCH 4 8
ATOM      8  C   PRO D   7      16.516  12.261  42.206  1.00 67.39 LIG 0.24  C 
ATOM      9  N   LEU D   8      15.756  11.858  41.194  1.00 63.51 LIG-0.35  N 
ATOM     10 H    LEU D   8      16.038  11.346  40.562  1.00 63.51 LIG 0.16  HD
ATOM     11 O    PRO D   7      16.119  13.044  43.071  1.00 65.73 LIG-0.27  OA
BRANCH 9 12
ATOM     12  CA  LEU D   8      14.367  12.249  41.062  1.00 63.43 LIG 0.18  C 
BRANCH 12 13
ATOM     13  CB  LEU D   8      13.967  12.403  39.598  1.00 63.06 LIG 0.04  C 
BRANCH 13 14
ATOM     14  CG  LEU D   8      13.380  11.134  39.027  1.00 67.32 LIG-0.02  C 
ATOM     15  CD1 LEU D   8      11.957  11.332  38.648  1.00 66.57 LIG 0.01  C 
ATOM     16  CD2 LEU D   8      14.211  10.611  37.887  1.00 70.19 LIG 0.01  C 
ENDBRANCH 13 14
ENDBRANCH 12 13
BRANCH 12 17
ATOM     17  C   LEU D   8      13.479  11.262  41.787  1.00 69.22 LIG 0.24  C 
ATOM     18  N   PHE D   9      12.176  11.558  41.867  1.00 66.75 LIG-0.35  N 
ATOM     19 H    PHE D   9      11.831  12.272  41.533  1.00 66.75 LIG 0.16  HD
ATOM     20 O    LEU D   8      13.979  10.268  42.314  1.00 69.38 LIG-0.27  OA
BRANCH 18 21
ATOM     21  CA  PHE D   9      11.211  10.692  42.531  1.00 67.50 LIG 0.18  C 
BRANCH 21 22
ATOM     22  CB  PHE D   9      11.089  11.046  44.020  1.00 70.09 LIG 0.07  C 
BRANCH 22 23
ATOM     23  CG  PHE D   9      10.723  12.471  44.374  1.00 72.62 LIG-0.06  A 
ATOM     24  CD2 PHE D   9      11.527  13.218  45.227  1.00 75.26 LIG 0.01  A 
ATOM     25  CE2 PHE D   9      11.212  14.543  45.526  1.00 78.46 LIG 0.00  A 
ATOM     26  CZ  PHE D   9      10.095  15.131  44.970  1.00 76.95 LIG 0.00  A 
ATOM     27  CE1 PHE D   9       9.296  14.414  44.107  1.00 77.74 LIG 0.00  A 
ATOM     28  CD1 PHE D   9       9.629  13.098  43.783  1.00 76.53 LIG 0.01  A 
ENDBRANCH 22 23
ENDBRANCH 21 22
BRANCH 21 29
ATOM     29  C   PHE D   9       9.839  10.748  41.856  1.00 72.50 LIG 0.24  C 
ATOM     30 O    PHE D   9       8.937   9.993  42.226  1.00 71.57 LIG-0.27  OA
ATOM     31  N   SER D  10       9.674  11.654  40.874  1.00 70.70 LIG-0.34  N 
ATOM     32 H    SER D  10      10.289  12.200  40.623  1.00 70.70 LIG 0.16  HD
BRANCH 31 33
ATOM     33  CA  SER D  10       8.414  11.794  40.135  1.00110.54 LIG 0.19  C 
BRANCH 33 34
ATOM     34  C   SER D  10       7.260  12.162  41.070  1.00112.68 LIG 0.22  C 
ATOM     35 O    SER D  10       7.279  13.232  41.678  1.00 61.17 LIG-0.29  OA
ENDBRANCH 33 34
BRANCH 33 36
ATOM     36  CB  SER D  10       8.094  10.520  39.357  1.00114.99 LIG 0.20  C 
BRANCH 36 37
ATOM     37 OG   SER D  10       8.861  10.419  38.168  1.00125.63 LIG-0.40  OA
ATOM     38 HG   SER D  10       9.671  10.318  38.365  1.00125.63 LIG 0.21  HD
ENDBRANCH 36 37
ENDBRANCH 33 36
ENDBRANCH 31 33
ENDBRANCH 21 29
ENDBRANCH 18 21
ENDBRANCH 12 17
ENDBRANCH 9 12
ENDBRANCH 4 8
BRANCH 1 39
ATOM     39  CA  LEU D   6      20.109  13.583  44.711  1.00 70.47 LIG 0.18  C 
BRANCH 39 40
ATOM     40  N   LEU D   6      20.778  14.873  44.703  1.00 72.03 LIG-0.35  N 
ATOM     41  C   PHE D   5      21.952  15.028  44.092  1.00 78.51 LIG 0.24  C 
ATOM     42 O    PHE D   5      22.519  14.119  43.473  1.00 77.96 LIG-0.27  OA
ATOM     43 H    LEU D   6      20.359  15.500  45.115  1.00 72.03 LIG 0.16  HD
BRANCH 41 44
ATOM     44  CA  PHE D   5      22.636  16.361  44.291  1.00 78.26 LIG 0.18  C 
BRANCH 44 45
ATOM     45  N   PHE D   5      24.034  16.259  43.863  1.00 79.00 LIG-0.34  N 
ATOM     46 H    PHE D   5      24.174  16.476  43.042  1.00 79.00 LIG 0.16  HD
ATOM     47  C   GLU D   4      24.990  15.857  44.704  1.00 84.09 LIG 0.26  C 
ATOM     48 O    GLU D   4      24.785  15.639  45.897  1.00 84.89 LIG-0.27  OA
BRANCH 47 49
ATOM     49  CA  GLU D   4      26.390  15.675  44.145  1.00 80.59 LIG 0.40  C 
ATOM     50  N   GLU D   4      27.336  15.423  45.227  1.00 81.26 LIG 0.61  N 
BRANCH 49 51
ATOM     51  CB  GLU D   4      26.398  14.501  43.142  1.00 81.69 LIG 0.06  C 
BRANCH 51 52
ATOM     52  CG  GLU D   4      26.519  13.130  43.787  1.00 88.66 LIG 0.12  C 
BRANCH 52 53
ATOM     53  CD  GLU D   4      27.927  12.580  43.922  1.00 99.07 LIG 0.17  C 
ATOM     54 OE1  GLU D   4      28.858  13.363  44.224  1.00 74.80 LIG-0.65  OA
ATOM     55 OE2  GLU D   4      28.087  11.344  43.796  1.00 93.08 LIG-0.65  OA
ENDBRANCH 52 53
ENDBRANCH 51 52
ENDBRANCH 49 51
ENDBRANCH 47 49
ENDBRANCH 44 45
BRANCH 44 56
ATOM     56  CB  PHE D   5      21.894  17.549  43.673  1.00 80.27 LIG 0.07  C 
BRANCH 56 57
ATOM     57  CG  PHE D   5      20.791  17.116  42.734  1.00 81.89 LIG-0.06  A 
ATOM     58  CD2 PHE D   5      21.068  16.791  41.408  1.00 84.17 LIG 0.01  A 
ATOM     59  CE2 PHE D   5      20.046  16.400  40.536  1.00 86.81 LIG 0.00  A 
ATOM     60  CZ  PHE D   5      18.748  16.319  40.990  1.00 84.76 LIG 0.00  A 
ATOM     61  CE1 PHE D   5      18.453  16.647  42.297  1.00 85.59 LIG 0.00  A 
ATOM     62  CD1 PHE D   5      19.473  17.051  43.167  1.00 84.61 LIG 0.01  A 
ENDBRANCH 56 57
ENDBRANCH 44 56
ENDBRANCH 41 44
ENDBRANCH 39 40
BRANCH 39 63
ATOM     63  CB  LEU D   6      19.164  13.471  45.903  1.00 70.57 LIG 0.04  C 
BRANCH 63 64
ATOM     64  CG  LEU D   6      19.836  13.604  47.253  1.00 75.48 LIG-0.02  C 
ATOM     65  CD2 LEU D   6      19.154  12.788  48.262  1.00 78.97 LIG 0.01  C 
ATOM     66  CD1 LEU D   6      19.882  15.012  47.679  1.00 75.94 LIG 0.01  C 
ENDBRANCH 63 64
ENDBRANCH 39 63
ENDBRANCH 1 39
TORSDOF 25
ENDMDL
MODEL 43
USER: ADFR SOLUTION from run 189
USER: SCORE 22.693151 LL:  -6.533 LR: -16.690 RR:   0.000 FEB:  -9.233
USER: RMSD 13.219480
USER: SEED 188
USER: STATUS searching
USER: GENES 27
USER: genes 0 Translation |==|  0.45786 0.52351 0.54702
USER: genes 1 Rotation |==|  0.35339 0.94207 0.68149 0.51163
USER: genes 2 Torsion [N]-CA--C-[N] |==|  0.45183
USER: genes 3 Torsion [C]-N--CA-[C] |==|  0.77903
USER: genes 4 Torsion [N]-CA--CB-[CG] |==|  0.87973
USER: genes 5 Torsion [CA]-CB--CG-[CD1] |==|  0.44228
USER: genes 6 Torsion [N]-CA--C-[N] |==|  0.90618
USER: genes 7 Torsion [C]-N--CA-[CB] |==|  0.86111
USER: genes 8 Torsion [N]-CA--CB-[CG] |==|  0.61675
USER: genes 9 Torsion [CA]-CB--CG-[CD1] |==|  0.64866
USER: genes 10 Torsion [N]-CA--C-[N] |==|  0.89153
USER: genes 11 Torsion [C]-N--CA-[C] |==|  0.68798
USER: genes 12 Torsion [N]-CA--C-[O] |==|  0.99365
USER: genes 13 Torsion [N]-CA--CB-[OG] |==|  0.65210
USER: genes 14 Torsion [CA]-CB--OG-[HG] |==|  0.52765
USER: genes 15 Torsion [N]-C--CA-[N] |==|  0.38130
USER: genes 16 Torsion [C]-CA--N-[C] |==|  0.69376
USER: genes 17 Torsion [N]-C--CA-[N] |==|  0.41947
USER: genes 18 Torsion [C]-CA--N-[C] |==|  0.58150
USER: genes 19 Torsion [N]-C--CA-[N] |==|  0.27832
USER: genes 20 Torsion [C]-CA--CB-[CG] |==|  0.67835
USER: genes 21 Torsion [CA]-CB--CG-[CD] |==|  0.79013
USER: genes 22 Torsion [CB]-CG--CD-[OE1] |==|  0.45041
USER: genes 23 Torsion [C]-CA--CB-[CG] |==|  0.93252
USER: genes 24 Torsion [CA]-CB--CG-[CD2] |==|  0.25170
USER: genes 25 Torsion [C]-CA--CB-[CG] |==|  0.28240
USER: genes 26 Torsion [CA]-CB--CG-[CD2] |==|  0.08068
ROOT
ATOM      1  C   LEU D   6      16.729  12.342  43.588  1.00 70.97 LIG 0.24  C 
ATOM      2 O    LEU D   6      16.235  13.254  44.233  1.00 69.80 LIG-0.27  OA
ATOM      3  N   PRO D   7      16.137  11.848  42.488  1.00 67.36 LIG-0.34  N 
ATOM      4  CA  PRO D   7      14.865  12.413  42.045  1.00 66.95 LIG 0.18  C 
ATOM      5  CB  PRO D   7      14.944  12.294  40.515  1.00 69.23 LIG 0.04  C 
ATOM      6  CG  PRO D   7      16.003  11.220  40.239  1.00 73.99 LIG 0.02  C 
ATOM      7  CD  PRO D   7      16.593  10.793  41.559  1.00 69.55 LIG 0.13  C 
ENDROOT
BRANCH 4 8
ATOM      8  C   PRO D   7      13.670  11.656  42.617  1.00 67.39 LIG 0.24  C 
ATOM      9  N   LEU D   8      12.505  12.294  42.569  1.00 63.51 LIG-0.35  N 
ATOM     10 H    LEU D   8      12.416  13.100  42.282  1.00 63.51 LIG 0.16  HD
ATOM     11 O    PRO D   7      13.794  10.524  43.087  1.00 65.73 LIG-0.27  OA
BRANCH 9 12
ATOM     12  CA  LEU D   8      11.265  11.681  43.000  1.00 63.43 LIG 0.18  C 
BRANCH 12 13
ATOM     13  CB  LEU D   8      10.236  12.730  43.405  1.00 63.06 LIG 0.04  C 
BRANCH 13 14
ATOM     14  CG  LEU D   8      10.839  13.836  44.238  1.00 67.32 LIG-0.02  C 
ATOM     15  CD1 LEU D   8       9.989  15.055  44.199  1.00 66.57 LIG 0.01  C 
ATOM     16  CD2 LEU D   8      11.118  13.374  45.643  1.00 70.19 LIG 0.01  C 
ENDBRANCH 13 14
ENDBRANCH 12 13
BRANCH 12 17
ATOM     17  C   LEU D   8      10.738  10.762  41.921  1.00 69.22 LIG 0.24  C 
ATOM     18  N   PHE D   9      10.960  11.122  40.651  1.00 66.75 LIG-0.35  N 
ATOM     19 H    PHE D   9      11.379  11.840  40.428  1.00 66.75 LIG 0.16  HD
ATOM     20 O    LEU D   8      10.089   9.764  42.236  1.00 69.38 LIG-0.27  OA
BRANCH 18 21
ATOM     21  CA  PHE D   9      10.512  10.326  39.517  1.00 67.50 LIG 0.18  C 
BRANCH 21 22
ATOM     22  CB  PHE D   9      10.928   8.857  39.678  1.00 70.09 LIG 0.07  C 
BRANCH 22 23
ATOM     23  CG  PHE D   9      11.458   8.140  38.454  1.00 72.62 LIG-0.06  A 
ATOM     24  CD2 PHE D   9      12.572   8.623  37.777  1.00 75.26 LIG 0.01  A 
ATOM     25  CE2 PHE D   9      13.085   7.943  36.673  1.00 78.46 LIG 0.00  A 
ATOM     26  CZ  PHE D   9      12.491   6.775  36.242  1.00 76.95 LIG 0.00  A 
ATOM     27  CE1 PHE D   9      11.398   6.270  36.911  1.00 77.74 LIG 0.00  A 
ATOM     28  CD1 PHE D   9      10.905   6.933  38.035  1.00 76.53 LIG 0.01  A 
ENDBRANCH 22 23
ENDBRANCH 21 22
BRANCH 21 29
ATOM     29  C   PHE D   9       9.000  10.432  39.311  1.00 72.50 LIG 0.24  C 
ATOM     30 O    PHE D   9       8.532  10.476  38.171  1.00 71.57 LIG-0.27  OA
ATOM     31  N   SER D  10       8.230  10.456  40.416  1.00 70.70 LIG-0.34  N 
ATOM     32 H    SER D  10       8.543  10.403  41.214  1.00 70.70 LIG 0.16  HD
BRANCH 31 33
ATOM     33  CA  SER D  10       6.768  10.575  40.355  1.00110.54 LIG 0.19  C 
BRANCH 33 34
ATOM     34  C   SER D  10       6.298  11.917  40.918  1.00112.68 LIG 0.22  C 
ATOM     35 O    SER D  10       7.116  12.710  41.383  1.00 61.17 LIG-0.29  OA
ENDBRANCH 33 34
BRANCH 33 36
ATOM     36  CB  SER D  10       6.096   9.417  41.088  1.00114.99 LIG 0.20  C 
BRANCH 36 37
ATOM     37 OG   SER D  10       5.172   8.730  40.258  1.00125.63 LIG-0.40  OA
ATOM     38 HG   SER D  10       4.724   8.192  40.722  1.00125.63 LIG 0.21  HD
ENDBRANCH 36 37
ENDBRANCH 33 36
ENDBRANCH 31 33
ENDBRANCH 21 29
ENDBRANCH 18 21
ENDBRANCH 12 17
ENDBRANCH 9 12
ENDBRANCH 4 8
BRANCH 1 39
ATOM     39  CA  LEU D   6      18.014  11.712  44.048  1.00 70.47 LIG 0.18  C 
BRANCH 39 40
ATOM     40  N   LEU D   6      19.064  12.622  44.477  1.00 72.03 LIG-0.35  N 
ATOM     41  C   PHE D   5      20.169  12.777  43.750  1.00 78.51 LIG 0.24  C 
ATOM     42 O    PHE D   5      20.357  12.204  42.670  1.00 77.96 LIG-0.27  OA
ATOM     43 H    LEU D   6      18.906  13.033  45.216  1.00 72.03 LIG 0.16  HD
BRANCH 41 44
ATOM     44  CA  PHE D   5      21.264  13.615  44.372  1.00 78.26 LIG 0.18  C 
BRANCH 44 45
ATOM     45  N   PHE D   5      22.565  13.163  43.873  1.00 79.00 LIG-0.34  N 
ATOM     46 H    PHE D   5      22.547  12.827  43.081  1.00 79.00 LIG 0.16  HD
ATOM     47  C   GLU D   4      23.670  13.277  44.613  1.00 84.09 LIG 0.26  C 
ATOM     48 O    GLU D   4      23.691  13.844  45.705  1.00 84.89 LIG-0.27  OA
BRANCH 47 49
ATOM     49  CA  GLU D   4      24.953  12.683  44.060  1.00 80.59 LIG 0.40  C 
ATOM     50  N   GLU D   4      25.781  13.730  43.471  1.00 81.26 LIG 0.61  N 
BRANCH 49 51
ATOM     51  CB  GLU D   4      25.722  11.966  45.193  1.00 81.69 LIG 0.06  C 
BRANCH 51 52
ATOM     52  CG  GLU D   4      27.070  12.586  45.521  1.00 88.66 LIG 0.12  C 
BRANCH 52 53
ATOM     53  CD  GLU D   4      28.189  12.306  44.533  1.00 99.07 LIG 0.17  C 
ATOM     54 OE1  GLU D   4      29.207  13.037  44.547  1.00 74.80 LIG-0.65  OA
ATOM     55 OE2  GLU D   4      28.076  11.304  43.791  1.00 93.08 LIG-0.65  OA
ENDBRANCH 52 53
ENDBRANCH 51 52
ENDBRANCH 49 51
ENDBRANCH 47 49
ENDBRANCH 44 45
BRANCH 44 56
ATOM     56  CB  PHE D   5      21.051  15.125  44.245  1.00 80.27 LIG 0.07  C 
BRANCH 56 57
ATOM     57  CG  PHE D   5      20.165  15.488  43.074  1.00 81.89 LIG-0.06  A 
ATOM     58  CD2 PHE D   5      18.784  15.596  43.230  1.00 84.17 LIG 0.01  A 
ATOM     59  CE2 PHE D   5      17.963  15.921  42.145  1.00 86.81 LIG 0.00  A 
ATOM     60  CZ  PHE D   5      18.519  16.154  40.906  1.00 84.76 LIG 0.00  A 
ATOM     61  CE1 PHE D   5      19.884  16.041  40.732  1.00 85.59 LIG 0.00  A 
ATOM     62  CD1 PHE D   5      20.705  15.703  41.813  1.00 84.61 LIG 0.01  A 
ENDBRANCH 56 57
ENDBRANCH 44 56
ENDBRANCH 41 44
ENDBRANCH 39 40
BRANCH 39 63
ATOM     63  CB  LEU D   6      17.750  10.652  45.112  1.00 70.57 LIG 0.04  C 
BRANCH 63 64
ATOM     64  CG  LEU D   6      17.799   9.226  44.606  1.00 75.48 LIG-0.02  C 
ATOM     65  CD2 LEU D   6      18.711   9.104  43.465  1.00 78.97 LIG 0.01  C 
ATOM     66  CD1 LEU D   6      16.453   8.754  44.238  1.00 75.94 LIG 0.01  C 
ENDBRANCH 63 64
ENDBRANCH 39 63
ENDBRANCH 1 39
TORSDOF 25
ENDMDL
MODEL 44
USER: ADFR SOLUTION from run 96
USER: SCORE 21.836570 LL:  -6.693 LR: -16.690 RR:   0.000 FEB:  -9.233
USER: RMSD 12.519757
USER: SEED 95
USER: STATUS no improvement in best in 35 clusters for 5 generations
USER: GENES 27
USER: genes 0 Translation |==|  0.54752 0.58739 0.48469
USER: genes 1 Rotation |==|  0.44421 0.80862 0.11102 0.51831
USER: genes 2 Torsion [N]-CA--C-[N] |==|  0.42350
USER: genes 3 Torsion [C]-N--CA-[C] |==|  0.83314
USER: genes 4 Torsion [N]-CA--CB-[CG] |==|  0.66837
USER: genes 5 Torsion [CA]-CB--CG-[CD1] |==|  0.59063
USER: genes 6 Torsion [N]-CA--C-[N] |==|  0.42960
USER: genes 7 Torsion [C]-N--CA-[CB] |==|  0.86331
USER: genes 8 Torsion [N]-CA--CB-[CG] |==|  0.42181
USER: genes 9 Torsion [CA]-CB--CG-[CD1] |==|  0.17328
USER: genes 10 Torsion [N]-CA--C-[N] |==|  0.36395
USER: genes 11 Torsion [C]-N--CA-[C] |==|  0.77501
USER: genes 12 Torsion [N]-CA--C-[O] |==|  0.50812
USER: genes 13 Torsion [N]-CA--CB-[OG] |==|  0.83825
USER: genes 14 Torsion [CA]-CB--OG-[HG] |==|  0.91114
USER: genes 15 Torsion [N]-C--CA-[N] |==|  0.22390
USER: genes 16 Torsion [C]-CA--N-[C] |==|  0.69068
USER: genes 17 Torsion [N]-C--CA-[N] |==|  0.91844
USER: genes 18 Torsion [C]-CA--N-[C] |==|  0.23889
USER: genes 19 Torsion [N]-C--CA-[N] |==|  0.57002
USER: genes 20 Torsion [C]-CA--CB-[CG] |==|  0.74469
USER: genes 21 Torsion [CA]-CB--CG-[CD] |==|  0.76705
USER: genes 22 Torsion [CB]-CG--CD-[OE1] |==|  0.94257
USER: genes 23 Torsion [C]-CA--CB-[CG] |==|  0.00356
USER: genes 24 Torsion [CA]-CB--CG-[CD2] |==|  0.77615
USER: genes 25 Torsion [C]-CA--CB-[CG] |==|  0.24445
USER: genes 26 Torsion [CA]-CB--CG-[CD2] |==|  0.01310
ROOT
ATOM      1  C   LEU D   6      19.352  13.492  42.372  1.00 70.97 LIG 0.24  C 
ATOM      2 O    LEU D   6      19.509  13.057  41.242  1.00 69.80 LIG-0.27  OA
ATOM      3  N   PRO D   7      18.544  12.889  43.261  1.00 67.36 LIG-0.34  N 
ATOM      4  CA  PRO D   7      17.829  11.677  42.869  1.00 66.95 LIG 0.18  C 
ATOM      5  CB  PRO D   7      17.769  10.870  44.176  1.00 69.23 LIG 0.04  C 
ATOM      6  CG  PRO D   7      17.988  11.889  45.300  1.00 73.99 LIG 0.02  C 
ATOM      7  CD  PRO D   7      18.263  13.231  44.670  1.00 69.55 LIG 0.13  C 
ENDROOT
BRANCH 4 8
ATOM      8  C   PRO D   7      16.438  11.981  42.321  1.00 67.39 LIG 0.24  C 
ATOM      9  N   LEU D   8      15.954  11.101  41.451  1.00 63.51 LIG-0.35  N 
ATOM     10 H    LEU D   8      16.398  10.422  41.165  1.00 63.51 LIG 0.16  HD
ATOM     11 O    PRO D   7      15.815  12.984  42.675  1.00 65.73 LIG-0.27  OA
BRANCH 9 12
ATOM     12  CA  LEU D   8      14.619  11.208  40.899  1.00 63.43 LIG 0.18  C 
BRANCH 12 13
ATOM     13  CB  LEU D   8      14.364  10.137  39.844  1.00 63.06 LIG 0.04  C 
BRANCH 13 14
ATOM     14  CG  LEU D   8      14.051  10.728  38.490  1.00 67.32 LIG-0.02  C 
ATOM     15  CD1 LEU D   8      13.101   9.865  37.741  1.00 66.57 LIG 0.01  C 
ATOM     16  CD2 LEU D   8      13.566  12.146  38.610  1.00 70.19 LIG 0.01  C 
ENDBRANCH 13 14
ENDBRANCH 12 13
BRANCH 12 17
ATOM     17  C   LEU D   8      13.593  11.158  42.010  1.00 69.22 LIG 0.24  C 
ATOM     18  N   PHE D   9      12.412  11.743  41.776  1.00 66.75 LIG-0.35  N 
ATOM     19 H    PHE D   9      12.218  12.140  41.038  1.00 66.75 LIG 0.16  HD
ATOM     20 O    LEU D   8      13.888  10.640  43.087  1.00 69.38 LIG-0.27  OA
BRANCH 18 21
ATOM     21  CA  PHE D   9      11.335  11.763  42.757  1.00 67.50 LIG 0.18  C 
BRANCH 21 22
ATOM     22  CB  PHE D   9      11.084  10.359  43.325  1.00 70.09 LIG 0.07  C 
BRANCH 22 23
ATOM     23  CG  PHE D   9      10.528  10.260  44.729  1.00 72.62 LIG-0.06  A 
ATOM     24  CD2 PHE D   9      11.295   9.729  45.759  1.00 75.26 LIG 0.01  A 
ATOM     25  CE2 PHE D   9      10.799   9.671  47.061  1.00 78.46 LIG 0.00  A 
ATOM     26  CZ  PHE D   9       9.536  10.149  47.342  1.00 76.95 LIG 0.00  A 
ATOM     27  CE1 PHE D   9       8.767  10.698  46.339  1.00 77.74 LIG 0.00  A 
ATOM     28  CD1 PHE D   9       9.276  10.785  45.043  1.00 76.53 LIG 0.01  A 
ENDBRANCH 22 23
ENDBRANCH 21 22
BRANCH 21 29
ATOM     29  C   PHE D   9      11.616  12.753  43.888  1.00 72.50 LIG 0.24  C 
ATOM     30 O    PHE D   9      12.712  12.754  44.452  1.00 71.57 LIG-0.27  OA
ATOM     31  N   SER D  10      10.630  13.611  44.212  1.00 70.70 LIG-0.34  N 
ATOM     32 H    SER D  10       9.869  13.634  43.811  1.00 70.70 LIG 0.16  HD
BRANCH 31 33
ATOM     33  CA  SER D  10      10.765  14.597  45.291  1.00110.54 LIG 0.19  C 
BRANCH 33 34
ATOM     34  C   SER D  10      10.510  13.960  46.659  1.00112.68 LIG 0.22  C 
ATOM     35 O    SER D  10      10.528  14.655  47.674  1.00 61.17 LIG-0.29  OA
ENDBRANCH 33 34
BRANCH 33 36
ATOM     36  CB  SER D  10       9.832  15.783  45.066  1.00114.99 LIG 0.20  C 
BRANCH 36 37
ATOM     37 OG   SER D  10      10.082  16.425  43.825  1.00125.63 LIG-0.40  OA
ATOM     38 HG   SER D  10      10.899  16.365  43.638  1.00125.63 LIG 0.21  HD
ENDBRANCH 36 37
ENDBRANCH 33 36
ENDBRANCH 31 33
ENDBRANCH 21 29
ENDBRANCH 18 21
ENDBRANCH 12 17
ENDBRANCH 9 12
ENDBRANCH 4 8
BRANCH 1 39
ATOM     39  CA  LEU D   6      20.039  14.763  42.786  1.00 70.47 LIG 0.18  C 
BRANCH 39 40
ATOM     40  N   LEU D   6      21.237  14.616  43.596  1.00 72.03 LIG-0.35  N 
ATOM     41  C   PHE D   5      21.246  14.996  44.873  1.00 78.51 LIG 0.24  C 
ATOM     42 O    PHE D   5      20.252  15.451  45.452  1.00 77.96 LIG-0.27  OA
ATOM     43 H    LEU D   6      21.911  14.274  43.186  1.00 72.03 LIG 0.16  HD
BRANCH 41 44
ATOM     44  CA  PHE D   5      22.587  14.956  45.571  1.00 78.26 LIG 0.18  C 
BRANCH 44 45
ATOM     45  N   PHE D   5      23.415  13.907  44.973  1.00 79.00 LIG-0.34  N 
ATOM     46 H    PHE D   5      23.376  13.147  45.375  1.00 79.00 LIG 0.16  HD
ATOM     47  C   GLU D   4      24.161  14.142  43.890  1.00 84.09 LIG 0.26  C 
ATOM     48 O    GLU D   4      24.133  15.208  43.276  1.00 84.89 LIG-0.27  OA
BRANCH 47 49
ATOM     49  CA  GLU D   4      25.071  13.029  43.405  1.00 80.59 LIG 0.40  C 
ATOM     50  N   GLU D   4      26.194  13.584  42.656  1.00 81.26 LIG 0.61  N 
BRANCH 49 51
ATOM     51  CB  GLU D   4      25.584  12.215  44.614  1.00 81.69 LIG 0.06  C 
BRANCH 51 52
ATOM     52  CG  GLU D   4      26.907  12.706  45.180  1.00 88.66 LIG 0.12  C 
BRANCH 52 53
ATOM     53  CD  GLU D   4      28.157  12.196  44.486  1.00 99.07 LIG 0.17  C 
ATOM     54 OE1  GLU D   4      28.085  11.153  43.796  1.00 74.80 LIG-0.65  OA
ATOM     55 OE2  GLU D   4      29.198  12.886  44.576  1.00 93.08 LIG-0.65  OA
ENDBRANCH 52 53
ENDBRANCH 51 52
ENDBRANCH 49 51
ENDBRANCH 47 49
ENDBRANCH 44 45
BRANCH 44 56
ATOM     56  CB  PHE D   5      23.290  16.313  45.661  1.00 80.27 LIG 0.07  C 
BRANCH 56 57
ATOM     57  CG  PHE D   5      22.473  17.430  45.053  1.00 81.89 LIG-0.06  A 
ATOM     58  CD2 PHE D   5      22.456  17.635  43.674  1.00 84.17 LIG 0.01  A 
ATOM     59  CE2 PHE D   5      21.708  18.674  43.112  1.00 86.81 LIG 0.00  A 
ATOM     60  CZ  PHE D   5      20.962  19.502  43.922  1.00 84.76 LIG 0.00  A 
ATOM     61  CE1 PHE D   5      20.975  19.321  45.290  1.00 85.59 LIG 0.00  A 
ATOM     62  CD1 PHE D   5      21.734  18.289  45.855  1.00 84.61 LIG 0.01  A 
ENDBRANCH 56 57
ENDBRANCH 44 56
ENDBRANCH 41 44
ENDBRANCH 39 40
BRANCH 39 63
ATOM     63  CB  LEU D   6      20.311  15.653  41.577  1.00 70.57 LIG 0.04  C 
BRANCH 63 64
ATOM     64  CG  LEU D   6      19.180  16.594  41.221  1.00 75.48 LIG-0.02  C 
ATOM     65  CD2 LEU D   6      18.097  16.511  42.206  1.00 78.97 LIG 0.01  C 
ATOM     66  CD1 LEU D   6      18.665  16.307  39.871  1.00 75.94 LIG 0.01  C 
ENDBRANCH 63 64
ENDBRANCH 39 63
ENDBRANCH 1 39
TORSDOF 25
ENDMDL
MODEL 45
USER: ADFR SOLUTION from run 61
USER: SCORE 22.263694 LL:  -7.217 LR: -16.675 RR:   0.000 FEB:  -9.218
USER: RMSD 4.802242
USER: SEED 60
USER: STATUS no improvement in best in 5 clusters for 5 generations
USER: GENES 27
USER: genes 0 Translation |==|  0.42910 0.51599 0.50872
USER: genes 1 Rotation |==|  0.56109 0.52542 0.47092 0.99475
USER: genes 2 Torsion [N]-CA--C-[N] |==|  0.32964
USER: genes 3 Torsion [C]-N--CA-[C] |==|  0.73079
USER: genes 4 Torsion [N]-CA--CB-[CG] |==|  0.88450
USER: genes 5 Torsion [CA]-CB--CG-[CD1] |==|  0.31314
USER: genes 6 Torsion [N]-CA--C-[N] |==|  0.34560
USER: genes 7 Torsion [C]-N--CA-[CB] |==|  0.22407
USER: genes 8 Torsion [N]-CA--CB-[CG] |==|  0.07511
USER: genes 9 Torsion [CA]-CB--CG-[CD1] |==|  0.12848
USER: genes 10 Torsion [N]-CA--C-[N] |==|  0.43095
USER: genes 11 Torsion [C]-N--CA-[C] |==|  0.53271
USER: genes 12 Torsion [N]-CA--C-[O] |==|  0.34533
USER: genes 13 Torsion [N]-CA--CB-[OG] |==|  0.07602
USER: genes 14 Torsion [CA]-CB--OG-[HG] |==|  0.40758
USER: genes 15 Torsion [N]-C--CA-[N] |==|  0.38447
USER: genes 16 Torsion [C]-CA--N-[C] |==|  0.83479
USER: genes 17 Torsion [N]-C--CA-[N] |==|  0.79487
USER: genes 18 Torsion [C]-CA--N-[C] |==|  0.65141
USER: genes 19 Torsion [N]-C--CA-[N] |==|  0.28067
USER: genes 20 Torsion [C]-CA--CB-[CG] |==|  0.37561
USER: genes 21 Torsion [CA]-CB--CG-[CD] |==|  0.16620
USER: genes 22 Torsion [CB]-CG--CD-[OE1] |==|  0.48723
USER: genes 23 Torsion [C]-CA--CB-[CG] |==|  0.11531
USER: genes 24 Torsion [CA]-CB--CG-[CD2] |==|  0.12316
USER: genes 25 Torsion [C]-CA--CB-[CG] |==|  0.44056
USER: genes 26 Torsion [CA]-CB--CG-[CD2] |==|  0.24660
ROOT
ATOM      1  C   LEU D   6      15.888  12.207  42.841  1.00 70.97 LIG 0.24  C 
ATOM      2 O    LEU D   6      15.847  13.319  43.346  1.00 69.80 LIG-0.27  OA
ATOM      3  N   PRO D   7      16.860  11.328  43.137  1.00 67.36 LIG-0.34  N 
ATOM      4  CA  PRO D   7      17.902  11.706  44.088  1.00 66.95 LIG 0.18  C 
ATOM      5  CB  PRO D   7      18.233  10.379  44.789  1.00 69.23 LIG 0.04  C 
ATOM      6  CG  PRO D   7      17.739   9.279  43.843  1.00 73.99 LIG 0.02  C 
ATOM      7  CD  PRO D   7      17.055   9.939  42.672  1.00 69.55 LIG 0.13  C 
ENDROOT
BRANCH 4 8
ATOM      8  C   PRO D   7      19.122  12.308  43.396  1.00 67.39 LIG 0.24  C 
ATOM      9  N   LEU D   8      19.415  13.561  43.727  1.00 63.51 LIG-0.35  N 
ATOM     10 H    LEU D   8      18.934  14.037  44.259  1.00 63.51 LIG 0.16  HD
ATOM     11 O    PRO D   7      19.784  11.657  42.586  1.00 65.73 LIG-0.27  OA
BRANCH 9 12
ATOM     12  CA  LEU D   8      20.585  14.246  43.217  1.00 63.43 LIG 0.18  C 
BRANCH 12 13
ATOM     13  CB  LEU D   8      20.266  15.688  42.838  1.00 63.06 LIG 0.04  C 
BRANCH 13 14
ATOM     14  CG  LEU D   8      18.938  15.816  42.130  1.00 67.32 LIG-0.02  C 
ATOM     15  CD1 LEU D   8      17.959  16.557  42.967  1.00 66.57 LIG 0.01  C 
ATOM     16  CD2 LEU D   8      19.101  16.423  40.763  1.00 70.19 LIG 0.01  C 
ENDBRANCH 13 14
ENDBRANCH 12 13
BRANCH 12 17
ATOM     17  C   LEU D   8      21.713  14.165  44.221  1.00 69.22 LIG 0.24  C 
ATOM     18  N   PHE D   9      22.873  13.648  43.795  1.00 66.75 LIG-0.35  N 
ATOM     19 H    PHE D   9      22.998  13.364  42.993  1.00 66.75 LIG 0.16  HD
ATOM     20 O    LEU D   8      21.519  14.518  45.384  1.00 69.38 LIG-0.27  OA
BRANCH 18 21
ATOM     21  CA  PHE D   9      24.040  13.517  44.656  1.00 67.50 LIG 0.18  C 
BRANCH 21 22
ATOM     22  CB  PHE D   9      23.929  12.272  45.547  1.00 70.09 LIG 0.07  C 
BRANCH 22 23
ATOM     23  CG  PHE D   9      23.099  11.115  45.034  1.00 72.62 LIG-0.06  A 
ATOM     24  CD2 PHE D   9      22.113  10.543  45.830  1.00 75.26 LIG 0.01  A 
ATOM     25  CE2 PHE D   9      21.322   9.502  45.346  1.00 78.46 LIG 0.00  A 
ATOM     26  CZ  PHE D   9      21.508   9.029  44.063  1.00 76.95 LIG 0.00  A 
ATOM     27  CE1 PHE D   9      22.467   9.595  43.252  1.00 77.74 LIG 0.00  A 
ATOM     28  CD1 PHE D   9      23.236  10.658  43.725  1.00 76.53 LIG 0.01  A 
ENDBRANCH 22 23
ENDBRANCH 21 22
BRANCH 21 29
ATOM     29  C   PHE D   9      25.340  13.482  43.850  1.00 72.50 LIG 0.24  C 
ATOM     30 O    PHE D   9      25.327  13.119  42.671  1.00 71.57 LIG-0.27  OA
ATOM     31  N   SER D  10      26.464  13.874  44.479  1.00 70.70 LIG-0.34  N 
ATOM     32 H    SER D  10      26.481  14.149  45.293  1.00 70.70 LIG 0.16  HD
BRANCH 31 33
ATOM     33  CA  SER D  10      27.777  13.868  43.824  1.00110.54 LIG 0.19  C 
BRANCH 33 34
ATOM     34  C   SER D  10      28.903  14.079  44.837  1.00112.68 LIG 0.22  C 
ATOM     35 O    SER D  10      29.816  13.258  44.922  1.00 61.17 LIG-0.29  OA
ENDBRANCH 33 34
BRANCH 33 36
ATOM     36  CB  SER D  10      27.840  14.919  42.719  1.00114.99 LIG 0.20  C 
BRANCH 36 37
ATOM     37 OG   SER D  10      26.962  16.005  42.971  1.00125.63 LIG-0.40  OA
ATOM     38 HG   SER D  10      27.300  16.714  42.671  1.00125.63 LIG 0.21  HD
ENDBRANCH 36 37
ENDBRANCH 33 36
ENDBRANCH 31 33
ENDBRANCH 21 29
ENDBRANCH 18 21
ENDBRANCH 12 17
ENDBRANCH 9 12
ENDBRANCH 4 8
BRANCH 1 39
ATOM     39  CA  LEU D   6      14.855  11.809  41.824  1.00 70.47 LIG 0.18  C 
BRANCH 39 40
ATOM     40  N   LEU D   6      13.479  12.167  42.126  1.00 72.03 LIG-0.35  N 
ATOM     41  C   PHE D   5      12.884  11.716  43.230  1.00 78.51 LIG 0.24  C 
ATOM     42 O    PHE D   5      13.458  11.012  44.069  1.00 77.96 LIG-0.27  OA
ATOM     43 H    LEU D   6      13.103  12.678  41.546  1.00 72.03 LIG 0.16  HD
BRANCH 41 44
ATOM     44  CA  PHE D   5      11.407  12.009  43.358  1.00 78.26 LIG 0.18  C 
BRANCH 44 45
ATOM     45  N   PHE D   5      11.218  13.426  43.679  1.00 79.00 LIG-0.34  N 
ATOM     46 H    PHE D   5      11.596  13.970  43.129  1.00 79.00 LIG 0.16  HD
ATOM     47  C   GLU D   4      10.512  13.809  44.745  1.00 84.09 LIG 0.26  C 
ATOM     48 O    GLU D   4       9.904  13.019  45.465  1.00 84.89 LIG-0.27  OA
BRANCH 47 49
ATOM     49  CA  GLU D   4      10.462  15.293  45.061  1.00 80.59 LIG 0.40  C 
ATOM     50  N   GLU D   4       9.199  15.864  44.604  1.00 81.26 LIG 0.61  N 
BRANCH 49 51
ATOM     51  CB  GLU D   4      10.625  15.504  46.583  1.00 81.69 LIG 0.06  C 
BRANCH 51 52
ATOM     52  CG  GLU D   4      11.588  16.619  46.958  1.00 88.66 LIG 0.12  C 
BRANCH 52 53
ATOM     53  CD  GLU D   4      11.235  18.003  46.447  1.00 99.07 LIG 0.17  C 
ATOM     54 OE1  GLU D   4      11.942  18.977  46.796  1.00 74.80 LIG-0.65  OA
ATOM     55 OE2  GLU D   4      10.288  18.102  45.633  1.00 93.08 LIG-0.65  OA
ENDBRANCH 52 53
ENDBRANCH 51 52
ENDBRANCH 49 51
ENDBRANCH 47 49
ENDBRANCH 44 45
BRANCH 44 56
ATOM     56  CB  PHE D   5      10.565  11.533  42.171  1.00 80.27 LIG 0.07  C 
BRANCH 56 57
ATOM     57  CG  PHE D   5      10.983  10.167  41.676  1.00 81.89 LIG-0.06  A 
ATOM     58  CD2 PHE D   5      11.246   9.132  42.571  1.00 84.17 LIG 0.01  A 
ATOM     59  CE2 PHE D   5      11.642   7.872  42.114  1.00 86.81 LIG 0.00  A 
ATOM     60  CZ  PHE D   5      11.762   7.636  40.761  1.00 84.76 LIG 0.00  A 
ATOM     61  CE1 PHE D   5      11.516   8.652  39.861  1.00 85.59 LIG 0.00  A 
ATOM     62  CD1 PHE D   5      11.132   9.918  40.318  1.00 84.61 LIG 0.01  A 
ENDBRANCH 56 57
ENDBRANCH 44 56
ENDBRANCH 41 44
ENDBRANCH 39 40
BRANCH 39 63
ATOM     63  CB  LEU D   6      15.246  12.294  40.432  1.00 70.57 LIG 0.04  C 
BRANCH 63 64
ATOM     64  CG  LEU D   6      14.585  11.545  39.295  1.00 75.48 LIG-0.02  C 
ATOM     65  CD2 LEU D   6      13.302  12.158  38.938  1.00 78.97 LIG 0.01  C 
ATOM     66  CD1 LEU D   6      14.395  10.126  39.643  1.00 75.94 LIG 0.01  C 
ENDBRANCH 63 64
ENDBRANCH 39 63
ENDBRANCH 1 39
TORSDOF 25
ENDMDL
MODEL 46
USER: ADFR SOLUTION from run 182
USER: SCORE 22.347484 LL:  -6.494 LR: -16.676 RR:   0.000 FEB:  -9.218
USER: RMSD 12.863319
USER: SEED 181
USER: STATUS no improvement in best in 18 clusters for 5 generations
USER: GENES 27
USER: genes 0 Translation |==|  0.55691 0.54519 0.53887
USER: genes 1 Rotation |==|  0.48996 0.82214 0.11777 0.50541
USER: genes 2 Torsion [N]-CA--C-[N] |==|  0.39243
USER: genes 3 Torsion [C]-N--CA-[C] |==|  0.72108
USER: genes 4 Torsion [N]-CA--CB-[CG] |==|  0.44149
USER: genes 5 Torsion [CA]-CB--CG-[CD1] |==|  0.21331
USER: genes 6 Torsion [N]-CA--C-[N] |==|  0.87713
USER: genes 7 Torsion [C]-N--CA-[CB] |==|  0.16318
USER: genes 8 Torsion [N]-CA--CB-[CG] |==|  0.15161
USER: genes 9 Torsion [CA]-CB--CG-[CD1] |==|  0.60504
USER: genes 10 Torsion [N]-CA--C-[N] |==|  0.05018
USER: genes 11 Torsion [C]-N--CA-[C] |==|  0.85072
USER: genes 12 Torsion [N]-CA--C-[O] |==|  0.82820
USER: genes 13 Torsion [N]-CA--CB-[OG] |==|  0.02226
USER: genes 14 Torsion [CA]-CB--OG-[HG] |==|  0.90524
USER: genes 15 Torsion [N]-C--CA-[N] |==|  0.41791
USER: genes 16 Torsion [C]-CA--N-[C] |==|  0.61436
USER: genes 17 Torsion [N]-C--CA-[N] |==|  0.46111
USER: genes 18 Torsion [C]-CA--N-[C] |==|  0.54741
USER: genes 19 Torsion [N]-C--CA-[N] |==|  0.90780
USER: genes 20 Torsion [C]-CA--CB-[CG] |==|  0.98703
USER: genes 21 Torsion [CA]-CB--CG-[CD] |==|  0.32335
USER: genes 22 Torsion [CB]-CG--CD-[OE1] |==|  0.41452
USER: genes 23 Torsion [C]-CA--CB-[CG] |==|  0.90146
USER: genes 24 Torsion [CA]-CB--CG-[CD2] |==|  0.26890
USER: genes 25 Torsion [C]-CA--CB-[CG] |==|  0.89468
USER: genes 26 Torsion [CA]-CB--CG-[CD2] |==|  0.78168
ROOT
ATOM      1  C   LEU D   6      19.627  12.733  43.429  1.00 70.97 LIG 0.24  C 
ATOM      2 O    LEU D   6      19.838  12.336  42.293  1.00 69.80 LIG-0.27  OA
ATOM      3  N   PRO D   7      18.643  12.222  44.189  1.00 67.36 LIG-0.34  N 
ATOM      4  CA  PRO D   7      17.797  11.162  43.646  1.00 66.95 LIG 0.18  C 
ATOM      5  CB  PRO D   7      17.471  10.310  44.883  1.00 69.23 LIG 0.04  C 
ATOM      6  CG  PRO D   7      17.719  11.222  46.090  1.00 73.99 LIG 0.02  C 
ATOM      7  CD  PRO D   7      18.265  12.533  45.583  1.00 69.55 LIG 0.13  C 
ENDROOT
BRANCH 4 8
ATOM      8  C   PRO D   7      16.538  11.714  42.983  1.00 67.39 LIG 0.24  C 
ATOM      9  N   LEU D   8      16.155  11.098  41.870  1.00 63.51 LIG-0.35  N 
ATOM     10 H    LEU D   8      16.598  10.459  41.503  1.00 63.51 LIG 0.16  HD
ATOM     11 O    PRO D   7      15.926  12.669  43.465  1.00 65.73 LIG-0.27  OA
BRANCH 9 12
ATOM     12  CA  LEU D   8      14.939  11.453  41.166  1.00 63.43 LIG 0.18  C 
BRANCH 12 13
ATOM     13  CB  LEU D   8      15.175  11.553  39.662  1.00 63.06 LIG 0.04  C 
BRANCH 13 14
ATOM     14  CG  LEU D   8      13.896  11.413  38.870  1.00 67.32 LIG-0.02  C 
ATOM     15  CD1 LEU D   8      13.100  12.667  38.922  1.00 66.57 LIG 0.01  C 
ATOM     16  CD2 LEU D   8      14.171  10.965  37.461  1.00 70.19 LIG 0.01  C 
ENDBRANCH 13 14
ENDBRANCH 12 13
BRANCH 12 17
ATOM     17  C   LEU D   8      13.840  10.468  41.499  1.00 69.22 LIG 0.24  C 
ATOM     18  N   PHE D   9      14.166   9.169  41.503  1.00 66.75 LIG-0.35  N 
ATOM     19 H    PHE D   9      14.955   8.878  41.325  1.00 66.75 LIG 0.16  HD
ATOM     20 O    LEU D   8      12.697  10.877  41.698  1.00 69.38 LIG-0.27  OA
BRANCH 18 21
ATOM     21  CA  PHE D   9      13.206   8.118  41.812  1.00 67.50 LIG 0.18  C 
BRANCH 21 22
ATOM     22  CB  PHE D   9      12.018   8.156  40.841  1.00 70.09 LIG 0.07  C 
BRANCH 22 23
ATOM     23  CG  PHE D   9      12.321   8.101  39.359  1.00 72.62 LIG-0.06  A 
ATOM     24  CD2 PHE D   9      13.282   7.228  38.864  1.00 75.26 LIG 0.01  A 
ATOM     25  CE2 PHE D   9      13.536   7.148  37.496  1.00 78.46 LIG 0.00  A 
ATOM     26  CZ  PHE D   9      12.827   7.937  36.613  1.00 76.95 LIG 0.00  A 
ATOM     27  CE1 PHE D   9      11.856   8.795  37.082  1.00 77.74 LIG 0.00  A 
ATOM     28  CD1 PHE D   9      11.580   8.850  38.448  1.00 76.53 LIG 0.01  A 
ENDBRANCH 22 23
ENDBRANCH 21 22
BRANCH 21 29
ATOM     29  C   PHE D   9      13.858   6.734  41.803  1.00 72.50 LIG 0.24  C 
ATOM     30 O    PHE D   9      13.160   5.722  41.697  1.00 71.57 LIG-0.27  OA
ATOM     31  N   SER D  10      15.200   6.686  41.898  1.00 70.70 LIG-0.34  N 
ATOM     32 H    SER D  10      15.698   7.385  41.950  1.00 70.70 LIG 0.16  HD
BRANCH 31 33
ATOM     33  CA  SER D  10      15.944   5.421  41.921  1.00110.54 LIG 0.19  C 
BRANCH 33 34
ATOM     34  C   SER D  10      15.419   4.489  43.014  1.00112.68 LIG 0.22  C 
ATOM     35 O    SER D  10      15.478   4.830  44.195  1.00 61.17 LIG-0.29  OA
ENDBRANCH 33 34
BRANCH 33 36
ATOM     36  CB  SER D  10      17.439   5.671  42.097  1.00114.99 LIG 0.20  C 
BRANCH 36 37
ATOM     37 OG   SER D  10      17.719   7.035  42.376  1.00125.63 LIG-0.40  OA
ATOM     38 HG   SER D  10      17.171   7.523  41.967  1.00125.63 LIG 0.21  HD
ENDBRANCH 36 37
ENDBRANCH 33 36
ENDBRANCH 31 33
ENDBRANCH 21 29
ENDBRANCH 18 21
ENDBRANCH 12 17
ENDBRANCH 9 12
ENDBRANCH 4 8
BRANCH 1 39
ATOM     39  CA  LEU D   6      20.452  13.854  43.994  1.00 70.47 LIG 0.18  C 
BRANCH 39 40
ATOM     40  N   LEU D   6      21.827  13.944  43.528  1.00 72.03 LIG-0.35  N 
ATOM     41  C   PHE D   5      22.815  14.230  44.373  1.00 78.51 LIG 0.24  C 
ATOM     42 O    PHE D   5      22.643  14.396  45.587  1.00 77.96 LIG-0.27  OA
ATOM     43 H    LEU D   6      21.933  13.800  42.687  1.00 72.03 LIG 0.16  HD
BRANCH 41 44
ATOM     44  CA  PHE D   5      24.174  14.466  43.754  1.00 78.26 LIG 0.18  C 
BRANCH 44 45
ATOM     45  N   PHE D   5      25.059  15.085  44.744  1.00 79.00 LIG-0.34  N 
ATOM     46 H    PHE D   5      24.789  15.016  45.558  1.00 79.00 LIG 0.16  HD
ATOM     47  C   GLU D   4      26.186  15.700  44.380  1.00 84.09 LIG 0.26  C 
ATOM     48 O    GLU D   4      26.602  15.708  43.222  1.00 84.89 LIG-0.27  OA
BRANCH 47 49
ATOM     49  CA  GLU D   4      26.984  16.409  45.460  1.00 80.59 LIG 0.40  C 
ATOM     50  N   GLU D   4      26.086  16.958  46.471  1.00 81.26 LIG 0.61  N 
BRANCH 49 51
ATOM     51  CB  GLU D   4      27.975  15.415  46.107  1.00 81.69 LIG 0.06  C 
BRANCH 51 52
ATOM     52  CG  GLU D   4      27.841  13.986  45.607  1.00 88.66 LIG 0.12  C 
BRANCH 52 53
ATOM     53  CD  GLU D   4      29.045  13.423  44.873  1.00 99.07 LIG 0.17  C 
ATOM     54 OE1  GLU D   4      29.277  12.194  44.942  1.00 74.80 LIG-0.65  OA
ATOM     55 OE2  GLU D   4      29.717  14.207  44.164  1.00 93.08 LIG-0.65  OA
ENDBRANCH 52 53
ENDBRANCH 51 52
ENDBRANCH 49 51
ENDBRANCH 47 49
ENDBRANCH 44 45
BRANCH 44 56
ATOM     56  CB  PHE D   5      24.781  13.233  43.079  1.00 80.27 LIG 0.07  C 
BRANCH 56 57
ATOM     57  CG  PHE D   5      24.447  11.951  43.807  1.00 81.89 LIG-0.06  A 
ATOM     58  CD2 PHE D   5      23.383  11.151  43.395  1.00 84.17 LIG 0.01  A 
ATOM     59  CE2 PHE D   5      23.067   9.971  44.074  1.00 86.81 LIG 0.00  A 
ATOM     60  CZ  PHE D   5      23.821   9.577  45.158  1.00 84.76 LIG 0.00  A 
ATOM     61  CE1 PHE D   5      24.871  10.362  45.588  1.00 85.59 LIG 0.00  A 
ATOM     62  CD1 PHE D   5      25.180  11.551  44.916  1.00 84.61 LIG 0.01  A 
ENDBRANCH 56 57
ENDBRANCH 44 56
ENDBRANCH 41 44
ENDBRANCH 39 40
BRANCH 39 63
ATOM     63  CB  LEU D   6      19.738  15.192  43.831  1.00 70.57 LIG 0.04  C 
BRANCH 63 64
ATOM     64  CG  LEU D   6      18.981  15.347  42.529  1.00 75.48 LIG-0.02  C 
ATOM     65  CD2 LEU D   6      19.893  15.667  41.426  1.00 78.97 LIG 0.01  C 
ATOM     66  CD1 LEU D   6      17.939  16.380  42.649  1.00 75.94 LIG 0.01  C 
ENDBRANCH 63 64
ENDBRANCH 39 63
ENDBRANCH 1 39
TORSDOF 25
ENDMDL
