MODEL 1
USER: ADFR SOLUTION from run 66
USER: SCORE 14.389148 LL:  -3.486 LR: -11.359 RR:   0.000 FEB:  -7.779
USER: RMSD 4.360329
USER: SEED 65
USER: STATUS no improvement in best in 7 clusters for 5 generations
USER: GENES 14
USER: genes 0 Translation |==|  0.67733 0.57313 0.41085
USER: genes 1 Rotation |==|  0.75385 0.46765 0.92708 0.54600
USER: genes 2 Torsion [N]-CA--C-[O] |==|  0.53139
USER: genes 3 Torsion [C]-N--CA-[CB] |==|  0.83576
USER: genes 4 Torsion [N]-CA--CB-[CG] |==|  0.93225
USER: genes 5 Torsion [CA]-CB--CG-[CD2] |==|  0.34762
USER: genes 6 Torsion [N]-CA--C-[OXT] |==|  0.46575
USER: genes 7 Torsion [N]-C--CA-[N] |==|  0.23518
USER: genes 8 Torsion [C]-CA--CB-[CG2] |==|  0.26538
USER: genes 9 Torsion [CA]-CB--CG1-[CD1] |==|  0.23874
USER: genes 10 Torsion [C]-CA--N-[C] |==|  0.66204
USER: genes 11 Torsion [N]-C--CA-[N] |==|  0.36023
USER: genes 12 Torsion [C]-CA--CB-[CG] |==|  0.19842
USER: genes 13 Torsion [CA]-CB--CG-[OD1] |==|  0.73123
ROOT
ATOM      1  C   ILE C 175     -69.336  -8.403  21.748  1.00 65.51 LIG 0.24  C 
ATOM      2 O    ILE C 175     -68.755  -8.824  20.742  1.00 66.37 LIG-0.27  OA
ATOM      3  N   PRO C 176     -70.427  -9.006  22.271  1.00 64.39 LIG-0.34  N 
ATOM      4  CA  PRO C 176     -70.956 -10.275  21.757  1.00 64.23 LIG 0.18  C 
ATOM      5  CB  PRO C 176     -71.686 -10.874  22.974  1.00 63.87 LIG 0.04  C 
ATOM      6  CG  PRO C 176     -71.615  -9.827  24.075  1.00 63.56 LIG 0.02  C 
ATOM      7  CD  PRO C 176     -71.193  -8.546  23.440  1.00 63.45 LIG 0.13  C 
ENDROOT
BRANCH 4 8
ATOM      8  C   PRO C 176     -71.916 -10.137  20.563  1.00 63.07 LIG 0.24  C 
ATOM      9  N   PHE C 177     -71.981  -8.944  19.974  1.00 62.32 LIG-0.34  N 
ATOM     10 H    PHE C 177     -71.566  -8.247  20.260  1.00 62.32 LIG 0.16  HD
ATOM     11 O    PRO C 176     -72.577 -11.110  20.188  1.00 62.88 LIG-0.27  OA
BRANCH 9 12
ATOM     12  CA  PHE C 177     -72.779  -8.713  18.765  1.00 61.42 LIG 0.19  C 
BRANCH 12 13
ATOM     13  CB  PHE C 177     -72.328  -9.617  17.600  1.00 59.64 LIG 0.07  C 
BRANCH 13 14
ATOM     14  CG  PHE C 177     -70.901 -10.088  17.701  1.00 58.09 LIG-0.06  A 
ATOM     15  CD1 PHE C 177     -69.858  -9.176  17.859  1.00 57.17 LIG 0.01  A 
ATOM     16  CE1 PHE C 177     -68.535  -9.610  17.956  1.00 55.93 LIG 0.00  A 
ATOM     17  CZ  PHE C 177     -68.246 -10.971  17.903  1.00 55.64 LIG 0.00  A 
ATOM     18  CE2 PHE C 177     -69.281 -11.893  17.753  1.00 56.04 LIG 0.00  A 
ATOM     19  CD2 PHE C 177     -70.600 -11.448  17.655  1.00 56.91 LIG 0.01  A 
ENDBRANCH 13 14
ENDBRANCH 12 13
BRANCH 12 20
ATOM     20  C   PHE C 177     -74.277  -8.860  19.027  1.00 62.04 LIG 0.20  C 
ATOM     21 O    PHE C 177     -74.700  -9.353  20.073  1.00 62.52 LIG-0.65  OA
ATOM     22 OXT  PHE C 177     -75.105  -8.485  18.195  1.00 62.11 LIG-0.65  OA
ENDBRANCH 12 20
ENDBRANCH 9 12
ENDBRANCH 4 8
BRANCH 1 23
ATOM     23  CA  ILE C 175     -68.824  -7.146  22.459  1.00 65.77 LIG 0.18  C 
BRANCH 23 24
ATOM     24  CB  ILE C 175     -68.108  -6.198  21.460  1.00 65.27 LIG 0.01  C 
ATOM     25  CG2 ILE C 175     -69.068  -5.128  20.949  1.00 63.89 LIG 0.01  C 
BRANCH 24 26
ATOM     26  CG1 ILE C 175     -66.880  -5.557  22.120  1.00 65.41 LIG 0.00  C 
ATOM     27  CD1 ILE C 175     -65.613  -6.391  22.039  1.00 65.60 LIG 0.01  C 
ENDBRANCH 24 26
ENDBRANCH 23 24
BRANCH 23 28
ATOM     28  N   ILE C 175     -67.942  -7.513  23.569  1.00 67.68 LIG-0.34  N 
ATOM     29 H    ILE C 175     -67.261  -7.981  23.332  1.00 67.68 LIG 0.16  HD
ATOM     30  C   ASP C 174     -68.181  -7.151  24.829  1.00 68.58 LIG 0.26  C 
ATOM     31 O    ASP C 174     -69.180  -6.514  25.177  1.00 68.06 LIG-0.27  OA
BRANCH 30 32
ATOM     32  CA  ASP C 174     -67.128  -7.570  25.849  1.00 70.51 LIG 0.41  C 
ATOM     33  N   ASP C 174     -66.709  -6.406  26.688  1.00 70.88 LIG 0.61  N 
BRANCH 32 34
ATOM     34  CB  ASP C 174     -67.662  -8.709  26.728  1.00 71.81 LIG 0.16  C 
BRANCH 34 35
ATOM     35  CG  ASP C 174     -67.771 -10.028  25.979  1.00 74.09 LIG 0.17  C 
ATOM     36 OD1  ASP C 174     -68.876 -10.360  25.494  1.00 74.88 LIG-0.65  OA
ATOM     37 OD2  ASP C 174     -66.746 -10.735  25.870  1.00 75.75 LIG-0.65  OA
ENDBRANCH 34 35
ENDBRANCH 32 34
ENDBRANCH 30 32
ENDBRANCH 23 28
ENDBRANCH 1 23
TORSDOF 12
ENDMDL
MODEL 2
USER: ADFR SOLUTION from run 175
USER: SCORE 14.295403 LL:  -3.546 LR: -10.936 RR:   0.000 FEB:  -7.356
USER: RMSD 2.680444
USER: SEED 174
USER: STATUS no improvement in best in 9 clusters for 5 generations
USER: GENES 14
USER: genes 0 Translation |==|  0.51403 0.46039 0.44517
USER: genes 1 Rotation |==|  0.43185 0.52804 0.61004 0.98214
USER: genes 2 Torsion [N]-CA--C-[O] |==|  0.16795
USER: genes 3 Torsion [C]-N--CA-[CB] |==|  0.84778
USER: genes 4 Torsion [N]-CA--CB-[CG] |==|  0.87823
USER: genes 5 Torsion [CA]-CB--CG-[CD2] |==|  0.47021
USER: genes 6 Torsion [N]-CA--C-[OXT] |==|  0.45610
USER: genes 7 Torsion [N]-C--CA-[N] |==|  0.28605
USER: genes 8 Torsion [C]-CA--CB-[CG2] |==|  0.76218
USER: genes 9 Torsion [CA]-CB--CG1-[CD1] |==|  0.15101
USER: genes 10 Torsion [C]-CA--N-[C] |==|  0.76109
USER: genes 11 Torsion [N]-C--CA-[N] |==|  0.03028
USER: genes 12 Torsion [C]-CA--CB-[CG] |==|  0.79600
USER: genes 13 Torsion [CA]-CB--CG-[OD1] |==|  0.26557
ROOT
ATOM      1  C   ILE C 175     -71.786 -10.264  22.469  1.00 65.51 LIG 0.24  C 
ATOM      2 O    ILE C 175     -72.982 -10.464  22.698  1.00 66.37 LIG-0.27  OA
ATOM      3  N   PRO C 176     -71.353  -9.339  21.582  1.00 64.39 LIG-0.34  N 
ATOM      4  CA  PRO C 176     -72.262  -8.416  20.892  1.00 64.23 LIG 0.18  C 
ATOM      5  CB  PRO C 176     -71.360  -7.210  20.565  1.00 63.87 LIG 0.04  C 
ATOM      6  CG  PRO C 176     -69.955  -7.595  20.998  1.00 63.56 LIG 0.02  C 
ATOM      7  CD  PRO C 176     -69.951  -9.068  21.228  1.00 63.45 LIG 0.13  C 
ENDROOT
BRANCH 4 8
ATOM      8  C   PRO C 176     -72.901  -8.977  19.611  1.00 63.07 LIG 0.24  C 
ATOM      9  N   PHE C 177     -72.642  -8.335  18.473  1.00 62.32 LIG-0.34  N 
ATOM     10 H    PHE C 177     -72.193  -7.603  18.431  1.00 62.32 LIG 0.16  HD
ATOM     11 O    PRO C 176     -73.613  -9.985  19.668  1.00 62.88 LIG-0.27  OA
BRANCH 9 12
ATOM     12  CA  PHE C 177     -73.107  -8.830  17.173  1.00 61.42 LIG 0.19  C 
BRANCH 12 13
ATOM     13  CB  PHE C 177     -72.654 -10.281  16.918  1.00 59.64 LIG 0.07  C 
BRANCH 13 14
ATOM     14  CG  PHE C 177     -71.220 -10.555  17.289  1.00 58.09 LIG-0.06  A 
ATOM     15  CD1 PHE C 177     -70.357  -9.511  17.620  1.00 57.17 LIG 0.01  A 
ATOM     16  CE1 PHE C 177     -69.029  -9.762  17.968  1.00 55.93 LIG 0.00  A 
ATOM     17  CZ  PHE C 177     -68.555 -11.071  17.995  1.00 55.64 LIG 0.00  A 
ATOM     18  CE2 PHE C 177     -69.410 -12.124  17.673  1.00 56.04 LIG 0.00  A 
ATOM     19  CD2 PHE C 177     -70.735 -11.861  17.325  1.00 56.91 LIG 0.01  A 
ENDBRANCH 13 14
ENDBRANCH 12 13
BRANCH 12 20
ATOM     20  C   PHE C 177     -74.621  -8.691  17.012  1.00 62.04 LIG 0.20  C 
ATOM     21 O    PHE C 177     -75.352  -8.485  17.982  1.00 62.52 LIG-0.65  OA
ATOM     22 OXT  PHE C 177     -75.151  -8.778  15.904  1.00 62.11 LIG-0.65  OA
ENDBRANCH 12 20
ENDBRANCH 9 12
ENDBRANCH 4 8
BRANCH 1 23
ATOM     23  CA  ILE C 175     -70.717 -11.080  23.204  1.00 65.77 LIG 0.18  C 
BRANCH 23 24
ATOM     24  CB  ILE C 175     -71.068 -12.591  23.189  1.00 65.27 LIG 0.01  C 
ATOM     25  CG2 ILE C 175     -72.000 -12.940  24.345  1.00 63.89 LIG 0.01  C 
BRANCH 24 26
ATOM     26  CG1 ILE C 175     -71.701 -12.978  21.845  1.00 65.41 LIG 0.00  C 
ATOM     27  CD1 ILE C 175     -70.871 -12.609  20.627  1.00 65.60 LIG 0.01  C 
ENDBRANCH 24 26
ENDBRANCH 23 24
BRANCH 23 28
ATOM     28  N   ILE C 175     -70.552 -10.586  24.572  1.00 67.68 LIG-0.34  N 
ATOM     29 H    ILE C 175     -71.025 -11.006  25.154  1.00 67.68 LIG 0.16  HD
ATOM     30  C   ASP C 174     -69.739  -9.576  24.881  1.00 68.58 LIG 0.26  C 
ATOM     31 O    ASP C 174     -69.088  -8.944  24.042  1.00 68.06 LIG-0.27  OA
BRANCH 30 32
ATOM     32  CA  ASP C 174     -69.644  -9.230  26.363  1.00 70.51 LIG 0.41  C 
ATOM     33  N   ASP C 174     -70.299 -10.283  27.197  1.00 70.88 LIG 0.61  N 
BRANCH 32 34
ATOM     34  CB  ASP C 174     -68.177  -9.045  26.774  1.00 71.81 LIG 0.16  C 
BRANCH 34 35
ATOM     35  CG  ASP C 174     -67.418 -10.360  26.857  1.00 74.09 LIG 0.17  C 
ATOM     36 OD1  ASP C 174     -66.746 -10.735  25.870  1.00 74.88 LIG-0.65  OA
ATOM     37 OD2  ASP C 174     -67.490 -11.020  27.915  1.00 75.75 LIG-0.65  OA
ENDBRANCH 34 35
ENDBRANCH 32 34
ENDBRANCH 30 32
ENDBRANCH 23 28
ENDBRANCH 1 23
TORSDOF 12
ENDMDL
MODEL 3
USER: ADFR SOLUTION from run 157
USER: SCORE 13.677540 LL:  -3.040 LR: -10.779 RR:   0.000 FEB:  -7.200
USER: RMSD 4.188665
USER: SEED 156
USER: STATUS no improvement in best in 13 clusters for 5 generations
USER: GENES 14
USER: genes 0 Translation |==|  0.62481 0.50408 0.36744
USER: genes 1 Rotation |==|  0.36963 0.69695 0.19022 0.81345
USER: genes 2 Torsion [N]-CA--C-[O] |==|  0.43882
USER: genes 3 Torsion [C]-N--CA-[CB] |==|  0.18209
USER: genes 4 Torsion [N]-CA--CB-[CG] |==|  0.65488
USER: genes 5 Torsion [CA]-CB--CG-[CD2] |==|  0.24334
USER: genes 6 Torsion [N]-CA--C-[OXT] |==|  0.01964
USER: genes 7 Torsion [N]-C--CA-[N] |==|  0.46421
USER: genes 8 Torsion [C]-CA--CB-[CG2] |==|  0.95765
USER: genes 9 Torsion [CA]-CB--CG1-[CD1] |==|  0.09466
USER: genes 10 Torsion [C]-CA--N-[C] |==|  0.55005
USER: genes 11 Torsion [N]-C--CA-[N] |==|  0.40003
USER: genes 12 Torsion [C]-CA--CB-[CG] |==|  0.81332
USER: genes 13 Torsion [CA]-CB--CG-[OD1] |==|  0.37189
ROOT
ATOM      1  C   ILE C 175     -70.124  -9.543  20.836  1.00 65.51 LIG 0.24  C 
ATOM      2 O    ILE C 175     -69.776  -8.358  20.855  1.00 66.37 LIG-0.27  OA
ATOM      3  N   PRO C 176     -70.184 -10.272  19.699  1.00 64.39 LIG-0.34  N 
ATOM      4  CA  PRO C 176     -69.739  -9.754  18.400  1.00 64.23 LIG 0.18  C 
ATOM      5  CB  PRO C 176     -69.366 -11.030  17.620  1.00 63.87 LIG 0.04  C 
ATOM      6  CG  PRO C 176     -69.746 -12.203  18.509  1.00 63.56 LIG 0.02  C 
ATOM      7  CD  PRO C 176     -70.623 -11.672  19.591  1.00 63.45 LIG 0.13  C 
ENDROOT
BRANCH 4 8
ATOM      8  C   PRO C 176     -70.793  -8.939  17.635  1.00 63.07 LIG 0.24  C 
ATOM      9  N   PHE C 177     -72.069  -9.141  17.961  1.00 62.32 LIG-0.34  N 
ATOM     10 H    PHE C 177     -72.328  -9.737  18.525  1.00 62.32 LIG 0.16  HD
ATOM     11 O    PRO C 176     -70.441  -8.134  16.766  1.00 62.88 LIG-0.27  OA
BRANCH 9 12
ATOM     12  CA  PHE C 177     -73.159  -8.352  17.377  1.00 61.42 LIG 0.19  C 
BRANCH 12 13
ATOM     13  CB  PHE C 177     -73.301  -8.605  15.863  1.00 59.64 LIG 0.07  C 
BRANCH 13 14
ATOM     14  CG  PHE C 177     -73.223  -7.359  15.020  1.00 58.09 LIG-0.06  A 
ATOM     15  CD1 PHE C 177     -74.377  -6.652  14.682  1.00 57.17 LIG 0.01  A 
ATOM     16  CE1 PHE C 177     -74.306  -5.495  13.904  1.00 55.93 LIG 0.00  A 
ATOM     17  CZ  PHE C 177     -73.070  -5.031  13.462  1.00 55.64 LIG 0.00  A 
ATOM     18  CE2 PHE C 177     -71.909  -5.726  13.799  1.00 56.04 LIG 0.00  A 
ATOM     19  CD2 PHE C 177     -71.992  -6.881  14.576  1.00 56.91 LIG 0.01  A 
ENDBRANCH 13 14
ENDBRANCH 12 13
BRANCH 12 20
ATOM     20  C   PHE C 177     -74.487  -8.583  18.100  1.00 62.04 LIG 0.20  C 
ATOM     21 O    PHE C 177     -75.540  -8.110  17.672  1.00 62.52 LIG-0.65  OA
ATOM     22 OXT  PHE C 177     -74.537  -9.255  19.132  1.00 62.11 LIG-0.65  OA
ENDBRANCH 12 20
ENDBRANCH 9 12
ENDBRANCH 4 8
BRANCH 1 23
ATOM     23  CA  ILE C 175     -70.511 -10.249  22.140  1.00 65.77 LIG 0.18  C 
BRANCH 23 24
ATOM     24  CB  ILE C 175     -72.031 -10.558  22.172  1.00 65.27 LIG 0.01  C 
ATOM     25  CG2 ILE C 175     -72.767  -9.758  21.100  1.00 63.89 LIG 0.01  C 
BRANCH 24 26
ATOM     26  CG1 ILE C 175     -72.274 -12.062  21.989  1.00 65.41 LIG 0.00  C 
ATOM     27  CD1 ILE C 175     -71.208 -12.952  22.605  1.00 65.60 LIG 0.01  C 
ENDBRANCH 24 26
ENDBRANCH 23 24
BRANCH 23 28
ATOM     28  N   ILE C 175     -70.108  -9.442  23.294  1.00 67.68 LIG-0.34  N 
ATOM     29 H    ILE C 175     -69.951  -8.618  23.105  1.00 67.68 LIG 0.16  HD
ATOM     30  C   ASP C 174     -69.998  -9.945  24.522  1.00 68.58 LIG 0.26  C 
ATOM     31 O    ASP C 174     -70.183 -11.137  24.790  1.00 68.06 LIG-0.27  OA
BRANCH 30 32
ATOM     32  CA  ASP C 174     -69.624  -8.950  25.616  1.00 70.51 LIG 0.41  C 
ATOM     33  N   ASP C 174     -70.319  -9.282  26.896  1.00 70.88 LIG 0.61  N 
BRANCH 32 34
ATOM     34  CB  ASP C 174     -68.102  -8.923  25.814  1.00 71.81 LIG 0.16  C 
BRANCH 34 35
ATOM     35  CG  ASP C 174     -67.560 -10.224  26.387  1.00 74.09 LIG 0.17  C 
ATOM     36 OD1  ASP C 174     -66.541 -10.735  25.870  1.00 74.88 LIG-0.65  OA
ATOM     37 OD2  ASP C 174     -68.152 -10.735  27.361  1.00 75.75 LIG-0.65  OA
ENDBRANCH 34 35
ENDBRANCH 32 34
ENDBRANCH 30 32
ENDBRANCH 23 28
ENDBRANCH 1 23
TORSDOF 12
ENDMDL
MODEL 4
USER: ADFR SOLUTION from run 33
USER: SCORE 13.995880 LL:  -3.470 LR: -10.646 RR:   0.000 FEB:  -7.067
USER: RMSD 3.038811
USER: SEED 32
USER: STATUS no improvement in best in 6 clusters for 5 generations
USER: GENES 14
USER: genes 0 Translation |==|  0.46946 0.42650 0.44663
USER: genes 1 Rotation |==|  0.45184 0.52752 0.52771 0.99614
USER: genes 2 Torsion [N]-CA--C-[O] |==|  0.12701
USER: genes 3 Torsion [C]-N--CA-[CB] |==|  0.82124
USER: genes 4 Torsion [N]-CA--CB-[CG] |==|  0.92964
USER: genes 5 Torsion [CA]-CB--CG-[CD2] |==|  0.37823
USER: genes 6 Torsion [N]-CA--C-[OXT] |==|  0.50056
USER: genes 7 Torsion [N]-C--CA-[N] |==|  0.40272
USER: genes 8 Torsion [C]-CA--CB-[CG2] |==|  0.38345
USER: genes 9 Torsion [CA]-CB--CG1-[CD1] |==|  0.20758
USER: genes 10 Torsion [C]-CA--N-[C] |==|  0.72813
USER: genes 11 Torsion [N]-C--CA-[N] |==|  0.77801
USER: genes 12 Torsion [C]-CA--CB-[CG] |==|  0.15447
USER: genes 13 Torsion [CA]-CB--CG-[OD1] |==|  0.30907
ROOT
ATOM      1  C   ILE C 175     -72.454 -10.823  22.499  1.00 65.51 LIG 0.24  C 
ATOM      2 O    ILE C 175     -73.659 -10.630  22.689  1.00 66.37 LIG-0.27  OA
ATOM      3  N   PRO C 176     -71.705 -10.041  21.690  1.00 64.39 LIG-0.34  N 
ATOM      4  CA  PRO C 176     -72.229  -8.830  21.048  1.00 64.23 LIG 0.18  C 
ATOM      5  CB  PRO C 176     -70.969  -7.972  20.827  1.00 63.87 LIG 0.04  C 
ATOM      6  CG  PRO C 176     -69.788  -8.825  21.261  1.00 63.56 LIG 0.02  C 
ATOM      7  CD  PRO C 176     -70.277 -10.228  21.386  1.00 63.45 LIG 0.13  C 
ENDROOT
BRANCH 4 8
ATOM      8  C   PRO C 176     -72.962  -9.070  19.718  1.00 63.07 LIG 0.24  C 
ATOM      9  N   PHE C 177     -72.656  -8.263  18.704  1.00 62.32 LIG-0.34  N 
ATOM     10 H    PHE C 177     -72.124  -7.590  18.774  1.00 62.32 LIG 0.16  HD
ATOM     11 O    PRO C 176     -73.787  -9.985  19.624  1.00 62.88 LIG-0.27  OA
BRANCH 9 12
ATOM     12  CA  PHE C 177     -73.208  -8.454  17.358  1.00 61.42 LIG 0.19  C 
BRANCH 12 13
ATOM     13  CB  PHE C 177     -72.738  -9.781  16.731  1.00 59.64 LIG 0.07  C 
BRANCH 13 14
ATOM     14  CG  PHE C 177     -71.430 -10.292  17.275  1.00 58.09 LIG-0.06  A 
ATOM     15  CD1 PHE C 177     -70.359  -9.426  17.488  1.00 57.17 LIG 0.01  A 
ATOM     16  CE1 PHE C 177     -69.146  -9.896  17.995  1.00 55.93 LIG 0.00  A 
ATOM     17  CZ  PHE C 177     -69.000 -11.246  18.302  1.00 55.64 LIG 0.00  A 
ATOM     18  CE2 PHE C 177     -70.067 -12.122  18.100  1.00 56.04 LIG 0.00  A 
ATOM     19  CD2 PHE C 177     -71.273 -11.640  17.591  1.00 56.91 LIG 0.01  A 
ENDBRANCH 13 14
ENDBRANCH 12 13
BRANCH 12 20
ATOM     20  C   PHE C 177     -74.733  -8.347  17.341  1.00 62.04 LIG 0.20  C 
ATOM     21 O    PHE C 177     -75.371  -8.118  18.370  1.00 62.52 LIG-0.65  OA
ATOM     22 OXT  PHE C 177     -75.365  -8.485  16.293  1.00 62.11 LIG-0.65  OA
ENDBRANCH 12 20
ENDBRANCH 9 12
ENDBRANCH 4 8
BRANCH 1 23
ATOM     23  CA  ILE C 175     -71.745 -11.989  23.197  1.00 65.77 LIG 0.18  C 
BRANCH 23 24
ATOM     24  CB  ILE C 175     -71.830 -13.280  22.339  1.00 65.27 LIG 0.01  C 
ATOM     25  CG2 ILE C 175     -70.496 -14.021  22.345  1.00 63.89 LIG 0.01  C 
BRANCH 24 26
ATOM     26  CG1 ILE C 175     -72.958 -14.187  22.850  1.00 65.41 LIG 0.00  C 
ATOM     27  CD1 ILE C 175     -74.357 -13.713  22.497  1.00 65.60 LIG 0.01  C 
ENDBRANCH 24 26
ENDBRANCH 23 24
BRANCH 23 28
ATOM     28  N   ILE C 175     -72.307 -12.200  24.532  1.00 67.68 LIG-0.34  N 
ATOM     29 H    ILE C 175     -73.031 -12.664  24.537  1.00 67.68 LIG 0.16  HD
ATOM     30  C   ASP C 174     -71.742 -11.714  25.637  1.00 68.58 LIG 0.26  C 
ATOM     31 O    ASP C 174     -70.724 -11.013  25.630  1.00 68.06 LIG-0.27  OA
BRANCH 30 32
ATOM     32  CA  ASP C 174     -72.428 -12.079  26.948  1.00 70.51 LIG 0.41  C 
ATOM     33  N   ASP C 174     -73.618 -11.206  27.186  1.00 70.88 LIG 0.61  N 
BRANCH 32 34
ATOM     34  CB  ASP C 174     -72.833 -13.560  26.944  1.00 71.81 LIG 0.16  C 
BRANCH 34 35
ATOM     35  CG  ASP C 174     -71.660 -14.489  26.673  1.00 74.09 LIG 0.17  C 
ATOM     36 OD1  ASP C 174     -71.246 -15.227  27.595  1.00 74.88 LIG-0.65  OA
ATOM     37 OD2  ASP C 174     -71.151 -14.485  25.532  1.00 75.75 LIG-0.65  OA
ENDBRANCH 34 35
ENDBRANCH 32 34
ENDBRANCH 30 32
ENDBRANCH 23 28
ENDBRANCH 1 23
TORSDOF 12
ENDMDL
MODEL 5
USER: ADFR SOLUTION from run 76
USER: SCORE 12.826334 LL:  -2.441 LR: -10.449 RR:   0.000 FEB:  -6.869
USER: RMSD 8.303961
USER: SEED 75
USER: STATUS no improvement in best in 13 clusters for 5 generations
USER: GENES 14
USER: genes 0 Translation |==|  0.51629 0.46588 0.36611
USER: genes 1 Rotation |==|  0.76311 0.18200 0.27658 0.67242
USER: genes 2 Torsion [N]-CA--C-[O] |==|  0.73217
USER: genes 3 Torsion [C]-N--CA-[CB] |==|  0.55451
USER: genes 4 Torsion [N]-CA--CB-[CG] |==|  0.66966
USER: genes 5 Torsion [CA]-CB--CG-[CD2] |==|  0.22730
USER: genes 6 Torsion [N]-CA--C-[OXT] |==|  0.82068
USER: genes 7 Torsion [N]-C--CA-[N] |==|  0.45556
USER: genes 8 Torsion [C]-CA--CB-[CG2] |==|  0.50045
USER: genes 9 Torsion [CA]-CB--CG1-[CD1] |==|  0.60714
USER: genes 10 Torsion [C]-CA--N-[C] |==|  0.81092
USER: genes 11 Torsion [N]-C--CA-[N] |==|  0.74244
USER: genes 12 Torsion [C]-CA--CB-[CG] |==|  0.37371
USER: genes 13 Torsion [CA]-CB--CG-[OD1] |==|  0.90780
ROOT
ATOM      1  C   ILE C 175     -71.752 -10.173  20.808  1.00 65.51 LIG 0.24  C 
ATOM      2 O    ILE C 175     -71.705  -8.970  21.086  1.00 66.37 LIG-0.27  OA
ATOM      3  N   PRO C 176     -71.729 -11.144  21.748  1.00 64.39 LIG-0.34  N 
ATOM      4  CA  PRO C 176     -71.756 -10.857  23.187  1.00 64.23 LIG 0.18  C 
ATOM      5  CB  PRO C 176     -72.371 -12.133  23.792  1.00 63.87 LIG 0.04  C 
ATOM      6  CG  PRO C 176     -72.542 -13.113  22.642  1.00 63.56 LIG 0.02  C 
ATOM      7  CD  PRO C 176     -71.744 -12.594  21.496  1.00 63.45 LIG 0.13  C 
ENDROOT
BRANCH 4 8
ATOM      8  C   PRO C 176     -70.381 -10.568  23.813  1.00 63.07 LIG 0.24  C 
ATOM      9  N   PHE C 177     -69.922  -9.322  23.716  1.00 62.32 LIG-0.34  N 
ATOM     10 H    PHE C 177     -70.321  -8.699  23.278  1.00 62.32 LIG 0.16  HD
ATOM     11 O    PRO C 176     -69.759 -11.472  24.380  1.00 62.88 LIG-0.27  OA
BRANCH 9 12
ATOM     12  CA  PHE C 177     -68.674  -8.896  24.361  1.00 61.42 LIG 0.19  C 
BRANCH 12 13
ATOM     13  CB  PHE C 177     -68.606  -7.364  24.518  1.00 59.64 LIG 0.07  C 
BRANCH 13 14
ATOM     14  CG  PHE C 177     -67.455  -6.720  23.791  1.00 58.09 LIG-0.06  A 
ATOM     15  CD1 PHE C 177     -66.273  -6.407  24.460  1.00 57.17 LIG 0.01  A 
ATOM     16  CE1 PHE C 177     -65.204  -5.813  23.788  1.00 55.93 LIG 0.00  A 
ATOM     17  CZ  PHE C 177     -65.310  -5.534  22.428  1.00 55.64 LIG 0.00  A 
ATOM     18  CE2 PHE C 177     -66.484  -5.848  21.745  1.00 56.04 LIG 0.00  A 
ATOM     19  CD2 PHE C 177     -67.547  -6.440  22.429  1.00 56.91 LIG 0.01  A 
ENDBRANCH 13 14
ENDBRANCH 12 13
BRANCH 12 20
ATOM     20  C   PHE C 177     -68.451  -9.597  25.701  1.00 62.04 LIG 0.20  C 
ATOM     21 O    PHE C 177     -67.501 -10.361  25.874  1.00 62.52 LIG-0.65  OA
ATOM     22 OXT  PHE C 177     -69.217  -9.412  26.647  1.00 62.11 LIG-0.65  OA
ENDBRANCH 12 20
ENDBRANCH 9 12
ENDBRANCH 4 8
BRANCH 1 23
ATOM     23  CA  ILE C 175     -71.840 -10.619  19.345  1.00 65.77 LIG 0.18  C 
BRANCH 23 24
ATOM     24  CB  ILE C 175     -70.498 -11.241  18.874  1.00 65.27 LIG 0.01  C 
ATOM     25  CG2 ILE C 175     -70.589 -11.680  17.416  1.00 63.89 LIG 0.01  C 
BRANCH 24 26
ATOM     26  CG1 ILE C 175     -69.350 -10.242  19.070  1.00 65.41 LIG 0.00  C 
ATOM     27  CD1 ILE C 175     -68.316 -10.244  17.957  1.00 65.60 LIG 0.01  C 
ENDBRANCH 24 26
ENDBRANCH 23 24
BRANCH 23 28
ATOM     28  N   ILE C 175     -72.233  -9.494  18.493  1.00 67.68 LIG-0.34  N 
ATOM     29 H    ILE C 175     -71.613  -9.229  17.959  1.00 67.68 LIG 0.16  HD
ATOM     30  C   ASP C 174     -73.443  -8.939  18.546  1.00 68.58 LIG 0.26  C 
ATOM     31 O    ASP C 174     -74.321  -9.292  19.340  1.00 68.06 LIG-0.27  OA
BRANCH 30 32
ATOM     32  CA  ASP C 174     -73.700  -7.815  17.547  1.00 70.51 LIG 0.41  C 
ATOM     33  N   ASP C 174     -73.383  -6.485  18.150  1.00 70.88 LIG 0.61  N 
BRANCH 32 34
ATOM     34  CB  ASP C 174     -72.882  -8.042  16.268  1.00 71.81 LIG 0.16  C 
BRANCH 34 35
ATOM     35  CG  ASP C 174     -73.697  -7.824  15.003  1.00 74.09 LIG 0.17  C 
ATOM     36 OD1  ASP C 174     -74.914  -8.114  15.008  1.00 74.88 LIG-0.65  OA
ATOM     37 OD2  ASP C 174     -73.118  -7.357  13.998  1.00 75.75 LIG-0.65  OA
ENDBRANCH 34 35
ENDBRANCH 32 34
ENDBRANCH 30 32
ENDBRANCH 23 28
ENDBRANCH 1 23
TORSDOF 12
ENDMDL
MODEL 6
USER: ADFR SOLUTION from run 169
USER: SCORE 13.421266 LL:  -3.086 LR: -10.403 RR:   0.000 FEB:  -6.823
USER: RMSD 7.648497
USER: SEED 168
USER: STATUS no improvement in best in 5 clusters for 5 generations
USER: GENES 14
USER: genes 0 Translation |==|  0.55032 0.43181 0.30319
USER: genes 1 Rotation |==|  0.83754 0.82201 0.49916 0.67993
USER: genes 2 Torsion [N]-CA--C-[O] |==|  0.91525
USER: genes 3 Torsion [C]-N--CA-[CB] |==|  0.20662
USER: genes 4 Torsion [N]-CA--CB-[CG] |==|  0.04412
USER: genes 5 Torsion [CA]-CB--CG-[CD2] |==|  0.68218
USER: genes 6 Torsion [N]-CA--C-[OXT] |==|  0.98947
USER: genes 7 Torsion [N]-C--CA-[N] |==|  0.91254
USER: genes 8 Torsion [C]-CA--CB-[CG2] |==|  0.05684
USER: genes 9 Torsion [CA]-CB--CG1-[CD1] |==|  0.12275
USER: genes 10 Torsion [C]-CA--N-[C] |==|  0.79010
USER: genes 11 Torsion [N]-C--CA-[N] |==|  0.70866
USER: genes 12 Torsion [C]-CA--CB-[CG] |==|  0.18861
USER: genes 13 Torsion [CA]-CB--CG-[OD1] |==|  0.03822
ROOT
ATOM      1  C   ILE C 175     -71.241 -10.735  19.487  1.00 65.51 LIG 0.24  C 
ATOM      2 O    ILE C 175     -71.137 -11.796  20.110  1.00 66.37 LIG-0.27  OA
ATOM      3  N   PRO C 176     -70.628  -9.594  19.874  1.00 64.39 LIG-0.34  N 
ATOM      4  CA  PRO C 176     -69.699  -9.538  21.008  1.00 64.23 LIG 0.18  C 
ATOM      5  CB  PRO C 176     -68.799  -8.333  20.669  1.00 63.87 LIG 0.04  C 
ATOM      6  CG  PRO C 176     -69.371  -7.713  19.404  1.00 63.56 LIG 0.02  C 
ATOM      7  CD  PRO C 176     -70.733  -8.286  19.208  1.00 63.45 LIG 0.13  C 
ENDROOT
BRANCH 4 8
ATOM      8  C   PRO C 176     -70.365  -9.348  22.380  1.00 63.07 LIG 0.24  C 
ATOM      9  N   PHE C 177     -69.746  -9.879  23.433  1.00 62.32 LIG-0.34  N 
ATOM     10 H    PHE C 177     -69.038 -10.365  23.375  1.00 62.32 LIG 0.16  HD
ATOM     11 O    PRO C 176     -71.425  -8.719  22.470  1.00 62.88 LIG-0.27  OA
BRANCH 9 12
ATOM     12  CA  PHE C 177     -70.225  -9.680  24.805  1.00 61.42 LIG 0.19  C 
BRANCH 12 13
ATOM     13  CB  PHE C 177     -71.486 -10.517  25.098  1.00 59.64 LIG 0.07  C 
BRANCH 13 14
ATOM     14  CG  PHE C 177     -71.742 -11.617  24.101  1.00 58.09 LIG-0.06  A 
ATOM     15  CD1 PHE C 177     -70.872 -12.700  23.995  1.00 57.17 LIG 0.01  A 
ATOM     16  CE1 PHE C 177     -71.109 -13.723  23.075  1.00 55.93 LIG 0.00  A 
ATOM     17  CZ  PHE C 177     -72.233 -13.670  22.254  1.00 55.64 LIG 0.00  A 
ATOM     18  CE2 PHE C 177     -73.115 -12.595  22.356  1.00 56.04 LIG 0.00  A 
ATOM     19  CD2 PHE C 177     -72.866 -11.578  23.279  1.00 56.91 LIG 0.01  A 
ENDBRANCH 13 14
ENDBRANCH 12 13
BRANCH 12 20
ATOM     20  C   PHE C 177     -69.134  -9.950  25.840  1.00 62.04 LIG 0.20  C 
ATOM     21 O    PHE C 177     -69.331  -9.770  27.043  1.00 62.52 LIG-0.65  OA
ATOM     22 OXT  PHE C 177     -68.023 -10.360  25.498  1.00 62.11 LIG-0.65  OA
ENDBRANCH 12 20
ENDBRANCH 9 12
ENDBRANCH 4 8
BRANCH 1 23
ATOM     23  CA  ILE C 175     -72.093 -10.673  18.214  1.00 65.77 LIG 0.18  C 
BRANCH 23 24
ATOM     24  CB  ILE C 175     -71.253 -11.061  16.968  1.00 65.27 LIG 0.01  C 
ATOM     25  CG2 ILE C 175     -70.018 -11.858  17.376  1.00 63.89 LIG 0.01  C 
BRANCH 24 26
ATOM     26  CG1 ILE C 175     -72.111 -11.857  15.974  1.00 65.41 LIG 0.00  C 
ATOM     27  CD1 ILE C 175     -73.501 -11.290  15.745  1.00 65.60 LIG 0.01  C 
ENDBRANCH 24 26
ENDBRANCH 23 24
BRANCH 23 28
ATOM     28  N   ILE C 175     -72.687  -9.343  18.064  1.00 67.68 LIG-0.34  N 
ATOM     29 H    ILE C 175     -72.305  -8.857  17.465  1.00 67.68 LIG 0.16  HD
ATOM     30  C   ASP C 174     -73.723  -8.930  18.791  1.00 68.58 LIG 0.26  C 
ATOM     31 O    ASP C 174     -74.246  -9.610  19.680  1.00 68.06 LIG-0.27  OA
BRANCH 30 32
ATOM     32  CA  ASP C 174     -74.251  -7.537  18.463  1.00 70.51 LIG 0.41  C 
ATOM     33  N   ASP C 174     -73.836  -6.552  19.507  1.00 70.88 LIG 0.61  N 
BRANCH 32 34
ATOM     34  CB  ASP C 174     -73.763  -7.097  17.075  1.00 71.81 LIG 0.16  C 
BRANCH 34 35
ATOM     35  CG  ASP C 174     -74.377  -7.914  15.949  1.00 74.09 LIG 0.17  C 
ATOM     36 OD1  ASP C 174     -75.366  -8.641  16.197  1.00 74.88 LIG-0.65  OA
ATOM     37 OD2  ASP C 174     -73.873  -7.826  14.809  1.00 75.75 LIG-0.65  OA
ENDBRANCH 34 35
ENDBRANCH 32 34
ENDBRANCH 30 32
ENDBRANCH 23 28
ENDBRANCH 1 23
TORSDOF 12
ENDMDL
MODEL 7
USER: ADFR SOLUTION from run 24
USER: SCORE 13.317138 LL:  -3.047 LR: -10.284 RR:   0.000 FEB:  -6.704
USER: RMSD 3.984858
USER: SEED 23
USER: STATUS no improvement in best in 7 clusters for 5 generations
USER: GENES 14
USER: genes 0 Translation |==|  0.60372 0.49360 0.49582
USER: genes 1 Rotation |==|  0.29639 0.64284 0.11195 0.69379
USER: genes 2 Torsion [N]-CA--C-[O] |==|  0.66644
USER: genes 3 Torsion [C]-N--CA-[CB] |==|  0.77366
USER: genes 4 Torsion [N]-CA--CB-[CG] |==|  0.05763
USER: genes 5 Torsion [CA]-CB--CG-[CD2] |==|  0.74882
USER: genes 6 Torsion [N]-CA--C-[OXT] |==|  0.59853
USER: genes 7 Torsion [N]-C--CA-[N] |==|  0.40494
USER: genes 8 Torsion [C]-CA--CB-[CG2] |==|  0.00798
USER: genes 9 Torsion [CA]-CB--CG1-[CD1] |==|  0.02371
USER: genes 10 Torsion [C]-CA--N-[C] |==|  0.80076
USER: genes 11 Torsion [N]-C--CA-[N] |==|  0.21378
USER: genes 12 Torsion [C]-CA--CB-[CG] |==|  0.83917
USER: genes 13 Torsion [CA]-CB--CG-[OD1] |==|  0.34130
ROOT
ATOM      1  C   ILE C 175     -70.440  -9.716  23.532  1.00 65.51 LIG 0.24  C 
ATOM      2 O    ILE C 175     -69.802  -8.893  22.868  1.00 66.37 LIG-0.27  OA
ATOM      3  N   PRO C 176     -70.952 -10.848  23.001  1.00 64.39 LIG-0.34  N 
ATOM      4  CA  PRO C 176     -70.706 -11.255  21.612  1.00 64.23 LIG 0.18  C 
ATOM      5  CB  PRO C 176     -70.871 -12.787  21.658  1.00 63.87 LIG 0.04  C 
ATOM      6  CG  PRO C 176     -71.322 -13.128  23.069  1.00 63.56 LIG 0.02  C 
ATOM      7  CD  PRO C 176     -71.752 -11.855  23.716  1.00 63.45 LIG 0.13  C 
ENDROOT
BRANCH 4 8
ATOM      8  C   PRO C 176     -71.662 -10.637  20.579  1.00 63.07 LIG 0.24  C 
ATOM      9  N   PHE C 177     -71.673  -9.309  20.483  1.00 62.32 LIG-0.34  N 
ATOM     10 H    PHE C 177     -71.224  -8.789  21.002  1.00 62.32 LIG 0.16  HD
ATOM     11 O    PRO C 176     -72.371 -11.368  19.879  1.00 62.88 LIG-0.27  OA
BRANCH 9 12
ATOM     12  CA  PHE C 177     -72.463  -8.605  19.467  1.00 61.42 LIG 0.19  C 
BRANCH 12 13
ATOM     13  CB  PHE C 177     -71.743  -8.572  18.104  1.00 59.64 LIG 0.07  C 
BRANCH 13 14
ATOM     14  CG  PHE C 177     -70.685  -9.631  17.940  1.00 58.09 LIG-0.06  A 
ATOM     15  CD1 PHE C 177     -71.001 -10.878  17.402  1.00 57.17 LIG 0.01  A 
ATOM     16  CE1 PHE C 177     -70.021 -11.860  17.245  1.00 55.93 LIG 0.00  A 
ATOM     17  CZ  PHE C 177     -68.707 -11.594  17.620  1.00 55.64 LIG 0.00  A 
ATOM     18  CE2 PHE C 177     -68.377 -10.348  18.152  1.00 56.04 LIG 0.00  A 
ATOM     19  CD2 PHE C 177     -69.365  -9.375  18.306  1.00 56.91 LIG 0.01  A 
ENDBRANCH 13 14
ENDBRANCH 12 13
BRANCH 12 20
ATOM     20  C   PHE C 177     -73.871  -9.183  19.331  1.00 62.04 LIG 0.20  C 
ATOM     21 O    PHE C 177     -74.487  -9.610  20.309  1.00 62.52 LIG-0.65  OA
ATOM     22 OXT  PHE C 177     -74.431  -9.235  18.235  1.00 62.11 LIG-0.65  OA
ENDBRANCH 12 20
ENDBRANCH 9 12
ENDBRANCH 4 8
BRANCH 1 23
ATOM     23  CA  ILE C 175     -70.679  -9.475  25.027  1.00 65.77 LIG 0.18  C 
BRANCH 23 24
ATOM     24  CB  ILE C 175     -71.990  -8.676  25.255  1.00 65.27 LIG 0.01  C 
ATOM     25  CG2 ILE C 175     -72.703  -8.419  23.931  1.00 63.89 LIG 0.01  C 
BRANCH 24 26
ATOM     26  CG1 ILE C 175     -72.909  -9.425  26.231  1.00 65.41 LIG 0.00  C 
ATOM     27  CD1 ILE C 175     -72.270 -10.633  26.896  1.00 65.60 LIG 0.01  C 
ENDBRANCH 24 26
ENDBRANCH 23 24
BRANCH 23 28
ATOM     28  N   ILE C 175     -69.529  -8.791  25.622  1.00 67.68 LIG-0.34  N 
ATOM     29 H    ILE C 175     -69.680  -7.970  25.827  1.00 67.68 LIG 0.16  HD
ATOM     30  C   ASP C 174     -68.359  -9.394  25.825  1.00 68.58 LIG 0.26  C 
ATOM     31 O    ASP C 174     -68.127 -10.562  25.495  1.00 68.06 LIG-0.27  OA
BRANCH 30 32
ATOM     32  CA  ASP C 174     -67.288  -8.550  26.509  1.00 70.51 LIG 0.41  C 
ATOM     33  N   ASP C 174     -67.550  -8.447  27.977  1.00 70.88 LIG 0.61  N 
BRANCH 32 34
ATOM     34  CB  ASP C 174     -65.896  -9.140  26.245  1.00 71.81 LIG 0.16  C 
BRANCH 34 35
ATOM     35  CG  ASP C 174     -65.768 -10.580  26.717  1.00 74.09 LIG 0.17  C 
ATOM     36 OD1  ASP C 174     -65.434 -11.461  25.893  1.00 74.88 LIG-0.65  OA
ATOM     37 OD2  ASP C 174     -65.996 -10.832  27.920  1.00 75.75 LIG-0.65  OA
ENDBRANCH 34 35
ENDBRANCH 32 34
ENDBRANCH 30 32
ENDBRANCH 23 28
ENDBRANCH 1 23
TORSDOF 12
ENDMDL
MODEL 8
USER: ADFR SOLUTION from run 123
USER: SCORE 13.993477 LL:  -3.976 LR: -10.163 RR:   0.000 FEB:  -6.584
USER: RMSD 1.876858
USER: SEED 122
USER: STATUS no improvement in best in 10 clusters for 5 generations
USER: GENES 14
USER: genes 0 Translation |==|  0.54368 0.53935 0.44966
USER: genes 1 Rotation |==|  0.47939 0.54176 0.45745 0.99600
USER: genes 2 Torsion [N]-CA--C-[O] |==|  0.52664
USER: genes 3 Torsion [C]-N--CA-[CB] |==|  0.27688
USER: genes 4 Torsion [N]-CA--CB-[CG] |==|  0.08269
USER: genes 5 Torsion [CA]-CB--CG-[CD2] |==|  0.26968
USER: genes 6 Torsion [N]-CA--C-[OXT] |==|  0.43189
USER: genes 7 Torsion [N]-C--CA-[N] |==|  0.37792
USER: genes 8 Torsion [C]-CA--CB-[CG2] |==|  0.18499
USER: genes 9 Torsion [CA]-CB--CG1-[CD1] |==|  0.64752
USER: genes 10 Torsion [C]-CA--N-[C] |==|  0.69751
USER: genes 11 Torsion [N]-C--CA-[N] |==|  0.77543
USER: genes 12 Torsion [C]-CA--CB-[CG] |==|  0.22022
USER: genes 13 Torsion [CA]-CB--CG-[OD1] |==|  0.22114
ROOT
ATOM      1  C   ILE C 175     -71.341  -8.961  22.563  1.00 65.51 LIG 0.24  C 
ATOM      2 O    ILE C 175     -72.435  -8.451  22.826  1.00 66.37 LIG-0.27  OA
ATOM      3  N   PRO C 176     -70.416  -8.352  21.787  1.00 64.39 LIG-0.34  N 
ATOM      4  CA  PRO C 176     -70.583  -6.987  21.276  1.00 64.23 LIG 0.18  C 
ATOM      5  CB  PRO C 176     -69.133  -6.507  21.068  1.00 63.87 LIG 0.04  C 
ATOM      6  CG  PRO C 176     -68.239  -7.699  21.370  1.00 63.56 LIG 0.02  C 
ATOM      7  CD  PRO C 176     -69.110  -8.909  21.400  1.00 63.45 LIG 0.13  C 
ENDROOT
BRANCH 4 8
ATOM      8  C   PRO C 176     -71.382  -6.881  19.967  1.00 63.07 LIG 0.24  C 
ATOM      9  N   PHE C 177     -72.006  -7.981  19.549  1.00 62.32 LIG-0.34  N 
ATOM     10 H    PHE C 177     -71.935  -8.746  19.935  1.00 62.32 LIG 0.16  HD
ATOM     11 O    PRO C 176     -71.431  -5.807  19.359  1.00 62.88 LIG-0.27  OA
BRANCH 9 12
ATOM     12  CA  PHE C 177     -72.884  -7.983  18.373  1.00 61.42 LIG 0.19  C 
BRANCH 12 13
ATOM     13  CB  PHE C 177     -72.165  -8.530  17.124  1.00 59.64 LIG 0.07  C 
BRANCH 13 14
ATOM     14  CG  PHE C 177     -71.095  -9.547  17.423  1.00 58.09 LIG-0.06  A 
ATOM     15  CD1 PHE C 177     -69.817  -9.146  17.808  1.00 57.17 LIG 0.01  A 
ATOM     16  CE1 PHE C 177     -68.825 -10.087  18.090  1.00 55.93 LIG 0.00  A 
ATOM     17  CZ  PHE C 177     -69.111 -11.446  17.995  1.00 55.64 LIG 0.00  A 
ATOM     18  CE2 PHE C 177     -70.388 -11.860  17.617  1.00 56.04 LIG 0.00  A 
ATOM     19  CD2 PHE C 177     -71.371 -10.910  17.337  1.00 56.91 LIG 0.01  A 
ENDBRANCH 13 14
ENDBRANCH 12 13
BRANCH 12 20
ATOM     20  C   PHE C 177     -74.188  -8.736  18.630  1.00 62.04 LIG 0.20  C 
ATOM     21 O    PHE C 177     -74.265  -9.610  19.495  1.00 62.52 LIG-0.65  OA
ATOM     22 OXT  PHE C 177     -75.203  -8.485  17.979  1.00 62.11 LIG-0.65  OA
ENDBRANCH 12 20
ENDBRANCH 9 12
ENDBRANCH 4 8
BRANCH 1 23
ATOM     23  CA  ILE C 175     -70.983 -10.341  23.124  1.00 65.77 LIG 0.18  C 
BRANCH 23 24
ATOM     24  CB  ILE C 175     -71.646 -11.467  22.286  1.00 65.27 LIG 0.01  C 
ATOM     25  CG2 ILE C 175     -71.057 -11.512  20.880  1.00 63.89 LIG 0.01  C 
BRANCH 24 26
ATOM     26  CG1 ILE C 175     -71.480 -12.822  22.988  1.00 65.41 LIG 0.00  C 
ATOM     27  CD1 ILE C 175     -70.871 -13.911  22.121  1.00 65.60 LIG 0.01  C 
ENDBRANCH 24 26
ENDBRANCH 23 24
BRANCH 23 28
ATOM     28  N   ILE C 175     -71.366 -10.432  24.534  1.00 67.68 LIG-0.34  N 
ATOM     29 H    ILE C 175     -72.216 -10.469  24.663  1.00 67.68 LIG 0.16  HD
ATOM     30  C   ASP C 174     -70.474 -10.454  25.524  1.00 68.58 LIG 0.26  C 
ATOM     31 O    ASP C 174     -69.255 -10.360  25.344  1.00 68.06 LIG-0.27  OA
BRANCH 30 32
ATOM     32  CA  ASP C 174     -71.046 -10.610  26.929  1.00 70.51 LIG 0.41  C 
ATOM     33  N   ASP C 174     -71.543  -9.300  27.449  1.00 70.88 LIG 0.61  N 
BRANCH 32 34
ATOM     34  CB  ASP C 174     -72.167 -11.659  26.934  1.00 71.81 LIG 0.16  C 
BRANCH 34 35
ATOM     35  CG  ASP C 174     -71.639 -13.085  26.946  1.00 74.09 LIG 0.17  C 
ATOM     36 OD1  ASP C 174     -71.246 -13.576  28.028  1.00 74.88 LIG-0.65  OA
ATOM     37 OD2  ASP C 174     -71.621 -13.720  25.870  1.00 75.75 LIG-0.65  OA
ENDBRANCH 34 35
ENDBRANCH 32 34
ENDBRANCH 30 32
ENDBRANCH 23 28
ENDBRANCH 1 23
TORSDOF 12
ENDMDL
MODEL 9
USER: ADFR SOLUTION from run 32
USER: SCORE 13.674521 LL:  -3.604 LR: -10.110 RR:   0.000 FEB:  -6.530
USER: RMSD 3.488458
USER: SEED 31
USER: STATUS no improvement in best in 9 clusters for 5 generations
USER: GENES 14
USER: genes 0 Translation |==|  0.53307 0.38666 0.39133
USER: genes 1 Rotation |==|  0.61626 0.23545 0.83641 0.73091
USER: genes 2 Torsion [N]-CA--C-[O] |==|  0.89700
USER: genes 3 Torsion [C]-N--CA-[CB] |==|  0.19149
USER: genes 4 Torsion [N]-CA--CB-[CG] |==|  0.05998
USER: genes 5 Torsion [CA]-CB--CG-[CD2] |==|  0.63188
USER: genes 6 Torsion [N]-CA--C-[OXT] |==|  0.03349
USER: genes 7 Torsion [N]-C--CA-[N] |==|  0.89723
USER: genes 8 Torsion [C]-CA--CB-[CG2] |==|  0.75228
USER: genes 9 Torsion [CA]-CB--CG1-[CD1] |==|  0.68272
USER: genes 10 Torsion [C]-CA--N-[C] |==|  0.81941
USER: genes 11 Torsion [N]-C--CA-[N] |==|  0.89630
USER: genes 12 Torsion [C]-CA--CB-[CG] |==|  0.84296
USER: genes 13 Torsion [CA]-CB--CG-[OD1] |==|  0.91105
ROOT
ATOM      1  C   ILE C 175     -71.500 -11.480  21.338  1.00 65.51 LIG 0.24  C 
ATOM      2 O    ILE C 175     -71.221 -12.029  20.267  1.00 66.37 LIG-0.27  OA
ATOM      3  N   PRO C 176     -72.540 -10.628  21.476  1.00 64.39 LIG-0.34  N 
ATOM      4  CA  PRO C 176     -73.496 -10.360  20.396  1.00 64.23 LIG 0.18  C 
ATOM      5  CB  PRO C 176     -74.771  -9.933  21.148  1.00 63.87 LIG 0.04  C 
ATOM      6  CG  PRO C 176     -74.400  -9.876  22.622  1.00 63.56 LIG 0.02  C 
ATOM      7  CD  PRO C 176     -72.912  -9.909  22.705  1.00 63.45 LIG 0.13  C 
ENDROOT
BRANCH 4 8
ATOM      8  C   PRO C 176     -73.060  -9.269  19.404  1.00 63.07 LIG 0.24  C 
ATOM      9  N   PHE C 177     -73.380  -9.451  18.124  1.00 62.32 LIG-0.34  N 
ATOM     10 H    PHE C 177     -73.757 -10.164  17.824  1.00 62.32 LIG 0.16  HD
ATOM     11 O    PRO C 176     -72.448  -8.275  19.809  1.00 62.88 LIG-0.27  OA
BRANCH 9 12
ATOM     12  CA  PHE C 177     -73.112  -8.437  17.099  1.00 61.42 LIG 0.19  C 
BRANCH 12 13
ATOM     13  CB  PHE C 177     -71.602  -8.276  16.835  1.00 59.64 LIG 0.07  C 
BRANCH 13 14
ATOM     14  CG  PHE C 177     -70.773  -9.465  17.244  1.00 58.09 LIG-0.06  A 
ATOM     15  CD1 PHE C 177     -71.143 -10.756  16.870  1.00 57.17 LIG 0.01  A 
ATOM     16  CE1 PHE C 177     -70.374 -11.859  17.245  1.00 55.93 LIG 0.00  A 
ATOM     17  CZ  PHE C 177     -69.217 -11.674  17.996  1.00 55.64 LIG 0.00  A 
ATOM     18  CE2 PHE C 177     -68.832 -10.387  18.370  1.00 56.04 LIG 0.00  A 
ATOM     19  CD2 PHE C 177     -69.609  -9.292  17.991  1.00 56.91 LIG 0.01  A 
ENDBRANCH 13 14
ENDBRANCH 12 13
BRANCH 12 20
ATOM     20  C   PHE C 177     -73.870  -8.716  15.802  1.00 62.04 LIG 0.20  C 
ATOM     21 O    PHE C 177     -73.607  -8.110  14.762  1.00 62.52 LIG-0.65  OA
ATOM     22 OXT  PHE C 177     -74.766  -9.561  15.761  1.00 62.11 LIG-0.65  OA
ENDBRANCH 12 20
ENDBRANCH 9 12
ENDBRANCH 4 8
BRANCH 1 23
ATOM     23  CA  ILE C 175     -70.652 -11.756  22.584  1.00 65.77 LIG 0.18  C 
BRANCH 23 24
ATOM     24  CB  ILE C 175     -71.257 -12.915  23.420  1.00 65.27 LIG 0.01  C 
ATOM     25  CG2 ILE C 175     -72.263 -12.380  24.435  1.00 63.89 LIG 0.01  C 
BRANCH 24 26
ATOM     26  CG1 ILE C 175     -71.915 -13.950  22.497  1.00 65.41 LIG 0.00  C 
ATOM     27  CD1 ILE C 175     -73.423 -14.060  22.647  1.00 65.60 LIG 0.01  C 
ENDBRANCH 24 26
ENDBRANCH 23 24
BRANCH 23 28
ATOM     28  N   ILE C 175     -70.514 -10.538  23.385  1.00 67.68 LIG-0.34  N 
ATOM     29 H    ILE C 175     -70.886 -10.586  24.160  1.00 67.68 LIG 0.16  HD
ATOM     30  C   ASP C 174     -69.871  -9.456  22.948  1.00 68.58 LIG 0.26  C 
ATOM     31 O    ASP C 174     -69.371  -9.369  21.822  1.00 68.06 LIG-0.27  OA
BRANCH 30 32
ATOM     32  CA  ASP C 174     -69.773  -8.298  23.936  1.00 70.51 LIG 0.41  C 
ATOM     33  N   ASP C 174     -71.029  -8.174  24.735  1.00 70.88 LIG 0.61  N 
BRANCH 32 34
ATOM     34  CB  ASP C 174     -68.559  -8.484  24.856  1.00 71.81 LIG 0.16  C 
BRANCH 34 35
ATOM     35  CG  ASP C 174     -68.585  -9.807  25.605  1.00 74.09 LIG 0.17  C 
ATOM     36 OD1  ASP C 174     -69.690 -10.299  25.927  1.00 74.88 LIG-0.65  OA
ATOM     37 OD2  ASP C 174     -67.496 -10.360  25.870  1.00 75.75 LIG-0.65  OA
ENDBRANCH 34 35
ENDBRANCH 32 34
ENDBRANCH 30 32
ENDBRANCH 23 28
ENDBRANCH 1 23
TORSDOF 12
ENDMDL
MODEL 10
USER: ADFR SOLUTION from run 190
USER: SCORE 12.376495 LL:  -2.785 LR: -10.071 RR:   0.000 FEB:  -6.491
USER: RMSD 8.545077
USER: SEED 189
USER: STATUS no improvement in best in 11 clusters for 5 generations
USER: GENES 14
USER: genes 0 Translation |==|  0.51940 0.43185 0.32041
USER: genes 1 Rotation |==|  0.61802 0.91456 0.74849 0.54957
USER: genes 2 Torsion [N]-CA--C-[O] |==|  0.19951
USER: genes 3 Torsion [C]-N--CA-[CB] |==|  0.84315
USER: genes 4 Torsion [N]-CA--CB-[CG] |==|  0.80947
USER: genes 5 Torsion [CA]-CB--CG-[CD2] |==|  0.52587
USER: genes 6 Torsion [N]-CA--C-[OXT] |==|  0.17307
USER: genes 7 Torsion [N]-C--CA-[N] |==|  0.22473
USER: genes 8 Torsion [C]-CA--CB-[CG2] |==|  0.47732
USER: genes 9 Torsion [CA]-CB--CG1-[CD1] |==|  0.33547
USER: genes 10 Torsion [C]-CA--N-[C] |==|  0.66494
USER: genes 11 Torsion [N]-C--CA-[N] |==|  0.82343
USER: genes 12 Torsion [C]-CA--CB-[CG] |==|  0.23914
USER: genes 13 Torsion [CA]-CB--CG-[OD1] |==|  0.90060
ROOT
ATOM      1  C   ILE C 175     -71.705 -10.734  19.849  1.00 65.51 LIG 0.24  C 
ATOM      2 O    ILE C 175     -70.539 -11.121  19.974  1.00 66.37 LIG-0.27  OA
ATOM      3  N   PRO C 176     -72.483 -10.398  20.902  1.00 64.39 LIG-0.34  N 
ATOM      4  CA  PRO C 176     -71.980 -10.359  22.280  1.00 64.23 LIG 0.18  C 
ATOM      5  CB  PRO C 176     -72.916  -9.347  22.969  1.00 63.87 LIG 0.04  C 
ATOM      6  CG  PRO C 176     -73.971  -8.970  21.942  1.00 63.56 LIG 0.02  C 
ATOM      7  CD  PRO C 176     -73.888  -9.966  20.836  1.00 63.45 LIG 0.13  C 
ENDROOT
BRANCH 4 8
ATOM      8  C   PRO C 176     -72.005 -11.709  23.015  1.00 63.07 LIG 0.24  C 
ATOM      9  N   PHE C 177     -72.918 -11.859  23.973  1.00 62.32 LIG-0.34  N 
ATOM     10 H    PHE C 177     -73.443 -11.230  24.235  1.00 62.32 LIG 0.16  HD
ATOM     11 O    PRO C 176     -71.206 -12.597  22.702  1.00 62.88 LIG-0.27  OA
BRANCH 9 12
ATOM     12  CA  PHE C 177     -73.112 -13.132  24.675  1.00 61.42 LIG 0.19  C 
BRANCH 12 13
ATOM     13  CB  PHE C 177     -73.417 -14.284  23.697  1.00 59.64 LIG 0.07  C 
BRANCH 13 14
ATOM     14  CG  PHE C 177     -74.759 -14.181  23.021  1.00 58.09 LIG-0.06  A 
ATOM     15  CD1 PHE C 177     -75.522 -13.019  23.124  1.00 57.17 LIG 0.01  A 
ATOM     16  CE1 PHE C 177     -76.765 -12.919  22.495  1.00 55.93 LIG 0.00  A 
ATOM     17  CZ  PHE C 177     -77.250 -13.987  21.745  1.00 55.64 LIG 0.00  A 
ATOM     18  CE2 PHE C 177     -76.492 -15.152  21.628  1.00 56.04 LIG 0.00  A 
ATOM     19  CD2 PHE C 177     -75.252 -15.241  22.263  1.00 56.91 LIG 0.01  A 
ENDBRANCH 13 14
ENDBRANCH 12 13
BRANCH 12 20
ATOM     20  C   PHE C 177     -71.928 -13.477  25.578  1.00 62.04 LIG 0.20  C 
ATOM     21 O    PHE C 177     -71.246 -14.485  25.385  1.00 62.52 LIG-0.65  OA
ATOM     22 OXT  PHE C 177     -71.621 -12.752  26.525  1.00 62.11 LIG-0.65  OA
ENDBRANCH 12 20
ENDBRANCH 9 12
ENDBRANCH 4 8
BRANCH 1 23
ATOM     23  CA  ILE C 175     -72.329 -10.618  18.453  1.00 65.77 LIG 0.18  C 
BRANCH 23 24
ATOM     24  CB  ILE C 175     -71.621 -11.568  17.451  1.00 65.27 LIG 0.01  C 
ATOM     25  CG2 ILE C 175     -72.367 -11.601  16.120  1.00 63.89 LIG 0.01  C 
BRANCH 24 26
ATOM     26  CG1 ILE C 175     -70.162 -11.135  17.245  1.00 65.41 LIG 0.00  C 
ATOM     27  CD1 ILE C 175     -69.134 -12.193  17.607  1.00 65.60 LIG 0.01  C 
ENDBRANCH 24 26
ENDBRANCH 23 24
BRANCH 23 28
ATOM     28  N   ILE C 175     -72.286  -9.229  17.992  1.00 67.68 LIG-0.34  N 
ATOM     29 H    ILE C 175     -71.492  -8.902  17.943  1.00 67.68 LIG 0.16  HD
ATOM     30  C   ASP C 174     -73.382  -8.541  17.676  1.00 68.58 LIG 0.26  C 
ATOM     31 O    ASP C 174     -74.526  -8.994  17.783  1.00 68.06 LIG-0.27  OA
BRANCH 30 32
ATOM     32  CA  ASP C 174     -73.150  -7.126  17.157  1.00 70.51 LIG 0.41  C 
ATOM     33  N   ASP C 174     -72.516  -6.272  18.208  1.00 70.88 LIG 0.61  N 
BRANCH 32 34
ATOM     34  CB  ASP C 174     -72.286  -7.159  15.889  1.00 71.81 LIG 0.16  C 
BRANCH 34 35
ATOM     35  CG  ASP C 174     -73.105  -7.364  14.624  1.00 74.09 LIG 0.17  C 
ATOM     36 OD1  ASP C 174     -74.109  -8.110  14.667  1.00 74.88 LIG-0.65  OA
ATOM     37 OD2  ASP C 174     -72.746  -6.774  13.583  1.00 75.75 LIG-0.65  OA
ENDBRANCH 34 35
ENDBRANCH 32 34
ENDBRANCH 30 32
ENDBRANCH 23 28
ENDBRANCH 1 23
TORSDOF 12
ENDMDL
MODEL 11
USER: ADFR SOLUTION from run 73
USER: SCORE 13.328249 LL:  -3.857 LR:  -9.984 RR:   0.000 FEB:  -6.404
USER: RMSD 3.178453
USER: SEED 72
USER: STATUS no improvement in best in 9 clusters for 5 generations
USER: GENES 14
USER: genes 0 Translation |==|  0.44034 0.49326 0.37058
USER: genes 1 Rotation |==|  0.50890 0.43947 0.71672 0.94642
USER: genes 2 Torsion [N]-CA--C-[O] |==|  0.33600
USER: genes 3 Torsion [C]-N--CA-[CB] |==|  0.82636
USER: genes 4 Torsion [N]-CA--CB-[CG] |==|  0.85923
USER: genes 5 Torsion [CA]-CB--CG-[CD2] |==|  0.46245
USER: genes 6 Torsion [N]-CA--C-[OXT] |==|  0.00532
USER: genes 7 Torsion [N]-C--CA-[N] |==|  0.17147
USER: genes 8 Torsion [C]-CA--CB-[CG2] |==|  0.29168
USER: genes 9 Torsion [CA]-CB--CG1-[CD1] |==|  0.56870
USER: genes 10 Torsion [C]-CA--N-[C] |==|  0.65000
USER: genes 11 Torsion [N]-C--CA-[N] |==|  0.04297
USER: genes 12 Torsion [C]-CA--CB-[CG] |==|  0.81432
USER: genes 13 Torsion [CA]-CB--CG-[OD1] |==|  0.46754
ROOT
ATOM      1  C   ILE C 175     -72.891  -9.721  20.902  1.00 65.51 LIG 0.24  C 
ATOM      2 O    ILE C 175     -73.854 -10.469  20.705  1.00 66.37 LIG-0.27  OA
ATOM      3  N   PRO C 176     -72.874  -8.428  20.510  1.00 64.39 LIG-0.34  N 
ATOM      4  CA  PRO C 176     -74.037  -7.765  19.910  1.00 64.23 LIG 0.18  C 
ATOM      5  CB  PRO C 176     -73.811  -6.278  20.247  1.00 63.87 LIG 0.04  C 
ATOM      6  CG  PRO C 176     -72.451  -6.194  20.922  1.00 63.56 LIG 0.02  C 
ATOM      7  CD  PRO C 176     -71.753  -7.488  20.675  1.00 63.45 LIG 0.13  C 
ENDROOT
BRANCH 4 8
ATOM      8  C   PRO C 176     -74.180  -7.961  18.392  1.00 63.07 LIG 0.24  C 
ATOM      9  N   PHE C 177     -73.168  -7.551  17.630  1.00 62.32 LIG-0.34  N 
ATOM     10 H    PHE C 177     -72.479  -7.135  17.936  1.00 62.32 LIG 0.16  HD
ATOM     11 O    PRO C 176     -75.199  -8.487  17.931  1.00 62.88 LIG-0.27  OA
BRANCH 9 12
ATOM     12  CA  PHE C 177     -73.138  -7.775  16.181  1.00 61.42 LIG 0.19  C 
BRANCH 12 13
ATOM     13  CB  PHE C 177     -73.124  -9.278  15.835  1.00 59.64 LIG 0.07  C 
BRANCH 13 14
ATOM     14  CG  PHE C 177     -72.071 -10.069  16.566  1.00 58.09 LIG-0.06  A 
ATOM     15  CD1 PHE C 177     -71.047  -9.425  17.260  1.00 57.17 LIG 0.01  A 
ATOM     16  CE1 PHE C 177     -70.073 -10.157  17.941  1.00 55.93 LIG 0.00  A 
ATOM     17  CZ  PHE C 177     -70.122 -11.548  17.938  1.00 55.64 LIG 0.00  A 
ATOM     18  CE2 PHE C 177     -71.145 -12.203  17.254  1.00 56.04 LIG 0.00  A 
ATOM     19  CD2 PHE C 177     -72.113 -11.462  16.576  1.00 56.91 LIG 0.01  A 
ENDBRANCH 13 14
ENDBRANCH 12 13
BRANCH 12 20
ATOM     20  C   PHE C 177     -74.282  -7.058  15.464  1.00 62.04 LIG 0.20  C 
ATOM     21 O    PHE C 177     -74.441  -7.161  14.247  1.00 62.52 LIG-0.65  OA
ATOM     22 OXT  PHE C 177     -75.079  -6.356  16.088  1.00 62.11 LIG-0.65  OA
ENDBRANCH 12 20
ENDBRANCH 9 12
ENDBRANCH 4 8
BRANCH 1 23
ATOM     23  CA  ILE C 175     -71.645 -10.250  21.622  1.00 65.77 LIG 0.18  C 
BRANCH 23 24
ATOM     24  CB  ILE C 175     -71.763 -11.775  21.883  1.00 65.27 LIG 0.01  C 
ATOM     25  CG2 ILE C 175     -70.877 -12.558  20.918  1.00 63.89 LIG 0.01  C 
BRANCH 24 26
ATOM     26  CG1 ILE C 175     -71.398 -12.097  23.339  1.00 65.41 LIG 0.00  C 
ATOM     27  CD1 ILE C 175     -70.908 -13.516  23.567  1.00 65.60 LIG 0.01  C 
ENDBRANCH 24 26
ENDBRANCH 23 24
BRANCH 23 28
ATOM     28  N   ILE C 175     -71.426  -9.512  22.867  1.00 67.68 LIG-0.34  N 
ATOM     29 H    ILE C 175     -72.108  -9.502  23.391  1.00 67.68 LIG 0.16  HD
ATOM     30  C   ASP C 174     -70.272  -8.914  23.157  1.00 68.58 LIG 0.26  C 
ATOM     31 O    ASP C 174     -69.304  -8.892  22.389  1.00 68.06 LIG-0.27  OA
BRANCH 30 32
ATOM     32  CA  ASP C 174     -70.198  -8.240  24.523  1.00 70.51 LIG 0.41  C 
ATOM     33  N   ASP C 174     -71.310  -8.707  25.406  1.00 70.88 LIG 0.61  N 
BRANCH 32 34
ATOM     34  CB  ASP C 174     -68.836  -8.508  25.177  1.00 71.81 LIG 0.16  C 
BRANCH 34 35
ATOM     35  CG  ASP C 174     -68.634  -9.972  25.538  1.00 74.09 LIG 0.17  C 
ATOM     36 OD1  ASP C 174     -67.492 -10.362  25.870  1.00 74.88 LIG-0.65  OA
ATOM     37 OD2  ASP C 174     -69.623 -10.735  25.494  1.00 75.75 LIG-0.65  OA
ENDBRANCH 34 35
ENDBRANCH 32 34
ENDBRANCH 30 32
ENDBRANCH 23 28
ENDBRANCH 1 23
TORSDOF 12
ENDMDL
MODEL 12
USER: ADFR SOLUTION from run 21
USER: SCORE 14.103540 LL:  -4.329 LR:  -9.980 RR:   0.000 FEB:  -6.400
USER: RMSD 2.534927
USER: SEED 20
USER: STATUS no improvement in best in 15 clusters for 5 generations
USER: GENES 14
USER: genes 0 Translation |==|  0.58483 0.60251 0.42875
USER: genes 1 Rotation |==|  0.45657 0.52701 0.56954 0.99249
USER: genes 2 Torsion [N]-CA--C-[O] |==|  0.63151
USER: genes 3 Torsion [C]-N--CA-[CB] |==|  0.21270
USER: genes 4 Torsion [N]-CA--CB-[CG] |==|  0.13102
USER: genes 5 Torsion [CA]-CB--CG-[CD2] |==|  0.76380
USER: genes 6 Torsion [N]-CA--C-[OXT] |==|  0.37723
USER: genes 7 Torsion [N]-C--CA-[N] |==|  0.27958
USER: genes 8 Torsion [C]-CA--CB-[CG2] |==|  0.78448
USER: genes 9 Torsion [CA]-CB--CG1-[CD1] |==|  0.47014
USER: genes 10 Torsion [C]-CA--N-[C] |==|  0.76667
USER: genes 11 Torsion [N]-C--CA-[N] |==|  0.91153
USER: genes 12 Torsion [C]-CA--CB-[CG] |==|  0.85680
USER: genes 13 Torsion [CA]-CB--CG-[OD1] |==|  0.38609
ROOT
ATOM      1  C   ILE C 175     -70.724  -7.919  22.124  1.00 65.51 LIG 0.24  C 
ATOM      2 O    ILE C 175     -71.940  -7.933  22.335  1.00 66.37 LIG-0.27  OA
ATOM      3  N   PRO C 176     -70.128  -7.003  21.327  1.00 64.39 LIG-0.34  N 
ATOM      4  CA  PRO C 176     -70.857  -5.880  20.726  1.00 64.23 LIG 0.18  C 
ATOM      5  CB  PRO C 176     -69.760  -4.819  20.512  1.00 63.87 LIG 0.04  C 
ATOM      6  CG  PRO C 176     -68.446  -5.476  20.905  1.00 63.56 LIG 0.02  C 
ATOM      7  CD  PRO C 176     -68.695  -6.943  20.998  1.00 63.45 LIG 0.13  C 
ENDROOT
BRANCH 4 8
ATOM      8  C   PRO C 176     -71.564  -6.205  19.400  1.00 63.07 LIG 0.24  C 
ATOM      9  N   PHE C 177     -72.297  -7.316  19.361  1.00 62.32 LIG-0.34  N 
ATOM     10 H    PHE C 177     -72.345  -7.879  20.010  1.00 62.32 LIG 0.16  HD
ATOM     11 O    PRO C 176     -71.443  -5.445  18.434  1.00 62.88 LIG-0.27  OA
BRANCH 9 12
ATOM     12  CA  PHE C 177     -73.102  -7.681  18.190  1.00 61.42 LIG 0.19  C 
BRANCH 12 13
ATOM     13  CB  PHE C 177     -72.230  -8.245  17.051  1.00 59.64 LIG 0.07  C 
BRANCH 13 14
ATOM     14  CG  PHE C 177     -71.235  -9.286  17.492  1.00 58.09 LIG-0.06  A 
ATOM     15  CD1 PHE C 177     -71.532 -10.645  17.391  1.00 57.17 LIG 0.01  A 
ATOM     16  CE1 PHE C 177     -70.610 -11.612  17.795  1.00 55.93 LIG 0.00  A 
ATOM     17  CZ  PHE C 177     -69.372 -11.222  18.300  1.00 55.64 LIG 0.00  A 
ATOM     18  CE2 PHE C 177     -69.061  -9.866  18.399  1.00 56.04 LIG 0.00  A 
ATOM     19  CD2 PHE C 177     -69.991  -8.908  17.993  1.00 56.91 LIG 0.01  A 
ENDBRANCH 13 14
ENDBRANCH 12 13
BRANCH 12 20
ATOM     20  C   PHE C 177     -74.232  -8.647  18.547  1.00 62.04 LIG 0.20  C 
ATOM     21 O    PHE C 177     -74.041  -9.610  19.291  1.00 62.52 LIG-0.65  OA
ATOM     22 OXT  PHE C 177     -75.368  -8.486  18.100  1.00 62.11 LIG-0.65  OA
ENDBRANCH 12 20
ENDBRANCH 9 12
ENDBRANCH 4 8
BRANCH 1 23
ATOM     23  CA  ILE C 175     -69.819  -8.968  22.779  1.00 65.77 LIG 0.18  C 
BRANCH 23 24
ATOM     24  CB  ILE C 175     -70.449 -10.383  22.675  1.00 65.27 LIG 0.01  C 
ATOM     25  CG2 ILE C 175     -71.559 -10.557  23.708  1.00 63.89 LIG 0.01  C 
BRANCH 24 26
ATOM     26  CG1 ILE C 175     -70.984 -10.626  21.257  1.00 65.41 LIG 0.00  C 
ATOM     27  CD1 ILE C 175     -71.388 -12.062  20.972  1.00 65.60 LIG 0.01  C 
ENDBRANCH 24 26
ENDBRANCH 23 24
BRANCH 23 28
ATOM     28  N   ILE C 175     -69.547  -8.608  24.172  1.00 67.68 LIG-0.34  N 
ATOM     29 H    ILE C 175     -70.068  -8.992  24.739  1.00 67.68 LIG 0.16  HD
ATOM     30  C   ASP C 174     -68.580  -7.761  24.522  1.00 68.58 LIG 0.26  C 
ATOM     31 O    ASP C 174     -67.858  -7.177  23.707  1.00 68.06 LIG-0.27  OA
BRANCH 30 32
ATOM     32  CA  ASP C 174     -68.399  -7.545  26.020  1.00 70.51 LIG 0.41  C 
ATOM     33  N   ASP C 174     -69.705  -7.666  26.736  1.00 70.88 LIG 0.61  N 
BRANCH 32 34
ATOM     34  CB  ASP C 174     -67.375  -8.541  26.582  1.00 71.81 LIG 0.16  C 
BRANCH 34 35
ATOM     35  CG  ASP C 174     -67.686  -9.980  26.204  1.00 74.09 LIG 0.17  C 
ATOM     36 OD1  ASP C 174     -66.745 -10.736  25.872  1.00 74.88 LIG-0.65  OA
ATOM     37 OD2  ASP C 174     -68.876 -10.360  26.242  1.00 75.75 LIG-0.65  OA
ENDBRANCH 34 35
ENDBRANCH 32 34
ENDBRANCH 30 32
ENDBRANCH 23 28
ENDBRANCH 1 23
TORSDOF 12
ENDMDL
MODEL 13
USER: ADFR SOLUTION from run 10
USER: SCORE 13.277623 LL:  -3.641 LR:  -9.961 RR:   0.000 FEB:  -6.381
USER: RMSD 3.877054
USER: SEED 628904
USER: STATUS no improvement in best in 20 clusters for 5 generations
USER: GENES 14
USER: genes 0 Translation |==|  0.57148 0.64906 0.33227
USER: genes 1 Rotation |==|  0.39006 0.50380 0.67984 0.95339
USER: genes 2 Torsion [N]-CA--C-[O] |==|  0.66708
USER: genes 3 Torsion [C]-N--CA-[CB] |==|  0.48855
USER: genes 4 Torsion [N]-CA--CB-[CG] |==|  0.82093
USER: genes 5 Torsion [CA]-CB--CG-[CD2] |==|  0.79599
USER: genes 6 Torsion [N]-CA--C-[OXT] |==|  0.28019
USER: genes 7 Torsion [N]-C--CA-[N] |==|  0.39752
USER: genes 8 Torsion [C]-CA--CB-[CG2] |==|  0.72631
USER: genes 9 Torsion [CA]-CB--CG1-[CD1] |==|  0.42360
USER: genes 10 Torsion [C]-CA--N-[C] |==|  0.55000
USER: genes 11 Torsion [N]-C--CA-[N] |==|  0.08619
USER: genes 12 Torsion [C]-CA--CB-[CG] |==|  0.78874
USER: genes 13 Torsion [CA]-CB--CG-[OD1] |==|  0.42650
ROOT
ATOM      1  C   ILE C 175     -70.924  -7.151  20.098  1.00 65.51 LIG 0.24  C 
ATOM      2 O    ILE C 175     -72.019  -7.691  20.280  1.00 66.37 LIG-0.27  OA
ATOM      3  N   PRO C 176     -70.704  -6.254  19.110  1.00 64.39 LIG-0.34  N 
ATOM      4  CA  PRO C 176     -71.772  -5.761  18.233  1.00 64.23 LIG 0.18  C 
ATOM      5  CB  PRO C 176     -71.253  -4.381  17.785  1.00 63.87 LIG 0.04  C 
ATOM      6  CG  PRO C 176     -69.852  -4.242  18.358  1.00 63.56 LIG 0.02  C 
ATOM      7  CD  PRO C 176     -69.422  -5.597  18.808  1.00 63.45 LIG 0.13  C 
ENDROOT
BRANCH 4 8
ATOM      8  C   PRO C 176     -72.068  -6.651  17.015  1.00 63.07 LIG 0.24  C 
ATOM      9  N   PHE C 177     -72.466  -7.898  17.259  1.00 62.32 LIG-0.34  N 
ATOM     10 H    PHE C 177     -72.506  -8.240  18.048  1.00 62.32 LIG 0.16  HD
ATOM     11 O    PRO C 176     -71.941  -6.197  15.873  1.00 62.88 LIG-0.27  OA
BRANCH 9 12
ATOM     12  CA  PHE C 177     -72.878  -8.812  16.188  1.00 61.42 LIG 0.19  C 
BRANCH 12 13
ATOM     13  CB  PHE C 177     -73.193 -10.221  16.728  1.00 59.64 LIG 0.07  C 
BRANCH 13 14
ATOM     14  CG  PHE C 177     -72.006 -10.935  17.319  1.00 58.09 LIG-0.06  A 
ATOM     15  CD1 PHE C 177     -71.893 -11.110  18.698  1.00 57.17 LIG 0.01  A 
ATOM     16  CE1 PHE C 177     -70.795 -11.775  19.248  1.00 55.93 LIG 0.00  A 
ATOM     17  CZ  PHE C 177     -69.801 -12.279  18.415  1.00 55.64 LIG 0.00  A 
ATOM     18  CE2 PHE C 177     -69.907 -12.117  17.034  1.00 56.04 LIG 0.00  A 
ATOM     19  CD2 PHE C 177     -71.007 -11.449  16.495  1.00 56.91 LIG 0.01  A 
ENDBRANCH 13 14
ENDBRANCH 12 13
BRANCH 12 20
ATOM     20  C   PHE C 177     -74.051  -8.258  15.380  1.00 62.04 LIG 0.20  C 
ATOM     21 O    PHE C 177     -75.207  -8.320  15.802  1.00 62.52 LIG-0.65  OA
ATOM     22 OXT  PHE C 177     -73.871  -7.730  14.281  1.00 62.11 LIG-0.65  OA
ENDBRANCH 12 20
ENDBRANCH 9 12
ENDBRANCH 4 8
BRANCH 1 23
ATOM     23  CA  ILE C 175     -69.741  -7.487  21.013  1.00 65.77 LIG 0.18  C 
BRANCH 23 24
ATOM     24  CB  ILE C 175     -68.977  -8.733  20.493  1.00 65.27 LIG 0.01  C 
ATOM     25  CG2 ILE C 175     -69.411  -9.986  21.247  1.00 63.89 LIG 0.01  C 
BRANCH 24 26
ATOM     26  CG1 ILE C 175     -69.198  -8.903  18.984  1.00 65.41 LIG 0.00  C 
ATOM     27  CD1 ILE C 175     -68.068  -9.610  18.256  1.00 65.60 LIG 0.01  C 
ENDBRANCH 24 26
ENDBRANCH 23 24
BRANCH 23 28
ATOM     28  N   ILE C 175     -70.203  -7.681  22.389  1.00 67.68 LIG-0.34  N 
ATOM     29 H    ILE C 175     -71.048  -7.826  22.456  1.00 67.68 LIG 0.16  HD
ATOM     30  C   ASP C 174     -69.382  -7.637  23.437  1.00 68.58 LIG 0.26  C 
ATOM     31 O    ASP C 174     -68.175  -7.389  23.348  1.00 68.06 LIG-0.27  OA
BRANCH 30 32
ATOM     32  CA  ASP C 174     -70.022  -7.919  24.793  1.00 70.51 LIG 0.41  C 
ATOM     33  N   ASP C 174     -71.165  -8.871  24.652  1.00 70.88 LIG 0.61  N 
BRANCH 32 34
ATOM     34  CB  ASP C 174     -68.974  -8.468  25.772  1.00 71.81 LIG 0.16  C 
BRANCH 34 35
ATOM     35  CG  ASP C 174     -68.626  -9.924  25.505  1.00 74.09 LIG 0.17  C 
ATOM     36 OD1  ASP C 174     -67.500 -10.350  25.847  1.00 74.88 LIG-0.65  OA
ATOM     37 OD2  ASP C 174     -69.484 -10.648  24.956  1.00 75.75 LIG-0.65  OA
ENDBRANCH 34 35
ENDBRANCH 32 34
ENDBRANCH 30 32
ENDBRANCH 23 28
ENDBRANCH 1 23
TORSDOF 12
ENDMDL
MODEL 14
USER: ADFR SOLUTION from run 71
USER: SCORE 12.994616 LL:  -3.496 LR:  -9.941 RR:   0.000 FEB:  -6.361
USER: RMSD 7.877747
USER: SEED 70
USER: STATUS no improvement in best in 25 clusters for 5 generations
USER: GENES 14
USER: genes 0 Translation |==|  0.62409 0.49375 0.35283
USER: genes 1 Rotation |==|  0.76961 0.89685 0.52561 0.63844
USER: genes 2 Torsion [N]-CA--C-[O] |==|  0.66094
USER: genes 3 Torsion [C]-N--CA-[CB] |==|  0.40590
USER: genes 4 Torsion [N]-CA--CB-[CG] |==|  0.06279
USER: genes 5 Torsion [CA]-CB--CG-[CD2] |==|  0.26271
USER: genes 6 Torsion [N]-CA--C-[OXT] |==|  0.98149
USER: genes 7 Torsion [N]-C--CA-[N] |==|  0.10797
USER: genes 8 Torsion [C]-CA--CB-[CG2] |==|  0.52215
USER: genes 9 Torsion [CA]-CB--CG1-[CD1] |==|  0.60347
USER: genes 10 Torsion [C]-CA--N-[C] |==|  0.61355
USER: genes 11 Torsion [N]-C--CA-[N] |==|  0.15134
USER: genes 12 Torsion [C]-CA--CB-[CG] |==|  0.71620
USER: genes 13 Torsion [CA]-CB--CG-[OD1] |==|  0.31411
ROOT
ATOM      1  C   ILE C 175     -70.135  -9.713  20.529  1.00 65.51 LIG 0.24  C 
ATOM      2 O    ILE C 175     -69.520 -10.669  21.014  1.00 66.37 LIG-0.27  OA
ATOM      3  N   PRO C 176     -69.974  -8.442  20.962  1.00 64.39 LIG-0.34  N 
ATOM      4  CA  PRO C 176     -68.979  -8.068  21.973  1.00 64.23 LIG 0.18  C 
ATOM      5  CB  PRO C 176     -68.699  -6.585  21.661  1.00 63.87 LIG 0.04  C 
ATOM      6  CG  PRO C 176     -69.662  -6.190  20.553  1.00 63.56 LIG 0.02  C 
ATOM      7  CD  PRO C 176     -70.695  -7.261  20.463  1.00 63.45 LIG 0.13  C 
ENDROOT
BRANCH 4 8
ATOM      8  C   PRO C 176     -69.441  -8.238  23.429  1.00 63.07 LIG 0.24  C 
ATOM      9  N   PHE C 177     -69.821  -9.459  23.804  1.00 62.32 LIG-0.34  N 
ATOM     10 H    PHE C 177     -69.876 -10.128  23.266  1.00 62.32 LIG 0.16  HD
ATOM     11 O    PRO C 176     -69.441  -7.269  24.194  1.00 62.88 LIG-0.27  OA
BRANCH 9 12
ATOM     12  CA  PHE C 177     -70.184  -9.773  25.190  1.00 61.42 LIG 0.19  C 
BRANCH 12 13
ATOM     13  CB  PHE C 177     -71.301 -10.833  25.262  1.00 59.64 LIG 0.07  C 
BRANCH 13 14
ATOM     14  CG  PHE C 177     -71.413 -11.696  24.033  1.00 58.09 LIG-0.06  A 
ATOM     15  CD1 PHE C 177     -72.149 -11.271  22.927  1.00 57.17 LIG 0.01  A 
ATOM     16  CE1 PHE C 177     -72.251 -12.068  21.785  1.00 55.93 LIG 0.00  A 
ATOM     17  CZ  PHE C 177     -71.606 -13.301  21.740  1.00 55.64 LIG 0.00  A 
ATOM     18  CE2 PHE C 177     -70.861 -13.733  22.837  1.00 56.04 LIG 0.00  A 
ATOM     19  CD2 PHE C 177     -70.767 -12.929  23.973  1.00 56.91 LIG 0.01  A 
ENDBRANCH 13 14
ENDBRANCH 12 13
BRANCH 12 20
ATOM     20  C   PHE C 177     -68.973 -10.194  26.021  1.00 62.04 LIG 0.20  C 
ATOM     21 O    PHE C 177     -69.061 -10.381  27.235  1.00 62.52 LIG-0.65  OA
ATOM     22 OXT  PHE C 177     -67.871 -10.360  25.495  1.00 62.11 LIG-0.65  OA
ENDBRANCH 12 20
ENDBRANCH 9 12
ENDBRANCH 4 8
BRANCH 1 23
ATOM     23  CA  ILE C 175     -71.129  -9.942  19.386  1.00 65.77 LIG 0.18  C 
BRANCH 23 24
ATOM     24  CB  ILE C 175     -70.894 -11.322  18.716  1.00 65.27 LIG 0.01  C 
ATOM     25  CG2 ILE C 175     -71.748 -11.466  17.460  1.00 63.89 LIG 0.01  C 
BRANCH 24 26
ATOM     26  CG1 ILE C 175     -69.406 -11.508  18.386  1.00 65.41 LIG 0.00  C 
ATOM     27  CD1 ILE C 175     -69.137 -12.235  17.080  1.00 65.60 LIG 0.01  C 
ENDBRANCH 24 26
ENDBRANCH 23 24
BRANCH 23 28
ATOM     28  N   ILE C 175     -71.039  -8.855  18.409  1.00 67.68 LIG-0.34  N 
ATOM     29 H    ILE C 175     -70.234  -8.601  18.243  1.00 67.68 LIG 0.16  HD
ATOM     30  C   ASP C 174     -72.111  -8.313  17.833  1.00 68.58 LIG 0.26  C 
ATOM     31 O    ASP C 174     -73.270  -8.648  18.099  1.00 68.06 LIG-0.27  OA
BRANCH 30 32
ATOM     32  CA  ASP C 174     -71.831  -7.231  16.795  1.00 70.51 LIG 0.41  C 
ATOM     33  N   ASP C 174     -70.898  -7.734  15.742  1.00 70.88 LIG 0.61  N 
BRANCH 32 34
ATOM     34  CB  ASP C 174     -73.143  -6.740  16.170  1.00 71.81 LIG 0.16  C 
BRANCH 34 35
ATOM     35  CG  ASP C 174     -73.391  -7.323  14.787  1.00 74.09 LIG 0.17  C 
ATOM     36 OD1  ASP C 174     -74.347  -8.114  14.625  1.00 74.88 LIG-0.65  OA
ATOM     37 OD2  ASP C 174     -72.629  -6.985  13.856  1.00 75.75 LIG-0.65  OA
ENDBRANCH 34 35
ENDBRANCH 32 34
ENDBRANCH 30 32
ENDBRANCH 23 28
ENDBRANCH 1 23
TORSDOF 12
ENDMDL
MODEL 15
USER: ADFR SOLUTION from run 51
USER: SCORE 13.026359 LL:  -4.244 LR:  -9.836 RR:   0.000 FEB:  -6.257
USER: RMSD 4.237734
USER: SEED 50
USER: STATUS no improvement in best in 15 clusters for 5 generations
USER: GENES 14
USER: genes 0 Translation |==|  0.42359 0.47802 0.37189
USER: genes 1 Rotation |==|  0.58432 0.31299 0.84490 0.79827
USER: genes 2 Torsion [N]-CA--C-[O] |==|  0.56659
USER: genes 3 Torsion [C]-N--CA-[CB] |==|  0.49970
USER: genes 4 Torsion [N]-CA--CB-[CG] |==|  0.12099
USER: genes 5 Torsion [CA]-CB--CG-[CD2] |==|  0.62090
USER: genes 6 Torsion [N]-CA--C-[OXT] |==|  0.95561
USER: genes 7 Torsion [N]-C--CA-[N] |==|  0.37463
USER: genes 8 Torsion [C]-CA--CB-[CG2] |==|  0.12716
USER: genes 9 Torsion [CA]-CB--CG1-[CD1] |==|  0.63588
USER: genes 10 Torsion [C]-CA--N-[C] |==|  0.19051
USER: genes 11 Torsion [N]-C--CA-[N] |==|  0.69618
USER: genes 12 Torsion [C]-CA--CB-[CG] |==|  0.68441
USER: genes 13 Torsion [CA]-CB--CG-[OD1] |==|  0.82493
ROOT
ATOM      1  C   ILE C 175     -73.142  -9.973  20.930  1.00 65.51 LIG 0.24  C 
ATOM      2 O    ILE C 175     -73.171 -10.882  20.094  1.00 66.37 LIG-0.27  OA
ATOM      3  N   PRO C 176     -74.014  -8.940  20.920  1.00 64.39 LIG-0.34  N 
ATOM      4  CA  PRO C 176     -75.140  -8.860  19.982  1.00 64.23 LIG 0.18  C 
ATOM      5  CB  PRO C 176     -76.160  -7.977  20.726  1.00 63.87 LIG 0.04  C 
ATOM      6  CG  PRO C 176     -75.476  -7.516  22.004  1.00 63.56 LIG 0.02  C 
ATOM      7  CD  PRO C 176     -74.021  -7.804  21.855  1.00 63.45 LIG 0.13  C 
ENDROOT
BRANCH 4 8
ATOM      8  C   PRO C 176     -74.796  -8.255  18.611  1.00 63.07 LIG 0.24  C 
ATOM      9  N   PHE C 177     -73.526  -8.330  18.218  1.00 62.32 LIG-0.34  N 
ATOM     10 H    PHE C 177     -72.892  -8.640  18.709  1.00 62.32 LIG 0.16  HD
ATOM     11 O    PRO C 176     -75.683  -7.735  17.926  1.00 62.88 LIG-0.27  OA
BRANCH 9 12
ATOM     12  CA  PHE C 177     -73.091  -7.883  16.890  1.00 61.42 LIG 0.19  C 
BRANCH 12 13
ATOM     13  CB  PHE C 177     -71.575  -8.076  16.690  1.00 59.64 LIG 0.07  C 
BRANCH 13 14
ATOM     14  CG  PHE C 177     -71.050  -9.399  17.185  1.00 58.09 LIG-0.06  A 
ATOM     15  CD1 PHE C 177     -71.733 -10.583  16.915  1.00 57.17 LIG 0.01  A 
ATOM     16  CE1 PHE C 177     -71.247 -11.811  17.369  1.00 55.93 LIG 0.00  A 
ATOM     17  CZ  PHE C 177     -70.061 -11.860  18.096  1.00 55.64 LIG 0.00  A 
ATOM     18  CE2 PHE C 177     -69.364 -10.682  18.367  1.00 56.04 LIG 0.00  A 
ATOM     19  CD2 PHE C 177     -69.861  -9.461  17.908  1.00 56.91 LIG 0.01  A 
ENDBRANCH 13 14
ENDBRANCH 12 13
BRANCH 12 20
ATOM     20  C   PHE C 177     -73.883  -8.554  15.769  1.00 62.04 LIG 0.20  C 
ATOM     21 O    PHE C 177     -73.871  -8.110  14.620  1.00 62.52 LIG-0.65  OA
ATOM     22 OXT  PHE C 177     -74.555  -9.564  15.985  1.00 62.11 LIG-0.65  OA
ENDBRANCH 12 20
ENDBRANCH 9 12
ENDBRANCH 4 8
BRANCH 1 23
ATOM     23  CA  ILE C 175     -72.086  -9.985  22.040  1.00 65.77 LIG 0.18  C 
BRANCH 23 24
ATOM     24  CB  ILE C 175     -70.714  -9.495  21.504  1.00 65.27 LIG 0.01  C 
ATOM     25  CG2 ILE C 175     -70.884  -8.235  20.661  1.00 63.89 LIG 0.01  C 
BRANCH 24 26
ATOM     26  CG1 ILE C 175     -69.746  -9.244  22.668  1.00 65.41 LIG 0.00  C 
ATOM     27  CD1 ILE C 175     -69.033  -7.903  22.617  1.00 65.60 LIG 0.01  C 
ENDBRANCH 24 26
ENDBRANCH 23 24
BRANCH 23 28
ATOM     28  N   ILE C 175     -71.981 -11.323  22.627  1.00 67.68 LIG-0.34  N 
ATOM     29 H    ILE C 175     -72.267 -11.371  23.437  1.00 67.68 LIG 0.16  HD
ATOM     30  C   ASP C 174     -71.486 -12.365  21.961  1.00 68.58 LIG 0.26  C 
ATOM     31 O    ASP C 174     -71.037 -12.289  20.812  1.00 68.06 LIG-0.27  OA
BRANCH 30 32
ATOM     32  CA  ASP C 174     -71.505 -13.696  22.704  1.00 70.51 LIG 0.41  C 
ATOM     33  N   ASP C 174     -70.121 -14.112  23.085  1.00 70.88 LIG 0.61  N 
BRANCH 32 34
ATOM     34  CB  ASP C 174     -72.405 -13.601  23.944  1.00 71.81 LIG 0.16  C 
BRANCH 34 35
ATOM     35  CG  ASP C 174     -71.628 -13.723  25.246  1.00 74.09 LIG 0.17  C 
ATOM     36 OD1  ASP C 174     -71.021 -14.789  25.492  1.00 74.88 LIG-0.65  OA
ATOM     37 OD2  ASP C 174     -71.621 -12.746  26.025  1.00 75.75 LIG-0.65  OA
ENDBRANCH 34 35
ENDBRANCH 32 34
ENDBRANCH 30 32
ENDBRANCH 23 28
ENDBRANCH 1 23
TORSDOF 12
ENDMDL
MODEL 16
USER: ADFR SOLUTION from run 94
USER: SCORE 12.711627 LL:  -3.334 LR:  -9.821 RR:   0.000 FEB:  -6.242
USER: RMSD 4.271535
USER: SEED 93
USER: STATUS no improvement in best in 11 clusters for 5 generations
USER: GENES 14
USER: genes 0 Translation |==|  0.48989 0.48838 0.31664
USER: genes 1 Rotation |==|  0.65296 0.41203 0.79724 0.86127
USER: genes 2 Torsion [N]-CA--C-[O] |==|  0.44878
USER: genes 3 Torsion [C]-N--CA-[CB] |==|  0.43968
USER: genes 4 Torsion [N]-CA--CB-[CG] |==|  0.03384
USER: genes 5 Torsion [CA]-CB--CG-[CD2] |==|  0.17055
USER: genes 6 Torsion [N]-CA--C-[OXT] |==|  0.08793
USER: genes 7 Torsion [N]-C--CA-[N] |==|  0.13662
USER: genes 8 Torsion [C]-CA--CB-[CG2] |==|  0.83020
USER: genes 9 Torsion [CA]-CB--CG1-[CD1] |==|  0.28934
USER: genes 10 Torsion [C]-CA--N-[C] |==|  0.62068
USER: genes 11 Torsion [N]-C--CA-[N] |==|  0.75851
USER: genes 12 Torsion [C]-CA--CB-[CG] |==|  0.40738
USER: genes 13 Torsion [CA]-CB--CG-[OD1] |==|  0.29222
ROOT
ATOM      1  C   ILE C 175     -72.148  -9.802  19.769  1.00 65.51 LIG 0.24  C 
ATOM      2 O    ILE C 175     -72.700 -10.735  19.179  1.00 66.37 LIG-0.27  OA
ATOM      3  N   PRO C 176     -72.792  -8.662  20.105  1.00 64.39 LIG-0.34  N 
ATOM      4  CA  PRO C 176     -74.232  -8.472  19.894  1.00 64.23 LIG 0.18  C 
ATOM      5  CB  PRO C 176     -74.611  -7.427  20.961  1.00 63.87 LIG 0.04  C 
ATOM      6  CG  PRO C 176     -73.313  -7.006  21.630  1.00 63.56 LIG 0.02  C 
ATOM      7  CD  PRO C 176     -72.195  -7.495  20.773  1.00 63.45 LIG 0.13  C 
ENDROOT
BRANCH 4 8
ATOM      8  C   PRO C 176     -74.620  -7.981  18.490  1.00 63.07 LIG 0.24  C 
ATOM      9  N   PHE C 177     -73.655  -7.432  17.753  1.00 62.32 LIG-0.34  N 
ATOM     10 H    PHE C 177     -72.858  -7.289  18.042  1.00 62.32 LIG 0.16  HD
ATOM     11 O    PRO C 176     -75.781  -8.110  18.090  1.00 62.88 LIG-0.27  OA
BRANCH 9 12
ATOM     12  CA  PHE C 177     -73.873  -7.020  16.363  1.00 61.42 LIG 0.19  C 
BRANCH 12 13
ATOM     13  CB  PHE C 177     -72.842  -5.966  15.911  1.00 59.64 LIG 0.07  C 
BRANCH 13 14
ATOM     14  CG  PHE C 177     -71.680  -5.796  16.853  1.00 58.09 LIG-0.06  A 
ATOM     15  CD1 PHE C 177     -71.449  -4.577  17.489  1.00 57.17 LIG 0.01  A 
ATOM     16  CE1 PHE C 177     -70.374  -4.418  18.366  1.00 55.93 LIG 0.00  A 
ATOM     17  CZ  PHE C 177     -69.522  -5.489  18.620  1.00 55.64 LIG 0.00  A 
ATOM     18  CE2 PHE C 177     -69.747  -6.716  17.995  1.00 56.04 LIG 0.00  A 
ATOM     19  CD2 PHE C 177     -70.823  -6.863  17.120  1.00 56.91 LIG 0.01  A 
ENDBRANCH 13 14
ENDBRANCH 12 13
BRANCH 12 20
ATOM     20  C   PHE C 177     -73.896  -8.211  15.406  1.00 62.04 LIG 0.20  C 
ATOM     21 O    PHE C 177     -73.496  -8.110  14.245  1.00 62.52 LIG-0.65  OA
ATOM     22 OXT  PHE C 177     -74.315  -9.310  15.773  1.00 62.11 LIG-0.65  OA
ENDBRANCH 12 20
ENDBRANCH 9 12
ENDBRANCH 4 8
BRANCH 1 23
ATOM     23  CA  ILE C 175     -70.668  -9.907  20.155  1.00 65.77 LIG 0.18  C 
BRANCH 23 24
ATOM     24  CB  ILE C 175     -70.121 -11.330  19.863  1.00 65.27 LIG 0.01  C 
ATOM     25  CG2 ILE C 175     -70.876 -12.376  20.679  1.00 63.89 LIG 0.01  C 
BRANCH 24 26
ATOM     26  CG1 ILE C 175     -70.214 -11.640  18.363  1.00 65.41 LIG 0.00  C 
ATOM     27  CD1 ILE C 175     -68.891 -11.565  17.620  1.00 65.60 LIG 0.01  C 
ENDBRANCH 24 26
ENDBRANCH 23 24
BRANCH 23 28
ATOM     28  N   ILE C 175     -70.481  -9.543  21.561  1.00 67.68 LIG-0.34  N 
ATOM     29 H    ILE C 175     -71.072  -9.878  22.089  1.00 67.68 LIG 0.16  HD
ATOM     30  C   ASP C 174     -69.485  -8.763  21.977  1.00 68.58 LIG 0.26  C 
ATOM     31 O    ASP C 174     -68.659  -8.248  21.216  1.00 68.06 LIG-0.27  OA
BRANCH 30 32
ATOM     32  CA  ASP C 174     -69.407  -8.534  23.483  1.00 70.51 LIG 0.41  C 
ATOM     33  N   ASP C 174     -70.262  -7.378  23.889  1.00 70.88 LIG 0.61  N 
BRANCH 32 34
ATOM     34  CB  ASP C 174     -69.818  -9.806  24.237  1.00 71.81 LIG 0.16  C 
BRANCH 34 35
ATOM     35  CG  ASP C 174     -69.062  -9.985  25.545  1.00 74.09 LIG 0.17  C 
ATOM     36 OD1  ASP C 174     -69.655  -9.757  26.623  1.00 74.88 LIG-0.65  OA
ATOM     37 OD2  ASP C 174     -67.871 -10.360  25.495  1.00 75.75 LIG-0.65  OA
ENDBRANCH 34 35
ENDBRANCH 32 34
ENDBRANCH 30 32
ENDBRANCH 23 28
ENDBRANCH 1 23
TORSDOF 12
ENDMDL
MODEL 17
USER: ADFR SOLUTION from run 68
USER: SCORE 13.433438 LL:  -3.680 LR:  -9.768 RR:   0.000 FEB:  -6.188
USER: RMSD 3.577741
USER: SEED 67
USER: STATUS no improvement in best in 16 clusters for 5 generations
USER: GENES 14
USER: genes 0 Translation |==|  0.59549 0.65392 0.36673
USER: genes 1 Rotation |==|  0.48192 0.62506 0.62032 0.96857
USER: genes 2 Torsion [N]-CA--C-[O] |==|  0.58659
USER: genes 3 Torsion [C]-N--CA-[CB] |==|  0.26743
USER: genes 4 Torsion [N]-CA--CB-[CG] |==|  0.23676
USER: genes 5 Torsion [CA]-CB--CG-[CD2] |==|  0.80322
USER: genes 6 Torsion [N]-CA--C-[OXT] |==|  0.87743
USER: genes 7 Torsion [N]-C--CA-[N] |==|  0.38543
USER: genes 8 Torsion [C]-CA--CB-[CG2] |==|  0.88143
USER: genes 9 Torsion [CA]-CB--CG1-[CD1] |==|  0.36947
USER: genes 10 Torsion [C]-CA--N-[C] |==|  0.80871
USER: genes 11 Torsion [N]-C--CA-[N] |==|  0.57528
USER: genes 12 Torsion [C]-CA--CB-[CG] |==|  0.42603
USER: genes 13 Torsion [CA]-CB--CG-[OD1] |==|  0.86220
ROOT
ATOM      1  C   ILE C 175     -70.564  -7.070  20.821  1.00 65.51 LIG 0.24  C 
ATOM      2 O    ILE C 175     -71.563  -7.305  21.508  1.00 66.37 LIG-0.27  OA
ATOM      3  N   PRO C 176     -70.508  -6.055  19.930  1.00 64.39 LIG-0.34  N 
ATOM      4  CA  PRO C 176     -71.589  -5.075  19.775  1.00 64.23 LIG 0.18  C 
ATOM      5  CB  PRO C 176     -70.865  -3.833  19.222  1.00 63.87 LIG 0.04  C 
ATOM      6  CG  PRO C 176     -69.420  -4.247  18.989  1.00 63.56 LIG 0.02  C 
ATOM      7  CD  PRO C 176     -69.371  -5.736  19.052  1.00 63.45 LIG 0.13  C 
ENDROOT
BRANCH 4 8
ATOM      8  C   PRO C 176     -72.722  -5.508  18.830  1.00 63.07 LIG 0.24  C 
ATOM      9  N   PHE C 177     -72.993  -6.811  18.767  1.00 62.32 LIG-0.34  N 
ATOM     10 H    PHE C 177     -72.535  -7.414  19.176  1.00 62.32 LIG 0.16  HD
ATOM     11 O    PRO C 176     -73.339  -4.661  18.178  1.00 62.88 LIG-0.27  OA
BRANCH 9 12
ATOM     12  CA  PHE C 177     -74.116  -7.339  17.984  1.00 61.42 LIG 0.19  C 
BRANCH 12 13
ATOM     13  CB  PHE C 177     -73.666  -7.812  16.588  1.00 59.64 LIG 0.07  C 
BRANCH 13 14
ATOM     14  CG  PHE C 177     -73.139  -9.223  16.554  1.00 58.09 LIG-0.06  A 
ATOM     15  CD1 PHE C 177     -73.861 -10.239  15.930  1.00 57.17 LIG 0.01  A 
ATOM     16  CE1 PHE C 177     -73.373 -11.547  15.894  1.00 55.93 LIG 0.00  A 
ATOM     17  CZ  PHE C 177     -72.146 -11.845  16.480  1.00 55.64 LIG 0.00  A 
ATOM     18  CE2 PHE C 177     -71.411 -10.836  17.100  1.00 56.04 LIG 0.00  A 
ATOM     19  CD2 PHE C 177     -71.909  -9.533  17.132  1.00 56.91 LIG 0.01  A 
ENDBRANCH 13 14
ENDBRANCH 12 13
BRANCH 12 20
ATOM     20  C   PHE C 177     -74.863  -8.447  18.726  1.00 62.04 LIG 0.20  C 
ATOM     21 O    PHE C 177     -76.094  -8.485  18.750  1.00 62.52 LIG-0.65  OA
ATOM     22 OXT  PHE C 177     -74.251  -9.337  19.318  1.00 62.11 LIG-0.65  OA
ENDBRANCH 12 20
ENDBRANCH 9 12
ENDBRANCH 4 8
BRANCH 1 23
ATOM     23  CA  ILE C 175     -69.314  -7.948  20.960  1.00 65.77 LIG 0.18  C 
BRANCH 23 24
ATOM     24  CB  ILE C 175     -69.451  -9.242  20.115  1.00 65.27 LIG 0.01  C 
ATOM     25  CG2 ILE C 175     -70.850  -9.834  20.257  1.00 63.89 LIG 0.01  C 
BRANCH 24 26
ATOM     26  CG1 ILE C 175     -69.131  -8.952  18.641  1.00 65.41 LIG 0.00  C 
ATOM     27  CD1 ILE C 175     -68.187  -9.951  17.993  1.00 65.60 LIG 0.01  C 
ENDBRANCH 24 26
ENDBRANCH 23 24
BRANCH 23 28
ATOM     28  N   ILE C 175     -69.065  -8.257  22.370  1.00 67.68 LIG-0.34  N 
ATOM     29 H    ILE C 175     -69.192  -9.083  22.573  1.00 67.68 LIG 0.16  HD
ATOM     30  C   ASP C 174     -68.675  -7.337  23.251  1.00 68.58 LIG 0.26  C 
ATOM     31 O    ASP C 174     -68.530  -6.143  22.971  1.00 68.06 LIG-0.27  OA
BRANCH 30 32
ATOM     32  CA  ASP C 174     -68.404  -7.845  24.663  1.00 70.51 LIG 0.41  C 
ATOM     33  N   ASP C 174     -68.619  -6.761  25.668  1.00 70.88 LIG 0.61  N 
BRANCH 32 34
ATOM     34  CB  ASP C 174     -69.292  -9.058  24.972  1.00 71.81 LIG 0.16  C 
BRANCH 34 35
ATOM     35  CG  ASP C 174     -68.682  -9.985  26.012  1.00 74.09 LIG 0.17  C 
ATOM     36 OD1  ASP C 174     -67.496 -10.359  25.869  1.00 74.88 LIG-0.65  OA
ATOM     37 OD2  ASP C 174     -69.389 -10.338  26.980  1.00 75.75 LIG-0.65  OA
ENDBRANCH 34 35
ENDBRANCH 32 34
ENDBRANCH 30 32
ENDBRANCH 23 28
ENDBRANCH 1 23
TORSDOF 12
ENDMDL
MODEL 18
USER: ADFR SOLUTION from run 69
USER: SCORE 13.331027 LL:  -3.860 LR:  -9.680 RR:   0.000 FEB:  -6.101
USER: RMSD 3.960902
USER: SEED 68
USER: STATUS no improvement in best in 14 clusters for 5 generations
USER: GENES 14
USER: genes 0 Translation |==|  0.46320 0.42039 0.47830
USER: genes 1 Rotation |==|  0.52210 0.42969 0.51512 0.99431
USER: genes 2 Torsion [N]-CA--C-[O] |==|  0.62310
USER: genes 3 Torsion [C]-N--CA-[CB] |==|  0.34207
USER: genes 4 Torsion [N]-CA--CB-[CG] |==|  0.81026
USER: genes 5 Torsion [CA]-CB--CG-[CD2] |==|  0.47905
USER: genes 6 Torsion [N]-CA--C-[OXT] |==|  0.44828
USER: genes 7 Torsion [N]-C--CA-[N] |==|  0.39759
USER: genes 8 Torsion [C]-CA--CB-[CG2] |==|  0.69008
USER: genes 9 Torsion [CA]-CB--CG1-[CD1] |==|  0.28443
USER: genes 10 Torsion [C]-CA--N-[C] |==|  0.58333
USER: genes 11 Torsion [N]-C--CA-[N] |==|  0.01703
USER: genes 12 Torsion [C]-CA--CB-[CG] |==|  0.76859
USER: genes 13 Torsion [CA]-CB--CG-[OD1] |==|  0.51298
ROOT
ATOM      1  C   ILE C 175     -72.548 -10.924  23.164  1.00 65.51 LIG 0.24  C 
ATOM      2 O    ILE C 175     -73.743 -10.694  22.952  1.00 66.37 LIG-0.27  OA
ATOM      3  N   PRO C 176     -71.576 -10.009  22.949  1.00 64.39 LIG-0.34  N 
ATOM      4  CA  PRO C 176     -71.861  -8.627  22.547  1.00 64.23 LIG 0.18  C 
ATOM      5  CB  PRO C 176     -70.634  -7.848  23.060  1.00 63.87 LIG 0.04  C 
ATOM      6  CG  PRO C 176     -69.673  -8.884  23.620  1.00 63.56 LIG 0.02  C 
ATOM      7  CD  PRO C 176     -70.132 -10.219  23.142  1.00 63.45 LIG 0.13  C 
ENDROOT
BRANCH 4 8
ATOM      8  C   PRO C 176     -72.042  -8.420  21.034  1.00 63.07 LIG 0.24  C 
ATOM      9  N   PHE C 177     -72.796  -9.307  20.388  1.00 62.32 LIG-0.34  N 
ATOM     10 H    PHE C 177     -73.130 -10.008  20.757  1.00 62.32 LIG 0.16  HD
ATOM     11 O    PRO C 176     -71.504  -7.459  20.474  1.00 62.88 LIG-0.27  OA
BRANCH 9 12
ATOM     12  CA  PHE C 177     -73.129  -9.161  18.966  1.00 61.42 LIG 0.19  C 
BRANCH 12 13
ATOM     13  CB  PHE C 177     -72.689 -10.391  18.148  1.00 59.64 LIG 0.07  C 
BRANCH 13 14
ATOM     14  CG  PHE C 177     -71.196 -10.554  18.032  1.00 58.09 LIG-0.06  A 
ATOM     15  CD1 PHE C 177     -70.332  -9.571  18.513  1.00 57.17 LIG 0.01  A 
ATOM     16  CE1 PHE C 177     -68.947  -9.721  18.410  1.00 55.93 LIG 0.00  A 
ATOM     17  CZ  PHE C 177     -68.416 -10.869  17.828  1.00 55.64 LIG 0.00  A 
ATOM     18  CE2 PHE C 177     -69.270 -11.862  17.350  1.00 56.04 LIG 0.00  A 
ATOM     19  CD2 PHE C 177     -70.652 -11.700  17.457  1.00 56.91 LIG 0.01  A 
ENDBRANCH 13 14
ENDBRANCH 12 13
BRANCH 12 20
ATOM     20  C   PHE C 177     -74.612  -8.860  18.751  1.00 62.04 LIG 0.20  C 
ATOM     21 O    PHE C 177     -75.447  -9.087  19.627  1.00 62.52 LIG-0.65  OA
ATOM     22 OXT  PHE C 177     -75.012  -8.378  17.690  1.00 62.11 LIG-0.65  OA
ENDBRANCH 12 20
ENDBRANCH 9 12
ENDBRANCH 4 8
BRANCH 1 23
ATOM     23  CA  ILE C 175     -72.113 -12.294  23.696  1.00 65.77 LIG 0.18  C 
BRANCH 23 24
ATOM     24  CB  ILE C 175     -71.881 -13.291  22.529  1.00 65.27 LIG 0.01  C 
ATOM     25  CG2 ILE C 175     -72.942 -14.388  22.537  1.00 63.89 LIG 0.01  C 
BRANCH 24 26
ATOM     26  CG1 ILE C 175     -71.878 -12.548  21.186  1.00 65.41 LIG 0.00  C 
ATOM     27  CD1 ILE C 175     -70.497 -12.313  20.598  1.00 65.60 LIG 0.01  C 
ENDBRANCH 24 26
ENDBRANCH 23 24
BRANCH 23 28
ATOM     28  N   ILE C 175     -73.102 -12.808  24.646  1.00 67.68 LIG-0.34  N 
ATOM     29 H    ILE C 175     -73.906 -12.545  24.489  1.00 67.68 LIG 0.16  HD
ATOM     30  C   ASP C 174     -72.779 -13.610  25.659  1.00 68.58 LIG 0.26  C 
ATOM     31 O    ASP C 174     -71.620 -13.957  25.911  1.00 68.06 LIG-0.27  OA
BRANCH 30 32
ATOM     32  CA  ASP C 174     -73.942 -14.098  26.516  1.00 70.51 LIG 0.41  C 
ATOM     33  N   ASP C 174     -75.249 -13.672  25.930  1.00 70.88 LIG 0.61  N 
BRANCH 32 34
ATOM     34  CB  ASP C 174     -73.886 -15.624  26.671  1.00 71.81 LIG 0.16  C 
BRANCH 34 35
ATOM     35  CG  ASP C 174     -74.512 -16.358  25.495  1.00 74.09 LIG 0.17  C 
ATOM     36 OD1  ASP C 174     -74.609 -17.604  25.541  1.00 74.88 LIG-0.65  OA
ATOM     37 OD2  ASP C 174     -74.913 -15.684  24.521  1.00 75.75 LIG-0.65  OA
ENDBRANCH 34 35
ENDBRANCH 32 34
ENDBRANCH 30 32
ENDBRANCH 23 28
ENDBRANCH 1 23
TORSDOF 12
ENDMDL
MODEL 19
USER: ADFR SOLUTION from run 7
USER: SCORE 12.286735 LL:  -3.042 LR:  -9.677 RR:   0.000 FEB:  -6.098
USER: RMSD 4.865147
USER: SEED 405563
USER: STATUS no improvement in best in 12 clusters for 5 generations
USER: GENES 14
USER: genes 0 Translation |==|  0.68244 0.58378 0.41480
USER: genes 1 Rotation |==|  0.25075 0.57906 0.07686 0.55076
USER: genes 2 Torsion [N]-CA--C-[O] |==|  0.49215
USER: genes 3 Torsion [C]-N--CA-[CB] |==|  0.86756
USER: genes 4 Torsion [N]-CA--CB-[CG] |==|  0.64036
USER: genes 5 Torsion [CA]-CB--CG-[CD2] |==|  0.13054
USER: genes 6 Torsion [N]-CA--C-[OXT] |==|  0.01090
USER: genes 7 Torsion [N]-C--CA-[N] |==|  0.28070
USER: genes 8 Torsion [C]-CA--CB-[CG2] |==|  0.77974
USER: genes 9 Torsion [CA]-CB--CG1-[CD1] |==|  0.67462
USER: genes 10 Torsion [C]-CA--N-[C] |==|  0.59444
USER: genes 11 Torsion [N]-C--CA-[N] |==|  0.32045
USER: genes 12 Torsion [C]-CA--CB-[CG] |==|  0.20594
USER: genes 13 Torsion [CA]-CB--CG-[OD1] |==|  0.28827
ROOT
ATOM      1  C   ILE C 175     -69.259  -8.228  21.831  1.00 65.51 LIG 0.24  C 
ATOM      2 O    ILE C 175     -68.588  -8.129  20.799  1.00 66.37 LIG-0.27  OA
ATOM      3  N   PRO C 176     -70.180  -9.200  22.016  1.00 64.39 LIG-0.34  N 
ATOM      4  CA  PRO C 176     -70.391 -10.288  21.054  1.00 64.23 LIG 0.18  C 
ATOM      5  CB  PRO C 176     -70.967 -11.423  21.923  1.00 63.87 LIG 0.04  C 
ATOM      6  CG  PRO C 176     -71.154 -10.843  23.316  1.00 63.56 LIG 0.02  C 
ATOM      7  CD  PRO C 176     -71.043  -9.361  23.198  1.00 63.45 LIG 0.13  C 
ENDROOT
BRANCH 4 8
ATOM      8  C   PRO C 176     -71.347  -9.951  19.898  1.00 63.07 LIG 0.24  C 
ATOM      9  N   PHE C 177     -71.916  -8.747  19.914  1.00 62.32 LIG-0.34  N 
ATOM     10 H    PHE C 177     -71.823  -8.184  20.558  1.00 62.32 LIG 0.16  HD
ATOM     11 O    PRO C 176     -71.551 -10.780  19.005  1.00 62.88 LIG-0.27  OA
BRANCH 9 12
ATOM     12  CA  PHE C 177     -72.764  -8.268  18.817  1.00 61.42 LIG 0.19  C 
BRANCH 12 13
ATOM     13  CB  PHE C 177     -72.109  -8.505  17.442  1.00 59.64 LIG 0.07  C 
BRANCH 13 14
ATOM     14  CG  PHE C 177     -72.075  -7.287  16.557  1.00 58.09 LIG-0.06  A 
ATOM     15  CD1 PHE C 177     -72.482  -7.361  15.225  1.00 57.17 LIG 0.01  A 
ATOM     16  CE1 PHE C 177     -72.455  -6.233  14.404  1.00 55.93 LIG 0.00  A 
ATOM     17  CZ  PHE C 177     -72.024  -5.012  14.916  1.00 55.64 LIG 0.00  A 
ATOM     18  CE2 PHE C 177     -71.621  -4.924  16.248  1.00 56.04 LIG 0.00  A 
ATOM     19  CD2 PHE C 177     -71.651  -6.058  17.060  1.00 56.91 LIG 0.01  A 
ENDBRANCH 13 14
ENDBRANCH 12 13
BRANCH 12 20
ATOM     20  C   PHE C 177     -74.167  -8.873  18.869  1.00 62.04 LIG 0.20  C 
ATOM     21 O    PHE C 177     -74.996  -8.646  17.987  1.00 62.52 LIG-0.65  OA
ATOM     22 OXT  PHE C 177     -74.505  -9.610  19.796  1.00 62.11 LIG-0.65  OA
ENDBRANCH 12 20
ENDBRANCH 9 12
ENDBRANCH 4 8
BRANCH 1 23
ATOM     23  CA  ILE C 175     -69.065  -7.223  22.972  1.00 65.77 LIG 0.18  C 
BRANCH 23 24
ATOM     24  CB  ILE C 175     -68.992  -5.772  22.424  1.00 65.27 LIG 0.01  C 
ATOM     25  CG2 ILE C 175     -67.607  -5.479  21.855  1.00 63.89 LIG 0.01  C 
BRANCH 24 26
ATOM     26  CG1 ILE C 175     -70.075  -5.549  21.359  1.00 65.41 LIG 0.00  C 
ATOM     27  CD1 ILE C 175     -69.540  -5.232  19.973  1.00 65.60 LIG 0.01  C 
ENDBRANCH 24 26
ENDBRANCH 23 24
BRANCH 23 28
ATOM     28  N   ILE C 175     -67.869  -7.559  23.747  1.00 67.68 LIG-0.34  N 
ATOM     29 H    ILE C 175     -67.233  -7.897  23.278  1.00 67.68 LIG 0.16  HD
ATOM     30  C   ASP C 174     -67.782  -7.358  25.061  1.00 68.58 LIG 0.26  C 
ATOM     31 O    ASP C 174     -68.709  -6.911  25.745  1.00 68.06 LIG-0.27  OA
BRANCH 30 32
ATOM     32  CA  ASP C 174     -66.443  -7.712  25.699  1.00 70.51 LIG 0.41  C 
ATOM     33  N   ASP C 174     -65.777  -6.492  26.248  1.00 70.88 LIG 0.61  N 
BRANCH 32 34
ATOM     34  CB  ASP C 174     -66.638  -8.766  26.798  1.00 71.81 LIG 0.16  C 
BRANCH 34 35
ATOM     35  CG  ASP C 174     -66.916 -10.153  26.239  1.00 74.09 LIG 0.17  C 
ATOM     36 OD1  ASP C 174     -65.999 -11.005  26.249  1.00 74.88 LIG-0.65  OA
ATOM     37 OD2  ASP C 174     -68.058 -10.395  25.793  1.00 75.75 LIG-0.65  OA
ENDBRANCH 34 35
ENDBRANCH 32 34
ENDBRANCH 30 32
ENDBRANCH 23 28
ENDBRANCH 1 23
TORSDOF 12
ENDMDL
MODEL 20
USER: ADFR SOLUTION from run 104
USER: SCORE 13.245293 LL:  -3.678 LR:  -9.657 RR:   0.000 FEB:  -6.077
USER: RMSD 3.521177
USER: SEED 103
USER: STATUS no improvement in best in 8 clusters for 5 generations
USER: GENES 14
USER: genes 0 Translation |==|  0.39932 0.49855 0.39416
USER: genes 1 Rotation |==|  0.45497 0.40943 0.70101 0.94650
USER: genes 2 Torsion [N]-CA--C-[O] |==|  0.30439
USER: genes 3 Torsion [C]-N--CA-[CB] |==|  0.83959
USER: genes 4 Torsion [N]-CA--CB-[CG] |==|  0.82216
USER: genes 5 Torsion [CA]-CB--CG-[CD2] |==|  0.47477
USER: genes 6 Torsion [N]-CA--C-[OXT] |==|  0.99009
USER: genes 7 Torsion [N]-C--CA-[N] |==|  0.42223
USER: genes 8 Torsion [C]-CA--CB-[CG2] |==|  0.29637
USER: genes 9 Torsion [CA]-CB--CG1-[CD1] |==|  0.32016
USER: genes 10 Torsion [C]-CA--N-[C] |==|  0.63348
USER: genes 11 Torsion [N]-C--CA-[N] |==|  0.81182
USER: genes 12 Torsion [C]-CA--CB-[CG] |==|  0.21944
USER: genes 13 Torsion [CA]-CB--CG-[OD1] |==|  0.14139
ROOT
ATOM      1  C   ILE C 175     -73.506  -9.634  21.397  1.00 65.51 LIG 0.24  C 
ATOM      2 O    ILE C 175     -74.481 -10.332  21.102  1.00 66.37 LIG-0.27  OA
ATOM      3  N   PRO C 176     -73.288  -8.413  20.860  1.00 64.39 LIG-0.34  N 
ATOM      4  CA  PRO C 176     -74.245  -7.760  19.959  1.00 64.23 LIG 0.18  C 
ATOM      5  CB  PRO C 176     -73.944  -6.261  20.149  1.00 63.87 LIG 0.04  C 
ATOM      6  CG  PRO C 176     -72.738  -6.179  21.071  1.00 63.56 LIG 0.02  C 
ATOM      7  CD  PRO C 176     -72.135  -7.540  21.133  1.00 63.45 LIG 0.13  C 
ENDROOT
BRANCH 4 8
ATOM      8  C   PRO C 176     -74.112  -8.157  18.479  1.00 63.07 LIG 0.24  C 
ATOM      9  N   PHE C 177     -73.031  -7.724  17.831  1.00 62.32 LIG-0.34  N 
ATOM     10 H    PHE C 177     -72.448  -7.195  18.177  1.00 62.32 LIG 0.16  HD
ATOM     11 O    PRO C 176     -74.981  -8.853  17.946  1.00 62.88 LIG-0.27  OA
BRANCH 9 12
ATOM     12  CA  PHE C 177     -72.737  -8.120  16.450  1.00 61.42 LIG 0.19  C 
BRANCH 12 13
ATOM     13  CB  PHE C 177     -72.633  -9.651  16.303  1.00 59.64 LIG 0.07  C 
BRANCH 13 14
ATOM     14  CG  PHE C 177     -71.495 -10.269  17.072  1.00 58.09 LIG-0.06  A 
ATOM     15  CD1 PHE C 177     -70.539  -9.469  17.697  1.00 57.17 LIG 0.01  A 
ATOM     16  CE1 PHE C 177     -69.485 -10.040  18.413  1.00 55.93 LIG 0.00  A 
ATOM     17  CZ  PHE C 177     -69.387 -11.425  18.517  1.00 55.64 LIG 0.00  A 
ATOM     18  CE2 PHE C 177     -70.342 -12.235  17.903  1.00 56.04 LIG 0.00  A 
ATOM     19  CD2 PHE C 177     -71.389 -11.653  17.188  1.00 56.91 LIG 0.01  A 
ENDBRANCH 13 14
ENDBRANCH 12 13
BRANCH 12 20
ATOM     20  C   PHE C 177     -73.746  -7.540  15.459  1.00 62.04 LIG 0.20  C 
ATOM     21 O    PHE C 177     -73.625  -7.713  14.245  1.00 62.52 LIG-0.65  OA
ATOM     22 OXT  PHE C 177     -74.713  -6.884  15.850  1.00 62.11 LIG-0.65  OA
ENDBRANCH 12 20
ENDBRANCH 9 12
ENDBRANCH 4 8
BRANCH 1 23
ATOM     23  CA  ILE C 175     -72.479 -10.143  22.415  1.00 65.77 LIG 0.18  C 
BRANCH 23 24
ATOM     24  CB  ILE C 175     -71.274 -10.809  21.698  1.00 65.27 LIG 0.01  C 
ATOM     25  CG2 ILE C 175     -70.042  -9.912  21.769  1.00 63.89 LIG 0.01  C 
BRANCH 24 26
ATOM     26  CG1 ILE C 175     -70.982 -12.184  22.313  1.00 65.41 LIG 0.00  C 
ATOM     27  CD1 ILE C 175     -71.195 -13.355  21.370  1.00 65.60 LIG 0.01  C 
ENDBRANCH 24 26
ENDBRANCH 23 24
BRANCH 23 28
ATOM     28  N   ILE C 175     -73.113 -11.066  23.359  1.00 67.68 LIG-0.34  N 
ATOM     29 H    ILE C 175     -73.596 -11.671  22.984  1.00 67.68 LIG 0.16  HD
ATOM     30  C   ASP C 174     -72.952 -10.972  24.678  1.00 68.58 LIG 0.26  C 
ATOM     31 O    ASP C 174     -72.292 -10.080  25.221  1.00 68.06 LIG-0.27  OA
BRANCH 30 32
ATOM     32  CA  ASP C 174     -73.637 -12.051  25.508  1.00 70.51 LIG 0.41  C 
ATOM     33  N   ASP C 174     -75.124 -11.916  25.433  1.00 70.88 LIG 0.61  N 
BRANCH 32 34
ATOM     34  CB  ASP C 174     -73.193 -13.444  25.042  1.00 71.81 LIG 0.16  C 
BRANCH 34 35
ATOM     35  CG  ASP C 174     -71.825 -13.836  25.577  1.00 74.09 LIG 0.17  C 
ATOM     36 OD1  ASP C 174     -71.601 -13.732  26.804  1.00 74.88 LIG-0.65  OA
ATOM     37 OD2  ASP C 174     -70.969 -14.253  24.767  1.00 75.75 LIG-0.65  OA
ENDBRANCH 34 35
ENDBRANCH 32 34
ENDBRANCH 30 32
ENDBRANCH 23 28
ENDBRANCH 1 23
TORSDOF 12
ENDMDL
MODEL 21
USER: ADFR SOLUTION from run 83
USER: SCORE 12.679604 LL:  -3.086 LR:  -9.632 RR:   0.000 FEB:  -6.052
USER: RMSD 6.712121
USER: SEED 82
USER: STATUS no improvement in best in 8 clusters for 5 generations
USER: GENES 14
USER: genes 0 Translation |==|  0.63947 0.52461 0.34907
USER: genes 1 Rotation |==|  0.81686 0.86209 0.53106 0.63238
USER: genes 2 Torsion [N]-CA--C-[O] |==|  0.65343
USER: genes 3 Torsion [C]-N--CA-[CB] |==|  0.44104
USER: genes 4 Torsion [N]-CA--CB-[CG] |==|  0.08821
USER: genes 5 Torsion [CA]-CB--CG-[CD2] |==|  0.26212
USER: genes 6 Torsion [N]-CA--C-[OXT] |==|  0.98227
USER: genes 7 Torsion [N]-C--CA-[N] |==|  0.89448
USER: genes 8 Torsion [C]-CA--CB-[CG2] |==|  0.75106
USER: genes 9 Torsion [CA]-CB--CG1-[CD1] |==|  0.20062
USER: genes 10 Torsion [C]-CA--N-[C] |==|  0.83918
USER: genes 11 Torsion [N]-C--CA-[N] |==|  0.97299
USER: genes 12 Torsion [C]-CA--CB-[CG] |==|  0.88860
USER: genes 13 Torsion [CA]-CB--CG-[OD1] |==|  0.23553
ROOT
ATOM      1  C   ILE C 175     -69.904  -9.204  20.451  1.00 65.51 LIG 0.24  C 
ATOM      2 O    ILE C 175     -69.525 -10.308  20.853  1.00 66.37 LIG-0.27  OA
ATOM      3  N   PRO C 176     -69.488  -8.041  21.000  1.00 64.39 LIG-0.34  N 
ATOM      4  CA  PRO C 176     -68.466  -7.980  22.051  1.00 64.23 LIG 0.18  C 
ATOM      5  CB  PRO C 176     -67.864  -6.572  21.880  1.00 63.87 LIG 0.04  C 
ATOM      6  CG  PRO C 176     -68.685  -5.883  20.801  1.00 63.56 LIG 0.02  C 
ATOM      7  CD  PRO C 176     -69.921  -6.692  20.602  1.00 63.45 LIG 0.13  C 
ENDROOT
BRANCH 4 8
ATOM      8  C   PRO C 176     -68.999  -8.173  23.481  1.00 63.07 LIG 0.24  C 
ATOM      9  N   PHE C 177     -69.692  -9.284  23.724  1.00 62.32 LIG-0.34  N 
ATOM     10 H    PHE C 177     -69.903  -9.857  23.118  1.00 62.32 LIG 0.16  HD
ATOM     11 O    PRO C 176     -68.771  -7.320  24.344  1.00 62.88 LIG-0.27  OA
BRANCH 9 12
ATOM     12  CA  PHE C 177     -70.165  -9.632  25.068  1.00 61.42 LIG 0.19  C 
BRANCH 12 13
ATOM     13  CB  PHE C 177     -71.341 -10.628  25.021  1.00 59.64 LIG 0.07  C 
BRANCH 13 14
ATOM     14  CG  PHE C 177     -71.296 -11.581  23.855  1.00 58.09 LIG-0.06  A 
ATOM     15  CD1 PHE C 177     -71.810 -11.213  22.612  1.00 57.17 LIG 0.01  A 
ATOM     16  CE1 PHE C 177     -71.767 -12.094  21.530  1.00 55.93 LIG 0.00  A 
ATOM     17  CZ  PHE C 177     -71.196 -13.354  21.684  1.00 55.64 LIG 0.00  A 
ATOM     18  CE2 PHE C 177     -70.672 -13.731  22.920  1.00 56.04 LIG 0.00  A 
ATOM     19  CD2 PHE C 177     -70.723 -12.843  23.995  1.00 56.91 LIG 0.01  A 
ENDBRANCH 13 14
ENDBRANCH 12 13
BRANCH 12 20
ATOM     20  C   PHE C 177     -69.037 -10.156  25.956  1.00 62.04 LIG 0.20  C 
ATOM     21 O    PHE C 177     -69.218 -10.392  27.152  1.00 62.52 LIG-0.65  OA
ATOM     22 OXT  PHE C 177     -67.912 -10.360  25.497  1.00 62.11 LIG-0.65  OA
ENDBRANCH 12 20
ENDBRANCH 9 12
ENDBRANCH 4 8
BRANCH 1 23
ATOM     23  CA  ILE C 175     -70.888  -9.111  19.279  1.00 65.77 LIG 0.18  C 
BRANCH 23 24
ATOM     24  CB  ILE C 175     -70.133  -8.929  17.936  1.00 65.27 LIG 0.01  C 
ATOM     25  CG2 ILE C 175     -69.919  -7.449  17.633  1.00 63.89 LIG 0.01  C 
BRANCH 24 26
ATOM     26  CG1 ILE C 175     -68.793  -9.676  17.972  1.00 65.41 LIG 0.00  C 
ATOM     27  CD1 ILE C 175     -68.912 -11.189  17.905  1.00 65.60 LIG 0.01  C 
ENDBRANCH 24 26
ENDBRANCH 23 24
BRANCH 23 28
ATOM     28  N   ILE C 175     -71.844  -8.024  19.504  1.00 67.68 LIG-0.34  N 
ATOM     29 H    ILE C 175     -71.848  -7.430  18.883  1.00 67.68 LIG 0.16  HD
ATOM     30  C   ASP C 174     -72.634  -7.969  20.575  1.00 68.58 LIG 0.26  C 
ATOM     31 O    ASP C 174     -72.602  -8.800  21.489  1.00 68.06 LIG-0.27  OA
BRANCH 30 32
ATOM     32  CA  ASP C 174     -73.610  -6.798  20.620  1.00 70.51 LIG 0.41  C 
ATOM     33  N   ASP C 174     -73.309  -5.814  19.537  1.00 70.88 LIG 0.61  N 
BRANCH 32 34
ATOM     34  CB  ASP C 174     -75.054  -7.305  20.507  1.00 71.81 LIG 0.16  C 
BRANCH 34 35
ATOM     35  CG  ASP C 174     -75.204  -8.437  19.502  1.00 74.09 LIG 0.17  C 
ATOM     36 OD1  ASP C 174     -74.973  -9.610  19.871  1.00 74.88 LIG-0.65  OA
ATOM     37 OD2  ASP C 174     -75.560  -8.153  18.338  1.00 75.75 LIG-0.65  OA
ENDBRANCH 34 35
ENDBRANCH 32 34
ENDBRANCH 30 32
ENDBRANCH 23 28
ENDBRANCH 1 23
TORSDOF 12
ENDMDL
MODEL 22
USER: ADFR SOLUTION from run 10
USER: SCORE 13.108146 LL:  -3.684 LR:  -9.614 RR:   0.000 FEB:  -6.034
USER: RMSD 4.288123
USER: SEED 628904
USER: STATUS no improvement in best in 20 clusters for 5 generations
USER: GENES 14
USER: genes 0 Translation |==|  0.38849 0.38758 0.49601
USER: genes 1 Rotation |==|  0.56826 0.60582 0.23994 0.90806
USER: genes 2 Torsion [N]-CA--C-[O] |==|  0.33000
USER: genes 3 Torsion [C]-N--CA-[CB] |==|  0.37557
USER: genes 4 Torsion [N]-CA--CB-[CG] |==|  0.98186
USER: genes 5 Torsion [CA]-CB--CG-[CD2] |==|  0.23693
USER: genes 6 Torsion [N]-CA--C-[OXT] |==|  0.56884
USER: genes 7 Torsion [N]-C--CA-[N] |==|  0.34604
USER: genes 8 Torsion [C]-CA--CB-[CG2] |==|  0.03939
USER: genes 9 Torsion [CA]-CB--CG1-[CD1] |==|  0.00185
USER: genes 10 Torsion [C]-CA--N-[C] |==|  0.65388
USER: genes 11 Torsion [N]-C--CA-[N] |==|  0.43010
USER: genes 12 Torsion [C]-CA--CB-[CG] |==|  0.88209
USER: genes 13 Torsion [CA]-CB--CG-[OD1] |==|  0.22921
ROOT
ATOM      1  C   ILE C 175     -73.669 -11.465  23.536  1.00 65.51 LIG 0.24  C 
ATOM      2 O    ILE C 175     -73.818 -10.441  24.210  1.00 66.37 LIG-0.27  OA
ATOM      3  N   PRO C 176     -72.699 -11.594  22.602  1.00 64.39 LIG-0.34  N 
ATOM      4  CA  PRO C 176     -71.671 -10.571  22.379  1.00 64.23 LIG 0.18  C 
ATOM      5  CB  PRO C 176     -70.496 -11.373  21.788  1.00 63.87 LIG 0.04  C 
ATOM      6  CG  PRO C 176     -70.997 -12.797  21.607  1.00 63.56 LIG 0.02  C 
ATOM      7  CD  PRO C 176     -72.481 -12.764  21.737  1.00 63.45 LIG 0.13  C 
ENDROOT
BRANCH 4 8
ATOM      8  C   PRO C 176     -72.086  -9.435  21.429  1.00 63.07 LIG 0.24  C 
ATOM      9  N   PHE C 177     -72.405  -9.777  20.181  1.00 62.32 LIG-0.34  N 
ATOM     10 H    PHE C 177     -72.333 -10.576  19.872  1.00 62.32 LIG 0.16  HD
ATOM     11 O    PRO C 176     -72.120  -8.270  21.837  1.00 62.88 LIG-0.27  OA
BRANCH 9 12
ATOM     12  CA  PHE C 177     -72.914  -8.802  19.210  1.00 61.42 LIG 0.19  C 
BRANCH 12 13
ATOM     13  CB  PHE C 177     -72.234  -8.956  17.836  1.00 59.64 LIG 0.07  C 
BRANCH 13 14
ATOM     14  CG  PHE C 177     -71.099  -9.946  17.815  1.00 58.09 LIG-0.06  A 
ATOM     15  CD1 PHE C 177     -69.784  -9.528  18.010  1.00 57.17 LIG 0.01  A 
ATOM     16  CE1 PHE C 177     -68.731 -10.445  17.995  1.00 55.93 LIG 0.00  A 
ATOM     17  CZ  PHE C 177     -68.992 -11.797  17.792  1.00 55.64 LIG 0.00  A 
ATOM     18  CE2 PHE C 177     -70.305 -12.229  17.604  1.00 56.04 LIG 0.00  A 
ATOM     19  CD2 PHE C 177     -71.349 -11.303  17.619  1.00 56.91 LIG 0.01  A 
ENDBRANCH 13 14
ENDBRANCH 12 13
BRANCH 12 20
ATOM     20  C   PHE C 177     -74.436  -8.862  19.080  1.00 62.04 LIG 0.20  C 
ATOM     21 O    PHE C 177     -75.142  -9.285  19.997  1.00 62.52 LIG-0.65  OA
ATOM     22 OXT  PHE C 177     -74.999  -8.485  18.051  1.00 62.11 LIG-0.65  OA
ENDBRANCH 12 20
ENDBRANCH 9 12
ENDBRANCH 4 8
BRANCH 1 23
ATOM     23  CA  ILE C 175     -74.604 -12.662  23.742  1.00 65.77 LIG 0.18  C 
BRANCH 23 24
ATOM     24  CB  ILE C 175     -76.041 -12.330  23.260  1.00 65.27 LIG 0.01  C 
ATOM     25  CG2 ILE C 175     -76.046 -11.063  22.409  1.00 63.89 LIG 0.01  C 
BRANCH 24 26
ATOM     26  CG1 ILE C 175     -76.627 -13.513  22.476  1.00 65.41 LIG 0.00  C 
ATOM     27  CD1 ILE C 175     -75.704 -14.714  22.364  1.00 65.60 LIG 0.01  C 
ENDBRANCH 24 26
ENDBRANCH 23 24
BRANCH 23 28
ATOM     28  N   ILE C 175     -74.597 -13.076  25.147  1.00 67.68 LIG-0.34  N 
ATOM     29 H    ILE C 175     -74.794 -12.446  25.697  1.00 67.68 LIG 0.16  HD
ATOM     30  C   ASP C 174     -74.309 -14.319  25.530  1.00 68.58 LIG 0.26  C 
ATOM     31 O    ASP C 174     -73.985 -15.217  24.745  1.00 68.06 LIG-0.27  OA
BRANCH 30 32
ATOM     32  CA  ASP C 174     -74.406 -14.591  27.027  1.00 70.51 LIG 0.41  C 
ATOM     33  N   ASP C 174     -74.669 -16.039  27.289  1.00 70.88 LIG 0.61  N 
BRANCH 32 34
ATOM     34  CB  ASP C 174     -73.123 -14.134  27.735  1.00 71.81 LIG 0.16  C 
BRANCH 34 35
ATOM     35  CG  ASP C 174     -71.864 -14.507  26.969  1.00 74.09 LIG 0.17  C 
ATOM     36 OD1  ASP C 174     -71.485 -13.770  26.031  1.00 74.88 LIG-0.65  OA
ATOM     37 OD2  ASP C 174     -71.246 -15.539  27.309  1.00 75.75 LIG-0.65  OA
ENDBRANCH 34 35
ENDBRANCH 32 34
ENDBRANCH 30 32
ENDBRANCH 23 28
ENDBRANCH 1 23
TORSDOF 12
ENDMDL
MODEL 23
USER: ADFR SOLUTION from run 21
USER: SCORE 13.789353 LL:  -4.182 LR:  -9.609 RR:   0.000 FEB:  -6.029
USER: RMSD 4.019872
USER: SEED 20
USER: STATUS no improvement in best in 15 clusters for 5 generations
USER: GENES 14
USER: genes 0 Translation |==|  0.51778 0.61260 0.36571
USER: genes 1 Rotation |==|  0.48188 0.53101 0.85636 0.84888
USER: genes 2 Torsion [N]-CA--C-[O] |==|  0.44255
USER: genes 3 Torsion [C]-N--CA-[CB] |==|  0.84394
USER: genes 4 Torsion [N]-CA--CB-[CG] |==|  0.82055
USER: genes 5 Torsion [CA]-CB--CG-[CD2] |==|  0.22848
USER: genes 6 Torsion [N]-CA--C-[OXT] |==|  0.80487
USER: genes 7 Torsion [N]-C--CA-[N] |==|  0.39767
USER: genes 8 Torsion [C]-CA--CB-[CG2] |==|  0.77761
USER: genes 9 Torsion [CA]-CB--CG1-[CD1] |==|  0.62612
USER: genes 10 Torsion [C]-CA--N-[C] |==|  0.82082
USER: genes 11 Torsion [N]-C--CA-[N] |==|  0.58659
USER: genes 12 Torsion [C]-CA--CB-[CG] |==|  0.52587
USER: genes 13 Torsion [CA]-CB--CG-[OD1] |==|  0.12474
ROOT
ATOM      1  C   ILE C 175     -71.729  -7.752  20.800  1.00 65.51 LIG 0.24  C 
ATOM      2 O    ILE C 175     -71.995  -8.925  21.079  1.00 66.37 LIG-0.27  OA
ATOM      3  N   PRO C 176     -72.592  -6.939  20.149  1.00 64.39 LIG-0.34  N 
ATOM      4  CA  PRO C 176     -73.961  -7.343  19.811  1.00 64.23 LIG 0.18  C 
ATOM      5  CB  PRO C 176     -74.716  -6.002  19.728  1.00 63.87 LIG 0.04  C 
ATOM      6  CG  PRO C 176     -73.673  -4.911  19.913  1.00 63.56 LIG 0.02  C 
ATOM      7  CD  PRO C 176     -72.335  -5.547  19.750  1.00 63.45 LIG 0.13  C 
ENDROOT
BRANCH 4 8
ATOM      8  C   PRO C 176     -74.097  -8.124  18.494  1.00 63.07 LIG 0.24  C 
ATOM      9  N   PHE C 177     -73.105  -8.002  17.613  1.00 62.32 LIG-0.34  N 
ATOM     10 H    PHE C 177     -72.436  -7.472  17.718  1.00 62.32 LIG 0.16  HD
ATOM     11 O    PRO C 176     -75.090  -8.831  18.294  1.00 62.88 LIG-0.27  OA
BRANCH 9 12
ATOM     12  CA  PHE C 177     -73.067  -8.775  16.366  1.00 61.42 LIG 0.19  C 
BRANCH 12 13
ATOM     13  CB  PHE C 177     -73.141 -10.292  16.632  1.00 59.64 LIG 0.07  C 
BRANCH 13 14
ATOM     14  CG  PHE C 177     -71.960 -10.845  17.386  1.00 58.09 LIG-0.06  A 
ATOM     15  CD1 PHE C 177     -70.899 -11.446  16.709  1.00 57.17 LIG 0.01  A 
ATOM     16  CE1 PHE C 177     -69.802 -11.956  17.406  1.00 55.93 LIG 0.00  A 
ATOM     17  CZ  PHE C 177     -69.756 -11.860  18.794  1.00 55.64 LIG 0.00  A 
ATOM     18  CE2 PHE C 177     -70.808 -11.255  19.481  1.00 56.04 LIG 0.00  A 
ATOM     19  CD2 PHE C 177     -71.900 -10.750  18.774  1.00 56.91 LIG 0.01  A 
ENDBRANCH 13 14
ENDBRANCH 12 13
BRANCH 12 20
ATOM     20  C   PHE C 177     -74.151  -8.335  15.383  1.00 62.04 LIG 0.20  C 
ATOM     21 O    PHE C 177     -73.871  -7.735  14.345  1.00 62.52 LIG-0.65  OA
ATOM     22 OXT  PHE C 177     -75.340  -8.574  15.604  1.00 62.11 LIG-0.65  OA
ENDBRANCH 12 20
ENDBRANCH 9 12
ENDBRANCH 4 8
BRANCH 1 23
ATOM     23  CA  ILE C 175     -70.372  -7.159  21.194  1.00 65.77 LIG 0.18  C 
BRANCH 23 24
ATOM     24  CB  ILE C 175     -69.308  -7.439  20.100  1.00 65.27 LIG 0.01  C 
ATOM     25  CG2 ILE C 175     -68.766  -8.860  20.226  1.00 63.89 LIG 0.01  C 
BRANCH 24 26
ATOM     26  CG1 ILE C 175     -69.903  -7.206  18.705  1.00 65.41 LIG 0.00  C 
ATOM     27  CD1 ILE C 175     -69.583  -8.293  17.693  1.00 65.60 LIG 0.01  C 
ENDBRANCH 24 26
ENDBRANCH 23 24
BRANCH 23 28
ATOM     28  N   ILE C 175     -69.948  -7.680  22.495  1.00 67.68 LIG-0.34  N 
ATOM     29 H    ILE C 175     -69.234  -8.158  22.463  1.00 67.68 LIG 0.16  HD
ATOM     30  C   ASP C 174     -70.613  -7.431  23.623  1.00 68.58 LIG 0.26  C 
ATOM     31 O    ASP C 174     -71.661  -6.778  23.666  1.00 68.06 LIG-0.27  OA
BRANCH 30 32
ATOM     32  CA  ASP C 174     -69.998  -8.004  24.895  1.00 70.51 LIG 0.41  C 
ATOM     33  N   ASP C 174     -71.059  -8.347  25.890  1.00 70.88 LIG 0.61  N 
BRANCH 32 34
ATOM     34  CB  ASP C 174     -69.143  -9.235  24.566  1.00 71.81 LIG 0.16  C 
BRANCH 34 35
ATOM     35  CG  ASP C 174     -68.686  -9.985  25.808  1.00 74.09 LIG 0.17  C 
ATOM     36 OD1  ASP C 174     -69.514 -10.205  26.721  1.00 74.88 LIG-0.65  OA
ATOM     37 OD2  ASP C 174     -67.496 -10.360  25.870  1.00 75.75 LIG-0.65  OA
ENDBRANCH 34 35
ENDBRANCH 32 34
ENDBRANCH 30 32
ENDBRANCH 23 28
ENDBRANCH 1 23
TORSDOF 12
ENDMDL
MODEL 24
USER: ADFR SOLUTION from run 7
USER: SCORE 13.064673 LL:  -3.657 LR:  -9.611 RR:   0.000 FEB:  -6.031
USER: RMSD 5.272818
USER: SEED 405563
USER: STATUS no improvement in best in 12 clusters for 5 generations
USER: GENES 14
USER: genes 0 Translation |==|  0.51099 0.43361 0.26117
USER: genes 1 Rotation |==|  0.61784 0.29430 0.80270 0.81964
USER: genes 2 Torsion [N]-CA--C-[O] |==|  0.23099
USER: genes 3 Torsion [C]-N--CA-[CB] |==|  0.76440
USER: genes 4 Torsion [N]-CA--CB-[CG] |==|  0.90156
USER: genes 5 Torsion [CA]-CB--CG-[CD2] |==|  0.27658
USER: genes 6 Torsion [N]-CA--C-[OXT] |==|  0.66362
USER: genes 7 Torsion [N]-C--CA-[N] |==|  0.31763
USER: genes 8 Torsion [C]-CA--CB-[CG2] |==|  0.82419
USER: genes 9 Torsion [CA]-CB--CG1-[CD1] |==|  0.46305
USER: genes 10 Torsion [C]-CA--N-[C] |==|  0.69129
USER: genes 11 Torsion [N]-C--CA-[N] |==|  0.23275
USER: genes 12 Torsion [C]-CA--CB-[CG] |==|  0.73281
USER: genes 13 Torsion [CA]-CB--CG-[OD1] |==|  0.31862
ROOT
ATOM      1  C   ILE C 175     -71.831 -10.705  18.605  1.00 65.51 LIG 0.24  C 
ATOM      2 O    ILE C 175     -72.059 -11.435  17.634  1.00 66.37 LIG-0.27  OA
ATOM      3  N   PRO C 176     -72.557  -9.598  18.877  1.00 64.39 LIG-0.34  N 
ATOM      4  CA  PRO C 176     -73.748  -9.221  18.106  1.00 64.23 LIG 0.18  C 
ATOM      5  CB  PRO C 176     -74.567  -8.383  19.107  1.00 63.87 LIG 0.04  C 
ATOM      6  CG  PRO C 176     -73.708  -8.246  20.355  1.00 63.56 LIG 0.02  C 
ATOM      7  CD  PRO C 176     -72.325  -8.662  19.988  1.00 63.45 LIG 0.13  C 
ENDROOT
BRANCH 4 8
ATOM      8  C   PRO C 176     -73.462  -8.413  16.830  1.00 63.07 LIG 0.24  C 
ATOM      9  N   PHE C 177     -73.561  -7.088  16.917  1.00 62.32 LIG-0.34  N 
ATOM     10 H    PHE C 177     -73.830  -6.675  17.622  1.00 62.32 LIG 0.16  HD
ATOM     11 O    PRO C 176     -73.149  -8.997  15.787  1.00 62.88 LIG-0.27  OA
BRANCH 9 12
ATOM     12  CA  PHE C 177     -73.213  -6.203  15.800  1.00 61.42 LIG 0.19  C 
BRANCH 12 13
ATOM     13  CB  PHE C 177     -71.703  -5.892  15.765  1.00 59.64 LIG 0.07  C 
BRANCH 13 14
ATOM     14  CG  PHE C 177     -71.067  -5.769  17.125  1.00 58.09 LIG-0.06  A 
ATOM     15  CD1 PHE C 177     -71.195  -4.598  17.870  1.00 57.17 LIG 0.01  A 
ATOM     16  CE1 PHE C 177     -70.609  -4.483  19.132  1.00 55.93 LIG 0.00  A 
ATOM     17  CZ  PHE C 177     -69.893  -5.553  19.663  1.00 55.64 LIG 0.00  A 
ATOM     18  CE2 PHE C 177     -69.764  -6.732  18.931  1.00 56.04 LIG 0.00  A 
ATOM     19  CD2 PHE C 177     -70.353  -6.835  17.670  1.00 56.91 LIG 0.01  A 
ENDBRANCH 13 14
ENDBRANCH 12 13
BRANCH 12 20
ATOM     20  C   PHE C 177     -73.691  -6.756  14.457  1.00 62.04 LIG 0.20  C 
ATOM     21 O    PHE C 177     -74.882  -6.985  14.246  1.00 62.52 LIG-0.65  OA
ATOM     22 OXT  PHE C 177     -72.893  -6.985  13.547  1.00 62.11 LIG-0.65  OA
ENDBRANCH 12 20
ENDBRANCH 9 12
ENDBRANCH 4 8
BRANCH 1 23
ATOM     23  CA  ILE C 175     -70.683 -11.041  19.563  1.00 65.77 LIG 0.18  C 
BRANCH 23 24
ATOM     24  CB  ILE C 175     -69.331 -11.108  18.805  1.00 65.27 LIG 0.01  C 
ATOM     25  CG2 ILE C 175     -69.345 -12.235  17.776  1.00 63.89 LIG 0.01  C 
BRANCH 24 26
ATOM     26  CG1 ILE C 175     -69.030  -9.762  18.132  1.00 65.41 LIG 0.00  C 
ATOM     27  CD1 ILE C 175     -67.602  -9.611  17.635  1.00 65.60 LIG 0.01  C 
ENDBRANCH 24 26
ENDBRANCH 23 24
BRANCH 23 28
ATOM     28  N   ILE C 175     -70.961 -12.294  20.269  1.00 67.68 LIG-0.34  N 
ATOM     29 H    ILE C 175     -70.937 -12.990  19.765  1.00 67.68 LIG 0.16  HD
ATOM     30  C   ASP C 174     -71.225 -12.343  21.574  1.00 68.58 LIG 0.26  C 
ATOM     31 O    ASP C 174     -71.300 -11.341  22.292  1.00 68.06 LIG-0.27  OA
BRANCH 30 32
ATOM     32  CA  ASP C 174     -71.432 -13.737  22.156  1.00 70.51 LIG 0.41  C 
ATOM     33  N   ASP C 174     -70.122 -14.372  22.495  1.00 70.88 LIG 0.61  N 
BRANCH 32 34
ATOM     34  CB  ASP C 174     -72.338 -13.668  23.393  1.00 71.81 LIG 0.16  C 
BRANCH 34 35
ATOM     35  CG  ASP C 174     -71.555 -13.619  24.695  1.00 74.09 LIG 0.17  C 
ATOM     36 OD1  ASP C 174     -71.621 -12.590  25.404  1.00 74.88 LIG-0.65  OA
ATOM     37 OD2  ASP C 174     -70.872 -14.616  25.015  1.00 75.75 LIG-0.65  OA
ENDBRANCH 34 35
ENDBRANCH 32 34
ENDBRANCH 30 32
ENDBRANCH 23 28
ENDBRANCH 1 23
TORSDOF 12
ENDMDL
MODEL 25
USER: ADFR SOLUTION from run 30
USER: SCORE 13.037242 LL:  -3.768 LR:  -9.609 RR:   0.000 FEB:  -6.030
USER: RMSD 5.490505
USER: SEED 29
USER: STATUS no improvement in best in 12 clusters for 5 generations
USER: GENES 14
USER: genes 0 Translation |==|  0.67208 0.57186 0.41186
USER: genes 1 Rotation |==|  0.74996 0.46429 0.92947 0.54245
USER: genes 2 Torsion [N]-CA--C-[O] |==|  0.53440
USER: genes 3 Torsion [C]-N--CA-[CB] |==|  0.83393
USER: genes 4 Torsion [N]-CA--CB-[CG] |==|  0.93463
USER: genes 5 Torsion [CA]-CB--CG-[CD2] |==|  0.34698
USER: genes 6 Torsion [N]-CA--C-[OXT] |==|  0.46742
USER: genes 7 Torsion [N]-C--CA-[N] |==|  0.37810
USER: genes 8 Torsion [C]-CA--CB-[CG2] |==|  0.70943
USER: genes 9 Torsion [CA]-CB--CG1-[CD1] |==|  0.70292
USER: genes 10 Torsion [C]-CA--N-[C] |==|  0.55563
USER: genes 11 Torsion [N]-C--CA-[N] |==|  0.02462
USER: genes 12 Torsion [C]-CA--CB-[CG] |==|  0.84173
USER: genes 13 Torsion [CA]-CB--CG-[OD1] |==|  0.25630
ROOT
ATOM      1  C   ILE C 175     -69.415  -8.424  21.769  1.00 65.51 LIG 0.24  C 
ATOM      2 O    ILE C 175     -68.812  -8.826  20.769  1.00 66.37 LIG-0.27  OA
ATOM      3  N   PRO C 176     -70.513  -9.042  22.260  1.00 64.39 LIG-0.34  N 
ATOM      4  CA  PRO C 176     -71.025 -10.304  21.714  1.00 64.23 LIG 0.18  C 
ATOM      5  CB  PRO C 176     -71.776 -10.927  22.907  1.00 63.87 LIG 0.04  C 
ATOM      6  CG  PRO C 176     -71.733  -9.898  24.025  1.00 63.56 LIG 0.02  C 
ATOM      7  CD  PRO C 176     -71.305  -8.605  23.420  1.00 63.45 LIG 0.13  C 
ENDROOT
BRANCH 4 8
ATOM      8  C   PRO C 176     -71.961 -10.151  20.504  1.00 63.07 LIG 0.24  C 
ATOM      9  N   PHE C 177     -72.004  -8.955  19.919  1.00 62.32 LIG-0.34  N 
ATOM     10 H    PHE C 177     -71.588  -8.263  20.217  1.00 62.32 LIG 0.16  HD
ATOM     11 O    PRO C 176     -72.624 -11.116  20.111  1.00 62.88 LIG-0.27  OA
BRANCH 9 12
ATOM     12  CA  PHE C 177     -72.776  -8.710  18.697  1.00 61.42 LIG 0.19  C 
BRANCH 12 13
ATOM     13  CB  PHE C 177     -72.302  -9.601  17.532  1.00 59.64 LIG 0.07  C 
BRANCH 13 14
ATOM     14  CG  PHE C 177     -70.884 -10.090  17.666  1.00 58.09 LIG-0.06  A 
ATOM     15  CD1 PHE C 177     -69.836  -9.192  17.864  1.00 57.17 LIG 0.01  A 
ATOM     16  CE1 PHE C 177     -68.520  -9.643  17.992  1.00 55.93 LIG 0.00  A 
ATOM     17  CZ  PHE C 177     -68.246 -11.006  17.931  1.00 55.64 LIG 0.00  A 
ATOM     18  CE2 PHE C 177     -69.287 -11.915  17.741  1.00 56.04 LIG 0.00  A 
ATOM     19  CD2 PHE C 177     -70.597 -11.452  17.613  1.00 56.91 LIG 0.01  A 
ENDBRANCH 13 14
ENDBRANCH 12 13
BRANCH 12 20
ATOM     20  C   PHE C 177     -74.280  -8.860  18.927  1.00 62.04 LIG 0.20  C 
ATOM     21 O    PHE C 177     -74.724  -9.355  19.964  1.00 62.52 LIG-0.65  OA
ATOM     22 OXT  PHE C 177     -75.091  -8.485  18.078  1.00 62.11 LIG-0.65  OA
ENDBRANCH 12 20
ENDBRANCH 9 12
ENDBRANCH 4 8
BRANCH 1 23
ATOM     23  CA  ILE C 175     -68.924  -7.176  22.511  1.00 65.77 LIG 0.18  C 
BRANCH 23 24
ATOM     24  CB  ILE C 175     -69.385  -5.884  21.785  1.00 65.27 LIG 0.01  C 
ATOM     25  CG2 ILE C 175     -68.223  -5.244  21.032  1.00 63.89 LIG 0.01  C 
BRANCH 24 26
ATOM     26  CG1 ILE C 175     -70.546  -6.195  20.830  1.00 65.41 LIG 0.00  C 
ATOM     27  CD1 ILE C 175     -70.175  -6.173  19.357  1.00 65.60 LIG 0.01  C 
ENDBRANCH 24 26
ENDBRANCH 23 24
BRANCH 23 28
ATOM     28  N   ILE C 175     -67.468  -7.212  22.659  1.00 67.68 LIG-0.34  N 
ATOM     29 H    ILE C 175     -67.074  -7.740  22.106  1.00 67.68 LIG 0.16  HD
ATOM     30  C   ASP C 174     -66.818  -6.490  23.571  1.00 68.58 LIG 0.26  C 
ATOM     31 O    ASP C 174     -67.383  -5.763  24.394  1.00 68.06 LIG-0.27  OA
BRANCH 30 32
ATOM     32  CA  ASP C 174     -65.297  -6.605  23.546  1.00 70.51 LIG 0.41  C 
ATOM     33  N   ASP C 174     -64.841  -7.361  22.341  1.00 70.88 LIG 0.61  N 
BRANCH 32 34
ATOM     34  CB  ASP C 174     -64.657  -5.211  23.589  1.00 71.81 LIG 0.16  C 
BRANCH 34 35
ATOM     35  CG  ASP C 174     -65.122  -4.315  22.451  1.00 74.09 LIG 0.17  C 
ATOM     36 OD1  ASP C 174     -66.108  -3.566  22.633  1.00 74.88 LIG-0.65  OA
ATOM     37 OD2  ASP C 174     -64.496  -4.356  21.370  1.00 75.75 LIG-0.65  OA
ENDBRANCH 34 35
ENDBRANCH 32 34
ENDBRANCH 30 32
ENDBRANCH 23 28
ENDBRANCH 1 23
TORSDOF 12
ENDMDL
MODEL 26
USER: ADFR SOLUTION from run 134
USER: SCORE 12.285231 LL:  -2.904 LR:  -9.604 RR:   0.000 FEB:  -6.024
USER: RMSD 7.883155
USER: SEED 133
USER: STATUS no improvement in best in 12 clusters for 5 generations
USER: GENES 14
USER: genes 0 Translation |==|  0.53941 0.42796 0.35015
USER: genes 1 Rotation |==|  0.80977 0.20217 0.30875 0.66960
USER: genes 2 Torsion [N]-CA--C-[O] |==|  0.71152
USER: genes 3 Torsion [C]-N--CA-[CB] |==|  0.57774
USER: genes 4 Torsion [N]-CA--CB-[CG] |==|  0.77875
USER: genes 5 Torsion [CA]-CB--CG-[CD2] |==|  0.31756
USER: genes 6 Torsion [N]-CA--C-[OXT] |==|  0.81717
USER: genes 7 Torsion [N]-C--CA-[N] |==|  0.40829
USER: genes 8 Torsion [C]-CA--CB-[CG2] |==|  0.40113
USER: genes 9 Torsion [CA]-CB--CG1-[CD1] |==|  0.20881
USER: genes 10 Torsion [C]-CA--N-[C] |==|  0.57483
USER: genes 11 Torsion [N]-C--CA-[N] |==|  0.64699
USER: genes 12 Torsion [C]-CA--CB-[CG] |==|  0.77975
USER: genes 13 Torsion [CA]-CB--CG-[OD1] |==|  0.71728
ROOT
ATOM      1  C   ILE C 175     -71.405 -10.799  20.473  1.00 65.51 LIG 0.24  C 
ATOM      2 O    ILE C 175     -71.636  -9.622  20.768  1.00 66.37 LIG-0.27  OA
ATOM      3  N   PRO C 176     -71.308 -11.781  21.397  1.00 64.39 LIG-0.34  N 
ATOM      4  CA  PRO C 176     -71.574 -11.558  22.823  1.00 64.23 LIG 0.18  C 
ATOM      5  CB  PRO C 176     -71.993 -12.953  23.327  1.00 63.87 LIG 0.04  C 
ATOM      6  CG  PRO C 176     -71.816 -13.904  22.154  1.00 63.56 LIG 0.02  C 
ATOM      7  CD  PRO C 176     -70.999 -13.194  21.128  1.00 63.45 LIG 0.13  C 
ENDROOT
BRANCH 4 8
ATOM      8  C   PRO C 176     -70.376 -11.028  23.628  1.00 63.07 LIG 0.24  C 
ATOM      9  N   PHE C 177     -70.075  -9.738  23.486  1.00 62.32 LIG-0.34  N 
ATOM     10 H    PHE C 177     -70.473  -9.214  22.932  1.00 62.32 LIG 0.16  HD
ATOM     11 O    PRO C 176     -69.746 -11.788  24.370  1.00 62.88 LIG-0.27  OA
BRANCH 9 12
ATOM     12  CA  PHE C 177     -69.023  -9.090  24.276  1.00 61.42 LIG 0.19  C 
BRANCH 12 13
ATOM     13  CB  PHE C 177     -69.298  -7.585  24.468  1.00 59.64 LIG 0.07  C 
BRANCH 13 14
ATOM     14  CG  PHE C 177     -68.931  -6.734  23.281  1.00 58.09 LIG-0.06  A 
ATOM     15  CD1 PHE C 177     -67.605  -6.615  22.870  1.00 57.17 LIG 0.01  A 
ATOM     16  CE1 PHE C 177     -67.263  -5.830  21.767  1.00 55.93 LIG 0.00  A 
ATOM     17  CZ  PHE C 177     -68.257  -5.160  21.059  1.00 55.64 LIG 0.00  A 
ATOM     18  CE2 PHE C 177     -69.589  -5.276  21.456  1.00 56.04 LIG 0.00  A 
ATOM     19  CD2 PHE C 177     -69.918  -6.063  22.561  1.00 56.91 LIG 0.01  A 
ENDBRANCH 13 14
ENDBRANCH 12 13
BRANCH 12 20
ATOM     20  C   PHE C 177     -68.801  -9.784  25.620  1.00 62.04 LIG 0.20  C 
ATOM     21 O    PHE C 177     -67.744 -10.360  25.877  1.00 62.52 LIG-0.65  OA
ATOM     22 OXT  PHE C 177     -69.678  -9.783  26.485  1.00 62.11 LIG-0.65  OA
ENDBRANCH 12 20
ENDBRANCH 9 12
ENDBRANCH 4 8
BRANCH 1 23
ATOM     23  CA  ILE C 175     -71.216 -11.199  19.006  1.00 65.77 LIG 0.18  C 
BRANCH 23 24
ATOM     24  CB  ILE C 175     -69.721 -11.111  18.597  1.00 65.27 LIG 0.01  C 
ATOM     25  CG2 ILE C 175     -69.364 -12.220  17.612  1.00 63.89 LIG 0.01  C 
BRANCH 24 26
ATOM     26  CG1 ILE C 175     -69.412  -9.732  17.998  1.00 65.41 LIG 0.00  C 
ATOM     27  CD1 ILE C 175     -69.316  -8.609  19.016  1.00 65.60 LIG 0.01  C 
ENDBRANCH 24 26
ENDBRANCH 23 24
BRANCH 23 28
ATOM     28  N   ILE C 175     -72.053 -10.366  18.140  1.00 67.68 LIG-0.34  N 
ATOM     29 H    ILE C 175     -72.228  -9.590  18.466  1.00 67.68 LIG 0.16  HD
ATOM     30  C   ASP C 174     -72.501 -10.781  16.955  1.00 68.58 LIG 0.26  C 
ATOM     31 O    ASP C 174     -72.285 -11.910  16.502  1.00 68.06 LIG-0.27  OA
BRANCH 30 32
ATOM     32  CA  ASP C 174     -73.311  -9.763  16.160  1.00 70.51 LIG 0.41  C 
ATOM     33  N   ASP C 174     -74.626 -10.339  15.745  1.00 70.88 LIG 0.61  N 
BRANCH 32 34
ATOM     34  CB  ASP C 174     -73.513  -8.483  16.982  1.00 71.81 LIG 0.16  C 
BRANCH 34 35
ATOM     35  CG  ASP C 174     -74.620  -8.616  18.017  1.00 74.09 LIG 0.17  C 
ATOM     36 OD1  ASP C 174     -75.739  -8.110  17.776  1.00 74.88 LIG-0.65  OA
ATOM     37 OD2  ASP C 174     -74.372  -9.235  19.074  1.00 75.75 LIG-0.65  OA
ENDBRANCH 34 35
ENDBRANCH 32 34
ENDBRANCH 30 32
ENDBRANCH 23 28
ENDBRANCH 1 23
TORSDOF 12
ENDMDL
MODEL 27
USER: ADFR SOLUTION from run 134
USER: SCORE 12.644351 LL:  -3.241 LR:  -9.537 RR:   0.000 FEB:  -5.958
USER: RMSD 8.528646
USER: SEED 133
USER: STATUS no improvement in best in 12 clusters for 5 generations
USER: GENES 14
USER: genes 0 Translation |==|  0.57136 0.57100 0.21217
USER: genes 1 Rotation |==|  0.00605 0.51336 0.49125 0.57586
USER: genes 2 Torsion [N]-CA--C-[O] |==|  0.61284
USER: genes 3 Torsion [C]-N--CA-[CB] |==|  0.23687
USER: genes 4 Torsion [N]-CA--CB-[CG] |==|  0.66633
USER: genes 5 Torsion [CA]-CB--CG-[CD2] |==|  0.68467
USER: genes 6 Torsion [N]-CA--C-[OXT] |==|  0.03517
USER: genes 7 Torsion [N]-C--CA-[N] |==|  0.48258
USER: genes 8 Torsion [C]-CA--CB-[CG2] |==|  0.57282
USER: genes 9 Torsion [CA]-CB--CG1-[CD1] |==|  0.38149
USER: genes 10 Torsion [C]-CA--N-[C] |==|  0.78888
USER: genes 11 Torsion [N]-C--CA-[N] |==|  0.39788
USER: genes 12 Torsion [C]-CA--CB-[CG] |==|  0.80071
USER: genes 13 Torsion [CA]-CB--CG-[OD1] |==|  0.70499
ROOT
ATOM      1  C   ILE C 175     -70.926  -8.439  17.576  1.00 65.51 LIG 0.24  C 
ATOM      2 O    ILE C 175     -72.127  -8.622  17.355  1.00 66.37 LIG-0.27  OA
ATOM      3  N   PRO C 176     -70.075  -9.442  17.887  1.00 64.39 LIG-0.34  N 
ATOM      4  CA  PRO C 176     -70.479 -10.853  17.888  1.00 64.23 LIG 0.18  C 
ATOM      5  CB  PRO C 176     -69.156 -11.600  17.631  1.00 63.87 LIG 0.04  C 
ATOM      6  CG  PRO C 176     -68.062 -10.544  17.622  1.00 63.56 LIG 0.02  C 
ATOM      7  CD  PRO C 176     -68.644  -9.299  18.199  1.00 63.45 LIG 0.13  C 
ENDROOT
BRANCH 4 8
ATOM      8  C   PRO C 176     -71.131 -11.338  19.193  1.00 63.07 LIG 0.24  C 
ATOM      9  N   PHE C 177     -71.992 -10.510  19.783  1.00 62.32 LIG-0.34  N 
ATOM     10 H    PHE C 177     -72.152  -9.711  19.506  1.00 62.32 LIG 0.16  HD
ATOM     11 O    PRO C 176     -70.854 -12.453  19.644  1.00 62.88 LIG-0.27  OA
BRANCH 9 12
ATOM     12  CA  PHE C 177     -72.757 -10.896  20.974  1.00 61.42 LIG 0.19  C 
BRANCH 12 13
ATOM     13  CB  PHE C 177     -71.956 -10.657  22.269  1.00 59.64 LIG 0.07  C 
BRANCH 13 14
ATOM     14  CG  PHE C 177     -71.721 -11.899  23.088  1.00 58.09 LIG-0.06  A 
ATOM     15  CD1 PHE C 177     -70.897 -12.920  22.616  1.00 57.17 LIG 0.01  A 
ATOM     16  CE1 PHE C 177     -70.675 -14.070  23.375  1.00 55.93 LIG 0.00  A 
ATOM     17  CZ  PHE C 177     -71.273 -14.203  24.625  1.00 55.64 LIG 0.00  A 
ATOM     18  CE2 PHE C 177     -72.093 -13.185  25.112  1.00 56.04 LIG 0.00  A 
ATOM     19  CD2 PHE C 177     -72.309 -12.040  24.343  1.00 56.91 LIG 0.01  A 
ENDBRANCH 13 14
ENDBRANCH 12 13
BRANCH 12 20
ATOM     20  C   PHE C 177     -74.118 -10.204  21.033  1.00 62.04 LIG 0.20  C 
ATOM     21 O    PHE C 177     -74.800 -10.216  22.059  1.00 62.52 LIG-0.65  OA
ATOM     22 OXT  PHE C 177     -74.570  -9.610  20.053  1.00 62.11 LIG-0.65  OA
ENDBRANCH 12 20
ENDBRANCH 9 12
ENDBRANCH 4 8
BRANCH 1 23
ATOM     23  CA  ILE C 175     -70.339  -7.024  17.500  1.00 65.77 LIG 0.18  C 
BRANCH 23 24
ATOM     24  CB  ILE C 175     -69.778  -6.584  18.878  1.00 65.27 LIG 0.01  C 
ATOM     25  CG2 ILE C 175     -69.798  -5.064  19.008  1.00 63.89 LIG 0.01  C 
BRANCH 24 26
ATOM     26  CG1 ILE C 175     -70.580  -7.237  20.013  1.00 65.41 LIG 0.00  C 
ATOM     27  CD1 ILE C 175     -69.734  -7.767  21.158  1.00 65.60 LIG 0.01  C 
ENDBRANCH 24 26
ENDBRANCH 23 24
BRANCH 23 28
ATOM     28  N   ILE C 175     -71.347  -6.082  17.010  1.00 67.68 LIG-0.34  N 
ATOM     29 H    ILE C 175     -71.686  -5.584  17.623  1.00 67.68 LIG 0.16  HD
ATOM     30  C   ASP C 174     -71.702  -6.008  15.728  1.00 68.58 LIG 0.26  C 
ATOM     31 O    ASP C 174     -71.246  -6.749  14.851  1.00 68.06 LIG-0.27  OA
BRANCH 30 32
ATOM     32  CA  ASP C 174     -72.724  -4.929  15.384  1.00 70.51 LIG 0.41  C 
ATOM     33  N   ASP C 174     -72.428  -4.324  14.050  1.00 70.88 LIG 0.61  N 
BRANCH 32 34
ATOM     34  CB  ASP C 174     -74.143  -5.512  15.414  1.00 71.81 LIG 0.16  C 
BRANCH 34 35
ATOM     35  CG  ASP C 174     -74.422  -6.444  14.245  1.00 74.09 LIG 0.17  C 
ATOM     36 OD1  ASP C 174     -75.163  -6.047  13.318  1.00 74.88 LIG-0.65  OA
ATOM     37 OD2  ASP C 174     -73.895  -7.577  14.251  1.00 75.75 LIG-0.65  OA
ENDBRANCH 34 35
ENDBRANCH 32 34
ENDBRANCH 30 32
ENDBRANCH 23 28
ENDBRANCH 1 23
TORSDOF 12
ENDMDL
MODEL 28
USER: ADFR SOLUTION from run 88
USER: SCORE 12.441486 LL:  -2.938 LR:  -9.509 RR:   0.000 FEB:  -5.930
USER: RMSD 4.656741
USER: SEED 87
USER: STATUS no improvement in best in 13 clusters for 5 generations
USER: GENES 14
USER: genes 0 Translation |==|  0.56580 0.52206 0.39768
USER: genes 1 Rotation |==|  0.32231 0.66930 0.40344 0.92478
USER: genes 2 Torsion [N]-CA--C-[O] |==|  0.97737
USER: genes 3 Torsion [C]-N--CA-[CB] |==|  0.41080
USER: genes 4 Torsion [N]-CA--CB-[CG] |==|  0.44095
USER: genes 5 Torsion [CA]-CB--CG-[CD2] |==|  0.66874
USER: genes 6 Torsion [N]-CA--C-[OXT] |==|  0.26121
USER: genes 7 Torsion [N]-C--CA-[N] |==|  0.39436
USER: genes 8 Torsion [C]-CA--CB-[CG2] |==|  0.89897
USER: genes 9 Torsion [CA]-CB--CG1-[CD1] |==|  0.33850
USER: genes 10 Torsion [C]-CA--N-[C] |==|  0.83710
USER: genes 11 Torsion [N]-C--CA-[N] |==|  0.91642
USER: genes 12 Torsion [C]-CA--CB-[CG] |==|  0.82724
USER: genes 13 Torsion [CA]-CB--CG-[OD1] |==|  0.41616
ROOT
ATOM      1  C   ILE C 175     -71.009  -9.246  21.471  1.00 65.51 LIG 0.24  C 
ATOM      2 O    ILE C 175     -71.740  -8.317  21.829  1.00 66.37 LIG-0.27  OA
ATOM      3  N   PRO C 176     -70.700  -9.479  20.176  1.00 64.39 LIG-0.34  N 
ATOM      4  CA  PRO C 176     -71.117  -8.587  19.088  1.00 64.23 LIG 0.18  C 
ATOM      5  CB  PRO C 176     -70.053  -8.833  18.000  1.00 63.87 LIG 0.04  C 
ATOM      6  CG  PRO C 176     -69.164  -9.953  18.517  1.00 63.56 LIG 0.02  C 
ATOM      7  CD  PRO C 176     -69.869 -10.583  19.669  1.00 63.45 LIG 0.13  C 
ENDROOT
BRANCH 4 8
ATOM      8  C   PRO C 176     -72.527  -8.855  18.538  1.00 63.07 LIG 0.24  C 
ATOM      9  N   PHE C 177     -73.013  -7.977  17.662  1.00 62.32 LIG-0.34  N 
ATOM     10 H    PHE C 177     -72.608  -7.250  17.441  1.00 62.32 LIG 0.16  HD
ATOM     11 O    PRO C 176     -73.153  -9.855  18.905  1.00 62.88 LIG-0.27  OA
BRANCH 9 12
ATOM     12  CA  PHE C 177     -74.301  -8.175  16.988  1.00 61.42 LIG 0.19  C 
BRANCH 12 13
ATOM     13  CB  PHE C 177     -75.007  -6.835  16.700  1.00 59.64 LIG 0.07  C 
BRANCH 13 14
ATOM     14  CG  PHE C 177     -76.038  -6.904  15.604  1.00 58.09 LIG-0.06  A 
ATOM     15  CD1 PHE C 177     -77.156  -7.728  15.727  1.00 57.17 LIG 0.01  A 
ATOM     16  CE1 PHE C 177     -78.115  -7.791  14.715  1.00 55.93 LIG 0.00  A 
ATOM     17  CZ  PHE C 177     -77.964  -7.017  13.568  1.00 55.64 LIG 0.00  A 
ATOM     18  CE2 PHE C 177     -76.854  -6.183  13.436  1.00 56.04 LIG 0.00  A 
ATOM     19  CD2 PHE C 177     -75.901  -6.130  14.454  1.00 56.91 LIG 0.01  A 
ENDBRANCH 13 14
ENDBRANCH 12 13
BRANCH 12 20
ATOM     20  C   PHE C 177     -74.161  -9.008  15.714  1.00 62.04 LIG 0.20  C 
ATOM     21 O    PHE C 177     -73.871  -8.487  14.636  1.00 62.52 LIG-0.65  OA
ATOM     22 OXT  PHE C 177     -74.333 -10.228  15.733  1.00 62.11 LIG-0.65  OA
ENDBRANCH 12 20
ENDBRANCH 9 12
ENDBRANCH 4 8
BRANCH 1 23
ATOM     23  CA  ILE C 175     -70.408 -10.195  22.514  1.00 65.77 LIG 0.18  C 
BRANCH 23 24
ATOM     24  CB  ILE C 175     -71.395 -11.345  22.849  1.00 65.27 LIG 0.01  C 
ATOM     25  CG2 ILE C 175     -72.835 -10.840  22.842  1.00 63.89 LIG 0.01  C 
BRANCH 24 26
ATOM     26  CG1 ILE C 175     -71.221 -12.503  21.856  1.00 65.41 LIG 0.00  C 
ATOM     27  CD1 ILE C 175     -70.871 -13.835  22.497  1.00 65.60 LIG 0.01  C 
ENDBRANCH 24 26
ENDBRANCH 23 24
BRANCH 23 28
ATOM     28  N   ILE C 175     -70.029  -9.452  23.718  1.00 67.68 LIG-0.34  N 
ATOM     29 H    ILE C 175     -70.418  -9.727  24.434  1.00 67.68 LIG 0.16  HD
ATOM     30  C   ASP C 174     -69.159  -8.443  23.699  1.00 68.58 LIG 0.26  C 
ATOM     31 O    ASP C 174     -68.629  -8.020  22.666  1.00 68.06 LIG-0.27  OA
BRANCH 30 32
ATOM     32  CA  ASP C 174     -68.835  -7.820  25.052  1.00 70.51 LIG 0.41  C 
ATOM     33  N   ASP C 174     -70.002  -7.928  25.979  1.00 70.88 LIG 0.61  N 
BRANCH 32 34
ATOM     34  CB  ASP C 174     -67.593  -8.486  25.661  1.00 71.81 LIG 0.16  C 
BRANCH 34 35
ATOM     35  CG  ASP C 174     -67.793  -9.970  25.931  1.00 74.09 LIG 0.17  C 
ATOM     36 OD1  ASP C 174     -66.805 -10.735  25.870  1.00 74.88 LIG-0.65  OA
ATOM     37 OD2  ASP C 174     -68.943 -10.372  26.209  1.00 75.75 LIG-0.65  OA
ENDBRANCH 34 35
ENDBRANCH 32 34
ENDBRANCH 30 32
ENDBRANCH 23 28
ENDBRANCH 1 23
TORSDOF 12
ENDMDL
MODEL 29
USER: ADFR SOLUTION from run 9
USER: SCORE 12.612048 LL:  -3.219 LR:  -9.477 RR:   0.000 FEB:  -5.897
USER: RMSD 5.396216
USER: SEED 860163
USER: STATUS no improvement in best in 11 clusters for 5 generations
USER: GENES 14
USER: genes 0 Translation |==|  0.66832 0.50966 0.56385
USER: genes 1 Rotation |==|  0.54233 0.63152 0.95174 0.66384
USER: genes 2 Torsion [N]-CA--C-[O] |==|  0.31813
USER: genes 3 Torsion [C]-N--CA-[CB] |==|  0.81537
USER: genes 4 Torsion [N]-CA--CB-[CG] |==|  0.69388
USER: genes 5 Torsion [CA]-CB--CG-[CD2] |==|  0.07832
USER: genes 6 Torsion [N]-CA--C-[OXT] |==|  0.19969
USER: genes 7 Torsion [N]-C--CA-[N] |==|  0.46578
USER: genes 8 Torsion [C]-CA--CB-[CG2] |==|  0.60505
USER: genes 9 Torsion [CA]-CB--CG1-[CD1] |==|  0.54958
USER: genes 10 Torsion [C]-CA--N-[C] |==|  0.80556
USER: genes 11 Torsion [N]-C--CA-[N] |==|  0.45912
USER: genes 12 Torsion [C]-CA--CB-[CG] |==|  0.87692
USER: genes 13 Torsion [CA]-CB--CG-[OD1] |==|  0.32435
ROOT
ATOM      1  C   ILE C 175     -69.471  -9.451  24.961  1.00 65.51 LIG 0.24  C 
ATOM      2 O    ILE C 175     -68.680 -10.360  25.230  1.00 66.37 LIG-0.27  OA
ATOM      3  N   PRO C 176     -70.809  -9.635  24.904  1.00 64.39 LIG-0.34  N 
ATOM      4  CA  PRO C 176     -71.451 -10.906  25.262  1.00 64.23 LIG 0.18  C 
ATOM      5  CB  PRO C 176     -72.869 -10.479  25.687  1.00 63.87 LIG 0.04  C 
ATOM      6  CG  PRO C 176     -72.965  -8.985  25.421  1.00 63.56 LIG 0.02  C 
ATOM      7  CD  PRO C 176     -71.810  -8.614  24.555  1.00 63.45 LIG 0.13  C 
ENDROOT
BRANCH 4 8
ATOM      8  C   PRO C 176     -71.513 -11.940  24.126  1.00 63.07 LIG 0.24  C 
ATOM      9  N   PHE C 177     -72.259 -11.631  23.066  1.00 62.32 LIG-0.34  N 
ATOM     10 H    PHE C 177     -72.745 -10.922  23.015  1.00 62.32 LIG 0.16  HD
ATOM     11 O    PRO C 176     -70.882 -12.997  24.218  1.00 62.88 LIG-0.27  OA
BRANCH 9 12
ATOM     12  CA  PHE C 177     -72.318 -12.485  21.875  1.00 61.42 LIG 0.19  C 
BRANCH 12 13
ATOM     13  CB  PHE C 177     -70.966 -12.528  21.136  1.00 59.64 LIG 0.07  C 
BRANCH 13 14
ATOM     14  CG  PHE C 177     -70.967 -11.822  19.805  1.00 58.09 LIG-0.06  A 
ATOM     15  CD1 PHE C 177     -70.120 -12.235  18.777  1.00 57.17 LIG 0.01  A 
ATOM     16  CE1 PHE C 177     -70.123 -11.585  17.542  1.00 55.93 LIG 0.00  A 
ATOM     17  CZ  PHE C 177     -70.985 -10.515  17.323  1.00 55.64 LIG 0.00  A 
ATOM     18  CE2 PHE C 177     -71.843 -10.097  18.341  1.00 56.04 LIG 0.00  A 
ATOM     19  CD2 PHE C 177     -71.831 -10.753  19.572  1.00 56.91 LIG 0.01  A 
ENDBRANCH 13 14
ENDBRANCH 12 13
BRANCH 12 20
ATOM     20  C   PHE C 177     -72.811 -13.894  22.202  1.00 62.04 LIG 0.20  C 
ATOM     21 O    PHE C 177     -72.046 -14.860  22.189  1.00 62.52 LIG-0.65  OA
ATOM     22 OXT  PHE C 177     -73.991 -14.102  22.490  1.00 62.11 LIG-0.65  OA
ENDBRANCH 12 20
ENDBRANCH 9 12
ENDBRANCH 4 8
BRANCH 1 23
ATOM     23  CA  ILE C 175     -68.948  -8.039  24.674  1.00 65.77 LIG 0.18  C 
BRANCH 23 24
ATOM     24  CB  ILE C 175     -69.158  -7.664  23.183  1.00 65.27 LIG 0.01  C 
ATOM     25  CG2 ILE C 175     -67.975  -6.857  22.657  1.00 63.89 LIG 0.01  C 
BRANCH 24 26
ATOM     26  CG1 ILE C 175     -69.371  -8.929  22.340  1.00 65.41 LIG 0.00  C 
ATOM     27  CD1 ILE C 175     -69.164  -8.734  20.847  1.00 65.60 LIG 0.01  C 
ENDBRANCH 24 26
ENDBRANCH 23 24
BRANCH 23 28
ATOM     28  N   ILE C 175     -67.538  -7.932  25.056  1.00 67.68 LIG-0.34  N 
ATOM     29 H    ILE C 175     -67.001  -7.862  24.388  1.00 67.68 LIG 0.16  HD
ATOM     30  C   ASP C 174     -67.132  -7.943  26.324  1.00 68.58 LIG 0.26  C 
ATOM     31 O    ASP C 174     -67.898  -8.085  27.284  1.00 68.06 LIG-0.27  OA
BRANCH 30 32
ATOM     32  CA  ASP C 174     -65.634  -7.763  26.543  1.00 70.51 LIG 0.41  C 
ATOM     33  N   ASP C 174     -65.340  -7.439  27.971  1.00 70.88 LIG 0.61  N 
BRANCH 32 34
ATOM     34  CB  ASP C 174     -64.876  -9.024  26.105  1.00 71.81 LIG 0.16  C 
BRANCH 34 35
ATOM     35  CG  ASP C 174     -65.542 -10.306  26.582  1.00 74.09 LIG 0.17  C 
ATOM     36 OD1  ASP C 174     -65.981 -11.113  25.732  1.00 74.88 LIG-0.65  OA
ATOM     37 OD2  ASP C 174     -65.622 -10.510  27.812  1.00 75.75 LIG-0.65  OA
ENDBRANCH 34 35
ENDBRANCH 32 34
ENDBRANCH 30 32
ENDBRANCH 23 28
ENDBRANCH 1 23
TORSDOF 12
ENDMDL
MODEL 30
USER: ADFR SOLUTION from run 100
USER: SCORE 12.456958 LL:  -3.249 LR:  -9.479 RR:   0.000 FEB:  -5.899
USER: RMSD 4.006446
USER: SEED 99
USER: STATUS no improvement in best in 5 clusters for 5 generations
USER: GENES 14
USER: genes 0 Translation |==|  0.61230 0.51438 0.36794
USER: genes 1 Rotation |==|  0.41490 0.68631 0.28634 0.90299
USER: genes 2 Torsion [N]-CA--C-[O] |==|  0.47020
USER: genes 3 Torsion [C]-N--CA-[CB] |==|  0.23151
USER: genes 4 Torsion [N]-CA--CB-[CG] |==|  0.70006
USER: genes 5 Torsion [CA]-CB--CG-[CD2] |==|  0.75113
USER: genes 6 Torsion [N]-CA--C-[OXT] |==|  0.99361
USER: genes 7 Torsion [N]-C--CA-[N] |==|  0.50000
USER: genes 8 Torsion [C]-CA--CB-[CG2] |==|  0.38745
USER: genes 9 Torsion [CA]-CB--CG1-[CD1] |==|  0.65831
USER: genes 10 Torsion [C]-CA--N-[C] |==|  0.56560
USER: genes 11 Torsion [N]-C--CA-[N] |==|  0.12092
USER: genes 12 Torsion [C]-CA--CB-[CG] |==|  0.83780
USER: genes 13 Torsion [CA]-CB--CG-[OD1] |==|  0.87281
ROOT
ATOM      1  C   ILE C 175     -70.312  -9.373  20.847  1.00 65.51 LIG 0.24  C 
ATOM      2 O    ILE C 175     -70.493  -8.232  21.283  1.00 66.37 LIG-0.27  OA
ATOM      3  N   PRO C 176     -69.941  -9.620  19.570  1.00 64.39 LIG-0.34  N 
ATOM      4  CA  PRO C 176     -69.618  -8.553  18.617  1.00 64.23 LIG 0.18  C 
ATOM      5  CB  PRO C 176     -68.667  -9.244  17.621  1.00 63.87 LIG 0.04  C 
ATOM      6  CG  PRO C 176     -68.615 -10.709  18.024  1.00 63.56 LIG 0.02  C 
ATOM      7  CD  PRO C 176     -69.743 -10.948  18.969  1.00 63.45 LIG 0.13  C 
ENDROOT
BRANCH 4 8
ATOM      8  C   PRO C 176     -70.829  -7.953  17.884  1.00 63.07 LIG 0.24  C 
ATOM      9  N   PHE C 177     -71.993  -8.586  18.019  1.00 62.32 LIG-0.34  N 
ATOM     10 H    PHE C 177     -72.084  -9.332  18.438  1.00 62.32 LIG 0.16  HD
ATOM     11 O    PRO C 176     -70.697  -6.924  17.213  1.00 62.88 LIG-0.27  OA
BRANCH 9 12
ATOM     12  CA  PHE C 177     -73.240  -8.059  17.455  1.00 61.42 LIG 0.19  C 
BRANCH 12 13
ATOM     13  CB  PHE C 177     -73.398  -8.431  15.968  1.00 59.64 LIG 0.07  C 
BRANCH 13 14
ATOM     14  CG  PHE C 177     -73.213  -7.275  15.019  1.00 58.09 LIG-0.06  A 
ATOM     15  CD1 PHE C 177     -71.959  -6.984  14.485  1.00 57.17 LIG 0.01  A 
ATOM     16  CE1 PHE C 177     -71.786  -5.916  13.602  1.00 55.93 LIG 0.00  A 
ATOM     17  CZ  PHE C 177     -72.878  -5.132  13.241  1.00 55.64 LIG 0.00  A 
ATOM     18  CE2 PHE C 177     -74.139  -5.418  13.763  1.00 56.04 LIG 0.00  A 
ATOM     19  CD2 PHE C 177     -74.300  -6.487  14.645  1.00 56.91 LIG 0.01  A 
ENDBRANCH 13 14
ENDBRANCH 12 13
BRANCH 12 20
ATOM     20  C   PHE C 177     -74.464  -8.490  18.263  1.00 62.04 LIG 0.20  C 
ATOM     21 O    PHE C 177     -75.597  -8.111  17.963  1.00 62.52 LIG-0.65  OA
ATOM     22 OXT  PHE C 177     -74.349  -9.235  19.238  1.00 62.11 LIG-0.65  OA
ENDBRANCH 12 20
ENDBRANCH 9 12
ENDBRANCH 4 8
BRANCH 1 23
ATOM     23  CA  ILE C 175     -70.504 -10.584  21.766  1.00 65.77 LIG 0.18  C 
BRANCH 23 24
ATOM     24  CB  ILE C 175     -71.538 -11.574  21.165  1.00 65.27 LIG 0.01  C 
ATOM     25  CG2 ILE C 175     -71.085 -13.017  21.370  1.00 63.89 LIG 0.01  C 
BRANCH 24 26
ATOM     26  CG1 ILE C 175     -72.921 -11.345  21.790  1.00 65.41 LIG 0.00  C 
ATOM     27  CD1 ILE C 175     -73.523 -12.571  22.456  1.00 65.60 LIG 0.01  C 
ENDBRANCH 24 26
ENDBRANCH 23 24
BRANCH 23 28
ATOM     28  N   ILE C 175     -70.902 -10.148  23.106  1.00 67.68 LIG-0.34  N 
ATOM     29 H    ILE C 175     -71.276  -9.373  23.123  1.00 67.68 LIG 0.16  HD
ATOM     30  C   ASP C 174     -70.701 -10.888  24.194  1.00 68.58 LIG 0.26  C 
ATOM     31 O    ASP C 174     -70.128 -11.983  24.178  1.00 68.06 LIG-0.27  OA
BRANCH 30 32
ATOM     32  CA  ASP C 174     -71.231 -10.306  25.500  1.00 70.51 LIG 0.41  C 
ATOM     33  N   ASP C 174     -72.597  -9.732  25.311  1.00 70.88 LIG 0.61  N 
BRANCH 32 34
ATOM     34  CB  ASP C 174     -71.239 -11.379  26.598  1.00 71.81 LIG 0.16  C 
BRANCH 34 35
ATOM     35  CG  ASP C 174     -72.081 -12.590  26.230  1.00 74.09 LIG 0.17  C 
ATOM     36 OD1  ASP C 174     -73.219 -12.411  25.740  1.00 74.88 LIG-0.65  OA
ATOM     37 OD2  ASP C 174     -71.603 -13.727  26.427  1.00 75.75 LIG-0.65  OA
ENDBRANCH 34 35
ENDBRANCH 32 34
ENDBRANCH 30 32
ENDBRANCH 23 28
ENDBRANCH 1 23
TORSDOF 12
ENDMDL
MODEL 31
USER: ADFR SOLUTION from run 34
USER: SCORE 12.851630 LL:  -3.565 LR:  -9.476 RR:   0.000 FEB:  -5.897
USER: RMSD 8.024803
USER: SEED 33
USER: STATUS no improvement in best in 15 clusters for 5 generations
USER: GENES 14
USER: genes 0 Translation |==|  0.52546 0.44744 0.35127
USER: genes 1 Rotation |==|  0.81866 0.21817 0.28970 0.65750
USER: genes 2 Torsion [N]-CA--C-[O] |==|  0.68119
USER: genes 3 Torsion [C]-N--CA-[CB] |==|  0.53041
USER: genes 4 Torsion [N]-CA--CB-[CG] |==|  0.93747
USER: genes 5 Torsion [CA]-CB--CG-[CD2] |==|  0.28951
USER: genes 6 Torsion [N]-CA--C-[OXT] |==|  0.29505
USER: genes 7 Torsion [N]-C--CA-[N] |==|  0.47156
USER: genes 8 Torsion [C]-CA--CB-[CG2] |==|  0.44266
USER: genes 9 Torsion [CA]-CB--CG1-[CD1] |==|  0.57442
USER: genes 10 Torsion [C]-CA--N-[C] |==|  0.81601
USER: genes 11 Torsion [N]-C--CA-[N] |==|  0.75560
USER: genes 12 Torsion [C]-CA--CB-[CG] |==|  0.36102
USER: genes 13 Torsion [CA]-CB--CG-[OD1] |==|  0.40514
ROOT
ATOM      1  C   ILE C 175     -71.614 -10.477  20.497  1.00 65.51 LIG 0.24  C 
ATOM      2 O    ILE C 175     -71.855  -9.345  20.927  1.00 66.37 LIG-0.27  OA
ATOM      3  N   PRO C 176     -71.477 -11.554  21.302  1.00 64.39 LIG-0.34  N 
ATOM      4  CA  PRO C 176     -71.707 -11.497  22.750  1.00 64.23 LIG 0.18  C 
ATOM      5  CB  PRO C 176     -72.091 -12.947  23.105  1.00 63.87 LIG 0.04  C 
ATOM      6  CG  PRO C 176     -71.933 -13.757  21.829  1.00 63.56 LIG 0.02  C 
ATOM      7  CD  PRO C 176     -71.155 -12.923  20.869  1.00 63.45 LIG 0.13  C 
ENDROOT
BRANCH 4 8
ATOM      8  C   PRO C 176     -70.496 -11.038  23.579  1.00 63.07 LIG 0.24  C 
ATOM      9  N   PHE C 177     -70.082  -9.785  23.402  1.00 62.32 LIG-0.34  N 
ATOM     10 H    PHE C 177     -70.415  -9.251  22.815  1.00 62.32 LIG 0.16  HD
ATOM     11 O    PRO C 176     -69.958 -11.819  24.370  1.00 62.88 LIG-0.27  OA
BRANCH 9 12
ATOM     12  CA  PHE C 177     -69.005  -9.197  24.206  1.00 61.42 LIG 0.19  C 
BRANCH 12 13
ATOM     13  CB  PHE C 177     -68.901  -7.673  23.995  1.00 59.64 LIG 0.07  C 
BRANCH 13 14
ATOM     14  CG  PHE C 177     -69.491  -7.188  22.697  1.00 58.09 LIG-0.06  A 
ATOM     15  CD1 PHE C 177     -68.824  -7.392  21.490  1.00 57.17 LIG 0.01  A 
ATOM     16  CE1 PHE C 177     -69.371  -6.946  20.285  1.00 55.93 LIG 0.00  A 
ATOM     17  CZ  PHE C 177     -70.602  -6.295  20.281  1.00 55.64 LIG 0.00  A 
ATOM     18  CE2 PHE C 177     -71.282  -6.092  21.481  1.00 56.04 LIG 0.00  A 
ATOM     19  CD2 PHE C 177     -70.725  -6.540  22.680  1.00 56.91 LIG 0.01  A 
ENDBRANCH 13 14
ENDBRANCH 12 13
BRANCH 12 20
ATOM     20  C   PHE C 177     -69.142  -9.539  25.689  1.00 62.04 LIG 0.20  C 
ATOM     21 O    PHE C 177     -70.002  -9.007  26.393  1.00 62.52 LIG-0.65  OA
ATOM     22 OXT  PHE C 177     -68.394 -10.360  26.222  1.00 62.11 LIG-0.65  OA
ENDBRANCH 12 20
ENDBRANCH 9 12
ENDBRANCH 4 8
BRANCH 1 23
ATOM     23  CA  ILE C 175     -71.459 -10.708  18.989  1.00 65.77 LIG 0.18  C 
BRANCH 23 24
ATOM     24  CB  ILE C 175     -70.003 -11.114  18.639  1.00 65.27 LIG 0.01  C 
ATOM     25  CG2 ILE C 175     -69.950 -11.822  17.288  1.00 63.89 LIG 0.01  C 
BRANCH 24 26
ATOM     26  CG1 ILE C 175     -69.089  -9.881  18.643  1.00 65.41 LIG 0.00  C 
ATOM     27  CD1 ILE C 175     -67.871  -9.995  17.742  1.00 65.60 LIG 0.01  C 
ENDBRANCH 24 26
ENDBRANCH 23 24
BRANCH 23 28
ATOM     28  N   ILE C 175     -71.871  -9.514  18.248  1.00 67.68 LIG-0.34  N 
ATOM     29 H    ILE C 175     -71.228  -9.125  17.829  1.00 67.68 LIG 0.16  HD
ATOM     30  C   ASP C 174     -73.129  -9.077  18.227  1.00 68.58 LIG 0.26  C 
ATOM     31 O    ASP C 174     -74.046  -9.610  18.860  1.00 68.06 LIG-0.27  OA
BRANCH 30 32
ATOM     32  CA  ASP C 174     -73.392  -7.853  17.357  1.00 70.51 LIG 0.41  C 
ATOM     33  N   ASP C 174     -73.164  -6.593  18.128  1.00 70.88 LIG 0.61  N 
BRANCH 32 34
ATOM     34  CB  ASP C 174     -72.506  -7.891  16.104  1.00 71.81 LIG 0.16  C 
BRANCH 34 35
ATOM     35  CG  ASP C 174     -73.291  -7.665  14.821  1.00 74.09 LIG 0.17  C 
ATOM     36 OD1  ASP C 174     -72.746  -7.050  13.877  1.00 74.88 LIG-0.65  OA
ATOM     37 OD2  ASP C 174     -74.458  -8.108  14.754  1.00 75.75 LIG-0.65  OA
ENDBRANCH 34 35
ENDBRANCH 32 34
ENDBRANCH 30 32
ENDBRANCH 23 28
ENDBRANCH 1 23
TORSDOF 12
ENDMDL
MODEL 32
USER: ADFR SOLUTION from run 175
USER: SCORE 12.639583 LL:  -4.127 LR:  -9.443 RR:   0.000 FEB:  -5.863
USER: RMSD 4.233280
USER: SEED 174
USER: STATUS no improvement in best in 9 clusters for 5 generations
USER: GENES 14
USER: genes 0 Translation |==|  0.57712 0.48305 0.36165
USER: genes 1 Rotation |==|  0.29731 0.71527 0.29776 0.84882
USER: genes 2 Torsion [N]-CA--C-[O] |==|  0.92563
USER: genes 3 Torsion [C]-N--CA-[CB] |==|  0.25520
USER: genes 4 Torsion [N]-CA--CB-[CG] |==|  0.88387
USER: genes 5 Torsion [CA]-CB--CG-[CD2] |==|  0.76226
USER: genes 6 Torsion [N]-CA--C-[OXT] |==|  0.00210
USER: genes 7 Torsion [N]-C--CA-[N] |==|  0.44771
USER: genes 8 Torsion [C]-CA--CB-[CG2] |==|  0.97729
USER: genes 9 Torsion [CA]-CB--CG1-[CD1] |==|  0.26120
USER: genes 10 Torsion [C]-CA--N-[C] |==|  0.19837
USER: genes 11 Torsion [N]-C--CA-[N] |==|  0.63100
USER: genes 12 Torsion [C]-CA--CB-[CG] |==|  0.80147
USER: genes 13 Torsion [CA]-CB--CG-[OD1] |==|  0.48513
ROOT
ATOM      1  C   ILE C 175     -70.839  -9.890  20.715  1.00 65.51 LIG 0.24  C 
ATOM      2 O    ILE C 175     -71.039  -8.674  20.799  1.00 66.37 LIG-0.27  OA
ATOM      3  N   PRO C 176     -70.907 -10.564  19.545  1.00 64.39 LIG-0.34  N 
ATOM      4  CA  PRO C 176     -71.118  -9.898  18.255  1.00 64.23 LIG 0.18  C 
ATOM      5  CB  PRO C 176     -70.479 -10.870  17.245  1.00 63.87 LIG 0.04  C 
ATOM      6  CG  PRO C 176     -70.051 -12.094  18.040  1.00 63.56 LIG 0.02  C 
ATOM      7  CD  PRO C 176     -70.719 -12.013  19.370  1.00 63.45 LIG 0.13  C 
ENDROOT
BRANCH 4 8
ATOM      8  C   PRO C 176     -72.590  -9.634  17.898  1.00 63.07 LIG 0.24  C 
ATOM      9  N   PHE C 177     -72.841  -8.613  17.081  1.00 62.32 LIG-0.34  N 
ATOM     10 H    PHE C 177     -72.238  -8.069  16.798  1.00 62.32 LIG 0.16  HD
ATOM     11 O    PRO C 176     -73.477 -10.360  18.360  1.00 62.88 LIG-0.27  OA
BRANCH 9 12
ATOM     12  CA  PHE C 177     -74.190  -8.323  16.584  1.00 61.42 LIG 0.19  C 
BRANCH 12 13
ATOM     13  CB  PHE C 177     -74.933  -7.326  17.496  1.00 59.64 LIG 0.07  C 
BRANCH 13 14
ATOM     14  CG  PHE C 177     -74.745  -7.579  18.969  1.00 58.09 LIG-0.06  A 
ATOM     15  CD1 PHE C 177     -73.764  -6.899  19.690  1.00 57.17 LIG 0.01  A 
ATOM     16  CE1 PHE C 177     -73.590  -7.128  21.056  1.00 55.93 LIG 0.00  A 
ATOM     17  CZ  PHE C 177     -74.409  -8.040  21.715  1.00 55.64 LIG 0.00  A 
ATOM     18  CE2 PHE C 177     -75.399  -8.721  21.007  1.00 56.04 LIG 0.00  A 
ATOM     19  CD2 PHE C 177     -75.562  -8.485  19.641  1.00 56.91 LIG 0.01  A 
ENDBRANCH 13 14
ENDBRANCH 12 13
BRANCH 12 20
ATOM     20  C   PHE C 177     -74.178  -7.837  15.135  1.00 62.04 LIG 0.20  C 
ATOM     21 O    PHE C 177     -75.219  -7.529  14.552  1.00 62.52 LIG-0.65  OA
ATOM     22 OXT  PHE C 177     -73.121  -7.738  14.509  1.00 62.11 LIG-0.65  OA
ENDBRANCH 12 20
ENDBRANCH 9 12
ENDBRANCH 4 8
BRANCH 1 23
ATOM     23  CA  ILE C 175     -70.496 -10.700  21.970  1.00 65.77 LIG 0.18  C 
BRANCH 23 24
ATOM     24  CB  ILE C 175     -71.714 -11.543  22.434  1.00 65.27 LIG 0.01  C 
ATOM     25  CG2 ILE C 175     -72.960 -11.176  21.634  1.00 63.89 LIG 0.01  C 
BRANCH 24 26
ATOM     26  CG1 ILE C 175     -71.406 -13.041  22.303  1.00 65.41 LIG 0.00  C 
ATOM     27  CD1 ILE C 175     -70.871 -13.688  23.569  1.00 65.60 LIG 0.01  C 
ENDBRANCH 24 26
ENDBRANCH 23 24
BRANCH 23 28
ATOM     28  N   ILE C 175     -70.027  -9.811  23.036  1.00 67.68 LIG-0.34  N 
ATOM     29 H    ILE C 175     -69.185  -9.876  23.198  1.00 67.68 LIG 0.16  HD
ATOM     30  C   ASP C 174     -70.837  -8.980  23.690  1.00 68.58 LIG 0.26  C 
ATOM     31 O    ASP C 174     -72.054  -8.914  23.487  1.00 68.06 LIG-0.27  OA
BRANCH 30 32
ATOM     32  CA  ASP C 174     -70.170  -8.085  24.729  1.00 70.51 LIG 0.41  C 
ATOM     33  N   ASP C 174     -70.935  -8.100  26.012  1.00 70.88 LIG 0.61  N 
BRANCH 32 34
ATOM     34  CB  ASP C 174     -68.718  -8.525  24.957  1.00 71.81 LIG 0.16  C 
BRANCH 34 35
ATOM     35  CG  ASP C 174     -68.612  -9.842  25.710  1.00 74.09 LIG 0.17  C 
ATOM     36 OD1  ASP C 174     -67.484 -10.360  25.870  1.00 74.88 LIG-0.65  OA
ATOM     37 OD2  ASP C 174     -69.662 -10.360  26.148  1.00 75.75 LIG-0.65  OA
ENDBRANCH 34 35
ENDBRANCH 32 34
ENDBRANCH 30 32
ENDBRANCH 23 28
ENDBRANCH 1 23
TORSDOF 12
ENDMDL
MODEL 33
USER: ADFR SOLUTION from run 103
USER: SCORE 12.205675 LL:  -2.918 LR:  -9.426 RR:   0.000 FEB:  -5.846
USER: RMSD 9.027018
USER: SEED 102
USER: STATUS no improvement in best in 6 clusters for 5 generations
USER: GENES 14
USER: genes 0 Translation |==|  0.53422 0.48806 0.37932
USER: genes 1 Rotation |==|  0.80150 0.20533 0.32727 0.70599
USER: genes 2 Torsion [N]-CA--C-[O] |==|  0.03133
USER: genes 3 Torsion [C]-N--CA-[CB] |==|  0.50260
USER: genes 4 Torsion [N]-CA--CB-[CG] |==|  0.17961
USER: genes 5 Torsion [CA]-CB--CG-[CD2] |==|  0.78340
USER: genes 6 Torsion [N]-CA--C-[OXT] |==|  0.39301
USER: genes 7 Torsion [N]-C--CA-[N] |==|  0.46110
USER: genes 8 Torsion [C]-CA--CB-[CG2] |==|  0.42175
USER: genes 9 Torsion [CA]-CB--CG1-[CD1] |==|  0.58838
USER: genes 10 Torsion [C]-CA--N-[C] |==|  0.82170
USER: genes 11 Torsion [N]-C--CA-[N] |==|  0.85397
USER: genes 12 Torsion [C]-CA--CB-[CG] |==|  0.50102
USER: genes 13 Torsion [CA]-CB--CG-[OD1] |==|  0.79036
ROOT
ATOM      1  C   ILE C 175     -71.483  -9.807  21.086  1.00 65.51 LIG 0.24  C 
ATOM      2 O    ILE C 175     -71.783  -8.618  21.229  1.00 66.37 LIG-0.27  OA
ATOM      3  N   PRO C 176     -71.266 -10.639  22.129  1.00 64.39 LIG-0.34  N 
ATOM      4  CA  PRO C 176     -71.472 -10.234  23.524  1.00 64.23 LIG 0.18  C 
ATOM      5  CB  PRO C 176     -71.761 -11.567  24.241  1.00 63.87 LIG 0.04  C 
ATOM      6  CG  PRO C 176     -71.578 -12.662  23.202  1.00 63.56 LIG 0.02  C 
ATOM      7  CD  PRO C 176     -70.869 -12.054  22.039  1.00 63.45 LIG 0.13  C 
ENDROOT
BRANCH 4 8
ATOM      8  C   PRO C 176     -70.275  -9.518  24.172  1.00 63.07 LIG 0.24  C 
ATOM      9  N   PHE C 177     -70.316  -9.344  25.491  1.00 62.32 LIG-0.34  N 
ATOM     10 H    PHE C 177     -70.992  -9.555  25.980  1.00 62.32 LIG 0.16  HD
ATOM     11 O    PRO C 176     -69.330  -9.140  23.472  1.00 62.88 LIG-0.27  OA
BRANCH 9 12
ATOM     12  CA  PHE C 177     -69.193  -8.770  26.240  1.00 61.42 LIG 0.19  C 
BRANCH 12 13
ATOM     13  CB  PHE C 177     -69.488  -8.700  27.751  1.00 59.64 LIG 0.07  C 
BRANCH 13 14
ATOM     14  CG  PHE C 177     -69.654 -10.044  28.411  1.00 58.09 LIG-0.06  A 
ATOM     15  CD1 PHE C 177     -68.630 -10.591  29.183  1.00 57.17 LIG 0.01  A 
ATOM     16  CE1 PHE C 177     -68.783 -11.834  29.799  1.00 55.93 LIG 0.00  A 
ATOM     17  CZ  PHE C 177     -69.974 -12.540  29.650  1.00 55.64 LIG 0.00  A 
ATOM     18  CE2 PHE C 177     -71.008 -12.000  28.886  1.00 56.04 LIG 0.00  A 
ATOM     19  CD2 PHE C 177     -70.843 -10.757  28.274  1.00 56.91 LIG 0.01  A 
ENDBRANCH 13 14
ENDBRANCH 12 13
BRANCH 12 20
ATOM     20  C   PHE C 177     -67.883  -9.510  25.970  1.00 62.04 LIG 0.20  C 
ATOM     21 O    PHE C 177     -67.853 -10.735  25.841  1.00 62.52 LIG-0.65  OA
ATOM     22 OXT  PHE C 177     -66.818  -8.898  25.870  1.00 62.11 LIG-0.65  OA
ENDBRANCH 12 20
ENDBRANCH 9 12
ENDBRANCH 4 8
BRANCH 1 23
ATOM     23  CA  ILE C 175     -71.342 -10.398  19.679  1.00 65.77 LIG 0.18  C 
BRANCH 23 24
ATOM     24  CB  ILE C 175     -69.857 -10.713  19.357  1.00 65.27 LIG 0.01  C 
ATOM     25  CG2 ILE C 175     -69.753 -11.865  18.362  1.00 63.89 LIG 0.01  C 
BRANCH 24 26
ATOM     26  CG1 ILE C 175     -69.151  -9.462  18.816  1.00 65.41 LIG 0.00  C 
ATOM     27  CD1 ILE C 175     -68.050  -9.745  17.809  1.00 65.60 LIG 0.01  C 
ENDBRANCH 24 26
ENDBRANCH 23 24
BRANCH 23 28
ATOM     28  N   ILE C 175     -71.921  -9.491  18.686  1.00 67.68 LIG-0.34  N 
ATOM     29 H    ILE C 175     -71.348  -9.174  18.128  1.00 67.68 LIG 0.16  HD
ATOM     30  C   ASP C 174     -73.218  -9.188  18.655  1.00 68.58 LIG 0.26  C 
ATOM     31 O    ASP C 174     -74.036  -9.610  19.479  1.00 68.06 LIG-0.27  OA
BRANCH 30 32
ATOM     32  CA  ASP C 174     -73.658  -8.273  17.518  1.00 70.51 LIG 0.41  C 
ATOM     33  N   ASP C 174     -72.821  -7.036  17.476  1.00 70.88 LIG 0.61  N 
BRANCH 32 34
ATOM     34  CB  ASP C 174     -73.593  -9.019  16.178  1.00 71.81 LIG 0.16  C 
BRANCH 34 35
ATOM     35  CG  ASP C 174     -74.013  -8.153  15.001  1.00 74.09 LIG 0.17  C 
ATOM     36 OD1  ASP C 174     -75.229  -7.912  14.829  1.00 74.88 LIG-0.65  OA
ATOM     37 OD2  ASP C 174     -73.123  -7.706  14.246  1.00 75.75 LIG-0.65  OA
ENDBRANCH 34 35
ENDBRANCH 32 34
ENDBRANCH 30 32
ENDBRANCH 23 28
ENDBRANCH 1 23
TORSDOF 12
ENDMDL
MODEL 34
USER: ADFR SOLUTION from run 139
USER: SCORE 12.369812 LL:  -3.038 LR:  -9.416 RR:   0.000 FEB:  -5.836
USER: RMSD 8.487162
USER: SEED 138
USER: STATUS no improvement in best in 10 clusters for 5 generations
USER: GENES 14
USER: genes 0 Translation |==|  0.54061 0.50422 0.34859
USER: genes 1 Rotation |==|  0.79513 0.21627 0.30240 0.70821
USER: genes 2 Torsion [N]-CA--C-[O] |==|  0.06743
USER: genes 3 Torsion [C]-N--CA-[CB] |==|  0.29349
USER: genes 4 Torsion [N]-CA--CB-[CG] |==|  0.83145
USER: genes 5 Torsion [CA]-CB--CG-[CD2] |==|  0.34404
USER: genes 6 Torsion [N]-CA--C-[OXT] |==|  0.30090
USER: genes 7 Torsion [N]-C--CA-[N] |==|  0.43238
USER: genes 8 Torsion [C]-CA--CB-[CG2] |==|  0.94997
USER: genes 9 Torsion [CA]-CB--CG1-[CD1] |==|  0.29022
USER: genes 10 Torsion [C]-CA--N-[C] |==|  0.83324
USER: genes 11 Torsion [N]-C--CA-[N] |==|  0.64933
USER: genes 12 Torsion [C]-CA--CB-[CG] |==|  0.38779
USER: genes 13 Torsion [CA]-CB--CG-[OD1] |==|  0.03042
ROOT
ATOM      1  C   ILE C 175     -71.387  -9.540  20.440  1.00 65.51 LIG 0.24  C 
ATOM      2 O    ILE C 175     -71.638  -8.355  20.678  1.00 66.37 LIG-0.27  OA
ATOM      3  N   PRO C 176     -71.100 -10.438  21.410  1.00 64.39 LIG-0.34  N 
ATOM      4  CA  PRO C 176     -71.166 -10.111  22.839  1.00 64.23 LIG 0.18  C 
ATOM      5  CB  PRO C 176     -71.428 -11.476  23.503  1.00 63.87 LIG 0.04  C 
ATOM      6  CG  PRO C 176     -71.372 -12.512  22.391  1.00 63.56 LIG 0.02  C 
ATOM      7  CD  PRO C 176     -70.755 -11.853  21.204  1.00 63.45 LIG 0.13  C 
ENDROOT
BRANCH 4 8
ATOM      8  C   PRO C 176     -69.895  -9.463  23.412  1.00 63.07 LIG 0.24  C 
ATOM      9  N   PHE C 177     -69.682  -9.602  24.720  1.00 62.32 LIG-0.34  N 
ATOM     10 H    PHE C 177     -70.240  -9.977  25.257  1.00 62.32 LIG 0.16  HD
ATOM     11 O    PRO C 176     -69.122  -8.854  22.666  1.00 62.88 LIG-0.27  OA
BRANCH 9 12
ATOM     12  CA  PHE C 177     -68.458  -9.120  25.368  1.00 61.42 LIG 0.19  C 
BRANCH 12 13
ATOM     13  CB  PHE C 177     -68.710  -7.840  26.188  1.00 59.64 LIG 0.07  C 
BRANCH 13 14
ATOM     14  CG  PHE C 177     -69.212  -6.675  25.376  1.00 58.09 LIG-0.06  A 
ATOM     15  CD1 PHE C 177     -68.502  -6.221  24.266  1.00 57.17 LIG 0.01  A 
ATOM     16  CE1 PHE C 177     -68.967  -5.144  23.509  1.00 55.93 LIG 0.00  A 
ATOM     17  CZ  PHE C 177     -70.160  -4.516  23.857  1.00 55.64 LIG 0.00  A 
ATOM     18  CE2 PHE C 177     -70.883  -4.966  24.961  1.00 56.04 LIG 0.00  A 
ATOM     19  CD2 PHE C 177     -70.408  -6.042  25.711  1.00 56.91 LIG 0.01  A 
ENDBRANCH 13 14
ENDBRANCH 12 13
BRANCH 12 20
ATOM     20  C   PHE C 177     -67.797 -10.201  26.225  1.00 62.04 LIG 0.20  C 
ATOM     21 O    PHE C 177     -68.296 -10.569  27.289  1.00 62.52 LIG-0.65  OA
ATOM     22 OXT  PHE C 177     -66.746 -10.735  25.870  1.00 62.11 LIG-0.65  OA
ENDBRANCH 12 20
ENDBRANCH 9 12
ENDBRANCH 4 8
BRANCH 1 23
ATOM     23  CA  ILE C 175     -71.393 -10.051  18.995  1.00 65.77 LIG 0.18  C 
BRANCH 23 24
ATOM     24  CB  ILE C 175     -69.949 -10.135  18.433  1.00 65.27 LIG 0.01  C 
ATOM     25  CG2 ILE C 175     -68.992  -9.294  19.273  1.00 63.89 LIG 0.01  C 
BRANCH 24 26
ATOM     26  CG1 ILE C 175     -69.482 -11.597  18.379  1.00 65.41 LIG 0.00  C 
ATOM     27  CD1 ILE C 175     -69.476 -12.205  16.987  1.00 65.60 LIG 0.01  C 
ENDBRANCH 24 26
ENDBRANCH 23 24
BRANCH 23 28
ATOM     28  N   ILE C 175     -72.240  -9.199  18.159  1.00 67.68 LIG-0.34  N 
ATOM     29 H    ILE C 175     -71.823  -8.826  17.506  1.00 67.68 LIG 0.16  HD
ATOM     30  C   ASP C 174     -73.540  -9.023  18.393  1.00 68.58 LIG 0.26  C 
ATOM     31 O    ASP C 174     -74.133  -9.525  19.353  1.00 68.06 LIG-0.27  OA
BRANCH 30 32
ATOM     32  CA  ASP C 174     -74.283  -8.149  17.387  1.00 70.51 LIG 0.41  C 
ATOM     33  N   ASP C 174     -75.007  -7.041  18.080  1.00 70.88 LIG 0.61  N 
BRANCH 32 34
ATOM     34  CB  ASP C 174     -73.306  -7.592  16.343  1.00 71.81 LIG 0.16  C 
BRANCH 34 35
ATOM     35  CG  ASP C 174     -73.884  -7.597  14.936  1.00 74.09 LIG 0.17  C 
ATOM     36 OD1  ASP C 174     -75.103  -7.833  14.782  1.00 74.88 LIG-0.65  OA
ATOM     37 OD2  ASP C 174     -73.115  -7.360  13.979  1.00 75.75 LIG-0.65  OA
ENDBRANCH 34 35
ENDBRANCH 32 34
ENDBRANCH 30 32
ENDBRANCH 23 28
ENDBRANCH 1 23
TORSDOF 12
ENDMDL
MODEL 35
USER: ADFR SOLUTION from run 113
USER: SCORE 13.121349 LL:  -3.855 LR:  -9.401 RR:   0.000 FEB:  -5.822
USER: RMSD 4.010513
USER: SEED 112
USER: STATUS no improvement in best in 22 clusters for 5 generations
USER: GENES 14
USER: genes 0 Translation |==|  0.61540 0.50492 0.35900
USER: genes 1 Rotation |==|  0.37002 0.68584 0.18850 0.81865
USER: genes 2 Torsion [N]-CA--C-[O] |==|  0.45372
USER: genes 3 Torsion [C]-N--CA-[CB] |==|  0.86260
USER: genes 4 Torsion [N]-CA--CB-[CG] |==|  0.90199
USER: genes 5 Torsion [CA]-CB--CG-[CD2] |==|  0.84038
USER: genes 6 Torsion [N]-CA--C-[OXT] |==|  0.15242
USER: genes 7 Torsion [N]-C--CA-[N] |==|  0.45753
USER: genes 8 Torsion [C]-CA--CB-[CG2] |==|  0.96915
USER: genes 9 Torsion [CA]-CB--CG1-[CD1] |==|  0.06575
USER: genes 10 Torsion [C]-CA--N-[C] |==|  0.56576
USER: genes 11 Torsion [N]-C--CA-[N] |==|  0.38388
USER: genes 12 Torsion [C]-CA--CB-[CG] |==|  0.80414
USER: genes 13 Torsion [CA]-CB--CG-[OD1] |==|  0.86761
ROOT
ATOM      1  C   ILE C 175     -70.265  -9.529  20.659  1.00 65.51 LIG 0.24  C 
ATOM      2 O    ILE C 175     -69.940  -8.337  20.662  1.00 66.37 LIG-0.27  OA
ATOM      3  N   PRO C 176     -70.267 -10.286  19.539  1.00 64.39 LIG-0.34  N 
ATOM      4  CA  PRO C 176     -69.781  -9.790  18.246  1.00 64.23 LIG 0.18  C 
ATOM      5  CB  PRO C 176     -69.354 -11.076  17.511  1.00 63.87 LIG 0.04  C 
ATOM      6  CG  PRO C 176     -69.746 -12.235  18.414  1.00 63.56 LIG 0.02  C 
ATOM      7  CD  PRO C 176     -70.675 -11.696  19.448  1.00 63.45 LIG 0.13  C 
ENDROOT
BRANCH 4 8
ATOM      8  C   PRO C 176     -70.820  -9.014  17.420  1.00 63.07 LIG 0.24  C 
ATOM      9  N   PHE C 177     -72.097  -9.149  17.774  1.00 62.32 LIG-0.34  N 
ATOM     10 H    PHE C 177     -72.368  -9.686  18.390  1.00 62.32 LIG 0.16  HD
ATOM     11 O    PRO C 176     -70.455  -8.299  16.482  1.00 62.88 LIG-0.27  OA
BRANCH 9 12
ATOM     12  CA  PHE C 177     -73.172  -8.383  17.133  1.00 61.42 LIG 0.19  C 
BRANCH 12 13
ATOM     13  CB  PHE C 177     -72.844  -6.878  17.075  1.00 59.64 LIG 0.07  C 
BRANCH 13 14
ATOM     14  CG  PHE C 177     -72.081  -6.366  18.269  1.00 58.09 LIG-0.06  A 
ATOM     15  CD1 PHE C 177     -70.854  -5.723  18.110  1.00 57.17 LIG 0.01  A 
ATOM     16  CE1 PHE C 177     -70.147  -5.244  19.214  1.00 55.93 LIG 0.00  A 
ATOM     17  CZ  PHE C 177     -70.672  -5.400  20.494  1.00 55.64 LIG 0.00  A 
ATOM     18  CE2 PHE C 177     -71.902  -6.034  20.666  1.00 56.04 LIG 0.00  A 
ATOM     19  CD2 PHE C 177     -72.599  -6.510  19.554  1.00 56.91 LIG 0.01  A 
ENDBRANCH 13 14
ENDBRANCH 12 13
BRANCH 12 20
ATOM     20  C   PHE C 177     -73.515  -8.924  15.745  1.00 62.04 LIG 0.20  C 
ATOM     21 O    PHE C 177     -73.496  -8.197  14.751  1.00 62.52 LIG-0.65  OA
ATOM     22 OXT  PHE C 177     -73.819 -10.107  15.584  1.00 62.11 LIG-0.65  OA
ENDBRANCH 12 20
ENDBRANCH 9 12
ENDBRANCH 4 8
BRANCH 1 23
ATOM     23  CA  ILE C 175     -70.689 -10.212  21.964  1.00 65.77 LIG 0.18  C 
BRANCH 23 24
ATOM     24  CB  ILE C 175     -72.215 -10.496  21.969  1.00 65.27 LIG 0.01  C 
ATOM     25  CG2 ILE C 175     -72.901  -9.779  20.810  1.00 63.89 LIG 0.01  C 
BRANCH 24 26
ATOM     26  CG1 ILE C 175     -72.476 -12.007  21.904  1.00 65.41 LIG 0.00  C 
ATOM     27  CD1 ILE C 175     -71.329 -12.868  22.407  1.00 65.60 LIG 0.01  C 
ENDBRANCH 24 26
ENDBRANCH 23 24
BRANCH 23 28
ATOM     28  N   ILE C 175     -70.296  -9.397  23.115  1.00 67.68 LIG-0.34  N 
ATOM     29 H    ILE C 175     -70.196  -8.562  22.933  1.00 67.68 LIG 0.16  HD
ATOM     30  C   ASP C 174     -70.111  -9.908  24.331  1.00 68.58 LIG 0.26  C 
ATOM     31 O    ASP C 174     -70.214 -11.113  24.587  1.00 68.06 LIG-0.27  OA
BRANCH 30 32
ATOM     32  CA  ASP C 174     -69.761  -8.906  25.426  1.00 70.51 LIG 0.41  C 
ATOM     33  N   ASP C 174     -70.500  -9.217  26.687  1.00 70.88 LIG 0.61  N 
BRANCH 32 34
ATOM     34  CB  ASP C 174     -68.246  -8.894  25.672  1.00 71.81 LIG 0.16  C 
BRANCH 34 35
ATOM     35  CG  ASP C 174     -67.749 -10.163  26.348  1.00 74.09 LIG 0.17  C 
ATOM     36 OD1  ASP C 174     -68.360 -10.594  27.351  1.00 74.88 LIG-0.65  OA
ATOM     37 OD2  ASP C 174     -66.746 -10.735  25.870  1.00 75.75 LIG-0.65  OA
ENDBRANCH 34 35
ENDBRANCH 32 34
ENDBRANCH 30 32
ENDBRANCH 23 28
ENDBRANCH 1 23
TORSDOF 12
ENDMDL
MODEL 36
USER: ADFR SOLUTION from run 54
USER: SCORE 12.337479 LL:  -3.202 LR:  -9.398 RR:   0.000 FEB:  -5.818
USER: RMSD 4.830838
USER: SEED 53
USER: STATUS no improvement in best in 15 clusters for 5 generations
USER: GENES 14
USER: genes 0 Translation |==|  0.61274 0.51664 0.44387
USER: genes 1 Rotation |==|  0.41896 0.56083 0.95215 0.68786
USER: genes 2 Torsion [N]-CA--C-[O] |==|  0.32184
USER: genes 3 Torsion [C]-N--CA-[CB] |==|  0.41638
USER: genes 4 Torsion [N]-CA--CB-[CG] |==|  0.08160
USER: genes 5 Torsion [CA]-CB--CG-[CD2] |==|  0.14290
USER: genes 6 Torsion [N]-CA--C-[OXT] |==|  0.51404
USER: genes 7 Torsion [N]-C--CA-[N] |==|  0.49118
USER: genes 8 Torsion [C]-CA--CB-[CG2] |==|  0.58141
USER: genes 9 Torsion [CA]-CB--CG1-[CD1] |==|  0.39923
USER: genes 10 Torsion [C]-CA--N-[C] |==|  0.72781
USER: genes 11 Torsion [N]-C--CA-[N] |==|  0.34551
USER: genes 12 Torsion [C]-CA--CB-[CG] |==|  0.15359
USER: genes 13 Torsion [CA]-CB--CG-[OD1] |==|  0.77413
ROOT
ATOM      1  C   ILE C 175     -70.305  -9.336  22.441  1.00 65.51 LIG 0.24  C 
ATOM      2 O    ILE C 175     -69.746 -10.269  23.025  1.00 66.37 LIG-0.27  OA
ATOM      3  N   PRO C 176     -71.391  -9.507  21.655  1.00 64.39 LIG-0.34  N 
ATOM      4  CA  PRO C 176     -72.069 -10.801  21.510  1.00 64.23 LIG 0.18  C 
ATOM      5  CB  PRO C 176     -73.509 -10.405  21.131  1.00 63.87 LIG 0.04  C 
ATOM      6  CG  PRO C 176     -73.511  -8.893  20.971  1.00 63.56 LIG 0.02  C 
ATOM      7  CD  PRO C 176     -72.088  -8.454  20.900  1.00 63.45 LIG 0.13  C 
ENDROOT
BRANCH 4 8
ATOM      8  C   PRO C 176     -71.464 -11.730  20.445  1.00 63.07 LIG 0.24  C 
ATOM      9  N   PHE C 177     -71.508 -11.312  19.181  1.00 62.32 LIG-0.34  N 
ATOM     10 H    PHE C 177     -71.905 -10.591  18.931  1.00 62.32 LIG 0.16  HD
ATOM     11 O    PRO C 176     -70.960 -12.807  20.780  1.00 62.88 LIG-0.27  OA
BRANCH 9 12
ATOM     12  CA  PHE C 177     -70.875 -12.058  18.088  1.00 61.42 LIG 0.19  C 
BRANCH 12 13
ATOM     13  CB  PHE C 177     -71.621 -11.862  16.754  1.00 59.64 LIG 0.07  C 
BRANCH 13 14
ATOM     14  CG  PHE C 177     -72.321 -10.534  16.627  1.00 58.09 LIG-0.06  A 
ATOM     15  CD1 PHE C 177     -73.670 -10.468  16.282  1.00 57.17 LIG 0.01  A 
ATOM     16  CE1 PHE C 177     -74.321  -9.238  16.168  1.00 55.93 LIG 0.00  A 
ATOM     17  CZ  PHE C 177     -73.622  -8.059  16.408  1.00 55.64 LIG 0.00  A 
ATOM     18  CE2 PHE C 177     -72.274  -8.112  16.761  1.00 56.04 LIG 0.00  A 
ATOM     19  CD2 PHE C 177     -71.633  -9.347  16.871  1.00 56.91 LIG 0.01  A 
ENDBRANCH 13 14
ENDBRANCH 12 13
BRANCH 12 20
ATOM     20  C   PHE C 177     -69.392 -11.718  17.943  1.00 62.04 LIG 0.20  C 
ATOM     21 O    PHE C 177     -68.823 -10.975  18.745  1.00 62.52 LIG-0.65  OA
ATOM     22 OXT  PHE C 177     -68.723 -12.181  17.018  1.00 62.11 LIG-0.65  OA
ENDBRANCH 12 20
ENDBRANCH 9 12
ENDBRANCH 4 8
BRANCH 1 23
ATOM     23  CA  ILE C 175     -69.771  -7.907  22.593  1.00 65.77 LIG 0.18  C 
BRANCH 23 24
ATOM     24  CB  ILE C 175     -69.370  -7.317  21.215  1.00 65.27 LIG 0.01  C 
ATOM     25  CG2 ILE C 175     -68.242  -6.301  21.369  1.00 63.89 LIG 0.01  C 
BRANCH 24 26
ATOM     26  CG1 ILE C 175     -68.961  -8.441  20.252  1.00 65.41 LIG 0.00  C 
ATOM     27  CD1 ILE C 175     -69.371  -8.214  18.807  1.00 65.60 LIG 0.01  C 
ENDBRANCH 24 26
ENDBRANCH 23 24
BRANCH 23 28
ATOM     28  N   ILE C 175     -68.646  -7.882  23.530  1.00 67.68 LIG-0.34  N 
ATOM     29 H    ILE C 175     -67.894  -8.105  23.177  1.00 67.68 LIG 0.16  HD
ATOM     30  C   ASP C 174     -68.782  -7.542  24.811  1.00 68.58 LIG 0.26  C 
ATOM     31 O    ASP C 174     -69.867  -7.260  25.329  1.00 68.06 LIG-0.27  OA
BRANCH 30 32
ATOM     32  CA  ASP C 174     -67.495  -7.513  25.629  1.00 70.51 LIG 0.41  C 
ATOM     33  N   ASP C 174     -67.306  -6.178  26.274  1.00 70.88 LIG 0.61  N 
BRANCH 32 34
ATOM     34  CB  ASP C 174     -67.509  -8.629  26.683  1.00 71.81 LIG 0.16  C 
BRANCH 34 35
ATOM     35  CG  ASP C 174     -67.740 -10.005  26.079  1.00 74.09 LIG 0.17  C 
ATOM     36 OD1  ASP C 174     -68.909 -10.360  25.807  1.00 74.88 LIG-0.65  OA
ATOM     37 OD2  ASP C 174     -66.747 -10.735  25.870  1.00 75.75 LIG-0.65  OA
ENDBRANCH 34 35
ENDBRANCH 32 34
ENDBRANCH 30 32
ENDBRANCH 23 28
ENDBRANCH 1 23
TORSDOF 12
ENDMDL
MODEL 37
USER: ADFR SOLUTION from run 190
USER: SCORE 12.724140 LL:  -3.359 LR:  -9.379 RR:   0.000 FEB:  -5.799
USER: RMSD 5.559235
USER: SEED 189
USER: STATUS no improvement in best in 11 clusters for 5 generations
USER: GENES 14
USER: genes 0 Translation |==|  0.48181 0.49142 0.29631
USER: genes 1 Rotation |==|  0.58434 0.52168 0.66150 0.96512
USER: genes 2 Torsion [N]-CA--C-[O] |==|  0.25416
USER: genes 3 Torsion [C]-N--CA-[CB] |==|  0.41064
USER: genes 4 Torsion [N]-CA--CB-[CG] |==|  0.00643
USER: genes 5 Torsion [CA]-CB--CG-[CD2] |==|  0.74028
USER: genes 6 Torsion [N]-CA--C-[OXT] |==|  0.21040
USER: genes 7 Torsion [N]-C--CA-[N] |==|  0.42213
USER: genes 8 Torsion [C]-CA--CB-[CG2] |==|  0.48743
USER: genes 9 Torsion [CA]-CB--CG1-[CD1] |==|  0.27550
USER: genes 10 Torsion [C]-CA--N-[C] |==|  0.81365
USER: genes 11 Torsion [N]-C--CA-[N] |==|  0.10987
USER: genes 12 Torsion [C]-CA--CB-[CG] |==|  0.46245
USER: genes 13 Torsion [CA]-CB--CG-[OD1] |==|  0.45905
ROOT
ATOM      1  C   ILE C 175     -72.269  -9.752  19.343  1.00 65.51 LIG 0.24  C 
ATOM      2 O    ILE C 175     -73.364 -10.297  19.508  1.00 66.37 LIG-0.27  OA
ATOM      3  N   PRO C 176     -72.137  -8.424  19.122  1.00 64.39 LIG-0.34  N 
ATOM      4  CA  PRO C 176     -73.272  -7.495  19.167  1.00 64.23 LIG 0.18  C 
ATOM      5  CB  PRO C 176     -72.614  -6.149  19.527  1.00 63.87 LIG 0.04  C 
ATOM      6  CG  PRO C 176     -71.114  -6.396  19.544  1.00 63.56 LIG 0.02  C 
ATOM      7  CD  PRO C 176     -70.874  -7.709  18.880  1.00 63.45 LIG 0.13  C 
ENDROOT
BRANCH 4 8
ATOM      8  C   PRO C 176     -74.062  -7.379  17.853  1.00 63.07 LIG 0.24  C 
ATOM      9  N   PHE C 177     -73.640  -6.475  16.971  1.00 62.32 LIG-0.34  N 
ATOM     10 H    PHE C 177     -72.997  -5.924  17.123  1.00 62.32 LIG 0.16  HD
ATOM     11 O    PRO C 176     -75.037  -8.111  17.652  1.00 62.88 LIG-0.27  OA
BRANCH 9 12
ATOM     12  CA  PHE C 177     -74.244  -6.339  15.641  1.00 61.42 LIG 0.19  C 
BRANCH 12 13
ATOM     13  CB  PHE C 177     -74.209  -4.880  15.144  1.00 59.64 LIG 0.07  C 
BRANCH 13 14
ATOM     14  CG  PHE C 177     -73.525  -3.923  16.085  1.00 58.09 LIG-0.06  A 
ATOM     15  CD1 PHE C 177     -72.147  -3.722  16.021  1.00 57.17 LIG 0.01  A 
ATOM     16  CE1 PHE C 177     -71.511  -2.833  16.889  1.00 55.93 LIG 0.00  A 
ATOM     17  CZ  PHE C 177     -72.258  -2.128  17.829  1.00 55.64 LIG 0.00  A 
ATOM     18  CE2 PHE C 177     -73.638  -2.316  17.899  1.00 56.04 LIG 0.00  A 
ATOM     19  CD2 PHE C 177     -74.262  -3.208  17.027  1.00 56.91 LIG 0.01  A 
ENDBRANCH 13 14
ENDBRANCH 12 13
BRANCH 12 20
ATOM     20  C   PHE C 177     -73.607  -7.282  14.621  1.00 62.04 LIG 0.20  C 
ATOM     21 O    PHE C 177     -72.814  -6.869  13.774  1.00 62.52 LIG-0.65  OA
ATOM     22 OXT  PHE C 177     -73.871  -8.485  14.620  1.00 62.11 LIG-0.65  OA
ENDBRANCH 12 20
ENDBRANCH 9 12
ENDBRANCH 4 8
BRANCH 1 23
ATOM     23  CA  ILE C 175     -70.983 -10.585  19.383  1.00 65.77 LIG 0.18  C 
BRANCH 23 24
ATOM     24  CB  ILE C 175     -70.543 -10.992  17.951  1.00 65.27 LIG 0.01  C 
ATOM     25  CG2 ILE C 175     -69.205 -11.724  17.986  1.00 63.89 LIG 0.01  C 
BRANCH 24 26
ATOM     26  CG1 ILE C 175     -71.621 -11.860  17.288  1.00 65.41 LIG 0.00  C 
ATOM     27  CD1 ILE C 175     -72.534 -11.111  16.333  1.00 65.60 LIG 0.01  C 
ENDBRANCH 24 26
ENDBRANCH 23 24
BRANCH 23 28
ATOM     28  N   ILE C 175     -71.165 -11.760  20.238  1.00 67.68 LIG-0.34  N 
ATOM     29 H    ILE C 175     -71.149 -12.507  19.811  1.00 67.68 LIG 0.16  HD
ATOM     30  C   ASP C 174     -71.340 -11.672  21.555  1.00 68.58 LIG 0.26  C 
ATOM     31 O    ASP C 174     -71.404 -10.600  22.165  1.00 68.06 LIG-0.27  OA
BRANCH 30 32
ATOM     32  CA  ASP C 174     -71.455 -12.999  22.298  1.00 70.51 LIG 0.41  C 
ATOM     33  N   ASP C 174     -70.497 -14.003  21.745  1.00 70.88 LIG 0.61  N 
BRANCH 32 34
ATOM     34  CB  ASP C 174     -71.218 -12.791  23.800  1.00 71.81 LIG 0.16  C 
BRANCH 34 35
ATOM     35  CG  ASP C 174     -71.635 -13.992  24.635  1.00 74.09 LIG 0.17  C 
ATOM     36 OD1  ASP C 174     -71.246 -14.070  25.821  1.00 74.88 LIG-0.65  OA
ATOM     37 OD2  ASP C 174     -72.361 -14.860  24.103  1.00 75.75 LIG-0.65  OA
ENDBRANCH 34 35
ENDBRANCH 32 34
ENDBRANCH 30 32
ENDBRANCH 23 28
ENDBRANCH 1 23
TORSDOF 12
ENDMDL
MODEL 38
USER: ADFR SOLUTION from run 137
USER: SCORE 12.428799 LL:  -3.129 LR:  -9.373 RR:   0.000 FEB:  -5.794
USER: RMSD 3.666232
USER: SEED 136
USER: STATUS no improvement in best in 22 clusters for 5 generations
USER: GENES 14
USER: genes 0 Translation |==|  0.62534 0.49952 0.49155
USER: genes 1 Rotation |==|  0.36129 0.70624 0.12476 0.71776
USER: genes 2 Torsion [N]-CA--C-[O] |==|  0.34364
USER: genes 3 Torsion [C]-N--CA-[CB] |==|  0.14605
USER: genes 4 Torsion [N]-CA--CB-[CG] |==|  0.15586
USER: genes 5 Torsion [CA]-CB--CG-[CD2] |==|  0.75915
USER: genes 6 Torsion [N]-CA--C-[OXT] |==|  0.06186
USER: genes 7 Torsion [N]-C--CA-[N] |==|  0.46561
USER: genes 8 Torsion [C]-CA--CB-[CG2] |==|  0.55394
USER: genes 9 Torsion [CA]-CB--CG1-[CD1] |==|  0.32801
USER: genes 10 Torsion [C]-CA--N-[C] |==|  0.79704
USER: genes 11 Torsion [N]-C--CA-[N] |==|  0.92859
USER: genes 12 Torsion [C]-CA--CB-[CG] |==|  0.11560
USER: genes 13 Torsion [CA]-CB--CG-[OD1] |==|  0.16205
ROOT
ATOM      1  C   ILE C 175     -70.116  -9.618  23.443  1.00 65.51 LIG 0.24  C 
ATOM      2 O    ILE C 175     -69.351  -8.687  23.171  1.00 66.37 LIG-0.27  OA
ATOM      3  N   PRO C 176     -70.629 -10.444  22.504  1.00 64.39 LIG-0.34  N 
ATOM      4  CA  PRO C 176     -70.241 -10.377  21.090  1.00 64.23 LIG 0.18  C 
ATOM      5  CB  PRO C 176     -70.505 -11.808  20.582  1.00 63.87 LIG 0.04  C 
ATOM      6  CG  PRO C 176     -71.146 -12.561  21.737  1.00 63.56 LIG 0.02  C 
ATOM      7  CD  PRO C 176     -71.572 -11.548  22.744  1.00 63.45 LIG 0.13  C 
ENDROOT
BRANCH 4 8
ATOM      8  C   PRO C 176     -71.023  -9.351  20.254  1.00 63.07 LIG 0.24  C 
ATOM      9  N   PHE C 177     -72.350  -9.462  20.247  1.00 62.32 LIG-0.34  N 
ATOM     10 H    PHE C 177     -72.777 -10.102  20.631  1.00 62.32 LIG 0.16  HD
ATOM     11 O    PRO C 176     -70.418  -8.471  19.633  1.00 62.88 LIG-0.27  OA
BRANCH 9 12
ATOM     12  CA  PHE C 177     -73.213  -8.485  19.573  1.00 61.42 LIG 0.19  C 
BRANCH 12 13
ATOM     13  CB  PHE C 177     -72.790  -8.265  18.107  1.00 59.64 LIG 0.07  C 
BRANCH 13 14
ATOM     14  CG  PHE C 177     -72.750  -9.524  17.280  1.00 58.09 LIG-0.06  A 
ATOM     15  CD1 PHE C 177     -73.849  -9.911  16.515  1.00 57.17 LIG 0.01  A 
ATOM     16  CE1 PHE C 177     -73.812 -11.075  15.745  1.00 55.93 LIG 0.00  A 
ATOM     17  CZ  PHE C 177     -72.663 -11.860  15.731  1.00 55.64 LIG 0.00  A 
ATOM     18  CE2 PHE C 177     -71.555 -11.480  16.486  1.00 56.04 LIG 0.00  A 
ATOM     19  CD2 PHE C 177     -71.603 -10.315  17.253  1.00 56.91 LIG 0.01  A 
ENDBRANCH 13 14
ENDBRANCH 12 13
BRANCH 12 20
ATOM     20  C   PHE C 177     -74.691  -8.861  19.669  1.00 62.04 LIG 0.20  C 
ATOM     21 O    PHE C 177     -75.516  -8.431  18.861  1.00 62.52 LIG-0.65  OA
ATOM     22 OXT  PHE C 177     -75.098  -9.609  20.559  1.00 62.11 LIG-0.65  OA
ENDBRANCH 12 20
ENDBRANCH 9 12
ENDBRANCH 4 8
BRANCH 1 23
ATOM     23  CA  ILE C 175     -70.521  -9.877  24.898  1.00 65.77 LIG 0.18  C 
BRANCH 23 24
ATOM     24  CB  ILE C 175     -72.023  -9.554  25.120  1.00 65.27 LIG 0.01  C 
ATOM     25  CG2 ILE C 175     -72.316  -9.345  26.602  1.00 63.89 LIG 0.01  C 
BRANCH 24 26
ATOM     26  CG1 ILE C 175     -72.428  -8.318  24.306  1.00 65.41 LIG 0.00  C 
ATOM     27  CD1 ILE C 175     -73.496  -8.576  23.256  1.00 65.60 LIG 0.01  C 
ENDBRANCH 24 26
ENDBRANCH 23 24
BRANCH 23 28
ATOM     28  N   ILE C 175     -69.671  -9.106  25.807  1.00 67.68 LIG-0.34  N 
ATOM     29 H    ILE C 175     -70.068  -8.435  26.170  1.00 67.68 LIG 0.16  HD
ATOM     30  C   ASP C 174     -68.399  -9.421  26.046  1.00 68.58 LIG 0.26  C 
ATOM     31 O    ASP C 174     -67.814 -10.360  25.496  1.00 68.06 LIG-0.27  OA
BRANCH 30 32
ATOM     32  CA  ASP C 174     -67.679  -8.544  27.065  1.00 70.51 LIG 0.41  C 
ATOM     33  N   ASP C 174     -68.299  -7.186  27.131  1.00 70.88 LIG 0.61  N 
BRANCH 32 34
ATOM     34  CB  ASP C 174     -67.689  -9.214  28.446  1.00 71.81 LIG 0.16  C 
BRANCH 34 35
ATOM     35  CG  ASP C 174     -67.420 -10.710  28.376  1.00 74.09 LIG 0.17  C 
ATOM     36 OD1  ASP C 174     -66.352 -11.110  27.862  1.00 74.88 LIG-0.65  OA
ATOM     37 OD2  ASP C 174     -68.278 -11.489  28.843  1.00 75.75 LIG-0.65  OA
ENDBRANCH 34 35
ENDBRANCH 32 34
ENDBRANCH 30 32
ENDBRANCH 23 28
ENDBRANCH 1 23
TORSDOF 12
ENDMDL
MODEL 39
USER: ADFR SOLUTION from run 111
USER: SCORE 12.168154 LL:  -3.296 LR:  -9.366 RR:   0.000 FEB:  -5.786
USER: RMSD 7.910827
USER: SEED 110
USER: STATUS no improvement in best in 9 clusters for 5 generations
USER: GENES 14
USER: genes 0 Translation |==|  0.57970 0.47277 0.39348
USER: genes 1 Rotation |==|  0.55856 0.94003 0.71536 0.58099
USER: genes 2 Torsion [N]-CA--C-[O] |==|  0.22917
USER: genes 3 Torsion [C]-N--CA-[CB] |==|  0.76834
USER: genes 4 Torsion [N]-CA--CB-[CG] |==|  0.11724
USER: genes 5 Torsion [CA]-CB--CG-[CD2] |==|  0.24125
USER: genes 6 Torsion [N]-CA--C-[OXT] |==|  0.60767
USER: genes 7 Torsion [N]-C--CA-[N] |==|  0.17426
USER: genes 8 Torsion [C]-CA--CB-[CG2] |==|  0.35317
USER: genes 9 Torsion [CA]-CB--CG1-[CD1] |==|  0.40335
USER: genes 10 Torsion [C]-CA--N-[C] |==|  0.63841
USER: genes 11 Torsion [N]-C--CA-[N] |==|  0.92218
USER: genes 12 Torsion [C]-CA--CB-[CG] |==|  0.24917
USER: genes 13 Torsion [CA]-CB--CG-[OD1] |==|  0.43005
ROOT
ATOM      1  C   ILE C 175     -70.801 -10.059  21.383  1.00 65.51 LIG 0.24  C 
ATOM      2 O    ILE C 175     -69.642 -10.218  21.780  1.00 66.37 LIG-0.27  OA
ATOM      3  N   PRO C 176     -71.804  -9.653  22.192  1.00 64.39 LIG-0.34  N 
ATOM      4  CA  PRO C 176     -71.587  -9.260  23.589  1.00 64.23 LIG 0.18  C 
ATOM      5  CB  PRO C 176     -72.758  -8.298  23.872  1.00 63.87 LIG 0.04  C 
ATOM      6  CG  PRO C 176     -73.632  -8.309  22.629  1.00 63.56 LIG 0.02  C 
ATOM      7  CD  PRO C 176     -73.212  -9.477  21.803  1.00 63.45 LIG 0.13  C 
ENDROOT
BRANCH 4 8
ATOM      8  C   PRO C 176     -71.587 -10.423  24.594  1.00 63.07 LIG 0.24  C 
ATOM      9  N   PHE C 177     -72.724 -10.662  25.245  1.00 62.32 LIG-0.34  N 
ATOM     10 H    PHE C 177     -73.426 -10.169  25.175  1.00 62.32 LIG 0.16  HD
ATOM     11 O    PRO C 176     -70.563 -11.093  24.763  1.00 62.88 LIG-0.27  OA
BRANCH 9 12
ATOM     12  CA  PHE C 177     -72.882 -11.805  26.150  1.00 61.42 LIG 0.19  C 
BRANCH 12 13
ATOM     13  CB  PHE C 177     -73.242 -13.095  25.386  1.00 59.64 LIG 0.07  C 
BRANCH 13 14
ATOM     14  CG  PHE C 177     -72.466 -13.294  24.110  1.00 58.09 LIG-0.06  A 
ATOM     15  CD1 PHE C 177     -72.965 -12.834  22.893  1.00 57.17 LIG 0.01  A 
ATOM     16  CE1 PHE C 177     -72.246 -13.014  21.710  1.00 55.93 LIG 0.00  A 
ATOM     17  CZ  PHE C 177     -71.009 -13.653  21.740  1.00 55.64 LIG 0.00  A 
ATOM     18  CE2 PHE C 177     -70.496 -14.110  22.954  1.00 56.04 LIG 0.00  A 
ATOM     19  CD2 PHE C 177     -71.224 -13.926  24.129  1.00 56.91 LIG 0.01  A 
ENDBRANCH 13 14
ENDBRANCH 12 13
BRANCH 12 20
ATOM     20  C   PHE C 177     -71.651 -12.015  27.032  1.00 62.04 LIG 0.20  C 
ATOM     21 O    PHE C 177     -71.033 -11.061  27.507  1.00 62.52 LIG-0.65  OA
ATOM     22 OXT  PHE C 177     -71.246 -13.148  27.295  1.00 62.11 LIG-0.65  OA
ENDBRANCH 12 20
ENDBRANCH 9 12
ENDBRANCH 4 8
BRANCH 1 23
ATOM     23  CA  ILE C 175     -71.151 -10.325  19.915  1.00 65.77 LIG 0.18  C 
BRANCH 23 24
ATOM     24  CB  ILE C 175     -69.940 -10.936  19.160  1.00 65.27 LIG 0.01  C 
ATOM     25  CG2 ILE C 175     -70.343 -12.224  18.447  1.00 63.89 LIG 0.01  C 
BRANCH 24 26
ATOM     26  CG1 ILE C 175     -69.366  -9.920  18.162  1.00 65.41 LIG 0.00  C 
ATOM     27  CD1 ILE C 175     -67.858  -9.985  17.994  1.00 65.60 LIG 0.01  C 
ENDBRANCH 24 26
ENDBRANCH 23 24
BRANCH 23 28
ATOM     28  N   ILE C 175     -71.612  -9.093  19.271  1.00 67.68 LIG-0.34  N 
ATOM     29 H    ILE C 175     -71.093  -8.419  19.396  1.00 67.68 LIG 0.16  HD
ATOM     30  C   ASP C 174     -72.736  -9.029  18.559  1.00 68.58 LIG 0.26  C 
ATOM     31 O    ASP C 174     -73.506  -9.985  18.413  1.00 68.06 LIG-0.27  OA
BRANCH 30 32
ATOM     32  CA  ASP C 174     -73.035  -7.682  17.911  1.00 70.51 LIG 0.41  C 
ATOM     33  N   ASP C 174     -72.430  -6.567  18.700  1.00 70.88 LIG 0.61  N 
BRANCH 32 34
ATOM     34  CB  ASP C 174     -72.526  -7.663  16.463  1.00 71.81 LIG 0.16  C 
BRANCH 34 35
ATOM     35  CG  ASP C 174     -73.566  -8.150  15.467  1.00 74.09 LIG 0.17  C 
ATOM     36 OD1  ASP C 174     -73.496  -7.762  14.279  1.00 74.88 LIG-0.65  OA
ATOM     37 OD2  ASP C 174     -74.456  -8.929  15.871  1.00 75.75 LIG-0.65  OA
ENDBRANCH 34 35
ENDBRANCH 32 34
ENDBRANCH 30 32
ENDBRANCH 23 28
ENDBRANCH 1 23
TORSDOF 12
ENDMDL
