MODEL 1
USER: ADFR SOLUTION from run 1
USER: SCORE 9.714610 LL:  -1.447 LR:  -8.275 RR:   0.000 FEB:  -5.889
USER: RMSD 5.260013
USER: SEED 898578
USER: STATUS no improvement in best in 12 clusters for 5 generations
USER: GENES 10
USER: genes 0 Translation |==|  0.57508 0.58485 0.66579
USER: genes 1 Rotation |==|  0.11509 0.55031 0.18602 0.52703
USER: genes 2 Torsion [C]-CA--N-[C] |==|  0.80556
USER: genes 3 Torsion [N]-C--CA-[N] |==|  0.05713
USER: genes 4 Torsion [C]-CA--N-[H3] |==|  0.33940
USER: genes 5 Torsion [N]-CA--C-[N] |==|  0.40598
USER: genes 6 Torsion [C]-N--CA-[CB] |==|  0.38048
USER: genes 7 Torsion [N]-CA--C-[O] |==|  0.81271
USER: genes 8 Torsion [N]-CA--CB-[CG] |==|  0.29233
USER: genes 9 Torsion [CA]-CB--CG-[ND1] |==|  0.27287
ROOT
ATOM      1  CA  HIS F   2      -0.077  31.580 -16.488  1.00 30.59 LIG 0.18  C 
ENDROOT
BRANCH 1 2
ATOM      2  N   HIS F   2      -1.423  31.222 -16.029  1.00 30.70 LIG-0.35  N 
ATOM      3  C   ALA F   1      -2.518  31.862 -16.435  1.00 31.15 LIG 0.25  C 
ATOM      4 O    ALA F   1      -2.500  32.815 -17.221  1.00 30.37 LIG-0.27  OA
ATOM      5 H    HIS F   2      -1.438  30.563 -15.476  1.00 30.70 LIG 0.16  HD
BRANCH 3 6
ATOM      6  CA  ALA F   1      -3.845  31.347 -15.862  1.00 31.15 LIG 0.27  C 
ATOM      7  CB  ALA F   1      -4.852  32.080 -16.066  0.00 20.00 LIG 0.05  C 
BRANCH 6 8
ATOM      8  N   ALA F   1      -3.633  30.562 -14.599  1.00 31.97 LIG-0.07  N 
ATOM      9 H3   ALA F   1      -4.097  30.933 -13.937  1.00 31.97 LIG 0.28  HD
ATOM     10 H1   ALA F   1      -3.907  29.725 -14.721  1.00 31.97 LIG 0.28  HD
ATOM     11 H2   ALA F   1      -2.768  30.563 -14.391  1.00 31.97 LIG 0.28  HD
ENDBRANCH 6 8
ENDBRANCH 3 6
ENDBRANCH 1 2
BRANCH 1 12
ATOM     12  C   HIS F   2       0.115  31.211 -17.965  1.00 31.15 LIG 0.24  C 
ATOM     13 O    HIS F   2      -0.440  30.206 -18.445  1.00 30.80 LIG-0.27  OA
ATOM     14  N   ALA F   3       0.900  32.029 -18.677  1.00 30.97 LIG-0.35  N 
ATOM     15 H    ALA F   3       1.281  32.727 -18.350  1.00 30.97 LIG 0.16  HD
BRANCH 14 16
ATOM     16  CA  ALA F   3       1.182  31.806 -20.093  1.00 31.72 LIG 0.16  C 
ATOM     17  CB  ALA F   3       1.079  33.189 -20.782  0.00 20.00 LIG 0.04  C 
BRANCH 16 18
ATOM     18  C   ALA F   3       2.657  31.545 -20.388  1.00 32.37 LIG 0.22  C 
ATOM     19 O    ALA F   3       3.503  32.437 -20.236  1.00 33.75 LIG-0.29  OA
ENDBRANCH 16 18
ENDBRANCH 14 16
ENDBRANCH 1 12
BRANCH 1 20
ATOM     20  CB  HIS F   2       0.989  30.874 -15.633  1.00 30.20 LIG 0.10  C 
BRANCH 20 21
ATOM     21  CG  HIS F   2       1.671  29.717 -16.313  1.00 29.66 LIG 0.06  A 
ATOM     22 ND1  HIS F   2       2.904  29.819 -16.928  1.00 29.25 LIG-0.24  NA
ATOM     23  CE1 HIS F   2       3.233  28.653 -17.461  1.00 27.69 LIG 0.23  A 
ATOM     24 NE2  HIS F   2       2.249  27.796 -17.230  1.00 31.40 LIG-0.25  NA
ATOM     25  CD2 HIS F   2       1.253  28.443 -16.527  1.00 30.69 LIG 0.14  A 
ENDBRANCH 20 21
ENDBRANCH 1 20
TORSDOF 8
ENDMDL
MODEL 2
USER: ADFR SOLUTION from run 192
USER: SCORE 8.288572 LL:  -1.409 LR:  -7.986 RR:   0.000 FEB:  -5.600
USER: RMSD 7.119458
USER: SEED 191
USER: STATUS no improvement in best in 25 clusters for 5 generations
USER: GENES 10
USER: genes 0 Translation |==|  0.76484 0.57428 0.50285
USER: genes 1 Rotation |==|  0.94482 0.37734 0.69241 0.50802
USER: genes 2 Torsion [C]-CA--N-[C] |==|  0.20249
USER: genes 3 Torsion [N]-C--CA-[N] |==|  0.49890
USER: genes 4 Torsion [C]-CA--N-[H3] |==|  0.64605
USER: genes 5 Torsion [N]-CA--C-[N] |==|  0.30921
USER: genes 6 Torsion [C]-N--CA-[CB] |==|  0.35099
USER: genes 7 Torsion [N]-CA--C-[O] |==|  0.10955
USER: genes 8 Torsion [N]-CA--CB-[CG] |==|  0.50359
USER: genes 9 Torsion [CA]-CB--CG-[ND1] |==|  0.98121
ROOT
ATOM      1  CA  HIS F   2       3.197  31.453 -19.054  1.00 30.59 LIG 0.18  C 
ENDROOT
BRANCH 1 2
ATOM      2  N   HIS F   2       2.239  31.321 -17.951  1.00 30.70 LIG-0.35  N 
ATOM      3  C   ALA F   1       1.691  30.157 -17.608  1.00 31.15 LIG 0.25  C 
ATOM      4 O    ALA F   1       1.929  29.092 -18.187  1.00 30.37 LIG-0.27  OA
ATOM      5 H    HIS F   2       2.065  32.062 -17.550  1.00 30.70 LIG 0.16  HD
BRANCH 3 6
ATOM      6  CA  ALA F   1       0.717  30.200 -16.423  1.00 31.15 LIG 0.27  C 
ATOM      7  CB  ALA F   1       0.971  31.060 -15.535  0.00 20.00 LIG 0.05  C 
BRANCH 6 8
ATOM      8  N   ALA F   1       0.150  28.842 -16.125  1.00 31.97 LIG-0.07  N 
ATOM      9 H3   ALA F   1      -0.738  28.889 -16.101  1.00 31.97 LIG 0.28  HD
ATOM     10 H1   ALA F   1       0.400  28.270 -16.759  1.00 31.97 LIG 0.28  HD
ATOM     11 H2   ALA F   1       0.452  28.561 -15.337  1.00 31.97 LIG 0.28  HD
ENDBRANCH 6 8
ENDBRANCH 3 6
ENDBRANCH 1 2
BRANCH 1 12
ATOM     12  C   HIS F   2       2.493  31.318 -20.411  1.00 31.15 LIG 0.24  C 
ATOM     13 O    HIS F   2       2.016  30.227 -20.773  1.00 30.80 LIG-0.27  OA
ATOM     14  N   ALA F   3       2.430  32.430 -21.153  1.00 30.97 LIG-0.35  N 
ATOM     15 H    ALA F   3       2.754  33.187 -20.904  1.00 30.97 LIG 0.16  HD
BRANCH 14 16
ATOM     16  CA  ALA F   3       1.797  32.458 -22.470  1.00 31.72 LIG 0.16  C 
ATOM     17  CB  ALA F   3       0.756  33.603 -22.429  0.00 20.00 LIG 0.04  C 
BRANCH 16 18
ATOM     18  C   ALA F   3       2.690  33.038 -23.564  1.00 32.37 LIG 0.22  C 
ATOM     19 O    ALA F   3       3.902  32.781 -23.599  1.00 33.75 LIG-0.29  OA
ENDBRANCH 16 18
ENDBRANCH 14 16
ENDBRANCH 1 12
BRANCH 1 20
ATOM     20  CB  HIS F   2       4.304  30.393 -18.936  1.00 30.20 LIG 0.10  C 
BRANCH 20 21
ATOM     21  CG  HIS F   2       5.358  30.466 -20.008  1.00 29.66 LIG 0.06  A 
ATOM     22 ND1  HIS F   2       5.275  31.312 -21.096  1.00 29.25 LIG-0.24  NA
ATOM     23  CE1 HIS F   2       6.327  31.133 -21.880  1.00 27.69 LIG 0.23  A 
ATOM     24 NE2  HIS F   2       7.087  30.187 -21.349  1.00 31.40 LIG-0.25  NA
ATOM     25  CD2 HIS F   2       6.493  29.742 -20.186  1.00 30.69 LIG 0.14  A 
ENDBRANCH 20 21
ENDBRANCH 1 20
TORSDOF 8
ENDMDL
MODEL 3
USER: ADFR SOLUTION from run 8
USER: SCORE 8.640244 LL:  -1.275 LR:  -7.795 RR:   0.000 FEB:  -5.409
USER: RMSD 5.086141
USER: SEED 203530
USER: STATUS no improvement in best in 11 clusters for 5 generations
USER: GENES 10
USER: genes 0 Translation |==|  0.54017 0.64753 0.51652
USER: genes 1 Rotation |==|  0.42004 0.38272 0.97766 0.54115
USER: genes 2 Torsion [C]-CA--N-[C] |==|  0.55843
USER: genes 3 Torsion [N]-C--CA-[N] |==|  0.47725
USER: genes 4 Torsion [C]-CA--N-[H3] |==|  0.96879
USER: genes 5 Torsion [N]-CA--C-[N] |==|  0.33743
USER: genes 6 Torsion [C]-N--CA-[CB] |==|  0.56652
USER: genes 7 Torsion [N]-CA--C-[O] |==|  0.32202
USER: genes 8 Torsion [N]-CA--CB-[CG] |==|  0.51325
USER: genes 9 Torsion [CA]-CB--CG-[ND1] |==|  0.45492
ROOT
ATOM      1  CA  HIS F   2      -0.679  32.332 -18.839  1.00 30.59 LIG 0.18  C 
ENDROOT
BRANCH 1 2
ATOM      2  N   HIS F   2      -0.473  32.657 -20.254  1.00 30.70 LIG-0.35  N 
ATOM      3  C   ALA F   1      -0.878  33.803 -20.798  1.00 31.15 LIG 0.25  C 
ATOM      4 O    ALA F   1      -1.468  34.687 -20.168  1.00 30.37 LIG-0.27  OA
ATOM      5 H    HIS F   2      -0.069  32.040 -20.697  1.00 30.70 LIG 0.16  HD
BRANCH 3 6
ATOM      6  CA  ALA F   1      -0.572  33.981 -22.290  1.00 31.15 LIG 0.27  C 
ATOM      7  CB  ALA F   1       0.557  33.566 -22.671  0.00 20.00 LIG 0.05  C 
BRANCH 6 8
ATOM      8  N   ALA F   1      -1.237  35.206 -22.849  1.00 31.97 LIG-0.07  N 
ATOM      9 H3   ALA F   1      -1.821  35.522 -22.258  1.00 31.97 LIG 0.28  HD
ATOM     10 H1   ALA F   1      -0.622  35.826 -23.020  1.00 31.97 LIG 0.28  HD
ATOM     11 H2   ALA F   1      -1.662  34.996 -23.602  1.00 31.97 LIG 0.28  HD
ENDBRANCH 6 8
ENDBRANCH 3 6
ENDBRANCH 1 2
BRANCH 1 12
ATOM     12  C   HIS F   2       0.302  31.247 -18.378  1.00 31.15 LIG 0.24  C 
ATOM     13 O    HIS F   2       0.327  30.135 -18.937  1.00 30.80 LIG-0.27  OA
ATOM     14  N   ALA F   3       1.107  31.576 -17.360  1.00 30.97 LIG-0.35  N 
ATOM     15 H    ALA F   3       1.096  32.345 -16.974  1.00 30.97 LIG 0.16  HD
BRANCH 14 16
ATOM     16  CA  ALA F   3       2.089  30.647 -16.806  1.00 31.72 LIG 0.16  C 
ATOM     17  CB  ALA F   3       2.358  31.112 -15.354  0.00 20.00 LIG 0.04  C 
BRANCH 16 18
ATOM     18  C   ALA F   3       1.512  29.274 -16.474  1.00 32.37 LIG 0.22  C 
ATOM     19 O    ALA F   3       1.901  28.259 -17.070  1.00 33.75 LIG-0.29  OA
ENDBRANCH 16 18
ENDBRANCH 14 16
ENDBRANCH 1 12
BRANCH 1 20
ATOM     20  CB  HIS F   2      -2.124  31.863 -18.598  1.00 30.20 LIG 0.10  C 
BRANCH 20 21
ATOM     21  CG  HIS F   2      -2.469  31.612 -17.154  1.00 29.66 LIG 0.06  A 
ATOM     22 ND1  HIS F   2      -3.766  31.506 -16.693  1.00 29.25 LIG-0.24  NA
ATOM     23  CE1 HIS F   2      -3.757  31.316 -15.382  1.00 27.69 LIG 0.23  A 
ATOM     24 NE2  HIS F   2      -2.498  31.312 -14.970  1.00 31.40 LIG-0.25  NA
ATOM     25  CD2 HIS F   2      -1.674  31.512 -16.058  1.00 30.69 LIG 0.14  A 
ENDBRANCH 20 21
ENDBRANCH 1 20
TORSDOF 8
ENDMDL
MODEL 4
USER: ADFR SOLUTION from run 192
USER: SCORE 9.273442 LL:  -1.525 LR:  -7.751 RR:   0.000 FEB:  -5.365
USER: RMSD 5.675960
USER: SEED 191
USER: STATUS no improvement in best in 25 clusters for 5 generations
USER: GENES 10
USER: genes 0 Translation |==|  0.55934 0.71889 0.47937
USER: genes 1 Rotation |==|  0.60551 0.39904 0.97439 0.56023
USER: genes 2 Torsion [C]-CA--N-[C] |==|  0.83816
USER: genes 3 Torsion [N]-C--CA-[N] |==|  0.33714
USER: genes 4 Torsion [C]-CA--N-[H3] |==|  0.44251
USER: genes 5 Torsion [N]-CA--C-[N] |==|  0.38839
USER: genes 6 Torsion [C]-N--CA-[CB] |==|  0.83157
USER: genes 7 Torsion [N]-CA--C-[O] |==|  0.30749
USER: genes 8 Torsion [N]-CA--CB-[CG] |==|  0.43324
USER: genes 9 Torsion [CA]-CB--CG-[ND1] |==|  0.75414
ROOT
ATOM      1  CA  HIS F   2      -0.348  33.189 -19.424  1.00 30.59 LIG 0.18  C 
ENDROOT
BRANCH 1 2
ATOM      2  N   HIS F   2      -1.185  33.502 -20.587  1.00 30.70 LIG-0.35  N 
ATOM      3  C   ALA F   1      -0.696  34.030 -21.707  1.00 31.15 LIG 0.25  C 
ATOM      4 O    ALA F   1       0.497  34.309 -21.866  1.00 30.37 LIG-0.27  OA
ATOM      5 H    HIS F   2      -2.018  33.314 -20.477  1.00 30.70 LIG 0.16  HD
BRANCH 3 6
ATOM      6  CA  ALA F   1      -1.713  34.284 -22.827  1.00 31.15 LIG 0.27  C 
ATOM      7  CB  ALA F   1      -1.883  33.334 -23.640  0.00 20.00 LIG 0.05  C 
BRANCH 6 8
ATOM      8  N   ALA F   1      -1.747  35.731 -23.224  1.00 31.97 LIG-0.07  N 
ATOM      9 H3   ALA F   1      -2.096  35.808 -24.039  1.00 31.97 LIG 0.28  HD
ATOM     10 H1   ALA F   1      -2.245  36.187 -22.644  1.00 31.97 LIG 0.28  HD
ATOM     11 H2   ALA F   1      -0.920  36.059 -23.224  1.00 31.97 LIG 0.28  HD
ENDBRANCH 6 8
ENDBRANCH 3 6
ENDBRANCH 1 2
BRANCH 1 12
ATOM     12  C   HIS F   2       0.766  32.203 -19.801  1.00 31.15 LIG 0.24  C 
ATOM     13 O    HIS F   2       0.538  31.253 -20.573  1.00 30.80 LIG-0.27  OA
ATOM     14  N   ALA F   3       1.965  32.436 -19.254  1.00 30.97 LIG-0.35  N 
ATOM     15 H    ALA F   3       2.127  33.094 -18.724  1.00 30.97 LIG 0.16  HD
BRANCH 14 16
ATOM     16  CA  ALA F   3       3.122  31.582 -19.513  1.00 31.72 LIG 0.16  C 
ATOM     17  CB  ALA F   3       2.742  30.168 -19.010  0.00 20.00 LIG 0.04  C 
BRANCH 16 18
ATOM     18  C   ALA F   3       3.304  31.228 -20.986  1.00 32.37 LIG 0.22  C 
ATOM     19 O    ALA F   3       4.253  31.687 -21.638  1.00 33.75 LIG-0.29  OA
ENDBRANCH 16 18
ENDBRANCH 14 16
ENDBRANCH 1 12
BRANCH 1 20
ATOM     20  CB  HIS F   2      -1.202  32.598 -18.289  1.00 30.20 LIG 0.10  C 
BRANCH 20 21
ATOM     21  CG  HIS F   2      -0.442  31.739 -17.315  1.00 29.66 LIG 0.06  A 
ATOM     22 ND1  HIS F   2      -0.253  30.382 -17.488  1.00 29.25 LIG-0.24  NA
ATOM     23  CE1 HIS F   2       0.424  29.893 -16.461  1.00 27.69 LIG 0.23  A 
ATOM     24 NE2  HIS F   2       0.670  30.882 -15.614  1.00 31.40 LIG-0.25  NA
ATOM     25  CD2 HIS F   2       0.123  32.044 -16.118  1.00 30.69 LIG 0.14  A 
ENDBRANCH 20 21
ENDBRANCH 1 20
TORSDOF 8
ENDMDL
MODEL 5
USER: ADFR SOLUTION from run 67
USER: SCORE 8.084586 LL:  -1.142 LR:  -7.631 RR:   0.000 FEB:  -5.245
USER: RMSD 5.413919
USER: SEED 66
USER: STATUS no improvement in best in 19 clusters for 5 generations
USER: GENES 10
USER: genes 0 Translation |==|  0.41751 0.59281 0.68971
USER: genes 1 Rotation |==|  0.10127 0.42550 0.70071 0.71254
USER: genes 2 Torsion [C]-CA--N-[C] |==|  0.55213
USER: genes 3 Torsion [N]-C--CA-[N] |==|  0.98431
USER: genes 4 Torsion [C]-CA--N-[H3] |==|  0.35830
USER: genes 5 Torsion [N]-CA--C-[N] |==|  0.21742
USER: genes 6 Torsion [C]-N--CA-[CB] |==|  0.83737
USER: genes 7 Torsion [N]-CA--C-[O] |==|  0.06585
USER: genes 8 Torsion [N]-CA--CB-[CG] |==|  0.49965
USER: genes 9 Torsion [CA]-CB--CG-[ND1] |==|  0.01337
ROOT
ATOM      1  CA  HIS F   2      -2.795  31.676 -16.111  1.00 30.59 LIG 0.18  C 
ENDROOT
BRANCH 1 2
ATOM      2  N   HIS F   2      -1.598  30.828 -16.099  1.00 30.70 LIG-0.35  N 
ATOM      3  C   ALA F   1      -0.401  31.275 -15.724  1.00 31.15 LIG 0.25  C 
ATOM      4 O    ALA F   1      -0.188  32.437 -15.365  1.00 30.37 LIG-0.27  OA
ATOM      5 H    HIS F   2      -1.743  30.019 -16.355  1.00 30.70 LIG 0.16  HD
BRANCH 3 6
ATOM      6  CA  ALA F   1       0.738  30.248 -15.763  1.00 31.15 LIG 0.27  C 
ATOM      7  CB  ALA F   1       1.860  30.688 -16.137  0.00 20.00 LIG 0.05  C 
BRANCH 6 8
ATOM      8  N   ALA F   1       0.232  28.875 -16.099  1.00 31.97 LIG-0.07  N 
ATOM      9 H3   ALA F   1       0.712  28.536 -16.767  1.00 31.97 LIG 0.28  HD
ATOM     10 H1   ALA F   1       0.305  28.348 -15.385  1.00 31.97 LIG 0.28  HD
ATOM     11 H2   ALA F   1      -0.622  28.924 -16.343  1.00 31.97 LIG 0.28  HD
ENDBRANCH 6 8
ENDBRANCH 3 6
ENDBRANCH 1 2
BRANCH 1 12
ATOM     12  C   HIS F   2      -4.070  30.823 -16.127  1.00 31.15 LIG 0.24  C 
ATOM     13 O    HIS F   2      -4.706  30.652 -17.184  1.00 30.80 LIG-0.27  OA
ATOM     14  N   ALA F   3      -4.436  30.291 -14.955  1.00 30.97 LIG-0.35  N 
ATOM     15 H    ALA F   3      -3.997  30.403 -14.224  1.00 30.97 LIG 0.16  HD
BRANCH 14 16
ATOM     16  CA  ALA F   3      -5.630  29.461 -14.810  1.00 31.72 LIG 0.16  C 
ATOM     17  CB  ALA F   3      -6.825  30.333 -15.268  0.00 20.00 LIG 0.04  C 
BRANCH 16 18
ATOM     18  C   ALA F   3      -5.753  28.376 -15.877  1.00 32.37 LIG 0.22  C 
ATOM     19 O    ALA F   3      -4.752  27.955 -16.474  1.00 33.75 LIG-0.29  OA
ENDBRANCH 16 18
ENDBRANCH 14 16
ENDBRANCH 1 12
BRANCH 1 20
ATOM     20  CB  HIS F   2      -2.780  32.611 -17.332  1.00 30.20 LIG 0.10  C 
BRANCH 20 21
ATOM     21  CG  HIS F   2      -3.973  33.524 -17.436  1.00 29.66 LIG 0.06  A 
ATOM     22 ND1  HIS F   2      -4.956  33.599 -16.470  1.00 29.25 LIG-0.24  NA
ATOM     23  CE1 HIS F   2      -5.887  34.461 -16.849  1.00 27.69 LIG 0.23  A 
ATOM     24 NE2  HIS F   2      -5.554  34.938 -18.039  1.00 31.40 LIG-0.25  NA
ATOM     25  CD2 HIS F   2      -4.368  34.355 -18.435  1.00 30.69 LIG 0.14  A 
ENDBRANCH 20 21
ENDBRANCH 1 20
TORSDOF 8
ENDMDL
MODEL 6
USER: ADFR SOLUTION from run 153
USER: SCORE 8.757628 LL:  -1.331 LR:  -7.623 RR:   0.000 FEB:  -5.236
USER: RMSD 6.728563
USER: SEED 152
USER: STATUS no improvement in best in 12 clusters for 5 generations
USER: GENES 10
USER: genes 0 Translation |==|  0.64721 0.64908 0.43923
USER: genes 1 Rotation |==|  0.30678 0.67807 0.07516 0.52163
USER: genes 2 Torsion [C]-CA--N-[C] |==|  0.86663
USER: genes 3 Torsion [N]-C--CA-[N] |==|  0.41902
USER: genes 4 Torsion [C]-CA--N-[H3] |==|  0.34077
USER: genes 5 Torsion [N]-CA--C-[N] |==|  0.87413
USER: genes 6 Torsion [C]-N--CA-[CB] |==|  0.54090
USER: genes 7 Torsion [N]-CA--C-[O] |==|  0.29086
USER: genes 8 Torsion [N]-CA--CB-[CG] |==|  0.71815
USER: genes 9 Torsion [CA]-CB--CG-[ND1] |==|  0.68513
ROOT
ATOM      1  CA  HIS F   2       1.167  32.351 -20.056  1.00 30.59 LIG 0.18  C 
ENDROOT
BRANCH 1 2
ATOM      2  N   HIS F   2      -0.048  32.783 -20.754  1.00 30.70 LIG-0.35  N 
ATOM      3  C   ALA F   1      -0.040  33.700 -21.719  1.00 31.15 LIG 0.25  C 
ATOM      4 O    ALA F   1       0.983  34.274 -22.106  1.00 30.37 LIG-0.27  OA
ATOM      5 H    HIS F   2      -0.764  32.389 -20.481  1.00 30.70 LIG 0.16  HD
BRANCH 3 6
ATOM      6  CA  ALA F   1      -1.402  34.024 -22.346  1.00 31.15 LIG 0.27  C 
ATOM      7  CB  ALA F   1      -1.988  33.060 -22.912  0.00 20.00 LIG 0.05  C 
BRANCH 6 8
ATOM      8  N   ALA F   1      -1.456  35.437 -22.849  1.00 31.97 LIG-0.07  N 
ATOM      9 H3   ALA F   1      -1.653  35.437 -23.717  1.00 31.97 LIG 0.28  HD
ATOM     10 H1   ALA F   1      -2.080  35.888 -22.403  1.00 31.97 LIG 0.28  HD
ATOM     11 H2   ALA F   1      -0.665  35.827 -22.726  1.00 31.97 LIG 0.28  HD
ENDBRANCH 6 8
ENDBRANCH 3 6
ENDBRANCH 1 2
BRANCH 1 12
ATOM     12  C   HIS F   2       2.286  32.028 -21.055  1.00 31.15 LIG 0.24  C 
ATOM     13 O    HIS F   2       3.446  32.439 -20.864  1.00 30.80 LIG-0.27  OA
ATOM     14  N   ALA F   3       1.933  31.291 -22.115  1.00 30.97 LIG-0.35  N 
ATOM     15 H    ALA F   3       1.134  31.002 -22.248  1.00 30.97 LIG 0.16  HD
BRANCH 14 16
ATOM     16  CA  ALA F   3       2.885  30.908 -23.155  1.00 31.72 LIG 0.16  C 
ATOM     17  CB  ALA F   3       2.043  30.411 -24.355  0.00 20.00 LIG 0.04  C 
BRANCH 16 18
ATOM     18  C   ALA F   3       3.542  32.097 -23.850  1.00 32.37 LIG 0.22  C 
ATOM     19 O    ALA F   3       4.714  32.412 -23.599  1.00 33.75 LIG-0.29  OA
ENDBRANCH 16 18
ENDBRANCH 14 16
ENDBRANCH 1 12
BRANCH 1 20
ATOM     20  CB  HIS F   2       0.878  31.118 -19.183  1.00 30.20 LIG 0.10  C 
BRANCH 20 21
ATOM     21  CG  HIS F   2       0.714  31.414 -17.716  1.00 29.66 LIG 0.06  A 
ATOM     22 ND1  HIS F   2       1.600  30.978 -16.751  1.00 29.25 LIG-0.24  NA
ATOM     23  CE1 HIS F   2       1.181  31.364 -15.556  1.00 27.69 LIG 0.23  A 
ATOM     24 NE2  HIS F   2       0.043  32.024 -15.706  1.00 31.40 LIG-0.25  NA
ATOM     25  CD2 HIS F   2      -0.279  32.055 -17.047  1.00 30.69 LIG 0.14  A 
ENDBRANCH 20 21
ENDBRANCH 1 20
TORSDOF 8
ENDMDL
MODEL 7
USER: ADFR SOLUTION from run 110
USER: SCORE 8.490919 LL:  -1.405 LR:  -7.506 RR:   0.000 FEB:  -5.120
USER: RMSD 6.492034
USER: SEED 109
USER: STATUS no improvement in best in 14 clusters for 5 generations
USER: GENES 10
USER: genes 0 Translation |==|  0.66644 0.63475 0.45711
USER: genes 1 Rotation |==|  0.58081 0.38405 0.97957 0.50634
USER: genes 2 Torsion [C]-CA--N-[C] |==|  0.56111
USER: genes 3 Torsion [N]-C--CA-[N] |==|  0.60060
USER: genes 4 Torsion [C]-CA--N-[H3] |==|  0.87653
USER: genes 5 Torsion [N]-CA--C-[N] |==|  0.32926
USER: genes 6 Torsion [C]-N--CA-[CB] |==|  0.83676
USER: genes 7 Torsion [N]-CA--C-[O] |==|  0.53498
USER: genes 8 Torsion [N]-CA--CB-[CG] |==|  0.41364
USER: genes 9 Torsion [CA]-CB--CG-[ND1] |==|  0.72900
ROOT
ATOM      1  CA  HIS F   2       1.499  32.179 -19.774  1.00 30.59 LIG 0.18  C 
ENDROOT
BRANCH 1 2
ATOM      2  N   HIS F   2       0.791  32.462 -21.027  1.00 30.70 LIG-0.35  N 
ATOM      3  C   ALA F   1      -0.117  33.430 -21.140  1.00 31.15 LIG 0.25  C 
ATOM      4 O    ALA F   1      -0.450  34.166 -20.206  1.00 30.37 LIG-0.27  OA
ATOM      5 H    HIS F   2       1.016  31.946 -21.678  1.00 30.70 LIG 0.16  HD
BRANCH 3 6
ATOM      6  CA  ALA F   1      -0.752  33.592 -22.527  1.00 31.15 LIG 0.27  C 
ATOM      7  CB  ALA F   1      -0.411  32.737 -23.390  0.00 20.00 LIG 0.05  C 
BRANCH 6 8
ATOM      8  N   ALA F   1      -1.013  35.036 -22.849  1.00 31.97 LIG-0.07  N 
ATOM      9 H3   ALA F   1      -1.374  35.437 -22.142  1.00 31.97 LIG 0.28  HD
ATOM     10 H1   ALA F   1      -0.247  35.437 -23.059  1.00 31.97 LIG 0.28  HD
ATOM     11 H2   ALA F   1      -1.573  35.090 -23.538  1.00 31.97 LIG 0.28  HD
ENDBRANCH 6 8
ENDBRANCH 3 6
ENDBRANCH 1 2
BRANCH 1 12
ATOM     12  C   HIS F   2       2.814  31.435 -20.044  1.00 31.15 LIG 0.24  C 
ATOM     13 O    HIS F   2       2.809  30.316 -20.590  1.00 30.80 LIG-0.27  OA
ATOM     14  N   ALA F   3       3.933  32.062 -19.662  1.00 30.97 LIG-0.35  N 
ATOM     15 H    ALA F   3       3.940  32.837 -19.288  1.00 30.97 LIG 0.16  HD
BRANCH 14 16
ATOM     16  CA  ALA F   3       5.259  31.478 -19.846  1.00 31.72 LIG 0.16  C 
ATOM     17  CB  ALA F   3       5.254  30.132 -19.081  0.00 20.00 LIG 0.04  C 
BRANCH 16 18
ATOM     18  C   ALA F   3       5.490  30.913 -21.245  1.00 32.37 LIG 0.22  C 
ATOM     19 O    ALA F   3       6.465  30.187 -21.484  1.00 33.75 LIG-0.29  OA
ENDBRANCH 16 18
ENDBRANCH 14 16
ENDBRANCH 1 12
BRANCH 1 20
ATOM     20  CB  HIS F   2       0.615  31.346 -18.832  1.00 30.20 LIG 0.10  C 
BRANCH 20 21
ATOM     21  CG  HIS F   2       1.371  30.408 -17.929  1.00 29.66 LIG 0.06  A 
ATOM     22 ND1  HIS F   2       1.549  29.067 -18.207  1.00 29.25 LIG-0.24  NA
ATOM     23  CE1 HIS F   2       2.225  28.495 -17.223  1.00 27.69 LIG 0.23  A 
ATOM     24 NE2  HIS F   2       2.479  29.413 -16.302  1.00 31.40 LIG-0.25  NA
ATOM     25  CD2 HIS F   2       1.941  30.615 -16.714  1.00 30.69 LIG 0.14  A 
ENDBRANCH 20 21
ENDBRANCH 1 20
TORSDOF 8
ENDMDL
MODEL 8
USER: ADFR SOLUTION from run 9
USER: SCORE 8.142788 LL:  -1.236 LR:  -7.491 RR:   0.000 FEB:  -5.105
USER: RMSD 3.962048
USER: SEED 414700
USER: STATUS no improvement in best in 23 clusters for 5 generations
USER: GENES 10
USER: genes 0 Translation |==|  0.44922 0.62378 0.67904
USER: genes 1 Rotation |==|  0.09020 0.52696 0.72676 0.67296
USER: genes 2 Torsion [C]-CA--N-[C] |==|  0.60556
USER: genes 3 Torsion [N]-C--CA-[N] |==|  0.99385
USER: genes 4 Torsion [C]-CA--N-[H3] |==|  0.00399
USER: genes 5 Torsion [N]-CA--C-[N] |==|  0.93100
USER: genes 6 Torsion [C]-N--CA-[CB] |==|  0.13538
USER: genes 7 Torsion [N]-CA--C-[O] |==|  0.97443
USER: genes 8 Torsion [N]-CA--CB-[CG] |==|  0.91965
USER: genes 9 Torsion [CA]-CB--CG-[ND1] |==|  0.72936
ROOT
ATOM      1  CA  HIS F   2      -2.248  32.047 -16.279  1.00 30.59 LIG 0.18  C 
ENDROOT
BRANCH 1 2
ATOM      2  N   HIS F   2      -1.260  30.968 -16.187  1.00 30.70 LIG-0.35  N 
ATOM      3  C   ALA F   1       0.006  31.176 -15.829  1.00 31.15 LIG 0.25  C 
ATOM      4 O    ALA F   1       0.462  32.290 -15.552  1.00 30.37 LIG-0.27  OA
ATOM      5 H    HIS F   2      -1.573  30.191 -16.386  1.00 30.70 LIG 0.16  HD
BRANCH 3 6
ATOM      6  CA  ALA F   1       0.900  29.930 -15.776  1.00 31.15 LIG 0.27  C 
ATOM      7  CB  ALA F   1       2.106  30.107 -16.099  0.00 20.00 LIG 0.05  C 
BRANCH 6 8
ATOM      8  N   ALA F   1       0.128  28.683 -16.099  1.00 31.97 LIG-0.07  N 
ATOM      9 H3   ALA F   1      -0.715  28.896 -16.286  1.00 31.97 LIG 0.28  HD
ATOM     10 H1   ALA F   1       0.495  28.281 -16.803  1.00 31.97 LIG 0.28  HD
ATOM     11 H2   ALA F   1       0.147  28.133 -15.400  1.00 31.97 LIG 0.28  HD
ENDBRANCH 6 8
ENDBRANCH 3 6
ENDBRANCH 1 2
BRANCH 1 12
ATOM     12  C   HIS F   2      -3.622  31.576 -15.785  1.00 31.15 LIG 0.24  C 
ATOM     13 O    HIS F   2      -4.454  32.393 -15.349  1.00 30.80 LIG-0.27  OA
ATOM     14  N   ALA F   3      -3.852  30.260 -15.856  1.00 30.97 LIG-0.35  N 
ATOM     15 H    ALA F   3      -3.281  29.693 -16.161  1.00 30.97 LIG 0.16  HD
BRANCH 14 16
ATOM     16  CA  ALA F   3      -5.110  29.659 -15.417  1.00 31.72 LIG 0.16  C 
ATOM     17  CB  ALA F   3      -6.241  30.495 -16.064  0.00 20.00 LIG 0.04  C 
BRANCH 16 18
ATOM     18  C   ALA F   3      -5.425  28.332 -16.102  1.00 32.37 LIG 0.22  C 
ATOM     19 O    ALA F   3      -4.747  27.934 -17.060  1.00 33.75 LIG-0.29  OA
ENDBRANCH 16 18
ENDBRANCH 14 16
ENDBRANCH 1 12
BRANCH 1 20
ATOM     20  CB  HIS F   2      -2.362  32.551 -17.728  1.00 30.20 LIG 0.10  C 
BRANCH 20 21
ATOM     21  CG  HIS F   2      -1.104  32.407 -18.542  1.00 29.66 LIG 0.06  A 
ATOM     22 ND1  HIS F   2      -0.204  33.436 -18.734  1.00 29.25 LIG-0.24  NA
ATOM     23  CE1 HIS F   2       0.784  33.023 -19.513  1.00 27.69 LIG 0.23  A 
ATOM     24 NE2  HIS F   2       0.550  31.764 -19.851  1.00 31.40 LIG-0.25  NA
ATOM     25  CD2 HIS F   2      -0.634  31.361 -19.269  1.00 30.69 LIG 0.14  A 
ENDBRANCH 20 21
ENDBRANCH 1 20
TORSDOF 8
ENDMDL
MODEL 9
USER: ADFR SOLUTION from run 168
USER: SCORE 8.996140 LL:  -1.585 LR:  -7.448 RR:   0.000 FEB:  -5.062
USER: RMSD 6.768759
USER: SEED 167
USER: STATUS no improvement in best in 19 clusters for 5 generations
USER: GENES 10
USER: genes 0 Translation |==|  0.66540 0.65922 0.43069
USER: genes 1 Rotation |==|  0.70909 0.35125 0.92901 0.51034
USER: genes 2 Torsion [C]-CA--N-[C] |==|  0.84444
USER: genes 3 Torsion [N]-C--CA-[N] |==|  0.40387
USER: genes 4 Torsion [C]-CA--N-[H3] |==|  0.67314
USER: genes 5 Torsion [N]-CA--C-[N] |==|  0.92130
USER: genes 6 Torsion [C]-N--CA-[CB] |==|  0.52395
USER: genes 7 Torsion [N]-CA--C-[O] |==|  0.20864
USER: genes 8 Torsion [N]-CA--CB-[CG] |==|  0.42723
USER: genes 9 Torsion [CA]-CB--CG-[ND1] |==|  0.68189
ROOT
ATOM      1  CA  HIS F   2       1.481  32.473 -20.191  1.00 30.59 LIG 0.18  C 
ENDROOT
BRANCH 1 2
ATOM      2  N   HIS F   2       0.223  32.849 -20.843  1.00 30.70 LIG-0.35  N 
ATOM      3  C   ALA F   1       0.162  33.726 -21.843  1.00 31.15 LIG 0.25  C 
ATOM      4 O    ALA F   1       1.151  34.306 -22.303  1.00 30.37 LIG-0.27  OA
ATOM      5 H    HIS F   2      -0.469  32.452 -20.520  1.00 30.70 LIG 0.16  HD
BRANCH 3 6
ATOM      6  CA  ALA F   1      -1.236  33.994 -22.414  1.00 31.15 LIG 0.27  C 
ATOM      7  CB  ALA F   1      -1.783  33.023 -23.005  0.00 20.00 LIG 0.05  C 
BRANCH 6 8
ATOM      8  N   ALA F   1      -1.391  35.423 -22.849  1.00 31.97 LIG-0.07  N 
ATOM      9 H3   ALA F   1      -2.029  35.813 -22.368  1.00 31.97 LIG 0.28  HD
ATOM     10 H1   ALA F   1      -0.622  35.855 -22.727  1.00 31.97 LIG 0.28  HD
ATOM     11 H2   ALA F   1      -1.611  35.449 -23.710  1.00 31.97 LIG 0.28  HD
ENDBRANCH 6 8
ENDBRANCH 3 6
ENDBRANCH 1 2
BRANCH 1 12
ATOM     12  C   HIS F   2       2.493  31.945 -21.216  1.00 31.15 LIG 0.24  C 
ATOM     13 O    HIS F   2       3.717  32.062 -21.019  1.00 30.80 LIG-0.27  OA
ATOM     14  N   ALA F   3       1.977  31.365 -22.306  1.00 30.97 LIG-0.35  N 
ATOM     15 H    ALA F   3       1.132  31.278 -22.444  1.00 30.97 LIG 0.16  HD
BRANCH 14 16
ATOM     16  CA  ALA F   3       2.812  30.820 -23.374  1.00 31.72 LIG 0.16  C 
ATOM     17  CB  ALA F   3       1.853  30.448 -24.531  0.00 20.00 LIG 0.04  C 
BRANCH 16 18
ATOM     18  C   ALA F   3       3.622  31.879 -24.117  1.00 32.37 LIG 0.22  C 
ATOM     19 O    ALA F   3       4.625  32.391 -23.599  1.00 33.75 LIG-0.29  OA
ENDBRANCH 16 18
ENDBRANCH 14 16
ENDBRANCH 1 12
BRANCH 1 20
ATOM     20  CB  HIS F   2       1.231  31.406 -19.112  1.00 30.20 LIG 0.10  C 
BRANCH 20 21
ATOM     21  CG  HIS F   2       2.411  30.518 -18.822  1.00 29.66 LIG 0.06  A 
ATOM     22 ND1  HIS F   2       2.424  29.163 -19.088  1.00 29.25 LIG-0.24  NA
ATOM     23  CE1 HIS F   2       3.580  28.645 -18.702  1.00 27.69 LIG 0.23  A 
ATOM     24 NE2  HIS F   2       4.316  29.613 -18.177  1.00 31.40 LIG-0.25  NA
ATOM     25  CD2 HIS F   2       3.601  30.792 -18.226  1.00 30.69 LIG 0.14  A 
ENDBRANCH 20 21
ENDBRANCH 1 20
TORSDOF 8
ENDMDL
MODEL 10
USER: ADFR SOLUTION from run 100
USER: SCORE 8.369705 LL:  -1.311 LR:  -7.378 RR:   0.000 FEB:  -4.991
USER: RMSD 5.890687
USER: SEED 99
USER: STATUS no improvement in best in 17 clusters for 5 generations
USER: GENES 10
USER: genes 0 Translation |==|  0.54024 0.50834 0.58666
USER: genes 1 Rotation |==|  0.76463 0.82958 0.70752 0.66818
USER: genes 2 Torsion [C]-CA--N-[C] |==|  0.52778
USER: genes 3 Torsion [N]-C--CA-[N] |==|  0.07486
USER: genes 4 Torsion [C]-CA--N-[H3] |==|  0.21059
USER: genes 5 Torsion [N]-CA--C-[N] |==|  0.48841
USER: genes 6 Torsion [C]-N--CA-[CB] |==|  0.53033
USER: genes 7 Torsion [N]-CA--C-[O] |==|  0.45450
USER: genes 8 Torsion [N]-CA--CB-[CG] |==|  0.61597
USER: genes 9 Torsion [CA]-CB--CG-[ND1] |==|  0.79924
ROOT
ATOM      1  CA  HIS F   2      -0.678  30.662 -17.734  1.00 30.59 LIG 0.18  C 
ENDROOT
BRANCH 1 2
ATOM      2  N   HIS F   2      -1.810  30.686 -16.802  1.00 30.70 LIG-0.35  N 
ATOM      3  C   ALA F   1      -2.904  31.414 -17.014  1.00 31.15 LIG 0.25  C 
ATOM      4 O    ALA F   1      -3.061  32.139 -18.002  1.00 30.37 LIG-0.27  OA
ATOM      5 H    HIS F   2      -1.701  30.187 -16.110  1.00 30.70 LIG 0.16  HD
BRANCH 3 6
ATOM      6  CA  ALA F   1      -3.995  31.312 -15.940  1.00 31.15 LIG 0.27  C 
ATOM      7  CB  ALA F   1      -4.989  32.073 -16.093  0.00 20.00 LIG 0.05  C 
BRANCH 6 8
ATOM      8  N   ALA F   1      -3.417  30.961 -14.599  1.00 31.97 LIG-0.07  N 
ATOM      9 H3   ALA F   1      -3.024  31.678 -14.248  1.00 31.97 LIG 0.28  HD
ATOM     10 H1   ALA F   1      -4.068  30.685 -14.058  1.00 31.97 LIG 0.28  HD
ATOM     11 H2   ALA F   1      -2.817  30.312 -14.695  1.00 31.97 LIG 0.28  HD
ENDBRANCH 6 8
ENDBRANCH 3 6
ENDBRANCH 1 2
BRANCH 1 12
ATOM     12  C   HIS F   2       0.319  29.558 -17.357  1.00 31.15 LIG 0.24  C 
ATOM     13 O    HIS F   2       0.151  28.875 -16.330  1.00 30.80 LIG-0.27  OA
ATOM     14  N   ALA F   3       1.350  29.388 -18.193  1.00 30.97 LIG-0.35  N 
ATOM     15 H    ALA F   3       1.467  29.855 -18.906  1.00 30.97 LIG 0.16  HD
BRANCH 14 16
ATOM     16  CA  ALA F   3       2.385  28.381 -17.965  1.00 31.72 LIG 0.16  C 
ATOM     17  CB  ALA F   3       3.520  28.687 -18.973  0.00 20.00 LIG 0.04  C 
BRANCH 16 18
ATOM     18  C   ALA F   3       3.186  28.607 -16.686  1.00 32.37 LIG 0.22  C 
ATOM     19 O    ALA F   3       3.878  27.700 -16.201  1.00 33.75 LIG-0.29  OA
ENDBRANCH 16 18
ENDBRANCH 14 16
ENDBRANCH 1 12
BRANCH 1 20
ATOM     20  CB  HIS F   2       0.037  32.024 -17.748  1.00 30.20 LIG 0.10  C 
BRANCH 20 21
ATOM     21  CG  HIS F   2       0.444  32.503 -19.116  1.00 29.66 LIG 0.06  A 
ATOM     22 ND1  HIS F   2       1.483  31.946 -19.836  1.00 29.25 LIG-0.24  NA
ATOM     23  CE1 HIS F   2       1.625  32.591 -20.983  1.00 27.69 LIG 0.23  A 
ATOM     24 NE2  HIS F   2       0.725  33.562 -21.030  1.00 31.40 LIG-0.25  NA
ATOM     25  CD2 HIS F   2      -0.015  33.538 -19.866  1.00 30.69 LIG 0.14  A 
ENDBRANCH 20 21
ENDBRANCH 1 20
TORSDOF 8
ENDMDL
MODEL 11
USER: ADFR SOLUTION from run 179
USER: SCORE 8.044456 LL:  -1.285 LR:  -7.379 RR:   0.000 FEB:  -4.993
USER: RMSD 5.123324
USER: SEED 178
USER: STATUS no improvement in best in 14 clusters for 5 generations
USER: GENES 10
USER: genes 0 Translation |==|  0.59342 0.59489 0.43047
USER: genes 1 Rotation |==|  0.56042 0.67308 0.57732 0.95871
USER: genes 2 Torsion [C]-CA--N-[C] |==|  0.15722
USER: genes 3 Torsion [N]-C--CA-[N] |==|  0.62544
USER: genes 4 Torsion [C]-CA--N-[H3] |==|  0.40591
USER: genes 5 Torsion [N]-CA--C-[N] |==|  0.61907
USER: genes 6 Torsion [C]-N--CA-[CB] |==|  0.13662
USER: genes 7 Torsion [N]-CA--C-[O] |==|  0.31781
USER: genes 8 Torsion [N]-CA--CB-[CG] |==|  0.86548
USER: genes 9 Torsion [CA]-CB--CG-[ND1] |==|  0.22723
ROOT
ATOM      1  CA  HIS F   2       0.239  31.701 -20.194  1.00 30.59 LIG 0.18  C 
ENDROOT
BRANCH 1 2
ATOM      2  N   HIS F   2      -0.587  32.298 -21.248  1.00 30.70 LIG-0.35  N 
ATOM      3  C   ALA F   1      -1.039  33.549 -21.189  1.00 31.15 LIG 0.25  C 
ATOM      4 O    ALA F   1      -0.814  34.312 -20.245  1.00 30.37 LIG-0.27  OA
ATOM      5 H    HIS F   2      -0.751  31.766 -21.905  1.00 30.70 LIG 0.16  HD
BRANCH 3 6
ATOM      6  CA  ALA F   1      -1.880  34.013 -22.385  1.00 31.15 LIG 0.27  C 
ATOM      7  CB  ALA F   1      -2.276  33.103 -23.164  0.00 20.00 LIG 0.05  C 
BRANCH 6 8
ATOM      8  N   ALA F   1      -1.473  35.382 -22.849  1.00 31.97 LIG-0.07  N 
ATOM      9 H3   ALA F   1      -1.567  35.437 -23.732  1.00 31.97 LIG 0.28  HD
ATOM     10 H1   ALA F   1      -1.986  35.994 -22.457  1.00 31.97 LIG 0.28  HD
ATOM     11 H2   ALA F   1      -0.622  35.528 -22.633  1.00 31.97 LIG 0.28  HD
ENDBRANCH 6 8
ENDBRANCH 3 6
ENDBRANCH 1 2
BRANCH 1 12
ATOM     12  C   HIS F   2      -0.471  31.769 -18.836  1.00 31.15 LIG 0.24  C 
ATOM     13 O    HIS F   2      -1.684  31.504 -18.740  1.00 30.80 LIG-0.27  OA
ATOM     14  N   ALA F   3       0.288  32.124 -17.793  1.00 30.97 LIG-0.35  N 
ATOM     15 H    ALA F   3       1.127  32.304 -17.855  1.00 30.97 LIG 0.16  HD
BRANCH 14 16
ATOM     16  CA  ALA F   3      -0.247  32.240 -16.438  1.00 31.72 LIG 0.16  C 
ATOM     17  CB  ALA F   3      -1.039  30.937 -16.169  0.00 20.00 LIG 0.04  C 
BRANCH 16 18
ATOM     18  C   ALA F   3       0.807  32.062 -15.348  1.00 32.37 LIG 0.22  C 
ATOM     19 O    ALA F   3       1.112  33.001 -14.599  1.00 33.75 LIG-0.29  OA
ENDBRANCH 16 18
ENDBRANCH 14 16
ENDBRANCH 1 12
BRANCH 1 20
ATOM     20  CB  HIS F   2       1.599  32.415 -20.106  1.00 30.20 LIG 0.10  C 
BRANCH 20 21
ATOM     21  CG  HIS F   2       2.297  32.599 -21.427  1.00 29.66 LIG 0.06  A 
ATOM     22 ND1  HIS F   2       2.002  33.625 -22.303  1.00 29.25 LIG-0.24  NA
ATOM     23  CE1 HIS F   2       2.753  33.512 -23.388  1.00 27.69 LIG 0.23  A 
ATOM     24 NE2  HIS F   2       3.516  32.437 -23.257  1.00 31.40 LIG-0.25  NA
ATOM     25  CD2 HIS F   2       3.237  31.839 -22.046  1.00 30.69 LIG 0.14  A 
ENDBRANCH 20 21
ENDBRANCH 1 20
TORSDOF 8
ENDMDL
MODEL 12
USER: ADFR SOLUTION from run 46
USER: SCORE 8.203494 LL:  -1.434 LR:  -7.367 RR:   0.000 FEB:  -4.980
USER: RMSD 5.901764
USER: SEED 45
USER: STATUS no improvement in best in 17 clusters for 5 generations
USER: GENES 10
USER: genes 0 Translation |==|  0.54354 0.56007 0.54562
USER: genes 1 Rotation |==|  0.68694 0.85186 0.72085 0.70608
USER: genes 2 Torsion [C]-CA--N-[C] |==|  0.15777
USER: genes 3 Torsion [N]-C--CA-[N] |==|  0.33939
USER: genes 4 Torsion [C]-CA--N-[H3] |==|  0.73080
USER: genes 5 Torsion [N]-CA--C-[N] |==|  0.67222
USER: genes 6 Torsion [C]-N--CA-[CB] |==|  0.35435
USER: genes 7 Torsion [N]-CA--C-[O] |==|  0.01164
USER: genes 8 Torsion [N]-CA--CB-[CG] |==|  0.65873
USER: genes 9 Torsion [CA]-CB--CG-[ND1] |==|  0.78039
ROOT
ATOM      1  CA  HIS F   2      -0.621  31.283 -18.380  1.00 30.59 LIG 0.18  C 
ENDROOT
BRANCH 1 2
ATOM      2  N   HIS F   2      -1.930  31.200 -17.725  1.00 30.70 LIG-0.35  N 
ATOM      3  C   ALA F   1      -2.133  31.586 -16.466  1.00 31.15 LIG 0.25  C 
ATOM      4 O    ALA F   1      -1.243  32.035 -15.739  1.00 30.37 LIG-0.27  OA
ATOM      5 H    HIS F   2      -2.551  30.881 -18.228  1.00 30.70 LIG 0.16  HD
BRANCH 3 6
ATOM      6  CA  ALA F   1      -3.568  31.438 -15.945  1.00 31.15 LIG 0.27  C 
ATOM      7  CB  ALA F   1      -4.322  32.433 -16.126  0.00 20.00 LIG 0.05  C 
BRANCH 6 8
ATOM      8  N   ALA F   1      -3.625  30.566 -14.724  1.00 31.97 LIG-0.07  N 
ATOM      9 H3   ALA F   1      -3.843  29.737 -14.961  1.00 31.97 LIG 0.28  HD
ATOM     10 H1   ALA F   1      -2.829  30.561 -14.325  1.00 31.97 LIG 0.28  HD
ATOM     11 H2   ALA F   1      -4.236  30.883 -14.160  1.00 31.97 LIG 0.28  HD
ENDBRANCH 6 8
ENDBRANCH 3 6
ENDBRANCH 1 2
BRANCH 1 12
ATOM     12  C   HIS F   2       0.439  30.506 -17.588  1.00 31.15 LIG 0.24  C 
ATOM     13 O    HIS F   2       0.330  29.277 -17.419  1.00 30.80 LIG-0.27  OA
ATOM     14  N   ALA F   3       1.459  31.227 -17.108  1.00 30.97 LIG-0.35  N 
ATOM     15 H    ALA F   3       1.540  32.075 -17.227  1.00 30.97 LIG 0.16  HD
BRANCH 14 16
ATOM     16  CA  ALA F   3       2.541  30.630 -16.329  1.00 31.72 LIG 0.16  C 
ATOM     17  CB  ALA F   3       3.861  31.068 -17.010  0.00 20.00 LIG 0.04  C 
BRANCH 16 18
ATOM     18  C   ALA F   3       2.774  31.312 -14.983  1.00 32.37 LIG 0.22  C 
ATOM     19 O    ALA F   3       2.032  32.228 -14.598  1.00 33.75 LIG-0.29  OA
ENDBRANCH 16 18
ENDBRANCH 14 16
ENDBRANCH 1 12
BRANCH 1 20
ATOM     20  CB  HIS F   2      -0.185  32.750 -18.530  1.00 30.20 LIG 0.10  C 
BRANCH 20 21
ATOM     21  CG  HIS F   2       0.105  33.176 -19.945  1.00 29.66 LIG 0.06  A 
ATOM     22 ND1  HIS F   2       1.284  32.881 -20.598  1.00 29.25 LIG-0.24  NA
ATOM     23  CE1 HIS F   2       1.264  33.409 -21.813  1.00 27.69 LIG 0.23  A 
ATOM     24 NE2  HIS F   2       0.117  34.053 -21.968  1.00 31.40 LIG-0.25  NA
ATOM     25  CD2 HIS F   2      -0.619  33.936 -20.807  1.00 30.69 LIG 0.14  A 
ENDBRANCH 20 21
ENDBRANCH 1 20
TORSDOF 8
ENDMDL
MODEL 13
USER: ADFR SOLUTION from run 190
USER: SCORE 8.578310 LL:  -1.310 LR:  -7.363 RR:   0.000 FEB:  -4.977
USER: RMSD 5.536647
USER: SEED 189
USER: STATUS no improvement in best in 16 clusters for 5 generations
USER: GENES 10
USER: genes 0 Translation |==|  0.58439 0.54429 0.66862
USER: genes 1 Rotation |==|  0.81461 0.65688 0.82104 0.65279
USER: genes 2 Torsion [C]-CA--N-[C] |==|  0.63000
USER: genes 3 Torsion [N]-C--CA-[N] |==|  0.05986
USER: genes 4 Torsion [C]-CA--N-[H3] |==|  0.50244
USER: genes 5 Torsion [N]-CA--C-[N] |==|  0.41704
USER: genes 6 Torsion [C]-N--CA-[CB] |==|  0.54924
USER: genes 7 Torsion [N]-CA--C-[O] |==|  0.79303
USER: genes 8 Torsion [N]-CA--CB-[CG] |==|  0.42393
USER: genes 9 Torsion [CA]-CB--CG-[ND1] |==|  0.64002
ROOT
ATOM      1  CA  HIS F   2       0.084  31.093 -16.443  1.00 30.59 LIG 0.18  C 
ENDROOT
BRANCH 1 2
ATOM      2  N   HIS F   2      -1.316  31.045 -16.007  1.00 30.70 LIG-0.35  N 
ATOM      3  C   ALA F   1      -2.256  31.845 -16.507  1.00 31.15 LIG 0.25  C 
ATOM      4 O    ALA F   1      -2.036  32.701 -17.370  1.00 30.37 LIG-0.27  OA
ATOM      5 H    HIS F   2      -1.471  30.454 -15.401  1.00 30.70 LIG 0.16  HD
BRANCH 3 6
ATOM      6  CA  ALA F   1      -3.669  31.651 -15.942  1.00 31.15 LIG 0.27  C 
ATOM      7  CB  ALA F   1      -4.513  32.532 -16.262  0.00 20.00 LIG 0.05  C 
BRANCH 6 8
ATOM      8  N   ALA F   1      -3.639  30.980 -14.599  1.00 31.97 LIG-0.07  N 
ATOM      9 H3   ALA F   1      -4.471  30.869 -14.303  1.00 31.97 LIG 0.28  HD
ATOM     10 H1   ALA F   1      -3.242  30.186 -14.672  1.00 31.97 LIG 0.28  HD
ATOM     11 H2   ALA F   1      -3.185  31.485 -14.025  1.00 31.97 LIG 0.28  HD
ENDBRANCH 6 8
ENDBRANCH 3 6
ENDBRANCH 1 2
BRANCH 1 12
ATOM     12  C   HIS F   2       0.620  29.683 -16.721  1.00 31.15 LIG 0.24  C 
ATOM     13 O    HIS F   2       0.176  28.701 -16.097  1.00 30.80 LIG-0.27  OA
ATOM     14  N   ALA F   3       1.572  29.590 -17.657  1.00 30.97 LIG-0.35  N 
ATOM     15 H    ALA F   3       1.878  30.266 -18.093  1.00 30.97 LIG 0.16  HD
BRANCH 14 16
ATOM     16  CA  ALA F   3       2.185  28.316 -18.027  1.00 31.72 LIG 0.16  C 
ATOM     17  CB  ALA F   3       3.500  28.664 -18.766  0.00 20.00 LIG 0.04  C 
BRANCH 16 18
ATOM     18  C   ALA F   3       2.807  27.572 -16.849  1.00 32.37 LIG 0.22  C 
ATOM     19 O    ALA F   3       3.878  27.950 -16.353  1.00 33.75 LIG-0.29  OA
ENDBRANCH 16 18
ENDBRANCH 14 16
ENDBRANCH 1 12
BRANCH 1 20
ATOM     20  CB  HIS F   2       0.956  31.781 -15.380  1.00 30.20 LIG 0.10  C 
BRANCH 20 21
ATOM     21  CG  HIS F   2       2.397  31.343 -15.373  1.00 29.66 LIG 0.06  A 
ATOM     22 ND1  HIS F   2       3.060  30.938 -14.231  1.00 29.25 LIG-0.24  NA
ATOM     23  CE1 HIS F   2       4.316  30.642 -14.529  1.00 27.69 LIG 0.23  A 
ATOM     24 NE2  HIS F   2       4.500  30.857 -15.823  1.00 31.40 LIG-0.25  NA
ATOM     25  CD2 HIS F   2       3.318  31.312 -16.370  1.00 30.69 LIG 0.14  A 
ENDBRANCH 20 21
ENDBRANCH 1 20
TORSDOF 8
ENDMDL
MODEL 14
USER: ADFR SOLUTION from run 196
USER: SCORE 8.583577 LL:  -1.347 LR:  -7.320 RR:   0.000 FEB:  -4.933
USER: RMSD 6.772750
USER: SEED 195
USER: STATUS no improvement in best in 13 clusters for 5 generations
USER: GENES 10
USER: genes 0 Translation |==|  0.60877 0.52937 0.70897
USER: genes 1 Rotation |==|  0.35416 0.10226 0.57328 0.75527
USER: genes 2 Torsion [C]-CA--N-[C] |==|  0.84444
USER: genes 3 Torsion [N]-C--CA-[N] |==|  0.25298
USER: genes 4 Torsion [C]-CA--N-[H3] |==|  0.48675
USER: genes 5 Torsion [N]-CA--C-[N] |==|  0.87279
USER: genes 6 Torsion [C]-N--CA-[CB] |==|  0.35419
USER: genes 7 Torsion [N]-CA--C-[O] |==|  0.66791
USER: genes 8 Torsion [N]-CA--CB-[CG] |==|  0.54818
USER: genes 9 Torsion [CA]-CB--CG-[ND1] |==|  0.28440
ROOT
ATOM      1  CA  HIS F   2       0.504  30.914 -15.808  1.00 30.59 LIG 0.18  C 
ENDROOT
BRANCH 1 2
ATOM      2  N   HIS F   2       1.792  31.275 -15.207  1.00 30.70 LIG-0.35  N 
ATOM      3  C   ALA F   1       2.876  30.508 -15.306  1.00 31.15 LIG 0.25  C 
ATOM      4 O    ALA F   1       2.893  29.425 -15.901  1.00 30.37 LIG-0.27  OA
ATOM      5 H    HIS F   2       1.781  32.026 -14.786  1.00 30.70 LIG 0.16  HD
BRANCH 3 6
ATOM      6  CA  ALA F   1       4.141  31.045 -14.625  1.00 31.15 LIG 0.27  C 
ATOM      7  CB  ALA F   1       5.136  31.226 -15.380  0.00 20.00 LIG 0.05  C 
BRANCH 6 8
ATOM      8  N   ALA F   1       4.253  30.561 -13.208  1.00 31.97 LIG-0.07  N 
ATOM      9 H3   ALA F   1       5.027  30.830 -12.862  1.00 31.97 LIG 0.28  HD
ATOM     10 H1   ALA F   1       3.582  30.893 -12.727  1.00 31.97 LIG 0.28  HD
ATOM     11 H2   ALA F   1       4.216  29.672 -13.194  1.00 31.97 LIG 0.28  HD
ENDBRANCH 6 8
ENDBRANCH 3 6
ENDBRANCH 1 2
BRANCH 1 12
ATOM     12  C   HIS F   2       0.653  30.667 -17.315  1.00 31.15 LIG 0.24  C 
ATOM     13 O    HIS F   2       0.128  29.672 -17.849  1.00 30.80 LIG-0.27  OA
ATOM     14  N   ALA F   3       1.367  31.574 -17.991  1.00 30.97 LIG-0.35  N 
ATOM     15 H    ALA F   3       1.728  32.264 -17.626  1.00 30.97 LIG 0.16  HD
BRANCH 14 16
ATOM     16  CA  ALA F   3       1.602  31.471 -19.430  1.00 31.72 LIG 0.16  C 
ATOM     17  CB  ALA F   3       1.171  32.828 -20.040  0.00 20.00 LIG 0.04  C 
BRANCH 16 18
ATOM     18  C   ALA F   3       3.078  31.539 -19.814  1.00 32.37 LIG 0.22  C 
ATOM     19 O    ALA F   3       3.501  32.437 -20.556  1.00 33.75 LIG-0.29  OA
ENDBRANCH 16 18
ENDBRANCH 14 16
ENDBRANCH 1 12
BRANCH 1 20
ATOM     20  CB  HIS F   2      -0.534  32.023 -15.563  1.00 30.20 LIG 0.10  C 
BRANCH 20 21
ATOM     21  CG  HIS F   2      -1.964  31.597 -15.765  1.00 29.66 LIG 0.06  A 
ATOM     22 ND1  HIS F   2      -2.823  31.312 -14.723  1.00 29.25 LIG-0.24  NA
ATOM     23  CE1 HIS F   2      -3.999  30.939 -15.206  1.00 27.69 LIG 0.23  A 
ATOM     24 NE2  HIS F   2      -3.930  30.955 -16.528  1.00 31.40 LIG-0.25  NA
ATOM     25  CD2 HIS F   2      -2.662  31.348 -16.903  1.00 30.69 LIG 0.14  A 
ENDBRANCH 20 21
ENDBRANCH 1 20
TORSDOF 8
ENDMDL
MODEL 15
USER: ADFR SOLUTION from run 183
USER: SCORE 8.327224 LL:  -1.681 LR:  -7.307 RR:   0.000 FEB:  -4.920
USER: RMSD 5.103002
USER: SEED 182
USER: STATUS no improvement in best in 12 clusters for 5 generations
USER: GENES 10
USER: genes 0 Translation |==|  0.54655 0.40632 0.58255
USER: genes 1 Rotation |==|  0.60428 0.92698 0.56504 0.72931
USER: genes 2 Torsion [C]-CA--N-[C] |==|  0.22214
USER: genes 3 Torsion [N]-C--CA-[N] |==|  0.21432
USER: genes 4 Torsion [C]-CA--N-[H3] |==|  0.54759
USER: genes 5 Torsion [N]-CA--C-[N] |==|  0.83771
USER: genes 6 Torsion [C]-N--CA-[CB] |==|  0.21946
USER: genes 7 Torsion [N]-CA--C-[O] |==|  0.05457
USER: genes 8 Torsion [N]-CA--CB-[CG] |==|  0.40075
USER: genes 9 Torsion [CA]-CB--CG-[ND1] |==|  0.15382
ROOT
ATOM      1  CA  HIS F   2      -0.569  29.438 -17.799  1.00 30.59 LIG 0.18  C 
ENDROOT
BRANCH 1 2
ATOM      2  N   HIS F   2      -1.778  29.844 -17.075  1.00 30.70 LIG-0.35  N 
ATOM      3  C   ALA F   1      -2.060  31.116 -16.798  1.00 31.15 LIG 0.25  C 
ATOM      4 O    ALA F   1      -1.331  32.061 -17.113  1.00 30.37 LIG-0.27  OA
ATOM      5 H    HIS F   2      -2.285  29.187 -16.849  1.00 30.70 LIG 0.16  HD
BRANCH 3 6
ATOM      6  CA  ALA F   1      -3.373  31.360 -16.042  1.00 31.15 LIG 0.27  C 
ATOM      7  CB  ALA F   1      -4.092  32.299 -16.482  0.00 20.00 LIG 0.05  C 
BRANCH 6 8
ATOM      8  N   ALA F   1      -3.240  31.030 -14.583  1.00 31.97 LIG-0.07  N 
ATOM      9 H3   ALA F   1      -4.049  30.939 -14.224  1.00 31.97 LIG 0.28  HD
ATOM     10 H1   ALA F   1      -2.787  30.270 -14.491  1.00 31.97 LIG 0.28  HD
ATOM     11 H2   ALA F   1      -2.804  31.686 -14.169  1.00 31.97 LIG 0.28  HD
ENDBRANCH 6 8
ENDBRANCH 3 6
ENDBRANCH 1 2
BRANCH 1 12
ATOM     12  C   HIS F   2       0.647  29.412 -16.863  1.00 31.15 LIG 0.24  C 
ATOM     13 O    HIS F   2       1.302  28.365 -16.703  1.00 30.80 LIG-0.27  OA
ATOM     14  N   ALA F   3       0.941  30.565 -16.251  1.00 30.97 LIG-0.35  N 
ATOM     15 H    ALA F   3       0.493  31.291 -16.363  1.00 30.97 LIG 0.16  HD
BRANCH 14 16
ATOM     16  CA  ALA F   3       2.065  30.696 -15.326  1.00 31.72 LIG 0.16  C 
ATOM     17  CB  ALA F   3       3.336  30.829 -16.201  0.00 20.00 LIG 0.04  C 
BRANCH 16 18
ATOM     18  C   ALA F   3       2.144  32.062 -14.650  1.00 32.37 LIG 0.22  C 
ATOM     19 O    ALA F   3       1.152  32.804 -14.599  1.00 33.75 LIG-0.29  OA
ENDBRANCH 16 18
ENDBRANCH 14 16
ENDBRANCH 1 12
BRANCH 1 20
ATOM     20  CB  HIS F   2      -0.299  30.391 -18.975  1.00 30.20 LIG 0.10  C 
BRANCH 20 21
ATOM     21  CG  HIS F   2       1.158  30.658 -19.244  1.00 29.66 LIG 0.06  A 
ATOM     22 ND1  HIS F   2       2.081  29.657 -19.476  1.00 29.25 LIG-0.24  NA
ATOM     23  CE1 HIS F   2       3.280  30.190 -19.650  1.00 27.69 LIG 0.23  A 
ATOM     24 NE2  HIS F   2       3.175  31.505 -19.523  1.00 31.40 LIG-0.25  NA
ATOM     25  CD2 HIS F   2       1.859  31.821 -19.253  1.00 30.69 LIG 0.14  A 
ENDBRANCH 20 21
ENDBRANCH 1 20
TORSDOF 8
ENDMDL
MODEL 16
USER: ADFR SOLUTION from run 31
USER: SCORE 8.413023 LL:  -1.147 LR:  -7.296 RR:   0.000 FEB:  -4.910
USER: RMSD 6.846826
USER: SEED 30
USER: STATUS no improvement in best in 14 clusters for 5 generations
USER: GENES 10
USER: genes 0 Translation |==|  0.62726 0.66377 0.46210
USER: genes 1 Rotation |==|  0.63435 0.38529 0.96584 0.54219
USER: genes 2 Torsion [C]-CA--N-[C] |==|  0.83135
USER: genes 3 Torsion [N]-C--CA-[N] |==|  0.30700
USER: genes 4 Torsion [C]-CA--N-[H3] |==|  0.10392
USER: genes 5 Torsion [N]-CA--C-[N] |==|  0.35568
USER: genes 6 Torsion [C]-N--CA-[CB] |==|  0.83199
USER: genes 7 Torsion [N]-CA--C-[O] |==|  0.23492
USER: genes 8 Torsion [N]-CA--CB-[CG] |==|  0.88625
USER: genes 9 Torsion [CA]-CB--CG-[ND1] |==|  0.03364
ROOT
ATOM      1  CA  HIS F   2       0.823  32.527 -19.696  1.00 30.59 LIG 0.18  C 
ENDROOT
BRANCH 1 2
ATOM      2  N   HIS F   2      -0.145  32.870 -20.743  1.00 30.70 LIG-0.35  N 
ATOM      3  C   ALA F   1       0.183  33.568 -21.829  1.00 31.15 LIG 0.25  C 
ATOM      4 O    ALA F   1       1.321  33.997 -22.047  1.00 30.37 LIG-0.27  OA
ATOM      5 H    HIS F   2      -0.940  32.578 -20.591  1.00 30.70 LIG 0.16  HD
BRANCH 3 6
ATOM      6  CA  ALA F   1      -0.953  33.827 -22.826  1.00 31.15 LIG 0.27  C 
ATOM      7  CB  ALA F   1      -0.967  33.085 -23.846  0.00 20.00 LIG 0.05  C 
BRANCH 6 8
ATOM      8  N   ALA F   1      -1.348  35.276 -22.849  1.00 31.97 LIG-0.07  N 
ATOM      9 H3   ALA F   1      -0.623  35.783 -22.759  1.00 31.97 LIG 0.28  HD
ATOM     10 H1   ALA F   1      -1.747  35.463 -23.622  1.00 31.97 LIG 0.28  HD
ATOM     11 H2   ALA F   1      -1.910  35.441 -22.179  1.00 31.97 LIG 0.28  HD
ENDBRANCH 6 8
ENDBRANCH 3 6
ENDBRANCH 1 2
BRANCH 1 12
ATOM     12  C   HIS F   2       1.962  31.670 -20.262  1.00 31.15 LIG 0.24  C 
ATOM     13 O    HIS F   2       1.716  30.641 -20.919  1.00 30.80 LIG-0.27  OA
ATOM     14  N   ALA F   3       3.204  32.099 -20.006  1.00 30.97 LIG-0.35  N 
ATOM     15 H    ALA F   3       3.378  32.811 -19.557  1.00 30.97 LIG 0.16  HD
BRANCH 14 16
ATOM     16  CA  ALA F   3       4.391  31.386 -20.473  1.00 31.72 LIG 0.16  C 
ATOM     17  CB  ALA F   3       4.332  29.976 -19.834  0.00 20.00 LIG 0.04  C 
BRANCH 16 18
ATOM     18  C   ALA F   3       4.307  30.948 -21.933  1.00 32.37 LIG 0.22  C 
ATOM     19 O    ALA F   3       4.613  31.725 -22.848  1.00 33.75 LIG-0.29  OA
ENDBRANCH 16 18
ENDBRANCH 14 16
ENDBRANCH 1 12
BRANCH 1 20
ATOM     20  CB  HIS F   2       0.130  31.777 -18.546  1.00 30.20 LIG 0.10  C 
BRANCH 20 21
ATOM     21  CG  HIS F   2      -1.222  32.321 -18.168  1.00 29.66 LIG 0.06  A 
ATOM     22 ND1  HIS F   2      -1.911  33.239 -18.936  1.00 29.25 LIG-0.24  NA
ATOM     23  CE1 HIS F   2      -3.050  33.553 -18.338  1.00 27.69 LIG 0.23  A 
ATOM     24 NE2  HIS F   2      -3.121  32.883 -17.198  1.00 31.40 LIG-0.25  NA
ATOM     25  CD2 HIS F   2      -1.981  32.118 -17.061  1.00 30.69 LIG 0.14  A 
ENDBRANCH 20 21
ENDBRANCH 1 20
TORSDOF 8
ENDMDL
MODEL 17
USER: ADFR SOLUTION from run 121
USER: SCORE 8.491593 LL:  -1.593 LR:  -7.259 RR:   0.000 FEB:  -4.873
USER: RMSD 4.813411
USER: SEED 120
USER: STATUS no improvement in best in 16 clusters for 5 generations
USER: GENES 10
USER: genes 0 Translation |==|  0.42388 0.56215 0.60818
USER: genes 1 Rotation |==|  0.91487 0.36048 0.25877 0.51499
USER: genes 2 Torsion [C]-CA--N-[C] |==|  0.66800
USER: genes 3 Torsion [N]-C--CA-[N] |==|  0.08191
USER: genes 4 Torsion [C]-CA--N-[H3] |==|  0.59857
USER: genes 5 Torsion [N]-CA--C-[N] |==|  0.90717
USER: genes 6 Torsion [C]-N--CA-[CB] |==|  0.16299
USER: genes 7 Torsion [N]-CA--C-[O] |==|  0.82947
USER: genes 8 Torsion [N]-CA--CB-[CG] |==|  0.24402
USER: genes 9 Torsion [CA]-CB--CG-[ND1] |==|  0.78948
ROOT
ATOM      1  CA  HIS F   2      -2.685  31.308 -17.395  1.00 30.59 LIG 0.18  C 
ENDROOT
BRANCH 1 2
ATOM      2  N   HIS F   2      -1.607  30.562 -16.739  1.00 30.70 LIG-0.35  N 
ATOM      3  C   ALA F   1      -0.385  31.062 -16.565  1.00 31.15 LIG 0.25  C 
ATOM      4 O    ALA F   1      -0.047  32.187 -16.945  1.00 30.37 LIG-0.27  OA
ATOM      5 H    HIS F   2      -1.837  29.774 -16.478  1.00 30.70 LIG 0.16  HD
BRANCH 3 6
ATOM      6  CA  ALA F   1       0.617  30.146 -15.849  1.00 31.15 LIG 0.27  C 
ATOM      7  CB  ALA F   1       1.786  30.604 -15.724  0.00 20.00 LIG 0.05  C 
BRANCH 6 8
ATOM      8  N   ALA F   1       0.316  28.697 -16.099  1.00 31.97 LIG-0.07  N 
ATOM      9 H3   ALA F   1       0.502  28.224 -15.369  1.00 31.97 LIG 0.28  HD
ATOM     10 H1   ALA F   1      -0.546  28.603 -16.301  1.00 31.97 LIG 0.28  HD
ATOM     11 H2   ALA F   1       0.812  28.403 -16.776  1.00 31.97 LIG 0.28  HD
ENDBRANCH 6 8
ENDBRANCH 3 6
ENDBRANCH 1 2
BRANCH 1 12
ATOM     12  C   HIS F   2      -3.872  31.506 -16.444  1.00 31.15 LIG 0.24  C 
ATOM     13 O    HIS F   2      -4.568  32.537 -16.503  1.00 30.80 LIG-0.27  OA
ATOM     14  N   ALA F   3      -4.098  30.516 -15.572  1.00 30.97 LIG-0.35  N 
ATOM     15 H    ALA F   3      -3.623  29.800 -15.532  1.00 30.97 LIG 0.16  HD
BRANCH 14 16
ATOM     16  CA  ALA F   3      -5.187  30.562 -14.599  1.00 31.72 LIG 0.16  C 
ATOM     17  CB  ALA F   3      -6.495  30.708 -15.415  0.00 20.00 LIG 0.04  C 
BRANCH 16 18
ATOM     18  C   ALA F   3      -5.497  29.209 -13.964  1.00 32.37 LIG 0.22  C 
ATOM     19 O    ALA F   3      -5.872  28.252 -14.657  1.00 33.75 LIG-0.29  OA
ENDBRANCH 16 18
ENDBRANCH 14 16
ENDBRANCH 1 12
BRANCH 1 20
ATOM     20  CB  HIS F   2      -3.153  30.575 -18.664  1.00 30.20 LIG 0.10  C 
BRANCH 20 21
ATOM     21  CG  HIS F   2      -4.233  29.552 -18.434  1.00 29.66 LIG 0.06  A 
ATOM     22 ND1  HIS F   2      -3.996  28.312 -17.874  1.00 29.25 LIG-0.24  NA
ATOM     23  CE1 HIS F   2      -5.126  27.623 -17.825  1.00 27.69 LIG 0.23  A 
ATOM     24 NE2  HIS F   2      -6.090  28.365 -18.349  1.00 31.40 LIG-0.25  NA
ATOM     25  CD2 HIS F   2      -5.553  29.571 -18.752  1.00 30.69 LIG 0.14  A 
ENDBRANCH 20 21
ENDBRANCH 1 20
TORSDOF 8
ENDMDL
MODEL 18
USER: ADFR SOLUTION from run 56
USER: SCORE 8.369023 LL:  -1.294 LR:  -7.264 RR:   0.000 FEB:  -4.878
USER: RMSD 5.359432
USER: SEED 55
USER: STATUS no improvement in best in 17 clusters for 5 generations
USER: GENES 10
USER: genes 0 Translation |==|  0.47009 0.44163 0.53521
USER: genes 1 Rotation |==|  0.63542 0.95184 0.53458 0.66219
USER: genes 2 Torsion [C]-CA--N-[C] |==|  0.68675
USER: genes 3 Torsion [N]-C--CA-[N] |==|  0.80661
USER: genes 4 Torsion [C]-CA--N-[H3] |==|  0.06568
USER: genes 5 Torsion [N]-CA--C-[N] |==|  0.08332
USER: genes 6 Torsion [C]-N--CA-[CB] |==|  0.86211
USER: genes 7 Torsion [N]-CA--C-[O] |==|  0.18304
USER: genes 8 Torsion [N]-CA--CB-[CG] |==|  0.23150
USER: genes 9 Torsion [CA]-CB--CG-[ND1] |==|  0.29783
ROOT
ATOM      1  CA  HIS F   2      -1.888  29.862 -18.544  1.00 30.59 LIG 0.18  C 
ENDROOT
BRANCH 1 2
ATOM      2  N   HIS F   2      -2.761  30.384 -17.488  1.00 30.70 LIG-0.35  N 
ATOM      3  C   ALA F   1      -3.744  29.668 -16.945  1.00 31.15 LIG 0.25  C 
ATOM      4 O    ALA F   1      -4.014  28.512 -17.284  1.00 30.37 LIG-0.27  OA
ATOM      5 H    HIS F   2      -2.579  31.192 -17.255  1.00 30.70 LIG 0.16  HD
BRANCH 3 6
ATOM      6  CA  ALA F   1      -4.552  30.369 -15.845  1.00 31.15 LIG 0.27  C 
ATOM      7  CB  ALA F   1      -5.422  31.192 -16.243  0.00 20.00 LIG 0.05  C 
BRANCH 6 8
ATOM      8  N   ALA F   1      -3.736  30.562 -14.599  1.00 31.97 LIG-0.07  N 
ATOM      9 H3   ALA F   1      -2.871  30.561 -14.807  1.00 31.97 LIG 0.28  HD
ATOM     10 H1   ALA F   1      -3.950  31.340 -14.222  1.00 31.97 LIG 0.28  HD
ATOM     11 H2   ALA F   1      -3.905  29.901 -14.028  1.00 31.97 LIG 0.28  HD
ENDBRANCH 6 8
ENDBRANCH 3 6
ENDBRANCH 1 2
BRANCH 1 12
ATOM     12  C   HIS F   2      -0.451  29.695 -18.034  1.00 31.15 LIG 0.24  C 
ATOM     13 O    HIS F   2       0.516  29.812 -18.810  1.00 30.80 LIG-0.27  OA
ATOM     14  N   ALA F   3      -0.318  29.424 -16.730  1.00 30.97 LIG-0.35  N 
ATOM     15 H    ALA F   3      -0.983  29.346 -16.190  1.00 30.97 LIG 0.16  HD
BRANCH 14 16
ATOM     16  CA  ALA F   3       0.986  29.232 -16.099  1.00 31.72 LIG 0.16  C 
ATOM     17  CB  ALA F   3       1.753  28.217 -16.982  0.00 20.00 LIG 0.04  C 
BRANCH 16 18
ATOM     18  C   ALA F   3       1.934  30.414 -16.283  1.00 32.37 LIG 0.22  C 
ATOM     19 O    ALA F   3       1.685  31.514 -15.768  1.00 33.75 LIG-0.29  OA
ENDBRANCH 16 18
ENDBRANCH 14 16
ENDBRANCH 1 12
BRANCH 1 20
ATOM     20  CB  HIS F   2      -1.901  30.797 -19.765  1.00 30.20 LIG 0.10  C 
BRANCH 20 21
ATOM     21  CG  HIS F   2      -0.961  31.969 -19.667  1.00 29.66 LIG 0.06  A 
ATOM     22 ND1  HIS F   2       0.209  32.066 -20.393  1.00 29.25 LIG-0.24  NA
ATOM     23  CE1 HIS F   2       0.837  33.187 -20.076  1.00 27.69 LIG 0.23  A 
ATOM     24 NE2  HIS F   2       0.126  33.818 -19.155  1.00 31.40 LIG-0.25  NA
ATOM     25  CD2 HIS F   2      -0.997  33.068 -18.870  1.00 30.69 LIG 0.14  A 
ENDBRANCH 20 21
ENDBRANCH 1 20
TORSDOF 8
ENDMDL
MODEL 19
USER: ADFR SOLUTION from run 194
USER: SCORE 8.769187 LL:  -1.684 LR:  -7.255 RR:   0.000 FEB:  -4.869
USER: RMSD 5.453473
USER: SEED 193
USER: STATUS no improvement in best in 12 clusters for 5 generations
USER: GENES 10
USER: genes 0 Translation |==|  0.62701 0.65051 0.48222
USER: genes 1 Rotation |==|  0.49201 0.62895 0.01713 0.51193
USER: genes 2 Torsion [C]-CA--N-[C] |==|  0.55003
USER: genes 3 Torsion [N]-C--CA-[N] |==|  0.54995
USER: genes 4 Torsion [C]-CA--N-[H3] |==|  0.25556
USER: genes 5 Torsion [N]-CA--C-[N] |==|  0.43745
USER: genes 6 Torsion [C]-N--CA-[CB] |==|  0.54887
USER: genes 7 Torsion [N]-CA--C-[O] |==|  0.94238
USER: genes 8 Torsion [N]-CA--CB-[CG] |==|  0.45950
USER: genes 9 Torsion [CA]-CB--CG-[ND1] |==|  0.69458
ROOT
ATOM      1  CA  HIS F   2       0.819  32.368 -19.379  1.00 30.59 LIG 0.18  C 
ENDROOT
BRANCH 1 2
ATOM      2  N   HIS F   2       0.512  32.727 -20.767  1.00 30.70 LIG-0.35  N 
ATOM      3  C   ALA F   1      -0.382  33.660 -21.091  1.00 31.15 LIG 0.25  C 
ATOM      4 O    ALA F   1      -1.036  34.296 -20.259  1.00 30.37 LIG-0.27  OA
ATOM      5 H    HIS F   2       0.962  32.281 -21.349  1.00 30.70 LIG 0.16  HD
BRANCH 3 6
ATOM      6  CA  ALA F   1      -0.569  33.914 -22.592  1.00 31.15 LIG 0.27  C 
ATOM      7  CB  ALA F   1       0.316  33.424 -23.346  0.00 20.00 LIG 0.05  C 
BRANCH 6 8
ATOM      8  N   ALA F   1      -1.239  35.233 -22.849  1.00 31.97 LIG-0.07  N 
ATOM      9 H3   ALA F   1      -0.622  35.864 -22.959  1.00 31.97 LIG 0.28  HD
ATOM     10 H1   ALA F   1      -1.738  35.175 -23.584  1.00 31.97 LIG 0.28  HD
ATOM     11 H2   ALA F   1      -1.757  35.443 -22.157  1.00 31.97 LIG 0.28  HD
ENDBRANCH 6 8
ENDBRANCH 3 6
ENDBRANCH 1 2
BRANCH 1 12
ATOM     12  C   HIS F   2       2.156  31.622 -19.289  1.00 31.15 LIG 0.24  C 
ATOM     13 O    HIS F   2       2.622  31.032 -20.282  1.00 30.80 LIG-0.27  OA
ATOM     14  N   ALA F   3       2.767  31.652 -18.098  1.00 30.97 LIG-0.35  N 
ATOM     15 H    ALA F   3       2.450  32.062 -17.412  1.00 30.97 LIG 0.16  HD
BRANCH 14 16
ATOM     16  CA  ALA F   3       4.043  30.983 -17.855  1.00 31.72 LIG 0.16  C 
ATOM     17  CB  ALA F   3       4.185  30.860 -16.318  0.00 20.00 LIG 0.04  C 
BRANCH 16 18
ATOM     18  C   ALA F   3       4.021  29.490 -18.174  1.00 32.37 LIG 0.22  C 
ATOM     19 O    ALA F   3       2.951  28.867 -18.225  1.00 33.75 LIG-0.29  OA
ENDBRANCH 16 18
ENDBRANCH 14 16
ENDBRANCH 1 12
BRANCH 1 20
ATOM     20  CB  HIS F   2      -0.303  31.498 -18.787  1.00 30.20 LIG 0.10  C 
BRANCH 20 21
ATOM     21  CG  HIS F   2       0.060  30.793 -17.507  1.00 29.66 LIG 0.06  A 
ATOM     22 ND1  HIS F   2       0.243  29.428 -17.420  1.00 29.25 LIG-0.24  NA
ATOM     23  CE1 HIS F   2       0.524  29.096 -16.169  1.00 27.69 LIG 0.23  A 
ATOM     24 NE2  HIS F   2       0.514  30.198 -15.433  1.00 31.40 LIG-0.25  NA
ATOM     25  CD2 HIS F   2       0.210  31.271 -16.245  1.00 30.69 LIG 0.14  A 
ENDBRANCH 20 21
ENDBRANCH 1 20
TORSDOF 8
ENDMDL
MODEL 20
USER: ADFR SOLUTION from run 166
USER: SCORE 8.675648 LL:  -1.435 LR:  -7.250 RR:   0.000 FEB:  -4.863
USER: RMSD 5.312744
USER: SEED 165
USER: STATUS no improvement in best in 21 clusters for 5 generations
USER: GENES 10
USER: genes 0 Translation |==|  0.52787 0.65518 0.53608
USER: genes 1 Rotation |==|  0.51934 0.39503 0.98125 0.58371
USER: genes 2 Torsion [C]-CA--N-[C] |==|  0.81228
USER: genes 3 Torsion [N]-C--CA-[N] |==|  0.32075
USER: genes 4 Torsion [C]-CA--N-[H3] |==|  0.77218
USER: genes 5 Torsion [N]-CA--C-[N] |==|  0.38036
USER: genes 6 Torsion [C]-N--CA-[CB] |==|  0.83238
USER: genes 7 Torsion [N]-CA--C-[O] |==|  0.57079
USER: genes 8 Torsion [N]-CA--CB-[CG] |==|  0.20872
USER: genes 9 Torsion [CA]-CB--CG-[ND1] |==|  0.87242
ROOT
ATOM      1  CA  HIS F   2      -0.891  32.424 -18.531  1.00 30.59 LIG 0.18  C 
ENDROOT
BRANCH 1 2
ATOM      2  N   HIS F   2      -1.268  32.769 -19.906  1.00 30.70 LIG-0.35  N 
ATOM      3  C   ALA F   1      -0.413  33.302 -20.776  1.00 31.15 LIG 0.25  C 
ATOM      4 O    ALA F   1       0.764  33.562 -20.505  1.00 30.37 LIG-0.27  OA
ATOM      5 H    HIS F   2      -2.089  32.595 -20.095  1.00 30.70 LIG 0.16  HD
BRANCH 3 6
ATOM      6  CA  ALA F   1      -0.974  33.591 -22.174  1.00 31.15 LIG 0.27  C 
ATOM      7  CB  ALA F   1      -0.760  32.703 -23.045  0.00 20.00 LIG 0.05  C 
BRANCH 6 8
ATOM      8  N   ALA F   1      -0.980  35.062 -22.474  1.00 31.97 LIG-0.07  N 
ATOM      9 H3   ALA F   1      -1.700  35.437 -22.109  1.00 31.97 LIG 0.28  HD
ATOM     10 H1   ALA F   1      -0.247  35.437 -22.137  1.00 31.97 LIG 0.28  HD
ATOM     11 H2   ALA F   1      -0.997  35.186 -23.355  1.00 31.97 LIG 0.28  HD
ENDBRANCH 6 8
ENDBRANCH 3 6
ENDBRANCH 1 2
BRANCH 1 12
ATOM     12  C   HIS F   2       0.107  31.259 -18.512  1.00 31.15 LIG 0.24  C 
ATOM     13 O    HIS F   2      -0.056  30.272 -19.254  1.00 30.80 LIG-0.27  OA
ATOM     14  N   ALA F   3       1.135  31.380 -17.664  1.00 30.97 LIG-0.35  N 
ATOM     15 H    ALA F   3       1.253  32.062 -17.154  1.00 30.97 LIG 0.16  HD
BRANCH 14 16
ATOM     16  CA  ALA F   3       2.164  30.351 -17.529  1.00 31.72 LIG 0.16  C 
ATOM     17  CB  ALA F   3       1.435  29.064 -17.071  0.00 20.00 LIG 0.04  C 
BRANCH 16 18
ATOM     18  C   ALA F   3       2.681  29.824 -18.865  1.00 32.37 LIG 0.22  C 
ATOM     19 O    ALA F   3       3.168  28.688 -18.955  1.00 33.75 LIG-0.29  OA
ENDBRANCH 16 18
ENDBRANCH 14 16
ENDBRANCH 1 12
BRANCH 1 20
ATOM     20  CB  HIS F   2      -2.137  32.055 -17.708  1.00 30.20 LIG 0.10  C 
BRANCH 20 21
ATOM     21  CG  HIS F   2      -2.706  30.694 -18.010  1.00 29.66 LIG 0.06  A 
ATOM     22 ND1  HIS F   2      -2.902  30.223 -19.293  1.00 29.25 LIG-0.24  NA
ATOM     23  CE1 HIS F   2      -3.441  29.014 -19.245  1.00 27.69 LIG 0.23  A 
ATOM     24 NE2  HIS F   2      -3.619  28.687 -17.974  1.00 31.40 LIG-0.25  NA
ATOM     25  CD2 HIS F   2      -3.183  29.729 -17.182  1.00 30.69 LIG 0.14  A 
ENDBRANCH 20 21
ENDBRANCH 1 20
TORSDOF 8
ENDMDL
MODEL 21
USER: ADFR SOLUTION from run 115
USER: SCORE 8.322044 LL:  -1.287 LR:  -7.245 RR:   0.000 FEB:  -4.858
USER: RMSD 5.235968
USER: SEED 114
USER: STATUS no improvement in best in 11 clusters for 5 generations
USER: GENES 10
USER: genes 0 Translation |==|  0.71101 0.58584 0.42931
USER: genes 1 Rotation |==|  0.71735 0.65295 0.60969 0.90907
USER: genes 2 Torsion [C]-CA--N-[C] |==|  0.78368
USER: genes 3 Torsion [N]-C--CA-[N] |==|  0.31434
USER: genes 4 Torsion [C]-CA--N-[H3] |==|  0.79868
USER: genes 5 Torsion [N]-CA--C-[N] |==|  0.86808
USER: genes 6 Torsion [C]-N--CA-[CB] |==|  0.24755
USER: genes 7 Torsion [N]-CA--C-[O] |==|  0.74517
USER: genes 8 Torsion [N]-CA--CB-[CG] |==|  0.65585
USER: genes 9 Torsion [CA]-CB--CG-[ND1] |==|  0.15680
ROOT
ATOM      1  CA  HIS F   2       2.268  31.592 -20.212  1.00 30.59 LIG 0.18  C 
ENDROOT
BRANCH 1 2
ATOM      2  N   HIS F   2       1.456  32.755 -20.587  1.00 30.70 LIG-0.35  N 
ATOM      3  C   ALA F   1       0.341  32.654 -21.308  1.00 31.15 LIG 0.25  C 
ATOM      4 O    ALA F   1      -0.104  31.583 -21.731  1.00 30.37 LIG-0.27  OA
ATOM      5 H    HIS F   2       1.767  33.503 -20.299  1.00 30.70 LIG 0.16  HD
BRANCH 3 6
ATOM      6  CA  ALA F   1      -0.388  33.972 -21.599  1.00 31.15 LIG 0.27  C 
ATOM      7  CB  ALA F   1      -1.366  34.236 -20.846  0.00 20.00 LIG 0.05  C 
BRANCH 6 8
ATOM      8  N   ALA F   1      -0.351  34.312 -23.061  1.00 31.97 LIG-0.07  N 
ATOM      9 H3   ALA F   1       0.470  34.570 -23.286  1.00 31.97 LIG 0.28  HD
ATOM     10 H1   ALA F   1      -0.578  33.596 -23.538  1.00 31.97 LIG 0.28  HD
ATOM     11 H2   ALA F   1      -0.925  34.971 -23.227  1.00 31.97 LIG 0.28  HD
ENDBRANCH 6 8
ENDBRANCH 3 6
ENDBRANCH 1 2
BRANCH 1 12
ATOM     12  C   HIS F   2       1.631  30.834 -19.040  1.00 31.15 LIG 0.24  C 
ATOM     13 O    HIS F   2       1.507  29.596 -19.077  1.00 30.80 LIG-0.27  OA
ATOM     14  N   ALA F   3       1.232  31.582 -18.004  1.00 30.97 LIG-0.35  N 
ATOM     15 H    ALA F   3       1.320  32.438 -17.973  1.00 30.97 LIG 0.16  HD
BRANCH 14 16
ATOM     16  CA  ALA F   3       0.603  31.006 -16.818  1.00 31.72 LIG 0.16  C 
ATOM     17  CB  ALA F   3       1.752  30.653 -15.843  0.00 20.00 LIG 0.04  C 
BRANCH 16 18
ATOM     18  C   ALA F   3      -0.098  32.037 -15.937  1.00 32.37 LIG 0.22  C 
ATOM     19 O    ALA F   3       0.501  32.586 -15.002  1.00 33.75 LIG-0.29  OA
ENDBRANCH 16 18
ENDBRANCH 14 16
ENDBRANCH 1 12
BRANCH 1 20
ATOM     20  CB  HIS F   2       3.693  32.029 -19.835  1.00 30.20 LIG 0.10  C 
BRANCH 20 21
ATOM     21  CG  HIS F   2       4.784  31.357 -20.626  1.00 29.66 LIG 0.06  A 
ATOM     22 ND1  HIS F   2       4.852  31.392 -22.005  1.00 29.25 LIG-0.24  NA
ATOM     23  CE1 HIS F   2       5.898  30.692 -22.416  1.00 27.69 LIG 0.23  A 
ATOM     24 NE2  HIS F   2       6.506  30.187 -21.353  1.00 31.40 LIG-0.25  NA
ATOM     25  CD2 HIS F   2       5.819  30.576 -20.222  1.00 30.69 LIG 0.14  A 
ENDBRANCH 20 21
ENDBRANCH 1 20
TORSDOF 8
ENDMDL
MODEL 22
USER: ADFR SOLUTION from run 185
USER: SCORE 7.844919 LL:  -1.278 LR:  -7.228 RR:   0.000 FEB:  -4.841
USER: RMSD 5.474241
USER: SEED 184
USER: STATUS no improvement in best in 11 clusters for 5 generations
USER: GENES 10
USER: genes 0 Translation |==|  0.58192 0.57908 0.56089
USER: genes 1 Rotation |==|  0.18424 0.81022 0.30481 0.62632
USER: genes 2 Torsion [C]-CA--N-[C] |==|  0.67972
USER: genes 3 Torsion [N]-C--CA-[N] |==|  0.40885
USER: genes 4 Torsion [C]-CA--N-[H3] |==|  0.16501
USER: genes 5 Torsion [N]-CA--C-[N] |==|  0.58889
USER: genes 6 Torsion [C]-N--CA-[CB] |==|  0.51751
USER: genes 7 Torsion [N]-CA--C-[O] |==|  0.36714
USER: genes 8 Torsion [N]-CA--CB-[CG] |==|  0.70572
USER: genes 9 Torsion [CA]-CB--CG-[ND1] |==|  0.68133
ROOT
ATOM      1  CA  HIS F   2       0.041  31.511 -18.140  1.00 30.59 LIG 0.18  C 
ENDROOT
BRANCH 1 2
ATOM      2  N   HIS F   2      -1.321  31.448 -17.599  1.00 30.70 LIG-0.35  N 
ATOM      3  C   ALA F   1      -1.603  31.703 -16.323  1.00 31.15 LIG 0.25  C 
ATOM      4 O    ALA F   1      -0.749  32.005 -15.482  1.00 30.37 LIG-0.27  OA
ATOM      5 H    HIS F   2      -1.916  31.231 -18.181  1.00 30.70 LIG 0.16  HD
BRANCH 3 6
ATOM      6  CA  ALA F   1      -3.082  31.600 -15.931  1.00 31.15 LIG 0.27  C 
ATOM      7  CB  ALA F   1      -3.854  32.435 -16.478  0.00 20.00 LIG 0.05  C 
BRANCH 6 8
ATOM      8  N   ALA F   1      -3.247  31.120 -14.518  1.00 31.97 LIG-0.07  N 
ATOM      9 H3   ALA F   1      -2.841  31.684 -13.963  1.00 31.97 LIG 0.28  HD
ATOM     10 H1   ALA F   1      -4.113  31.078 -14.318  1.00 31.97 LIG 0.28  HD
ATOM     11 H2   ALA F   1      -2.885  30.311 -14.435  1.00 31.97 LIG 0.28  HD
ENDBRANCH 6 8
ENDBRANCH 3 6
ENDBRANCH 1 2
BRANCH 1 12
ATOM     12  C   HIS F   2       0.164  32.629 -19.184  1.00 31.15 LIG 0.24  C 
ATOM     13 O    HIS F   2      -0.513  33.668 -19.083  1.00 30.80 LIG-0.27  OA
ATOM     14  N   ALA F   3       1.030  32.409 -20.180  1.00 30.97 LIG-0.35  N 
ATOM     15 H    ALA F   3       1.504  31.694 -20.250  1.00 30.97 LIG 0.16  HD
BRANCH 14 16
ATOM     16  CA  ALA F   3       1.253  33.377 -21.252  1.00 31.72 LIG 0.16  C 
ATOM     17  CB  ALA F   3       2.190  32.687 -22.274  0.00 20.00 LIG 0.04  C 
BRANCH 16 18
ATOM     18  C   ALA F   3       0.049  33.556 -22.173  1.00 32.37 LIG 0.22  C 
ATOM     19 O    ALA F   3      -0.357  34.687 -22.476  1.00 33.75 LIG-0.29  OA
ENDBRANCH 16 18
ENDBRANCH 14 16
ENDBRANCH 1 12
BRANCH 1 20
ATOM     20  CB  HIS F   2       0.433  30.165 -18.772  1.00 30.20 LIG 0.10  C 
BRANCH 20 21
ATOM     21  CG  HIS F   2       1.408  29.353 -17.962  1.00 29.66 LIG 0.06  A 
ATOM     22 ND1  HIS F   2       2.690  29.063 -18.387  1.00 29.25 LIG-0.24  NA
ATOM     23  CE1 HIS F   2       3.299  28.312 -17.482  1.00 27.69 LIG 0.23  A 
ATOM     24 NE2  HIS F   2       2.453  28.087 -16.489  1.00 31.40 LIG-0.25  NA
ATOM     25  CD2 HIS F   2       1.257  28.714 -16.773  1.00 30.69 LIG 0.14  A 
ENDBRANCH 20 21
ENDBRANCH 1 20
TORSDOF 8
ENDMDL
MODEL 23
USER: ADFR SOLUTION from run 160
USER: SCORE 7.830608 LL:  -1.314 LR:  -7.216 RR:   0.000 FEB:  -4.830
USER: RMSD 2.770626
USER: SEED 159
USER: STATUS no improvement in best in 10 clusters for 5 generations
USER: GENES 10
USER: genes 0 Translation |==|  0.55526 0.55891 0.48664
USER: genes 1 Rotation |==|  0.53534 0.64668 0.44198 0.97315
USER: genes 2 Torsion [C]-CA--N-[C] |==|  0.16571
USER: genes 3 Torsion [N]-C--CA-[N] |==|  0.47255
USER: genes 4 Torsion [C]-CA--N-[H3] |==|  0.09599
USER: genes 5 Torsion [N]-CA--C-[N] |==|  0.21102
USER: genes 6 Torsion [C]-N--CA-[CB] |==|  0.38159
USER: genes 7 Torsion [N]-CA--C-[O] |==|  0.28450
USER: genes 8 Torsion [N]-CA--CB-[CG] |==|  0.59642
USER: genes 9 Torsion [CA]-CB--CG-[ND1] |==|  0.38722
ROOT
ATOM      1  CA  HIS F   2      -0.419  31.269 -19.309  1.00 30.59 LIG 0.18  C 
ENDROOT
BRANCH 1 2
ATOM      2  N   HIS F   2      -0.865  31.860 -20.575  1.00 30.70 LIG-0.35  N 
ATOM      3  C   ALA F   1      -0.619  33.126 -20.907  1.00 31.15 LIG 0.25  C 
ATOM      4 O    ALA F   1      -0.006  33.915 -20.181  1.00 30.37 LIG-0.27  OA
ATOM      5 H    HIS F   2      -1.298  31.315 -21.080  1.00 30.70 LIG 0.16  HD
BRANCH 3 6
ATOM      6  CA  ALA F   1      -1.150  33.575 -22.274  1.00 31.15 LIG 0.27  C 
ATOM      7  CB  ALA F   1      -1.007  32.748 -23.216  0.00 20.00 LIG 0.05  C 
BRANCH 6 8
ATOM      8  N   ALA F   1      -1.034  35.062 -22.450  1.00 31.97 LIG-0.07  N 
ATOM      9 H3   ALA F   1      -0.299  35.353 -22.042  1.00 31.97 LIG 0.28  HD
ATOM     10 H1   ALA F   1      -0.989  35.256 -23.318  1.00 31.97 LIG 0.28  HD
ATOM     11 H2   ALA F   1      -1.747  35.459 -22.096  1.00 31.97 LIG 0.28  HD
ENDBRANCH 6 8
ENDBRANCH 3 6
ENDBRANCH 1 2
BRANCH 1 12
ATOM     12  C   HIS F   2      -1.011  32.025 -18.113  1.00 31.15 LIG 0.24  C 
ATOM     13 O    HIS F   2      -0.310  32.812 -17.449  1.00 30.80 LIG-0.27  OA
ATOM     14  N   ALA F   3      -2.300  31.783 -17.844  1.00 30.97 LIG-0.35  N 
ATOM     15 H    ALA F   3      -2.788  31.243 -18.303  1.00 30.97 LIG 0.16  HD
BRANCH 14 16
ATOM     16  CA  ALA F   3      -3.002  32.422 -16.734  1.00 31.72 LIG 0.16  C 
ATOM     17  CB  ALA F   3      -4.393  32.832 -17.276  0.00 20.00 LIG 0.04  C 
BRANCH 16 18
ATOM     18  C   ALA F   3      -3.484  31.439 -15.669  1.00 32.37 LIG 0.22  C 
ATOM     19 O    ALA F   3      -2.872  31.312 -14.599  1.00 33.75 LIG-0.29  OA
ENDBRANCH 16 18
ENDBRANCH 14 16
ENDBRANCH 1 12
BRANCH 1 20
ATOM     20  CB  HIS F   2       1.117  31.279 -19.222  1.00 30.20 LIG 0.10  C 
BRANCH 20 21
ATOM     21  CG  HIS F   2       1.711  30.093 -18.510  1.00 29.66 LIG 0.06  A 
ATOM     22 ND1  HIS F   2       2.854  29.446 -18.938  1.00 29.25 LIG-0.24  NA
ATOM     23  CE1 HIS F   2       3.116  28.428 -18.133  1.00 27.69 LIG 0.23  A 
ATOM     24 NE2  HIS F   2       2.174  28.377 -17.204  1.00 31.40 LIG-0.25  NA
ATOM     25  CD2 HIS F   2       1.274  29.399 -17.427  1.00 30.69 LIG 0.14  A 
ENDBRANCH 20 21
ENDBRANCH 1 20
TORSDOF 8
ENDMDL
MODEL 24
USER: ADFR SOLUTION from run 62
USER: SCORE 8.029392 LL:  -1.249 LR:  -7.177 RR:   0.000 FEB:  -4.791
USER: RMSD 1.815091
USER: SEED 61
USER: STATUS no improvement in best in 16 clusters for 5 generations
USER: GENES 10
USER: genes 0 Translation |==|  0.49801 0.46267 0.62029
USER: genes 1 Rotation |==|  0.39029 0.62036 0.48803 0.97258
USER: genes 2 Torsion [C]-CA--N-[C] |==|  0.79444
USER: genes 3 Torsion [N]-C--CA-[N] |==|  0.02854
USER: genes 4 Torsion [C]-CA--N-[H3] |==|  0.01624
USER: genes 5 Torsion [N]-CA--C-[N] |==|  0.25231
USER: genes 6 Torsion [C]-N--CA-[CB] |==|  0.18019
USER: genes 7 Torsion [N]-CA--C-[O] |==|  0.02201
USER: genes 8 Torsion [N]-CA--CB-[CG] |==|  0.77575
USER: genes 9 Torsion [CA]-CB--CG-[ND1] |==|  0.31981
ROOT
ATOM      1  CA  HIS F   2      -1.406  30.114 -17.204  1.00 30.59 LIG 0.18  C 
ENDROOT
BRANCH 1 2
ATOM      2  N   HIS F   2      -1.848  29.846 -18.577  1.00 30.70 LIG-0.35  N 
ATOM      3  C   ALA F   1      -2.902  29.084 -18.860  1.00 31.15 LIG 0.25  C 
ATOM      4 O    ALA F   1      -3.595  28.530 -18.001  1.00 30.37 LIG-0.27  OA
ATOM      5 H    HIS F   2      -1.363  30.226 -19.178  1.00 30.70 LIG 0.16  HD
BRANCH 3 6
ATOM      6  CA  ALA F   1      -3.227  28.919 -20.351  1.00 31.15 LIG 0.27  C 
ATOM      7  CB  ALA F   1      -3.919  27.908 -20.653  0.00 20.00 LIG 0.05  C 
BRANCH 6 8
ATOM      8  N   ALA F   1      -2.128  29.462 -21.218  1.00 31.97 LIG-0.07  N 
ATOM      9 H3   ALA F   1      -1.442  29.708 -20.709  1.00 31.97 LIG 0.28  HD
ATOM     10 H1   ALA F   1      -1.863  28.833 -21.790  1.00 31.97 LIG 0.28  HD
ATOM     11 H2   ALA F   1      -2.428  30.166 -21.672  1.00 31.97 LIG 0.28  HD
ENDBRANCH 6 8
ENDBRANCH 3 6
ENDBRANCH 1 2
BRANCH 1 12
ATOM     12  C   HIS F   2      -2.351  31.102 -16.508  1.00 31.15 LIG 0.24  C 
ATOM     13 O    HIS F   2      -2.156  32.329 -16.585  1.00 30.80 LIG-0.27  OA
ATOM     14  N   ALA F   3      -3.373  30.562 -15.833  1.00 30.97 LIG-0.35  N 
ATOM     15 H    ALA F   3      -3.514  29.714 -15.781  1.00 30.97 LIG 0.16  HD
BRANCH 14 16
ATOM     16  CA  ALA F   3      -4.353  31.372 -15.113  1.00 31.72 LIG 0.16  C 
ATOM     17  CB  ALA F   3      -5.106  32.198 -16.185  0.00 20.00 LIG 0.04  C 
BRANCH 16 18
ATOM     18  C   ALA F   3      -5.547  30.573 -14.599  1.00 32.37 LIG 0.22  C 
ATOM     19 O    ALA F   3      -5.563  29.336 -14.670  1.00 33.75 LIG-0.29  OA
ENDBRANCH 16 18
ENDBRANCH 14 16
ENDBRANCH 1 12
BRANCH 1 20
ATOM     20  CB  HIS F   2       0.026  30.673 -17.199  1.00 30.20 LIG 0.10  C 
BRANCH 20 21
ATOM     21  CG  HIS F   2       1.106  29.632 -17.329  1.00 29.66 LIG 0.06  A 
ATOM     22 ND1  HIS F   2       1.957  29.555 -18.413  1.00 29.25 LIG-0.24  NA
ATOM     23  CE1 HIS F   2       2.777  28.526 -18.262  1.00 27.69 LIG 0.23  A 
ATOM     24 NE2  HIS F   2       2.478  27.919 -17.124  1.00 31.40 LIG-0.25  NA
ATOM     25  CD2 HIS F   2       1.425  28.582 -16.529  1.00 30.69 LIG 0.14  A 
ENDBRANCH 20 21
ENDBRANCH 1 20
TORSDOF 8
ENDMDL
MODEL 25
USER: ADFR SOLUTION from run 192
USER: SCORE 8.214228 LL:  -1.402 LR:  -7.167 RR:   0.000 FEB:  -4.781
USER: RMSD 4.834145
USER: SEED 191
USER: STATUS no improvement in best in 25 clusters for 5 generations
USER: GENES 10
USER: genes 0 Translation |==|  0.58460 0.66770 0.53183
USER: genes 1 Rotation |==|  0.04467 0.64332 0.64224 0.54361
USER: genes 2 Torsion [C]-CA--N-[C] |==|  0.18987
USER: genes 3 Torsion [N]-C--CA-[N] |==|  0.46238
USER: genes 4 Torsion [C]-CA--N-[H3] |==|  0.89164
USER: genes 5 Torsion [N]-CA--C-[N] |==|  0.01257
USER: genes 6 Torsion [C]-N--CA-[CB] |==|  0.16370
USER: genes 7 Torsion [N]-CA--C-[O] |==|  0.12867
USER: genes 8 Torsion [N]-CA--CB-[CG] |==|  0.56126
USER: genes 9 Torsion [CA]-CB--CG-[ND1] |==|  0.78806
ROOT
ATOM      1  CA  HIS F   2       0.087  32.574 -18.598  1.00 30.59 LIG 0.18  C 
ENDROOT
BRANCH 1 2
ATOM      2  N   HIS F   2       0.705  31.698 -17.596  1.00 30.70 LIG-0.35  N 
ATOM      3  C   ALA F   1       0.391  30.410 -17.473  1.00 31.15 LIG 0.25  C 
ATOM      4 O    ALA F   1      -0.449  29.841 -18.178  1.00 30.37 LIG-0.27  OA
ATOM      5 H    HIS F   2       1.285  32.094 -17.100  1.00 30.70 LIG 0.16  HD
BRANCH 3 6
ATOM      6  CA  ALA F   1       1.142  29.641 -16.379  1.00 31.15 LIG 0.27  C 
ATOM      7  CB  ALA F   1       2.387  29.839 -16.325  0.00 20.00 LIG 0.05  C 
BRANCH 6 8
ATOM      8  N   ALA F   1       0.501  28.312 -16.099  1.00 31.97 LIG-0.07  N 
ATOM      9 H3   ALA F   1      -0.384  28.397 -16.128  1.00 31.97 LIG 0.28  HD
ATOM     10 H1   ALA F   1       0.763  27.721 -16.711  1.00 31.97 LIG 0.28  HD
ATOM     11 H2   ALA F   1       0.745  28.029 -15.292  1.00 31.97 LIG 0.28  HD
ENDBRANCH 6 8
ENDBRANCH 3 6
ENDBRANCH 1 2
BRANCH 1 12
ATOM     12  C   HIS F   2      -1.394  32.814 -18.278  1.00 31.15 LIG 0.24  C 
ATOM     13 O    HIS F   2      -2.115  33.463 -19.058  1.00 30.80 LIG-0.27  OA
ATOM     14  N   ALA F   3      -1.840  32.286 -17.131  1.00 30.97 LIG-0.35  N 
ATOM     15 H    ALA F   3      -1.346  31.833 -16.592  1.00 30.97 LIG 0.16  HD
BRANCH 14 16
ATOM     16  CA  ALA F   3      -3.224  32.434 -16.687  1.00 31.72 LIG 0.16  C 
ATOM     17  CB  ALA F   3      -4.107  31.815 -17.798  0.00 20.00 LIG 0.04  C 
BRANCH 16 18
ATOM     18  C   ALA F   3      -3.612  31.474 -15.565  1.00 32.37 LIG 0.22  C 
ATOM     19 O    ALA F   3      -2.872  31.311 -14.584  1.00 33.75 LIG-0.29  OA
ENDBRANCH 16 18
ENDBRANCH 14 16
ENDBRANCH 1 12
BRANCH 1 20
ATOM     20  CB  HIS F   2       0.223  31.965 -20.003  1.00 30.20 LIG 0.10  C 
BRANCH 20 21
ATOM     21  CG  HIS F   2       0.114  32.958 -21.130  1.00 29.66 LIG 0.06  A 
ATOM     22 ND1  HIS F   2      -1.085  33.497 -21.552  1.00 29.25 LIG-0.24  NA
ATOM     23  CE1 HIS F   2      -0.871  34.312 -22.573  1.00 27.69 LIG 0.23  A 
ATOM     24 NE2  HIS F   2       0.426  34.312 -22.843  1.00 31.40 LIG-0.25  NA
ATOM     25  CD2 HIS F   2       1.062  33.460 -21.964  1.00 30.69 LIG 0.14  A 
ENDBRANCH 20 21
ENDBRANCH 1 20
TORSDOF 8
ENDMDL
MODEL 26
USER: ADFR SOLUTION from run 45
USER: SCORE 8.731462 LL:  -1.573 LR:  -7.160 RR:   0.000 FEB:  -4.774
USER: RMSD 5.008705
USER: SEED 44
USER: STATUS no improvement in best in 8 clusters for 5 generations
USER: GENES 10
USER: genes 0 Translation |==|  0.61895 0.47429 0.68432
USER: genes 1 Rotation |==|  0.23534 0.78974 0.23705 0.66389
USER: genes 2 Torsion [C]-CA--N-[C] |==|  0.82322
USER: genes 3 Torsion [N]-C--CA-[N] |==|  0.22413
USER: genes 4 Torsion [C]-CA--N-[H3] |==|  0.67716
USER: genes 5 Torsion [N]-CA--C-[N] |==|  0.93608
USER: genes 6 Torsion [C]-N--CA-[CB] |==|  0.24519
USER: genes 7 Torsion [N]-CA--C-[O] |==|  0.23153
USER: genes 8 Torsion [N]-CA--CB-[CG] |==|  0.41200
USER: genes 9 Torsion [CA]-CB--CG-[ND1] |==|  0.73252
ROOT
ATOM      1  CA  HIS F   2       0.680  30.253 -16.196  1.00 30.59 LIG 0.18  C 
ENDROOT
BRANCH 1 2
ATOM      2  N   HIS F   2      -0.785  30.328 -16.180  1.00 30.70 LIG-0.35  N 
ATOM      3  C   ALA F   1      -1.449  31.405 -15.765  1.00 31.15 LIG 0.25  C 
ATOM      4 O    ALA F   1      -0.897  32.428 -15.349  1.00 30.37 LIG-0.27  OA
ATOM      5 H    HIS F   2      -1.172  29.613 -16.463  1.00 30.70 LIG 0.16  HD
BRANCH 3 6
ATOM      6  CA  ALA F   1      -2.979  31.312 -15.826  1.00 31.15 LIG 0.27  C 
ATOM      7  CB  ALA F   1      -3.566  32.287 -16.371  0.00 20.00 LIG 0.05  C 
BRANCH 6 8
ATOM      8  N   ALA F   1      -3.534  30.562 -14.649  1.00 31.97 LIG-0.07  N 
ATOM      9 H3   ALA F   1      -3.932  29.819 -14.932  1.00 31.97 LIG 0.28  HD
ATOM     10 H1   ALA F   1      -2.872  30.351 -14.093  1.00 31.97 LIG 0.28  HD
ATOM     11 H2   ALA F   1      -4.125  31.072 -14.224  1.00 31.97 LIG 0.28  HD
ENDBRANCH 6 8
ENDBRANCH 3 6
ENDBRANCH 1 2
BRANCH 1 12
ATOM     12  C   HIS F   2       1.270  31.285 -17.166  1.00 31.15 LIG 0.24  C 
ATOM     13 O    HIS F   2       2.441  31.686 -17.031  1.00 30.80 LIG-0.27  OA
ATOM     14  N   ALA F   3       0.456  31.709 -18.140  1.00 30.97 LIG-0.35  N 
ATOM     15 H    ALA F   3      -0.352  31.432 -18.239  1.00 30.97 LIG 0.16  HD
BRANCH 14 16
ATOM     16  CA  ALA F   3       0.872  32.694 -19.135  1.00 31.72 LIG 0.16  C 
ATOM     17  CB  ALA F   3       1.520  31.897 -20.294  0.00 20.00 LIG 0.04  C 
BRANCH 16 18
ATOM     18  C   ALA F   3      -0.289  33.290 -19.927  1.00 32.37 LIG 0.22  C 
ATOM     19 O    ALA F   3      -0.948  34.237 -19.474  1.00 33.75 LIG-0.29  OA
ENDBRANCH 16 18
ENDBRANCH 14 16
ENDBRANCH 1 12
BRANCH 1 20
ATOM     20  CB  HIS F   2       1.144  28.842 -16.594  1.00 30.20 LIG 0.10  C 
BRANCH 20 21
ATOM     21  CG  HIS F   2       2.446  28.800 -17.348  1.00 29.66 LIG 0.06  A 
ATOM     22 ND1  HIS F   2       2.521  28.744 -18.726  1.00 29.25 LIG-0.24  NA
ATOM     23  CE1 HIS F   2       3.791  28.687 -19.099  1.00 27.69 LIG 0.23  A 
ATOM     24 NE2  HIS F   2       4.546  28.687 -18.011  1.00 31.40 LIG-0.25  NA
ATOM     25  CD2 HIS F   2       3.727  28.741 -16.902  1.00 30.69 LIG 0.14  A 
ENDBRANCH 20 21
ENDBRANCH 1 20
TORSDOF 8
ENDMDL
MODEL 27
USER: ADFR SOLUTION from run 169
USER: SCORE 7.986699 LL:  -1.418 LR:  -7.152 RR:   0.000 FEB:  -4.765
USER: RMSD 4.727222
USER: SEED 168
USER: STATUS no improvement in best in 15 clusters for 5 generations
USER: GENES 10
USER: genes 0 Translation |==|  0.61337 0.53788 0.39869
USER: genes 1 Rotation |==|  0.59404 0.66417 0.60334 0.95114
USER: genes 2 Torsion [C]-CA--N-[C] |==|  0.18778
USER: genes 3 Torsion [N]-C--CA-[N] |==|  0.60024
USER: genes 4 Torsion [C]-CA--N-[H3] |==|  0.45108
USER: genes 5 Torsion [N]-CA--C-[N] |==|  0.16667
USER: genes 6 Torsion [C]-N--CA-[CB] |==|  0.17686
USER: genes 7 Torsion [N]-CA--C-[O] |==|  0.37412
USER: genes 8 Torsion [N]-CA--CB-[CG] |==|  0.85218
USER: genes 9 Torsion [CA]-CB--CG-[ND1] |==|  0.21065
ROOT
ATOM      1  CA  HIS F   2       0.584  31.017 -20.695  1.00 30.59 LIG 0.18  C 
ENDROOT
BRANCH 1 2
ATOM      2  N   HIS F   2      -0.261  31.742 -21.649  1.00 30.70 LIG-0.35  N 
ATOM      3  C   ALA F   1      -0.601  33.020 -21.486  1.00 31.15 LIG 0.25  C 
ATOM      4 O    ALA F   1      -0.247  33.702 -20.519  1.00 30.37 LIG-0.27  OA
ATOM      5 H    HIS F   2      -0.515  31.267 -22.320  1.00 30.70 LIG 0.16  HD
BRANCH 3 6
ATOM      6  CA  ALA F   1      -1.482  33.623 -22.587  1.00 31.15 LIG 0.27  C 
ATOM      7  CB  ALA F   1      -1.862  32.823 -23.486  0.00 20.00 LIG 0.05  C 
BRANCH 6 8
ATOM      8  N   ALA F   1      -1.132  35.060 -22.849  1.00 31.97 LIG-0.07  N 
ATOM      9 H3   ALA F   1      -1.461  35.307 -23.637  1.00 31.97 LIG 0.28  HD
ATOM     10 H1   ALA F   1      -1.479  35.572 -22.209  1.00 31.97 LIG 0.28  HD
ATOM     11 H2   ALA F   1      -0.247  35.153 -22.855  1.00 31.97 LIG 0.28  HD
ENDBRANCH 6 8
ENDBRANCH 3 6
ENDBRANCH 1 2
BRANCH 1 12
ATOM     12  C   HIS F   2      -0.143  30.821 -19.357  1.00 31.15 LIG 0.24  C 
ATOM     13 O    HIS F   2       0.330  31.289 -18.304  1.00 30.80 LIG-0.27  OA
ATOM     14  N   ALA F   3      -1.289  30.133 -19.407  1.00 30.97 LIG-0.35  N 
ATOM     15 H    ALA F   3      -1.621  29.813 -20.133  1.00 30.97 LIG 0.16  HD
BRANCH 14 16
ATOM     16  CA  ALA F   3      -2.091  29.860 -18.216  1.00 31.72 LIG 0.16  C 
ATOM     17  CB  ALA F   3      -2.563  31.235 -17.684  0.00 20.00 LIG 0.04  C 
BRANCH 16 18
ATOM     18  C   ALA F   3      -3.469  29.281 -18.527  1.00 32.37 LIG 0.22  C 
ATOM     19 O    ALA F   3      -3.910  28.313 -17.892  1.00 33.75 LIG-0.29  OA
ENDBRANCH 16 18
ENDBRANCH 14 16
ENDBRANCH 1 12
BRANCH 1 20
ATOM     20  CB  HIS F   2       1.905  31.770 -20.463  1.00 30.20 LIG 0.10  C 
BRANCH 20 21
ATOM     21  CG  HIS F   2       2.662  32.107 -21.720  1.00 29.66 LIG 0.06  A 
ATOM     22 ND1  HIS F   2       2.296  33.130 -22.573  1.00 29.25 LIG-0.24  NA
ATOM     23  CE1 HIS F   2       3.128  33.168 -23.603  1.00 27.69 LIG 0.23  A 
ATOM     24 NE2  HIS F   2       4.015  32.195 -23.459  1.00 31.40 LIG-0.25  NA
ATOM     25  CD2 HIS F   2       3.734  31.506 -22.297  1.00 30.69 LIG 0.14  A 
ENDBRANCH 20 21
ENDBRANCH 1 20
TORSDOF 8
ENDMDL
MODEL 28
USER: ADFR SOLUTION from run 164
USER: SCORE 8.175099 LL:  -1.406 LR:  -7.150 RR:   0.000 FEB:  -4.763
USER: RMSD 7.046524
USER: SEED 163
USER: STATUS no improvement in best in 11 clusters for 5 generations
USER: GENES 10
USER: genes 0 Translation |==|  0.79599 0.54734 0.73544
USER: genes 1 Rotation |==|  0.00231 0.51782 0.54039 0.51880
USER: genes 2 Torsion [C]-CA--N-[C] |==|  0.57021
USER: genes 3 Torsion [N]-C--CA-[N] |==|  0.99562
USER: genes 4 Torsion [C]-CA--N-[H3] |==|  0.05593
USER: genes 5 Torsion [N]-CA--C-[N] |==|  0.34457
USER: genes 6 Torsion [C]-N--CA-[CB] |==|  0.55589
USER: genes 7 Torsion [N]-CA--C-[O] |==|  0.24578
USER: genes 8 Torsion [N]-CA--CB-[CG] |==|  0.37896
USER: genes 9 Torsion [CA]-CB--CG-[ND1] |==|  0.21448
ROOT
ATOM      1  CA  HIS F   2       3.734  31.130 -15.391  1.00 30.59 LIG 0.18  C 
ENDROOT
BRANCH 1 2
ATOM      2  N   HIS F   2       4.183  30.633 -14.086  1.00 30.70 LIG-0.35  N 
ATOM      3  C   ALA F   1       5.083  31.271 -13.341  1.00 31.15 LIG 0.25  C 
ATOM      4 O    ALA F   1       5.626  32.327 -13.682  1.00 30.37 LIG-0.27  OA
ATOM      5 H    HIS F   2       3.811  29.894 -13.849  1.00 30.70 LIG 0.16  HD
BRANCH 3 6
ATOM      6  CA  ALA F   1       5.429  30.613 -11.999  1.00 31.15 LIG 0.27  C 
ATOM      7  CB  ALA F   1       6.619  30.757 -11.608  0.00 20.00 LIG 0.05  C 
BRANCH 6 8
ATOM      8  N   ALA F   1       4.628  29.362 -11.776  1.00 31.97 LIG-0.07  N 
ATOM      9 H3   ALA F   1       4.319  29.064 -12.555  1.00 31.97 LIG 0.28  HD
ATOM     10 H1   ALA F   1       5.145  28.741 -11.404  1.00 31.97 LIG 0.28  HD
ATOM     11 H2   ALA F   1       3.944  29.540 -11.235  1.00 31.97 LIG 0.28  HD
ENDBRANCH 6 8
ENDBRANCH 3 6
ENDBRANCH 1 2
BRANCH 1 12
ATOM     12  C   HIS F   2       2.331  30.606 -15.723  1.00 31.15 LIG 0.24  C 
ATOM     13 O    HIS F   2       2.095  29.384 -15.733  1.00 30.80 LIG-0.27  OA
ATOM     14  N   ALA F   3       1.406  31.535 -15.994  1.00 30.97 LIG-0.35  N 
ATOM     15 H    ALA F   3       1.564  32.381 -15.984  1.00 30.97 LIG 0.16  HD
BRANCH 14 16
ATOM     16  CA  ALA F   3       0.027  31.192 -16.334  1.00 31.72 LIG 0.16  C 
ATOM     17  CB  ALA F   3      -0.564  32.426 -17.058  0.00 20.00 LIG 0.04  C 
BRANCH 16 18
ATOM     18  C   ALA F   3      -0.089  30.206 -17.493  1.00 32.37 LIG 0.22  C 
ATOM     19 O    ALA F   3      -0.077  28.983 -17.291  1.00 33.75 LIG-0.29  OA
ENDBRANCH 16 18
ENDBRANCH 14 16
ENDBRANCH 1 12
BRANCH 1 20
ATOM     20  CB  HIS F   2       4.720  30.712 -16.495  1.00 30.20 LIG 0.10  C 
BRANCH 20 21
ATOM     21  CG  HIS F   2       4.070  30.206 -17.756  1.00 29.66 LIG 0.06  A 
ATOM     22 ND1  HIS F   2       3.496  31.036 -18.698  1.00 29.25 LIG-0.24  NA
ATOM     23  CE1 HIS F   2       2.982  30.308 -19.677  1.00 27.69 LIG 0.23  A 
ATOM     24 NE2  HIS F   2       3.187  29.029 -19.398  1.00 31.40 LIG-0.25  NA
ATOM     25  CD2 HIS F   2       3.852  28.939 -18.192  1.00 30.69 LIG 0.14  A 
ENDBRANCH 20 21
ENDBRANCH 1 20
TORSDOF 8
ENDMDL
MODEL 29
USER: ADFR SOLUTION from run 120
USER: SCORE 8.196528 LL:  -1.337 LR:  -7.142 RR:   0.000 FEB:  -4.755
USER: RMSD 6.058003
USER: SEED 119
USER: STATUS no improvement in best in 12 clusters for 5 generations
USER: GENES 10
USER: genes 0 Translation |==|  0.38936 0.51476 0.65246
USER: genes 1 Rotation |==|  0.37852 0.28836 0.07498 0.59904
USER: genes 2 Torsion [C]-CA--N-[C] |==|  0.66111
USER: genes 3 Torsion [N]-C--CA-[N] |==|  0.19141
USER: genes 4 Torsion [C]-CA--N-[H3] |==|  0.86468
USER: genes 5 Torsion [N]-CA--C-[N] |==|  0.96136
USER: genes 6 Torsion [C]-N--CA-[CB] |==|  0.16441
USER: genes 7 Torsion [N]-CA--C-[O] |==|  0.33665
USER: genes 8 Torsion [N]-CA--CB-[CG] |==|  0.87780
USER: genes 9 Torsion [CA]-CB--CG-[ND1] |==|  0.31947
ROOT
ATOM      1  CA  HIS F   2      -3.281  30.739 -16.698  1.00 30.59 LIG 0.18  C 
ENDROOT
BRANCH 1 2
ATOM      2  N   HIS F   2      -3.632  29.358 -17.046  1.00 30.70 LIG-0.35  N 
ATOM      3  C   ALA F   1      -4.461  29.054 -18.042  1.00 31.15 LIG 0.25  C 
ATOM      4 O    ALA F   1      -5.014  29.900 -18.753  1.00 30.37 LIG-0.27  OA
ATOM      5 H    HIS F   2      -3.253  28.767 -16.548  1.00 30.70 LIG 0.16  HD
BRANCH 3 6
ATOM      6  CA  ALA F   1      -4.709  27.558 -18.273  1.00 31.15 LIG 0.27  C 
ATOM      7  CB  ALA F   1      -4.823  27.200 -19.477  0.00 20.00 LIG 0.05  C 
BRANCH 6 8
ATOM      8  N   ALA F   1      -5.496  26.949 -17.149  1.00 31.97 LIG-0.07  N 
ATOM      9 H3   ALA F   1      -5.134  27.184 -16.371  1.00 31.97 LIG 0.28  HD
ATOM     10 H1   ALA F   1      -6.337  27.237 -17.184  1.00 31.97 LIG 0.28  HD
ATOM     11 H2   ALA F   1      -5.484  26.062 -17.224  1.00 31.97 LIG 0.28  HD
ENDBRANCH 6 8
ENDBRANCH 3 6
ENDBRANCH 1 2
BRANCH 1 12
ATOM     12  C   HIS F   2      -1.764  30.955 -16.777  1.00 31.15 LIG 0.24  C 
ATOM     13 O    HIS F   2      -1.285  32.104 -16.771  1.00 30.80 LIG-0.27  OA
ATOM     14  N   ALA F   3      -1.016  29.848 -16.849  1.00 30.97 LIG-0.35  N 
ATOM     15 H    ALA F   3      -1.343  29.052 -16.849  1.00 30.97 LIG 0.16  HD
BRANCH 14 16
ATOM     16  CA  ALA F   3       0.442  29.891 -16.936  1.00 31.72 LIG 0.16  C 
ATOM     17  CB  ALA F   3       0.932  30.633 -15.668  0.00 20.00 LIG 0.04  C 
BRANCH 16 18
ATOM     18  C   ALA F   3       1.112  28.549 -16.653  1.00 32.37 LIG 0.22  C 
ATOM     19 O    ALA F   3       1.839  28.010 -17.501  1.00 33.75 LIG-0.29  OA
ENDBRANCH 16 18
ENDBRANCH 14 16
ENDBRANCH 1 12
BRANCH 1 20
ATOM     20  CB  HIS F   2      -3.781  31.082 -15.285  1.00 30.20 LIG 0.10  C 
BRANCH 20 21
ATOM     21  CG  HIS F   2      -5.181  30.616 -14.986  1.00 29.66 LIG 0.06  A 
ATOM     22 ND1  HIS F   2      -5.475  29.662 -14.032  1.00 29.25 LIG-0.24  NA
ATOM     23  CE1 HIS F   2      -6.780  29.437 -14.015  1.00 27.69 LIG 0.23  A 
ATOM     24 NE2  HIS F   2      -7.346  30.200 -14.937  1.00 31.40 LIG-0.25  NA
ATOM     25  CD2 HIS F   2      -6.365  30.935 -15.570  1.00 30.69 LIG 0.14  A 
ENDBRANCH 20 21
ENDBRANCH 1 20
TORSDOF 8
ENDMDL
MODEL 30
USER: ADFR SOLUTION from run 14
USER: SCORE 7.893933 LL:  -1.203 LR:  -7.136 RR:   0.000 FEB:  -4.750
USER: RMSD 6.055298
USER: SEED 341711
USER: STATUS no improvement in best in 16 clusters for 5 generations
USER: GENES 10
USER: genes 0 Translation |==|  0.41317 0.39657 0.53787
USER: genes 1 Rotation |==|  0.54293 0.98545 0.48619 0.61091
USER: genes 2 Torsion [C]-CA--N-[C] |==|  0.62826
USER: genes 3 Torsion [N]-C--CA-[N] |==|  0.82377
USER: genes 4 Torsion [C]-CA--N-[H3] |==|  0.03535
USER: genes 5 Torsion [N]-CA--C-[N] |==|  0.14444
USER: genes 6 Torsion [C]-N--CA-[CB] |==|  0.34654
USER: genes 7 Torsion [N]-CA--C-[O] |==|  0.25507
USER: genes 8 Torsion [N]-CA--CB-[CG] |==|  0.57776
USER: genes 9 Torsion [CA]-CB--CG-[ND1] |==|  0.12982
ROOT
ATOM      1  CA  HIS F   2      -2.870  29.321 -18.503  1.00 30.59 LIG 0.18  C 
ENDROOT
BRANCH 1 2
ATOM      2  N   HIS F   2      -3.629  29.853 -17.366  1.00 30.70 LIG-0.35  N 
ATOM      3  C   ALA F   1      -4.497  29.120 -16.671  1.00 31.15 LIG 0.25  C 
ATOM      4 O    ALA F   1      -4.747  27.937 -16.923  1.00 30.37 LIG-0.27  OA
ATOM      5 H    HIS F   2      -3.462  30.679 -17.193  1.00 30.70 LIG 0.16  HD
BRANCH 3 6
ATOM      6  CA  ALA F   1      -5.195  29.835 -15.508  1.00 31.15 LIG 0.27  C 
ATOM      7  CB  ALA F   1      -6.224  30.500 -15.811  0.00 20.00 LIG 0.05  C 
BRANCH 6 8
ATOM      8  N   ALA F   1      -4.215  30.260 -14.452  1.00 31.97 LIG-0.07  N 
ATOM      9 H3   ALA F   1      -3.387  30.187 -14.769  1.00 31.97 LIG 0.28  HD
ATOM     10 H1   ALA F   1      -4.372  31.106 -14.224  1.00 31.97 LIG 0.28  HD
ATOM     11 H2   ALA F   1      -4.305  29.739 -13.737  1.00 31.97 LIG 0.28  HD
ENDBRANCH 6 8
ENDBRANCH 3 6
ENDBRANCH 1 2
BRANCH 1 12
ATOM     12  C   HIS F   2      -1.390  29.716 -18.406  1.00 31.15 LIG 0.24  C 
ATOM     13 O    HIS F   2      -0.816  30.264 -19.365  1.00 30.80 LIG-0.27  OA
ATOM     14  N   ALA F   3      -0.782  29.437 -17.247  1.00 30.97 LIG-0.35  N 
ATOM     15 H    ALA F   3      -1.177  29.063 -16.580  1.00 30.97 LIG 0.16  HD
BRANCH 14 16
ATOM     16  CA  ALA F   3       0.625  29.747 -17.006  1.00 31.72 LIG 0.16  C 
ATOM     17  CB  ALA F   3       0.667  30.614 -15.724  0.00 20.00 LIG 0.04  C 
BRANCH 16 18
ATOM     18  C   ALA F   3       1.429  28.564 -16.474  1.00 32.37 LIG 0.22  C 
ATOM     19 O    ALA F   3       2.026  27.801 -17.248  1.00 33.75 LIG-0.29  OA
ENDBRANCH 16 18
ENDBRANCH 14 16
ENDBRANCH 1 12
BRANCH 1 20
ATOM     20  CB  HIS F   2      -3.458  29.830 -19.829  1.00 30.20 LIG 0.10  C 
BRANCH 20 21
ATOM     21  CG  HIS F   2      -3.247  28.909 -21.002  1.00 29.66 LIG 0.06  A 
ATOM     22 ND1  HIS F   2      -3.483  27.550 -20.950  1.00 29.25 LIG-0.24  NA
ATOM     23  CE1 HIS F   2      -3.182  27.002 -22.117  1.00 27.69 LIG 0.23  A 
ATOM     24 NE2  HIS F   2      -2.741  27.955 -22.924  1.00 31.40 LIG-0.25  NA
ATOM     25  CD2 HIS F   2      -2.757  29.155 -22.244  1.00 30.69 LIG 0.14  A 
ENDBRANCH 20 21
ENDBRANCH 1 20
TORSDOF 8
ENDMDL
MODEL 31
USER: ADFR SOLUTION from run 33
USER: SCORE 8.319503 LL:  -1.441 LR:  -7.097 RR:   0.000 FEB:  -4.711
USER: RMSD 8.102942
USER: SEED 32
USER: STATUS no improvement in best in 30 clusters for 5 generations
USER: GENES 10
USER: genes 0 Translation |==|  0.72572 0.53295 0.45865
USER: genes 1 Rotation |==|  0.54493 0.97828 0.60933 0.58528
USER: genes 2 Torsion [C]-CA--N-[C] |==|  0.75053
USER: genes 3 Torsion [N]-C--CA-[N] |==|  0.42867
USER: genes 4 Torsion [C]-CA--N-[H3] |==|  0.67630
USER: genes 5 Torsion [N]-CA--C-[N] |==|  0.25062
USER: genes 6 Torsion [C]-N--CA-[CB] |==|  0.36958
USER: genes 7 Torsion [N]-CA--C-[O] |==|  0.11646
USER: genes 8 Torsion [N]-CA--CB-[CG] |==|  0.47735
USER: genes 9 Torsion [CA]-CB--CG-[ND1] |==|  0.54996
ROOT
ATOM      1  CA  HIS F   2       2.522  30.957 -19.750  1.00 30.59 LIG 0.18  C 
ENDROOT
BRANCH 1 2
ATOM      2  N   HIS F   2       1.806  30.810 -18.479  1.00 30.70 LIG-0.35  N 
ATOM      3  C   ALA F   1       1.785  29.670 -17.791  1.00 31.15 LIG 0.25  C 
ATOM      4 O    ALA F   1       2.353  28.638 -18.162  1.00 30.37 LIG-0.27  OA
ATOM      5 H    HIS F   2       1.404  31.525 -18.221  1.00 30.70 LIG 0.16  HD
BRANCH 3 6
ATOM      6  CA  ALA F   1       0.995  29.697 -16.476  1.00 31.15 LIG 0.27  C 
ATOM      7  CB  ALA F   1       1.362  30.562 -15.633  0.00 20.00 LIG 0.05  C 
BRANCH 6 8
ATOM      8  N   ALA F   1       0.503  28.329 -16.099  1.00 31.97 LIG-0.07  N 
ATOM      9 H3   ALA F   1      -0.387  28.323 -16.099  1.00 31.97 LIG 0.28  HD
ATOM     10 H1   ALA F   1       0.804  27.733 -16.687  1.00 31.97 LIG 0.28  HD
ATOM     11 H2   ALA F   1       0.800  28.120 -15.287  1.00 31.97 LIG 0.28  HD
ENDBRANCH 6 8
ENDBRANCH 3 6
ENDBRANCH 1 2
BRANCH 1 12
ATOM     12  C   HIS F   2       3.967  31.414 -19.515  1.00 31.15 LIG 0.24  C 
ATOM     13 O    HIS F   2       4.251  32.626 -19.471  1.00 30.80 LIG-0.27  OA
ATOM     14  N   ALA F   3       4.874  30.441 -19.365  1.00 30.97 LIG-0.35  N 
ATOM     15 H    ALA F   3       4.681  29.603 -19.391  1.00 30.97 LIG 0.16  HD
BRANCH 14 16
ATOM     16  CA  ALA F   3       6.291  30.719 -19.141  1.00 31.72 LIG 0.16  C 
ATOM     17  CB  ALA F   3       6.732  29.812 -17.966  0.00 20.00 LIG 0.04  C 
BRANCH 16 18
ATOM     18  C   ALA F   3       7.206  30.124 -20.208  1.00 32.37 LIG 0.22  C 
ATOM     19 O    ALA F   3       6.900  30.174 -21.408  1.00 33.75 LIG-0.29  OA
ENDBRANCH 16 18
ENDBRANCH 14 16
ENDBRANCH 1 12
BRANCH 1 20
ATOM     20  CB  HIS F   2       1.800  31.965 -20.661  1.00 30.20 LIG 0.10  C 
BRANCH 20 21
ATOM     21  CG  HIS F   2       2.555  32.334 -21.910  1.00 29.66 LIG 0.06  A 
ATOM     22 ND1  HIS F   2       2.272  33.456 -22.663  1.00 29.25 LIG-0.24  NA
ATOM     23  CE1 HIS F   2       3.077  33.501 -23.713  1.00 27.69 LIG 0.23  A 
ATOM     24 NE2  HIS F   2       3.865  32.437 -23.681  1.00 31.40 LIG-0.25  NA
ATOM     25  CD2 HIS F   2       3.546  31.682 -22.571  1.00 30.69 LIG 0.14  A 
ENDBRANCH 20 21
ENDBRANCH 1 20
TORSDOF 8
ENDMDL
MODEL 32
USER: ADFR SOLUTION from run 85
USER: SCORE 8.154229 LL:  -1.278 LR:  -7.093 RR:   0.000 FEB:  -4.706
USER: RMSD 7.808751
USER: SEED 84
USER: STATUS no improvement in best in 14 clusters for 5 generations
USER: GENES 10
USER: genes 0 Translation |==|  0.67279 0.53530 0.44632
USER: genes 1 Rotation |==|  0.39930 0.09417 0.23011 0.54817
USER: genes 2 Torsion [C]-CA--N-[C] |==|  0.18889
USER: genes 3 Torsion [N]-C--CA-[N] |==|  0.71769
USER: genes 4 Torsion [C]-CA--N-[H3] |==|  0.56999
USER: genes 5 Torsion [N]-CA--C-[N] |==|  0.04625
USER: genes 6 Torsion [C]-N--CA-[CB] |==|  0.51172
USER: genes 7 Torsion [N]-CA--C-[O] |==|  0.63141
USER: genes 8 Torsion [N]-CA--CB-[CG] |==|  0.57527
USER: genes 9 Torsion [CA]-CB--CG-[ND1] |==|  0.37116
ROOT
ATOM      1  CA  HIS F   2       1.609  30.986 -19.944  1.00 30.59 LIG 0.18  C 
ENDROOT
BRANCH 1 2
ATOM      2  N   HIS F   2       1.448  29.892 -18.981  1.00 30.70 LIG-0.35  N 
ATOM      3  C   ALA F   1       1.670  30.040 -17.676  1.00 31.15 LIG 0.25  C 
ATOM      4 O    ALA F   1       2.039  31.102 -17.163  1.00 30.37 LIG-0.27  OA
ATOM      5 H    HIS F   2       1.197  29.149 -19.337  1.00 30.70 LIG 0.16  HD
BRANCH 3 6
ATOM      6  CA  ALA F   1       1.443  28.793 -16.813  1.00 31.15 LIG 0.27  C 
ATOM      7  CB  ALA F   1       1.950  27.723 -17.250  0.00 20.00 LIG 0.05  C 
BRANCH 6 8
ATOM      8  N   ALA F   1       0.128  28.853 -16.091  1.00 31.97 LIG-0.07  N 
ATOM      9 H3   ALA F   1       0.168  28.352 -15.357  1.00 31.97 LIG 0.28  HD
ATOM     10 H1   ALA F   1      -0.048  29.696 -15.865  1.00 31.97 LIG 0.28  HD
ATOM     11 H2   ALA F   1      -0.517  28.549 -16.623  1.00 31.97 LIG 0.28  HD
ENDBRANCH 6 8
ENDBRANCH 3 6
ENDBRANCH 1 2
BRANCH 1 12
ATOM     12  C   HIS F   2       3.085  31.380 -20.084  1.00 31.15 LIG 0.24  C 
ATOM     13 O    HIS F   2       3.405  32.467 -20.600  1.00 30.80 LIG-0.27  OA
ATOM     14  N   ALA F   3       3.976  30.496 -19.621  1.00 30.97 LIG-0.35  N 
ATOM     15 H    ALA F   3       3.758  29.746 -19.260  1.00 30.97 LIG 0.16  HD
BRANCH 14 16
ATOM     16  CA  ALA F   3       5.417  30.726 -19.689  1.00 31.72 LIG 0.16  C 
ATOM     17  CB  ALA F   3       6.090  29.438 -19.157  0.00 20.00 LIG 0.04  C 
BRANCH 16 18
ATOM     18  C   ALA F   3       5.978  30.674 -21.108  1.00 32.37 LIG 0.22  C 
ATOM     19 O    ALA F   3       6.999  30.020 -21.364  1.00 33.75 LIG-0.29  OA
ENDBRANCH 16 18
ENDBRANCH 14 16
ENDBRANCH 1 12
BRANCH 1 20
ATOM     20  CB  HIS F   2       0.782  32.209 -19.513  1.00 30.20 LIG 0.10  C 
BRANCH 20 21
ATOM     21  CG  HIS F   2       0.346  33.101 -20.645  1.00 29.66 LIG 0.06  A 
ATOM     22 ND1  HIS F   2      -0.941  33.584 -20.776  1.00 29.25 LIG-0.24  NA
ATOM     23  CE1 HIS F   2      -1.032  34.312 -21.878  1.00 27.69 LIG 0.23  A 
ATOM     24 NE2  HIS F   2       0.147  34.307 -22.481  1.00 31.40 LIG-0.25  NA
ATOM     25  CD2 HIS F   2       1.022  33.542 -21.737  1.00 30.69 LIG 0.14  A 
ENDBRANCH 20 21
ENDBRANCH 1 20
TORSDOF 8
ENDMDL
MODEL 33
USER: ADFR SOLUTION from run 97
USER: SCORE 8.250458 LL:  -1.177 LR:  -7.080 RR:   0.000 FEB:  -4.693
USER: RMSD 5.815386
USER: SEED 96
USER: STATUS no improvement in best in 15 clusters for 5 generations
USER: GENES 10
USER: genes 0 Translation |==|  0.53679 0.66659 0.54110
USER: genes 1 Rotation |==|  0.52785 0.40457 0.98227 0.58680
USER: genes 2 Torsion [C]-CA--N-[C] |==|  0.81528
USER: genes 3 Torsion [N]-C--CA-[N] |==|  0.31795
USER: genes 4 Torsion [C]-CA--N-[H3] |==|  0.76549
USER: genes 5 Torsion [N]-CA--C-[N] |==|  0.41101
USER: genes 6 Torsion [C]-N--CA-[CB] |==|  0.54281
USER: genes 7 Torsion [N]-CA--C-[O] |==|  0.44589
USER: genes 8 Torsion [N]-CA--CB-[CG] |==|  0.88312
USER: genes 9 Torsion [CA]-CB--CG-[ND1] |==|  0.00758
ROOT
ATOM      1  CA  HIS F   2      -0.737  32.561 -18.452  1.00 30.59 LIG 0.18  C 
ENDROOT
BRANCH 1 2
ATOM      2  N   HIS F   2      -1.170  32.863 -19.820  1.00 30.70 LIG-0.35  N 
ATOM      3  C   ALA F   1      -0.346  33.345 -20.748  1.00 31.15 LIG 0.25  C 
ATOM      4 O    ALA F   1       0.847  33.590 -20.541  1.00 30.37 LIG-0.27  OA
ATOM      5 H    HIS F   2      -2.002  32.699 -19.965  1.00 30.70 LIG 0.16  HD
BRANCH 3 6
ATOM      6  CA  ALA F   1      -0.966  33.593 -22.129  1.00 31.15 LIG 0.27  C 
ATOM      7  CB  ALA F   1      -0.792  32.678 -22.981  0.00 20.00 LIG 0.05  C 
BRANCH 6 8
ATOM      8  N   ALA F   1      -0.979  35.055 -22.474  1.00 31.97 LIG-0.07  N 
ATOM      9 H3   ALA F   1      -1.700  35.437 -22.119  1.00 31.97 LIG 0.28  HD
ATOM     10 H1   ALA F   1      -0.247  35.443 -22.150  1.00 31.97 LIG 0.28  HD
ATOM     11 H2   ALA F   1      -0.998  35.151 -23.358  1.00 31.97 LIG 0.28  HD
ENDBRANCH 6 8
ENDBRANCH 3 6
ENDBRANCH 1 2
BRANCH 1 12
ATOM     12  C   HIS F   2       0.258  31.394 -18.437  1.00 31.15 LIG 0.24  C 
ATOM     13 O    HIS F   2       0.179  30.481 -19.280  1.00 30.80 LIG-0.27  OA
ATOM     14  N   ALA F   3       1.192  31.431 -17.479  1.00 30.97 LIG-0.35  N 
ATOM     15 H    ALA F   3       1.253  32.062 -16.898  1.00 30.97 LIG 0.16  HD
BRANCH 14 16
ATOM     16  CA  ALA F   3       2.205  30.388 -17.332  1.00 31.72 LIG 0.16  C 
ATOM     17  CB  ALA F   3       2.821  30.573 -15.923  0.00 20.00 LIG 0.04  C 
BRANCH 16 18
ATOM     18  C   ALA F   3       1.621  28.995 -17.114  1.00 32.37 LIG 0.22  C 
ATOM     19 O    ALA F   3       2.301  27.980 -17.327  1.00 33.75 LIG-0.29  OA
ENDBRANCH 16 18
ENDBRANCH 14 16
ENDBRANCH 1 12
BRANCH 1 20
ATOM     20  CB  HIS F   2      -1.948  32.222 -17.566  1.00 30.20 LIG 0.10  C 
BRANCH 20 21
ATOM     21  CG  HIS F   2      -3.146  33.110 -17.777  1.00 29.66 LIG 0.06  A 
ATOM     22 ND1  HIS F   2      -3.189  34.112 -18.725  1.00 29.25 LIG-0.24  NA
ATOM     23  CE1 HIS F   2      -4.353  34.740 -18.656  1.00 27.69 LIG 0.23  A 
ATOM     24 NE2  HIS F   2      -5.066  34.191 -17.684  1.00 31.40 LIG-0.25  NA
ATOM     25  CD2 HIS F   2      -4.326  33.180 -17.107  1.00 30.69 LIG 0.14  A 
ENDBRANCH 20 21
ENDBRANCH 1 20
TORSDOF 8
ENDMDL
MODEL 34
USER: ADFR SOLUTION from run 22
USER: SCORE 7.896683 LL:  -1.444 LR:  -7.072 RR:   0.000 FEB:  -4.686
USER: RMSD 4.391014
USER: SEED 21
USER: STATUS no improvement in best in 24 clusters for 5 generations
USER: GENES 10
USER: genes 0 Translation |==|  0.62264 0.58112 0.44378
USER: genes 1 Rotation |==|  0.71865 0.69634 0.55483 0.90080
USER: genes 2 Torsion [C]-CA--N-[C] |==|  0.61395
USER: genes 3 Torsion [N]-C--CA-[N] |==|  0.38463
USER: genes 4 Torsion [C]-CA--N-[H3] |==|  0.28289
USER: genes 5 Torsion [N]-CA--C-[N] |==|  0.79454
USER: genes 6 Torsion [C]-N--CA-[CB] |==|  0.15004
USER: genes 7 Torsion [N]-CA--C-[O] |==|  0.24442
USER: genes 8 Torsion [N]-CA--CB-[CG] |==|  0.45918
USER: genes 9 Torsion [CA]-CB--CG-[ND1] |==|  0.13916
ROOT
ATOM      1  CA  HIS F   2       0.744  31.535 -19.984  1.00 30.59 LIG 0.18  C 
ENDROOT
BRANCH 1 2
ATOM      2  N   HIS F   2      -0.032  32.748 -20.264  1.00 30.70 LIG-0.35  N 
ATOM      3  C   ALA F   1      -0.534  33.023 -21.466  1.00 31.15 LIG 0.25  C 
ATOM      4 O    ALA F   1      -0.385  32.293 -22.451  1.00 30.37 LIG-0.27  OA
ATOM      5 H    HIS F   2      -0.132  33.262 -19.581  1.00 30.70 LIG 0.16  HD
BRANCH 3 6
ATOM      6  CA  ALA F   1      -1.328  34.331 -21.576  1.00 31.15 LIG 0.27  C 
ATOM      7  CB  ALA F   1      -2.470  34.326 -21.040  0.00 20.00 LIG 0.05  C 
BRANCH 6 8
ATOM      8  N   ALA F   1      -1.013  35.063 -22.849  1.00 31.97 LIG-0.07  N 
ATOM      9 H3   ALA F   1      -1.667  34.932 -23.437  1.00 31.97 LIG 0.28  HD
ATOM     10 H1   ALA F   1      -0.936  35.933 -22.680  1.00 31.97 LIG 0.28  HD
ATOM     11 H2   ALA F   1      -0.247  34.758 -23.185  1.00 31.97 LIG 0.28  HD
ENDBRANCH 6 8
ENDBRANCH 3 6
ENDBRANCH 1 2
BRANCH 1 12
ATOM     12  C   HIS F   2       0.357  30.939 -18.624  1.00 31.15 LIG 0.24  C 
ATOM     13 O    HIS F   2      -0.332  29.904 -18.558  1.00 30.80 LIG-0.27  OA
ATOM     14  N   ALA F   3       0.805  31.595 -17.547  1.00 30.97 LIG-0.35  N 
ATOM     15 H    ALA F   3       1.285  32.308 -17.589  1.00 30.97 LIG 0.16  HD
BRANCH 14 16
ATOM     16  CA  ALA F   3       0.515  31.154 -16.185  1.00 31.72 LIG 0.16  C 
ATOM     17  CB  ALA F   3       0.969  29.676 -16.099  0.00 20.00 LIG 0.04  C 
BRANCH 16 18
ATOM     18  C   ALA F   3       1.475  31.720 -15.142  1.00 32.37 LIG 0.22  C 
ATOM     19 O    ALA F   3       1.253  32.811 -14.599  1.00 33.75 LIG-0.29  OA
ENDBRANCH 16 18
ENDBRANCH 14 16
ENDBRANCH 1 12
BRANCH 1 20
ATOM     20  CB  HIS F   2       2.250  31.842 -20.008  1.00 30.20 LIG 0.10  C 
BRANCH 20 21
ATOM     21  CG  HIS F   2       3.117  30.772 -19.401  1.00 29.66 LIG 0.06  A 
ATOM     22 ND1  HIS F   2       3.019  29.436 -19.738  1.00 29.25 LIG-0.24  NA
ATOM     23  CE1 HIS F   2       3.884  28.733 -19.023  1.00 27.69 LIG 0.23  A 
ATOM     24 NE2  HIS F   2       4.533  29.562 -18.220  1.00 31.40 LIG-0.25  NA
ATOM     25  CD2 HIS F   2       4.060  30.842 -18.426  1.00 30.69 LIG 0.14  A 
ENDBRANCH 20 21
ENDBRANCH 1 20
TORSDOF 8
ENDMDL
MODEL 35
USER: ADFR SOLUTION from run 76
USER: SCORE 8.307540 LL:  -1.303 LR:  -7.058 RR:   0.000 FEB:  -4.671
USER: RMSD 6.332125
USER: SEED 75
USER: STATUS no improvement in best in 16 clusters for 5 generations
USER: GENES 10
USER: genes 0 Translation |==|  0.53304 0.76659 0.45173
USER: genes 1 Rotation |==|  0.56818 0.30256 0.94945 0.56607
USER: genes 2 Torsion [C]-CA--N-[C] |==|  0.14445
USER: genes 3 Torsion [N]-C--CA-[N] |==|  0.39235
USER: genes 4 Torsion [C]-CA--N-[H3] |==|  0.90193
USER: genes 5 Torsion [N]-CA--C-[N] |==|  0.11306
USER: genes 6 Torsion [C]-N--CA-[CB] |==|  0.17381
USER: genes 7 Torsion [N]-CA--C-[O] |==|  0.44362
USER: genes 8 Torsion [N]-CA--CB-[CG] |==|  0.55938
USER: genes 9 Torsion [CA]-CB--CG-[ND1] |==|  0.95299
ROOT
ATOM      1  CA  HIS F   2      -0.802  33.761 -19.859  1.00 30.59 LIG 0.18  C 
ENDROOT
BRANCH 1 2
ATOM      2  N   HIS F   2      -1.368  34.594 -20.925  1.00 30.70 LIG-0.35  N 
ATOM      3  C   ALA F   1      -1.877  34.085 -22.046  1.00 31.15 LIG 0.25  C 
ATOM      4 O    ALA F   1      -1.909  32.875 -22.293  1.00 30.37 LIG-0.27  OA
ATOM      5 H    HIS F   2      -1.341  35.438 -20.759  1.00 30.70 LIG 0.16  HD
BRANCH 3 6
ATOM      6  CA  ALA F   1      -2.436  35.102 -23.049  1.00 31.15 LIG 0.27  C 
ATOM      7  CB  ALA F   1      -3.503  35.680 -22.706  0.00 20.00 LIG 0.05  C 
BRANCH 6 8
ATOM      8  N   ALA F   1      -2.122  34.711 -24.465  1.00 31.97 LIG-0.07  N 
ATOM      9 H3   ALA F   1      -1.321  34.325 -24.496  1.00 31.97 LIG 0.28  HD
ATOM     10 H1   ALA F   1      -2.738  34.139 -24.758  1.00 31.97 LIG 0.28  HD
ATOM     11 H2   ALA F   1      -2.122  35.436 -24.980  1.00 31.97 LIG 0.28  HD
ENDBRANCH 6 8
ENDBRANCH 3 6
ENDBRANCH 1 2
BRANCH 1 12
ATOM     12  C   HIS F   2       0.244  32.789 -20.420  1.00 31.15 LIG 0.24  C 
ATOM     13 O    HIS F   2       0.300  31.613 -20.014  1.00 30.80 LIG-0.27  OA
ATOM     14  N   ALA F   3       1.066  33.285 -21.353  1.00 30.97 LIG-0.35  N 
ATOM     15 H    ALA F   3       1.027  34.095 -21.639  1.00 30.97 LIG 0.16  HD
BRANCH 14 16
ATOM     16  CA  ALA F   3       2.117  32.484 -21.976  1.00 31.72 LIG 0.16  C 
ATOM     17  CB  ALA F   3       1.402  31.333 -22.726  0.00 20.00 LIG 0.04  C 
BRANCH 16 18
ATOM     18  C   ALA F   3       2.753  33.151 -23.193  1.00 32.37 LIG 0.22  C 
ATOM     19 O    ALA F   3       3.871  32.801 -23.599  1.00 33.75 LIG-0.29  OA
ENDBRANCH 16 18
ENDBRANCH 14 16
ENDBRANCH 1 12
BRANCH 1 20
ATOM     20  CB  HIS F   2      -1.912  32.973 -19.144  1.00 30.20 LIG 0.10  C 
BRANCH 20 21
ATOM     21  CG  HIS F   2      -1.553  32.499 -17.761  1.00 29.66 LIG 0.06  A 
ATOM     22 ND1  HIS F   2      -0.254  32.437 -17.295  1.00 29.25 LIG-0.24  NA
ATOM     23  CE1 HIS F   2      -0.247  31.956 -16.062  1.00 27.69 LIG 0.23  A 
ATOM     24 NE2  HIS F   2      -1.496  31.685 -15.712  1.00 31.40 LIG-0.25  NA
ATOM     25  CD2 HIS F   2      -2.330  32.001 -16.765  1.00 30.69 LIG 0.14  A 
ENDBRANCH 20 21
ENDBRANCH 1 20
TORSDOF 8
ENDMDL
MODEL 36
USER: ADFR SOLUTION from run 92
USER: SCORE 8.452256 LL:  -1.458 LR:  -7.045 RR:   0.000 FEB:  -4.659
USER: RMSD 7.026998
USER: SEED 91
USER: STATUS no improvement in best in 10 clusters for 5 generations
USER: GENES 10
USER: genes 0 Translation |==|  0.63517 0.68272 0.27441
USER: genes 1 Rotation |==|  0.64583 0.80563 0.51566 0.86753
USER: genes 2 Torsion [C]-CA--N-[C] |==|  0.81781
USER: genes 3 Torsion [N]-C--CA-[N] |==|  0.98298
USER: genes 4 Torsion [C]-CA--N-[H3] |==|  0.27447
USER: genes 5 Torsion [N]-CA--C-[N] |==|  0.43453
USER: genes 6 Torsion [C]-N--CA-[CB] |==|  0.48017
USER: genes 7 Torsion [N]-CA--C-[O] |==|  0.99303
USER: genes 8 Torsion [N]-CA--CB-[CG] |==|  0.56171
USER: genes 9 Torsion [CA]-CB--CG-[ND1] |==|  0.68282
ROOT
ATOM      1  CA  HIS F   2       0.960  32.755 -22.652  1.00 30.59 LIG 0.18  C 
ENDROOT
BRANCH 1 2
ATOM      2  N   HIS F   2      -0.139  33.711 -22.824  1.00 30.70 LIG-0.35  N 
ATOM      3  C   ALA F   1      -1.375  33.477 -22.387  1.00 31.15 LIG 0.25  C 
ATOM      4 O    ALA F   1      -1.709  32.437 -21.809  1.00 30.37 LIG-0.27  OA
ATOM      5 H    HIS F   2       0.090  34.433 -23.232  1.00 30.70 LIG 0.16  HD
BRANCH 3 6
ATOM      6  CA  ALA F   1      -2.397  34.591 -22.643  1.00 31.15 LIG 0.27  C 
ATOM      7  CB  ALA F   1      -3.560  34.209 -22.949  0.00 20.00 LIG 0.05  C 
BRANCH 6 8
ATOM      8  N   ALA F   1      -1.747  35.814 -23.224  1.00 31.97 LIG-0.07  N 
ATOM      9 H3   ALA F   1      -1.861  35.821 -24.106  1.00 31.97 LIG 0.28  HD
ATOM     10 H1   ALA F   1      -2.117  36.543 -22.871  1.00 31.97 LIG 0.28  HD
ATOM     11 H2   ALA F   1      -0.877  35.804 -23.038  1.00 31.97 LIG 0.28  HD
ENDBRANCH 6 8
ENDBRANCH 3 6
ENDBRANCH 1 2
BRANCH 1 12
ATOM     12  C   HIS F   2       1.303  32.576 -21.167  1.00 31.15 LIG 0.24  C 
ATOM     13 O    HIS F   2       1.023  33.463 -20.340  1.00 30.80 LIG-0.27  OA
ATOM     14  N   ALA F   3       1.906  31.428 -20.838  1.00 30.97 LIG-0.35  N 
ATOM     15 H    ALA F   3       2.097  30.810 -21.406  1.00 30.97 LIG 0.16  HD
BRANCH 14 16
ATOM     16  CA  ALA F   3       2.300  31.115 -19.466  1.00 31.72 LIG 0.16  C 
ATOM     17  CB  ALA F   3       2.788  29.646 -19.476  0.00 20.00 LIG 0.04  C 
BRANCH 16 18
ATOM     18  C   ALA F   3       3.618  31.761 -19.047  1.00 32.37 LIG 0.22  C 
ATOM     19 O    ALA F   3       4.279  32.437 -19.849  1.00 33.75 LIG-0.29  OA
ENDBRANCH 16 18
ENDBRANCH 14 16
ENDBRANCH 1 12
BRANCH 1 20
ATOM     20  CB  HIS F   2       2.207  33.223 -23.421  1.00 30.20 LIG 0.10  C 
BRANCH 20 21
ATOM     21  CG  HIS F   2       3.184  32.128 -23.756  1.00 29.66 LIG 0.06  A 
ATOM     22 ND1  HIS F   2       4.456  32.059 -23.225  1.00 29.25 LIG-0.24  NA
ATOM     23  CE1 HIS F   2       5.090  31.009 -23.724  1.00 27.69 LIG 0.23  A 
ATOM     24 NE2  HIS F   2       4.280  30.399 -24.577  1.00 31.40 LIG-0.25  NA
ATOM     25  CD2 HIS F   2       3.087  31.090 -24.627  1.00 30.69 LIG 0.14  A 
ENDBRANCH 20 21
ENDBRANCH 1 20
TORSDOF 8
ENDMDL
MODEL 37
USER: ADFR SOLUTION from run 121
USER: SCORE 8.329537 LL:  -1.382 LR:  -7.019 RR:   0.000 FEB:  -4.633
USER: RMSD 3.178281
USER: SEED 120
USER: STATUS no improvement in best in 16 clusters for 5 generations
USER: GENES 10
USER: genes 0 Translation |==|  0.59270 0.55217 0.44814
USER: genes 1 Rotation |==|  0.63441 0.46840 0.54895 0.97806
USER: genes 2 Torsion [C]-CA--N-[C] |==|  0.85247
USER: genes 3 Torsion [N]-C--CA-[N] |==|  0.67115
USER: genes 4 Torsion [C]-CA--N-[H3] |==|  0.28249
USER: genes 5 Torsion [N]-CA--C-[N] |==|  0.35000
USER: genes 6 Torsion [C]-N--CA-[CB] |==|  0.42880
USER: genes 7 Torsion [N]-CA--C-[O] |==|  0.68507
USER: genes 8 Torsion [N]-CA--CB-[CG] |==|  0.54500
USER: genes 9 Torsion [CA]-CB--CG-[ND1] |==|  0.25719
ROOT
ATOM      1  CA  HIS F   2       0.227  31.188 -19.916  1.00 30.59 LIG 0.18  C 
ENDROOT
BRANCH 1 2
ATOM      2  N   HIS F   2       0.494  32.272 -20.867  1.00 30.70 LIG-0.35  N 
ATOM      3  C   ALA F   1      -0.279  32.511 -21.924  1.00 31.15 LIG 0.25  C 
ATOM      4 O    ALA F   1      -1.279  31.842 -22.204  1.00 30.37 LIG-0.27  OA
ATOM      5 H    HIS F   2       1.194  32.736 -20.678  1.00 30.70 LIG 0.16  HD
BRANCH 3 6
ATOM      6  CA  ALA F   1       0.143  33.692 -22.808  1.00 31.15 LIG 0.27  C 
ATOM      7  CB  ALA F   1       1.380  33.937 -22.842  0.00 20.00 LIG 0.05  C 
BRANCH 6 8
ATOM      8  N   ALA F   1      -0.915  34.757 -22.849  1.00 31.97 LIG-0.07  N 
ATOM      9 H3   ALA F   1      -0.684  35.426 -22.309  1.00 31.97 LIG 0.28  HD
ATOM     10 H1   ALA F   1      -0.997  35.062 -23.681  1.00 31.97 LIG 0.28  HD
ATOM     11 H2   ALA F   1      -1.691  34.415 -22.581  1.00 31.97 LIG 0.28  HD
ENDBRANCH 6 8
ENDBRANCH 3 6
ENDBRANCH 1 2
BRANCH 1 12
ATOM     12  C   HIS F   2      -1.210  31.268 -19.383  1.00 31.15 LIG 0.24  C 
ATOM     13 O    HIS F   2      -1.638  32.317 -18.867  1.00 30.80 LIG-0.27  OA
ATOM     14  N   ALA F   3      -1.947  30.159 -19.513  1.00 30.97 LIG-0.35  N 
ATOM     15 H    ALA F   3      -1.656  29.434 -19.873  1.00 30.97 LIG 0.16  HD
BRANCH 14 16
ATOM     16  CA  ALA F   3      -3.330  30.079 -19.049  1.00 31.72 LIG 0.16  C 
ATOM     17  CB  ALA F   3      -4.016  28.989 -19.908  0.00 20.00 LIG 0.04  C 
BRANCH 16 18
ATOM     18  C   ALA F   3      -3.481  29.390 -17.695  1.00 32.37 LIG 0.22  C 
ATOM     19 O    ALA F   3      -4.063  28.300 -17.597  1.00 33.75 LIG-0.29  OA
ENDBRANCH 16 18
ENDBRANCH 14 16
ENDBRANCH 1 12
BRANCH 1 20
ATOM     20  CB  HIS F   2       1.220  31.244 -18.743  1.00 30.20 LIG 0.10  C 
BRANCH 20 21
ATOM     21  CG  HIS F   2       1.291  29.985 -17.921  1.00 29.66 LIG 0.06  A 
ATOM     22 ND1  HIS F   2       2.197  28.972 -18.164  1.00 29.25 LIG-0.24  NA
ATOM     23  CE1 HIS F   2       2.002  27.985 -17.303  1.00 27.69 LIG 0.23  A 
ATOM     24 NE2  HIS F   2       0.988  28.312 -16.516  1.00 31.40 LIG-0.25  NA
ATOM     25  CD2 HIS F   2       0.515  29.552 -16.894  1.00 30.69 LIG 0.14  A 
ENDBRANCH 20 21
ENDBRANCH 1 20
TORSDOF 8
ENDMDL
MODEL 38
USER: ADFR SOLUTION from run 156
USER: SCORE 8.266212 LL:  -1.287 LR:  -6.984 RR:   0.000 FEB:  -4.598
USER: RMSD 8.547854
USER: SEED 155
USER: STATUS no improvement in best in 18 clusters for 5 generations
USER: GENES 10
USER: genes 0 Translation |==|  0.80067 0.38211 0.67673
USER: genes 1 Rotation |==|  0.63393 0.03522 0.54617 0.61793
USER: genes 2 Torsion [C]-CA--N-[C] |==|  0.83151
USER: genes 3 Torsion [N]-C--CA-[N] |==|  0.16891
USER: genes 4 Torsion [C]-CA--N-[H3] |==|  0.30390
USER: genes 5 Torsion [N]-CA--C-[N] |==|  0.36667
USER: genes 6 Torsion [C]-N--CA-[CB] |==|  0.16432
USER: genes 7 Torsion [N]-CA--C-[O] |==|  0.43951
USER: genes 8 Torsion [N]-CA--CB-[CG] |==|  0.16287
USER: genes 9 Torsion [CA]-CB--CG-[ND1] |==|  0.91872
ROOT
ATOM      1  CA  HIS F   2       3.814  29.147 -16.316  1.00 30.59 LIG 0.18  C 
ENDROOT
BRANCH 1 2
ATOM      2  N   HIS F   2       3.962  29.755 -14.989  1.00 30.70 LIG-0.35  N 
ATOM      3  C   ALA F   1       5.131  30.187 -14.519  1.00 31.15 LIG 0.25  C 
ATOM      4 O    ALA F   1       6.191  30.108 -15.148  1.00 30.37 LIG-0.27  OA
ATOM      5 H    HIS F   2       3.226  29.805 -14.546  1.00 30.70 LIG 0.16  HD
BRANCH 3 6
ATOM      6  CA  ALA F   1       5.100  30.806 -13.116  1.00 31.15 LIG 0.27  C 
ATOM      7  CB  ALA F   1       5.973  31.687 -12.885  0.00 20.00 LIG 0.05  C 
BRANCH 6 8
ATOM      8  N   ALA F   1       4.628  29.818 -12.088  1.00 31.97 LIG-0.07  N 
ATOM      9 H3   ALA F   1       5.309  29.582 -11.567  1.00 31.97 LIG 0.28  HD
ATOM     10 H1   ALA F   1       3.989  30.188 -11.591  1.00 31.97 LIG 0.28  HD
ATOM     11 H2   ALA F   1       4.304  29.097 -12.496  1.00 31.97 LIG 0.28  HD
ENDBRANCH 6 8
ENDBRANCH 3 6
ENDBRANCH 1 2
BRANCH 1 12
ATOM     12  C   HIS F   2       4.228  30.131 -17.418  1.00 31.15 LIG 0.24  C 
ATOM     13 O    HIS F   2       3.803  31.301 -17.416  1.00 30.80 LIG-0.27  OA
ATOM     14  N   ALA F   3       5.056  29.651 -18.353  1.00 30.97 LIG-0.35  N 
ATOM     15 H    ALA F   3       5.355  28.845 -18.355  1.00 30.97 LIG 0.16  HD
BRANCH 14 16
ATOM     16  CA  ALA F   3       5.533  30.465 -19.469  1.00 31.72 LIG 0.16  C 
ATOM     17  CB  ALA F   3       6.276  31.670 -18.844  0.00 20.00 LIG 0.04  C 
BRANCH 16 18
ATOM     18  C   ALA F   3       6.723  29.855 -20.205  1.00 32.37 LIG 0.22  C 
ATOM     19 O    ALA F   3       6.987  30.185 -21.370  1.00 33.75 LIG-0.29  OA
ENDBRANCH 16 18
ENDBRANCH 14 16
ENDBRANCH 1 12
BRANCH 1 20
ATOM     20  CB  HIS F   2       2.362  28.694 -16.541  1.00 30.20 LIG 0.10  C 
BRANCH 20 21
ATOM     21  CG  HIS F   2       1.339  29.793 -16.436  1.00 29.66 LIG 0.06  A 
ATOM     22 ND1  HIS F   2       1.503  30.906 -15.635  1.00 29.25 LIG-0.24  NA
ATOM     23  CE1 HIS F   2       0.432  31.680 -15.724  1.00 27.69 LIG 0.23  A 
ATOM     24 NE2  HIS F   2      -0.433  31.101 -16.543  1.00 31.40 LIG-0.25  NA
ATOM     25  CD2 HIS F   2       0.104  29.911 -16.989  1.00 30.69 LIG 0.14  A 
ENDBRANCH 20 21
ENDBRANCH 1 20
TORSDOF 8
ENDMDL
MODEL 39
USER: ADFR SOLUTION from run 148
USER: SCORE 7.927477 LL:  -1.343 LR:  -6.970 RR:   0.000 FEB:  -4.584
USER: RMSD 5.936800
USER: SEED 147
USER: STATUS no improvement in best in 18 clusters for 5 generations
USER: GENES 10
USER: genes 0 Translation |==|  0.41785 0.51667 0.64298
USER: genes 1 Rotation |==|  0.46436 0.84321 0.17777 0.66463
USER: genes 2 Torsion [C]-CA--N-[C] |==|  0.66527
USER: genes 3 Torsion [N]-C--CA-[N] |==|  0.46316
USER: genes 4 Torsion [C]-CA--N-[H3] |==|  0.56051
USER: genes 5 Torsion [N]-CA--C-[N] |==|  0.51103
USER: genes 6 Torsion [C]-N--CA-[CB] |==|  0.23534
USER: genes 7 Torsion [N]-CA--C-[O] |==|  0.16978
USER: genes 8 Torsion [N]-CA--CB-[CG] |==|  0.78644
USER: genes 9 Torsion [CA]-CB--CG-[ND1] |==|  0.50897
ROOT
ATOM      1  CA  HIS F   2      -2.789  30.762 -16.847  1.00 30.59 LIG 0.18  C 
ENDROOT
BRANCH 1 2
ATOM      2  N   HIS F   2      -3.629  31.853 -17.352  1.00 30.70 LIG-0.35  N 
ATOM      3  C   ALA F   1      -4.531  32.478 -16.598  1.00 31.15 LIG 0.25  C 
ATOM      4 O    ALA F   1      -4.748  32.193 -15.416  1.00 30.37 LIG-0.27  OA
ATOM      5 H    HIS F   2      -3.484  32.050 -18.177  1.00 30.70 LIG 0.16  HD
BRANCH 3 6
ATOM      6  CA  ALA F   1      -5.314  33.604 -17.286  1.00 31.15 LIG 0.27  C 
ATOM      7  CB  ALA F   1      -4.629  34.402 -17.982  0.00 20.00 LIG 0.05  C 
BRANCH 6 8
ATOM      8  N   ALA F   1      -6.505  34.024 -16.474  1.00 31.97 LIG-0.07  N 
ATOM      9 H3   ALA F   1      -7.099  34.423 -17.002  1.00 31.97 LIG 0.28  HD
ATOM     10 H1   ALA F   1      -6.877  33.307 -16.099  1.00 31.97 LIG 0.28  HD
ATOM     11 H2   ALA F   1      -6.247  34.589 -15.838  1.00 31.97 LIG 0.28  HD
ENDBRANCH 6 8
ENDBRANCH 3 6
ENDBRANCH 1 2
BRANCH 1 12
ATOM     12  C   HIS F   2      -1.301  31.116 -16.965  1.00 31.15 LIG 0.24  C 
ATOM     13 O    HIS F   2      -0.946  32.239 -17.370  1.00 30.80 LIG-0.27  OA
ATOM     14  N   ALA F   3      -0.439  30.157 -16.609  1.00 30.97 LIG-0.35  N 
ATOM     15 H    ALA F   3      -0.680  29.382 -16.324  1.00 30.97 LIG 0.16  HD
BRANCH 14 16
ATOM     16  CA  ALA F   3       1.009  30.342 -16.672  1.00 31.72 LIG 0.16  C 
ATOM     17  CB  ALA F   3       1.418  31.035 -15.349  0.00 20.00 LIG 0.04  C 
BRANCH 16 18
ATOM     18  C   ALA F   3       1.800  29.051 -16.474  1.00 32.37 LIG 0.22  C 
ATOM     19 O    ALA F   3       1.669  28.099 -17.257  1.00 33.75 LIG-0.29  OA
ENDBRANCH 16 18
ENDBRANCH 14 16
ENDBRANCH 1 12
BRANCH 1 20
ATOM     20  CB  HIS F   2      -3.076  29.461 -17.616  1.00 30.20 LIG 0.10  C 
BRANCH 20 21
ATOM     21  CG  HIS F   2      -4.349  28.764 -17.215  1.00 29.66 LIG 0.06  A 
ATOM     22 ND1  HIS F   2      -4.747  27.552 -17.743  1.00 29.25 LIG-0.24  NA
ATOM     23  CE1 HIS F   2      -5.915  27.204 -17.224  1.00 27.69 LIG 0.23  A 
ATOM     24 NE2  HIS F   2      -6.300  28.156 -16.388  1.00 31.40 LIG-0.25  NA
ATOM     25  CD2 HIS F   2      -5.345  29.151 -16.377  1.00 30.69 LIG 0.14  A 
ENDBRANCH 20 21
ENDBRANCH 1 20
TORSDOF 8
ENDMDL
MODEL 40
USER: ADFR SOLUTION from run 22
USER: SCORE 7.904499 LL:  -1.509 LR:  -6.974 RR:   0.000 FEB:  -4.587
USER: RMSD 6.424025
USER: SEED 21
USER: STATUS no improvement in best in 24 clusters for 5 generations
USER: GENES 10
USER: genes 0 Translation |==|  0.76730 0.57489 0.51727
USER: genes 1 Rotation |==|  0.91588 0.35075 0.73355 0.51495
USER: genes 2 Torsion [C]-CA--N-[C] |==|  0.16887
USER: genes 3 Torsion [N]-C--CA-[N] |==|  0.49342
USER: genes 4 Torsion [C]-CA--N-[H3] |==|  0.21446
USER: genes 5 Torsion [N]-CA--C-[N] |==|  0.18889
USER: genes 6 Torsion [C]-N--CA-[CB] |==|  0.46925
USER: genes 7 Torsion [N]-CA--C-[O] |==|  0.13270
USER: genes 8 Torsion [N]-CA--CB-[CG] |==|  0.85389
USER: genes 9 Torsion [CA]-CB--CG-[ND1] |==|  0.28782
ROOT
ATOM      1  CA  HIS F   2       3.239  31.461 -18.827  1.00 30.59 LIG 0.18  C 
ENDROOT
BRANCH 1 2
ATOM      2  N   HIS F   2       2.086  31.493 -17.920  1.00 30.70 LIG-0.35  N 
ATOM      3  C   ALA F   1       1.200  30.503 -17.845  1.00 31.15 LIG 0.25  C 
ATOM      4 O    ALA F   1       1.260  29.478 -18.532  1.00 30.37 LIG-0.27  OA
ATOM      5 H    HIS F   2       2.038  32.209 -17.445  1.00 30.70 LIG 0.16  HD
BRANCH 3 6
ATOM      6  CA  ALA F   1       0.062  30.700 -16.834  1.00 31.15 LIG 0.27  C 
ATOM      7  CB  ALA F   1       0.365  31.325 -15.782  0.00 20.00 LIG 0.05  C 
BRANCH 6 8
ATOM      8  N   ALA F   1      -0.911  29.556 -16.868  1.00 31.97 LIG-0.07  N 
ATOM      9 H3   ALA F   1      -0.564  28.858 -16.439  1.00 31.97 LIG 0.28  HD
ATOM     10 H1   ALA F   1      -1.670  29.800 -16.474  1.00 31.97 LIG 0.28  HD
ATOM     11 H2   ALA F   1      -1.075  29.331 -17.713  1.00 31.97 LIG 0.28  HD
ENDBRANCH 6 8
ENDBRANCH 3 6
ENDBRANCH 1 2
BRANCH 1 12
ATOM     12  C   HIS F   2       2.783  31.365 -20.289  1.00 31.15 LIG 0.24  C 
ATOM     13 O    HIS F   2       2.995  30.334 -20.954  1.00 30.80 LIG-0.27  OA
ATOM     14  N   ALA F   3       2.159  32.442 -20.781  1.00 30.97 LIG-0.35  N 
ATOM     15 H    ALA F   3       2.006  33.154 -20.323  1.00 30.97 LIG 0.16  HD
BRANCH 14 16
ATOM     16  CA  ALA F   3       1.672  32.504 -22.157  1.00 31.72 LIG 0.16  C 
ATOM     17  CB  ALA F   3       0.778  33.765 -22.247  0.00 20.00 LIG 0.04  C 
BRANCH 16 18
ATOM     18  C   ALA F   3       2.735  32.941 -23.162  1.00 32.37 LIG 0.22  C 
ATOM     19 O    ALA F   3       3.863  32.426 -23.158  1.00 33.75 LIG-0.29  OA
ENDBRANCH 16 18
ENDBRANCH 14 16
ENDBRANCH 1 12
BRANCH 1 20
ATOM     20  CB  HIS F   2       4.156  30.273 -18.490  1.00 30.20 LIG 0.10  C 
BRANCH 20 21
ATOM     21  CG  HIS F   2       4.577  30.196 -17.046  1.00 29.66 LIG 0.06  A 
ATOM     22 ND1  HIS F   2       4.032  29.304 -16.145  1.00 29.25 LIG-0.24  NA
ATOM     23  CE1 HIS F   2       4.576  29.490 -14.952  1.00 27.69 LIG 0.23  A 
ATOM     24 NE2  HIS F   2       5.445  30.485 -15.040  1.00 31.40 LIG-0.25  NA
ATOM     25  CD2 HIS F   2       5.452  30.955 -16.337  1.00 30.69 LIG 0.14  A 
ENDBRANCH 20 21
ENDBRANCH 1 20
TORSDOF 8
ENDMDL
MODEL 41
USER: ADFR SOLUTION from run 112
USER: SCORE 7.855032 LL:  -1.369 LR:  -6.954 RR:   0.000 FEB:  -4.567
USER: RMSD 6.132691
USER: SEED 111
USER: STATUS no improvement in best in 26 clusters for 5 generations
USER: GENES 10
USER: genes 0 Translation |==|  0.70751 0.60299 0.47419
USER: genes 1 Rotation |==|  0.03541 0.66672 0.42037 0.50408
USER: genes 2 Torsion [C]-CA--N-[C] |==|  0.17684
USER: genes 3 Torsion [N]-C--CA-[N] |==|  0.55507
USER: genes 4 Torsion [C]-CA--N-[H3] |==|  0.41393
USER: genes 5 Torsion [N]-CA--C-[N] |==|  0.16667
USER: genes 6 Torsion [C]-N--CA-[CB] |==|  0.47823
USER: genes 7 Torsion [N]-CA--C-[O] |==|  0.06486
USER: genes 8 Torsion [N]-CA--CB-[CG] |==|  0.54086
USER: genes 9 Torsion [CA]-CB--CG-[ND1] |==|  0.35119
ROOT
ATOM      1  CA  HIS F   2       2.207  31.798 -19.505  1.00 30.59 LIG 0.18  C 
ENDROOT
BRANCH 1 2
ATOM      2  N   HIS F   2       1.748  31.475 -18.150  1.00 30.70 LIG-0.35  N 
ATOM      3  C   ALA F   1       1.033  30.387 -17.871  1.00 31.15 LIG 0.25  C 
ATOM      4 O    ALA F   1       0.684  29.562 -18.722  1.00 30.37 LIG-0.27  OA
ATOM      5 H    HIS F   2       1.984  32.051 -17.557  1.00 30.70 LIG 0.16  HD
BRANCH 3 6
ATOM      6  CA  ALA F   1       0.647  30.201 -16.398  1.00 31.15 LIG 0.27  C 
ATOM      7  CB  ALA F   1       1.235  30.957 -15.577  0.00 20.00 LIG 0.05  C 
BRANCH 6 8
ATOM      8  N   ALA F   1       0.283  28.775 -16.099  1.00 31.97 LIG-0.07  N 
ATOM      9 H3   ALA F   1       0.497  28.584 -15.257  1.00 31.97 LIG 0.28  HD
ATOM     10 H1   ALA F   1      -0.592  28.661 -16.216  1.00 31.97 LIG 0.28  HD
ATOM     11 H2   ALA F   1       0.727  28.234 -16.647  1.00 31.97 LIG 0.28  HD
ENDBRANCH 6 8
ENDBRANCH 3 6
ENDBRANCH 1 2
BRANCH 1 12
ATOM     12  C   HIS F   2       1.018  32.049 -20.441  1.00 31.15 LIG 0.24  C 
ATOM     13 O    HIS F   2       0.847  31.344 -21.453  1.00 30.80 LIG-0.27  OA
ATOM     14  N   ALA F   3       0.202  33.053 -20.098  1.00 30.97 LIG-0.35  N 
ATOM     15 H    ALA F   3       0.315  33.539 -19.397  1.00 30.97 LIG 0.16  HD
BRANCH 14 16
ATOM     16  CA  ALA F   3      -0.969  33.417 -20.892  1.00 31.72 LIG 0.16  C 
ATOM     17  CB  ALA F   3      -1.746  34.471 -20.066  0.00 20.00 LIG 0.04  C 
BRANCH 16 18
ATOM     18  C   ALA F   3      -0.642  34.304 -22.091  1.00 32.37 LIG 0.22  C 
ATOM     19 O    ALA F   3       0.495  34.312 -22.585  1.00 33.75 LIG-0.29  OA
ENDBRANCH 16 18
ENDBRANCH 14 16
ENDBRANCH 1 12
BRANCH 1 20
ATOM     20  CB  HIS F   2       3.077  30.660 -20.065  1.00 30.20 LIG 0.10  C 
BRANCH 20 21
ATOM     21  CG  HIS F   2       3.878  31.026 -21.287  1.00 29.66 LIG 0.06  A 
ATOM     22 ND1  HIS F   2       5.244  30.847 -21.379  1.00 29.25 LIG-0.24  NA
ATOM     23  CE1 HIS F   2       5.671  31.285 -22.553  1.00 27.69 LIG 0.23  A 
ATOM     24 NE2  HIS F   2       4.632  31.760 -23.224  1.00 31.40 LIG-0.25  NA
ATOM     25  CD2 HIS F   2       3.501  31.623 -22.447  1.00 30.69 LIG 0.14  A 
ENDBRANCH 20 21
ENDBRANCH 1 20
TORSDOF 8
ENDMDL
MODEL 42
USER: ADFR SOLUTION from run 69
USER: SCORE 8.104303 LL:  -1.243 LR:  -6.938 RR:   0.000 FEB:  -4.552
USER: RMSD 5.370687
USER: SEED 68
USER: STATUS no improvement in best in 10 clusters for 5 generations
USER: GENES 10
USER: genes 0 Translation |==|  0.42407 0.42069 0.54324
USER: genes 1 Rotation |==|  0.95885 0.56591 0.66311 0.59223
USER: genes 2 Torsion [C]-CA--N-[C] |==|  0.78744
USER: genes 3 Torsion [N]-C--CA-[N] |==|  0.08029
USER: genes 4 Torsion [C]-CA--N-[H3] |==|  0.28762
USER: genes 5 Torsion [N]-CA--C-[N] |==|  0.47167
USER: genes 6 Torsion [C]-N--CA-[CB] |==|  0.23791
USER: genes 7 Torsion [N]-CA--C-[O] |==|  0.97760
USER: genes 8 Torsion [N]-CA--CB-[CG] |==|  0.88176
USER: genes 9 Torsion [CA]-CB--CG-[ND1] |==|  0.42027
ROOT
ATOM      1  CA  HIS F   2      -2.682  29.610 -18.418  1.00 30.59 LIG 0.18  C 
ENDROOT
BRANCH 1 2
ATOM      2  N   HIS F   2      -3.344  29.725 -17.114  1.00 30.70 LIG-0.35  N 
ATOM      3  C   ALA F   1      -4.567  30.230 -16.968  1.00 31.15 LIG 0.25  C 
ATOM      4 O    ALA F   1      -5.248  30.653 -17.907  1.00 30.37 LIG-0.27  OA
ATOM      5 H    HIS F   2      -2.869  29.437 -16.457  1.00 30.70 LIG 0.16  HD
BRANCH 3 6
ATOM      6  CA  ALA F   1      -5.109  30.265 -15.533  1.00 31.15 LIG 0.27  C 
ATOM      7  CB  ALA F   1      -6.245  30.795 -15.388  0.00 20.00 LIG 0.05  C 
BRANCH 6 8
ATOM      8  N   ALA F   1      -4.000  30.392 -14.528  1.00 31.97 LIG-0.07  N 
ATOM      9 H3   ALA F   1      -3.968  31.227 -14.224  1.00 31.97 LIG 0.28  HD
ATOM     10 H1   ALA F   1      -4.149  29.835 -13.849  1.00 31.97 LIG 0.28  HD
ATOM     11 H2   ALA F   1      -3.225  30.187 -14.913  1.00 31.97 LIG 0.28  HD
ENDBRANCH 6 8
ENDBRANCH 3 6
ENDBRANCH 1 2
BRANCH 1 12
ATOM     12  C   HIS F   2      -3.247  28.429 -19.217  1.00 31.15 LIG 0.24  C 
ATOM     13 O    HIS F   2      -4.009  27.605 -18.678  1.00 30.80 LIG-0.27  OA
ATOM     14  N   ALA F   3      -2.872  28.354 -20.500  1.00 30.97 LIG-0.35  N 
ATOM     15 H    ALA F   3      -2.349  28.924 -20.876  1.00 30.97 LIG 0.16  HD
BRANCH 14 16
ATOM     16  CA  ALA F   3      -3.322  27.283 -21.386  1.00 31.72 LIG 0.16  C 
ATOM     17  CB  ALA F   3      -4.689  27.735 -21.957  0.00 20.00 LIG 0.04  C 
BRANCH 16 18
ATOM     18  C   ALA F   3      -2.562  27.225 -22.709  1.00 32.37 LIG 0.22  C 
ATOM     19 O    ALA F   3      -1.762  28.118 -23.022  1.00 33.75 LIG-0.29  OA
ENDBRANCH 16 18
ENDBRANCH 14 16
ENDBRANCH 1 12
BRANCH 1 20
ATOM     20  CB  HIS F   2      -1.164  29.437 -18.238  1.00 30.20 LIG 0.10  C 
BRANCH 20 21
ATOM     21  CG  HIS F   2      -0.552  30.328 -17.191  1.00 29.66 LIG 0.06  A 
ATOM     22 ND1  HIS F   2       0.577  29.987 -16.472  1.00 29.25 LIG-0.24  NA
ATOM     23  CE1 HIS F   2       0.860  30.949 -15.607  1.00 27.69 LIG 0.23  A 
ATOM     24 NE2  HIS F   2      -0.055  31.900 -15.726  1.00 31.40 LIG-0.25  NA
ATOM     25  CD2 HIS F   2      -0.959  31.527 -16.699  1.00 30.69 LIG 0.14  A 
ENDBRANCH 20 21
ENDBRANCH 1 20
TORSDOF 8
ENDMDL
MODEL 43
USER: ADFR SOLUTION from run 114
USER: SCORE 7.991483 LL:  -1.113 LR:  -6.936 RR:   0.000 FEB:  -4.550
USER: RMSD 5.978122
USER: SEED 113
USER: STATUS no improvement in best in 15 clusters for 5 generations
USER: GENES 10
USER: genes 0 Translation |==|  0.48977 0.51678 0.54973
USER: genes 1 Rotation |==|  0.53027 0.10153 0.27531 0.69956
USER: genes 2 Torsion [C]-CA--N-[C] |==|  0.84786
USER: genes 3 Torsion [N]-C--CA-[N] |==|  0.01924
USER: genes 4 Torsion [C]-CA--N-[H3] |==|  0.42537
USER: genes 5 Torsion [N]-CA--C-[N] |==|  0.35006
USER: genes 6 Torsion [C]-N--CA-[CB] |==|  0.26047
USER: genes 7 Torsion [N]-CA--C-[O] |==|  0.61842
USER: genes 8 Torsion [N]-CA--CB-[CG] |==|  0.81320
USER: genes 9 Torsion [CA]-CB--CG-[ND1] |==|  0.42678
ROOT
ATOM      1  CA  HIS F   2      -1.548  30.763 -18.316  1.00 30.59 LIG 0.18  C 
ENDROOT
BRANCH 1 2
ATOM      2  N   HIS F   2      -0.664  29.931 -17.494  1.00 30.70 LIG-0.35  N 
ATOM      3  C   ALA F   1       0.558  29.572 -17.884  1.00 31.15 LIG 0.25  C 
ATOM      4 O    ALA F   1       1.051  29.897 -18.969  1.00 30.37 LIG-0.27  OA
ATOM      5 H    HIS F   2      -1.008  29.697 -16.740  1.00 30.70 LIG 0.16  HD
BRANCH 3 6
ATOM      6  CA  ALA F   1       1.349  28.708 -16.894  1.00 31.15 LIG 0.27  C 
ATOM      7  CB  ALA F   1       2.246  27.977 -17.398  0.00 20.00 LIG 0.05  C 
BRANCH 6 8
ATOM      8  N   ALA F   1       0.503  28.294 -15.724  1.00 31.97 LIG-0.07  N 
ATOM      9 H3   ALA F   1       0.810  27.528 -15.391  1.00 31.97 LIG 0.28  HD
ATOM     10 H1   ALA F   1       0.535  28.924 -15.097  1.00 31.97 LIG 0.28  HD
ATOM     11 H2   ALA F   1      -0.339  28.184 -15.990  1.00 31.97 LIG 0.28  HD
ENDBRANCH 6 8
ENDBRANCH 3 6
ENDBRANCH 1 2
BRANCH 1 12
ATOM     12  C   HIS F   2      -0.856  32.074 -18.710  1.00 31.15 LIG 0.24  C 
ATOM     13 O    HIS F   2      -0.362  32.817 -17.842  1.00 30.80 LIG-0.27  OA
ATOM     14  N   ALA F   3      -0.823  32.351 -20.019  1.00 30.97 LIG-0.35  N 
ATOM     15 H    ALA F   3      -1.159  31.837 -20.622  1.00 30.97 LIG 0.16  HD
BRANCH 14 16
ATOM     16  CA  ALA F   3      -0.204  33.564 -20.549  1.00 31.72 LIG 0.16  C 
ATOM     17  CB  ALA F   3       1.252  33.187 -20.914  0.00 20.00 LIG 0.04  C 
BRANCH 16 18
ATOM     18  C   ALA F   3      -0.676  33.927 -21.954  1.00 32.37 LIG 0.22  C 
ATOM     19 O    ALA F   3       0.128  34.312 -22.815  1.00 33.75 LIG-0.29  OA
ENDBRANCH 16 18
ENDBRANCH 14 16
ENDBRANCH 1 12
BRANCH 1 20
ATOM     20  CB  HIS F   2      -2.853  31.071 -17.561  1.00 30.20 LIG 0.10  C 
BRANCH 20 21
ATOM     21  CG  HIS F   2      -3.738  29.876 -17.327  1.00 29.66 LIG 0.06  A 
ATOM     22 ND1  HIS F   2      -4.633  29.790 -16.279  1.00 29.25 LIG-0.24  NA
ATOM     23  CE1 HIS F   2      -5.246  28.617 -16.313  1.00 27.69 LIG 0.23  A 
ATOM     24 NE2  HIS F   2      -4.769  27.927 -17.338  1.00 31.40 LIG-0.25  NA
ATOM     25  CD2 HIS F   2      -3.812  28.687 -17.979  1.00 30.69 LIG 0.14  A 
ENDBRANCH 20 21
ENDBRANCH 1 20
TORSDOF 8
ENDMDL
MODEL 44
USER: ADFR SOLUTION from run 8
USER: SCORE 8.122648 LL:  -1.350 LR:  -6.929 RR:   0.000 FEB:  -4.543
USER: RMSD 6.054235
USER: SEED 203530
USER: STATUS no improvement in best in 11 clusters for 5 generations
USER: GENES 10
USER: genes 0 Translation |==|  0.68623 0.53260 0.44879
USER: genes 1 Rotation |==|  0.12369 0.65791 0.24964 0.64414
USER: genes 2 Torsion [C]-CA--N-[C] |==|  0.64581
USER: genes 3 Torsion [N]-C--CA-[N] |==|  0.38550
USER: genes 4 Torsion [C]-CA--N-[H3] |==|  0.59570
USER: genes 5 Torsion [N]-CA--C-[N] |==|  0.37221
USER: genes 6 Torsion [C]-N--CA-[CB] |==|  0.85312
USER: genes 7 Torsion [N]-CA--C-[O] |==|  0.18325
USER: genes 8 Torsion [N]-CA--CB-[CG] |==|  0.84870
USER: genes 9 Torsion [CA]-CB--CG-[ND1] |==|  0.16509
ROOT
ATOM      1  CA  HIS F   2       1.840  30.953 -19.906  1.00 30.59 LIG 0.18  C 
ENDROOT
BRANCH 1 2
ATOM      2  N   HIS F   2       0.544  30.355 -19.570  1.00 30.70 LIG-0.35  N 
ATOM      3  C   ALA F   1      -0.111  30.635 -18.445  1.00 31.15 LIG 0.25  C 
ATOM      4 O    ALA F   1       0.314  31.410 -17.583  1.00 30.37 LIG-0.27  OA
ATOM      5 H    HIS F   2       0.248  29.809 -20.166  1.00 30.70 LIG 0.16  HD
BRANCH 3 6
ATOM      6  CA  ALA F   1      -1.459  29.926 -18.262  1.00 31.15 LIG 0.27  C 
ATOM      7  CB  ALA F   1      -2.402  30.346 -18.986  0.00 20.00 LIG 0.05  C 
BRANCH 6 8
ATOM      8  N   ALA F   1      -1.646  29.452 -16.849  1.00 31.97 LIG-0.07  N 
ATOM      9 H3   ALA F   1      -2.099  28.687 -16.850  1.00 31.97 LIG 0.28  HD
ATOM     10 H1   ALA F   1      -0.850  29.325 -16.471  1.00 31.97 LIG 0.28  HD
ATOM     11 H2   ALA F   1      -2.097  30.064 -16.388  1.00 31.97 LIG 0.28  HD
ENDBRANCH 6 8
ENDBRANCH 3 6
ENDBRANCH 1 2
BRANCH 1 12
ATOM     12  C   HIS F   2       1.806  31.587 -21.302  1.00 31.15 LIG 0.24  C 
ATOM     13 O    HIS F   2       1.309  30.975 -22.266  1.00 30.80 LIG-0.27  OA
ATOM     14  N   ALA F   3       2.334  32.813 -21.404  1.00 30.97 LIG-0.35  N 
ATOM     15 H    ALA F   3       2.675  33.241 -20.740  1.00 30.97 LIG 0.16  HD
BRANCH 14 16
ATOM     16  CA  ALA F   3       2.381  33.543 -22.669  1.00 31.72 LIG 0.16  C 
ATOM     17  CB  ALA F   3       3.053  32.597 -23.694  0.00 20.00 LIG 0.04  C 
BRANCH 16 18
ATOM     18  C   ALA F   3       1.025  33.656 -23.360  1.00 32.37 LIG 0.22  C 
ATOM     19 O    ALA F   3       0.105  34.312 -22.850  1.00 33.75 LIG-0.29  OA
ENDBRANCH 16 18
ENDBRANCH 14 16
ENDBRANCH 1 12
BRANCH 1 20
ATOM     20  CB  HIS F   2       2.954  29.895 -19.842  1.00 30.20 LIG 0.10  C 
BRANCH 20 21
ATOM     21  CG  HIS F   2       3.040  29.153 -18.535  1.00 29.66 LIG 0.06  A 
ATOM     22 ND1  HIS F   2       2.000  28.406 -18.018  1.00 29.25 LIG-0.24  NA
ATOM     23  CE1 HIS F   2       2.356  27.897 -16.849  1.00 27.69 LIG 0.23  A 
ATOM     24 NE2  HIS F   2       3.588  28.300 -16.577  1.00 31.40 LIG-0.25  NA
ATOM     25  CD2 HIS F   2       4.032  29.100 -17.609  1.00 30.69 LIG 0.14  A 
ENDBRANCH 20 21
ENDBRANCH 1 20
TORSDOF 8
ENDMDL
MODEL 45
USER: ADFR SOLUTION from run 83
USER: SCORE 7.945632 LL:  -1.293 LR:  -6.931 RR:   0.000 FEB:  -4.545
USER: RMSD 6.802939
USER: SEED 82
USER: STATUS no improvement in best in 15 clusters for 5 generations
USER: GENES 10
USER: genes 0 Translation |==|  0.65765 0.63528 0.41426
USER: genes 1 Rotation |==|  0.49744 0.44768 0.99725 0.49982
USER: genes 2 Torsion [C]-CA--N-[C] |==|  0.62291
USER: genes 3 Torsion [N]-C--CA-[N] |==|  0.37800
USER: genes 4 Torsion [C]-CA--N-[H3] |==|  0.38368
USER: genes 5 Torsion [N]-CA--C-[N] |==|  0.31183
USER: genes 6 Torsion [C]-N--CA-[CB] |==|  0.21226
USER: genes 7 Torsion [N]-CA--C-[O] |==|  0.73559
USER: genes 8 Torsion [N]-CA--CB-[CG] |==|  0.50541
USER: genes 9 Torsion [CA]-CB--CG-[ND1] |==|  0.80372
ROOT
ATOM      1  CA  HIS F   2       1.347  32.185 -20.449  1.00 30.59 LIG 0.18  C 
ENDROOT
BRANCH 1 2
ATOM      2  N   HIS F   2       1.101  32.114 -21.893  1.00 30.70 LIG-0.35  N 
ATOM      3  C   ALA F   1       0.719  33.167 -22.613  1.00 31.15 LIG 0.25  C 
ATOM      4 O    ALA F   1       0.530  34.289 -22.134  1.00 30.37 LIG-0.27  OA
ATOM      5 H    HIS F   2       1.226  31.331 -22.229  1.00 30.70 LIG 0.16  HD
BRANCH 3 6
ATOM      6  CA  ALA F   1       0.517  32.914 -24.113  1.00 31.15 LIG 0.27  C 
ATOM      7  CB  ALA F   1       1.571  32.810 -24.799  0.00 20.00 LIG 0.05  C 
BRANCH 6 8
ATOM      8  N   ALA F   1      -0.740  33.562 -24.617  1.00 31.97 LIG-0.07  N 
ATOM      9 H3   ALA F   1      -0.584  33.939 -25.408  1.00 31.97 LIG 0.28  HD
ATOM     10 H1   ALA F   1      -1.378  32.947 -24.703  1.00 31.97 LIG 0.28  HD
ATOM     11 H2   ALA F   1      -1.006  34.185 -24.040  1.00 31.97 LIG 0.28  HD
ENDBRANCH 6 8
ENDBRANCH 3 6
ENDBRANCH 1 2
BRANCH 1 12
ATOM     12  C   HIS F   2       2.636  31.442 -20.076  1.00 31.15 LIG 0.24  C 
ATOM     13 O    HIS F   2       2.708  30.203 -20.183  1.00 30.80 LIG-0.27  OA
ATOM     14  N   ALA F   3       3.648  32.202 -19.641  1.00 30.97 LIG-0.35  N 
ATOM     15 H    ALA F   3       3.604  33.058 -19.570  1.00 30.97 LIG 0.16  HD
BRANCH 14 16
ATOM     16  CA  ALA F   3       4.936  31.639 -19.242  1.00 31.72 LIG 0.16  C 
ATOM     17  CB  ALA F   3       5.683  31.287 -20.552  0.00 20.00 LIG 0.04  C 
BRANCH 16 18
ATOM     18  C   ALA F   3       5.924  32.680 -18.722  1.00 32.37 LIG 0.22  C 
ATOM     19 O    ALA F   3       6.767  33.188 -19.474  1.00 33.75 LIG-0.29  OA
ENDBRANCH 16 18
ENDBRANCH 14 16
ENDBRANCH 1 12
BRANCH 1 20
ATOM     20  CB  HIS F   2       0.161  31.592 -19.671  1.00 30.20 LIG 0.10  C 
BRANCH 20 21
ATOM     21  CG  HIS F   2       0.298  31.661 -18.173  1.00 29.66 LIG 0.06  A 
ATOM     22 ND1  HIS F   2       1.194  30.892 -17.458  1.00 29.25 LIG-0.24  NA
ATOM     23  CE1 HIS F   2       1.066  31.147 -16.165  1.00 27.69 LIG 0.23  A 
ATOM     24 NE2  HIS F   2       0.104  32.044 -16.010  1.00 31.40 LIG-0.25  NA
ATOM     25  CD2 HIS F   2      -0.403  32.370 -17.251  1.00 30.69 LIG 0.14  A 
ENDBRANCH 20 21
ENDBRANCH 1 20
TORSDOF 8
ENDMDL
MODEL 46
USER: ADFR SOLUTION from run 140
USER: SCORE 7.965928 LL:  -1.303 LR:  -6.907 RR:   0.000 FEB:  -4.521
USER: RMSD 6.088434
USER: SEED 139
USER: STATUS no improvement in best in 22 clusters for 5 generations
USER: GENES 10
USER: genes 0 Translation |==|  0.46394 0.37879 0.57474
USER: genes 1 Rotation |==|  0.48639 0.98290 0.43097 0.60890
USER: genes 2 Torsion [C]-CA--N-[C] |==|  0.16569
USER: genes 3 Torsion [N]-C--CA-[N] |==|  0.13620
USER: genes 4 Torsion [C]-CA--N-[H3] |==|  0.95680
USER: genes 5 Torsion [N]-CA--C-[N] |==|  0.15000
USER: genes 6 Torsion [C]-N--CA-[CB] |==|  0.43086
USER: genes 7 Torsion [N]-CA--C-[O] |==|  0.09006
USER: genes 8 Torsion [N]-CA--CB-[CG] |==|  0.80740
USER: genes 9 Torsion [CA]-CB--CG-[ND1] |==|  0.00184
ROOT
ATOM      1  CA  HIS F   2      -1.994  29.107 -17.922  1.00 30.59 LIG 0.18  C 
ENDROOT
BRANCH 1 2
ATOM      2  N   HIS F   2      -2.825  29.789 -16.923  1.00 30.70 LIG-0.35  N 
ATOM      3  C   ALA F   1      -3.129  31.083 -16.999  1.00 31.15 LIG 0.25  C 
ATOM      4 O    ALA F   1      -2.736  31.825 -17.905  1.00 30.37 LIG-0.27  OA
ATOM      5 H    HIS F   2      -3.095  29.276 -16.287  1.00 30.70 LIG 0.16  HD
BRANCH 3 6
ATOM      6  CA  ALA F   1      -4.017  31.628 -15.874  1.00 31.15 LIG 0.27  C 
ATOM      7  CB  ALA F   1      -4.581  32.733 -16.106  0.00 20.00 LIG 0.05  C 
BRANCH 6 8
ATOM      8  N   ALA F   1      -3.501  31.229 -14.521  1.00 31.97 LIG-0.07  N 
ATOM      9 H3   ALA F   1      -2.911  30.569 -14.611  1.00 31.97 LIG 0.28  HD
ATOM     10 H1   ALA F   1      -3.108  31.928 -14.135  1.00 31.97 LIG 0.28  HD
ATOM     11 H2   ALA F   1      -4.178  30.954 -14.014  1.00 31.97 LIG 0.28  HD
ENDBRANCH 6 8
ENDBRANCH 3 6
ENDBRANCH 1 2
BRANCH 1 12
ATOM     12  C   HIS F   2      -0.604  29.750 -18.009  1.00 31.15 LIG 0.24  C 
ATOM     13 O    HIS F   2      -0.154  30.146 -19.100  1.00 30.80 LIG-0.27  OA
ATOM     14  N   ALA F   3       0.070  29.852 -16.857  1.00 30.97 LIG-0.35  N 
ATOM     15 H    ALA F   3      -0.239  29.584 -16.100  1.00 30.97 LIG 0.16  HD
BRANCH 14 16
ATOM     16  CA  ALA F   3       1.407  30.435 -16.780  1.00 31.72 LIG 0.16  C 
ATOM     17  CB  ALA F   3       1.574  30.953 -15.330  0.00 20.00 LIG 0.04  C 
BRANCH 16 18
ATOM     18  C   ALA F   3       2.526  29.397 -16.752  1.00 32.37 LIG 0.22  C 
ATOM     19 O    ALA F   3       2.409  28.320 -17.354  1.00 33.75 LIG-0.29  OA
ENDBRANCH 16 18
ENDBRANCH 14 16
ENDBRANCH 1 12
BRANCH 1 20
ATOM     20  CB  HIS F   2      -2.671  29.146 -19.302  1.00 30.20 LIG 0.10  C 
BRANCH 20 21
ATOM     21  CG  HIS F   2      -3.912  28.300 -19.415  1.00 29.66 LIG 0.06  A 
ATOM     22 ND1  HIS F   2      -4.420  27.557 -18.368  1.00 29.25 LIG-0.24  NA
ATOM     23  CE1 HIS F   2      -5.495  26.898 -18.771  1.00 27.69 LIG 0.23  A 
ATOM     24 NE2  HIS F   2      -5.696  27.172 -20.051  1.00 31.40 LIG-0.25  NA
ATOM     25  CD2 HIS F   2      -4.710  28.035 -20.481  1.00 30.69 LIG 0.14  A 
ENDBRANCH 20 21
ENDBRANCH 1 20
TORSDOF 8
ENDMDL
MODEL 47
USER: ADFR SOLUTION from run 82
USER: SCORE 7.801770 LL:  -1.277 LR:  -6.901 RR:   0.000 FEB:  -4.515
USER: RMSD 5.184244
USER: SEED 81
USER: STATUS no improvement in best in 19 clusters for 5 generations
USER: GENES 10
USER: genes 0 Translation |==|  0.57391 0.53468 0.47605
USER: genes 1 Rotation |==|  0.03196 0.57269 0.59355 0.63000
USER: genes 2 Torsion [C]-CA--N-[C] |==|  0.65898
USER: genes 3 Torsion [N]-C--CA-[N] |==|  0.74668
USER: genes 4 Torsion [C]-CA--N-[H3] |==|  0.81981
USER: genes 5 Torsion [N]-CA--C-[N] |==|  0.91384
USER: genes 6 Torsion [C]-N--CA-[CB] |==|  0.40279
USER: genes 7 Torsion [N]-CA--C-[O] |==|  0.78727
USER: genes 8 Torsion [N]-CA--CB-[CG] |==|  0.58197
USER: genes 9 Torsion [CA]-CB--CG-[ND1] |==|  0.34488
ROOT
ATOM      1  CA  HIS F   2      -0.097  30.978 -19.476  1.00 30.59 LIG 0.18  C 
ENDROOT
BRANCH 1 2
ATOM      2  N   HIS F   2       0.381  29.873 -18.639  1.00 30.70 LIG-0.35  N 
ATOM      3  C   ALA F   1       1.107  30.063 -17.538  1.00 31.15 LIG 0.25  C 
ATOM      4 O    ALA F   1       1.450  31.178 -17.131  1.00 30.37 LIG-0.27  OA
ATOM      5 H    HIS F   2       0.149  29.095 -18.924  1.00 30.70 LIG 0.16  HD
BRANCH 3 6
ATOM      6  CA  ALA F   1       1.513  28.795 -16.778  1.00 31.15 LIG 0.27  C 
ATOM      7  CB  ALA F   1       2.162  27.941 -17.442  0.00 20.00 LIG 0.05  C 
BRANCH 6 8
ATOM      8  N   ALA F   1       0.503  28.434 -15.726  1.00 31.97 LIG-0.07  N 
ATOM      9 H3   ALA F   1       0.483  29.070 -15.104  1.00 31.97 LIG 0.28  HD
ATOM     10 H1   ALA F   1      -0.301  28.360 -16.100  1.00 31.97 LIG 0.28  HD
ATOM     11 H2   ALA F   1       0.728  27.660 -15.352  1.00 31.97 LIG 0.28  HD
ENDBRANCH 6 8
ENDBRANCH 3 6
ENDBRANCH 1 2
BRANCH 1 12
ATOM     12  C   HIS F   2      -1.625  30.942 -19.610  1.00 31.15 LIG 0.24  C 
ATOM     13 O    HIS F   2      -2.275  31.995 -19.750  1.00 30.80 LIG-0.27  OA
ATOM     14  N   ALA F   3      -2.190  29.730 -19.569  1.00 30.97 LIG-0.35  N 
ATOM     15 H    ALA F   3      -1.744  29.000 -19.477  1.00 30.97 LIG 0.16  HD
BRANCH 14 16
ATOM     16  CA  ALA F   3      -3.634  29.535 -19.677  1.00 31.72 LIG 0.16  C 
ATOM     17  CB  ALA F   3      -3.838  28.211 -20.454  0.00 20.00 LIG 0.04  C 
BRANCH 16 18
ATOM     18  C   ALA F   3      -4.292  29.102 -18.369  1.00 32.37 LIG 0.22  C 
ATOM     19 O    ALA F   3      -4.193  27.936 -17.963  1.00 33.75 LIG-0.29  OA
ENDBRANCH 16 18
ENDBRANCH 14 16
ENDBRANCH 1 12
BRANCH 1 20
ATOM     20  CB  HIS F   2       0.549  30.915 -20.871  1.00 30.20 LIG 0.10  C 
BRANCH 20 21
ATOM     21  CG  HIS F   2       0.718  32.252 -21.543  1.00 29.66 LIG 0.06  A 
ATOM     22 ND1  HIS F   2       1.934  32.721 -21.999  1.00 29.25 LIG-0.24  NA
ATOM     23  CE1 HIS F   2       1.778  33.931 -22.515  1.00 27.69 LIG 0.23  A 
ATOM     24 NE2  HIS F   2       0.504  34.274 -22.396  1.00 31.40 LIG-0.25  NA
ATOM     25  CD2 HIS F   2      -0.176  33.246 -21.776  1.00 30.69 LIG 0.14  A 
ENDBRANCH 20 21
ENDBRANCH 1 20
TORSDOF 8
ENDMDL
MODEL 48
USER: ADFR SOLUTION from run 33
USER: SCORE 8.116746 LL:  -1.406 LR:  -6.895 RR:   0.000 FEB:  -4.508
USER: RMSD 5.733962
USER: SEED 32
USER: STATUS no improvement in best in 30 clusters for 5 generations
USER: GENES 10
USER: genes 0 Translation |==|  0.43771 0.56611 0.68745
USER: genes 1 Rotation |==|  0.43212 0.36553 0.02715 0.56101
USER: genes 2 Torsion [C]-CA--N-[C] |==|  0.70170
USER: genes 3 Torsion [N]-C--CA-[N] |==|  0.69213
USER: genes 4 Torsion [C]-CA--N-[H3] |==|  0.08577
USER: genes 5 Torsion [N]-CA--C-[N] |==|  0.95778
USER: genes 6 Torsion [C]-N--CA-[CB] |==|  0.56403
USER: genes 7 Torsion [N]-CA--C-[O] |==|  0.34160
USER: genes 8 Torsion [N]-CA--CB-[CG] |==|  0.91046
USER: genes 9 Torsion [CA]-CB--CG-[ND1] |==|  0.34238
ROOT
ATOM      1  CA  HIS F   2      -2.447  31.355 -16.147  1.00 30.59 LIG 0.18  C 
ENDROOT
BRANCH 1 2
ATOM      2  N   HIS F   2      -2.844  30.253 -17.028  1.00 30.70 LIG-0.35  N 
ATOM      3  C   ALA F   1      -3.157  30.431 -18.311  1.00 31.15 LIG 0.25  C 
ATOM      4 O    ALA F   1      -3.149  31.533 -18.868  1.00 30.37 LIG-0.27  OA
ATOM      5 H    HIS F   2      -2.857  29.485 -16.641  1.00 30.70 LIG 0.16  HD
BRANCH 3 6
ATOM      6  CA  ALA F   1      -3.540  29.165 -19.087  1.00 31.15 LIG 0.27  C 
ATOM      7  CB  ALA F   1      -4.213  28.311 -18.447  0.00 20.00 LIG 0.05  C 
BRANCH 6 8
ATOM      8  N   ALA F   1      -2.497  28.804 -20.106  1.00 31.97 LIG-0.07  N 
ATOM      9 H3   ALA F   1      -1.697  29.062 -19.815  1.00 31.97 LIG 0.28  HD
ATOM     10 H1   ALA F   1      -2.497  27.924 -20.232  1.00 31.97 LIG 0.28  HD
ATOM     11 H2   ALA F   1      -2.679  29.213 -20.874  1.00 31.97 LIG 0.28  HD
ENDBRANCH 6 8
ENDBRANCH 3 6
ENDBRANCH 1 2
BRANCH 1 12
ATOM     12  C   HIS F   2      -0.945  31.296 -15.839  1.00 31.15 LIG 0.24  C 
ATOM     13 O    HIS F   2      -0.358  32.278 -15.349  1.00 30.80 LIG-0.27  OA
ATOM     14  N   ALA F   3      -0.331  30.142 -16.126  1.00 30.97 LIG-0.35  N 
ATOM     15 H    ALA F   3      -0.734  29.459 -16.461  1.00 30.97 LIG 0.16  HD
BRANCH 14 16
ATOM     16  CA  ALA F   3       1.097  29.934 -15.896  1.00 31.72 LIG 0.16  C 
ATOM     17  CB  ALA F   3       1.531  28.794 -16.848  0.00 20.00 LIG 0.04  C 
BRANCH 16 18
ATOM     18  C   ALA F   3       1.977  31.034 -16.484  1.00 32.37 LIG 0.22  C 
ATOM     19 O    ALA F   3       2.757  31.676 -15.767  1.00 33.75 LIG-0.29  OA
ENDBRANCH 16 18
ENDBRANCH 14 16
ENDBRANCH 1 12
BRANCH 1 20
ATOM     20  CB  HIS F   2      -3.248  31.312 -14.835  1.00 30.20 LIG 0.10  C 
BRANCH 20 21
ATOM     21  CG  HIS F   2      -4.649  30.778 -14.974  1.00 29.66 LIG 0.06  A 
ATOM     22 ND1  HIS F   2      -5.123  29.698 -14.255  1.00 29.25 LIG-0.24  NA
ATOM     23  CE1 HIS F   2      -6.373  29.443 -14.609  1.00 27.69 LIG 0.23  A 
ATOM     24 NE2  HIS F   2      -6.726  30.308 -15.548  1.00 31.40 LIG-0.25  NA
ATOM     25  CD2 HIS F   2      -5.658  31.144 -15.805  1.00 30.69 LIG 0.14  A 
ENDBRANCH 20 21
ENDBRANCH 1 20
TORSDOF 8
ENDMDL
MODEL 49
USER: ADFR SOLUTION from run 144
USER: SCORE 7.986759 LL:  -1.225 LR:  -6.886 RR:   0.000 FEB:  -4.500
USER: RMSD 5.890464
USER: SEED 143
USER: STATUS no improvement in best in 13 clusters for 5 generations
USER: GENES 10
USER: genes 0 Translation |==|  0.63995 0.61411 0.40514
USER: genes 1 Rotation |==|  0.69535 0.73858 0.51972 0.89310
USER: genes 2 Torsion [C]-CA--N-[C] |==|  0.71152
USER: genes 3 Torsion [N]-C--CA-[N] |==|  0.21843
USER: genes 4 Torsion [C]-CA--N-[H3] |==|  0.55768
USER: genes 5 Torsion [N]-CA--C-[N] |==|  0.44839
USER: genes 6 Torsion [C]-N--CA-[CB] |==|  0.21152
USER: genes 7 Torsion [N]-CA--C-[O] |==|  0.09327
USER: genes 8 Torsion [N]-CA--CB-[CG] |==|  0.82511
USER: genes 9 Torsion [CA]-CB--CG-[ND1] |==|  0.60291
ROOT
ATOM      1  CA  HIS F   2       1.042  31.931 -20.593  1.00 30.59 LIG 0.18  C 
ENDROOT
BRANCH 1 2
ATOM      2  N   HIS F   2       0.209  33.105 -20.873  1.00 30.70 LIG-0.35  N 
ATOM      3  C   ALA F   1      -0.962  33.026 -21.504  1.00 31.15 LIG 0.25  C 
ATOM      4 O    ALA F   1      -1.445  31.966 -21.915  1.00 30.37 LIG-0.27  OA
ATOM      5 H    HIS F   2       0.546  33.846 -20.594  1.00 30.70 LIG 0.16  HD
BRANCH 3 6
ATOM      6  CA  ALA F   1      -1.705  34.353 -21.704  1.00 31.15 LIG 0.27  C 
ATOM      7  CB  ALA F   1      -2.931  34.345 -21.407  0.00 20.00 LIG 0.05  C 
BRANCH 6 8
ATOM      8  N   ALA F   1      -1.134  35.138 -22.849  1.00 31.97 LIG-0.07  N 
ATOM      9 H3   ALA F   1      -1.358  35.995 -22.763  1.00 31.97 LIG 0.28  HD
ATOM     10 H1   ALA F   1      -0.247  35.062 -22.848  1.00 31.97 LIG 0.28  HD
ATOM     11 H2   ALA F   1      -1.457  34.823 -23.616  1.00 31.97 LIG 0.28  HD
ENDBRANCH 6 8
ENDBRANCH 3 6
ENDBRANCH 1 2
BRANCH 1 12
ATOM     12  C   HIS F   2       0.941  31.528 -19.116  1.00 31.15 LIG 0.24  C 
ATOM     13 O    HIS F   2       0.517  32.332 -18.266  1.00 30.80 LIG-0.27  OA
ATOM     14  N   ALA F   3       1.329  30.281 -18.820  1.00 30.97 LIG-0.35  N 
ATOM     15 H    ALA F   3       1.617  29.721 -19.406  1.00 30.97 LIG 0.16  HD
BRANCH 14 16
ATOM     16  CA  ALA F   3       1.296  29.754 -17.458  1.00 31.72 LIG 0.16  C 
ATOM     17  CB  ALA F   3      -0.188  29.437 -17.148  0.00 20.00 LIG 0.04  C 
BRANCH 16 18
ATOM     18  C   ALA F   3       1.834  28.330 -17.341  1.00 32.37 LIG 0.22  C 
ATOM     19 O    ALA F   3       2.756  27.937 -18.070  1.00 33.75 LIG-0.29  OA
ENDBRANCH 16 18
ENDBRANCH 14 16
ENDBRANCH 1 12
BRANCH 1 20
ATOM     20  CB  HIS F   2       2.510  32.214 -20.955  1.00 30.20 LIG 0.10  C 
BRANCH 20 21
ATOM     21  CG  HIS F   2       2.753  32.492 -22.414  1.00 29.66 LIG 0.06  A 
ATOM     22 ND1  HIS F   2       3.878  32.062 -23.090  1.00 29.25 LIG-0.24  NA
ATOM     23  CE1 HIS F   2       3.828  32.480 -24.346  1.00 27.69 LIG 0.23  A 
ATOM     24 NE2  HIS F   2       2.717  33.183 -24.508  1.00 31.40 LIG-0.25  NA
ATOM     25  CD2 HIS F   2       2.035  33.219 -23.309  1.00 30.69 LIG 0.14  A 
ENDBRANCH 20 21
ENDBRANCH 1 20
TORSDOF 8
ENDMDL
MODEL 50
USER: ADFR SOLUTION from run 30
USER: SCORE 8.001173 LL:  -1.302 LR:  -6.879 RR:   0.000 FEB:  -4.492
USER: RMSD 2.345343
USER: SEED 29
USER: STATUS no improvement in best in 13 clusters for 5 generations
USER: GENES 10
USER: genes 0 Translation |==|  0.57425 0.50818 0.64519
USER: genes 1 Rotation |==|  0.63934 0.47419 0.41524 0.97195
USER: genes 2 Torsion [C]-CA--N-[C] |==|  0.64379
USER: genes 3 Torsion [N]-C--CA-[N] |==|  0.89191
USER: genes 4 Torsion [C]-CA--N-[H3] |==|  0.17246
USER: genes 5 Torsion [N]-CA--C-[N] |==|  0.35001
USER: genes 6 Torsion [C]-N--CA-[CB] |==|  0.23339
USER: genes 7 Torsion [N]-CA--C-[O] |==|  0.36597
USER: genes 8 Torsion [N]-CA--CB-[CG] |==|  0.83750
USER: genes 9 Torsion [CA]-CB--CG-[ND1] |==|  0.26361
ROOT
ATOM      1  CA  HIS F   2      -0.091  30.660 -16.812  1.00 30.59 LIG 0.18  C 
ENDROOT
BRANCH 1 2
ATOM      2  N   HIS F   2       0.529  31.570 -17.781  1.00 30.70 LIG-0.35  N 
ATOM      3  C   ALA F   1       0.681  31.260 -19.067  1.00 31.15 LIG 0.25  C 
ATOM      4 O    ALA F   1       0.327  30.183 -19.556  1.00 30.37 LIG-0.27  OA
ATOM      5 H    HIS F   2       0.783  32.319 -17.442  1.00 30.70 LIG 0.16  HD
BRANCH 3 6
ATOM      6  CA  ALA F   1       1.341  32.335 -19.941  1.00 31.15 LIG 0.27  C 
ATOM      7  CB  ALA F   1       2.511  32.077 -20.338  0.00 20.00 LIG 0.05  C 
BRANCH 6 8
ATOM      8  N   ALA F   1       0.878  33.713 -19.564  1.00 31.97 LIG-0.07  N 
ATOM      9 H3   ALA F   1       1.113  33.886 -18.724  1.00 31.97 LIG 0.28  HD
ATOM     10 H1   ALA F   1       1.253  34.310 -20.107  1.00 31.97 LIG 0.28  HD
ATOM     11 H2   ALA F   1      -0.007  33.759 -19.640  1.00 31.97 LIG 0.28  HD
ENDBRANCH 6 8
ENDBRANCH 3 6
ENDBRANCH 1 2
BRANCH 1 12
ATOM     12  C   HIS F   2      -1.210  31.367 -16.036  1.00 31.15 LIG 0.24  C 
ATOM     13 O    HIS F   2      -0.991  32.437 -15.439  1.00 30.80 LIG-0.27  OA
ATOM     14  N   ALA F   3      -2.405  30.764 -16.050  1.00 30.97 LIG-0.35  N 
ATOM     15 H    ALA F   3      -2.562  30.027 -16.465  1.00 30.97 LIG 0.16  HD
BRANCH 14 16
ATOM     16  CA  ALA F   3      -3.567  31.311 -15.352  1.00 31.72 LIG 0.16  C 
ATOM     17  CB  ALA F   3      -4.197  32.354 -16.307  0.00 20.00 LIG 0.04  C 
BRANCH 16 18
ATOM     18  C   ALA F   3      -4.752  30.352 -15.292  1.00 32.37 LIG 0.22  C 
ATOM     19 O    ALA F   3      -5.347  30.142 -14.226  1.00 33.75 LIG-0.29  OA
ENDBRANCH 16 18
ENDBRANCH 14 16
ENDBRANCH 1 12
BRANCH 1 20
ATOM     20  CB  HIS F   2       0.962  30.121 -15.830  1.00 30.20 LIG 0.10  C 
BRANCH 20 21
ATOM     21  CG  HIS F   2       2.102  29.380 -16.477  1.00 29.66 LIG 0.06  A 
ATOM     22 ND1  HIS F   2       3.304  29.976 -16.804  1.00 29.25 LIG-0.24  NA
ATOM     23  CE1 HIS F   2       4.096  29.089 -17.385  1.00 27.69 LIG 0.23  A 
ATOM     24 NE2  HIS F   2       3.447  27.937 -17.463  1.00 31.40 LIG-0.25  NA
ATOM     25  CD2 HIS F   2       2.190  28.098 -16.916  1.00 30.69 LIG 0.14  A 
ENDBRANCH 20 21
ENDBRANCH 1 20
TORSDOF 8
ENDMDL
MODEL 51
USER: ADFR SOLUTION from run 175
USER: SCORE 8.196028 LL:  -1.479 LR:  -6.856 RR:   0.000 FEB:  -4.469
USER: RMSD 7.607671
USER: SEED 174
USER: STATUS no improvement in best in 18 clusters for 5 generations
USER: GENES 10
USER: genes 0 Translation |==|  0.65736 0.52523 0.44817
USER: genes 1 Rotation |==|  0.25548 0.11522 0.34861 0.63870
USER: genes 2 Torsion [C]-CA--N-[C] |==|  0.60556
USER: genes 3 Torsion [N]-C--CA-[N] |==|  0.45513
USER: genes 4 Torsion [C]-CA--N-[H3] |==|  0.72941
USER: genes 5 Torsion [N]-CA--C-[N] |==|  0.40876
USER: genes 6 Torsion [C]-N--CA-[CB] |==|  0.50027
USER: genes 7 Torsion [N]-CA--C-[O] |==|  0.22637
USER: genes 8 Torsion [N]-CA--CB-[CG] |==|  0.51961
USER: genes 9 Torsion [CA]-CB--CG-[ND1] |==|  0.28714
ROOT
ATOM      1  CA  HIS F   2       1.342  30.865 -19.915  1.00 30.59 LIG 0.18  C 
ENDROOT
BRANCH 1 2
ATOM      2  N   HIS F   2       1.770  30.114 -18.730  1.00 30.70 LIG-0.35  N 
ATOM      3  C   ALA F   1       0.916  29.464 -17.941  1.00 31.15 LIG 0.25  C 
ATOM      4 O    ALA F   1      -0.305  29.442 -18.128  1.00 30.37 LIG-0.27  OA
ATOM      5 H    HIS F   2       2.619  30.133 -18.594  1.00 30.70 LIG 0.16  HD
BRANCH 3 6
ATOM      6  CA  ALA F   1       1.538  28.723 -16.751  1.00 31.15 LIG 0.27  C 
ATOM      7  CB  ALA F   1       2.538  28.001 -17.015  0.00 20.00 LIG 0.05  C 
BRANCH 6 8
ATOM      8  N   ALA F   1       0.503  28.361 -15.724  1.00 31.97 LIG-0.07  N 
ATOM      9 H3   ALA F   1       0.503  28.969 -15.075  1.00 31.97 LIG 0.28  HD
ATOM     10 H1   ALA F   1      -0.300  28.336 -16.108  1.00 31.97 LIG 0.28  HD
ATOM     11 H2   ALA F   1       0.691  27.562 -15.381  1.00 31.97 LIG 0.28  HD
ENDBRANCH 6 8
ENDBRANCH 3 6
ENDBRANCH 1 2
BRANCH 1 12
ATOM     12  C   HIS F   2       2.352  30.703 -21.059  1.00 31.15 LIG 0.24  C 
ATOM     13 O    HIS F   2       3.567  30.572 -20.820  1.00 30.80 LIG-0.27  OA
ATOM     14  N   ALA F   3       1.843  30.713 -22.297  1.00 30.97 LIG-0.35  N 
ATOM     15 H    ALA F   3       1.004  30.799 -22.466  1.00 30.97 LIG 0.16  HD
BRANCH 14 16
ATOM     16  CA  ALA F   3       2.679  30.576 -23.488  1.00 31.72 LIG 0.16  C 
ATOM     17  CB  ALA F   3       1.720  30.638 -24.703  0.00 20.00 LIG 0.04  C 
BRANCH 16 18
ATOM     18  C   ALA F   3       3.493  31.826 -23.811  1.00 32.37 LIG 0.22  C 
ATOM     19 O    ALA F   3       4.559  32.059 -23.225  1.00 33.75 LIG-0.29  OA
ENDBRANCH 16 18
ENDBRANCH 14 16
ENDBRANCH 1 12
BRANCH 1 20
ATOM     20  CB  HIS F   2       1.175  32.356 -19.577  1.00 30.20 LIG 0.10  C 
BRANCH 20 21
ATOM     21  CG  HIS F   2       0.579  33.186 -20.682  1.00 29.66 LIG 0.06  A 
ATOM     22 ND1  HIS F   2      -0.734  33.614 -20.684  1.00 29.25 LIG-0.24  NA
ATOM     23  CE1 HIS F   2      -0.977  34.295 -21.794  1.00 27.69 LIG 0.23  A 
ATOM     24 NE2  HIS F   2       0.127  34.312 -22.524  1.00 31.40 LIG-0.25  NA
ATOM     25  CD2 HIS F   2       1.111  33.610 -21.858  1.00 30.69 LIG 0.14  A 
ENDBRANCH 20 21
ENDBRANCH 1 20
TORSDOF 8
ENDMDL
MODEL 52
USER: ADFR SOLUTION from run 112
USER: SCORE 8.247389 LL:  -1.495 LR:  -6.862 RR:   0.000 FEB:  -4.476
USER: RMSD 7.157198
USER: SEED 111
USER: STATUS no improvement in best in 26 clusters for 5 generations
USER: GENES 10
USER: genes 0 Translation |==|  0.55070 0.66294 0.23184
USER: genes 1 Rotation |==|  0.57375 0.78408 0.31078 0.85785
USER: genes 2 Torsion [C]-CA--N-[C] |==|  0.74247
USER: genes 3 Torsion [N]-C--CA-[N] |==|  0.03434
USER: genes 4 Torsion [C]-CA--N-[H3] |==|  0.33430
USER: genes 5 Torsion [N]-CA--C-[N] |==|  0.43351
USER: genes 6 Torsion [C]-N--CA-[CB] |==|  0.39451
USER: genes 7 Torsion [N]-CA--C-[O] |==|  0.20437
USER: genes 8 Torsion [N]-CA--CB-[CG] |==|  0.27913
USER: genes 9 Torsion [CA]-CB--CG-[ND1] |==|  0.77728
ROOT
ATOM      1  CA  HIS F   2      -0.497  32.517 -23.322  1.00 30.59 LIG 0.18  C 
ENDROOT
BRANCH 1 2
ATOM      2  N   HIS F   2      -1.196  33.562 -24.078  1.00 30.70 LIG-0.35  N 
ATOM      3  C   ALA F   1      -2.469  33.884 -23.858  1.00 31.15 LIG 0.25  C 
ATOM      4 O    ALA F   1      -3.176  33.330 -23.010  1.00 30.37 LIG-0.27  OA
ATOM      5 H    HIS F   2      -0.708  33.945 -24.675  1.00 30.70 LIG 0.16  HD
BRANCH 3 6
ATOM      6  CA  ALA F   1      -3.037  35.007 -24.734  1.00 31.15 LIG 0.27  C 
ATOM      7  CB  ALA F   1      -4.295  35.062 -24.810  0.00 20.00 LIG 0.05  C 
BRANCH 6 8
ATOM      8  N   ALA F   1      -2.122  35.328 -25.882  1.00 31.97 LIG-0.07  N 
ATOM      9 H3   ALA F   1      -2.552  35.199 -26.650  1.00 31.97 LIG 0.28  HD
ATOM     10 H1   ALA F   1      -1.862  36.177 -25.826  1.00 31.97 LIG 0.28  HD
ATOM     11 H2   ALA F   1      -1.408  34.798 -25.849  1.00 31.97 LIG 0.28  HD
ENDBRANCH 6 8
ENDBRANCH 3 6
ENDBRANCH 1 2
BRANCH 1 12
ATOM     12  C   HIS F   2       0.233  33.113 -22.112  1.00 31.15 LIG 0.24  C 
ATOM     13 O    HIS F   2       0.568  34.312 -22.099  1.00 30.80 LIG-0.27  OA
ATOM     14  N   ALA F   3       0.475  32.271 -21.099  1.00 30.97 LIG-0.35  N 
ATOM     15 H    ALA F   3       0.241  31.443 -21.103  1.00 30.97 LIG 0.16  HD
BRANCH 14 16
ATOM     16  CA  ALA F   3       1.167  32.689 -19.882  1.00 31.72 LIG 0.16  C 
ATOM     17  CB  ALA F   3       0.470  31.953 -18.711  0.00 20.00 LIG 0.04  C 
BRANCH 16 18
ATOM     18  C   ALA F   3       2.549  32.062 -19.719  1.00 32.37 LIG 0.22  C 
ATOM     19 O    ALA F   3       3.503  32.437 -20.415  1.00 33.75 LIG-0.29  OA
ENDBRANCH 16 18
ENDBRANCH 14 16
ENDBRANCH 1 12
BRANCH 1 20
ATOM     20  CB  HIS F   2       0.507  31.780 -24.224  1.00 30.20 LIG 0.10  C 
BRANCH 20 21
ATOM     21  CG  HIS F   2       1.937  32.220 -24.059  1.00 29.66 LIG 0.06  A 
ATOM     22 ND1  HIS F   2       2.453  33.358 -24.648  1.00 29.25 LIG-0.24  NA
ATOM     23  CE1 HIS F   2       3.738  33.470 -24.349  1.00 27.69 LIG 0.23  A 
ATOM     24 NE2  HIS F   2       4.083  32.434 -23.599  1.00 31.40 LIG-0.25  NA
ATOM     25  CD2 HIS F   2       2.978  31.629 -23.417  1.00 30.69 LIG 0.14  A 
ENDBRANCH 20 21
ENDBRANCH 1 20
TORSDOF 8
ENDMDL
MODEL 53
USER: ADFR SOLUTION from run 121
USER: SCORE 8.098107 LL:  -1.282 LR:  -6.854 RR:   0.000 FEB:  -4.468
USER: RMSD 1.548190
USER: SEED 120
USER: STATUS no improvement in best in 16 clusters for 5 generations
USER: GENES 10
USER: genes 0 Translation |==|  0.51701 0.56125 0.67118
USER: genes 1 Rotation |==|  0.45652 0.46708 0.54375 0.99509
USER: genes 2 Torsion [C]-CA--N-[C] |==|  0.80557
USER: genes 3 Torsion [N]-C--CA-[N] |==|  0.49656
USER: genes 4 Torsion [C]-CA--N-[H3] |==|  0.98044
USER: genes 5 Torsion [N]-CA--C-[N] |==|  0.36352
USER: genes 6 Torsion [C]-N--CA-[CB] |==|  0.15329
USER: genes 7 Torsion [N]-CA--C-[O] |==|  0.20866
USER: genes 8 Torsion [N]-CA--CB-[CG] |==|  0.80271
USER: genes 9 Torsion [CA]-CB--CG-[ND1] |==|  0.49512
ROOT
ATOM      1  CA  HIS F   2      -1.079  31.297 -16.403  1.00 30.59 LIG 0.18  C 
ENDROOT
BRANCH 1 2
ATOM      2  N   HIS F   2      -0.681  31.480 -17.803  1.00 30.70 LIG-0.35  N 
ATOM      3  C   ALA F   1      -1.183  30.751 -18.797  1.00 31.15 LIG 0.25  C 
ATOM      4 O    ALA F   1      -2.017  29.854 -18.633  1.00 30.37 LIG-0.27  OA
ATOM      5 H    HIS F   2      -0.095  32.099 -17.919  1.00 30.70 LIG 0.16  HD
BRANCH 3 6
ATOM      6  CA  ALA F   1      -0.661  31.084 -20.201  1.00 31.15 LIG 0.27  C 
ATOM      7  CB  ALA F   1      -0.374  32.295 -20.406  0.00 20.00 LIG 0.05  C 
BRANCH 6 8
ATOM      8  N   ALA F   1      -1.267  30.187 -21.242  1.00 31.97 LIG-0.07  N 
ATOM      9 H3   ALA F   1      -1.747  29.552 -20.845  1.00 31.97 LIG 0.28  HD
ATOM     10 H1   ALA F   1      -1.793  30.666 -21.777  1.00 31.97 LIG 0.28  HD
ATOM     11 H2   ALA F   1      -0.620  29.812 -21.723  1.00 31.97 LIG 0.28  HD
ENDBRANCH 6 8
ENDBRANCH 3 6
ENDBRANCH 1 2
BRANCH 1 12
ATOM     12  C   HIS F   2      -2.520  31.772 -16.177  1.00 31.15 LIG 0.24  C 
ATOM     13 O    HIS F   2      -2.893  32.887 -16.586  1.00 30.80 LIG-0.27  OA
ATOM     14  N   ALA F   3      -3.323  30.922 -15.526  1.00 30.97 LIG-0.35  N 
ATOM     15 H    ALA F   3      -3.071  30.149 -15.246  1.00 30.97 LIG 0.16  HD
BRANCH 14 16
ATOM     16  CA  ALA F   3      -4.720  31.234 -15.230  1.00 31.72 LIG 0.16  C 
ATOM     17  CB  ALA F   3      -5.384  31.585 -16.584  0.00 20.00 LIG 0.04  C 
BRANCH 16 18
ATOM     18  C   ALA F   3      -5.565  30.006 -14.905  1.00 32.37 LIG 0.22  C 
ATOM     19 O    ALA F   3      -5.464  29.437 -13.809  1.00 33.75 LIG-0.29  OA
ENDBRANCH 16 18
ENDBRANCH 14 16
ENDBRANCH 1 12
BRANCH 1 20
ATOM     20  CB  HIS F   2      -0.127  32.062 -15.468  1.00 30.20 LIG 0.10  C 
BRANCH 20 21
ATOM     21  CG  HIS F   2       1.254  31.471 -15.360  1.00 29.66 LIG 0.06  A 
ATOM     22 ND1  HIS F   2       2.260  32.032 -14.599  1.00 29.25 LIG-0.24  NA
ATOM     23  CE1 HIS F   2       3.364  31.312 -14.722  1.00 27.69 LIG 0.23  A 
ATOM     24 NE2  HIS F   2       3.117  30.308 -15.550  1.00 31.40 LIG-0.25  NA
ATOM     25  CD2 HIS F   2       1.808  30.395 -15.976  1.00 30.69 LIG 0.14  A 
ENDBRANCH 20 21
ENDBRANCH 1 20
TORSDOF 8
ENDMDL
MODEL 54
USER: ADFR SOLUTION from run 38
USER: SCORE 8.231749 LL:  -1.440 LR:  -6.855 RR:   0.000 FEB:  -4.468
USER: RMSD 6.823777
USER: SEED 37
USER: STATUS no improvement in best in 11 clusters for 5 generations
USER: GENES 10
USER: genes 0 Translation |==|  0.80706 0.52653 0.56073
USER: genes 1 Rotation |==|  0.96967 0.41688 0.45218 0.64217
USER: genes 2 Torsion [C]-CA--N-[C] |==|  0.16348
USER: genes 3 Torsion [N]-C--CA-[N] |==|  0.41216
USER: genes 4 Torsion [C]-CA--N-[H3] |==|  0.78177
USER: genes 5 Torsion [N]-CA--C-[N] |==|  0.11644
USER: genes 6 Torsion [C]-N--CA-[CB] |==|  0.14713
USER: genes 7 Torsion [N]-CA--C-[O] |==|  0.99237
USER: genes 8 Torsion [N]-CA--CB-[CG] |==|  0.69671
USER: genes 9 Torsion [CA]-CB--CG-[ND1] |==|  0.85771
ROOT
ATOM      1  CA  HIS F   2       3.925  30.880 -18.143  1.00 30.59 LIG 0.18  C 
ENDROOT
BRANCH 1 2
ATOM      2  N   HIS F   2       4.454  31.196 -16.811  1.00 30.70 LIG-0.35  N 
ATOM      3  C   ALA F   1       4.371  30.353 -15.784  1.00 31.15 LIG 0.25  C 
ATOM      4 O    ALA F   1       3.838  29.241 -15.854  1.00 30.37 LIG-0.27  OA
ATOM      5 H    HIS F   2       4.820  31.973 -16.758  1.00 30.70 LIG 0.16  HD
BRANCH 3 6
ATOM      6  CA  ALA F   1       4.987  30.842 -14.467  1.00 31.15 LIG 0.27  C 
ATOM      7  CB  ALA F   1       6.232  31.045 -14.485  0.00 20.00 LIG 0.05  C 
BRANCH 6 8
ATOM      8  N   ALA F   1       4.253  30.293 -13.277  1.00 31.97 LIG-0.07  N 
ATOM      9 H3   ALA F   1       3.503  30.755 -13.151  1.00 31.97 LIG 0.28  HD
ATOM     10 H1   ALA F   1       4.054  29.438 -13.420  1.00 31.97 LIG 0.28  HD
ATOM     11 H2   ALA F   1       4.767  30.361 -12.554  1.00 31.97 LIG 0.28  HD
ENDBRANCH 6 8
ENDBRANCH 3 6
ENDBRANCH 1 2
BRANCH 1 12
ATOM     12  C   HIS F   2       2.420  30.589 -18.079  1.00 31.15 LIG 0.24  C 
ATOM     13 O    HIS F   2       1.927  29.649 -18.730  1.00 30.80 LIG-0.27  OA
ATOM     14  N   ALA F   3       1.698  31.398 -17.294  1.00 30.97 LIG-0.35  N 
ATOM     15 H    ALA F   3       2.035  32.045 -16.840  1.00 30.97 LIG 0.16  HD
BRANCH 14 16
ATOM     16  CA  ALA F   3       0.252  31.250 -17.136  1.00 31.72 LIG 0.16  C 
ATOM     17  CB  ALA F   3       0.006  29.775 -16.734  0.00 20.00 LIG 0.04  C 
BRANCH 16 18
ATOM     18  C   ALA F   3      -0.293  31.898 -15.866  1.00 32.37 LIG 0.22  C 
ATOM     19 O    ALA F   3       0.469  32.438 -15.051  1.00 33.75 LIG-0.29  OA
ENDBRANCH 16 18
ENDBRANCH 14 16
ENDBRANCH 1 12
BRANCH 1 20
ATOM     20  CB  HIS F   2       4.663  29.672 -18.743  1.00 30.20 LIG 0.10  C 
BRANCH 20 21
ATOM     21  CG  HIS F   2       5.578  30.004 -19.891  1.00 29.66 LIG 0.06  A 
ATOM     22 ND1  HIS F   2       5.180  30.742 -20.989  1.00 29.25 LIG-0.24  NA
ATOM     23  CE1 HIS F   2       6.186  30.846 -21.843  1.00 27.69 LIG 0.23  A 
ATOM     24 NE2  HIS F   2       7.223  30.187 -21.348  1.00 31.40 LIG-0.25  NA
ATOM     25  CD2 HIS F   2       6.863  29.638 -20.135  1.00 30.69 LIG 0.14  A 
ENDBRANCH 20 21
ENDBRANCH 1 20
TORSDOF 8
ENDMDL
MODEL 55
USER: ADFR SOLUTION from run 172
USER: SCORE 8.096585 LL:  -1.402 LR:  -6.843 RR:   0.000 FEB:  -4.456
USER: RMSD 6.183598
USER: SEED 171
USER: STATUS no improvement in best in 15 clusters for 5 generations
USER: GENES 10
USER: genes 0 Translation |==|  0.63927 0.62493 0.49832
USER: genes 1 Rotation |==|  0.09383 0.53760 0.21849 0.56607
USER: genes 2 Torsion [C]-CA--N-[C] |==|  0.57164
USER: genes 3 Torsion [N]-C--CA-[N] |==|  0.14128
USER: genes 4 Torsion [C]-CA--N-[H3] |==|  0.47778
USER: genes 5 Torsion [N]-CA--C-[N] |==|  0.44724
USER: genes 6 Torsion [C]-N--CA-[CB] |==|  0.45153
USER: genes 7 Torsion [N]-CA--C-[O] |==|  0.78104
USER: genes 8 Torsion [N]-CA--CB-[CG] |==|  0.05437
USER: genes 9 Torsion [CA]-CB--CG-[ND1] |==|  0.26085
ROOT
ATOM      1  CA  HIS F   2       1.030  32.061 -19.126  1.00 30.59 LIG 0.18  C 
ENDROOT
BRANCH 1 2
ATOM      2  N   HIS F   2      -0.171  31.456 -18.541  1.00 30.70 LIG-0.35  N 
ATOM      3  C   ALA F   1      -0.710  31.881 -17.400  1.00 31.15 LIG 0.25  C 
ATOM      4 O    ALA F   1      -0.247  32.808 -16.729  1.00 30.37 LIG-0.27  OA
ATOM      5 H    HIS F   2      -0.492  30.805 -19.003  1.00 30.70 LIG 0.16  HD
BRANCH 3 6
ATOM      6  CA  ALA F   1      -1.972  31.139 -16.940  1.00 31.15 LIG 0.27  C 
ATOM      7  CB  ALA F   1      -2.690  31.746 -16.098  0.00 20.00 LIG 0.05  C 
BRANCH 6 8
ATOM      8  N   ALA F   1      -1.767  29.651 -16.935  1.00 31.97 LIG-0.07  N 
ATOM      9 H3   ALA F   1      -2.469  29.256 -16.557  1.00 31.97 LIG 0.28  HD
ATOM     10 H1   ALA F   1      -1.678  29.361 -17.772  1.00 31.97 LIG 0.28  HD
ATOM     11 H2   ALA F   1      -1.032  29.454 -16.474  1.00 31.97 LIG 0.28  HD
ENDBRANCH 6 8
ENDBRANCH 3 6
ENDBRANCH 1 2
BRANCH 1 12
ATOM     12  C   HIS F   2       1.063  31.856 -20.646  1.00 31.15 LIG 0.24  C 
ATOM     13 O    HIS F   2       0.368  30.972 -21.182  1.00 30.80 LIG-0.27  OA
ATOM     14  N   ALA F   3       1.870  32.674 -21.332  1.00 30.97 LIG-0.35  N 
ATOM     15 H    ALA F   3       2.348  33.288 -20.965  1.00 30.97 LIG 0.16  HD
BRANCH 14 16
ATOM     16  CA  ALA F   3       2.012  32.596 -22.784  1.00 31.72 LIG 0.16  C 
ATOM     17  CB  ALA F   3       2.644  33.937 -23.232  0.00 20.00 LIG 0.04  C 
BRANCH 16 18
ATOM     18  C   ALA F   3       3.145  31.679 -23.238  1.00 32.37 LIG 0.22  C 
ATOM     19 O    ALA F   3       4.323  32.062 -23.209  1.00 33.75 LIG-0.29  OA
ENDBRANCH 16 18
ENDBRANCH 14 16
ENDBRANCH 1 12
BRANCH 1 20
ATOM     20  CB  HIS F   2       2.298  31.462 -18.493  1.00 30.20 LIG 0.10  C 
BRANCH 20 21
ATOM     21  CG  HIS F   2       2.090  30.136 -17.811  1.00 29.66 LIG 0.06  A 
ATOM     22 ND1  HIS F   2       2.297  28.922 -18.435  1.00 29.25 LIG-0.24  NA
ATOM     23  CE1 HIS F   2       2.007  27.937 -17.599  1.00 27.69 LIG 0.23  A 
ATOM     24 NE2  HIS F   2       1.601  28.467 -16.455  1.00 31.40 LIG-0.25  NA
ATOM     25  CD2 HIS F   2       1.629  29.842 -16.568  1.00 30.69 LIG 0.14  A 
ENDBRANCH 20 21
ENDBRANCH 1 20
TORSDOF 8
ENDMDL
MODEL 56
USER: ADFR SOLUTION from run 81
USER: SCORE 8.074773 LL:  -1.364 LR:  -6.841 RR:   0.000 FEB:  -4.455
USER: RMSD 5.967705
USER: SEED 80
USER: STATUS no improvement in best in 19 clusters for 5 generations
USER: GENES 10
USER: genes 0 Translation |==|  0.47025 0.48021 0.54070
USER: genes 1 Rotation |==|  0.65693 0.94120 0.59301 0.64853
USER: genes 2 Torsion [C]-CA--N-[C] |==|  0.69241
USER: genes 3 Torsion [N]-C--CA-[N] |==|  0.86402
USER: genes 4 Torsion [C]-CA--N-[H3] |==|  0.68867
USER: genes 5 Torsion [N]-CA--C-[N] |==|  0.07222
USER: genes 6 Torsion [C]-N--CA-[CB] |==|  0.86422
USER: genes 7 Torsion [N]-CA--C-[O] |==|  0.15055
USER: genes 8 Torsion [N]-CA--CB-[CG] |==|  0.96518
USER: genes 9 Torsion [CA]-CB--CG-[ND1] |==|  0.16694
ROOT
ATOM      1  CA  HIS F   2      -1.885  30.325 -18.458  1.00 30.59 LIG 0.18  C 
ENDROOT
BRANCH 1 2
ATOM      2  N   HIS F   2      -2.779  30.572 -17.322  1.00 30.70 LIG-0.35  N 
ATOM      3  C   ALA F   1      -3.754  29.734 -16.975  1.00 31.15 LIG 0.25  C 
ATOM      4 O    ALA F   1      -3.999  28.685 -17.579  1.00 30.37 LIG-0.27  OA
ATOM      5 H    HIS F   2      -2.614  31.305 -16.903  1.00 30.70 LIG 0.16  HD
BRANCH 3 6
ATOM      6  CA  ALA F   1      -4.586  30.145 -15.753  1.00 31.15 LIG 0.27  C 
ATOM      7  CB  ALA F   1      -5.696  30.690 -16.004  0.00 20.00 LIG 0.05  C 
BRANCH 6 8
ATOM      8  N   ALA F   1      -3.712  30.536 -14.596  1.00 31.97 LIG-0.07  N 
ATOM      9 H3   ALA F   1      -3.794  29.936 -13.945  1.00 31.97 LIG 0.28  HD
ATOM     10 H1   ALA F   1      -2.864  30.570 -14.863  1.00 31.97 LIG 0.28  HD
ATOM     11 H2   ALA F   1      -3.959  31.336 -14.295  1.00 31.97 LIG 0.28  HD
ENDBRANCH 6 8
ENDBRANCH 3 6
ENDBRANCH 1 2
BRANCH 1 12
ATOM     12  C   HIS F   2      -0.461  30.016 -17.978  1.00 31.15 LIG 0.24  C 
ATOM     13 O    HIS F   2       0.520  30.247 -18.710  1.00 30.80 LIG-0.27  OA
ATOM     14  N   ALA F   3      -0.355  29.496 -16.749  1.00 30.97 LIG-0.35  N 
ATOM     15 H    ALA F   3      -1.030  29.339 -16.239  1.00 30.97 LIG 0.16  HD
BRANCH 14 16
ATOM     16  CA  ALA F   3       0.933  29.143 -16.156  1.00 31.72 LIG 0.16  C 
ATOM     17  CB  ALA F   3       1.688  28.308 -17.219  0.00 20.00 LIG 0.04  C 
BRANCH 16 18
ATOM     18  C   ALA F   3       1.913  30.311 -16.086  1.00 32.37 LIG 0.22  C 
ATOM     19 O    ALA F   3       1.595  31.377 -15.539  1.00 33.75 LIG-0.29  OA
ENDBRANCH 16 18
ENDBRANCH 14 16
ENDBRANCH 1 12
BRANCH 1 20
ATOM     20  CB  HIS F   2      -1.864  31.540 -19.400  1.00 30.20 LIG 0.10  C 
BRANCH 20 21
ATOM     21  CG  HIS F   2      -2.944  32.555 -19.139  1.00 29.66 LIG 0.06  A 
ATOM     22 ND1  HIS F   2      -3.080  33.225 -17.939  1.00 29.25 LIG-0.24  NA
ATOM     23  CE1 HIS F   2      -4.132  34.027 -17.994  1.00 27.69 LIG 0.23  A 
ATOM     24 NE2  HIS F   2      -4.698  33.891 -19.184  1.00 31.40 LIG-0.25  NA
ATOM     25  CD2 HIS F   2      -3.983  32.964 -19.913  1.00 30.69 LIG 0.14  A 
ENDBRANCH 20 21
ENDBRANCH 1 20
TORSDOF 8
ENDMDL
MODEL 57
USER: ADFR SOLUTION from run 2
USER: SCORE 8.210175 LL:  -1.424 LR:  -6.826 RR:   0.000 FEB:  -4.440
USER: RMSD 4.042051
USER: SEED 674176
USER: STATUS no improvement in best in 12 clusters for 5 generations
USER: GENES 10
USER: genes 0 Translation |==|  0.55952 0.65008 0.58628
USER: genes 1 Rotation |==|  0.07785 0.56812 0.66577 0.69917
USER: genes 2 Torsion [C]-CA--N-[C] |==|  0.73175
USER: genes 3 Torsion [N]-C--CA-[N] |==|  0.79622
USER: genes 4 Torsion [C]-CA--N-[H3] |==|  0.67948
USER: genes 5 Torsion [N]-CA--C-[N] |==|  0.03333
USER: genes 6 Torsion [C]-N--CA-[CB] |==|  0.38605
USER: genes 7 Torsion [N]-CA--C-[O] |==|  0.02114
USER: genes 8 Torsion [N]-CA--CB-[CG] |==|  0.90351
USER: genes 9 Torsion [CA]-CB--CG-[ND1] |==|  0.95033
ROOT
ATOM      1  CA  HIS F   2      -0.345  32.363 -17.740  1.00 30.59 LIG 0.18  C 
ENDROOT
BRANCH 1 2
ATOM      2  N   HIS F   2       0.295  31.069 -17.484  1.00 30.70 LIG-0.35  N 
ATOM      3  C   ALA F   1       0.885  30.771 -16.328  1.00 31.15 LIG 0.25  C 
ATOM      4 O    ALA F   1       0.954  31.554 -15.376  1.00 30.37 LIG-0.27  OA
ATOM      5 H    HIS F   2       0.254  30.523 -18.149  1.00 30.70 LIG 0.16  HD
BRANCH 3 6
ATOM      6  CA  ALA F   1       1.495  29.367 -16.231  1.00 31.15 LIG 0.27  C 
ATOM      7  CB  ALA F   1       2.576  29.194 -16.858  0.00 20.00 LIG 0.05  C 
BRANCH 6 8
ATOM      8  N   ALA F   1       0.435  28.312 -16.099  1.00 31.97 LIG-0.07  N 
ATOM      9 H3   ALA F   1       0.508  27.914 -15.307  1.00 31.97 LIG 0.28  HD
ATOM     10 H1   ALA F   1      -0.369  28.688 -16.169  1.00 31.97 LIG 0.28  HD
ATOM     11 H2   ALA F   1       0.535  27.708 -16.744  1.00 31.97 LIG 0.28  HD
ENDBRANCH 6 8
ENDBRANCH 3 6
ENDBRANCH 1 2
BRANCH 1 12
ATOM     12  C   HIS F   2      -1.857  32.285 -17.490  1.00 31.15 LIG 0.24  C 
ATOM     13 O    HIS F   2      -2.610  33.204 -17.861  1.00 30.80 LIG-0.27  OA
ATOM     14  N   ALA F   3      -2.293  31.186 -16.863  1.00 30.97 LIG-0.35  N 
ATOM     15 H    ALA F   3      -1.776  30.546 -16.609  1.00 30.97 LIG 0.16  HD
BRANCH 14 16
ATOM     16  CA  ALA F   3      -3.704  30.970 -16.549  1.00 31.72 LIG 0.16  C 
ATOM     17  CB  ALA F   3      -3.993  29.479 -16.846  0.00 20.00 LIG 0.04  C 
BRANCH 16 18
ATOM     18  C   ALA F   3      -3.998  30.937 -15.052  1.00 32.37 LIG 0.22  C 
ATOM     19 O    ALA F   3      -3.120  31.222 -14.225  1.00 33.75 LIG-0.29  OA
ENDBRANCH 16 18
ENDBRANCH 14 16
ENDBRANCH 1 12
BRANCH 1 20
ATOM     20  CB  HIS F   2      -0.080  32.819 -19.185  1.00 30.20 LIG 0.10  C 
BRANCH 20 21
ATOM     21  CG  HIS F   2       1.272  32.436 -19.725  1.00 29.66 LIG 0.06  A 
ATOM     22 ND1  HIS F   2       2.330  32.062 -18.921  1.00 29.25 LIG-0.24  NA
ATOM     23  CE1 HIS F   2       3.392  31.813 -19.671  1.00 27.69 LIG 0.23  A 
ATOM     24 NE2  HIS F   2       3.068  32.028 -20.937  1.00 31.40 LIG-0.25  NA
ATOM     25  CD2 HIS F   2       1.751  32.434 -20.996  1.00 30.69 LIG 0.14  A 
ENDBRANCH 20 21
ENDBRANCH 1 20
TORSDOF 8
ENDMDL
MODEL 58
USER: ADFR SOLUTION from run 15
USER: SCORE 8.374957 LL:  -1.598 LR:  -6.814 RR:   0.000 FEB:  -4.428
USER: RMSD 6.393044
USER: SEED 190328
USER: STATUS no improvement in best in 19 clusters for 5 generations
USER: GENES 10
USER: genes 0 Translation |==|  0.65641 0.55409 0.47825
USER: genes 1 Rotation |==|  0.76518 0.87548 0.60776 0.66456
USER: genes 2 Torsion [C]-CA--N-[C] |==|  0.79058
USER: genes 3 Torsion [N]-C--CA-[N] |==|  0.47326
USER: genes 4 Torsion [C]-CA--N-[H3] |==|  0.39924
USER: genes 5 Torsion [N]-CA--C-[N] |==|  0.93633
USER: genes 6 Torsion [C]-N--CA-[CB] |==|  0.48145
USER: genes 7 Torsion [N]-CA--C-[O] |==|  0.00035
USER: genes 8 Torsion [N]-CA--CB-[CG] |==|  0.77829
USER: genes 9 Torsion [CA]-CB--CG-[ND1] |==|  0.12591
ROOT
ATOM      1  CA  HIS F   2       1.326  31.211 -19.442  1.00 30.59 LIG 0.18  C 
ENDROOT
BRANCH 1 2
ATOM      2  N   HIS F   2       0.502  31.619 -18.299  1.00 30.70 LIG-0.35  N 
ATOM      3  C   ALA F   1      -0.432  30.834 -17.766  1.00 31.15 LIG 0.25  C 
ATOM      4 O    ALA F   1      -0.695  29.703 -18.187  1.00 30.37 LIG-0.27  OA
ATOM      5 H    HIS F   2       0.679  32.409 -18.007  1.00 30.70 LIG 0.16  HD
BRANCH 3 6
ATOM      6  CA  ALA F   1      -1.192  31.417 -16.568  1.00 31.15 LIG 0.27  C 
ATOM      7  CB  ALA F   1      -0.493  32.050 -15.730  0.00 20.00 LIG 0.05  C 
BRANCH 6 8
ATOM      8  N   ALA F   1      -2.367  30.562 -16.190  1.00 31.97 LIG-0.07  N 
ATOM      9 H3   ALA F   1      -2.463  30.562 -15.306  1.00 31.97 LIG 0.28  HD
ATOM     10 H1   ALA F   1      -3.105  30.887 -16.568  1.00 31.97 LIG 0.28  HD
ATOM     11 H2   ALA F   1      -2.232  29.730 -16.473  1.00 31.97 LIG 0.28  HD
ENDBRANCH 6 8
ENDBRANCH 3 6
ENDBRANCH 1 2
BRANCH 1 12
ATOM     12  C   HIS F   2       2.405  30.209 -19.009  1.00 31.15 LIG 0.24  C 
ATOM     13 O    HIS F   2       2.918  29.433 -19.837  1.00 30.80 LIG-0.27  OA
ATOM     14  N   ALA F   3       2.744  30.233 -17.715  1.00 30.97 LIG-0.35  N 
ATOM     15 H    ALA F   3       2.395  30.771 -17.142  1.00 30.97 LIG 0.16  HD
BRANCH 14 16
ATOM     16  CA  ALA F   3       3.751  29.336 -17.152  1.00 31.72 LIG 0.16  C 
ATOM     17  CB  ALA F   3       3.971  29.791 -15.689  0.00 20.00 LIG 0.04  C 
BRANCH 16 18
ATOM     18  C   ALA F   3       3.221  27.937 -16.849  1.00 32.37 LIG 0.22  C 
ATOM     19 O    ALA F   3       2.040  27.641 -17.080  1.00 33.75 LIG-0.29  OA
ENDBRANCH 16 18
ENDBRANCH 14 16
ENDBRANCH 1 12
BRANCH 1 20
ATOM     20  CB  HIS F   2       1.987  32.437 -20.094  1.00 30.20 LIG 0.10  C 
BRANCH 20 21
ATOM     21  CG  HIS F   2       1.086  33.219 -21.013  1.00 29.66 LIG 0.06  A 
ATOM     22 ND1  HIS F   2      -0.213  33.560 -20.691  1.00 29.25 LIG-0.24  NA
ATOM     23  CE1 HIS F   2      -0.762  34.217 -21.701  1.00 27.69 LIG 0.23  A 
ATOM     24 NE2  HIS F   2       0.128  34.302 -22.678  1.00 31.40 LIG-0.25  NA
ATOM     25  CD2 HIS F   2       1.288  33.671 -22.278  1.00 30.69 LIG 0.14  A 
ENDBRANCH 20 21
ENDBRANCH 1 20
TORSDOF 8
ENDMDL
MODEL 59
USER: ADFR SOLUTION from run 94
USER: SCORE 8.044286 LL:  -1.331 LR:  -6.806 RR:   0.000 FEB:  -4.420
USER: RMSD 5.646224
USER: SEED 93
USER: STATUS no improvement in best in 14 clusters for 5 generations
USER: GENES 10
USER: genes 0 Translation |==|  0.54496 0.54453 0.62035
USER: genes 1 Rotation |==|  0.63148 0.66712 0.94960 0.55139
USER: genes 2 Torsion [C]-CA--N-[C] |==|  0.64666
USER: genes 3 Torsion [N]-C--CA-[N] |==|  0.69361
USER: genes 4 Torsion [C]-CA--N-[H3] |==|  0.30065
USER: genes 5 Torsion [N]-CA--C-[N] |==|  0.42795
USER: genes 6 Torsion [C]-N--CA-[CB] |==|  0.82109
USER: genes 7 Torsion [N]-CA--C-[O] |==|  0.70842
USER: genes 8 Torsion [N]-CA--CB-[CG] |==|  0.93180
USER: genes 9 Torsion [CA]-CB--CG-[ND1] |==|  0.31713
ROOT
ATOM      1  CA  HIS F   2      -0.596  31.096 -17.204  1.00 30.59 LIG 0.18  C 
ENDROOT
BRANCH 1 2
ATOM      2  N   HIS F   2      -1.575  30.148 -17.746  1.00 30.70 LIG-0.35  N 
ATOM      3  C   ALA F   1      -2.275  30.387 -18.853  1.00 31.15 LIG 0.25  C 
ATOM      4 O    ALA F   1      -2.173  31.426 -19.514  1.00 30.37 LIG-0.27  OA
ATOM      5 H    HIS F   2      -1.652  29.426 -17.284  1.00 30.70 LIG 0.16  HD
BRANCH 3 6
ATOM      6  CA  ALA F   1      -3.247  29.281 -19.282  1.00 31.15 LIG 0.27  C 
ATOM      7  CB  ALA F   1      -3.850  28.687 -18.346  0.00 20.00 LIG 0.05  C 
BRANCH 6 8
ATOM      8  N   ALA F   1      -2.785  28.596 -20.536  1.00 31.97 LIG-0.07  N 
ATOM      9 H3   ALA F   1      -2.497  27.778 -20.340  1.00 31.97 LIG 0.28  HD
ATOM     10 H1   ALA F   1      -3.461  28.542 -21.112  1.00 31.97 LIG 0.28  HD
ATOM     11 H2   ALA F   1      -2.122  29.063 -20.902  1.00 31.97 LIG 0.28  HD
ENDBRANCH 6 8
ENDBRANCH 3 6
ENDBRANCH 1 2
BRANCH 1 12
ATOM     12  C   HIS F   2       0.759  30.415 -16.975  1.00 31.15 LIG 0.24  C 
ATOM     13 O    HIS F   2       0.827  29.188 -16.774  1.00 30.80 LIG-0.27  OA
ATOM     14  N   ALA F   3       1.832  31.215 -17.010  1.00 30.97 LIG-0.35  N 
ATOM     15 H    ALA F   3       1.789  32.062 -17.153  1.00 30.97 LIG 0.16  HD
BRANCH 14 16
ATOM     16  CA  ALA F   3       3.189  30.714 -16.804  1.00 31.72 LIG 0.16  C 
ATOM     17  CB  ALA F   3       3.244  30.188 -15.349  0.00 20.00 LIG 0.04  C 
BRANCH 16 18
ATOM     18  C   ALA F   3       3.464  29.387 -17.507  1.00 32.37 LIG 0.22  C 
ATOM     19 O    ALA F   3       3.521  28.328 -16.867  1.00 33.75 LIG-0.29  OA
ENDBRANCH 16 18
ENDBRANCH 14 16
ENDBRANCH 1 12
BRANCH 1 20
ATOM     20  CB  HIS F   2      -1.105  31.698 -15.882  1.00 30.20 LIG 0.10  C 
BRANCH 20 21
ATOM     21  CG  HIS F   2      -2.602  31.687 -15.724  1.00 29.66 LIG 0.06  A 
ATOM     22 ND1  HIS F   2      -3.257  30.937 -14.768  1.00 29.25 LIG-0.24  NA
ATOM     23  CE1 HIS F   2      -4.565  31.107 -14.889  1.00 27.69 LIG 0.23  A 
ATOM     24 NE2  HIS F   2      -4.786  31.929 -15.904  1.00 31.40 LIG-0.25  NA
ATOM     25  CD2 HIS F   2      -3.574  32.293 -16.453  1.00 30.69 LIG 0.14  A 
ENDBRANCH 20 21
ENDBRANCH 1 20
TORSDOF 8
ENDMDL
MODEL 60
USER: ADFR SOLUTION from run 32
USER: SCORE 8.189764 LL:  -1.496 LR:  -6.808 RR:   0.000 FEB:  -4.421
USER: RMSD 5.749295
USER: SEED 31
USER: STATUS no improvement in best in 20 clusters for 5 generations
USER: GENES 10
USER: genes 0 Translation |==|  0.52586 0.62479 0.53700
USER: genes 1 Rotation |==|  0.54227 0.61387 0.02281 0.58683
USER: genes 2 Torsion [C]-CA--N-[C] |==|  0.71291
USER: genes 3 Torsion [N]-C--CA-[N] |==|  0.49202
USER: genes 4 Torsion [C]-CA--N-[H3] |==|  0.17455
USER: genes 5 Torsion [N]-CA--C-[N] |==|  0.97348
USER: genes 6 Torsion [C]-N--CA-[CB] |==|  0.29898
USER: genes 7 Torsion [N]-CA--C-[O] |==|  0.03290
USER: genes 8 Torsion [N]-CA--CB-[CG] |==|  0.57845
USER: genes 9 Torsion [CA]-CB--CG-[ND1] |==|  0.37278
ROOT
ATOM      1  CA  HIS F   2      -0.926  32.059 -18.516  1.00 30.59 LIG 0.18  C 
ENDROOT
BRANCH 1 2
ATOM      2  N   HIS F   2      -0.916  32.321 -19.959  1.00 30.70 LIG-0.35  N 
ATOM      3  C   ALA F   1      -0.930  33.551 -20.470  1.00 31.15 LIG 0.25  C 
ATOM      4 O    ALA F   1      -0.963  34.576 -19.781  1.00 30.37 LIG-0.27  OA
ATOM      5 H    HIS F   2      -0.900  31.609 -20.442  1.00 30.70 LIG 0.16  HD
BRANCH 3 6
ATOM      6  CA  ALA F   1      -0.906  33.639 -22.001  1.00 31.15 LIG 0.27  C 
ATOM      7  CB  ALA F   1      -0.233  32.750 -22.592  0.00 20.00 LIG 0.05  C 
BRANCH 6 8
ATOM      8  N   ALA F   1      -0.994  35.062 -22.474  1.00 31.97 LIG-0.07  N 
ATOM      9 H3   ALA F   1      -0.283  35.514 -22.189  1.00 31.97 LIG 0.28  HD
ATOM     10 H1   ALA F   1      -1.020  35.079 -23.363  1.00 31.97 LIG 0.28  HD
ATOM     11 H2   ALA F   1      -1.733  35.437 -22.149  1.00 31.97 LIG 0.28  HD
ENDBRANCH 6 8
ENDBRANCH 3 6
ENDBRANCH 1 2
BRANCH 1 12
ATOM     12  C   HIS F   2       0.470  31.658 -18.022  1.00 31.15 LIG 0.24  C 
ATOM     13 O    HIS F   2       0.710  31.566 -16.804  1.00 30.80 LIG-0.27  OA
ATOM     14  N   ALA F   3       1.383  31.420 -18.972  1.00 30.97 LIG-0.35  N 
ATOM     15 H    ALA F   3       1.220  31.479 -19.814  1.00 30.97 LIG 0.16  HD
BRANCH 14 16
ATOM     16  CA  ALA F   3       2.757  31.035 -18.658  1.00 31.72 LIG 0.16  C 
ATOM     17  CB  ALA F   3       2.885  29.536 -19.026  0.00 20.00 LIG 0.04  C 
BRANCH 16 18
ATOM     18  C   ALA F   3       3.784  31.573 -19.651  1.00 32.37 LIG 0.22  C 
ATOM     19 O    ALA F   3       3.473  32.437 -20.483  1.00 33.75 LIG-0.29  OA
ENDBRANCH 16 18
ENDBRANCH 14 16
ENDBRANCH 1 12
BRANCH 1 20
ATOM     20  CB  HIS F   2      -1.936  30.950 -18.177  1.00 30.20 LIG 0.10  C 
BRANCH 20 21
ATOM     21  CG  HIS F   2      -2.524  31.040 -16.794  1.00 29.66 LIG 0.06  A 
ATOM     22 ND1  HIS F   2      -3.872  30.896 -16.533  1.00 29.25 LIG-0.24  NA
ATOM     23  CE1 HIS F   2      -4.093  31.053 -15.237  1.00 27.69 LIG 0.23  A 
ATOM     24 NE2  HIS F   2      -2.936  31.312 -14.645  1.00 31.40 LIG-0.25  NA
ATOM     25  CD2 HIS F   2      -1.941  31.325 -15.600  1.00 30.69 LIG 0.14  A 
ENDBRANCH 20 21
ENDBRANCH 1 20
TORSDOF 8
ENDMDL
MODEL 61
USER: ADFR SOLUTION from run 70
USER: SCORE 7.959738 LL:  -1.389 LR:  -6.790 RR:   0.000 FEB:  -4.404
USER: RMSD 5.237974
USER: SEED 69
USER: STATUS no improvement in best in 20 clusters for 5 generations
USER: GENES 10
USER: genes 0 Translation |==|  0.57624 0.49753 0.57528
USER: genes 1 Rotation |==|  0.27033 0.51131 0.07511 0.62881
USER: genes 2 Torsion [C]-CA--N-[C] |==|  0.55032
USER: genes 3 Torsion [N]-C--CA-[N] |==|  0.94884
USER: genes 4 Torsion [C]-CA--N-[H3] |==|  0.94669
USER: genes 5 Torsion [N]-CA--C-[N] |==|  0.42222
USER: genes 6 Torsion [C]-N--CA-[CB] |==|  0.83716
USER: genes 7 Torsion [N]-CA--C-[O] |==|  0.25480
USER: genes 8 Torsion [N]-CA--CB-[CG] |==|  0.31160
USER: genes 9 Torsion [CA]-CB--CG-[ND1] |==|  0.26245
ROOT
ATOM      1  CA  HIS F   2      -0.057  30.532 -17.913  1.00 30.59 LIG 0.18  C 
ENDROOT
BRANCH 1 2
ATOM      2  N   HIS F   2      -1.124  29.816 -18.619  1.00 30.70 LIG-0.35  N 
ATOM      3  C   ALA F   1      -2.400  29.868 -18.242  1.00 31.15 LIG 0.25  C 
ATOM      4 O    ALA F   1      -2.798  30.511 -17.266  1.00 30.37 LIG-0.27  OA
ATOM      5 H    HIS F   2      -0.849  29.361 -19.296  1.00 30.70 LIG 0.16  HD
BRANCH 3 6
ATOM      6  CA  ALA F   1      -3.385  29.065 -19.102  1.00 31.15 LIG 0.27  C 
ATOM      7  CB  ALA F   1      -4.163  28.297 -18.473  0.00 20.00 LIG 0.05  C 
BRANCH 6 8
ATOM      8  N   ALA F   1      -2.802  28.734 -20.446  1.00 31.97 LIG-0.07  N 
ATOM      9 H3   ALA F   1      -2.121  29.280 -20.617  1.00 31.97 LIG 0.28  HD
ATOM     10 H1   ALA F   1      -2.514  27.892 -20.446  1.00 31.97 LIG 0.28  HD
ATOM     11 H2   ALA F   1      -3.425  28.833 -21.073  1.00 31.97 LIG 0.28  HD
ENDBRANCH 6 8
ENDBRANCH 3 6
ENDBRANCH 1 2
BRANCH 1 12
ATOM     12  C   HIS F   2       1.192  30.661 -18.795  1.00 31.15 LIG 0.24  C 
ATOM     13 O    HIS F   2       1.439  29.814 -19.674  1.00 30.80 LIG-0.27  OA
ATOM     14  N   ALA F   3       1.973  31.721 -18.555  1.00 30.97 LIG-0.35  N 
ATOM     15 H    ALA F   3       1.804  32.311 -17.952  1.00 30.97 LIG 0.16  HD
BRANCH 14 16
ATOM     16  CA  ALA F   3       3.200  31.976 -19.307  1.00 31.72 LIG 0.16  C 
ATOM     17  CB  ALA F   3       4.103  30.736 -19.102  0.00 20.00 LIG 0.04  C 
BRANCH 16 18
ATOM     18  C   ALA F   3       3.028  31.851 -20.819  1.00 32.37 LIG 0.22  C 
ATOM     19 O    ALA F   3       2.737  32.838 -21.509  1.00 33.75 LIG-0.29  OA
ENDBRANCH 16 18
ENDBRANCH 14 16
ENDBRANCH 1 12
BRANCH 1 20
ATOM     20  CB  HIS F   2       0.303  29.810 -16.604  1.00 30.20 LIG 0.10  C 
BRANCH 20 21
ATOM     21  CG  HIS F   2       1.675  29.190 -16.588  1.00 29.66 LIG 0.06  A 
ATOM     22 ND1  HIS F   2       2.788  29.826 -16.075  1.00 29.25 LIG-0.24  NA
ATOM     23  CE1 HIS F   2       3.851  29.052 -16.224  1.00 27.69 LIG 0.23  A 
ATOM     24 NE2  HIS F   2       3.473  27.937 -16.832  1.00 31.40 LIG-0.25  NA
ATOM     25  CD2 HIS F   2       2.119  28.006 -17.085  1.00 30.69 LIG 0.14  A 
ENDBRANCH 20 21
ENDBRANCH 1 20
TORSDOF 8
ENDMDL
MODEL 62
USER: ADFR SOLUTION from run 132
USER: SCORE 8.303284 LL:  -1.582 LR:  -6.791 RR:   0.000 FEB:  -4.405
USER: RMSD 5.416150
USER: SEED 131
USER: STATUS no improvement in best in 20 clusters for 5 generations
USER: GENES 10
USER: genes 0 Translation |==|  0.70751 0.58496 0.47497
USER: genes 1 Rotation |==|  0.93484 0.29789 0.63761 0.53360
USER: genes 2 Torsion [C]-CA--N-[C] |==|  0.13889
USER: genes 3 Torsion [N]-C--CA-[N] |==|  0.50181
USER: genes 4 Torsion [C]-CA--N-[H3] |==|  0.85858
USER: genes 5 Torsion [N]-CA--C-[N] |==|  0.11262
USER: genes 6 Torsion [C]-N--CA-[CB] |==|  0.50283
USER: genes 7 Torsion [N]-CA--C-[O] |==|  0.03985
USER: genes 8 Torsion [N]-CA--CB-[CG] |==|  0.95440
USER: genes 9 Torsion [CA]-CB--CG-[ND1] |==|  0.26327
ROOT
ATOM      1  CA  HIS F   2       2.208  31.582 -19.493  1.00 30.59 LIG 0.18  C 
ENDROOT
BRANCH 1 2
ATOM      2  N   HIS F   2       1.478  31.635 -18.222  1.00 30.70 LIG-0.35  N 
ATOM      3  C   ALA F   1       0.350  30.960 -18.008  1.00 31.15 LIG 0.25  C 
ATOM      4 O    ALA F   1      -0.185  30.240 -18.856  1.00 30.37 LIG-0.27  OA
ATOM      5 H    HIS F   2       1.846  32.142 -17.631  1.00 30.70 LIG 0.16  HD
BRANCH 3 6
ATOM      6  CA  ALA F   1      -0.274  31.125 -16.616  1.00 31.15 LIG 0.27  C 
ATOM      7  CB  ALA F   1       0.538  31.324 -15.671  0.00 20.00 LIG 0.05  C 
BRANCH 6 8
ATOM      8  N   ALA F   1      -1.528  30.312 -16.474  1.00 31.97 LIG-0.07  N 
ATOM      9 H3   ALA F   1      -2.071  30.480 -17.159  1.00 31.97 LIG 0.28  HD
ATOM     10 H1   ALA F   1      -1.322  29.446 -16.465  1.00 31.97 LIG 0.28  HD
ATOM     11 H2   ALA F   1      -1.936  30.526 -15.713  1.00 31.97 LIG 0.28  HD
ENDBRANCH 6 8
ENDBRANCH 3 6
ENDBRANCH 1 2
BRANCH 1 12
ATOM     12  C   HIS F   2       1.266  31.838 -20.677  1.00 31.15 LIG 0.24  C 
ATOM     13 O    HIS F   2       1.371  31.176 -21.726  1.00 30.80 LIG-0.27  OA
ATOM     14  N   ALA F   3       0.349  32.796 -20.501  1.00 30.97 LIG-0.35  N 
ATOM     15 H    ALA F   3       0.270  33.252 -19.776  1.00 30.97 LIG 0.16  HD
BRANCH 14 16
ATOM     16  CA  ALA F   3      -0.614  33.159 -21.539  1.00 31.72 LIG 0.16  C 
ATOM     17  CB  ALA F   3      -1.469  34.312 -20.957  0.00 20.00 LIG 0.04  C 
BRANCH 16 18
ATOM     18  C   ALA F   3       0.003  33.934 -22.700  1.00 32.37 LIG 0.22  C 
ATOM     19 O    ALA F   3       1.232  33.979 -22.853  1.00 33.75 LIG-0.29  OA
ENDBRANCH 16 18
ENDBRANCH 14 16
ENDBRANCH 1 12
BRANCH 1 20
ATOM     20  CB  HIS F   2       2.895  30.216 -19.662  1.00 30.20 LIG 0.10  C 
BRANCH 20 21
ATOM     21  CG  HIS F   2       3.013  29.413 -18.394  1.00 29.66 LIG 0.06  A 
ATOM     22 ND1  HIS F   2       2.096  28.451 -18.018  1.00 29.25 LIG-0.24  NA
ATOM     23  CE1 HIS F   2       2.446  27.937 -16.849  1.00 27.69 LIG 0.23  A 
ATOM     24 NE2  HIS F   2       3.551  28.542 -16.441  1.00 31.40 LIG-0.25  NA
ATOM     25  CD2 HIS F   2       3.917  29.482 -17.383  1.00 30.69 LIG 0.14  A 
ENDBRANCH 20 21
ENDBRANCH 1 20
TORSDOF 8
ENDMDL
MODEL 63
USER: ADFR SOLUTION from run 132
USER: SCORE 8.030439 LL:  -1.333 LR:  -6.793 RR:   0.000 FEB:  -4.406
USER: RMSD 7.747919
USER: SEED 131
USER: STATUS no improvement in best in 20 clusters for 5 generations
USER: GENES 10
USER: genes 0 Translation |==|  0.69258 0.65224 0.35254
USER: genes 1 Rotation |==|  0.54450 0.49135 0.99726 0.52606
USER: genes 2 Torsion [C]-CA--N-[C] |==|  0.60556
USER: genes 3 Torsion [N]-C--CA-[N] |==|  0.45213
USER: genes 4 Torsion [C]-CA--N-[H3] |==|  0.31704
USER: genes 5 Torsion [N]-CA--C-[N] |==|  0.44097
USER: genes 6 Torsion [C]-N--CA-[CB] |==|  0.84215
USER: genes 7 Torsion [N]-CA--C-[O] |==|  0.64419
USER: genes 8 Torsion [N]-CA--CB-[CG] |==|  0.81204
USER: genes 9 Torsion [CA]-CB--CG-[ND1] |==|  0.19284
ROOT
ATOM      1  CA  HIS F   2       1.950  32.389 -21.421  1.00 30.59 LIG 0.18  C 
ENDROOT
BRANCH 1 2
ATOM      2  N   HIS F   2       1.411  32.108 -22.756  1.00 30.70 LIG-0.35  N 
ATOM      3  C   ALA F   1       0.852  33.045 -23.520  1.00 31.15 LIG 0.25  C 
ATOM      4 O    ALA F   1       0.729  34.224 -23.175  1.00 30.37 LIG-0.27  OA
ATOM      5 H    HIS F   2       1.489  31.286 -22.997  1.00 30.70 LIG 0.16  HD
BRANCH 3 6
ATOM      6  CA  ALA F   1       0.350  32.577 -24.892  1.00 31.15 LIG 0.27  C 
ATOM      7  CB  ALA F   1       1.166  31.895 -25.572  0.00 20.00 LIG 0.05  C 
BRANCH 6 8
ATOM      8  N   ALA F   1      -0.611  33.562 -25.494  1.00 31.97 LIG-0.07  N 
ATOM      9 H3   ALA F   1      -0.252  33.918 -26.226  1.00 31.97 LIG 0.28  HD
ATOM     10 H1   ALA F   1      -1.368  33.145 -25.708  1.00 31.97 LIG 0.28  HD
ATOM     11 H2   ALA F   1      -0.784  34.205 -24.905  1.00 31.97 LIG 0.28  HD
ENDBRANCH 6 8
ENDBRANCH 3 6
ENDBRANCH 1 2
BRANCH 1 12
ATOM     12  C   HIS F   2       3.235  31.589 -21.170  1.00 31.15 LIG 0.24  C 
ATOM     13 O    HIS F   2       3.483  30.563 -21.831  1.00 30.80 LIG-0.27  OA
ATOM     14  N   ALA F   3       4.045  32.063 -20.217  1.00 30.97 LIG-0.35  N 
ATOM     15 H    ALA F   3       3.879  32.773 -19.761  1.00 30.97 LIG 0.16  HD
BRANCH 14 16
ATOM     16  CA  ALA F   3       5.301  31.407 -19.859  1.00 31.72 LIG 0.16  C 
ATOM     17  CB  ALA F   3       4.938  29.955 -19.463  0.00 20.00 LIG 0.04  C 
BRANCH 16 18
ATOM     18  C   ALA F   3       6.180  31.073 -21.061  1.00 32.37 LIG 0.22  C 
ATOM     19 O    ALA F   3       6.625  29.928 -21.225  1.00 33.75 LIG-0.29  OA
ENDBRANCH 16 18
ENDBRANCH 14 16
ENDBRANCH 1 12
BRANCH 1 20
ATOM     20  CB  HIS F   2       0.910  32.055 -20.339  1.00 30.20 LIG 0.10  C 
BRANCH 20 21
ATOM     21  CG  HIS F   2      -0.299  32.952 -20.334  1.00 29.66 LIG 0.06  A 
ATOM     22 ND1  HIS F   2      -1.254  32.943 -21.331  1.00 29.25 LIG-0.24  NA
ATOM     23  CE1 HIS F   2      -2.178  33.855 -21.070  1.00 27.69 LIG 0.23  A 
ATOM     24 NE2  HIS F   2      -1.849  34.472 -19.945  1.00 31.40 LIG-0.25  NA
ATOM     25  CD2 HIS F   2      -0.668  33.936 -19.473  1.00 30.69 LIG 0.14  A 
ENDBRANCH 20 21
ENDBRANCH 1 20
TORSDOF 8
ENDMDL
MODEL 64
USER: ADFR SOLUTION from run 193
USER: SCORE 8.006993 LL:  -1.391 LR:  -6.779 RR:   0.000 FEB:  -4.393
USER: RMSD 6.456438
USER: SEED 192
USER: STATUS no improvement in best in 17 clusters for 5 generations
USER: GENES 10
USER: genes 0 Translation |==|  0.53478 0.56247 0.48159
USER: genes 1 Rotation |==|  0.31609 0.13402 0.28011 0.68409
USER: genes 2 Torsion [C]-CA--N-[C] |==|  0.15395
USER: genes 3 Torsion [N]-C--CA-[N] |==|  0.84860
USER: genes 4 Torsion [C]-CA--N-[H3] |==|  0.87725
USER: genes 5 Torsion [N]-CA--C-[N] |==|  0.14989
USER: genes 6 Torsion [C]-N--CA-[CB] |==|  0.83046
USER: genes 7 Torsion [N]-CA--C-[O] |==|  0.48036
USER: genes 8 Torsion [N]-CA--CB-[CG] |==|  0.85203
USER: genes 9 Torsion [CA]-CB--CG-[ND1] |==|  0.18231
ROOT
ATOM      1  CA  HIS F   2      -0.772  31.312 -19.389  1.00 30.59 LIG 0.18  C 
ENDROOT
BRANCH 1 2
ATOM      2  N   HIS F   2      -0.272  30.218 -18.549  1.00 30.70 LIG-0.35  N 
ATOM      3  C   ALA F   1       0.870  30.295 -17.868  1.00 31.15 LIG 0.25  C 
ATOM      4 O    ALA F   1       1.612  31.282 -17.890  1.00 30.37 LIG-0.27  OA
ATOM      5 H    HIS F   2      -0.784  29.527 -18.537  1.00 30.70 LIG 0.16  HD
BRANCH 3 6
ATOM      6  CA  ALA F   1       1.235  29.062 -17.032  1.00 31.15 LIG 0.27  C 
ATOM      7  CB  ALA F   1       1.984  28.219 -17.597  0.00 20.00 LIG 0.05  C 
BRANCH 6 8
ATOM      8  N   ALA F   1       0.128  28.688 -16.089  1.00 31.97 LIG-0.07  N 
ATOM      9 H3   ALA F   1      -0.188  29.421 -15.696  1.00 31.97 LIG 0.28  HD
ATOM     10 H1   ALA F   1      -0.526  28.289 -16.542  1.00 31.97 LIG 0.28  HD
ATOM     11 H2   ALA F   1       0.441  28.131 -15.470  1.00 31.97 LIG 0.28  HD
ENDBRANCH 6 8
ENDBRANCH 3 6
ENDBRANCH 1 2
BRANCH 1 12
ATOM     12  C   HIS F   2       0.273  31.721 -20.434  1.00 31.15 LIG 0.24  C 
ATOM     13 O    HIS F   2       0.642  32.906 -20.533  1.00 30.80 LIG-0.27  OA
ATOM     14  N   ALA F   3       0.747  30.737 -21.208  1.00 30.97 LIG-0.35  N 
ATOM     15 H    ALA F   3       0.498  29.917 -21.140  1.00 30.97 LIG 0.16  HD
BRANCH 14 16
ATOM     16  CA  ALA F   3       1.742  30.972 -22.253  1.00 31.72 LIG 0.16  C 
ATOM     17  CB  ALA F   3       1.096  31.959 -23.256  0.00 20.00 LIG 0.04  C 
BRANCH 16 18
ATOM     18  C   ALA F   3       2.896  31.866 -21.807  1.00 32.37 LIG 0.22  C 
ATOM     19 O    ALA F   3       3.879  32.047 -22.540  1.00 33.75 LIG-0.29  OA
ENDBRANCH 16 18
ENDBRANCH 14 16
ENDBRANCH 1 12
BRANCH 1 20
ATOM     20  CB  HIS F   2      -1.147  32.527 -18.525  1.00 30.20 LIG 0.10  C 
BRANCH 20 21
ATOM     21  CG  HIS F   2      -2.097  32.225 -17.397  1.00 29.66 LIG 0.06  A 
ATOM     22 ND1  HIS F   2      -1.770  31.416 -16.327  1.00 29.25 LIG-0.24  NA
ATOM     23  CE1 HIS F   2      -2.810  31.312 -15.514  1.00 27.69 LIG 0.23  A 
ATOM     24 NE2  HIS F   2      -3.811  32.012 -16.026  1.00 31.40 LIG-0.25  NA
ATOM     25  CD2 HIS F   2      -3.395  32.580 -17.212  1.00 30.69 LIG 0.14  A 
ENDBRANCH 20 21
ENDBRANCH 1 20
TORSDOF 8
ENDMDL
MODEL 65
USER: ADFR SOLUTION from run 171
USER: SCORE 7.984019 LL:  -1.410 LR:  -6.771 RR:   0.000 FEB:  -4.384
USER: RMSD 5.449567
USER: SEED 170
USER: STATUS no improvement in best in 13 clusters for 5 generations
USER: GENES 10
USER: genes 0 Translation |==|  0.67907 0.56083 0.36491
USER: genes 1 Rotation |==|  0.58809 0.74490 0.60921 0.91272
USER: genes 2 Torsion [C]-CA--N-[C] |==|  0.16593
USER: genes 3 Torsion [N]-C--CA-[N] |==|  0.63902
USER: genes 4 Torsion [C]-CA--N-[H3] |==|  0.08109
USER: genes 5 Torsion [N]-CA--C-[N] |==|  0.14444
USER: genes 6 Torsion [C]-N--CA-[CB] |==|  0.49255
USER: genes 7 Torsion [N]-CA--C-[O] |==|  0.00233
USER: genes 8 Torsion [N]-CA--CB-[CG] |==|  0.59730
USER: genes 9 Torsion [CA]-CB--CG-[ND1] |==|  0.33327
ROOT
ATOM      1  CA  HIS F   2       1.717  31.292 -21.227  1.00 30.59 LIG 0.18  C 
ENDROOT
BRANCH 1 2
ATOM      2  N   HIS F   2       0.523  31.850 -21.870  1.00 30.70 LIG-0.35  N 
ATOM      3  C   ALA F   1       0.006  33.030 -21.532  1.00 31.15 LIG 0.25  C 
ATOM      4 O    ALA F   1       0.475  33.752 -20.647  1.00 30.37 LIG-0.27  OA
ATOM      5 H    HIS F   2       0.190  31.346 -22.483  1.00 30.70 LIG 0.16  HD
BRANCH 3 6
ATOM      6  CA  ALA F   1      -1.239  33.463 -22.316  1.00 31.15 LIG 0.27  C 
ATOM      7  CB  ALA F   1      -1.851  32.544 -22.926  0.00 20.00 LIG 0.05  C 
BRANCH 6 8
ATOM      8  N   ALA F   1      -1.098  34.860 -22.849  1.00 31.97 LIG-0.07  N 
ATOM      9 H3   ALA F   1      -0.239  35.036 -22.998  1.00 31.97 LIG 0.28  HD
ATOM     10 H1   ALA F   1      -1.553  34.936 -23.610  1.00 31.97 LIG 0.28  HD
ATOM     11 H2   ALA F   1      -1.419  35.439 -22.254  1.00 31.97 LIG 0.28  HD
ENDBRANCH 6 8
ENDBRANCH 3 6
ENDBRANCH 1 2
BRANCH 1 12
ATOM     12  C   HIS F   2       1.494  31.113 -19.719  1.00 31.15 LIG 0.24  C 
ATOM     13 O    HIS F   2       2.304  31.581 -18.898  1.00 30.80 LIG-0.27  OA
ATOM     14  N   ALA F   3       0.395  30.437 -19.364  1.00 30.97 LIG-0.35  N 
ATOM     15 H    ALA F   3      -0.169  30.116 -19.929  1.00 30.97 LIG 0.16  HD
BRANCH 14 16
ATOM     16  CA  ALA F   3       0.050  30.180 -17.968  1.00 31.72 LIG 0.16  C 
ATOM     17  CB  ALA F   3      -1.310  29.440 -17.983  0.00 20.00 LIG 0.04  C 
BRANCH 16 18
ATOM     18  C   ALA F   3       0.877  29.066 -17.329  1.00 32.37 LIG 0.22  C 
ATOM     19 O    ALA F   3       1.757  28.478 -17.974  1.00 33.75 LIG-0.29  OA
ENDBRANCH 16 18
ENDBRANCH 14 16
ENDBRANCH 1 12
BRANCH 1 20
ATOM     20  CB  HIS F   2       2.933  32.202 -21.468  1.00 30.20 LIG 0.10  C 
BRANCH 20 21
ATOM     21  CG  HIS F   2       4.239  31.471 -21.632  1.00 29.66 LIG 0.06  A 
ATOM     22 ND1  HIS F   2       5.015  31.552 -22.771  1.00 29.25 LIG-0.24  NA
ATOM     23  CE1 HIS F   2       6.084  30.782 -22.637  1.00 27.69 LIG 0.23  A 
ATOM     24 NE2  HIS F   2       6.025  30.188 -21.454  1.00 31.40 LIG-0.25  NA
ATOM     25  CD2 HIS F   2       4.871  30.590 -20.813  1.00 30.69 LIG 0.14  A 
ENDBRANCH 20 21
ENDBRANCH 1 20
TORSDOF 8
ENDMDL
MODEL 66
USER: ADFR SOLUTION from run 72
USER: SCORE 8.104888 LL:  -1.406 LR:  -6.770 RR:   0.000 FEB:  -4.384
USER: RMSD 3.419374
USER: SEED 71
USER: STATUS no improvement in best in 15 clusters for 5 generations
USER: GENES 10
USER: genes 0 Translation |==|  0.46732 0.72813 0.47026
USER: genes 1 Rotation |==|  0.63060 0.58139 0.50919 0.97564
USER: genes 2 Torsion [C]-CA--N-[C] |==|  0.76915
USER: genes 3 Torsion [N]-C--CA-[N] |==|  0.16390
USER: genes 4 Torsion [C]-CA--N-[H3] |==|  0.44751
USER: genes 5 Torsion [N]-CA--C-[N] |==|  0.46660
USER: genes 6 Torsion [C]-N--CA-[CB] |==|  0.23094
USER: genes 7 Torsion [N]-CA--C-[O] |==|  0.21991
USER: genes 8 Torsion [N]-CA--CB-[CG] |==|  0.51330
USER: genes 9 Torsion [CA]-CB--CG-[ND1] |==|  0.72565
ROOT
ATOM      1  CA  HIS F   2      -1.936  33.300 -19.567  1.00 30.59 LIG 0.18  C 
ENDROOT
BRANCH 1 2
ATOM      2  N   HIS F   2      -2.116  34.335 -20.590  1.00 30.70 LIG-0.35  N 
ATOM      3  C   ALA F   1      -3.009  34.232 -21.572  1.00 31.15 LIG 0.25  C 
ATOM      4 O    ALA F   1      -3.756  33.259 -21.716  1.00 30.37 LIG-0.27  OA
ATOM      5 H    HIS F   2      -1.592  35.011 -20.496  1.00 30.70 LIG 0.16  HD
BRANCH 3 6
ATOM      6  CA  ALA F   1      -3.069  35.414 -22.548  1.00 31.15 LIG 0.27  C 
ATOM      7  CB  ALA F   1      -4.181  35.603 -23.113  0.00 20.00 LIG 0.05  C 
BRANCH 6 8
ATOM      8  N   ALA F   1      -1.747  35.639 -23.224  1.00 31.97 LIG-0.07  N 
ATOM      9 H3   ALA F   1      -1.868  36.125 -23.959  1.00 31.97 LIG 0.28  HD
ATOM     10 H1   ALA F   1      -1.200  36.070 -22.670  1.00 31.97 LIG 0.28  HD
ATOM     11 H2   ALA F   1      -1.388  34.855 -23.443  1.00 31.97 LIG 0.28  HD
ENDBRANCH 6 8
ENDBRANCH 3 6
ENDBRANCH 1 2
BRANCH 1 12
ATOM     12  C   HIS F   2      -2.965  33.458 -18.440  1.00 31.15 LIG 0.24  C 
ATOM     13 O    HIS F   2      -3.656  34.490 -18.353  1.00 30.80 LIG-0.27  OA
ATOM     14  N   ALA F   3      -3.061  32.434 -17.585  1.00 30.97 LIG-0.35  N 
ATOM     15 H    ALA F   3      -2.588  31.718 -17.645  1.00 30.97 LIG 0.16  HD
BRANCH 14 16
ATOM     16  CA  ALA F   3      -3.990  32.440 -16.457  1.00 31.72 LIG 0.16  C 
ATOM     17  CB  ALA F   3      -5.361  31.989 -17.019  0.00 20.00 LIG 0.04  C 
BRANCH 16 18
ATOM     18  C   ALA F   3      -3.781  31.280 -15.487  1.00 32.37 LIG 0.22  C 
ATOM     19 O    ALA F   3      -2.872  31.312 -14.645  1.00 33.75 LIG-0.29  OA
ENDBRANCH 16 18
ENDBRANCH 14 16
ENDBRANCH 1 12
BRANCH 1 20
ATOM     20  CB  HIS F   2      -0.514  33.359 -18.985  1.00 30.20 LIG 0.10  C 
BRANCH 20 21
ATOM     21  CG  HIS F   2      -0.191  32.263 -18.005  1.00 29.66 LIG 0.06  A 
ATOM     22 ND1  HIS F   2      -0.246  32.430 -16.635  1.00 29.25 LIG-0.24  NA
ATOM     23  CE1 HIS F   2       0.117  31.307 -16.036  1.00 27.69 LIG 0.23  A 
ATOM     24 NE2  HIS F   2       0.423  30.416 -16.967  1.00 31.40 LIG-0.25  NA
ATOM     25  CD2 HIS F   2       0.253  30.996 -18.208  1.00 30.69 LIG 0.14  A 
ENDBRANCH 20 21
ENDBRANCH 1 20
TORSDOF 8
ENDMDL
MODEL 67
USER: ADFR SOLUTION from run 94
USER: SCORE 8.061033 LL:  -1.390 LR:  -6.755 RR:   0.000 FEB:  -4.369
USER: RMSD 6.253757
USER: SEED 93
USER: STATUS no improvement in best in 14 clusters for 5 generations
USER: GENES 10
USER: genes 0 Translation |==|  0.33821 0.56278 0.65583
USER: genes 1 Rotation |==|  0.57452 0.86587 0.80887 0.62324
USER: genes 2 Torsion [C]-CA--N-[C] |==|  0.78463
USER: genes 3 Torsion [N]-C--CA-[N] |==|  0.48203
USER: genes 4 Torsion [C]-CA--N-[H3] |==|  0.69918
USER: genes 5 Torsion [N]-CA--C-[N] |==|  0.34295
USER: genes 6 Torsion [C]-N--CA-[CB] |==|  0.43398
USER: genes 7 Torsion [N]-CA--C-[O] |==|  0.28162
USER: genes 8 Torsion [N]-CA--CB-[CG] |==|  0.60247
USER: genes 9 Torsion [CA]-CB--CG-[ND1] |==|  0.43080
ROOT
ATOM      1  CA  HIS F   2      -4.163  31.315 -16.645  1.00 30.59 LIG 0.18  C 
ENDROOT
BRANCH 1 2
ATOM      2  N   HIS F   2      -5.173  30.364 -16.168  1.00 30.70 LIG-0.35  N 
ATOM      3  C   ALA F   1      -5.147  29.069 -16.478  1.00 31.15 LIG 0.25  C 
ATOM      4 O    ALA F   1      -4.284  28.556 -17.196  1.00 30.37 LIG-0.27  OA
ATOM      5 H    HIS F   2      -5.779  30.721 -15.673  1.00 30.70 LIG 0.16  HD
BRANCH 3 6
ATOM      6  CA  ALA F   1      -6.277  28.218 -15.884  1.00 31.15 LIG 0.27  C 
ATOM      7  CB  ALA F   1      -6.623  28.510 -14.706  0.00 20.00 LIG 0.05  C 
BRANCH 6 8
ATOM      8  N   ALA F   1      -6.247  26.814 -16.416  1.00 31.97 LIG-0.07  N 
ATOM      9 H3   ALA F   1      -6.930  26.692 -16.973  1.00 31.97 LIG 0.28  HD
ATOM     10 H1   ALA F   1      -5.482  26.676 -16.849  1.00 31.97 LIG 0.28  HD
ATOM     11 H2   ALA F   1      -6.311  26.239 -15.740  1.00 31.97 LIG 0.28  HD
ENDBRANCH 6 8
ENDBRANCH 3 6
ENDBRANCH 1 2
BRANCH 1 12
ATOM     12  C   HIS F   2      -2.864  31.186 -15.838  1.00 31.15 LIG 0.24  C 
ATOM     13 O    HIS F   2      -2.872  31.312 -14.599  1.00 30.80 LIG-0.27  OA
ATOM     14  N   ALA F   3      -1.756  30.934 -16.544  1.00 30.97 LIG-0.35  N 
ATOM     15 H    ALA F   3      -1.748  30.842 -17.399  1.00 30.97 LIG 0.16  HD
BRANCH 14 16
ATOM     16  CA  ALA F   3      -0.444  30.790 -15.918  1.00 31.72 LIG 0.16  C 
ATOM     17  CB  ALA F   3       0.412  29.941 -16.889  0.00 20.00 LIG 0.04  C 
BRANCH 16 18
ATOM     18  C   ALA F   3       0.399  32.062 -15.968  1.00 32.37 LIG 0.22  C 
ATOM     19 O    ALA F   3       0.503  32.795 -14.974  1.00 33.75 LIG-0.29  OA
ENDBRANCH 16 18
ENDBRANCH 14 16
ENDBRANCH 1 12
BRANCH 1 20
ATOM     20  CB  HIS F   2      -4.693  32.756 -16.550  1.00 30.20 LIG 0.10  C 
BRANCH 20 21
ATOM     21  CG  HIS F   2      -4.265  33.657 -17.678  1.00 29.66 LIG 0.06  A 
ATOM     22 ND1  HIS F   2      -4.977  34.773 -18.068  1.00 29.25 LIG-0.24  NA
ATOM     23  CE1 HIS F   2      -4.376  35.346 -19.099  1.00 27.69 LIG 0.23  A 
ATOM     24 NE2  HIS F   2      -3.304  34.632 -19.406  1.00 31.40 LIG-0.25  NA
ATOM     25  CD2 HIS F   2      -3.221  33.560 -18.542  1.00 30.69 LIG 0.14  A 
ENDBRANCH 20 21
ENDBRANCH 1 20
TORSDOF 8
ENDMDL
MODEL 68
USER: ADFR SOLUTION from run 54
USER: SCORE 7.829740 LL:  -1.581 LR:  -6.755 RR:   0.000 FEB:  -4.368
USER: RMSD 7.315358
USER: SEED 53
USER: STATUS no improvement in best in 19 clusters for 5 generations
USER: GENES 10
USER: genes 0 Translation |==|  0.61587 0.62039 0.46051
USER: genes 1 Rotation |==|  0.74032 0.93360 0.55851 0.52855
USER: genes 2 Torsion [C]-CA--N-[C] |==|  0.71562
USER: genes 3 Torsion [N]-C--CA-[N] |==|  0.40696
USER: genes 4 Torsion [C]-CA--N-[H3] |==|  0.24804
USER: genes 5 Torsion [N]-CA--C-[N] |==|  0.81733
USER: genes 6 Torsion [C]-N--CA-[CB] |==|  0.84494
USER: genes 7 Torsion [N]-CA--C-[O] |==|  0.20002
USER: genes 8 Torsion [N]-CA--CB-[CG] |==|  0.45770
USER: genes 9 Torsion [CA]-CB--CG-[ND1] |==|  0.73357
ROOT
ATOM      1  CA  HIS F   2       0.627  32.007 -19.721  1.00 30.59 LIG 0.18  C 
ENDROOT
BRANCH 1 2
ATOM      2  N   HIS F   2       0.497  32.210 -18.274  1.00 30.70 LIG-0.35  N 
ATOM      3  C   ALA F   1      -0.263  31.435 -17.502  1.00 31.15 LIG 0.25  C 
ATOM      4 O    ALA F   1      -0.930  30.488 -17.931  1.00 30.37 LIG-0.27  OA
ATOM      5 H    HIS F   2       0.955  32.873 -17.974  1.00 30.70 LIG 0.16  HD
BRANCH 3 6
ATOM      6  CA  ALA F   1      -0.274  31.786 -16.009  1.00 31.15 LIG 0.27  C 
ATOM      7  CB  ALA F   1       0.822  31.639 -15.402  0.00 20.00 LIG 0.05  C 
BRANCH 6 8
ATOM      8  N   ALA F   1      -1.611  31.502 -15.385  1.00 31.97 LIG-0.07  N 
ATOM      9 H3   ALA F   1      -1.628  30.665 -15.086  1.00 31.97 LIG 0.28  HD
ATOM     10 H1   ALA F   1      -1.747  32.062 -14.707  1.00 31.97 LIG 0.28  HD
ATOM     11 H2   ALA F   1      -2.251  31.613 -15.993  1.00 31.97 LIG 0.28  HD
ENDBRANCH 6 8
ENDBRANCH 3 6
ENDBRANCH 1 2
BRANCH 1 12
ATOM     12  C   HIS F   2       1.956  31.319 -20.060  1.00 31.15 LIG 0.24  C 
ATOM     13 O    HIS F   2       1.972  30.173 -20.545  1.00 30.80 LIG-0.27  OA
ATOM     14  N   ALA F   3       3.064  32.025 -19.805  1.00 30.97 LIG-0.35  N 
ATOM     15 H    ALA F   3       3.057  32.819 -19.474  1.00 30.97 LIG 0.16  HD
BRANCH 14 16
ATOM     16  CA  ALA F   3       4.403  31.503 -20.068  1.00 31.72 LIG 0.16  C 
ATOM     17  CB  ALA F   3       4.509  30.165 -19.296  0.00 20.00 LIG 0.04  C 
BRANCH 16 18
ATOM     18  C   ALA F   3       4.573  30.937 -21.475  1.00 32.37 LIG 0.22  C 
ATOM     19 O    ALA F   3       4.621  31.687 -22.460  1.00 33.75 LIG-0.29  OA
ENDBRANCH 16 18
ENDBRANCH 14 16
ENDBRANCH 1 12
BRANCH 1 20
ATOM     20  CB  HIS F   2       0.532  33.350 -20.464  1.00 30.20 LIG 0.10  C 
BRANCH 20 21
ATOM     21  CG  HIS F   2       1.005  33.310 -21.893  1.00 29.66 LIG 0.06  A 
ATOM     22 ND1  HIS F   2       2.281  33.671 -22.279  1.00 29.25 LIG-0.24  NA
ATOM     23  CE1 HIS F   2       2.395  33.562 -23.593  1.00 27.69 LIG 0.23  A 
ATOM     24 NE2  HIS F   2       1.232  33.157 -24.081  1.00 31.40 LIG-0.25  NA
ATOM     25  CD2 HIS F   2       0.341  33.008 -23.039  1.00 30.69 LIG 0.14  A 
ENDBRANCH 20 21
ENDBRANCH 1 20
TORSDOF 8
ENDMDL
MODEL 69
USER: ADFR SOLUTION from run 77
USER: SCORE 8.171687 LL:  -1.619 LR:  -6.749 RR:   0.000 FEB:  -4.363
USER: RMSD 5.281030
USER: SEED 76
USER: STATUS no improvement in best in 27 clusters for 5 generations
USER: GENES 10
USER: genes 0 Translation |==|  0.60195 0.68225 0.43165
USER: genes 1 Rotation |==|  0.48700 0.53655 0.96372 0.68293
USER: genes 2 Torsion [C]-CA--N-[C] |==|  0.55946
USER: genes 3 Torsion [N]-C--CA-[N] |==|  0.41669
USER: genes 4 Torsion [C]-CA--N-[H3] |==|  0.31722
USER: genes 5 Torsion [N]-CA--C-[N] |==|  0.48333
USER: genes 6 Torsion [C]-N--CA-[CB] |==|  0.27467
USER: genes 7 Torsion [N]-CA--C-[O] |==|  0.06536
USER: genes 8 Torsion [N]-CA--CB-[CG] |==|  0.28729
USER: genes 9 Torsion [CA]-CB--CG-[ND1] |==|  0.27556
ROOT
ATOM      1  CA  HIS F   2       0.387  32.749 -20.176  1.00 30.59 LIG 0.18  C 
ENDROOT
BRANCH 1 2
ATOM      2  N   HIS F   2      -0.064  32.442 -21.537  1.00 30.70 LIG-0.35  N 
ATOM      3  C   ALA F   1      -0.152  33.365 -22.493  1.00 31.15 LIG 0.25  C 
ATOM      4 O    ALA F   1       0.126  34.556 -22.320  1.00 30.37 LIG-0.27  OA
ATOM      5 H    HIS F   2      -0.265  31.615 -21.659  1.00 30.70 LIG 0.16  HD
BRANCH 3 6
ATOM      6  CA  ALA F   1      -0.632  32.866 -23.862  1.00 31.15 LIG 0.27  C 
ATOM      7  CB  ALA F   1       0.101  32.005 -24.420  0.00 20.00 LIG 0.05  C 
BRANCH 6 8
ATOM      8  N   ALA F   1      -1.372  33.937 -24.612  1.00 31.97 LIG-0.07  N 
ATOM      9 H3   ALA F   1      -0.910  34.165 -25.337  1.00 31.97 LIG 0.28  HD
ATOM     10 H1   ALA F   1      -2.172  33.632 -24.853  1.00 31.97 LIG 0.28  HD
ATOM     11 H2   ALA F   1      -1.472  34.650 -24.089  1.00 31.97 LIG 0.28  HD
ENDBRANCH 6 8
ENDBRANCH 3 6
ENDBRANCH 1 2
BRANCH 1 12
ATOM     12  C   HIS F   2       0.889  31.484 -19.467  1.00 31.15 LIG 0.24  C 
ATOM     13 O    HIS F   2       0.778  30.368 -20.007  1.00 30.80 LIG-0.27  OA
ATOM     14  N   ALA F   3       1.441  31.667 -18.262  1.00 30.97 LIG-0.35  N 
ATOM     15 H    ALA F   3       1.524  32.437 -17.888  1.00 30.97 LIG 0.16  HD
BRANCH 14 16
ATOM     16  CA  ALA F   3       1.960  30.559 -17.462  1.00 31.72 LIG 0.16  C 
ATOM     17  CB  ALA F   3       3.492  30.540 -17.686  0.00 20.00 LIG 0.04  C 
BRANCH 16 18
ATOM     18  C   ALA F   3       1.981  30.845 -15.963  1.00 32.37 LIG 0.22  C 
ATOM     19 O    ALA F   3       1.224  31.692 -15.467  1.00 33.75 LIG-0.29  OA
ENDBRANCH 16 18
ENDBRANCH 14 16
ENDBRANCH 1 12
BRANCH 1 20
ATOM     20  CB  HIS F   2      -0.754  33.382 -19.361  1.00 30.20 LIG 0.10  C 
BRANCH 20 21
ATOM     21  CG  HIS F   2      -1.412  32.453 -18.377  1.00 29.66 LIG 0.06  A 
ATOM     22 ND1  HIS F   2      -1.109  32.437 -17.029  1.00 29.25 LIG-0.24  NA
ATOM     23  CE1 HIS F   2      -1.822  31.500 -16.424  1.00 27.69 LIG 0.23  A 
ATOM     24 NE2  HIS F   2      -2.568  30.891 -17.334  1.00 31.40 LIG-0.25  NA
ATOM     25  CD2 HIS F   2      -2.317  31.458 -18.566  1.00 30.69 LIG 0.14  A 
ENDBRANCH 20 21
ENDBRANCH 1 20
TORSDOF 8
ENDMDL
MODEL 70
USER: ADFR SOLUTION from run 132
USER: SCORE 8.038342 LL:  -1.424 LR:  -6.749 RR:   0.000 FEB:  -4.362
USER: RMSD 4.836321
USER: SEED 131
USER: STATUS no improvement in best in 20 clusters for 5 generations
USER: GENES 10
USER: genes 0 Translation |==|  0.50432 0.61734 0.68215
USER: genes 1 Rotation |==|  0.11478 0.55280 0.20946 0.62002
USER: genes 2 Torsion [C]-CA--N-[C] |==|  0.78362
USER: genes 3 Torsion [N]-C--CA-[N] |==|  0.15695
USER: genes 4 Torsion [C]-CA--N-[H3] |==|  0.30051
USER: genes 5 Torsion [N]-CA--C-[N] |==|  0.48266
USER: genes 6 Torsion [C]-N--CA-[CB] |==|  0.83997
USER: genes 7 Torsion [N]-CA--C-[O] |==|  0.28227
USER: genes 8 Torsion [N]-CA--CB-[CG] |==|  0.27250
USER: genes 9 Torsion [CA]-CB--CG-[ND1] |==|  0.29655
ROOT
ATOM      1  CA  HIS F   2      -1.298  31.970 -16.230  1.00 30.59 LIG 0.18  C 
ENDROOT
BRANCH 1 2
ATOM      2  N   HIS F   2      -2.495  31.191 -15.900  1.00 30.70 LIG-0.35  N 
ATOM      3  C   ALA F   1      -3.724  31.701 -15.949  1.00 31.15 LIG 0.25  C 
ATOM      4 O    ALA F   1      -3.966  32.870 -16.265  1.00 30.37 LIG-0.27  OA
ATOM      5 H    HIS F   2      -2.329  30.378 -15.673  1.00 30.70 LIG 0.16  HD
BRANCH 3 6
ATOM      6  CA  ALA F   1      -4.862  30.740 -15.581  1.00 31.15 LIG 0.27  C 
ATOM      7  CB  ALA F   1      -5.993  31.018 -16.066  0.00 20.00 LIG 0.05  C 
BRANCH 6 8
ATOM      8  N   ALA F   1      -4.669  30.155 -14.211  1.00 31.97 LIG-0.07  N 
ATOM      9 H3   ALA F   1      -5.262  30.509 -13.650  1.00 31.97 LIG 0.28  HD
ATOM     10 H1   ALA F   1      -4.784  29.273 -14.246  1.00 31.97 LIG 0.28  HD
ATOM     11 H2   ALA F   1      -3.846  30.335 -13.925  1.00 31.97 LIG 0.28  HD
ENDBRANCH 6 8
ENDBRANCH 3 6
ENDBRANCH 1 2
BRANCH 1 12
ATOM     12  C   HIS F   2      -1.133  32.104 -17.750  1.00 31.15 LIG 0.24  C 
ATOM     13 O    HIS F   2      -1.890  31.493 -18.526  1.00 30.80 LIG-0.27  OA
ATOM     14  N   ALA F   3      -0.145  32.905 -18.165  1.00 30.97 LIG-0.35  N 
ATOM     15 H    ALA F   3       0.377  33.333 -17.632  1.00 30.97 LIG 0.16  HD
BRANCH 14 16
ATOM     16  CA  ALA F   3       0.140  33.129 -19.581  1.00 31.72 LIG 0.16  C 
ATOM     17  CB  ALA F   3       0.418  31.735 -20.195  0.00 20.00 LIG 0.04  C 
BRANCH 16 18
ATOM     18  C   ALA F   3      -1.098  33.468 -20.407  1.00 32.37 LIG 0.22  C 
ATOM     19 O    ALA F   3      -1.342  34.637 -20.737  1.00 33.75 LIG-0.29  OA
ENDBRANCH 16 18
ENDBRANCH 14 16
ENDBRANCH 1 12
BRANCH 1 20
ATOM     20  CB  HIS F   2      -0.044  31.313 -15.628  1.00 30.20 LIG 0.10  C 
BRANCH 20 21
ATOM     21  CG  HIS F   2       0.737  30.457 -16.589  1.00 29.66 LIG 0.06  A 
ATOM     22 ND1  HIS F   2       1.952  30.835 -17.125  1.00 29.25 LIG-0.24  NA
ATOM     23  CE1 HIS F   2       2.383  29.898 -17.955  1.00 27.69 LIG 0.23  A 
ATOM     24 NE2  HIS F   2       1.482  28.927 -17.992  1.00 31.40 LIG-0.25  NA
ATOM     25  CD2 HIS F   2       0.435  29.261 -17.157  1.00 30.69 LIG 0.14  A 
ENDBRANCH 20 21
ENDBRANCH 1 20
TORSDOF 8
ENDMDL
MODEL 71
USER: ADFR SOLUTION from run 33
USER: SCORE 7.999405 LL:  -1.451 LR:  -6.735 RR:   0.000 FEB:  -4.349
USER: RMSD 5.304651
USER: SEED 32
USER: STATUS no improvement in best in 30 clusters for 5 generations
USER: GENES 10
USER: genes 0 Translation |==|  0.30493 0.55361 0.70720
USER: genes 1 Rotation |==|  0.09195 0.47882 0.78803 0.50893
USER: genes 2 Torsion [C]-CA--N-[C] |==|  0.54071
USER: genes 3 Torsion [N]-C--CA-[N] |==|  0.18261
USER: genes 4 Torsion [C]-CA--N-[H3] |==|  0.28606
USER: genes 5 Torsion [N]-CA--C-[N] |==|  0.46469
USER: genes 6 Torsion [C]-N--CA-[CB] |==|  0.51432
USER: genes 7 Torsion [N]-CA--C-[O] |==|  0.50910
USER: genes 8 Torsion [N]-CA--CB-[CG] |==|  0.16979
USER: genes 9 Torsion [CA]-CB--CG-[ND1] |==|  0.23223
ROOT
ATOM      1  CA  HIS F   2      -4.737  31.205 -15.836  1.00 30.59 LIG 0.18  C 
ENDROOT
BRANCH 1 2
ATOM      2  N   HIS F   2      -3.318  30.888 -15.641  1.00 30.70 LIG-0.35  N 
ATOM      3  C   ALA F   1      -2.337  31.619 -16.165  1.00 31.15 LIG 0.25  C 
ATOM      4 O    ALA F   1      -2.529  32.619 -16.865  1.00 30.37 LIG-0.27  OA
ATOM      5 H    HIS F   2      -3.182  30.188 -15.159  1.00 30.70 LIG 0.16  HD
BRANCH 3 6
ATOM      6  CA  ALA F   1      -0.911  31.148 -15.851  1.00 31.15 LIG 0.27  C 
ATOM      7  CB  ALA F   1      -0.047  32.059 -15.724  0.00 20.00 LIG 0.05  C 
BRANCH 6 8
ATOM      8  N   ALA F   1      -0.622  29.812 -16.474  1.00 31.97 LIG-0.07  N 
ATOM      9 H3   ALA F   1      -0.119  29.925 -17.199  1.00 31.97 LIG 0.28  HD
ATOM     10 H1   ALA F   1      -0.189  29.299 -15.890  1.00 31.97 LIG 0.28  HD
ATOM     11 H2   ALA F   1      -1.387  29.419 -16.702  1.00 31.97 LIG 0.28  HD
ENDBRANCH 6 8
ENDBRANCH 3 6
ENDBRANCH 1 2
BRANCH 1 12
ATOM     12  C   HIS F   2      -5.613  30.430 -14.843  1.00 31.15 LIG 0.24  C 
ATOM     13 O    HIS F   2      -5.140  29.489 -14.179  1.00 30.80 LIG-0.27  OA
ATOM     14  N   ALA F   3      -6.886  30.830 -14.746  1.00 30.97 LIG-0.35  N 
ATOM     15 H    ALA F   3      -7.216  31.483 -15.199  1.00 30.97 LIG 0.16  HD
BRANCH 14 16
ATOM     16  CA  ALA F   3      -7.844  30.187 -13.849  1.00 31.72 LIG 0.16  C 
ATOM     17  CB  ALA F   3      -9.216  30.849 -14.128  0.00 20.00 LIG 0.04  C 
BRANCH 16 18
ATOM     18  C   ALA F   3      -8.216  28.768 -14.270  1.00 32.37 LIG 0.22  C 
ATOM     19 O    ALA F   3      -9.064  28.120 -13.639  1.00 33.75 LIG-0.29  OA
ENDBRANCH 16 18
ENDBRANCH 14 16
ENDBRANCH 1 12
BRANCH 1 20
ATOM     20  CB  HIS F   2      -5.170  30.879 -17.275  1.00 30.20 LIG 0.10  C 
BRANCH 20 21
ATOM     21  CG  HIS F   2      -5.028  29.430 -17.658  1.00 29.66 LIG 0.06  A 
ATOM     22 ND1  HIS F   2      -5.980  28.473 -17.367  1.00 29.25 LIG-0.24  NA
ATOM     23  CE1 HIS F   2      -5.568  27.291 -17.800  1.00 27.69 LIG 0.23  A 
ATOM     24 NE2  HIS F   2      -4.372  27.441 -18.349  1.00 31.40 LIG-0.25  NA
ATOM     25  CD2 HIS F   2      -4.005  28.768 -18.258  1.00 30.69 LIG 0.14  A 
ENDBRANCH 20 21
ENDBRANCH 1 20
TORSDOF 8
ENDMDL
MODEL 72
USER: ADFR SOLUTION from run 63
USER: SCORE 7.984476 LL:  -1.544 LR:  -6.736 RR:   0.000 FEB:  -4.349
USER: RMSD 5.848220
USER: SEED 62
USER: STATUS no improvement in best in 13 clusters for 5 generations
USER: GENES 10
USER: genes 0 Translation |==|  0.59816 0.68811 0.43729
USER: genes 1 Rotation |==|  0.47325 0.57411 0.90395 0.78393
USER: genes 2 Torsion [C]-CA--N-[C] |==|  0.54170
USER: genes 3 Torsion [N]-C--CA-[N] |==|  0.36402
USER: genes 4 Torsion [C]-CA--N-[H3] |==|  0.98145
USER: genes 5 Torsion [N]-CA--C-[N] |==|  0.49406
USER: genes 6 Torsion [C]-N--CA-[CB] |==|  0.20565
USER: genes 7 Torsion [N]-CA--C-[O] |==|  0.14669
USER: genes 8 Torsion [N]-CA--CB-[CG] |==|  0.09897
USER: genes 9 Torsion [CA]-CB--CG-[ND1] |==|  0.74510
ROOT
ATOM      1  CA  HIS F   2       0.321  32.819 -20.087  1.00 30.59 LIG 0.18  C 
ENDROOT
BRANCH 1 2
ATOM      2  N   HIS F   2      -0.230  32.521 -21.413  1.00 30.70 LIG-0.35  N 
ATOM      3  C   ALA F   1       0.002  33.284 -22.479  1.00 31.15 LIG 0.25  C 
ATOM      4 O    ALA F   1       0.689  34.310 -22.448  1.00 30.37 LIG-0.27  OA
ATOM      5 H    HIS F   2      -0.714  31.810 -21.436  1.00 30.70 LIG 0.16  HD
BRANCH 3 6
ATOM      6  CA  ALA F   1      -0.645  32.817 -23.789  1.00 31.15 LIG 0.27  C 
ATOM      7  CB  ALA F   1      -0.036  31.900 -24.406  0.00 20.00 LIG 0.05  C 
BRANCH 6 8
ATOM      8  N   ALA F   1      -1.371  33.937 -24.476  1.00 31.97 LIG-0.07  N 
ATOM      9 H3   ALA F   1      -1.378  34.654 -23.950  1.00 31.97 LIG 0.28  HD
ATOM     10 H1   ALA F   1      -0.959  34.134 -25.240  1.00 31.97 LIG 0.28  HD
ATOM     11 H2   ALA F   1      -2.208  33.688 -24.648  1.00 31.97 LIG 0.28  HD
ENDBRANCH 6 8
ENDBRANCH 3 6
ENDBRANCH 1 2
BRANCH 1 12
ATOM     12  C   HIS F   2       0.206  31.603 -19.159  1.00 31.15 LIG 0.24  C 
ATOM     13 O    HIS F   2      -0.338  30.554 -19.552  1.00 30.80 LIG-0.27  OA
ATOM     14  N   ALA F   3       0.720  31.749 -17.932  1.00 30.97 LIG-0.35  N 
ATOM     15 H    ALA F   3       1.100  32.471 -17.658  1.00 30.97 LIG 0.16  HD
BRANCH 14 16
ATOM     16  CA  ALA F   3       0.681  30.683 -16.934  1.00 31.72 LIG 0.16  C 
ATOM     17  CB  ALA F   3       1.735  29.636 -17.372  0.00 20.00 LIG 0.04  C 
BRANCH 16 18
ATOM     18  C   ALA F   3       1.321  31.067 -15.603  1.00 32.37 LIG 0.22  C 
ATOM     19 O    ALA F   3       0.977  32.097 -15.006  1.00 33.75 LIG-0.29  OA
ENDBRANCH 16 18
ENDBRANCH 14 16
ENDBRANCH 1 12
BRANCH 1 20
ATOM     20  CB  HIS F   2      -0.405  34.021 -19.460  1.00 30.20 LIG 0.10  C 
BRANCH 20 21
ATOM     21  CG  HIS F   2      -1.875  34.100 -19.778  1.00 29.66 LIG 0.06  A 
ATOM     22 ND1  HIS F   2      -2.380  34.801 -20.855  1.00 29.25 LIG-0.24  NA
ATOM     23  CE1 HIS F   2      -3.702  34.714 -20.860  1.00 27.69 LIG 0.23  A 
ATOM     24 NE2  HIS F   2      -4.077  33.994 -19.814  1.00 31.40 LIG-0.25  NA
ATOM     25  CD2 HIS F   2      -2.953  33.612 -19.111  1.00 30.69 LIG 0.14  A 
ENDBRANCH 20 21
ENDBRANCH 1 20
TORSDOF 8
ENDMDL
MODEL 73
USER: ADFR SOLUTION from run 125
USER: SCORE 7.921353 LL:  -1.235 LR:  -6.728 RR:   0.000 FEB:  -4.341
USER: RMSD 5.094546
USER: SEED 124
USER: STATUS no improvement in best in 22 clusters for 5 generations
USER: GENES 10
USER: genes 0 Translation |==|  0.46316 0.48537 0.54108
USER: genes 1 Rotation |==|  0.66136 0.53946 0.05116 0.64474
USER: genes 2 Torsion [C]-CA--N-[C] |==|  0.83173
USER: genes 3 Torsion [N]-C--CA-[N] |==|  0.01441
USER: genes 4 Torsion [C]-CA--N-[H3] |==|  0.03440
USER: genes 5 Torsion [N]-CA--C-[N] |==|  0.88926
USER: genes 6 Torsion [C]-N--CA-[CB] |==|  0.52658
USER: genes 7 Torsion [N]-CA--C-[O] |==|  0.24791
USER: genes 8 Torsion [N]-CA--CB-[CG] |==|  0.52096
USER: genes 9 Torsion [CA]-CB--CG-[ND1] |==|  0.53564
ROOT
ATOM      1  CA  HIS F   2      -2.007  30.386 -18.452  1.00 30.59 LIG 0.18  C 
ENDROOT
BRANCH 1 2
ATOM      2  N   HIS F   2      -1.215  30.419 -19.685  1.00 30.70 LIG-0.35  N 
ATOM      3  C   ALA F   1      -0.327  31.376 -19.948  1.00 31.15 LIG 0.25  C 
ATOM      4 O    ALA F   1      -0.098  32.322 -19.187  1.00 30.37 LIG-0.27  OA
ATOM      5 H    HIS F   2      -1.377  29.765 -20.220  1.00 30.70 LIG 0.16  HD
BRANCH 3 6
ATOM      6  CA  ALA F   1       0.421  31.248 -21.281  1.00 31.15 LIG 0.27  C 
ATOM      7  CB  ALA F   1       0.839  32.328 -21.782  0.00 20.00 LIG 0.05  C 
BRANCH 6 8
ATOM      8  N   ALA F   1      -0.102  30.102 -22.099  1.00 31.97 LIG-0.07  N 
ATOM      9 H3   ALA F   1      -0.867  29.812 -21.749  1.00 31.97 LIG 0.28  HD
ATOM     10 H1   ALA F   1      -0.242  30.373 -22.935  1.00 31.97 LIG 0.28  HD
ATOM     11 H2   ALA F   1       0.493  29.441 -22.099  1.00 31.97 LIG 0.28  HD
ENDBRANCH 6 8
ENDBRANCH 3 6
ENDBRANCH 1 2
BRANCH 1 12
ATOM     12  C   HIS F   2      -1.099  30.291 -17.219  1.00 31.15 LIG 0.24  C 
ATOM     13 O    HIS F   2      -1.360  30.936 -16.187  1.00 30.80 LIG-0.27  OA
ATOM     14  N   ALA F   3      -0.036  29.486 -17.333  1.00 30.97 LIG-0.35  N 
ATOM     15 H    ALA F   3       0.145  29.035 -18.043  1.00 30.97 LIG 0.16  HD
BRANCH 14 16
ATOM     16  CA  ALA F   3       0.923  29.297 -16.248  1.00 31.72 LIG 0.16  C 
ATOM     17  CB  ALA F   3       2.111  28.505 -16.849  0.00 20.00 LIG 0.04  C 
BRANCH 16 18
ATOM     18  C   ALA F   3       1.692  30.564 -15.884  1.00 32.37 LIG 0.22  C 
ATOM     19 O    ALA F   3       1.253  31.352 -15.033  1.00 33.75 LIG-0.29  OA
ENDBRANCH 16 18
ENDBRANCH 14 16
ENDBRANCH 1 12
BRANCH 1 20
ATOM     20  CB  HIS F   2      -2.984  29.198 -18.471  1.00 30.20 LIG 0.10  C 
BRANCH 20 21
ATOM     21  CG  HIS F   2      -3.967  29.178 -17.331  1.00 29.66 LIG 0.06  A 
ATOM     22 ND1  HIS F   2      -4.747  28.081 -17.022  1.00 29.25 LIG-0.24  NA
ATOM     23  CE1 HIS F   2      -5.532  28.368 -15.995  1.00 27.69 LIG 0.23  A 
ATOM     24 NE2  HIS F   2      -5.303  29.621 -15.633  1.00 31.40 LIG-0.25  NA
ATOM     25  CD2 HIS F   2      -4.340  30.155 -16.464  1.00 30.69 LIG 0.14  A 
ENDBRANCH 20 21
ENDBRANCH 1 20
TORSDOF 8
ENDMDL
MODEL 74
USER: ADFR SOLUTION from run 148
USER: SCORE 7.971380 LL:  -1.265 LR:  -6.719 RR:   0.000 FEB:  -4.332
USER: RMSD 5.203957
USER: SEED 147
USER: STATUS no improvement in best in 18 clusters for 5 generations
USER: GENES 10
USER: genes 0 Translation |==|  0.57845 0.73345 0.32866
USER: genes 1 Rotation |==|  0.64576 0.69436 0.51791 0.93664
USER: genes 2 Torsion [C]-CA--N-[C] |==|  0.83606
USER: genes 3 Torsion [N]-C--CA-[N] |==|  0.20988
USER: genes 4 Torsion [C]-CA--N-[H3] |==|  0.97865
USER: genes 5 Torsion [N]-CA--C-[N] |==|  0.36277
USER: genes 6 Torsion [C]-N--CA-[CB] |==|  0.56106
USER: genes 7 Torsion [N]-CA--C-[O] |==|  0.51537
USER: genes 8 Torsion [N]-CA--CB-[CG] |==|  0.55044
USER: genes 9 Torsion [CA]-CB--CG-[ND1] |==|  0.37798
ROOT
ATOM      1  CA  HIS F   2      -0.019  33.363 -21.798  1.00 30.59 LIG 0.18  C 
ENDROOT
BRANCH 1 2
ATOM      2  N   HIS F   2      -0.753  34.416 -22.507  1.00 30.70 LIG-0.35  N 
ATOM      3  C   ALA F   1      -2.081  34.428 -22.609  1.00 31.15 LIG 0.25  C 
ATOM      4 O    ALA F   1      -2.809  33.554 -22.127  1.00 30.37 LIG-0.27  OA
ATOM      5 H    HIS F   2      -0.247  35.023 -22.849  1.00 30.70 LIG 0.16  HD
BRANCH 3 6
ATOM      6  CA  ALA F   1      -2.682  35.611 -23.378  1.00 31.15 LIG 0.27  C 
ATOM      7  CB  ALA F   1      -3.698  36.146 -22.854  0.00 20.00 LIG 0.05  C 
BRANCH 6 8
ATOM      8  N   ALA F   1      -2.497  35.458 -24.860  1.00 31.97 LIG-0.07  N 
ATOM      9 H3   ALA F   1      -1.971  34.759 -25.023  1.00 31.97 LIG 0.28  HD
ATOM     10 H1   ALA F   1      -3.288  35.330 -25.247  1.00 31.97 LIG 0.28  HD
ATOM     11 H2   ALA F   1      -2.122  36.194 -25.190  1.00 31.97 LIG 0.28  HD
ENDBRANCH 6 8
ENDBRANCH 3 6
ENDBRANCH 1 2
BRANCH 1 12
ATOM     12  C   HIS F   2      -0.456  33.285 -20.329  1.00 31.15 LIG 0.24  C 
ATOM     13 O    HIS F   2      -0.510  34.312 -19.627  1.00 30.80 LIG-0.27  OA
ATOM     14  N   ALA F   3      -0.766  32.066 -19.873  1.00 30.97 LIG-0.35  N 
ATOM     15 H    ALA F   3      -0.734  31.354 -20.356  1.00 30.97 LIG 0.16  HD
BRANCH 14 16
ATOM     16  CA  ALA F   3      -1.194  31.830 -18.496  1.00 31.72 LIG 0.16  C 
ATOM     17  CB  ALA F   3      -0.914  30.335 -18.202  0.00 20.00 LIG 0.04  C 
BRANCH 16 18
ATOM     18  C   ALA F   3      -0.247  32.419 -17.453  1.00 32.37 LIG 0.22  C 
ATOM     19 O    ALA F   3      -0.424  32.211 -16.244  1.00 33.75 LIG-0.29  OA
ENDBRANCH 16 18
ENDBRANCH 14 16
ENDBRANCH 1 12
BRANCH 1 20
ATOM     20  CB  HIS F   2       1.496  33.617 -21.876  1.00 30.20 LIG 0.10  C 
BRANCH 20 21
ATOM     21  CG  HIS F   2       2.349  32.414 -21.571  1.00 29.66 LIG 0.06  A 
ATOM     22 ND1  HIS F   2       3.457  32.062 -22.316  1.00 29.25 LIG-0.24  NA
ATOM     23  CE1 HIS F   2       3.984  30.949 -21.830  1.00 27.69 LIG 0.23  A 
ATOM     24 NE2  HIS F   2       3.248  30.553 -20.803  1.00 31.40 LIG-0.25  NA
ATOM     25  CD2 HIS F   2       2.209  31.444 -20.631  1.00 30.69 LIG 0.14  A 
ENDBRANCH 20 21
ENDBRANCH 1 20
TORSDOF 8
ENDMDL
MODEL 75
USER: ADFR SOLUTION from run 132
USER: SCORE 7.856083 LL:  -1.177 LR:  -6.691 RR:   0.000 FEB:  -4.304
USER: RMSD 6.246089
USER: SEED 131
USER: STATUS no improvement in best in 20 clusters for 5 generations
USER: GENES 10
USER: genes 0 Translation |==|  0.68382 0.56251 0.45883
USER: genes 1 Rotation |==|  0.18481 0.61504 0.17093 0.67068
USER: genes 2 Torsion [C]-CA--N-[C] |==|  0.73889
USER: genes 3 Torsion [N]-C--CA-[N] |==|  0.87251
USER: genes 4 Torsion [C]-CA--N-[H3] |==|  0.37332
USER: genes 5 Torsion [N]-CA--C-[N] |==|  0.00830
USER: genes 6 Torsion [C]-N--CA-[CB] |==|  0.85094
USER: genes 7 Torsion [N]-CA--C-[O] |==|  0.75366
USER: genes 8 Torsion [N]-CA--CB-[CG] |==|  0.87493
USER: genes 9 Torsion [CA]-CB--CG-[ND1] |==|  0.96067
ROOT
ATOM      1  CA  HIS F   2       1.799  31.312 -19.747  1.00 30.59 LIG 0.18  C 
ENDROOT
BRANCH 1 2
ATOM      2  N   HIS F   2       0.488  30.697 -19.982  1.00 30.70 LIG-0.35  N 
ATOM      3  C   ALA F   1      -0.658  31.348 -19.797  1.00 31.15 LIG 0.25  C 
ATOM      4 O    ALA F   1      -0.724  32.517 -19.405  1.00 30.37 LIG-0.27  OA
ATOM      5 H    HIS F   2       0.531  29.880 -20.249  1.00 30.70 LIG 0.16  HD
BRANCH 3 6
ATOM      6  CA  ALA F   1      -1.935  30.553 -20.100  1.00 31.15 LIG 0.27  C 
ATOM      7  CB  ALA F   1      -2.556  30.110 -19.096  0.00 20.00 LIG 0.05  C 
BRANCH 6 8
ATOM      8  N   ALA F   1      -1.828  29.814 -21.403  1.00 31.97 LIG-0.07  N 
ATOM      9 H3   ALA F   1      -2.122  28.981 -21.296  1.00 31.97 LIG 0.28  HD
ATOM     10 H1   ALA F   1      -2.321  30.225 -22.019  1.00 31.97 LIG 0.28  HD
ATOM     11 H2   ALA F   1      -0.979  29.797 -21.666  1.00 31.97 LIG 0.28  HD
ENDBRANCH 6 8
ENDBRANCH 3 6
ENDBRANCH 1 2
BRANCH 1 12
ATOM     12  C   HIS F   2       2.367  31.902 -21.045  1.00 31.15 LIG 0.24  C 
ATOM     13 O    HIS F   2       3.499  32.419 -21.064  1.00 30.80 LIG-0.27  OA
ATOM     14  N   ALA F   3       1.578  31.819 -22.123  1.00 30.97 LIG-0.35  N 
ATOM     15 H    ALA F   3       0.797  31.458 -22.114  1.00 30.97 LIG 0.16  HD
BRANCH 14 16
ATOM     16  CA  ALA F   3       1.977  32.341 -23.428  1.00 31.72 LIG 0.16  C 
ATOM     17  CB  ALA F   3       2.378  33.820 -23.202  0.00 20.00 LIG 0.04  C 
BRANCH 16 18
ATOM     18  C   ALA F   3       3.338  31.835 -23.898  1.00 32.37 LIG 0.22  C 
ATOM     19 O    ALA F   3       4.379  32.437 -23.599  1.00 33.75 LIG-0.29  OA
ENDBRANCH 16 18
ENDBRANCH 14 16
ENDBRANCH 1 12
BRANCH 1 20
ATOM     20  CB  HIS F   2       2.783  30.280 -19.171  1.00 30.20 LIG 0.10  C 
BRANCH 20 21
ATOM     21  CG  HIS F   2       2.219  29.425 -18.068  1.00 29.66 LIG 0.06  A 
ATOM     22 ND1  HIS F   2       1.042  29.718 -17.408  1.00 29.25 LIG-0.24  NA
ATOM     23  CE1 HIS F   2       0.817  28.807 -16.474  1.00 27.69 LIG 0.23  A 
ATOM     24 NE2  HIS F   2       1.817  27.937 -16.490  1.00 31.40 LIG-0.25  NA
ATOM     25  CD2 HIS F   2       2.715  28.312 -17.468  1.00 30.69 LIG 0.14  A 
ENDBRANCH 20 21
ENDBRANCH 1 20
TORSDOF 8
ENDMDL
MODEL 76
USER: ADFR SOLUTION from run 122
USER: SCORE 7.978455 LL:  -1.491 LR:  -6.675 RR:   0.000 FEB:  -4.289
USER: RMSD 4.659847
USER: SEED 121
USER: STATUS no improvement in best in 21 clusters for 5 generations
USER: GENES 10
USER: genes 0 Translation |==|  0.57008 0.61160 0.55639
USER: genes 1 Rotation |==|  0.16078 0.79071 0.33109 0.64795
USER: genes 2 Torsion [C]-CA--N-[C] |==|  0.67813
USER: genes 3 Torsion [N]-C--CA-[N] |==|  0.43849
USER: genes 4 Torsion [C]-CA--N-[H3] |==|  0.47423
USER: genes 5 Torsion [N]-CA--C-[N] |==|  0.98896
USER: genes 6 Torsion [C]-N--CA-[CB] |==|  0.23345
USER: genes 7 Torsion [N]-CA--C-[O] |==|  0.09370
USER: genes 8 Torsion [N]-CA--CB-[CG] |==|  0.78446
USER: genes 9 Torsion [CA]-CB--CG-[ND1] |==|  0.61453
ROOT
ATOM      1  CA  HIS F   2      -0.163  31.901 -18.211  1.00 30.59 LIG 0.18  C 
ENDROOT
BRANCH 1 2
ATOM      2  N   HIS F   2      -1.476  31.576 -17.643  1.00 30.70 LIG-0.35  N 
ATOM      3  C   ALA F   1      -1.748  31.689 -16.344  1.00 31.15 LIG 0.25  C 
ATOM      4 O    ALA F   1      -0.925  32.066 -15.504  1.00 30.37 LIG-0.27  OA
ATOM      5 H    HIS F   2      -2.049  31.307 -18.225  1.00 30.70 LIG 0.16  HD
BRANCH 3 6
ATOM      6  CA  ALA F   1      -3.176  31.316 -15.925  1.00 31.15 LIG 0.27  C 
ATOM      7  CB  ALA F   1      -4.102  31.909 -16.544  0.00 20.00 LIG 0.05  C 
BRANCH 6 8
ATOM      8  N   ALA F   1      -3.248  30.958 -14.469  1.00 31.97 LIG-0.07  N 
ATOM      9 H3   ALA F   1      -4.100  30.878 -14.224  1.00 31.97 LIG 0.28  HD
ATOM     10 H1   ALA F   1      -2.826  30.187 -14.331  1.00 31.97 LIG 0.28  HD
ATOM     11 H2   ALA F   1      -2.860  31.597 -13.986  1.00 31.97 LIG 0.28  HD
ENDBRANCH 6 8
ENDBRANCH 3 6
ENDBRANCH 1 2
BRANCH 1 12
ATOM     12  C   HIS F   2      -0.264  33.087 -19.179  1.00 31.15 LIG 0.24  C 
ATOM     13 O    HIS F   2       0.757  33.562 -19.710  1.00 30.80 LIG-0.27  OA
ATOM     14  N   ALA F   3      -1.496  33.558 -19.405  1.00 30.97 LIG-0.35  N 
ATOM     15 H    ALA F   3      -2.205  33.230 -19.043  1.00 30.97 LIG 0.16  HD
BRANCH 14 16
ATOM     16  CA  ALA F   3      -1.752  34.687 -20.296  1.00 31.72 LIG 0.16  C 
ATOM     17  CB  ALA F   3      -1.826  34.103 -21.729  0.00 20.00 LIG 0.04  C 
BRANCH 16 18
ATOM     18  C   ALA F   3      -3.183  35.213 -20.221  1.00 32.37 LIG 0.22  C 
ATOM     19 O    ALA F   3      -3.812  35.194 -19.153  1.00 33.75 LIG-0.29  OA
ENDBRANCH 16 18
ENDBRANCH 14 16
ENDBRANCH 1 12
BRANCH 1 20
ATOM     20  CB  HIS F   2       0.424  30.682 -18.942  1.00 30.20 LIG 0.10  C 
BRANCH 20 21
ATOM     21  CG  HIS F   2       1.014  29.633 -18.037  1.00 29.66 LIG 0.06  A 
ATOM     22 ND1  HIS F   2       2.195  28.973 -18.311  1.00 29.25 LIG-0.24  NA
ATOM     23  CE1 HIS F   2       2.443  28.091 -17.355  1.00 27.69 LIG 0.23  A 
ATOM     24 NE2  HIS F   2       1.455  28.141 -16.474  1.00 31.40 LIG-0.25  NA
ATOM     25  CD2 HIS F   2       0.540  29.087 -16.887  1.00 30.69 LIG 0.14  A 
ENDBRANCH 20 21
ENDBRANCH 1 20
TORSDOF 8
ENDMDL
MODEL 77
USER: ADFR SOLUTION from run 32
USER: SCORE 8.047016 LL:  -1.394 LR:  -6.669 RR:   0.000 FEB:  -4.283
USER: RMSD 7.269255
USER: SEED 31
USER: STATUS no improvement in best in 20 clusters for 5 generations
USER: GENES 10
USER: genes 0 Translation |==|  0.77956 0.56591 0.49916
USER: genes 1 Rotation |==|  0.04269 0.50078 0.35499 0.64084
USER: genes 2 Torsion [C]-CA--N-[C] |==|  0.80559
USER: genes 3 Torsion [N]-C--CA-[N] |==|  0.47424
USER: genes 4 Torsion [C]-CA--N-[H3] |==|  0.63772
USER: genes 5 Torsion [N]-CA--C-[N] |==|  0.42531
USER: genes 6 Torsion [C]-N--CA-[CB] |==|  0.40088
USER: genes 7 Torsion [N]-CA--C-[O] |==|  0.07812
USER: genes 8 Torsion [N]-CA--CB-[CG] |==|  0.70969
USER: genes 9 Torsion [CA]-CB--CG-[ND1] |==|  0.73094
ROOT
ATOM      1  CA  HIS F   2       3.450  31.353 -19.112  1.00 30.59 LIG 0.18  C 
ENDROOT
BRANCH 1 2
ATOM      2  N   HIS F   2       2.986  30.281 -18.226  1.00 30.70 LIG-0.35  N 
ATOM      3  C   ALA F   1       1.760  30.254 -17.706  1.00 31.15 LIG 0.25  C 
ATOM      4 O    ALA F   1       0.912  31.128 -17.913  1.00 30.37 LIG-0.27  OA
ATOM      5 H    HIS F   2       3.577  29.674 -18.075  1.00 30.70 LIG 0.16  HD
BRANCH 3 6
ATOM      6  CA  ALA F   1       1.440  29.052 -16.808  1.00 31.15 LIG 0.27  C 
ATOM      7  CB  ALA F   1       1.872  27.937 -17.210  0.00 20.00 LIG 0.05  C 
BRANCH 6 8
ATOM      8  N   ALA F   1       0.128  29.227 -16.099  1.00 31.97 LIG-0.07  N 
ATOM      9 H3   ALA F   1       0.235  29.062 -15.231  1.00 31.97 LIG 0.28  HD
ATOM     10 H1   ALA F   1      -0.160  30.062 -16.209  1.00 31.97 LIG 0.28  HD
ATOM     11 H2   ALA F   1      -0.470  28.661 -16.437  1.00 31.97 LIG 0.28  HD
ENDBRANCH 6 8
ENDBRANCH 3 6
ENDBRANCH 1 2
BRANCH 1 12
ATOM     12  C   HIS F   2       2.749  31.280 -20.475  1.00 31.15 LIG 0.24  C 
ATOM     13 O    HIS F   2       2.318  30.196 -20.910  1.00 30.80 LIG-0.27  OA
ATOM     14  N   ALA F   3       2.637  32.436 -21.140  1.00 30.97 LIG-0.35  N 
ATOM     15 H    ALA F   3       2.929  33.187 -20.841  1.00 30.97 LIG 0.16  HD
BRANCH 14 16
ATOM     16  CA  ALA F   3       2.000  32.526 -22.452  1.00 31.72 LIG 0.16  C 
ATOM     17  CB  ALA F   3       1.260  33.885 -22.485  0.00 20.00 LIG 0.04  C 
BRANCH 16 18
ATOM     18  C   ALA F   3       2.980  32.803 -23.590  1.00 32.37 LIG 0.22  C 
ATOM     19 O    ALA F   3       4.161  32.437 -23.514  1.00 33.75 LIG-0.29  OA
ENDBRANCH 16 18
ENDBRANCH 14 16
ENDBRANCH 1 12
BRANCH 1 20
ATOM     20  CB  HIS F   2       4.974  31.268 -19.307  1.00 30.20 LIG 0.10  C 
BRANCH 20 21
ATOM     21  CG  HIS F   2       5.761  32.299 -18.542  1.00 29.66 LIG 0.06  A 
ATOM     22 ND1  HIS F   2       6.200  33.484 -19.099  1.00 29.25 LIG-0.24  NA
ATOM     23  CE1 HIS F   2       6.887  34.170 -18.199  1.00 27.69 LIG 0.23  A 
ATOM     24 NE2  HIS F   2       6.925  33.466 -17.077  1.00 31.40 LIG-0.25  NA
ATOM     25  CD2 HIS F   2       6.241  32.284 -17.272  1.00 30.69 LIG 0.14  A 
ENDBRANCH 20 21
ENDBRANCH 1 20
TORSDOF 8
ENDMDL
MODEL 78
USER: ADFR SOLUTION from run 64
USER: SCORE 7.896913 LL:  -1.293 LR:  -6.666 RR:   0.000 FEB:  -4.280
USER: RMSD 4.855941
USER: SEED 63
USER: STATUS no improvement in best in 16 clusters for 5 generations
USER: GENES 10
USER: genes 0 Translation |==|  0.39161 0.61621 0.70567
USER: genes 1 Rotation |==|  0.09555 0.72533 0.37677 0.64305
USER: genes 2 Torsion [C]-CA--N-[C] |==|  0.15572
USER: genes 3 Torsion [N]-C--CA-[N] |==|  0.91156
USER: genes 4 Torsion [C]-CA--N-[H3] |==|  0.64735
USER: genes 5 Torsion [N]-CA--C-[N] |==|  0.09459
USER: genes 6 Torsion [C]-N--CA-[CB] |==|  0.26690
USER: genes 7 Torsion [N]-CA--C-[O] |==|  0.18431
USER: genes 8 Torsion [N]-CA--CB-[CG] |==|  0.67421
USER: genes 9 Torsion [CA]-CB--CG-[ND1] |==|  0.95118
ROOT
ATOM      1  CA  HIS F   2      -3.242  31.957 -15.860  1.00 30.59 LIG 0.18  C 
ENDROOT
BRANCH 1 2
ATOM      2  N   HIS F   2      -4.252  31.235 -15.079  1.00 30.70 LIG-0.35  N 
ATOM      3  C   ALA F   1      -5.219  30.513 -15.642  1.00 31.15 LIG 0.25  C 
ATOM      4 O    ALA F   1      -5.359  30.394 -16.864  1.00 30.37 LIG-0.27  OA
ATOM      5 H    HIS F   2      -4.161  31.321 -14.228  1.00 30.70 LIG 0.16  HD
BRANCH 3 6
ATOM      6  CA  ALA F   1      -6.183  29.816 -14.674  1.00 31.15 LIG 0.27  C 
ATOM      7  CB  ALA F   1      -7.386  30.193 -14.732  0.00 20.00 LIG 0.05  C 
BRANCH 6 8
ATOM      8  N   ALA F   1      -5.497  29.426 -13.397  1.00 31.97 LIG-0.07  N 
ATOM      9 H3   ALA F   1      -5.633  28.561 -13.239  1.00 31.97 LIG 0.28  HD
ATOM     10 H1   ALA F   1      -4.624  29.580 -13.470  1.00 31.97 LIG 0.28  HD
ATOM     11 H2   ALA F   1      -5.827  29.905 -12.724  1.00 31.97 LIG 0.28  HD
ENDBRANCH 6 8
ENDBRANCH 3 6
ENDBRANCH 1 2
BRANCH 1 12
ATOM     12  C   HIS F   2      -3.903  32.923 -16.851  1.00 31.15 LIG 0.24  C 
ATOM     13 O    HIS F   2      -3.387  33.143 -17.963  1.00 30.80 LIG-0.27  OA
ATOM     14  N   ALA F   3      -5.042  33.494 -16.443  1.00 30.97 LIG-0.35  N 
ATOM     15 H    ALA F   3      -5.404  33.341 -15.677  1.00 30.97 LIG 0.16  HD
BRANCH 14 16
ATOM     16  CA  ALA F   3      -5.785  34.441 -17.272  1.00 31.72 LIG 0.16  C 
ATOM     17  CB  ALA F   3      -6.884  33.622 -17.992  0.00 20.00 LIG 0.04  C 
BRANCH 16 18
ATOM     18  C   ALA F   3      -6.709  35.358 -16.475  1.00 32.37 LIG 0.22  C 
ATOM     19 O    ALA F   3      -6.247  36.198 -15.689  1.00 33.75 LIG-0.29  OA
ENDBRANCH 16 18
ENDBRANCH 14 16
ENDBRANCH 1 12
BRANCH 1 20
ATOM     20  CB  HIS F   2      -2.341  30.969 -16.620  1.00 30.20 LIG 0.10  C 
BRANCH 20 21
ATOM     21  CG  HIS F   2      -0.890  31.009 -16.221  1.00 29.66 LIG 0.06  A 
ATOM     22 ND1  HIS F   2      -0.323  32.063 -15.532  1.00 29.25 LIG-0.24  NA
ATOM     23  CE1 HIS F   2       0.968  31.831 -15.349  1.00 27.69 LIG 0.23  A 
ATOM     24 NE2  HIS F   2       1.267  30.669 -15.910  1.00 31.40 LIG-0.25  NA
ATOM     25  CD2 HIS F   2       0.124  30.143 -16.477  1.00 30.69 LIG 0.14  A 
ENDBRANCH 20 21
ENDBRANCH 1 20
TORSDOF 8
ENDMDL
MODEL 79
USER: ADFR SOLUTION from run 182
USER: SCORE 7.892513 LL:  -1.612 LR:  -6.656 RR:   0.000 FEB:  -4.269
USER: RMSD 4.903548
USER: SEED 181
USER: STATUS no improvement in best in 14 clusters for 5 generations
USER: GENES 10
USER: genes 0 Translation |==|  0.41185 0.68591 0.54102
USER: genes 1 Rotation |==|  0.69272 0.56117 0.04605 0.55521
USER: genes 2 Torsion [C]-CA--N-[C] |==|  0.65018
USER: genes 3 Torsion [N]-C--CA-[N] |==|  0.46205
USER: genes 4 Torsion [C]-CA--N-[H3] |==|  0.58612
USER: genes 5 Torsion [N]-CA--C-[N] |==|  0.92784
USER: genes 6 Torsion [C]-N--CA-[CB] |==|  0.46461
USER: genes 7 Torsion [N]-CA--C-[O] |==|  0.27303
USER: genes 8 Torsion [N]-CA--CB-[CG] |==|  0.29482
USER: genes 9 Torsion [CA]-CB--CG-[ND1] |==|  0.26352
ROOT
ATOM      1  CA  HIS F   2      -2.893  32.793 -18.453  1.00 30.59 LIG 0.18  C 
ENDROOT
BRANCH 1 2
ATOM      2  N   HIS F   2      -2.022  32.844 -19.632  1.00 30.70 LIG-0.35  N 
ATOM      3  C   ALA F   1      -1.780  33.969 -20.302  1.00 31.15 LIG 0.25  C 
ATOM      4 O    ALA F   1      -2.270  35.062 -20.001  1.00 30.37 LIG-0.27  OA
ATOM      5 H    HIS F   2      -1.685  32.082 -19.848  1.00 30.70 LIG 0.16  HD
BRANCH 3 6
ATOM      6  CA  ALA F   1      -0.837  33.841 -21.505  1.00 31.15 LIG 0.27  C 
ATOM      7  CB  ALA F   1       0.210  33.164 -21.312  0.00 20.00 LIG 0.05  C 
BRANCH 6 8
ATOM      8  N   ALA F   1      -0.885  35.062 -22.378  1.00 31.97 LIG-0.07  N 
ATOM      9 H3   ALA F   1      -0.730  34.831 -23.222  1.00 31.97 LIG 0.28  HD
ATOM     10 H1   ALA F   1      -1.689  35.439 -22.317  1.00 31.97 LIG 0.28  HD
ATOM     11 H2   ALA F   1      -0.266  35.642 -22.111  1.00 31.97 LIG 0.28  HD
ENDBRANCH 6 8
ENDBRANCH 3 6
ENDBRANCH 1 2
BRANCH 1 12
ATOM     12  C   HIS F   2      -2.164  32.158 -17.261  1.00 31.15 LIG 0.24  C 
ATOM     13 O    HIS F   2      -2.497  32.434 -16.094  1.00 30.80 LIG-0.27  OA
ATOM     14  N   ALA F   3      -1.175  31.309 -17.562  1.00 30.97 LIG-0.35  N 
ATOM     15 H    ALA F   3      -0.945  31.112 -18.368  1.00 30.97 LIG 0.16  HD
BRANCH 14 16
ATOM     16  CA  ALA F   3      -0.385  30.630 -16.537  1.00 31.72 LIG 0.16  C 
ATOM     17  CB  ALA F   3       0.409  29.517 -17.263  0.00 20.00 LIG 0.04  C 
BRANCH 16 18
ATOM     18  C   ALA F   3       0.811  31.444 -16.049  1.00 32.37 LIG 0.22  C 
ATOM     19 O    ALA F   3       0.746  32.103 -15.001  1.00 33.75 LIG-0.29  OA
ENDBRANCH 16 18
ENDBRANCH 14 16
ENDBRANCH 1 12
BRANCH 1 20
ATOM     20  CB  HIS F   2      -4.173  31.999 -18.763  1.00 30.20 LIG 0.10  C 
BRANCH 20 21
ATOM     21  CG  HIS F   2      -4.224  30.627 -18.144  1.00 29.66 LIG 0.06  A 
ATOM     22 ND1  HIS F   2      -4.839  30.364 -16.936  1.00 29.25 LIG-0.24  NA
ATOM     23  CE1 HIS F   2      -4.698  29.082 -16.636  1.00 27.69 LIG 0.23  A 
ATOM     24 NE2  HIS F   2      -3.997  28.503 -17.599  1.00 31.40 LIG-0.25  NA
ATOM     25  CD2 HIS F   2      -3.675  29.452 -18.547  1.00 30.69 LIG 0.14  A 
ENDBRANCH 20 21
ENDBRANCH 1 20
TORSDOF 8
ENDMDL
MODEL 80
USER: ADFR SOLUTION from run 176
USER: SCORE 8.021797 LL:  -1.462 LR:  -6.639 RR:   0.000 FEB:  -4.252
USER: RMSD 5.568452
USER: SEED 175
USER: STATUS no improvement in best in 10 clusters for 5 generations
USER: GENES 10
USER: genes 0 Translation |==|  0.63478 0.45387 0.56729
USER: genes 1 Rotation |==|  0.21542 0.66085 0.18316 0.70677
USER: genes 2 Torsion [C]-CA--N-[C] |==|  0.78367
USER: genes 3 Torsion [N]-C--CA-[N] |==|  0.84732
USER: genes 4 Torsion [C]-CA--N-[H3] |==|  0.28261
USER: genes 5 Torsion [N]-CA--C-[N] |==|  0.90564
USER: genes 6 Torsion [C]-N--CA-[CB] |==|  0.84196
USER: genes 7 Torsion [N]-CA--C-[O] |==|  0.46180
USER: genes 8 Torsion [N]-CA--CB-[CG] |==|  0.39854
USER: genes 9 Torsion [CA]-CB--CG-[ND1] |==|  0.76419
ROOT
ATOM      1  CA  HIS F   2       0.953  30.008 -18.039  1.00 30.59 LIG 0.18  C 
ENDROOT
BRANCH 1 2
ATOM      2  N   HIS F   2      -0.369  29.521 -18.448  1.00 30.70 LIG-0.35  N 
ATOM      3  C   ALA F   1      -1.464  30.277 -18.397  1.00 31.15 LIG 0.25  C 
ATOM      4 O    ALA F   1      -1.469  31.445 -17.995  1.00 30.37 LIG-0.27  OA
ATOM      5 H    HIS F   2      -0.369  28.706 -18.722  1.00 30.70 LIG 0.16  HD
BRANCH 3 6
ATOM      6  CA  ALA F   1      -2.760  29.609 -18.873  1.00 31.15 LIG 0.27  C 
ATOM      7  CB  ALA F   1      -3.457  29.062 -17.975  0.00 20.00 LIG 0.05  C 
BRANCH 6 8
ATOM      8  N   ALA F   1      -2.619  29.059 -20.263  1.00 31.97 LIG-0.07  N 
ATOM      9 H3   ALA F   1      -2.497  28.178 -20.224  1.00 31.97 LIG 0.28  HD
ATOM     10 H1   ALA F   1      -3.357  29.235 -20.729  1.00 31.97 LIG 0.28  HD
ATOM     11 H2   ALA F   1      -1.920  29.437 -20.663  1.00 31.97 LIG 0.28  HD
ENDBRANCH 6 8
ENDBRANCH 3 6
ENDBRANCH 1 2
BRANCH 1 12
ATOM     12  C   HIS F   2       1.570  30.897 -19.127  1.00 31.15 LIG 0.24  C 
ATOM     13 O    HIS F   2       2.292  31.865 -18.822  1.00 30.80 LIG-0.27  OA
ATOM     14  N   ALA F   3       1.282  30.564 -20.391  1.00 30.97 LIG-0.35  N 
ATOM     15 H    ALA F   3       0.787  29.894 -20.605  1.00 30.97 LIG 0.16  HD
BRANCH 14 16
ATOM     16  CA  ALA F   3       1.790  31.318 -21.535  1.00 31.72 LIG 0.16  C 
ATOM     17  CB  ALA F   3       1.321  32.780 -21.336  0.00 20.00 LIG 0.04  C 
BRANCH 16 18
ATOM     18  C   ALA F   3       3.293  31.580 -21.476  1.00 32.37 LIG 0.22  C 
ATOM     19 O    ALA F   3       3.909  31.977 -22.475  1.00 33.75 LIG-0.29  OA
ENDBRANCH 16 18
ENDBRANCH 14 16
ENDBRANCH 1 12
BRANCH 1 20
ATOM     20  CB  HIS F   2       1.892  28.829 -17.738  1.00 30.20 LIG 0.10  C 
BRANCH 20 21
ATOM     21  CG  HIS F   2       3.325  29.048 -18.147  1.00 29.66 LIG 0.06  A 
ATOM     22 ND1  HIS F   2       3.794  28.807 -19.423  1.00 29.25 LIG-0.24  NA
ATOM     23  CE1 HIS F   2       5.093  29.062 -19.474  1.00 27.69 LIG 0.23  A 
ATOM     24 NE2  HIS F   2       5.490  29.445 -18.270  1.00 31.40 LIG-0.25  NA
ATOM     25  CD2 HIS F   2       4.406  29.429 -17.418  1.00 30.69 LIG 0.14  A 
ENDBRANCH 20 21
ENDBRANCH 1 20
TORSDOF 8
ENDMDL
MODEL 81
USER: ADFR SOLUTION from run 158
USER: SCORE 8.075509 LL:  -1.505 LR:  -6.619 RR:   0.000 FEB:  -4.233
USER: RMSD 4.571208
USER: SEED 157
USER: STATUS no improvement in best in 13 clusters for 5 generations
USER: GENES 10
USER: genes 0 Translation |==|  0.58027 0.60896 0.68583
USER: genes 1 Rotation |==|  0.15184 0.69026 0.19870 0.54251
USER: genes 2 Torsion [C]-CA--N-[C] |==|  0.15046
USER: genes 3 Torsion [N]-C--CA-[N] |==|  0.78098
USER: genes 4 Torsion [C]-CA--N-[H3] |==|  0.87783
USER: genes 5 Torsion [N]-CA--C-[N] |==|  0.10558
USER: genes 6 Torsion [C]-N--CA-[CB] |==|  0.18029
USER: genes 7 Torsion [N]-CA--C-[O] |==|  0.01737
USER: genes 8 Torsion [N]-CA--CB-[CG] |==|  0.56496
USER: genes 9 Torsion [CA]-CB--CG-[ND1] |==|  0.16905
ROOT
ATOM      1  CA  HIS F   2       0.013  31.870 -16.172  1.00 30.59 LIG 0.18  C 
ENDROOT
BRANCH 1 2
ATOM      2  N   HIS F   2      -1.411  31.922 -15.822  1.00 30.70 LIG-0.35  N 
ATOM      3  C   ALA F   1      -2.325  31.147 -16.401  1.00 31.15 LIG 0.25  C 
ATOM      4 O    ALA F   1      -2.063  30.327 -17.287  1.00 30.37 LIG-0.27  OA
ATOM      5 H    HIS F   2      -1.597  32.497 -15.210  1.00 30.70 LIG 0.16  HD
BRANCH 3 6
ATOM      6  CA  ALA F   1      -3.766  31.327 -15.905  1.00 31.15 LIG 0.27  C 
ATOM      7  CB  ALA F   1      -4.319  32.418 -16.212  0.00 20.00 LIG 0.05  C 
BRANCH 6 8
ATOM      8  N   ALA F   1      -3.992  30.621 -14.599  1.00 31.97 LIG-0.07  N 
ATOM      9 H3   ALA F   1      -3.622  29.812 -14.630  1.00 31.97 LIG 0.28  HD
ATOM     10 H1   ALA F   1      -3.622  31.090 -13.940  1.00 31.97 LIG 0.28  HD
ATOM     11 H2   ALA F   1      -4.865  30.542 -14.451  1.00 31.97 LIG 0.28  HD
ENDBRANCH 6 8
ENDBRANCH 3 6
ENDBRANCH 1 2
BRANCH 1 12
ATOM     12  C   HIS F   2       0.213  32.061 -17.681  1.00 31.15 LIG 0.24  C 
ATOM     13 O    HIS F   2       1.084  31.415 -18.293  1.00 30.80 LIG-0.27  OA
ATOM     14  N   ALA F   3      -0.596  32.947 -18.273  1.00 30.97 LIG-0.35  N 
ATOM     15 H    ALA F   3      -1.202  33.392 -17.855  1.00 30.97 LIG 0.16  HD
BRANCH 14 16
ATOM     16  CA  ALA F   3      -0.523  33.243 -19.702  1.00 31.72 LIG 0.16  C 
ATOM     17  CB  ALA F   3      -0.919  31.940 -20.438  0.00 20.00 LIG 0.04  C 
BRANCH 16 18
ATOM     18  C   ALA F   3      -1.670  34.114 -20.206  1.00 32.37 LIG 0.22  C 
ATOM     19 O    ALA F   3      -2.492  34.602 -19.417  1.00 33.75 LIG-0.29  OA
ENDBRANCH 16 18
ENDBRANCH 14 16
ENDBRANCH 1 12
BRANCH 1 20
ATOM     20  CB  HIS F   2       0.627  30.530 -15.732  1.00 30.20 LIG 0.10  C 
BRANCH 20 21
ATOM     21  CG  HIS F   2       2.118  30.562 -15.526  1.00 29.66 LIG 0.06  A 
ATOM     22 ND1  HIS F   2       2.737  31.376 -14.598  1.00 29.25 LIG-0.24  NA
ATOM     23  CE1 HIS F   2       4.049  31.209 -14.665  1.00 27.69 LIG 0.23  A 
ATOM     24 NE2  HIS F   2       4.309  30.326 -15.618  1.00 31.40 LIG-0.25  NA
ATOM     25  CD2 HIS F   2       3.118  29.919 -16.183  1.00 30.69 LIG 0.14  A 
ENDBRANCH 20 21
ENDBRANCH 1 20
TORSDOF 8
ENDMDL
MODEL 82
USER: ADFR SOLUTION from run 64
USER: SCORE 7.839372 LL:  -1.409 LR:  -6.607 RR:   0.000 FEB:  -4.221
USER: RMSD 7.029525
USER: SEED 63
USER: STATUS no improvement in best in 16 clusters for 5 generations
USER: GENES 10
USER: genes 0 Translation |==|  0.72398 0.43541 0.58782
USER: genes 1 Rotation |==|  0.64698 0.07628 0.51359 0.72061
USER: genes 2 Torsion [C]-CA--N-[C] |==|  0.57909
USER: genes 3 Torsion [N]-C--CA-[N] |==|  0.39640
USER: genes 4 Torsion [C]-CA--N-[H3] |==|  0.00552
USER: genes 5 Torsion [N]-CA--C-[N] |==|  0.46667
USER: genes 6 Torsion [C]-N--CA-[CB] |==|  0.83589
USER: genes 7 Torsion [N]-CA--C-[O] |==|  0.24355
USER: genes 8 Torsion [N]-CA--CB-[CG] |==|  0.16117
USER: genes 9 Torsion [CA]-CB--CG-[ND1] |==|  0.35092
ROOT
ATOM      1  CA  HIS F   2       2.492  29.787 -17.716  1.00 30.59 LIG 0.18  C 
ENDROOT
BRANCH 1 2
ATOM      2  N   HIS F   2       3.205  30.395 -16.588  1.00 30.70 LIG-0.35  N 
ATOM      3  C   ALA F   1       3.937  29.686 -15.730  1.00 31.15 LIG 0.25  C 
ATOM      4 O    ALA F   1       4.074  28.461 -15.800  1.00 30.37 LIG-0.27  OA
ATOM      5 H    HIS F   2       3.106  31.248 -16.533  1.00 30.70 LIG 0.16  HD
BRANCH 3 6
ATOM      6  CA  ALA F   1       4.623  30.486 -14.616  1.00 31.15 LIG 0.27  C 
ATOM      7  CB  ALA F   1       5.560  31.247 -14.983  0.00 20.00 LIG 0.05  C 
BRANCH 6 8
ATOM      8  N   ALA F   1       4.628  29.731 -13.317  1.00 31.97 LIG-0.07  N 
ATOM      9 H3   ALA F   1       4.253  28.934 -13.436  1.00 31.97 LIG 0.28  HD
ATOM     10 H1   ALA F   1       5.466  29.627 -13.038  1.00 31.97 LIG 0.28  HD
ATOM     11 H2   ALA F   1       4.168  30.187 -12.707  1.00 31.97 LIG 0.28  HD
ENDBRANCH 6 8
ENDBRANCH 3 6
ENDBRANCH 1 2
BRANCH 1 12
ATOM     12  C   HIS F   2       2.346  30.784 -18.873  1.00 31.15 LIG 0.24  C 
ATOM     13 O    HIS F   2       2.601  31.991 -18.707  1.00 30.80 LIG-0.27  OA
ATOM     14  N   ALA F   3       1.938  30.273 -20.041  1.00 30.97 LIG-0.35  N 
ATOM     15 H    ALA F   3       1.765  29.438 -20.160  1.00 30.97 LIG 0.16  HD
BRANCH 14 16
ATOM     16  CA  ALA F   3       1.747  31.096 -21.232  1.00 31.72 LIG 0.16  C 
ATOM     17  CB  ALA F   3       0.689  32.164 -20.859  0.00 20.00 LIG 0.04  C 
BRANCH 16 18
ATOM     18  C   ALA F   3       2.906  32.050 -21.508  1.00 32.37 LIG 0.22  C 
ATOM     19 O    ALA F   3       3.882  31.687 -22.180  1.00 33.75 LIG-0.29  OA
ENDBRANCH 16 18
ENDBRANCH 14 16
ENDBRANCH 1 12
BRANCH 1 20
ATOM     20  CB  HIS F   2       1.102  29.298 -17.274  1.00 30.20 LIG 0.10  C 
BRANCH 20 21
ATOM     21  CG  HIS F   2       0.217  30.368 -16.693  1.00 29.66 LIG 0.06  A 
ATOM     22 ND1  HIS F   2      -1.059  30.628 -17.153  1.00 29.25 LIG-0.24  NA
ATOM     23  CE1 HIS F   2      -1.579  31.638 -16.472  1.00 27.69 LIG 0.23  A 
ATOM     24 NE2  HIS F   2      -0.680  32.057 -15.594  1.00 31.40 LIG-0.25  NA
ATOM     25  CD2 HIS F   2       0.458  31.288 -15.724  1.00 30.69 LIG 0.14  A 
ENDBRANCH 20 21
ENDBRANCH 1 20
TORSDOF 8
ENDMDL
MODEL 83
USER: ADFR SOLUTION from run 70
USER: SCORE 7.863720 LL:  -1.263 LR:  -6.609 RR:   0.000 FEB:  -4.223
USER: RMSD 5.980970
USER: SEED 69
USER: STATUS no improvement in best in 20 clusters for 5 generations
USER: GENES 10
USER: genes 0 Translation |==|  0.39128 0.77439 0.49753
USER: genes 1 Rotation |==|  0.34367 0.41695 0.95531 0.60657
USER: genes 2 Torsion [C]-CA--N-[C] |==|  0.80086
USER: genes 3 Torsion [N]-C--CA-[N] |==|  0.20350
USER: genes 4 Torsion [C]-CA--N-[H3] |==|  0.63503
USER: genes 5 Torsion [N]-CA--C-[N] |==|  0.94454
USER: genes 6 Torsion [C]-N--CA-[CB] |==|  0.84475
USER: genes 7 Torsion [N]-CA--C-[O] |==|  0.29964
USER: genes 8 Torsion [N]-CA--CB-[CG] |==|  0.58525
USER: genes 9 Torsion [CA]-CB--CG-[ND1] |==|  0.29354
ROOT
ATOM      1  CA  HIS F   2      -3.247  33.855 -19.138  1.00 30.59 LIG 0.18  C 
ENDROOT
BRANCH 1 2
ATOM      2  N   HIS F   2      -2.646  33.903 -20.475  1.00 30.70 LIG-0.35  N 
ATOM      3  C   ALA F   1      -1.347  34.122 -20.674  1.00 31.15 LIG 0.25  C 
ATOM      4 O    ALA F   1      -0.539  34.312 -19.760  1.00 30.37 LIG-0.27  OA
ATOM      5 H    HIS F   2      -3.208  33.778 -21.114  1.00 30.70 LIG 0.16  HD
BRANCH 3 6
ATOM      6  CA  ALA F   1      -0.888  34.130 -22.138  1.00 31.15 LIG 0.27  C 
ATOM      7  CB  ALA F   1       0.205  33.545 -22.373  0.00 20.00 LIG 0.05  C 
BRANCH 6 8
ATOM      8  N   ALA F   1      -1.332  35.375 -22.849  1.00 31.97 LIG-0.07  N 
ATOM      9 H3   ALA F   1      -1.710  35.157 -23.624  1.00 31.97 LIG 0.28  HD
ATOM     10 H1   ALA F   1      -1.920  35.812 -22.344  1.00 31.97 LIG 0.28  HD
ATOM     11 H2   ALA F   1      -0.628  35.898 -23.000  1.00 31.97 LIG 0.28  HD
ENDBRANCH 6 8
ENDBRANCH 3 6
ENDBRANCH 1 2
BRANCH 1 12
ATOM     12  C   HIS F   2      -2.835  32.576 -18.397  1.00 31.15 LIG 0.24  C 
ATOM     13 O    HIS F   2      -2.919  32.505 -17.157  1.00 30.80 LIG-0.27  OA
ATOM     14  N   ALA F   3      -2.391  31.571 -19.162  1.00 30.97 LIG-0.35  N 
ATOM     15 H    ALA F   3      -2.335  31.615 -20.020  1.00 30.97 LIG 0.16  HD
BRANCH 14 16
ATOM     16  CA  ALA F   3      -1.956  30.294 -18.603  1.00 31.72 LIG 0.16  C 
ATOM     17  CB  ALA F   3      -0.848  30.624 -17.572  0.00 20.00 LIG 0.04  C 
BRANCH 16 18
ATOM     18  C   ALA F   3      -2.958  29.680 -17.629  1.00 32.37 LIG 0.22  C 
ATOM     19 O    ALA F   3      -3.622  28.682 -17.946  1.00 33.75 LIG-0.29  OA
ENDBRANCH 16 18
ENDBRANCH 14 16
ENDBRANCH 1 12
BRANCH 1 20
ATOM     20  CB  HIS F   2      -4.781  33.927 -19.234  1.00 30.20 LIG 0.10  C 
BRANCH 20 21
ATOM     21  CG  HIS F   2      -5.451  34.591 -18.062  1.00 29.66 LIG 0.06  A 
ATOM     22 ND1  HIS F   2      -5.989  35.862 -18.116  1.00 29.25 LIG-0.24  NA
ATOM     23  CE1 HIS F   2      -6.481  36.187 -16.931  1.00 27.69 LIG 0.23  A 
ATOM     24 NE2  HIS F   2      -6.269  35.178 -16.099  1.00 31.40 LIG-0.25  NA
ATOM     25  CD2 HIS F   2      -5.611  34.174 -16.779  1.00 30.69 LIG 0.14  A 
ENDBRANCH 20 21
ENDBRANCH 1 20
TORSDOF 8
ENDMDL
MODEL 84
USER: ADFR SOLUTION from run 59
USER: SCORE 7.980304 LL:  -1.429 LR:  -6.603 RR:   0.000 FEB:  -4.217
USER: RMSD 7.361420
USER: SEED 58
USER: STATUS no improvement in best in 13 clusters for 5 generations
USER: GENES 10
USER: genes 0 Translation |==|  0.66569 0.61221 0.46657
USER: genes 1 Rotation |==|  0.34353 0.05050 0.34904 0.52605
USER: genes 2 Torsion [C]-CA--N-[C] |==|  0.70287
USER: genes 3 Torsion [N]-C--CA-[N] |==|  0.50048
USER: genes 4 Torsion [C]-CA--N-[H3] |==|  0.45290
USER: genes 5 Torsion [N]-CA--C-[N] |==|  0.02859
USER: genes 6 Torsion [C]-N--CA-[CB] |==|  0.42386
USER: genes 7 Torsion [N]-CA--C-[O] |==|  0.38079
USER: genes 8 Torsion [N]-CA--CB-[CG] |==|  0.83177
USER: genes 9 Torsion [CA]-CB--CG-[ND1] |==|  0.12010
ROOT
ATOM      1  CA  HIS F   2       1.486  31.908 -19.625  1.00 30.59 LIG 0.18  C 
ENDROOT
BRANCH 1 2
ATOM      2  N   HIS F   2       1.365  31.474 -18.230  1.00 30.70 LIG-0.35  N 
ATOM      3  C   ALA F   1       0.890  30.279 -17.884  1.00 31.15 LIG 0.25  C 
ATOM      4 O    ALA F   1       0.502  29.437 -18.700  1.00 30.37 LIG-0.27  OA
ATOM      5 H    HIS F   2       1.628  32.062 -17.659  1.00 30.70 LIG 0.16  HD
BRANCH 3 6
ATOM      6  CA  ALA F   1       0.842  29.988 -16.379  1.00 31.15 LIG 0.27  C 
ATOM      7  CB  ALA F   1       1.744  30.534 -15.686  0.00 20.00 LIG 0.05  C 
BRANCH 6 8
ATOM      8  N   ALA F   1       0.297  28.617 -16.099  1.00 31.97 LIG-0.07  N 
ATOM      9 H3   ALA F   1       0.503  28.380 -15.267  1.00 31.97 LIG 0.28  HD
ATOM     10 H1   ALA F   1      -0.588  28.625 -16.194  1.00 31.97 LIG 0.28  HD
ATOM     11 H2   ALA F   1       0.650  28.034 -16.670  1.00 31.97 LIG 0.28  HD
ENDBRANCH 6 8
ENDBRANCH 3 6
ENDBRANCH 1 2
BRANCH 1 12
ATOM     12  C   HIS F   2       2.955  31.919 -20.070  1.00 31.15 LIG 0.24  C 
ATOM     13 O    HIS F   2       3.286  32.437 -21.153  1.00 30.80 LIG-0.27  OA
ATOM     14  N   ALA F   3       3.826  31.347 -19.231  1.00 30.97 LIG-0.35  N 
ATOM     15 H    ALA F   3       3.601  30.992 -18.480  1.00 30.97 LIG 0.16  HD
BRANCH 14 16
ATOM     16  CA  ALA F   3       5.257  31.273 -19.518  1.00 31.72 LIG 0.16  C 
ATOM     17  CB  ALA F   3       5.975  31.227 -18.147  0.00 20.00 LIG 0.04  C 
BRANCH 16 18
ATOM     18  C   ALA F   3       5.709  29.907 -20.027  1.00 32.37 LIG 0.22  C 
ATOM     19 O    ALA F   3       6.503  29.812 -20.974  1.00 33.75 LIG-0.29  OA
ENDBRANCH 16 18
ENDBRANCH 14 16
ENDBRANCH 1 12
BRANCH 1 20
ATOM     20  CB  HIS F   2       0.878  33.309 -19.809  1.00 30.20 LIG 0.10  C 
BRANCH 20 21
ATOM     21  CG  HIS F   2      -0.587  33.404 -19.475  1.00 29.66 LIG 0.06  A 
ATOM     22 ND1  HIS F   2      -1.151  32.812 -18.363  1.00 29.25 LIG-0.24  NA
ATOM     23  CE1 HIS F   2      -2.455  33.042 -18.349  1.00 27.69 LIG 0.23  A 
ATOM     24 NE2  HIS F   2      -2.764  33.751 -19.424  1.00 31.40 LIG-0.25  NA
ATOM     25  CD2 HIS F   2      -1.615  33.977 -20.153  1.00 30.69 LIG 0.14  A 
ENDBRANCH 20 21
ENDBRANCH 1 20
TORSDOF 8
ENDMDL
MODEL 85
USER: ADFR SOLUTION from run 99
USER: SCORE 7.785839 LL:  -1.467 LR:  -6.595 RR:   0.000 FEB:  -4.209
USER: RMSD 6.000952
USER: SEED 98
USER: STATUS no improvement in best in 14 clusters for 5 generations
USER: GENES 10
USER: genes 0 Translation |==|  0.75674 0.57689 0.50131
USER: genes 1 Rotation |==|  0.10111 0.74676 0.32780 0.51864
USER: genes 2 Torsion [C]-CA--N-[C] |==|  0.19999
USER: genes 3 Torsion [N]-C--CA-[N] |==|  0.52529
USER: genes 4 Torsion [C]-CA--N-[H3] |==|  0.23922
USER: genes 5 Torsion [N]-CA--C-[N] |==|  0.03493
USER: genes 6 Torsion [C]-N--CA-[CB] |==|  0.20465
USER: genes 7 Torsion [N]-CA--C-[O] |==|  0.02480
USER: genes 8 Torsion [N]-CA--CB-[CG] |==|  0.57473
USER: genes 9 Torsion [CA]-CB--CG-[ND1] |==|  0.32376
ROOT
ATOM      1  CA  HIS F   2       3.057  31.485 -19.078  1.00 30.59 LIG 0.18  C 
ENDROOT
BRANCH 1 2
ATOM      2  N   HIS F   2       2.029  31.475 -18.032  1.00 30.70 LIG-0.35  N 
ATOM      3  C   ALA F   1       0.997  30.633 -18.042  1.00 31.15 LIG 0.25  C 
ATOM      4 O    ALA F   1       0.808  29.796 -18.930  1.00 30.37 LIG-0.27  OA
ATOM      5 H    HIS F   2       2.155  32.061 -17.415  1.00 30.70 LIG 0.16  HD
BRANCH 3 6
ATOM      6  CA  ALA F   1       0.024  30.755 -16.863  1.00 31.15 LIG 0.27  C 
ATOM      7  CB  ALA F   1       0.491  31.284 -15.817  0.00 20.00 LIG 0.05  C 
BRANCH 6 8
ATOM      8  N   ALA F   1      -0.971  29.630 -16.849  1.00 31.97 LIG-0.07  N 
ATOM      9 H3   ALA F   1      -0.625  28.933 -16.417  1.00 31.97 LIG 0.28  HD
ATOM     10 H1   ALA F   1      -1.714  29.895 -16.437  1.00 31.97 LIG 0.28  HD
ATOM     11 H2   ALA F   1      -1.164  29.394 -17.685  1.00 31.97 LIG 0.28  HD
ENDBRANCH 6 8
ENDBRANCH 3 6
ENDBRANCH 1 2
BRANCH 1 12
ATOM     12  C   HIS F   2       2.501  32.061 -20.387  1.00 31.15 LIG 0.24  C 
ATOM     13 O    HIS F   2       3.134  31.942 -21.453  1.00 30.80 LIG-0.27  OA
ATOM     14  N   ALA F   3       1.319  32.682 -20.300  1.00 30.97 LIG-0.35  N 
ATOM     15 H    ALA F   3       0.876  32.762 -19.567  1.00 30.97 LIG 0.16  HD
BRANCH 14 16
ATOM     16  CA  ALA F   3       0.665  33.288 -21.458  1.00 31.72 LIG 0.16  C 
ATOM     17  CB  ALA F   3       0.121  32.117 -22.313  0.00 20.00 LIG 0.04  C 
BRANCH 16 18
ATOM     18  C   ALA F   3      -0.678  33.937 -21.131  1.00 32.37 LIG 0.22  C 
ATOM     19 O    ALA F   3      -1.050  34.071 -19.957  1.00 33.75 LIG-0.29  OA
ENDBRANCH 16 18
ENDBRANCH 14 16
ENDBRANCH 1 12
BRANCH 1 20
ATOM     20  CB  HIS F   2       3.591  30.063 -19.322  1.00 30.20 LIG 0.10  C 
BRANCH 20 21
ATOM     21  CG  HIS F   2       5.000  30.005 -19.849  1.00 29.66 LIG 0.06  A 
ATOM     22 ND1  HIS F   2       6.045  29.429 -19.155  1.00 29.25 LIG-0.24  NA
ATOM     23  CE1 HIS F   2       7.164  29.554 -19.852  1.00 27.69 LIG 0.23  A 
ATOM     24 NE2  HIS F   2       6.888  30.206 -20.971  1.00 31.40 LIG-0.25  NA
ATOM     25  CD2 HIS F   2       5.543  30.514 -20.985  1.00 30.69 LIG 0.14  A 
ENDBRANCH 20 21
ENDBRANCH 1 20
TORSDOF 8
ENDMDL
MODEL 86
USER: ADFR SOLUTION from run 58
USER: SCORE 7.821300 LL:  -1.450 LR:  -6.586 RR:   0.000 FEB:  -4.199
USER: RMSD 2.645264
USER: SEED 57
USER: STATUS no improvement in best in 22 clusters for 5 generations
USER: GENES 10
USER: genes 0 Translation |==|  0.62191 0.53627 0.69086
USER: genes 1 Rotation |==|  0.48137 0.48239 0.54657 0.99717
USER: genes 2 Torsion [C]-CA--N-[C] |==|  0.77222
USER: genes 3 Torsion [N]-C--CA-[N] |==|  0.57000
USER: genes 4 Torsion [C]-CA--N-[H3] |==|  0.71589
USER: genes 5 Torsion [N]-CA--C-[N] |==|  0.20717
USER: genes 6 Torsion [C]-N--CA-[CB] |==|  0.19721
USER: genes 7 Torsion [N]-CA--C-[O] |==|  0.02153
USER: genes 8 Torsion [N]-CA--CB-[CG] |==|  0.77499
USER: genes 9 Torsion [CA]-CB--CG-[ND1] |==|  0.52849
ROOT
ATOM      1  CA  HIS F   2       0.731  30.997 -16.093  1.00 30.59 LIG 0.18  C 
ENDROOT
BRANCH 1 2
ATOM      2  N   HIS F   2       1.027  31.315 -17.494  1.00 30.70 LIG-0.35  N 
ATOM      3  C   ALA F   1       0.649  30.535 -18.506  1.00 31.15 LIG 0.25  C 
ATOM      4 O    ALA F   1       0.030  29.477 -18.358  1.00 30.37 LIG-0.27  OA
ATOM      5 H    HIS F   2       1.464  32.048 -17.599  1.00 30.70 LIG 0.16  HD
BRANCH 3 6
ATOM      6  CA  ALA F   1       1.034  31.026 -19.907  1.00 31.15 LIG 0.27  C 
ATOM      7  CB  ALA F   1       1.552  32.175 -19.963  0.00 20.00 LIG 0.05  C 
BRANCH 6 8
ATOM      8  N   ALA F   1       0.108  30.482 -20.956  1.00 31.97 LIG-0.07  N 
ATOM      9 H3   ALA F   1       0.504  29.810 -21.384  1.00 31.97 LIG 0.28  HD
ATOM     10 H1   ALA F   1      -0.638  30.188 -20.570  1.00 31.97 LIG 0.28  HD
ATOM     11 H2   ALA F   1      -0.093  31.125 -21.537  1.00 31.97 LIG 0.28  HD
ENDBRANCH 6 8
ENDBRANCH 3 6
ENDBRANCH 1 2
BRANCH 1 12
ATOM     12  C   HIS F   2      -0.694  31.428 -15.723  1.00 31.15 LIG 0.24  C 
ATOM     13 O    HIS F   2      -0.891  32.437 -15.021  1.00 30.80 LIG-0.27  OA
ATOM     14  N   ALA F   3      -1.682  30.659 -16.198  1.00 30.97 LIG-0.35  N 
ATOM     15 H    ALA F   3      -1.550  29.964 -16.687  1.00 30.97 LIG 0.16  HD
BRANCH 14 16
ATOM     16  CA  ALA F   3      -3.091  30.937 -15.926  1.00 31.72 LIG 0.16  C 
ATOM     17  CB  ALA F   3      -3.450  32.206 -16.738  0.00 20.00 LIG 0.04  C 
BRANCH 16 18
ATOM     18  C   ALA F   3      -4.049  29.975 -16.623  1.00 32.37 LIG 0.22  C 
ATOM     19 O    ALA F   3      -3.623  28.978 -17.225  1.00 33.75 LIG-0.29  OA
ENDBRANCH 16 18
ENDBRANCH 14 16
ENDBRANCH 1 12
BRANCH 1 20
ATOM     20  CB  HIS F   2       1.741  31.687 -15.160  1.00 30.20 LIG 0.10  C 
BRANCH 20 21
ATOM     21  CG  HIS F   2       3.058  30.971 -15.024  1.00 29.66 LIG 0.06  A 
ATOM     22 ND1  HIS F   2       4.012  31.312 -14.086  1.00 29.25 LIG-0.24  NA
ATOM     23  CE1 HIS F   2       5.072  30.530 -14.225  1.00 27.69 LIG 0.23  A 
ATOM     24 NE2  HIS F   2       4.849  29.701 -15.234  1.00 31.40 LIG-0.25  NA
ATOM     25  CD2 HIS F   2       3.602  29.968 -15.761  1.00 30.69 LIG 0.14  A 
ENDBRANCH 20 21
ENDBRANCH 1 20
TORSDOF 8
ENDMDL
MODEL 87
USER: ADFR SOLUTION from run 39
USER: SCORE 7.817634 LL:  -1.368 LR:  -6.562 RR:   0.000 FEB:  -4.175
USER: RMSD 7.177508
USER: SEED 38
USER: STATUS no improvement in best in 22 clusters for 5 generations
USER: GENES 10
USER: genes 0 Translation |==|  0.64625 0.60891 0.45977
USER: genes 1 Rotation |==|  0.69996 0.93069 0.60219 0.61865
USER: genes 2 Torsion [C]-CA--N-[C] |==|  0.75002
USER: genes 3 Torsion [N]-C--CA-[N] |==|  0.45134
USER: genes 4 Torsion [C]-CA--N-[H3] |==|  0.11209
USER: genes 5 Torsion [N]-CA--C-[N] |==|  0.93006
USER: genes 6 Torsion [C]-N--CA-[CB] |==|  0.84349
USER: genes 7 Torsion [N]-CA--C-[O] |==|  0.12375
USER: genes 8 Torsion [N]-CA--CB-[CG] |==|  0.78075
USER: genes 9 Torsion [CA]-CB--CG-[ND1] |==|  0.58234
ROOT
ATOM      1  CA  HIS F   2       1.151  31.869 -19.733  1.00 30.59 LIG 0.18  C 
ENDROOT
BRANCH 1 2
ATOM      2  N   HIS F   2       0.423  32.068 -18.475  1.00 30.70 LIG-0.35  N 
ATOM      3  C   ALA F   1      -0.327  31.121 -17.917  1.00 31.15 LIG 0.25  C 
ATOM      4 O    ALA F   1      -0.487  29.999 -18.408  1.00 30.37 LIG-0.27  OA
ATOM      5 H    HIS F   2       0.527  32.852 -18.134  1.00 30.70 LIG 0.16  HD
BRANCH 3 6
ATOM      6  CA  ALA F   1      -1.009  31.498 -16.596  1.00 31.15 LIG 0.27  C 
ATOM      7  CB  ALA F   1      -0.262  32.022 -15.723  0.00 20.00 LIG 0.05  C 
BRANCH 6 8
ATOM      8  N   ALA F   1      -2.136  30.562 -16.269  1.00 31.97 LIG-0.07  N 
ATOM      9 H3   ALA F   1      -1.899  29.729 -16.471  1.00 31.97 LIG 0.28  HD
ATOM     10 H1   ALA F   1      -2.324  30.614 -15.400  1.00 31.97 LIG 0.28  HD
ATOM     11 H2   ALA F   1      -2.856  30.788 -16.740  1.00 31.97 LIG 0.28  HD
ENDBRANCH 6 8
ENDBRANCH 3 6
ENDBRANCH 1 2
BRANCH 1 12
ATOM     12  C   HIS F   2       2.561  31.324 -19.470  1.00 31.15 LIG 0.24  C 
ATOM     13 O    HIS F   2       3.159  30.664 -20.340  1.00 30.80 LIG-0.27  OA
ATOM     14  N   ALA F   3       3.085  31.604 -18.270  1.00 30.97 LIG-0.35  N 
ATOM     15 H    ALA F   3       2.676  32.064 -17.668  1.00 30.97 LIG 0.16  HD
BRANCH 14 16
ATOM     16  CA  ALA F   3       4.414  31.149 -17.871  1.00 31.72 LIG 0.16  C 
ATOM     17  CB  ALA F   3       4.412  29.608 -18.025  0.00 20.00 LIG 0.04  C 
BRANCH 16 18
ATOM     18  C   ALA F   3       5.499  31.452 -18.901  1.00 32.37 LIG 0.22  C 
ATOM     19 O    ALA F   3       5.560  32.560 -19.452  1.00 33.75 LIG-0.29  OA
ENDBRANCH 16 18
ENDBRANCH 14 16
ENDBRANCH 1 12
BRANCH 1 20
ATOM     20  CB  HIS F   2       1.242  33.189 -20.517  1.00 30.20 LIG 0.10  C 
BRANCH 20 21
ATOM     21  CG  HIS F   2      -0.009  33.558 -21.268  1.00 29.66 LIG 0.06  A 
ATOM     22 ND1  HIS F   2      -0.002  34.294 -22.437  1.00 29.25 LIG-0.24  NA
ATOM     23  CE1 HIS F   2      -1.246  34.486 -22.849  1.00 27.69 LIG 0.23  A 
ATOM     24 NE2  HIS F   2      -2.066  33.916 -21.979  1.00 31.40 LIG-0.25  NA
ATOM     25  CD2 HIS F   2      -1.317  33.343 -20.972  1.00 30.69 LIG 0.14  A 
ENDBRANCH 20 21
ENDBRANCH 1 20
TORSDOF 8
ENDMDL
MODEL 88
USER: ADFR SOLUTION from run 66
USER: SCORE 7.996168 LL:  -1.460 LR:  -6.550 RR:   0.000 FEB:  -4.163
USER: RMSD 3.911963
USER: SEED 65
USER: STATUS no improvement in best in 6 clusters for 5 generations
USER: GENES 10
USER: genes 0 Translation |==|  0.64497 0.53773 0.43030
USER: genes 1 Rotation |==|  0.57997 0.59164 0.36015 0.96438
USER: genes 2 Torsion [C]-CA--N-[C] |==|  0.82538
USER: genes 3 Torsion [N]-C--CA-[N] |==|  0.55609
USER: genes 4 Torsion [C]-CA--N-[H3] |==|  0.57051
USER: genes 5 Torsion [N]-CA--C-[N] |==|  0.41092
USER: genes 6 Torsion [C]-N--CA-[CB] |==|  0.41857
USER: genes 7 Torsion [N]-CA--C-[O] |==|  0.36585
USER: genes 8 Torsion [N]-CA--CB-[CG] |==|  0.53848
USER: genes 9 Torsion [CA]-CB--CG-[ND1] |==|  0.00352
ROOT
ATOM      1  CA  HIS F   2       1.129  31.015 -20.197  1.00 30.59 LIG 0.18  C 
ENDROOT
BRANCH 1 2
ATOM      2  N   HIS F   2       1.195  31.745 -21.467  1.00 30.70 LIG-0.35  N 
ATOM      3  C   ALA F   1       0.120  32.261 -22.060  1.00 31.15 LIG 0.25  C 
ATOM      4 O    ALA F   1      -1.023  32.164 -21.604  1.00 30.37 LIG-0.27  OA
ATOM      5 H    HIS F   2       1.990  31.808 -21.790  1.00 30.70 LIG 0.16  HD
BRANCH 3 6
ATOM      6  CA  ALA F   1       0.375  33.002 -23.379  1.00 31.15 LIG 0.27  C 
ATOM      7  CB  ALA F   1       1.584  33.243 -23.648  0.00 20.00 LIG 0.05  C 
BRANCH 6 8
ATOM      8  N   ALA F   1      -0.751  33.937 -23.713  1.00 31.97 LIG-0.07  N 
ATOM      9 H3   ALA F   1      -0.780  34.066 -24.593  1.00 31.97 LIG 0.28  HD
ATOM     10 H1   ALA F   1      -1.521  33.584 -23.440  1.00 31.97 LIG 0.28  HD
ATOM     11 H2   ALA F   1      -0.622  34.716 -23.304  1.00 31.97 LIG 0.28  HD
ENDBRANCH 6 8
ENDBRANCH 3 6
ENDBRANCH 1 2
BRANCH 1 12
ATOM     12  C   HIS F   2       0.629  31.925 -19.067  1.00 31.15 LIG 0.24  C 
ATOM     13 O    HIS F   2       0.889  33.142 -19.071  1.00 30.80 LIG-0.27  OA
ATOM     14  N   ALA F   3      -0.086  31.329 -18.106  1.00 30.97 LIG-0.35  N 
ATOM     15 H    ALA F   3      -0.271  30.489 -18.102  1.00 30.97 LIG 0.16  HD
BRANCH 14 16
ATOM     16  CA  ALA F   3      -0.625  32.061 -16.962  1.00 31.72 LIG 0.16  C 
ATOM     17  CB  ALA F   3      -1.913  31.317 -16.535  0.00 20.00 LIG 0.04  C 
BRANCH 16 18
ATOM     18  C   ALA F   3       0.166  31.849 -15.673  1.00 32.37 LIG 0.22  C 
ATOM     19 O    ALA F   3       0.511  32.812 -14.974  1.00 33.75 LIG-0.29  OA
ENDBRANCH 16 18
ENDBRANCH 14 16
ENDBRANCH 1 12
BRANCH 1 20
ATOM     20  CB  HIS F   2       2.509  30.443 -19.831  1.00 30.20 LIG 0.10  C 
BRANCH 20 21
ATOM     21  CG  HIS F   2       2.490  29.412 -18.734  1.00 29.66 LIG 0.06  A 
ATOM     22 ND1  HIS F   2       1.331  28.986 -18.116  1.00 29.25 LIG-0.24  NA
ATOM     23  CE1 HIS F   2       1.629  28.102 -17.176  1.00 27.69 LIG 0.23  A 
ATOM     24 NE2  HIS F   2       2.944  27.950 -17.148  1.00 31.40 LIG-0.25  NA
ATOM     25  CD2 HIS F   2       3.507  28.771 -18.103  1.00 30.69 LIG 0.14  A 
ENDBRANCH 20 21
ENDBRANCH 1 20
TORSDOF 8
ENDMDL
MODEL 89
USER: ADFR SOLUTION from run 4
USER: SCORE 8.007969 LL:  -1.543 LR:  -6.538 RR:   0.000 FEB:  -4.152
USER: RMSD 7.972265
USER: SEED 779226
USER: STATUS no improvement in best in 12 clusters for 5 generations
USER: GENES 10
USER: genes 0 Translation |==|  0.56561 0.80334 0.32991
USER: genes 1 Rotation |==|  0.41958 0.47562 0.98820 0.56780
USER: genes 2 Torsion [C]-CA--N-[C] |==|  0.16757
USER: genes 3 Torsion [N]-C--CA-[N] |==|  0.84570
USER: genes 4 Torsion [C]-CA--N-[H3] |==|  0.42183
USER: genes 5 Torsion [N]-CA--C-[N] |==|  0.09458
USER: genes 6 Torsion [C]-N--CA-[CB] |==|  0.16250
USER: genes 7 Torsion [N]-CA--C-[O] |==|  0.09109
USER: genes 8 Torsion [N]-CA--CB-[CG] |==|  0.89331
USER: genes 9 Torsion [CA]-CB--CG-[ND1] |==|  0.41468
ROOT
ATOM      1  CA  HIS F   2      -0.240  34.202 -21.778  1.00 30.59 LIG 0.18  C 
ENDROOT
BRANCH 1 2
ATOM      2  N   HIS F   2      -0.114  33.993 -23.224  1.00 30.70 LIG-0.35  N 
ATOM      3  C   ALA F   1      -0.458  32.853 -23.821  1.00 31.15 LIG 0.25  C 
ATOM      4 O    ALA F   1      -0.903  31.873 -23.216  1.00 30.37 LIG-0.27  OA
ATOM      5 H    HIS F   2       0.202  34.672 -23.647  1.00 30.70 LIG 0.16  HD
BRANCH 3 6
ATOM      6  CA  ALA F   1      -0.269  32.812 -25.343  1.00 31.15 LIG 0.27  C 
ATOM      7  CB  ALA F   1       0.836  32.354 -25.746  0.00 20.00 LIG 0.05  C 
BRANCH 6 8
ATOM      8  N   ALA F   1      -0.997  33.937 -26.020  1.00 31.97 LIG-0.07  N 
ATOM      9 H3   ALA F   1      -0.580  34.148 -26.778  1.00 31.97 LIG 0.28  HD
ATOM     10 H1   ALA F   1      -1.831  33.685 -26.201  1.00 31.97 LIG 0.28  HD
ATOM     11 H2   ALA F   1      -1.013  34.646 -25.484  1.00 31.97 LIG 0.28  HD
ENDBRANCH 6 8
ENDBRANCH 3 6
ENDBRANCH 1 2
BRANCH 1 12
ATOM     12  C   HIS F   2       0.610  33.188 -21.001  1.00 31.15 LIG 0.24  C 
ATOM     13 O    HIS F   2       0.226  32.749 -19.901  1.00 30.80 LIG-0.27  OA
ATOM     14  N   ALA F   3       1.760  32.821 -21.578  1.00 30.97 LIG-0.35  N 
ATOM     15 H    ALA F   3       2.026  33.119 -22.340  1.00 30.97 LIG 0.16  HD
BRANCH 14 16
ATOM     16  CA  ALA F   3       2.679  31.870 -20.958  1.00 31.72 LIG 0.16  C 
ATOM     17  CB  ALA F   3       1.877  30.562 -20.749  0.00 20.00 LIG 0.04  C 
BRANCH 16 18
ATOM     18  C   ALA F   3       3.723  31.312 -21.922  1.00 32.37 LIG 0.22  C 
ATOM     19 O    ALA F   3       4.167  32.005 -22.849  1.00 33.75 LIG-0.29  OA
ENDBRANCH 16 18
ENDBRANCH 14 16
ENDBRANCH 1 12
BRANCH 1 20
ATOM     20  CB  HIS F   2      -1.711  34.088 -21.344  1.00 30.20 LIG 0.10  C 
BRANCH 20 21
ATOM     21  CG  HIS F   2      -2.699  34.682 -22.313  1.00 29.66 LIG 0.06  A 
ATOM     22 ND1  HIS F   2      -3.983  34.201 -22.476  1.00 29.25 LIG-0.24  NA
ATOM     23  CE1 HIS F   2      -4.603  34.901 -23.414  1.00 27.69 LIG 0.23  A 
ATOM     24 NE2  HIS F   2      -3.762  35.812 -23.879  1.00 31.40 LIG-0.25  NA
ATOM     25  CD2 HIS F   2      -2.558  35.684 -23.218  1.00 30.69 LIG 0.14  A 
ENDBRANCH 20 21
ENDBRANCH 1 20
TORSDOF 8
ENDMDL
MODEL 90
USER: ADFR SOLUTION from run 169
USER: SCORE 8.087544 LL:  -1.611 LR:  -6.527 RR:   0.000 FEB:  -4.140
USER: RMSD 6.247829
USER: SEED 168
USER: STATUS no improvement in best in 15 clusters for 5 generations
USER: GENES 10
USER: genes 0 Translation |==|  0.66227 0.55369 0.47970
USER: genes 1 Rotation |==|  0.77394 0.86645 0.61232 0.66751
USER: genes 2 Torsion [C]-CA--N-[C] |==|  0.80007
USER: genes 3 Torsion [N]-C--CA-[N] |==|  0.47299
USER: genes 4 Torsion [C]-CA--N-[H3] |==|  0.06381
USER: genes 5 Torsion [N]-CA--C-[N] |==|  0.91580
USER: genes 6 Torsion [C]-N--CA-[CB] |==|  0.48562
USER: genes 7 Torsion [N]-CA--C-[O] |==|  0.05008
USER: genes 8 Torsion [N]-CA--CB-[CG] |==|  0.50857
USER: genes 9 Torsion [CA]-CB--CG-[ND1] |==|  0.80227
ROOT
ATOM      1  CA  HIS F   2       1.427  31.206 -19.419  1.00 30.59 LIG 0.18  C 
ENDROOT
BRANCH 1 2
ATOM      2  N   HIS F   2       0.594  31.618 -18.284  1.00 30.70 LIG-0.35  N 
ATOM      3  C   ALA F   1      -0.340  30.833 -17.751  1.00 31.15 LIG 0.25  C 
ATOM      4 O    ALA F   1      -0.595  29.698 -18.166  1.00 30.37 LIG-0.27  OA
ATOM      5 H    HIS F   2       0.766  32.411 -17.997  1.00 30.70 LIG 0.16  HD
BRANCH 3 6
ATOM      6  CA  ALA F   1      -1.110  31.422 -16.562  1.00 31.15 LIG 0.27  C 
ATOM      7  CB  ALA F   1      -0.418  32.061 -15.723  0.00 20.00 LIG 0.05  C 
BRANCH 6 8
ATOM      8  N   ALA F   1      -2.285  30.565 -16.187  1.00 31.97 LIG-0.07  N 
ATOM      9 H3   ALA F   1      -2.151  29.734 -16.474  1.00 31.97 LIG 0.28  HD
ATOM     10 H1   ALA F   1      -2.380  30.562 -15.302  1.00 31.97 LIG 0.28  HD
ATOM     11 H2   ALA F   1      -3.022  30.892 -16.563  1.00 31.97 LIG 0.28  HD
ENDBRANCH 6 8
ENDBRANCH 3 6
ENDBRANCH 1 2
BRANCH 1 12
ATOM     12  C   HIS F   2       2.453  30.149 -18.990  1.00 31.15 LIG 0.24  C 
ATOM     13 O    HIS F   2       2.850  29.286 -19.795  1.00 30.80 LIG-0.27  OA
ATOM     14  N   ALA F   3       2.877  30.222 -17.723  1.00 30.97 LIG-0.35  N 
ATOM     15 H    ALA F   3       2.609  30.819 -17.165  1.00 30.97 LIG 0.16  HD
BRANCH 14 16
ATOM     16  CA  ALA F   3       3.848  29.282 -17.166  1.00 31.72 LIG 0.16  C 
ATOM     17  CB  ALA F   3       4.169  29.783 -15.737  0.00 20.00 LIG 0.04  C 
BRANCH 16 18
ATOM     18  C   ALA F   3       3.241  27.937 -16.776  1.00 32.37 LIG 0.22  C 
ATOM     19 O    ALA F   3       2.141  27.582 -17.223  1.00 33.75 LIG-0.29  OA
ENDBRANCH 16 18
ENDBRANCH 14 16
ENDBRANCH 1 12
BRANCH 1 20
ATOM     20  CB  HIS F   2       2.153  32.420 -20.023  1.00 30.20 LIG 0.10  C 
BRANCH 20 21
ATOM     21  CG  HIS F   2       2.980  32.112 -21.243  1.00 29.66 LIG 0.06  A 
ATOM     22 ND1  HIS F   2       4.161  31.398 -21.198  1.00 29.25 LIG-0.24  NA
ATOM     23  CE1 HIS F   2       4.675  31.312 -22.415  1.00 27.69 LIG 0.23  A 
ATOM     24 NE2  HIS F   2       3.878  31.960 -23.251  1.00 31.40 LIG-0.25  NA
ATOM     25  CD2 HIS F   2       2.818  32.483 -22.539  1.00 30.69 LIG 0.14  A 
ENDBRANCH 20 21
ENDBRANCH 1 20
TORSDOF 8
ENDMDL
MODEL 91
USER: ADFR SOLUTION from run 79
USER: SCORE 7.851188 LL:  -1.349 LR:  -6.520 RR:   0.000 FEB:  -4.134
USER: RMSD 5.480900
USER: SEED 78
USER: STATUS no improvement in best in 15 clusters for 5 generations
USER: GENES 10
USER: genes 0 Translation |==|  0.52487 0.50941 0.54761
USER: genes 1 Rotation |==|  0.59425 0.52987 0.01301 0.55533
USER: genes 2 Torsion [C]-CA--N-[C] |==|  0.79019
USER: genes 3 Torsion [N]-C--CA-[N] |==|  0.01607
USER: genes 4 Torsion [C]-CA--N-[H3] |==|  0.36152
USER: genes 5 Torsion [N]-CA--C-[N] |==|  0.97221
USER: genes 6 Torsion [C]-N--CA-[CB] |==|  0.25208
USER: genes 7 Torsion [N]-CA--C-[O] |==|  0.99751
USER: genes 8 Torsion [N]-CA--CB-[CG] |==|  0.57269
USER: genes 9 Torsion [CA]-CB--CG-[ND1] |==|  0.50523
ROOT
ATOM      1  CA  HIS F   2      -0.943  30.675 -18.349  1.00 30.59 LIG 0.18  C 
ENDROOT
BRANCH 1 2
ATOM      2  N   HIS F   2      -0.597  30.487 -19.762  1.00 30.70 LIG-0.35  N 
ATOM      3  C   ALA F   1       0.246  31.287 -20.411  1.00 31.15 LIG 0.25  C 
ATOM      4 O    ALA F   1       0.803  32.258 -19.891  1.00 30.37 LIG-0.27  OA
ATOM      5 H    HIS F   2      -0.989  29.814 -20.129  1.00 30.70 LIG 0.16  HD
BRANCH 3 6
ATOM      6  CA  ALA F   1       0.501  30.937 -21.883  1.00 31.15 LIG 0.27  C 
ATOM      7  CB  ALA F   1       0.849  31.897 -22.623  0.00 20.00 LIG 0.05  C 
BRANCH 6 8
ATOM      8  N   ALA F   1      -0.381  29.812 -22.343  1.00 31.97 LIG-0.07  N 
ATOM      9 H3   ALA F   1      -0.780  30.040 -23.105  1.00 31.97 LIG 0.28  HD
ATOM     10 H1   ALA F   1       0.112  29.082 -22.474  1.00 31.97 LIG 0.28  HD
ATOM     11 H2   ALA F   1      -0.997  29.645 -21.724  1.00 31.97 LIG 0.28  HD
ENDBRANCH 6 8
ENDBRANCH 3 6
ENDBRANCH 1 2
BRANCH 1 12
ATOM     12  C   HIS F   2       0.202  30.213 -17.439  1.00 31.15 LIG 0.24  C 
ATOM     13 O    HIS F   2       0.181  30.458 -16.218  1.00 30.80 LIG-0.27  OA
ATOM     14  N   ALA F   3       1.196  29.545 -18.037  1.00 30.97 LIG-0.35  N 
ATOM     15 H    ALA F   3       1.212  29.370 -18.879  1.00 30.97 LIG 0.16  HD
BRANCH 14 16
ATOM     16  CA  ALA F   3       2.358  29.047 -17.304  1.00 31.72 LIG 0.16  C 
ATOM     17  CB  ALA F   3       2.003  27.610 -16.849  0.00 20.00 LIG 0.04  C 
BRANCH 16 18
ATOM     18  C   ALA F   3       3.538  28.687 -18.202  1.00 32.37 LIG 0.22  C 
ATOM     19 O    ALA F   3       3.460  28.808 -19.433  1.00 33.75 LIG-0.29  OA
ENDBRANCH 16 18
ENDBRANCH 14 16
ENDBRANCH 1 12
BRANCH 1 20
ATOM     20  CB  HIS F   2      -2.227  29.903 -18.001  1.00 30.20 LIG 0.10  C 
BRANCH 20 21
ATOM     21  CG  HIS F   2      -3.006  30.471 -16.845  1.00 29.66 LIG 0.06  A 
ATOM     22 ND1  HIS F   2      -4.164  29.899 -16.358  1.00 29.25 LIG-0.24  NA
ATOM     23  CE1 HIS F   2      -4.639  30.634 -15.364  1.00 27.69 LIG 0.23  A 
ATOM     24 NE2  HIS F   2      -3.838  31.676 -15.196  1.00 31.40 LIG-0.25  NA
ATOM     25  CD2 HIS F   2      -2.818  31.605 -16.122  1.00 30.69 LIG 0.14  A 
ENDBRANCH 20 21
ENDBRANCH 1 20
TORSDOF 8
ENDMDL
MODEL 92
USER: ADFR SOLUTION from run 25
USER: SCORE 7.814923 LL:  -1.389 LR:  -6.507 RR:   0.000 FEB:  -4.121
USER: RMSD 5.572170
USER: SEED 24
USER: STATUS no improvement in best in 28 clusters for 5 generations
USER: GENES 10
USER: genes 0 Translation |==|  0.54372 0.61646 0.66249
USER: genes 1 Rotation |==|  0.47204 0.41358 0.99160 0.50864
USER: genes 2 Torsion [C]-CA--N-[C] |==|  0.16092
USER: genes 3 Torsion [N]-C--CA-[N] |==|  0.53911
USER: genes 4 Torsion [C]-CA--N-[H3] |==|  0.71769
USER: genes 5 Torsion [N]-CA--C-[N] |==|  0.13306
USER: genes 6 Torsion [C]-N--CA-[CB] |==|  0.83229
USER: genes 7 Torsion [N]-CA--C-[O] |==|  0.38639
USER: genes 8 Torsion [N]-CA--CB-[CG] |==|  0.84493
USER: genes 9 Torsion [CA]-CB--CG-[ND1] |==|  0.02550
ROOT
ATOM      1  CA  HIS F   2      -0.618  31.960 -16.540  1.00 30.59 LIG 0.18  C 
ENDROOT
BRANCH 1 2
ATOM      2  N   HIS F   2      -0.721  32.097 -17.996  1.00 30.70 LIG-0.35  N 
ATOM      3  C   ALA F   1      -0.820  31.052 -18.815  1.00 31.15 LIG 0.25  C 
ATOM      4 O    ALA F   1      -0.824  29.879 -18.427  1.00 30.37 LIG-0.27  OA
ATOM      5 H    HIS F   2      -0.711  32.913 -18.270  1.00 30.70 LIG 0.16  HD
BRANCH 3 6
ATOM      6  CA  ALA F   1      -0.929  31.380 -20.309  1.00 31.15 LIG 0.27  C 
ATOM      7  CB  ALA F   1      -1.260  32.566 -20.588  0.00 20.00 LIG 0.05  C 
BRANCH 6 8
ATOM      8  N   ALA F   1      -1.372  30.187 -21.106  1.00 31.97 LIG-0.07  N 
ATOM      9 H3   ALA F   1      -0.669  29.822 -21.511  1.00 31.97 LIG 0.28  HD
ATOM     10 H1   ALA F   1      -1.745  29.589 -20.563  1.00 31.97 LIG 0.28  HD
ATOM     11 H2   ALA F   1      -1.966  30.442 -21.717  1.00 31.97 LIG 0.28  HD
ENDBRANCH 6 8
ENDBRANCH 3 6
ENDBRANCH 1 2
BRANCH 1 12
ATOM     12  C   HIS F   2       0.598  31.107 -16.155  1.00 31.15 LIG 0.24  C 
ATOM     13 O    HIS F   2       0.487  30.179 -15.332  1.00 30.80 LIG-0.27  OA
ATOM     14  N   ALA F   3       1.752  31.425 -16.753  1.00 30.97 LIG-0.35  N 
ATOM     15 H    ALA F   3       1.831  32.062 -17.326  1.00 30.97 LIG 0.16  HD
BRANCH 14 16
ATOM     16  CA  ALA F   3       2.997  30.708 -16.485  1.00 31.72 LIG 0.16  C 
ATOM     17  CB  ALA F   3       3.284  30.885 -14.973  0.00 20.00 LIG 0.04  C 
BRANCH 16 18
ATOM     18  C   ALA F   3       2.841  29.190 -16.483  1.00 32.37 LIG 0.22  C 
ATOM     19 O    ALA F   3       3.698  28.462 -17.004  1.00 33.75 LIG-0.29  OA
ENDBRANCH 16 18
ENDBRANCH 14 16
ENDBRANCH 1 12
BRANCH 1 20
ATOM     20  CB  HIS F   2      -1.898  31.328 -15.967  1.00 30.20 LIG 0.10  C 
BRANCH 20 21
ATOM     21  CG  HIS F   2      -3.167  32.061 -16.312  1.00 29.66 LIG 0.06  A 
ATOM     22 ND1  HIS F   2      -3.219  33.096 -17.225  1.00 29.25 LIG-0.24  NA
ATOM     23  CE1 HIS F   2      -4.457  33.562 -17.298  1.00 27.69 LIG 0.23  A 
ATOM     24 NE2  HIS F   2      -5.211  32.877 -16.451  1.00 31.40 LIG-0.25  NA
ATOM     25  CD2 HIS F   2      -4.423  31.943 -15.810  1.00 30.69 LIG 0.14  A 
ENDBRANCH 20 21
ENDBRANCH 1 20
TORSDOF 8
ENDMDL
MODEL 93
USER: ADFR SOLUTION from run 109
USER: SCORE 7.761249 LL:  -1.334 LR:  -6.502 RR:   0.000 FEB:  -4.116
USER: RMSD 6.287524
USER: SEED 108
USER: STATUS no improvement in best in 25 clusters for 5 generations
USER: GENES 10
USER: genes 0 Translation |==|  0.54338 0.58912 0.55878
USER: genes 1 Rotation |==|  0.68777 0.89531 0.63843 0.69826
USER: genes 2 Torsion [C]-CA--N-[C] |==|  0.76649
USER: genes 3 Torsion [N]-C--CA-[N] |==|  0.73892
USER: genes 4 Torsion [C]-CA--N-[H3] |==|  0.26752
USER: genes 5 Torsion [N]-CA--C-[N] |==|  0.37374
USER: genes 6 Torsion [C]-N--CA-[CB] |==|  0.29248
USER: genes 7 Torsion [N]-CA--C-[O] |==|  0.13448
USER: genes 8 Torsion [N]-CA--CB-[CG] |==|  0.84996
USER: genes 9 Torsion [CA]-CB--CG-[ND1] |==|  0.11496
ROOT
ATOM      1  CA  HIS F   2      -0.624  31.631 -18.173  1.00 30.59 LIG 0.18  C 
ENDROOT
BRANCH 1 2
ATOM      2  N   HIS F   2      -1.755  31.857 -17.268  1.00 30.70 LIG-0.35  N 
ATOM      3  C   ALA F   1      -2.634  30.906 -16.959  1.00 31.15 LIG 0.25  C 
ATOM      4 O    ALA F   1      -2.583  29.757 -17.411  1.00 30.37 LIG-0.27  OA
ATOM      5 H    HIS F   2      -1.797  32.659 -16.957  1.00 30.70 LIG 0.16  HD
BRANCH 3 6
ATOM      6  CA  ALA F   1      -3.749  31.314 -15.989  1.00 31.15 LIG 0.27  C 
ATOM      7  CB  ALA F   1      -4.422  32.328 -16.321  0.00 20.00 LIG 0.05  C 
BRANCH 6 8
ATOM      8  N   ALA F   1      -3.392  30.986 -14.567  1.00 31.97 LIG-0.07  N 
ATOM      9 H3   ALA F   1      -3.052  31.707 -14.172  1.00 31.97 LIG 0.28  HD
ATOM     10 H1   ALA F   1      -4.121  30.725 -14.130  1.00 31.97 LIG 0.28  HD
ATOM     11 H2   ALA F   1      -2.790  30.331 -14.556  1.00 31.97 LIG 0.28  HD
ENDBRANCH 6 8
ENDBRANCH 3 6
ENDBRANCH 1 2
BRANCH 1 12
ATOM     12  C   HIS F   2       0.565  31.019 -17.422  1.00 31.15 LIG 0.24  C 
ATOM     13 O    HIS F   2       0.922  31.474 -16.319  1.00 30.80 LIG-0.27  OA
ATOM     14  N   ALA F   3       1.172  29.988 -18.022  1.00 30.97 LIG-0.35  N 
ATOM     15 H    ALA F   3       0.926  29.668 -18.782  1.00 30.97 LIG 0.16  HD
BRANCH 14 16
ATOM     16  CA  ALA F   3       2.322  29.305 -17.434  1.00 31.72 LIG 0.16  C 
ATOM     17  CB  ALA F   3       1.797  27.950 -16.898  0.00 20.00 LIG 0.04  C 
BRANCH 16 18
ATOM     18  C   ALA F   3       3.296  28.747 -18.468  1.00 32.37 LIG 0.22  C 
ATOM     19 O    ALA F   3       3.695  29.449 -19.409  1.00 33.75 LIG-0.29  OA
ENDBRANCH 16 18
ENDBRANCH 14 16
ENDBRANCH 1 12
BRANCH 1 20
ATOM     20  CB  HIS F   2      -0.194  32.950 -18.838  1.00 30.20 LIG 0.10  C 
BRANCH 20 21
ATOM     21  CG  HIS F   2      -1.303  33.687 -19.542  1.00 29.66 LIG 0.06  A 
ATOM     22 ND1  HIS F   2      -2.577  33.811 -19.026  1.00 29.25 LIG-0.24  NA
ATOM     23  CE1 HIS F   2      -3.338  34.482 -19.877  1.00 27.69 LIG 0.23  A 
ATOM     24 NE2  HIS F   2      -2.608  34.785 -20.940  1.00 31.40 LIG-0.25  NA
ATOM     25  CD2 HIS F   2      -1.335  34.284 -20.762  1.00 30.69 LIG 0.14  A 
ENDBRANCH 20 21
ENDBRANCH 1 20
TORSDOF 8
ENDMDL
MODEL 94
USER: ADFR SOLUTION from run 190
USER: SCORE 8.070737 LL:  -1.626 LR:  -6.496 RR:   0.000 FEB:  -4.110
USER: RMSD 4.503283
USER: SEED 189
USER: STATUS no improvement in best in 16 clusters for 5 generations
USER: GENES 10
USER: genes 0 Translation |==|  0.59466 0.41053 0.63063
USER: genes 1 Rotation |==|  0.30721 0.69302 0.20414 0.79672
USER: genes 2 Torsion [C]-CA--N-[C] |==|  0.76735
USER: genes 3 Torsion [N]-C--CA-[N] |==|  0.92205
USER: genes 4 Torsion [C]-CA--N-[H3] |==|  0.27163
USER: genes 5 Torsion [N]-CA--C-[N] |==|  0.94468
USER: genes 6 Torsion [C]-N--CA-[CB] |==|  0.37706
USER: genes 7 Torsion [N]-CA--C-[O] |==|  0.07311
USER: genes 8 Torsion [N]-CA--CB-[CG] |==|  0.32244
USER: genes 9 Torsion [CA]-CB--CG-[ND1] |==|  0.77772
ROOT
ATOM      1  CA  HIS F   2       0.261  29.488 -17.042  1.00 30.59 LIG 0.18  C 
ENDROOT
BRANCH 1 2
ATOM      2  N   HIS F   2      -0.865  29.227 -17.945  1.00 30.70 LIG-0.35  N 
ATOM      3  C   ALA F   1      -2.065  29.779 -17.780  1.00 31.15 LIG 0.25  C 
ATOM      4 O    ALA F   1      -2.342  30.547 -16.853  1.00 30.37 LIG-0.27  OA
ATOM      5 H    HIS F   2      -0.676  28.687 -18.588  1.00 30.70 LIG 0.16  HD
BRANCH 3 6
ATOM      6  CA  ALA F   1      -3.123  29.402 -18.825  1.00 31.15 LIG 0.27  C 
ATOM      7  CB  ALA F   1      -4.158  28.834 -18.379  0.00 20.00 LIG 0.05  C 
BRANCH 6 8
ATOM      8  N   ALA F   1      -2.497  29.064 -20.147  1.00 31.97 LIG-0.07  N 
ATOM      9 H3   ALA F   1      -2.420  28.181 -20.223  1.00 31.97 LIG 0.28  HD
ATOM     10 H1   ALA F   1      -3.008  29.375 -20.806  1.00 31.97 LIG 0.28  HD
ATOM     11 H2   ALA F   1      -1.691  29.437 -20.198  1.00 31.97 LIG 0.28  HD
ENDBRANCH 6 8
ENDBRANCH 3 6
ENDBRANCH 1 2
BRANCH 1 12
ATOM     12  C   HIS F   2       0.986  30.783 -17.430  1.00 31.15 LIG 0.24  C 
ATOM     13 O    HIS F   2       1.712  31.375 -16.610  1.00 30.80 LIG-0.27  OA
ATOM     14  N   ALA F   3       0.787  31.215 -18.681  1.00 30.97 LIG-0.35  N 
ATOM     15 H    ALA F   3       0.290  30.807 -19.252  1.00 30.97 LIG 0.16  HD
BRANCH 14 16
ATOM     16  CA  ALA F   3       1.404  32.436 -19.196  1.00 31.72 LIG 0.16  C 
ATOM     17  CB  ALA F   3       1.934  32.093 -20.610  0.00 20.00 LIG 0.04  C 
BRANCH 16 18
ATOM     18  C   ALA F   3       0.394  33.502 -19.613  1.00 32.37 LIG 0.22  C 
ATOM     19 O    ALA F   3      -0.732  33.547 -19.098  1.00 33.75 LIG-0.29  OA
ENDBRANCH 16 18
ENDBRANCH 14 16
ENDBRANCH 1 12
BRANCH 1 20
ATOM     20  CB  HIS F   2       1.252  28.312 -17.061  1.00 30.20 LIG 0.10  C 
BRANCH 20 21
ATOM     21  CG  HIS F   2       2.619  28.653 -17.592  1.00 29.66 LIG 0.06  A 
ATOM     22 ND1  HIS F   2       2.907  28.744 -18.939  1.00 29.25 LIG-0.24  NA
ATOM     23  CE1 HIS F   2       4.191  29.028 -19.100  1.00 27.69 LIG 0.23  A 
ATOM     24 NE2  HIS F   2       4.753  29.109 -17.904  1.00 31.40 LIG-0.25  NA
ATOM     25  CD2 HIS F   2       3.794  28.862 -16.944  1.00 30.69 LIG 0.14  A 
ENDBRANCH 20 21
ENDBRANCH 1 20
TORSDOF 8
ENDMDL
MODEL 95
USER: ADFR SOLUTION from run 72
USER: SCORE 8.069839 LL:  -1.574 LR:  -6.497 RR:   0.000 FEB:  -4.110
USER: RMSD 6.124570
USER: SEED 71
USER: STATUS no improvement in best in 15 clusters for 5 generations
USER: GENES 10
USER: genes 0 Translation |==|  0.79490 0.52825 0.48609
USER: genes 1 Rotation |==|  0.70104 0.71657 0.57941 0.89544
USER: genes 2 Torsion [C]-CA--N-[C] |==|  0.82641
USER: genes 3 Torsion [N]-C--CA-[N] |==|  0.77416
USER: genes 4 Torsion [C]-CA--N-[H3] |==|  0.95413
USER: genes 5 Torsion [N]-CA--C-[N] |==|  0.93227
USER: genes 6 Torsion [C]-N--CA-[CB] |==|  0.29295
USER: genes 7 Torsion [N]-CA--C-[O] |==|  0.00696
USER: genes 8 Torsion [N]-CA--CB-[CG] |==|  0.72538
USER: genes 9 Torsion [CA]-CB--CG-[ND1] |==|  0.12108
ROOT
ATOM      1  CA  HIS F   2       3.715  30.901 -19.318  1.00 30.59 LIG 0.18  C 
ENDROOT
BRANCH 1 2
ATOM      2  N   HIS F   2       2.767  31.984 -19.598  1.00 30.70 LIG-0.35  N 
ATOM      3  C   ALA F   1       1.453  31.788 -19.690  1.00 31.15 LIG 0.25  C 
ATOM      4 O    ALA F   1       0.917  30.683 -19.560  1.00 30.37 LIG-0.27  OA
ATOM      5 H    HIS F   2       3.138  32.755 -19.696  1.00 30.70 LIG 0.16  HD
BRANCH 3 6
ATOM      6  CA  ALA F   1       0.609  33.036 -19.978  1.00 31.15 LIG 0.27  C 
ATOM      7  CB  ALA F   1       0.774  33.560 -21.114  0.00 20.00 LIG 0.05  C 
BRANCH 6 8
ATOM      8  N   ALA F   1       0.351  33.828 -18.729  1.00 31.97 LIG-0.07  N 
ATOM      9 H3   ALA F   1       0.522  33.324 -18.016  1.00 31.97 LIG 0.28  HD
ATOM     10 H1   ALA F   1       0.878  34.545 -18.718  1.00 31.97 LIG 0.28  HD
ATOM     11 H2   ALA F   1      -0.500  34.086 -18.711  1.00 31.97 LIG 0.28  HD
ENDBRANCH 6 8
ENDBRANCH 3 6
ENDBRANCH 1 2
BRANCH 1 12
ATOM     12  C   HIS F   2       3.448  30.281 -17.940  1.00 31.15 LIG 0.24  C 
ATOM     13 O    HIS F   2       3.801  29.114 -17.690  1.00 30.80 LIG-0.27  OA
ATOM     14  N   ALA F   3       2.826  31.067 -17.053  1.00 30.97 LIG-0.35  N 
ATOM     15 H    ALA F   3       2.585  31.876 -17.221  1.00 30.97 LIG 0.16  HD
BRANCH 14 16
ATOM     16  CA  ALA F   3       2.498  30.617 -15.702  1.00 31.72 LIG 0.16  C 
ATOM     17  CB  ALA F   3       3.506  31.311 -14.754  0.00 20.00 LIG 0.04  C 
BRANCH 16 18
ATOM     18  C   ALA F   3       1.227  31.248 -15.140  1.00 32.37 LIG 0.22  C 
ATOM     19 O    ALA F   3       0.546  32.026 -15.825  1.00 33.75 LIG-0.29  OA
ENDBRANCH 16 18
ENDBRANCH 14 16
ENDBRANCH 1 12
BRANCH 1 20
ATOM     20  CB  HIS F   2       5.161  31.421 -19.382  1.00 30.20 LIG 0.10  C 
BRANCH 20 21
ATOM     21  CG  HIS F   2       5.870  31.141 -20.681  1.00 29.66 LIG 0.06  A 
ATOM     22 ND1  HIS F   2       5.280  31.311 -21.918  1.00 29.25 LIG-0.24  NA
ATOM     23  CE1 HIS F   2       6.132  30.960 -22.869  1.00 27.69 LIG 0.23  A 
ATOM     24 NE2  HIS F   2       7.253  30.550 -22.294  1.00 31.40 LIG-0.25  NA
ATOM     25  CD2 HIS F   2       7.108  30.639 -20.924  1.00 30.69 LIG 0.14  A 
ENDBRANCH 20 21
ENDBRANCH 1 20
TORSDOF 8
ENDMDL
MODEL 96
USER: ADFR SOLUTION from run 37
USER: SCORE 7.759254 LL:  -1.395 LR:  -6.503 RR:   0.000 FEB:  -4.116
USER: RMSD 6.547918
USER: SEED 36
USER: STATUS no improvement in best in 15 clusters for 5 generations
USER: GENES 10
USER: genes 0 Translation |==|  0.69917 0.51799 0.38275
USER: genes 1 Rotation |==|  0.60144 0.86292 0.73784 0.72678
USER: genes 2 Torsion [C]-CA--N-[C] |==|  0.18248
USER: genes 3 Torsion [N]-C--CA-[N] |==|  0.95124
USER: genes 4 Torsion [C]-CA--N-[H3] |==|  0.32763
USER: genes 5 Torsion [N]-CA--C-[N] |==|  0.06673
USER: genes 6 Torsion [C]-N--CA-[CB] |==|  0.19096
USER: genes 7 Torsion [N]-CA--C-[O] |==|  0.98584
USER: genes 8 Torsion [N]-CA--CB-[CG] |==|  0.65444
USER: genes 9 Torsion [CA]-CB--CG-[ND1] |==|  0.85838
ROOT
ATOM      1  CA  HIS F   2       2.064  30.778 -20.946  1.00 30.59 LIG 0.18  C 
ENDROOT
BRANCH 1 2
ATOM      2  N   HIS F   2       0.693  30.433 -20.554  1.00 30.70 LIG-0.35  N 
ATOM      3  C   ALA F   1       0.062  31.023 -19.541  1.00 31.15 LIG 0.25  C 
ATOM      4 O    ALA F   1       0.572  31.901 -18.837  1.00 30.37 LIG-0.27  OA
ATOM      5 H    HIS F   2       0.338  29.817 -21.038  1.00 30.70 LIG 0.16  HD
BRANCH 3 6
ATOM      6  CA  ALA F   1      -1.372  30.546 -19.277  1.00 31.15 LIG 0.27  C 
ATOM      7  CB  ALA F   1      -1.640  30.248 -18.081  0.00 20.00 LIG 0.05  C 
BRANCH 6 8
ATOM      8  N   ALA F   1      -1.936  29.812 -20.460  1.00 31.97 LIG-0.07  N 
ATOM      9 H3   ALA F   1      -2.122  28.973 -20.229  1.00 31.97 LIG 0.28  HD
ATOM     10 H1   ALA F   1      -2.680  30.216 -20.733  1.00 31.97 LIG 0.28  HD
ATOM     11 H2   ALA F   1      -1.340  29.812 -21.121  1.00 31.97 LIG 0.28  HD
ENDBRANCH 6 8
ENDBRANCH 3 6
ENDBRANCH 1 2
BRANCH 1 12
ATOM     12  C   HIS F   2       3.061  30.399 -19.843  1.00 31.15 LIG 0.24  C 
ATOM     13 O    HIS F   2       4.160  30.977 -19.755  1.00 30.80 LIG-0.27  OA
ATOM     14  N   ALA F   3       2.670  29.431 -19.005  1.00 30.97 LIG-0.35  N 
ATOM     15 H    ALA F   3       1.910  29.033 -19.060  1.00 30.97 LIG 0.16  HD
BRANCH 14 16
ATOM     16  CA  ALA F   3       3.512  28.957 -17.909  1.00 31.72 LIG 0.16  C 
ATOM     17  CB  ALA F   3       3.589  30.116 -16.886  0.00 20.00 LIG 0.04  C 
BRANCH 16 18
ATOM     18  C   ALA F   3       2.823  27.938 -17.006  1.00 32.37 LIG 0.22  C 
ATOM     19 O    ALA F   3       1.628  27.649 -17.169  1.00 33.75 LIG-0.29  OA
ENDBRANCH 16 18
ENDBRANCH 14 16
ENDBRANCH 1 12
BRANCH 1 20
ATOM     20  CB  HIS F   2       2.174  32.281 -21.252  1.00 30.20 LIG 0.10  C 
BRANCH 20 21
ATOM     21  CG  HIS F   2       2.712  32.603 -22.621  1.00 29.66 LIG 0.06  A 
ATOM     22 ND1  HIS F   2       3.878  32.062 -23.124  1.00 29.25 LIG-0.24  NA
ATOM     23  CE1 HIS F   2       4.110  32.551 -24.332  1.00 27.69 LIG 0.23  A 
ATOM     24 NE2  HIS F   2       3.144  33.407 -24.629  1.00 31.40 LIG-0.25  NA
ATOM     25  CD2 HIS F   2       2.265  33.469 -23.567  1.00 30.69 LIG 0.14  A 
ENDBRANCH 20 21
ENDBRANCH 1 20
TORSDOF 8
ENDMDL
MODEL 97
USER: ADFR SOLUTION from run 84
USER: SCORE 8.269285 LL:  -1.836 LR:  -6.471 RR:   0.000 FEB:  -4.085
USER: RMSD 6.260927
USER: SEED 83
USER: STATUS no improvement in best in 23 clusters for 5 generations
USER: GENES 10
USER: genes 0 Translation |==|  0.72926 0.32159 0.56971
USER: genes 1 Rotation |==|  0.60191 0.86127 0.46112 0.82801
USER: genes 2 Torsion [C]-CA--N-[C] |==|  0.84380
USER: genes 3 Torsion [N]-C--CA-[N] |==|  0.39136
USER: genes 4 Torsion [C]-CA--N-[H3] |==|  0.30128
USER: genes 5 Torsion [N]-CA--C-[N] |==|  0.89541
USER: genes 6 Torsion [C]-N--CA-[CB] |==|  0.29169
USER: genes 7 Torsion [N]-CA--C-[O] |==|  0.01729
USER: genes 8 Torsion [N]-CA--CB-[CG] |==|  0.07944
USER: genes 9 Torsion [CA]-CB--CG-[ND1] |==|  0.76672
ROOT
ATOM      1  CA  HIS F   2       2.583  28.421 -18.001  1.00 30.59 LIG 0.18  C 
ENDROOT
BRANCH 1 2
ATOM      2  N   HIS F   2       1.437  29.336 -18.022  1.00 30.70 LIG-0.35  N 
ATOM      3  C   ALA F   1       0.503  29.345 -17.072  1.00 31.15 LIG 0.25  C 
ATOM      4 O    ALA F   1       0.511  28.584 -16.100  1.00 30.37 LIG-0.27  OA
ATOM      5 H    HIS F   2       1.425  29.863 -18.702  1.00 30.70 LIG 0.16  HD
BRANCH 3 6
ATOM      6  CA  ALA F   1      -0.620  30.375 -17.249  1.00 31.15 LIG 0.27  C 
ATOM      7  CB  ALA F   1      -0.291  31.580 -17.072  0.00 20.00 LIG 0.05  C 
BRANCH 6 8
ATOM      8  N   ALA F   1      -1.953  29.812 -16.849  1.00 31.97 LIG-0.07  N 
ATOM      9 H3   ALA F   1      -2.217  30.185 -16.086  1.00 31.97 LIG 0.28  HD
ATOM     10 H1   ALA F   1      -2.551  29.984 -17.485  1.00 31.97 LIG 0.28  HD
ATOM     11 H2   ALA F   1      -1.883  28.932 -16.739  1.00 31.97 LIG 0.28  HD
ENDBRANCH 6 8
ENDBRANCH 3 6
ENDBRANCH 1 2
BRANCH 1 12
ATOM     12  C   HIS F   2       3.379  28.570 -16.698  1.00 31.15 LIG 0.24  C 
ATOM     13 O    HIS F   2       3.878  27.574 -16.142  1.00 30.80 LIG-0.27  OA
ATOM     14  N   ALA F   3       3.493  29.814 -16.218  1.00 30.97 LIG-0.35  N 
ATOM     15 H    ALA F   3       3.153  30.505 -16.602  1.00 30.97 LIG 0.16  HD
BRANCH 14 16
ATOM     16  CA  ALA F   3       4.215  30.114 -14.984  1.00 31.72 LIG 0.16  C 
ATOM     17  CB  ALA F   3       5.559  30.755 -15.410  0.00 20.00 LIG 0.04  C 
BRANCH 16 18
ATOM     18  C   ALA F   3       3.654  31.312 -14.223  1.00 32.37 LIG 0.22  C 
ATOM     19 O    ALA F   3       2.609  31.867 -14.593  1.00 33.75 LIG-0.29  OA
ENDBRANCH 16 18
ENDBRANCH 14 16
ENDBRANCH 1 12
BRANCH 1 20
ATOM     20  CB  HIS F   2       3.503  28.684 -19.205  1.00 30.20 LIG 0.10  C 
BRANCH 20 21
ATOM     21  CG  HIS F   2       3.484  30.102 -19.710  1.00 29.66 LIG 0.06  A 
ATOM     22 ND1  HIS F   2       2.536  30.578 -20.594  1.00 29.25 LIG-0.24  NA
ATOM     23  CE1 HIS F   2       2.792  31.846 -20.879  1.00 27.69 LIG 0.23  A 
ATOM     24 NE2  HIS F   2       3.884  32.208 -20.224  1.00 31.40 LIG-0.25  NA
ATOM     25  CD2 HIS F   2       4.346  31.130 -19.498  1.00 30.69 LIG 0.14  A 
ENDBRANCH 20 21
ENDBRANCH 1 20
TORSDOF 8
ENDMDL
MODEL 98
USER: ADFR SOLUTION from run 188
USER: SCORE 7.814807 LL:  -1.438 LR:  -6.458 RR:   0.000 FEB:  -4.072
USER: RMSD 5.614205
USER: SEED 187
USER: STATUS no improvement in best in 20 clusters for 5 generations
USER: GENES 10
USER: genes 0 Translation |==|  0.65765 0.57637 0.38764
USER: genes 1 Rotation |==|  0.74490 0.72781 0.53406 0.87009
USER: genes 2 Torsion [C]-CA--N-[C] |==|  0.68333
USER: genes 3 Torsion [N]-C--CA-[N] |==|  0.32811
USER: genes 4 Torsion [C]-CA--N-[H3] |==|  0.15119
USER: genes 5 Torsion [N]-CA--C-[N] |==|  0.03763
USER: genes 6 Torsion [C]-N--CA-[CB] |==|  0.18596
USER: genes 7 Torsion [N]-CA--C-[O] |==|  0.99685
USER: genes 8 Torsion [N]-CA--CB-[CG] |==|  0.82242
USER: genes 9 Torsion [CA]-CB--CG-[ND1] |==|  0.58381
ROOT
ATOM      1  CA  HIS F   2       1.347  31.478 -20.869  1.00 30.59 LIG 0.18  C 
ENDROOT
BRANCH 1 2
ATOM      2  N   HIS F   2       0.592  32.735 -20.883  1.00 30.70 LIG-0.35  N 
ATOM      3  C   ALA F   1      -0.467  32.932 -21.666  1.00 31.15 LIG 0.25  C 
ATOM      4 O    ALA F   1      -0.900  32.085 -22.453  1.00 30.37 LIG-0.27  OA
ATOM      5 H    HIS F   2       0.895  33.329 -20.339  1.00 30.70 LIG 0.16  HD
BRANCH 3 6
ATOM      6  CA  ALA F   1      -1.144  34.303 -21.544  1.00 31.15 LIG 0.27  C 
ATOM      7  CB  ALA F   1      -2.112  34.367 -20.737  0.00 20.00 LIG 0.05  C 
BRANCH 6 8
ATOM      8  N   ALA F   1      -1.092  35.062 -22.839  1.00 31.97 LIG-0.07  N 
ATOM      9 H3   ALA F   1      -1.439  34.564 -23.489  1.00 31.97 LIG 0.28  HD
ATOM     10 H1   ALA F   1      -1.560  35.815 -22.761  1.00 31.97 LIG 0.28  HD
ATOM     11 H2   ALA F   1      -0.247  35.258 -23.034  1.00 31.97 LIG 0.28  HD
ENDBRANCH 6 8
ENDBRANCH 3 6
ENDBRANCH 1 2
BRANCH 1 12
ATOM     12  C   HIS F   2       1.204  30.768 -19.516  1.00 31.15 LIG 0.24  C 
ATOM     13 O    HIS F   2       1.959  29.826 -19.211  1.00 30.80 LIG-0.27  OA
ATOM     14  N   ALA F   3       0.236  31.224 -18.713  1.00 30.97 LIG-0.35  N 
ATOM     15 H    ALA F   3      -0.284  31.877 -18.918  1.00 30.97 LIG 0.16  HD
BRANCH 14 16
ATOM     16  CA  ALA F   3      -0.027  30.646 -17.397  1.00 31.72 LIG 0.16  C 
ATOM     17  CB  ALA F   3       1.209  30.972 -16.522  0.00 20.00 LIG 0.04  C 
BRANCH 16 18
ATOM     18  C   ALA F   3      -1.059  31.423 -16.583  1.00 32.37 LIG 0.22  C 
ATOM     19 O    ALA F   3      -1.578  32.454 -17.034  1.00 33.75 LIG-0.29  OA
ENDBRANCH 16 18
ENDBRANCH 14 16
ENDBRANCH 1 12
BRANCH 1 20
ATOM     20  CB  HIS F   2       2.834  31.741 -21.163  1.00 30.20 LIG 0.10  C 
BRANCH 20 21
ATOM     21  CG  HIS F   2       3.113  32.295 -22.535  1.00 29.66 LIG 0.06  A 
ATOM     22 ND1  HIS F   2       4.284  32.054 -23.226  1.00 29.25 LIG-0.24  NA
ATOM     23  CE1 HIS F   2       4.255  32.693 -24.385  1.00 27.69 LIG 0.23  A 
ATOM     24 NE2  HIS F   2       3.112  33.357 -24.468  1.00 31.40 LIG-0.25  NA
ATOM     25  CD2 HIS F   2       2.387  33.137 -23.315  1.00 30.69 LIG 0.14  A 
ENDBRANCH 20 21
ENDBRANCH 1 20
TORSDOF 8
ENDMDL
MODEL 99
USER: ADFR SOLUTION from run 76
USER: SCORE 7.920708 LL:  -1.520 LR:  -6.437 RR:   0.000 FEB:  -4.051
USER: RMSD 6.525038
USER: SEED 75
USER: STATUS no improvement in best in 16 clusters for 5 generations
USER: GENES 10
USER: genes 0 Translation |==|  0.71887 0.37968 0.66750
USER: genes 1 Rotation |==|  0.42131 0.83024 0.31294 0.81585
USER: genes 2 Torsion [C]-CA--N-[C] |==|  0.85546
USER: genes 3 Torsion [N]-C--CA-[N] |==|  0.24461
USER: genes 4 Torsion [C]-CA--N-[H3] |==|  0.22615
USER: genes 5 Torsion [N]-CA--C-[N] |==|  0.36734
USER: genes 6 Torsion [C]-N--CA-[CB] |==|  0.49761
USER: genes 7 Torsion [N]-CA--C-[O] |==|  0.10302
USER: genes 8 Torsion [N]-CA--CB-[CG] |==|  0.18917
USER: genes 9 Torsion [CA]-CB--CG-[ND1] |==|  0.82883
ROOT
ATOM      1  CA  HIS F   2       2.403  29.118 -16.461  1.00 30.59 LIG 0.18  C 
ENDROOT
BRANCH 1 2
ATOM      2  N   HIS F   2       1.133  29.601 -17.013  1.00 30.70 LIG-0.35  N 
ATOM      3  C   ALA F   1       0.315  30.409 -16.342  1.00 31.15 LIG 0.25  C 
ATOM      4 O    ALA F   1       0.544  30.815 -15.198  1.00 30.37 LIG-0.27  OA
ATOM      5 H    HIS F   2       0.968  29.314 -17.807  1.00 30.70 LIG 0.16  HD
BRANCH 3 6
ATOM      6  CA  ALA F   1      -0.966  30.823 -17.076  1.00 31.15 LIG 0.27  C 
ATOM      7  CB  ALA F   1      -1.152  32.065 -17.198  0.00 20.00 LIG 0.05  C 
BRANCH 6 8
ATOM      8  N   ALA F   1      -2.076  29.837 -16.849  1.00 31.97 LIG-0.07  N 
ATOM      9 H3   ALA F   1      -2.464  30.001 -16.065  1.00 31.97 LIG 0.28  HD
ATOM     10 H1   ALA F   1      -2.679  29.913 -17.499  1.00 31.97 LIG 0.28  HD
ATOM     11 H2   ALA F   1      -1.744  29.012 -16.848  1.00 31.97 LIG 0.28  HD
ENDBRANCH 6 8
ENDBRANCH 3 6
ENDBRANCH 1 2
BRANCH 1 12
ATOM     12  C   HIS F   2       3.256  30.285 -15.947  1.00 31.15 LIG 0.24  C 
ATOM     13 O    HIS F   2       3.430  31.301 -16.646  1.00 30.80 LIG-0.27  OA
ATOM     14  N   ALA F   3       3.782  30.135 -14.725  1.00 30.97 LIG-0.35  N 
ATOM     15 H    ALA F   3       3.660  29.437 -14.237  1.00 30.97 LIG 0.16  HD
BRANCH 14 16
ATOM     16  CA  ALA F   3       4.621  31.157 -14.102  1.00 31.72 LIG 0.16  C 
ATOM     17  CB  ALA F   3       5.003  30.614 -12.704  0.00 20.00 LIG 0.04  C 
BRANCH 16 18
ATOM     18  C   ALA F   3       6.031  31.226 -14.682  1.00 32.37 LIG 0.22  C 
ATOM     19 O    ALA F   3       6.229  31.053 -15.893  1.00 33.75 LIG-0.29  OA
ENDBRANCH 16 18
ENDBRANCH 14 16
ENDBRANCH 1 12
BRANCH 1 20
ATOM     20  CB  HIS F   2       3.188  28.330 -17.523  1.00 30.20 LIG 0.10  C 
BRANCH 20 21
ATOM     21  CG  HIS F   2       3.703  29.163 -18.667  1.00 29.66 LIG 0.06  A 
ATOM     22 ND1  HIS F   2       2.878  29.861 -19.528  1.00 29.25 LIG-0.24  NA
ATOM     23  CE1 HIS F   2       3.610  30.473 -20.446  1.00 27.69 LIG 0.23  A 
ATOM     24 NE2  HIS F   2       4.884  30.185 -20.224  1.00 31.40 LIG-0.25  NA
ATOM     25  CD2 HIS F   2       4.967  29.353 -19.126  1.00 30.69 LIG 0.14  A 
ENDBRANCH 20 21
ENDBRANCH 1 20
TORSDOF 8
ENDMDL
MODEL 100
USER: ADFR SOLUTION from run 82
USER: SCORE 7.835359 LL:  -1.566 LR:  -6.436 RR:   0.000 FEB:  -4.049
USER: RMSD 5.205282
USER: SEED 81
USER: STATUS no improvement in best in 19 clusters for 5 generations
USER: GENES 10
USER: genes 0 Translation |==|  0.64499 0.59106 0.42548
USER: genes 1 Rotation |==|  0.68858 0.77007 0.51585 0.87583
USER: genes 2 Torsion [C]-CA--N-[C] |==|  0.54446
USER: genes 3 Torsion [N]-C--CA-[N] |==|  0.39868
USER: genes 4 Torsion [C]-CA--N-[H3] |==|  0.50946
USER: genes 5 Torsion [N]-CA--C-[N] |==|  0.43944
USER: genes 6 Torsion [C]-N--CA-[CB] |==|  0.25356
USER: genes 7 Torsion [N]-CA--C-[O] |==|  0.05291
USER: genes 8 Torsion [N]-CA--CB-[CG] |==|  0.40386
USER: genes 9 Torsion [CA]-CB--CG-[ND1] |==|  0.72921
ROOT
ATOM      1  CA  HIS F   2       1.129  31.655 -20.273  1.00 30.59 LIG 0.18  C 
ENDROOT
BRANCH 1 2
ATOM      2  N   HIS F   2       0.204  32.781 -20.440  1.00 30.70 LIG-0.35  N 
ATOM      3  C   ALA F   1      -0.318  33.117 -21.618  1.00 31.15 LIG 0.25  C 
ATOM      4 O    ALA F   1      -0.066  32.522 -22.671  1.00 30.37 LIG-0.27  OA
ATOM      5 H    HIS F   2       0.032  33.201 -19.709  1.00 30.70 LIG 0.16  HD
BRANCH 3 6
ATOM      6  CA  ALA F   1      -1.275  34.316 -21.608  1.00 31.15 LIG 0.27  C 
ATOM      7  CB  ALA F   1      -2.374  34.136 -21.014  0.00 20.00 LIG 0.05  C 
BRANCH 6 8
ATOM      8  N   ALA F   1      -1.130  35.148 -22.849  1.00 31.97 LIG-0.07  N 
ATOM      9 H3   ALA F   1      -1.660  35.861 -22.793  1.00 31.97 LIG 0.28  HD
ATOM     10 H1   ALA F   1      -0.285  35.413 -22.932  1.00 31.97 LIG 0.28  HD
ATOM     11 H2   ALA F   1      -1.359  34.664 -23.560  1.00 31.97 LIG 0.28  HD
ENDBRANCH 6 8
ENDBRANCH 3 6
ENDBRANCH 1 2
BRANCH 1 12
ATOM     12  C   HIS F   2       1.251  31.261 -18.795  1.00 31.15 LIG 0.24  C 
ATOM     13 O    HIS F   2       0.963  32.073 -17.896  1.00 30.80 LIG-0.27  OA
ATOM     14  N   ALA F   3       1.678  30.017 -18.552  1.00 30.97 LIG-0.35  N 
ATOM     15 H    ALA F   3       1.875  29.452 -19.170  1.00 30.97 LIG 0.16  HD
BRANCH 14 16
ATOM     16  CA  ALA F   3       1.852  29.498 -17.196  1.00 31.72 LIG 0.16  C 
ATOM     17  CB  ALA F   3       0.509  28.832 -16.809  0.00 20.00 LIG 0.04  C 
BRANCH 16 18
ATOM     18  C   ALA F   3       2.723  28.247 -17.127  1.00 32.37 LIG 0.22  C 
ATOM     19 O    ALA F   3       3.489  27.954 -18.056  1.00 33.75 LIG-0.29  OA
ENDBRANCH 16 18
ENDBRANCH 14 16
ENDBRANCH 1 12
BRANCH 1 20
ATOM     20  CB  HIS F   2       2.517  32.010 -20.833  1.00 30.20 LIG 0.10  C 
BRANCH 20 21
ATOM     21  CG  HIS F   2       3.671  31.410 -20.074  1.00 29.66 LIG 0.06  A 
ATOM     22 ND1  HIS F   2       4.384  32.097 -19.112  1.00 29.25 LIG-0.24  NA
ATOM     23  CE1 HIS F   2       5.353  31.326 -18.642  1.00 27.69 LIG 0.23  A 
ATOM     24 NE2  HIS F   2       5.307  30.164 -19.277  1.00 31.40 LIG-0.25  NA
ATOM     25  CD2 HIS F   2       4.273  30.198 -20.190  1.00 30.69 LIG 0.14  A 
ENDBRANCH 20 21
ENDBRANCH 1 20
TORSDOF 8
ENDMDL
MODEL 101
USER: ADFR SOLUTION from run 71
USER: SCORE 8.229021 LL:  -1.856 LR:  -6.382 RR:   0.000 FEB:  -3.996
USER: RMSD 4.985949
USER: SEED 70
USER: STATUS no improvement in best in 15 clusters for 5 generations
USER: GENES 10
USER: genes 0 Translation |==|  0.43217 0.44994 0.47958
USER: genes 1 Rotation |==|  0.87412 0.30024 0.25985 0.61163
USER: genes 2 Torsion [C]-CA--N-[C] |==|  0.83305
USER: genes 3 Torsion [N]-C--CA-[N] |==|  0.80204
USER: genes 4 Torsion [C]-CA--N-[H3] |==|  0.12221
USER: genes 5 Torsion [N]-CA--C-[N] |==|  0.91815
USER: genes 6 Torsion [C]-N--CA-[CB] |==|  0.36452
USER: genes 7 Torsion [N]-CA--C-[O] |==|  0.01107
USER: genes 8 Torsion [N]-CA--CB-[CG] |==|  0.26979
USER: genes 9 Torsion [CA]-CB--CG-[ND1] |==|  0.81784
ROOT
ATOM      1  CA  HIS F   2      -2.542  29.961 -19.421  1.00 30.59 LIG 0.18  C 
ENDROOT
BRANCH 1 2
ATOM      2  N   HIS F   2      -1.375  29.465 -18.684  1.00 30.70 LIG-0.35  N 
ATOM      3  C   ALA F   1      -0.563  30.264 -17.995  1.00 31.15 LIG 0.25  C 
ATOM      4 O    ALA F   1      -0.710  31.488 -17.922  1.00 30.37 LIG-0.27  OA
ATOM      5 H    HIS F   2      -1.266  28.613 -18.738  1.00 30.70 LIG 0.16  HD
BRANCH 3 6
ATOM      6  CA  ALA F   1       0.603  29.574 -17.276  1.00 31.15 LIG 0.27  C 
ATOM      7  CB  ALA F   1       1.573  29.232 -18.007  0.00 20.00 LIG 0.05  C 
BRANCH 6 8
ATOM      8  N   ALA F   1       0.128  28.772 -16.099  1.00 31.97 LIG-0.07  N 
ATOM      9 H3   ALA F   1      -0.598  28.311 -16.327  1.00 31.97 LIG 0.28  HD
ATOM     10 H1   ALA F   1       0.769  28.208 -15.845  1.00 31.97 LIG 0.28  HD
ATOM     11 H2   ALA F   1      -0.067  29.319 -15.426  1.00 31.97 LIG 0.28  HD
ENDBRANCH 6 8
ENDBRANCH 3 6
ENDBRANCH 1 2
BRANCH 1 12
ATOM     12  C   HIS F   2      -3.531  30.658 -18.476  1.00 31.15 LIG 0.24  C 
ATOM     13 O    HIS F   2      -4.259  31.580 -18.888  1.00 30.80 LIG-0.27  OA
ATOM     14  N   ALA F   3      -3.552  30.212 -17.215  1.00 30.97 LIG-0.35  N 
ATOM     15 H    ALA F   3      -3.053  29.572 -16.928  1.00 30.97 LIG 0.16  HD
BRANCH 14 16
ATOM     16  CA  ALA F   3      -4.434  30.779 -16.198  1.00 31.72 LIG 0.16  C 
ATOM     17  CB  ALA F   3      -5.132  29.581 -15.508  0.00 20.00 LIG 0.04  C 
BRANCH 16 18
ATOM     18  C   ALA F   3      -3.694  31.312 -14.974  1.00 32.37 LIG 0.22  C 
ATOM     19 O    ALA F   3      -2.455  31.312 -14.931  1.00 33.75 LIG-0.29  OA
ENDBRANCH 16 18
ENDBRANCH 14 16
ENDBRANCH 1 12
BRANCH 1 20
ATOM     20  CB  HIS F   2      -3.248  28.807 -20.152  1.00 30.20 LIG 0.10  C 
BRANCH 20 21
ATOM     21  CG  HIS F   2      -4.431  28.232 -19.420  1.00 29.66 LIG 0.06  A 
ATOM     22 ND1  HIS F   2      -4.325  27.562 -18.217  1.00 29.25 LIG-0.24  NA
ATOM     23  CE1 HIS F   2      -5.522  27.147 -17.832  1.00 27.69 LIG 0.23  A 
ATOM     24 NE2  HIS F   2      -6.404  27.509 -18.752  1.00 31.40 LIG-0.25  NA
ATOM     25  CD2 HIS F   2      -5.743  28.174 -19.764  1.00 30.69 LIG 0.14  A 
ENDBRANCH 20 21
ENDBRANCH 1 20
TORSDOF 8
ENDMDL
MODEL 102
USER: ADFR SOLUTION from run 121
USER: SCORE 7.911028 LL:  -1.562 LR:  -6.354 RR:   0.000 FEB:  -3.968
USER: RMSD 4.295462
USER: SEED 120
USER: STATUS no improvement in best in 16 clusters for 5 generations
USER: GENES 10
USER: genes 0 Translation |==|  0.54238 0.58719 0.46369
USER: genes 1 Rotation |==|  0.58171 0.37400 0.66363 0.94797
USER: genes 2 Torsion [C]-CA--N-[C] |==|  0.84419
USER: genes 3 Torsion [N]-C--CA-[N] |==|  0.77790
USER: genes 4 Torsion [C]-CA--N-[H3] |==|  0.28874
USER: genes 5 Torsion [N]-CA--C-[N] |==|  0.37426
USER: genes 6 Torsion [C]-N--CA-[CB] |==|  0.42733
USER: genes 7 Torsion [N]-CA--C-[O] |==|  0.80424
USER: genes 8 Torsion [N]-CA--CB-[CG] |==|  0.35712
USER: genes 9 Torsion [CA]-CB--CG-[ND1] |==|  0.77710
ROOT
ATOM      1  CA  HIS F   2      -0.641  31.608 -19.671  1.00 30.59 LIG 0.18  C 
ENDROOT
BRANCH 1 2
ATOM      2  N   HIS F   2      -0.236  32.649 -20.621  1.00 30.70 LIG-0.35  N 
ATOM      3  C   ALA F   1      -0.334  32.500 -21.941  1.00 31.15 LIG 0.25  C 
ATOM      4 O    ALA F   1      -0.763  31.476 -22.482  1.00 30.37 LIG-0.27  OA
ATOM      5 H    HIS F   2       0.070  33.362 -20.247  1.00 30.70 LIG 0.16  HD
BRANCH 3 6
ATOM      6  CA  ALA F   1       0.127  33.695 -22.785  1.00 31.15 LIG 0.27  C 
ATOM      7  CB  ALA F   1       1.365  33.937 -22.764  0.00 20.00 LIG 0.05  C 
BRANCH 6 8
ATOM      8  N   ALA F   1      -0.926  34.764 -22.849  1.00 31.97 LIG-0.07  N 
ATOM      9 H3   ALA F   1      -0.699  35.437 -22.313  1.00 31.97 LIG 0.28  HD
ATOM     10 H1   ALA F   1      -0.997  35.062 -23.685  1.00 31.97 LIG 0.28  HD
ATOM     11 H2   ALA F   1      -1.707  34.428 -22.588  1.00 31.97 LIG 0.28  HD
ENDBRANCH 6 8
ENDBRANCH 3 6
ENDBRANCH 1 2
BRANCH 1 12
ATOM     12  C   HIS F   2      -2.103  31.202 -19.894  1.00 31.15 LIG 0.24  C 
ATOM     13 O    HIS F   2      -2.984  32.066 -20.061  1.00 30.80 LIG-0.27  OA
ATOM     14  N   ALA F   3      -2.354  29.887 -19.897  1.00 30.97 LIG-0.35  N 
ATOM     15 H    ALA F   3      -1.748  29.287 -19.787  1.00 30.97 LIG 0.16  HD
BRANCH 14 16
ATOM     16  CA  ALA F   3      -3.697  29.346 -20.091  1.00 31.72 LIG 0.16  C 
ATOM     17  CB  ALA F   3      -3.515  27.929 -20.688  0.00 20.00 LIG 0.04  C 
BRANCH 16 18
ATOM     18  C   ALA F   3      -4.382  28.930 -18.792  1.00 32.37 LIG 0.22  C 
ATOM     19 O    ALA F   3      -3.996  27.937 -18.160  1.00 33.75 LIG-0.29  OA
ENDBRANCH 16 18
ENDBRANCH 14 16
ENDBRANCH 1 12
BRANCH 1 20
ATOM     20  CB  HIS F   2      -0.452  32.096 -18.225  1.00 30.20 LIG 0.10  C 
BRANCH 20 21
ATOM     21  CG  HIS F   2      -1.664  31.935 -17.346  1.00 29.66 LIG 0.06  A 
ATOM     22 ND1  HIS F   2      -2.730  32.812 -17.357  1.00 29.25 LIG-0.24  NA
ATOM     23  CE1 HIS F   2      -3.628  32.431 -16.462  1.00 27.69 LIG 0.23  A 
ATOM     24 NE2  HIS F   2      -3.177  31.343 -15.855  1.00 31.40 LIG-0.25  NA
ATOM     25  CD2 HIS F   2      -1.942  31.022 -16.379  1.00 30.69 LIG 0.14  A 
ENDBRANCH 20 21
ENDBRANCH 1 20
TORSDOF 8
ENDMDL
MODEL 103
USER: ADFR SOLUTION from run 155
USER: SCORE 7.893000 LL:  -1.567 LR:  -6.330 RR:   0.000 FEB:  -3.944
USER: RMSD 5.074282
USER: SEED 154
USER: STATUS no improvement in best in 17 clusters for 5 generations
USER: GENES 10
USER: genes 0 Translation |==|  0.63298 0.59898 0.47621
USER: genes 1 Rotation |==|  0.11757 0.74919 0.66197 0.62417
USER: genes 2 Torsion [C]-CA--N-[C] |==|  0.81990
USER: genes 3 Torsion [N]-C--CA-[N] |==|  0.72319
USER: genes 4 Torsion [C]-CA--N-[H3] |==|  0.58627
USER: genes 5 Torsion [N]-CA--C-[N] |==|  0.94997
USER: genes 6 Torsion [C]-N--CA-[CB] |==|  0.28482
USER: genes 7 Torsion [N]-CA--C-[O] |==|  0.06746
USER: genes 8 Torsion [N]-CA--CB-[CG] |==|  0.66649
USER: genes 9 Torsion [CA]-CB--CG-[ND1] |==|  0.70996
ROOT
ATOM      1  CA  HIS F   2       0.922  31.750 -19.474  1.00 30.59 LIG 0.18  C 
ENDROOT
BRANCH 1 2
ATOM      2  N   HIS F   2       1.003  30.472 -18.759  1.00 30.70 LIG-0.35  N 
ATOM      3  C   ALA F   1       1.351  30.383 -17.476  1.00 31.15 LIG 0.25  C 
ATOM      4 O    ALA F   1       1.645  31.360 -16.780  1.00 30.37 LIG-0.27  OA
ATOM      5 H    HIS F   2       0.805  29.789 -19.243  1.00 30.70 LIG 0.16  HD
BRANCH 3 6
ATOM      6  CA  ALA F   1       1.374  28.967 -16.886  1.00 31.15 LIG 0.27  C 
ATOM      7  CB  ALA F   1       1.986  28.099 -17.567  0.00 20.00 LIG 0.05  C 
BRANCH 6 8
ATOM      8  N   ALA F   1       0.128  28.678 -16.099  1.00 31.97 LIG-0.07  N 
ATOM      9 H3   ALA F   1       0.319  28.114 -15.437  1.00 31.97 LIG 0.28  HD
ATOM     10 H1   ALA F   1      -0.192  29.436 -15.760  1.00 31.97 LIG 0.28  HD
ATOM     11 H2   ALA F   1      -0.482  28.312 -16.633  1.00 31.97 LIG 0.28  HD
ENDBRANCH 6 8
ENDBRANCH 3 6
ENDBRANCH 1 2
BRANCH 1 12
ATOM     12  C   HIS F   2      -0.185  32.636 -18.888  1.00 31.15 LIG 0.24  C 
ATOM     13 O    HIS F   2      -0.205  33.860 -19.116  1.00 30.80 LIG-0.27  OA
ATOM     14  N   ALA F   3      -1.101  32.013 -18.138  1.00 30.97 LIG-0.35  N 
ATOM     15 H    ALA F   3      -1.093  31.167 -17.982  1.00 30.97 LIG 0.16  HD
BRANCH 14 16
ATOM     16  CA  ALA F   3      -2.212  32.723 -17.507  1.00 31.72 LIG 0.16  C 
ATOM     17  CB  ALA F   3      -3.463  32.432 -18.373  0.00 20.00 LIG 0.04  C 
BRANCH 16 18
ATOM     18  C   ALA F   3      -2.704  32.067 -16.219  1.00 32.37 LIG 0.22  C 
ATOM     19 O    ALA F   3      -1.956  31.339 -15.551  1.00 33.75 LIG-0.29  OA
ENDBRANCH 16 18
ENDBRANCH 14 16
ENDBRANCH 1 12
BRANCH 1 20
ATOM     20  CB  HIS F   2       0.661  31.514 -20.971  1.00 30.20 LIG 0.10  C 
BRANCH 20 21
ATOM     21  CG  HIS F   2       1.725  32.058 -21.886  1.00 29.66 LIG 0.06  A 
ATOM     22 ND1  HIS F   2       1.567  33.209 -22.632  1.00 29.25 LIG-0.24  NA
ATOM     23  CE1 HIS F   2       2.653  33.420 -23.359  1.00 27.69 LIG 0.23  A 
ATOM     24 NE2  HIS F   2       3.509  32.437 -23.125  1.00 31.40 LIG-0.25  NA
ATOM     25  CD2 HIS F   2       2.945  31.563 -22.219  1.00 30.69 LIG 0.14  A 
ENDBRANCH 20 21
ENDBRANCH 1 20
TORSDOF 8
ENDMDL
MODEL 104
USER: ADFR SOLUTION from run 175
USER: SCORE 7.770302 LL:  -1.551 LR:  -6.290 RR:   0.000 FEB:  -3.904
USER: RMSD 6.031609
USER: SEED 174
USER: STATUS no improvement in best in 18 clusters for 5 generations
USER: GENES 10
USER: genes 0 Translation |==|  0.67279 0.61728 0.51278
USER: genes 1 Rotation |==|  0.68262 0.23107 0.87114 0.58112
USER: genes 2 Torsion [C]-CA--N-[C] |==|  0.15150
USER: genes 3 Torsion [N]-C--CA-[N] |==|  0.33383
USER: genes 4 Torsion [C]-CA--N-[H3] |==|  0.82491
USER: genes 5 Torsion [N]-CA--C-[N] |==|  0.09483
USER: genes 6 Torsion [C]-N--CA-[CB] |==|  0.15291
USER: genes 7 Torsion [N]-CA--C-[O] |==|  0.00617
USER: genes 8 Torsion [N]-CA--CB-[CG] |==|  0.53741
USER: genes 9 Torsion [CA]-CB--CG-[ND1] |==|  0.09352
ROOT
ATOM      1  CA  HIS F   2       1.609  31.969 -18.898  1.00 30.59 LIG 0.18  C 
ENDROOT
BRANCH 1 2
ATOM      2  N   HIS F   2       0.684  33.072 -19.178  1.00 30.70 LIG-0.35  N 
ATOM      3  C   ALA F   1      -0.312  32.974 -20.057  1.00 31.15 LIG 0.25  C 
ATOM      4 O    ALA F   1      -0.540  31.956 -20.718  1.00 30.37 LIG-0.27  OA
ATOM      5 H    HIS F   2       0.844  33.785 -18.723  1.00 30.70 LIG 0.16  HD
BRANCH 3 6
ATOM      6  CA  ALA F   1      -1.189  34.223 -20.217  1.00 31.15 LIG 0.27  C 
ATOM      7  CB  ALA F   1      -2.207  34.277 -19.474  0.00 20.00 LIG 0.05  C 
BRANCH 6 8
ATOM      8  N   ALA F   1      -1.162  34.739 -21.627  1.00 31.97 LIG-0.07  N 
ATOM      9 H3   ALA F   1      -0.335  34.992 -21.835  1.00 31.97 LIG 0.28  HD
ATOM     10 H1   ALA F   1      -1.424  34.096 -22.183  1.00 31.97 LIG 0.28  HD
ATOM     11 H2   ALA F   1      -1.712  35.434 -21.699  1.00 31.97 LIG 0.28  HD
ENDBRANCH 6 8
ENDBRANCH 3 6
ENDBRANCH 1 2
BRANCH 1 12
ATOM     12  C   HIS F   2       2.262  31.461 -20.189  1.00 31.15 LIG 0.24  C 
ATOM     13 O    HIS F   2       2.537  30.254 -20.329  1.00 30.80 LIG-0.27  OA
ATOM     14  N   ALA F   3       2.505  32.383 -21.128  1.00 30.97 LIG-0.35  N 
ATOM     15 H    ALA F   3       2.312  33.217 -21.037  1.00 30.97 LIG 0.16  HD
BRANCH 14 16
ATOM     16  CA  ALA F   3       3.128  32.054 -22.408  1.00 31.72 LIG 0.16  C 
ATOM     17  CB  ALA F   3       2.262  30.937 -23.040  0.00 20.00 LIG 0.04  C 
BRANCH 16 18
ATOM     18  C   ALA F   3       2.907  33.112 -23.485  1.00 32.37 LIG 0.22  C 
ATOM     19 O    ALA F   3       2.288  34.156 -23.234  1.00 33.75 LIG-0.29  OA
ENDBRANCH 16 18
ENDBRANCH 14 16
ENDBRANCH 1 12
BRANCH 1 20
ATOM     20  CB  HIS F   2       0.873  30.814 -18.198  1.00 30.20 LIG 0.10  C 
BRANCH 20 21
ATOM     21  CG  HIS F   2       1.776  29.777 -17.584  1.00 29.66 LIG 0.06  A 
ATOM     22 ND1  HIS F   2       3.004  30.076 -17.028  1.00 29.25 LIG-0.24  NA
ATOM     23  CE1 HIS F   2       3.579  28.963 -16.597  1.00 27.69 LIG 0.23  A 
ATOM     24 NE2  HIS F   2       2.775  27.946 -16.868  1.00 31.40 LIG-0.25  NA
ATOM     25  CD2 HIS F   2       1.647  28.428 -17.500  1.00 30.69 LIG 0.14  A 
ENDBRANCH 20 21
ENDBRANCH 1 20
TORSDOF 8
ENDMDL
