MODEL 1
USER: ADFR SOLUTION from run 49
USER: SCORE 8.921976 LL:  -1.303 LR:  -7.626 RR:   0.000 FEB:  -5.239
USER: RMSD 5.887476
USER: SEED 48
USER: STATUS no improvement in best in 24 clusters for 5 generations
USER: GENES 10
USER: genes 0 Translation |==|  0.62374 0.68374 0.49082
USER: genes 1 Rotation |==|  0.66832 0.39573 0.95477 0.56309
USER: genes 2 Torsion [C]-CA--N-[C] |==|  0.84274
USER: genes 3 Torsion [N]-C--CA-[N] |==|  0.32723
USER: genes 4 Torsion [C]-CA--N-[H3] |==|  0.73086
USER: genes 5 Torsion [N]-CA--C-[N] |==|  0.36698
USER: genes 6 Torsion [C]-N--CA-[C] |==|  0.20086
USER: genes 7 Torsion [N]-CA--C-[O] |==|  0.38586
USER: genes 8 Torsion [N]-CA--CB-[CG] |==|  0.35189
USER: genes 9 Torsion [CA]-CB--CG-[CD2] |==|  0.73540
ROOT
ATOM      1  CA  HIS F   2       0.463  33.053 -19.216  1.00 49.99 LIG 0.18  C 
ENDROOT
BRANCH 1 2
ATOM      2  N   HIS F   2      -0.525  33.410 -20.235  1.00 49.83 LIG-0.35  N 
ATOM      3  C   GLY F   1      -0.177  33.868 -21.435  1.00 49.82 LIG 0.24  C 
ATOM      4 O    GLY F   1       0.992  34.085 -21.765  1.00 49.53 LIG-0.27  OA
ATOM      5 H    HIS F   2      -1.341  33.296 -19.988  1.00 49.83 LIG 0.16  HD
BRANCH 3 6
ATOM      6  CA  GLY F   1      -1.319  34.125 -22.405  1.00 49.90 LIG 0.33  C 
BRANCH 6 7
ATOM      7  N   GLY F   1      -1.433  35.556 -22.815  1.00 49.95 LIG-0.07  N 
ATOM      8 H3   GLY F   1      -2.047  35.960 -22.314  1.00 49.95 LIG 0.27  HD
ATOM      9 H1   GLY F   1      -0.647  35.960 -22.705  1.00 49.95 LIG 0.27  HD
ATOM     10 H2   GLY F   1      -1.672  35.601 -23.671  1.00 49.95 LIG 0.27  HD
ENDBRANCH 6 7
ENDBRANCH 3 6
ENDBRANCH 1 2
BRANCH 1 11
ATOM     11  C   HIS F   2       1.439  32.003 -19.745  1.00 50.00 LIG 0.24  C 
ATOM     12 O    HIS F   2       1.031  31.002 -20.337  1.00 49.82 LIG-0.27  OA
ATOM     13  N   GLY F   3       2.730  32.251 -19.534  1.00 50.02 LIG-0.35  N 
ATOM     14 H    GLY F   3       3.020  32.935 -19.100  1.00 50.02 LIG 0.16  HD
BRANCH 13 15
ATOM     15  CA  GLY F   3       3.778  31.369 -20.029  1.00 50.20 LIG 0.21  C 
BRANCH 15 16
ATOM     16  C   GLY F   3       3.954  31.458 -21.532  1.00 50.42 LIG 0.21  C 
ATOM     17 O    GLY F   3       5.079  31.460 -22.033  1.00 50.69 LIG-0.29  OA
ENDBRANCH 15 16
ENDBRANCH 13 15
ENDBRANCH 1 11
BRANCH 1 18
ATOM     18  CB  HIS F   2      -0.226  32.554 -17.945  1.00 49.99 LIG 0.10  C 
BRANCH 18 19
ATOM     19  CG  HIS F   2       0.261  31.217 -17.479  1.00 50.63 LIG 0.06  A 
ATOM     20  CD2 HIS F   2      -0.218  29.966 -17.692  1.00 51.31 LIG 0.14  A 
ATOM     21 NE2  HIS F   2       0.621  29.094 -17.040  1.00 51.32 LIG-0.25  NA
ATOM     22  CE1 HIS F   2       1.577  29.783 -16.442  1.00 50.87 LIG 0.23  A 
ATOM     23 ND1  HIS F   2       1.384  31.066 -16.693  1.00 50.82 LIG-0.24  NA
ENDBRANCH 18 19
ENDBRANCH 1 18
TORSDOF 8
ENDMDL
MODEL 2
USER: ADFR SOLUTION from run 53
USER: SCORE 7.882800 LL:  -1.434 LR:  -7.530 RR:   0.000 FEB:  -5.144
USER: RMSD 7.505532
USER: SEED 52
USER: STATUS no improvement in best in 16 clusters for 5 generations
USER: GENES 10
USER: genes 0 Translation |==|  0.66708 0.57868 0.25232
USER: genes 1 Rotation |==|  0.58931 0.85428 0.50742 0.84125
USER: genes 2 Torsion [C]-CA--N-[C] |==|  0.17541
USER: genes 3 Torsion [N]-C--CA-[N] |==|  0.55086
USER: genes 4 Torsion [C]-CA--N-[H3] |==|  0.30142
USER: genes 5 Torsion [N]-CA--C-[N] |==|  0.27222
USER: genes 6 Torsion [C]-N--CA-[C] |==|  0.79442
USER: genes 7 Torsion [N]-CA--C-[O] |==|  0.05924
USER: genes 8 Torsion [N]-CA--CB-[CG] |==|  0.46769
USER: genes 9 Torsion [CA]-CB--CG-[CD2] |==|  0.23543
ROOT
ATOM      1  CA  HIS F   2       1.210  31.713 -23.152  1.00 49.99 LIG 0.18  C 
ENDROOT
BRANCH 1 2
ATOM      2  N   HIS F   2      -0.088  32.381 -23.046  1.00 49.83 LIG-0.35  N 
ATOM      3  C   GLY F   1      -0.201  33.702 -22.921  1.00 49.82 LIG 0.24  C 
ATOM      4 O    GLY F   1       0.769  34.459 -22.824  1.00 49.53 LIG-0.27  OA
ATOM      5 H    HIS F   2      -0.761  31.847 -23.073  1.00 49.83 LIG 0.16  HD
BRANCH 3 6
ATOM      6  CA  GLY F   1      -1.619  34.247 -22.896  1.00 49.90 LIG 0.33  C 
BRANCH 6 7
ATOM      7  N   GLY F   1      -1.692  35.709 -23.189  1.00 49.95 LIG-0.07  N 
ATOM      8 H3   GLY F   1      -2.047  35.833 -23.996  1.00 49.95 LIG 0.27  HD
ATOM      9 H1   GLY F   1      -2.201  36.109 -22.577  1.00 49.95 LIG 0.27  HD
ATOM     10 H2   GLY F   1      -0.874  36.058 -23.168  1.00 49.95 LIG 0.27  HD
ENDBRANCH 6 7
ENDBRANCH 3 6
ENDBRANCH 1 2
BRANCH 1 11
ATOM     11  C   HIS F   2       2.035  31.917 -21.882  1.00 50.00 LIG 0.24  C 
ATOM     12 O    HIS F   2       2.675  32.957 -21.704  1.00 49.82 LIG-0.27  OA
ATOM     13  N   GLY F   3       2.004  30.919 -21.002  1.00 50.02 LIG-0.35  N 
ATOM     14 H    GLY F   3       1.580  30.182 -21.131  1.00 50.02 LIG 0.16  HD
BRANCH 13 15
ATOM     15  CA  GLY F   3       2.697  30.994 -19.722  1.00 50.20 LIG 0.21  C 
BRANCH 15 16
ATOM     16  C   GLY F   3       4.199  30.845 -19.864  1.00 50.42 LIG 0.21  C 
ATOM     17 O    GLY F   3       4.754  31.069 -20.940  1.00 50.69 LIG-0.29  OA
ENDBRANCH 15 16
ENDBRANCH 13 15
ENDBRANCH 1 11
BRANCH 1 18
ATOM     18  CB  HIS F   2       1.978  32.211 -24.378  1.00 49.99 LIG 0.10  C 
BRANCH 18 19
ATOM     19  CG  HIS F   2       3.414  31.786 -24.405  1.00 50.63 LIG 0.06  A 
ATOM     20  CD2 HIS F   2       4.001  30.646 -24.844  1.00 51.31 LIG 0.14  A 
ATOM     21 NE2  HIS F   2       5.354  30.782 -24.644  1.00 51.32 LIG-0.25  NA
ATOM     22  CE1 HIS F   2       5.590  31.961 -24.095  1.00 50.87 LIG 0.23  A 
ATOM     23 ND1  HIS F   2       4.436  32.588 -23.942  1.00 50.82 LIG-0.24  NA
ENDBRANCH 18 19
ENDBRANCH 1 18
TORSDOF 8
ENDMDL
MODEL 3
USER: ADFR SOLUTION from run 36
USER: SCORE 7.723562 LL:  -1.302 LR:  -7.511 RR:   0.000 FEB:  -5.125
USER: RMSD 6.744672
USER: SEED 35
USER: STATUS no improvement in best in 24 clusters for 5 generations
USER: GENES 10
USER: genes 0 Translation |==|  0.74821 0.60735 0.49592
USER: genes 1 Rotation |==|  0.04462 0.62522 0.33763 0.52408
USER: genes 2 Torsion [C]-CA--N-[C] |==|  0.20067
USER: genes 3 Torsion [N]-C--CA-[N] |==|  0.39789
USER: genes 4 Torsion [C]-CA--N-[H3] |==|  0.27144
USER: genes 5 Torsion [N]-CA--C-[N] |==|  0.34041
USER: genes 6 Torsion [C]-N--CA-[C] |==|  0.72857
USER: genes 7 Torsion [N]-CA--C-[O] |==|  0.95675
USER: genes 8 Torsion [N]-CA--CB-[CG] |==|  0.56901
USER: genes 9 Torsion [CA]-CB--CG-[CD2] |==|  0.22533
ROOT
ATOM      1  CA  HIS F   2       2.610  32.079 -19.132  1.00 49.99 LIG 0.18  C 
ENDROOT
BRANCH 1 2
ATOM      2  N   HIS F   2       1.645  31.837 -18.059  1.00 49.83 LIG-0.35  N 
ATOM      3  C   GLY F   1       1.156  30.626 -17.799  1.00 49.82 LIG 0.24  C 
ATOM      4 O    GLY F   1       1.427  29.628 -18.472  1.00 49.53 LIG-0.27  OA
ATOM      5 H    HIS F   2       1.428  32.542 -17.617  1.00 49.83 LIG 0.16  HD
BRANCH 3 6
ATOM      6  CA  GLY F   1       0.220  30.530 -16.606  1.00 49.90 LIG 0.33  C 
BRANCH 6 7
ATOM      7  N   GLY F   1      -0.902  29.569 -16.815  1.00 49.95 LIG-0.07  N 
ATOM      8 H3   GLY F   1      -0.699  28.789 -16.438  1.00 49.95 LIG 0.27  HD
ATOM      9 H1   GLY F   1      -1.644  29.893 -16.444  1.00 49.95 LIG 0.27  HD
ATOM     10 H2   GLY F   1      -1.034  29.451 -17.687  1.00 49.95 LIG 0.27  HD
ENDBRANCH 6 7
ENDBRANCH 3 6
ENDBRANCH 1 2
BRANCH 1 11
ATOM     11  C   HIS F   2       1.941  31.973 -20.502  1.00 50.00 LIG 0.24  C 
ATOM     12 O    HIS F   2       1.349  30.945 -20.838  1.00 49.82 LIG-0.27  OA
ATOM     13  N   GLY F   3       2.035  33.049 -21.280  1.00 50.02 LIG-0.35  N 
ATOM     14 H    GLY F   3       2.468  33.760 -21.061  1.00 50.02 LIG 0.16  HD
BRANCH 13 15
ATOM     15  CA  GLY F   3       1.401  33.115 -22.590  1.00 50.20 LIG 0.21  C 
BRANCH 15 16
ATOM     16  C   GLY F   3       2.361  32.796 -23.719  1.00 50.42 LIG 0.21  C 
ATOM     17 O    GLY F   3       3.577  32.799 -23.529  1.00 50.69 LIG-0.29  OA
ENDBRANCH 15 16
ENDBRANCH 13 15
ENDBRANCH 1 11
BRANCH 1 18
ATOM     18  CB  HIS F   2       3.787  31.107 -19.032  1.00 49.99 LIG 0.10  C 
BRANCH 18 19
ATOM     19  CG  HIS F   2       5.046  31.616 -19.663  1.00 50.63 LIG 0.06  A 
ATOM     20  CD2 HIS F   2       5.994  32.471 -19.205  1.00 51.31 LIG 0.14  A 
ATOM     21 NE2  HIS F   2       6.947  32.586 -20.190  1.00 51.32 LIG-0.25  NA
ATOM     22  CE1 HIS F   2       6.594  31.835 -21.219  1.00 50.87 LIG 0.23  A 
ATOM     23 ND1  HIS F   2       5.452  31.238 -20.926  1.00 50.82 LIG-0.24  NA
ENDBRANCH 18 19
ENDBRANCH 1 18
TORSDOF 8
ENDMDL
MODEL 4
USER: ADFR SOLUTION from run 41
USER: SCORE 8.786332 LL:  -1.280 LR:  -7.507 RR:   0.000 FEB:  -5.120
USER: RMSD 4.930697
USER: SEED 40
USER: STATUS no improvement in best in 24 clusters for 5 generations
USER: GENES 10
USER: genes 0 Translation |==|  0.58191 0.58886 0.66000
USER: genes 1 Rotation |==|  0.09696 0.57637 0.22338 0.57215
USER: genes 2 Torsion [C]-CA--N-[C] |==|  0.82279
USER: genes 3 Torsion [N]-C--CA-[N] |==|  0.09553
USER: genes 4 Torsion [C]-CA--N-[H3] |==|  0.10637
USER: genes 5 Torsion [N]-CA--C-[N] |==|  0.39443
USER: genes 6 Torsion [C]-N--CA-[C] |==|  0.74679
USER: genes 7 Torsion [N]-CA--C-[O] |==|  0.65045
USER: genes 8 Torsion [N]-CA--CB-[CG] |==|  0.27630
USER: genes 9 Torsion [CA]-CB--CG-[CD2] |==|  0.78442
ROOT
ATOM      1  CA  HIS F   2      -0.259  31.843 -16.425  1.00 49.99 LIG 0.18  C 
ENDROOT
BRANCH 1 2
ATOM      2  N   HIS F   2      -1.587  31.397 -16.001  1.00 49.83 LIG-0.35  N 
ATOM      3  C   GLY F   1      -2.702  32.011 -16.391  1.00 49.82 LIG 0.24  C 
ATOM      4 O    GLY F   1      -2.708  33.031 -17.086  1.00 49.53 LIG-0.27  OA
ATOM      5 H    HIS F   2      -1.578  30.711 -15.484  1.00 49.83 LIG 0.16  HD
BRANCH 3 6
ATOM      6  CA  GLY F   1      -4.004  31.383 -15.923  1.00 49.90 LIG 0.33  C 
BRANCH 6 7
ATOM      7  N   GLY F   1      -3.908  30.771 -14.565  1.00 49.95 LIG-0.07  N 
ATOM      8 H3   GLY F   1      -3.397  31.281 -14.045  1.00 49.95 LIG 0.27  HD
ATOM      9 H1   GLY F   1      -4.722  30.705 -14.210  1.00 49.95 LIG 0.27  HD
ATOM     10 H2   GLY F   1      -3.547  29.960 -14.629  1.00 49.95 LIG 0.27  HD
ENDBRANCH 6 7
ENDBRANCH 3 6
ENDBRANCH 1 2
BRANCH 1 11
ATOM     11  C   HIS F   2      -0.092  31.705 -17.937  1.00 50.00 LIG 0.24  C 
ATOM     12 O    HIS F   2      -0.579  30.746 -18.542  1.00 49.82 LIG-0.27  OA
ATOM     13  N   GLY F   3       0.590  32.677 -18.538  1.00 50.02 LIG-0.35  N 
ATOM     14 H    GLY F   3       0.953  33.335 -18.120  1.00 50.02 LIG 0.16  HD
BRANCH 13 15
ATOM     15  CA  GLY F   3       0.783  32.708 -19.982  1.00 50.20 LIG 0.21  C 
BRANCH 15 16
ATOM     16  C   GLY F   3       2.054  32.004 -20.416  1.00 50.42 LIG 0.21  C 
ATOM     17 O    GLY F   3       2.886  32.585 -21.114  1.00 50.69 LIG-0.29  OA
ENDBRANCH 15 16
ENDBRANCH 13 15
ENDBRANCH 1 11
BRANCH 1 18
ATOM     18  CB  HIS F   2       0.834  31.064 -15.690  1.00 49.99 LIG 0.10  C 
BRANCH 18 19
ATOM     19  CG  HIS F   2       1.421  29.945 -16.493  1.00 50.63 LIG 0.06  A 
ATOM     20  CD2 HIS F   2       0.952  28.705 -16.775  1.00 51.31 LIG 0.14  A 
ATOM     21 NE2  HIS F   2       1.891  28.085 -17.565  1.00 51.32 LIG-0.25  NA
ATOM     22  CE1 HIS F   2       2.904  28.912 -17.756  1.00 50.87 LIG 0.23  A 
ATOM     23 ND1  HIS F   2       2.645  30.042 -17.122  1.00 50.82 LIG-0.24  NA
ENDBRANCH 18 19
ENDBRANCH 1 18
TORSDOF 8
ENDMDL
MODEL 5
USER: ADFR SOLUTION from run 87
USER: SCORE 8.630822 LL:  -1.219 LR:  -7.436 RR:   0.000 FEB:  -5.050
USER: RMSD 7.088645
USER: SEED 86
USER: STATUS no improvement in best in 17 clusters for 5 generations
USER: GENES 10
USER: genes 0 Translation |==|  0.69486 0.60389 0.38063
USER: genes 1 Rotation |==|  0.24786 0.71353 0.12657 0.53717
USER: genes 2 Torsion [C]-CA--N-[C] |==|  0.83882
USER: genes 3 Torsion [N]-C--CA-[N] |==|  0.45592
USER: genes 4 Torsion [C]-CA--N-[H3] |==|  0.99533
USER: genes 5 Torsion [N]-CA--C-[N] |==|  0.93149
USER: genes 6 Torsion [C]-N--CA-[C] |==|  0.81258
USER: genes 7 Torsion [N]-CA--C-[O] |==|  0.09788
USER: genes 8 Torsion [N]-CA--CB-[CG] |==|  0.53613
USER: genes 9 Torsion [CA]-CB--CG-[CD2] |==|  0.53792
ROOT
ATOM      1  CA  HIS F   2       1.689  32.035 -21.035  1.00 49.99 LIG 0.18  C 
ENDROOT
BRANCH 1 2
ATOM      2  N   HIS F   2       0.377  32.567 -21.404  1.00 49.83 LIG-0.35  N 
ATOM      3  C   GLY F   1       0.234  33.717 -22.059  1.00 49.82 LIG 0.24  C 
ATOM      4 O    GLY F   1       1.180  34.452 -22.354  1.00 49.53 LIG-0.27  OA
ATOM      5 H    HIS F   2      -0.283  32.072 -21.162  1.00 49.83 LIG 0.16  HD
BRANCH 3 6
ATOM      6  CA  GLY F   1      -1.190  34.095 -22.432  1.00 49.90 LIG 0.33  C 
BRANCH 6 7
ATOM      7  N   GLY F   1      -1.336  35.531 -22.815  1.00 49.95 LIG-0.07  N 
ATOM      8 H3   GLY F   1      -0.550  35.941 -22.736  1.00 49.95 LIG 0.27  HD
ATOM      9 H1   GLY F   1      -1.616  35.586 -23.658  1.00 49.95 LIG 0.27  HD
ATOM     10 H2   GLY F   1      -1.930  35.922 -22.280  1.00 49.95 LIG 0.27  HD
ENDBRANCH 6 7
ENDBRANCH 3 6
ENDBRANCH 1 2
BRANCH 1 11
ATOM     11  C   HIS F   2       2.569  31.841 -22.268  1.00 50.00 LIG 0.24  C 
ATOM     12 O    HIS F   2       3.799  31.835 -22.173  1.00 49.82 LIG-0.27  OA
ATOM     13  N   GLY F   3       1.925  31.673 -23.421  1.00 50.02 LIG-0.35  N 
ATOM     14 H    GLY F   3       1.069  31.701 -23.498  1.00 50.02 LIG 0.16  HD
BRANCH 13 15
ATOM     15  CA  GLY F   3       2.630  31.423 -24.672  1.00 50.20 LIG 0.21  C 
BRANCH 15 16
ATOM     16  C   GLY F   3       3.442  32.618 -25.132  1.00 50.42 LIG 0.21  C 
ATOM     17 O    GLY F   3       4.000  33.351 -24.315  1.00 50.69 LIG-0.29  OA
ENDBRANCH 15 16
ENDBRANCH 13 15
ENDBRANCH 1 11
BRANCH 1 18
ATOM     18  CB  HIS F   2       1.544  30.719 -20.267  1.00 49.99 LIG 0.10  C 
BRANCH 18 19
ATOM     19  CG  HIS F   2       2.804  30.272 -19.591  1.00 50.63 LIG 0.06  A 
ATOM     20  CD2 HIS F   2       3.149  29.083 -19.039  1.00 51.31 LIG 0.14  A 
ATOM     21 NE2  HIS F   2       4.432  29.213 -18.564  1.00 51.32 LIG-0.25  NA
ATOM     22  CE1 HIS F   2       4.859  30.440 -18.810  1.00 50.87 LIG 0.23  A 
ATOM     23 ND1  HIS F   2       3.896  31.099 -19.430  1.00 50.82 LIG-0.24  NA
ENDBRANCH 18 19
ENDBRANCH 1 18
TORSDOF 8
ENDMDL
MODEL 6
USER: ADFR SOLUTION from run 64
USER: SCORE 8.464806 LL:  -1.099 LR:  -7.433 RR:   0.000 FEB:  -5.047
USER: RMSD 8.487563
USER: SEED 63
USER: STATUS no improvement in best in 27 clusters for 5 generations
USER: GENES 10
USER: genes 0 Translation |==|  0.72290 0.64457 0.26353
USER: genes 1 Rotation |==|  0.25473 0.64969 0.11733 0.64491
USER: genes 2 Torsion [C]-CA--N-[C] |==|  0.70177
USER: genes 3 Torsion [N]-C--CA-[N] |==|  0.71139
USER: genes 4 Torsion [C]-CA--N-[H3] |==|  0.14429
USER: genes 5 Torsion [N]-CA--C-[N] |==|  0.04992
USER: genes 6 Torsion [C]-N--CA-[C] |==|  0.81352
USER: genes 7 Torsion [N]-CA--C-[O] |==|  0.21788
USER: genes 8 Torsion [N]-CA--CB-[CG] |==|  0.56864
USER: genes 9 Torsion [CA]-CB--CG-[CD2] |==|  0.22811
ROOT
ATOM      1  CA  HIS F   2       2.173  32.553 -22.967  1.00 49.99 LIG 0.18  C 
ENDROOT
BRANCH 1 2
ATOM      2  N   HIS F   2       0.884  32.507 -23.659  1.00 49.83 LIG-0.35  N 
ATOM      3  C   GLY F   1      -0.019  33.478 -23.548  1.00 49.82 LIG 0.24  C 
ATOM      4 O    GLY F   1       0.127  34.460 -22.815  1.00 49.53 LIG-0.27  OA
ATOM      5 H    HIS F   2       0.768  31.802 -24.137  1.00 49.83 LIG 0.16  HD
BRANCH 3 6
ATOM      6  CA  GLY F   1      -1.276  33.314 -24.386  1.00 49.90 LIG 0.33  C 
BRANCH 6 7
ATOM      7  N   GLY F   1      -1.297  34.191 -25.594  1.00 49.95 LIG-0.07  N 
ATOM      8 H3   GLY F   1      -0.543  34.081 -26.054  1.00 49.95 LIG 0.27  HD
ATOM      9 H1   GLY F   1      -1.992  33.974 -26.106  1.00 49.95 LIG 0.27  HD
ATOM     10 H2   GLY F   1      -1.369  35.042 -25.343  1.00 49.95 LIG 0.27  HD
ENDBRANCH 6 7
ENDBRANCH 3 6
ENDBRANCH 1 2
BRANCH 1 11
ATOM     11  C   HIS F   2       3.311  32.829 -23.948  1.00 50.00 LIG 0.24  C 
ATOM     12 O    HIS F   2       4.480  32.577 -23.646  1.00 49.82 LIG-0.27  OA
ATOM     13  N   GLY F   3       2.954  33.337 -25.125  1.00 50.02 LIG-0.35  N 
ATOM     14 H    GLY F   3       2.144  33.538 -25.332  1.00 50.02 LIG 0.16  HD
BRANCH 13 15
ATOM     15  CA  GLY F   3       3.923  33.601 -26.180  1.00 50.20 LIG 0.21  C 
BRANCH 15 16
ATOM     16  C   GLY F   3       4.888  34.714 -25.821  1.00 50.42 LIG 0.21  C 
ATOM     17 O    GLY F   3       5.836  34.504 -25.065  1.00 50.69 LIG-0.29  OA
ENDBRANCH 15 16
ENDBRANCH 13 15
ENDBRANCH 1 11
BRANCH 1 18
ATOM     18  CB  HIS F   2       2.425  31.252 -22.203  1.00 49.99 LIG 0.10  C 
BRANCH 18 19
ATOM     19  CG  HIS F   2       3.363  31.403 -21.045  1.00 50.63 LIG 0.06  A 
ATOM     20  CD2 HIS F   2       3.156  31.834 -19.777  1.00 51.31 LIG 0.14  A 
ATOM     21 NE2  HIS F   2       4.363  31.763 -19.121  1.00 51.32 LIG-0.25  NA
ATOM     22  CE1 HIS F   2       5.280  31.312 -19.959  1.00 50.87 LIG 0.23  A 
ATOM     23 ND1  HIS F   2       4.703  31.085 -21.126  1.00 50.82 LIG-0.24  NA
ENDBRANCH 18 19
ENDBRANCH 1 18
TORSDOF 8
ENDMDL
MODEL 7
USER: ADFR SOLUTION from run 26
USER: SCORE 7.718448 LL:  -1.047 LR:  -7.396 RR:   0.000 FEB:  -5.009
USER: RMSD 4.077337
USER: SEED 25
USER: STATUS no improvement in best in 25 clusters for 5 generations
USER: GENES 10
USER: genes 0 Translation |==|  0.61961 0.56609 0.41573
USER: genes 1 Rotation |==|  0.59316 0.60949 0.63156 0.96046
USER: genes 2 Torsion [C]-CA--N-[C] |==|  0.17911
USER: genes 3 Torsion [N]-C--CA-[N] |==|  0.61285
USER: genes 4 Torsion [C]-CA--N-[H3] |==|  0.39717
USER: genes 5 Torsion [N]-CA--C-[N] |==|  0.20330
USER: genes 6 Torsion [C]-N--CA-[C] |==|  0.44245
USER: genes 7 Torsion [N]-CA--C-[O] |==|  0.41576
USER: genes 8 Torsion [N]-CA--CB-[CG] |==|  0.72467
USER: genes 9 Torsion [CA]-CB--CG-[CD2] |==|  0.68530
ROOT
ATOM      1  CA  HIS F   2       0.391  31.553 -20.455  1.00 49.99 LIG 0.18  C 
ENDROOT
BRANCH 1 2
ATOM      2  N   HIS F   2      -0.395  32.203 -21.505  1.00 49.83 LIG-0.35  N 
ATOM      3  C   GLY F   1      -0.896  33.428 -21.363  1.00 49.82 LIG 0.24  C 
ATOM      4 O    GLY F   1      -0.792  34.088 -20.325  1.00 49.53 LIG-0.27  OA
ATOM      5 H    HIS F   2      -0.500  31.725 -22.212  1.00 49.83 LIG 0.16  HD
BRANCH 3 6
ATOM      6  CA  GLY F   1      -1.627  33.990 -22.571  1.00 49.90 LIG 0.33  C 
BRANCH 6 7
ATOM      7  N   GLY F   1      -1.338  35.434 -22.815  1.00 49.95 LIG-0.07  N 
ATOM      8 H3   GLY F   1      -1.297  35.585 -23.691  1.00 49.95 LIG 0.27  HD
ATOM      9 H1   GLY F   1      -1.984  35.931 -22.458  1.00 49.95 LIG 0.27  HD
ATOM     10 H2   GLY F   1      -0.559  35.649 -22.441  1.00 49.95 LIG 0.27  HD
ENDBRANCH 6 7
ENDBRANCH 3 6
ENDBRANCH 1 2
BRANCH 1 11
ATOM     11  C   HIS F   2      -0.457  31.307 -19.209  1.00 50.00 LIG 0.24  C 
ATOM     12 O    HIS F   2      -0.305  31.994 -18.196  1.00 49.82 LIG-0.27  OA
ATOM     13  N   GLY F   3      -1.357  30.331 -19.301  1.00 50.02 LIG-0.35  N 
ATOM     14 H    GLY F   3      -1.452  29.832 -19.996  1.00 50.02 LIG 0.16  HD
BRANCH 13 15
ATOM     15  CA  GLY F   3      -2.274  30.018 -18.212  1.00 50.20 LIG 0.21  C 
BRANCH 15 16
ATOM     16  C   GLY F   3      -3.498  29.256 -18.681  1.00 50.42 LIG 0.21  C 
ATOM     17 O    GLY F   3      -4.064  28.458 -17.935  1.00 50.69 LIG-0.29  OA
ENDBRANCH 15 16
ENDBRANCH 13 15
ENDBRANCH 1 11
BRANCH 1 18
ATOM     18  CB  HIS F   2       1.627  32.385 -20.109  1.00 49.99 LIG 0.10  C 
BRANCH 18 19
ATOM     19  CG  HIS F   2       2.883  31.904 -20.767  1.00 50.63 LIG 0.06  A 
ATOM     20  CD2 HIS F   2       4.010  31.355 -20.250  1.00 51.31 LIG 0.14  A 
ATOM     21 NE2  HIS F   2       4.851  31.085 -21.303  1.00 51.32 LIG-0.25  NA
ATOM     22  CE1 HIS F   2       4.265  31.460 -22.427  1.00 50.87 LIG 0.23  A 
ATOM     23 ND1  HIS F   2       3.076  31.955 -22.132  1.00 50.82 LIG-0.24  NA
ENDBRANCH 18 19
ENDBRANCH 1 18
TORSDOF 8
ENDMDL
MODEL 8
USER: ADFR SOLUTION from run 77
USER: SCORE 8.429847 LL:  -1.164 LR:  -7.300 RR:   0.000 FEB:  -4.914
USER: RMSD 6.849726
USER: SEED 76
USER: STATUS no improvement in best in 20 clusters for 5 generations
USER: GENES 10
USER: genes 0 Translation |==|  0.67497 0.60203 0.40181
USER: genes 1 Rotation |==|  0.73023 0.28519 0.88574 0.45465
USER: genes 2 Torsion [C]-CA--N-[C] |==|  0.84359
USER: genes 3 Torsion [N]-C--CA-[N] |==|  0.45709
USER: genes 4 Torsion [C]-CA--N-[H3] |==|  0.65541
USER: genes 5 Torsion [N]-CA--C-[N] |==|  0.91667
USER: genes 6 Torsion [C]-N--CA-[C] |==|  0.81128
USER: genes 7 Torsion [N]-CA--C-[O] |==|  0.18691
USER: genes 8 Torsion [N]-CA--CB-[CG] |==|  0.77000
USER: genes 9 Torsion [CA]-CB--CG-[CD2] |==|  0.04419
ROOT
ATOM      1  CA  HIS F   2       1.346  32.011 -20.685  1.00 49.99 LIG 0.18  C 
ENDROOT
BRANCH 1 2
ATOM      2  N   HIS F   2       0.090  32.570 -21.185  1.00 49.83 LIG-0.35  N 
ATOM      3  C   GLY F   1       0.041  33.709 -21.873  1.00 49.82 LIG 0.24  C 
ATOM      4 O    GLY F   1       1.031  34.412 -22.092  1.00 49.53 LIG-0.27  OA
ATOM      5 H    HIS F   2      -0.604  32.099 -20.996  1.00 49.83 LIG 0.16  HD
BRANCH 3 6
ATOM      6  CA  GLY F   1      -1.331  34.118 -22.384  1.00 49.90 LIG 0.33  C 
BRANCH 6 7
ATOM      7  N   GLY F   1      -1.397  35.545 -22.815  1.00 49.95 LIG-0.07  N 
ATOM      8 H3   GLY F   1      -2.047  35.960 -22.371  1.00 49.95 LIG 0.27  HD
ATOM      9 H1   GLY F   1      -0.619  35.944 -22.643  1.00 49.95 LIG 0.27  HD
ATOM     10 H2   GLY F   1      -1.563  35.585 -23.688  1.00 49.95 LIG 0.27  HD
ENDBRANCH 6 7
ENDBRANCH 3 6
ENDBRANCH 1 2
BRANCH 1 11
ATOM     11  C   HIS F   2       2.345  31.807 -21.822  1.00 50.00 LIG 0.24  C 
ATOM     12 O    HIS F   2       3.560  31.873 -21.617  1.00 49.82 LIG-0.27  OA
ATOM     13  N   GLY F   3       1.821  31.547 -23.018  1.00 50.02 LIG-0.35  N 
ATOM     14 H    GLY F   3       0.975  31.523 -23.173  1.00 50.02 LIG 0.16  HD
BRANCH 13 15
ATOM     15  CA  GLY F   3       2.650  31.275 -24.185  1.00 50.20 LIG 0.21  C 
BRANCH 15 16
ATOM     16  C   GLY F   3       3.431  32.492 -24.641  1.00 50.42 LIG 0.21  C 
ATOM     17 O    GLY F   3       4.330  32.960 -23.940  1.00 50.69 LIG-0.29  OA
ENDBRANCH 15 16
ENDBRANCH 13 15
ENDBRANCH 1 11
BRANCH 1 18
ATOM     18  CB  HIS F   2       1.097  30.695 -19.945  1.00 49.99 LIG 0.10  C 
BRANCH 18 19
ATOM     19  CG  HIS F   2       0.672  30.874 -18.521  1.00 50.63 LIG 0.06  A 
ATOM     20  CD2 HIS F   2       0.202  31.959 -17.857  1.00 51.31 LIG 0.14  A 
ATOM     21 NE2  HIS F   2      -0.046  31.568 -16.563  1.00 51.32 LIG-0.25  NA
ATOM     22  CE1 HIS F   2       0.267  30.291 -16.433  1.00 50.87 LIG 0.23  A 
ATOM     23 ND1  HIS F   2       0.700  29.848 -17.600  1.00 50.82 LIG-0.24  NA
ENDBRANCH 18 19
ENDBRANCH 1 18
TORSDOF 8
ENDMDL
MODEL 9
USER: ADFR SOLUTION from run 65
USER: SCORE 7.766975 LL:  -1.202 LR:  -7.215 RR:   0.000 FEB:  -4.829
USER: RMSD 7.284800
USER: SEED 64
USER: STATUS no improvement in best in 28 clusters for 5 generations
USER: GENES 10
USER: genes 0 Translation |==|  0.60216 0.74456 0.29576
USER: genes 1 Rotation |==|  0.36682 0.64159 0.05079 0.60211
USER: genes 2 Torsion [C]-CA--N-[C] |==|  0.21561
USER: genes 3 Torsion [N]-C--CA-[N] |==|  0.11277
USER: genes 4 Torsion [C]-CA--N-[H3] |==|  0.18829
USER: genes 5 Torsion [N]-CA--C-[N] |==|  0.95000
USER: genes 6 Torsion [C]-N--CA-[C] |==|  0.17996
USER: genes 7 Torsion [N]-CA--C-[O] |==|  0.75294
USER: genes 8 Torsion [N]-CA--CB-[CG] |==|  0.44923
USER: genes 9 Torsion [CA]-CB--CG-[CD2] |==|  0.22756
ROOT
ATOM      1  CA  HIS F   2       0.090  33.828 -22.435  1.00 49.99 LIG 0.18  C 
ENDROOT
BRANCH 1 2
ATOM      2  N   HIS F   2      -0.744  34.085 -23.610  1.00 49.83 LIG-0.35  N 
ATOM      3  C   GLY F   1      -1.138  33.113 -24.430  1.00 49.82 LIG 0.24  C 
ATOM      4 O    GLY F   1      -0.788  31.936 -24.304  1.00 49.53 LIG-0.27  OA
ATOM      5 H    HIS F   2      -0.953  34.912 -23.718  1.00 49.83 LIG 0.16  HD
BRANCH 3 6
ATOM      6  CA  GLY F   1      -2.060  33.533 -25.562  1.00 49.90 LIG 0.33  C 
BRANCH 6 7
ATOM      7  N   GLY F   1      -1.672  34.833 -26.186  1.00 49.95 LIG-0.07  N 
ATOM      8 H3   GLY F   1      -0.899  34.737 -26.616  1.00 49.95 LIG 0.27  HD
ATOM      9 H1   GLY F   1      -2.302  35.086 -26.761  1.00 49.95 LIG 0.27  HD
ATOM     10 H2   GLY F   1      -1.583  35.451 -25.553  1.00 49.95 LIG 0.27  HD
ENDBRANCH 6 7
ENDBRANCH 3 6
ENDBRANCH 1 2
BRANCH 1 11
ATOM     11  C   HIS F   2       1.550  33.621 -22.835  1.00 50.00 LIG 0.24  C 
ATOM     12 O    HIS F   2       2.453  33.710 -22.000  1.00 49.82 LIG-0.27  OA
ATOM     13  N   GLY F   3       1.767  33.334 -24.117  1.00 50.02 LIG-0.35  N 
ATOM     14 H    GLY F   3       1.144  33.295 -24.709  1.00 50.02 LIG 0.16  HD
BRANCH 13 15
ATOM     15  CA  GLY F   3       3.101  33.057 -24.633  1.00 50.20 LIG 0.21  C 
BRANCH 15 16
ATOM     16  C   GLY F   3       3.703  31.796 -24.045  1.00 50.42 LIG 0.21  C 
ATOM     17 O    GLY F   3       4.359  31.839 -23.004  1.00 50.69 LIG-0.29  OA
ENDBRANCH 15 16
ENDBRANCH 13 15
ENDBRANCH 1 11
BRANCH 1 18
ATOM     18  CB  HIS F   2      -0.430  32.619 -21.655  1.00 49.99 LIG 0.10  C 
BRANCH 18 19
ATOM     19  CG  HIS F   2       0.576  32.028 -20.716  1.00 50.63 LIG 0.06  A 
ATOM     20  CD2 HIS F   2       0.948  32.387 -19.462  1.00 51.31 LIG 0.14  A 
ATOM     21 NE2  HIS F   2       1.909  31.493 -19.052  1.00 51.32 LIG-0.25  NA
ATOM     22  CE1 HIS F   2       2.125  30.621 -20.022  1.00 50.87 LIG 0.23  A 
ATOM     23 ND1  HIS F   2       1.333  30.920 -21.036  1.00 50.82 LIG-0.24  NA
ENDBRANCH 18 19
ENDBRANCH 1 18
TORSDOF 8
ENDMDL
MODEL 10
USER: ADFR SOLUTION from run 151
USER: SCORE 7.672472 LL:  -1.102 LR:  -7.198 RR:   0.000 FEB:  -4.812
USER: RMSD 4.623017
USER: SEED 150
USER: STATUS no improvement in best in 23 clusters for 5 generations
USER: GENES 10
USER: genes 0 Translation |==|  0.62698 0.58051 0.42275
USER: genes 1 Rotation |==|  0.58015 0.62608 0.62248 0.96117
USER: genes 2 Torsion [C]-CA--N-[C] |==|  0.17536
USER: genes 3 Torsion [N]-C--CA-[N] |==|  0.60566
USER: genes 4 Torsion [C]-CA--N-[H3] |==|  0.40143
USER: genes 5 Torsion [N]-CA--C-[N] |==|  0.67220
USER: genes 6 Torsion [C]-N--CA-[C] |==|  0.29820
USER: genes 7 Torsion [N]-CA--C-[O] |==|  0.26290
USER: genes 8 Torsion [N]-CA--CB-[CG] |==|  0.72103
USER: genes 9 Torsion [CA]-CB--CG-[CD2] |==|  0.69795
ROOT
ATOM      1  CA  HIS F   2       0.518  31.737 -20.340  1.00 49.99 LIG 0.18  C 
ENDROOT
BRANCH 1 2
ATOM      2  N   HIS F   2      -0.317  32.318 -21.391  1.00 49.83 LIG-0.35  N 
ATOM      3  C   GLY F   1      -0.822  33.547 -21.302  1.00 49.82 LIG 0.24  C 
ATOM      4 O    GLY F   1      -0.678  34.269 -20.311  1.00 49.53 LIG-0.27  OA
ATOM      5 H    HIS F   2      -0.450  31.797 -22.062  1.00 49.83 LIG 0.16  HD
BRANCH 3 6
ATOM      6  CA  GLY F   1      -1.609  34.030 -22.508  1.00 49.90 LIG 0.33  C 
BRANCH 6 7
ATOM      7  N   GLY F   1      -1.388  35.474 -22.815  1.00 49.95 LIG-0.07  N 
ATOM      8 H3   GLY F   1      -1.400  35.596 -23.697  1.00 49.95 LIG 0.27  HD
ATOM      9 H1   GLY F   1      -2.034  35.960 -22.440  1.00 49.95 LIG 0.27  HD
ATOM     10 H2   GLY F   1      -0.600  35.730 -22.492  1.00 49.95 LIG 0.27  HD
ENDBRANCH 6 7
ENDBRANCH 3 6
ENDBRANCH 1 2
BRANCH 1 11
ATOM     11  C   HIS F   2      -0.264  31.594 -19.035  1.00 50.00 LIG 0.24  C 
ATOM     12 O    HIS F   2      -1.256  30.864 -18.969  1.00 49.82 LIG-0.27  OA
ATOM     13  N   GLY F   3       0.201  32.289 -17.999  1.00 50.02 LIG-0.35  N 
ATOM     14 H    GLY F   3       0.878  32.819 -18.045  1.00 50.02 LIG 0.16  HD
BRANCH 13 15
ATOM     15  CA  GLY F   3      -0.408  32.210 -16.678  1.00 50.20 LIG 0.21  C 
BRANCH 15 16
ATOM     16  C   GLY F   3       0.443  31.438 -15.689  1.00 50.42 LIG 0.21  C 
ATOM     17 O    GLY F   3       1.224  32.025 -14.940  1.00 50.69 LIG-0.29  OA
ENDBRANCH 15 16
ENDBRANCH 13 15
ENDBRANCH 1 11
BRANCH 1 18
ATOM     18  CB  HIS F   2       1.778  32.577 -20.122  1.00 49.99 LIG 0.10  C 
BRANCH 18 19
ATOM     19  CG  HIS F   2       3.000  32.016 -20.783  1.00 50.63 LIG 0.06  A 
ATOM     20  CD2 HIS F   2       4.105  31.426 -20.265  1.00 51.31 LIG 0.14  A 
ATOM     21 NE2  HIS F   2       4.917  31.086 -21.321  1.00 51.32 LIG-0.25  NA
ATOM     22  CE1 HIS F   2       4.334  31.460 -22.447  1.00 50.87 LIG 0.23  A 
ATOM     23 ND1  HIS F   2       3.176  32.021 -22.150  1.00 50.82 LIG-0.24  NA
ENDBRANCH 18 19
ENDBRANCH 1 18
TORSDOF 8
ENDMDL
MODEL 11
USER: ADFR SOLUTION from run 102
USER: SCORE 8.000371 LL:  -1.179 LR:  -7.186 RR:   0.000 FEB:  -4.800
USER: RMSD 6.552042
USER: SEED 101
USER: STATUS no improvement in best in 24 clusters for 5 generations
USER: GENES 10
USER: genes 0 Translation |==|  0.64889 0.62791 0.38069
USER: genes 1 Rotation |==|  0.41889 0.56434 0.03043 0.63705
USER: genes 2 Torsion [C]-CA--N-[C] |==|  0.74445
USER: genes 3 Torsion [N]-C--CA-[N] |==|  0.42795
USER: genes 4 Torsion [C]-CA--N-[H3] |==|  0.68627
USER: genes 5 Torsion [N]-CA--C-[N] |==|  0.52646
USER: genes 6 Torsion [C]-N--CA-[C] |==|  0.83403
USER: genes 7 Torsion [N]-CA--C-[O] |==|  0.23427
USER: genes 8 Torsion [N]-CA--CB-[CG] |==|  0.58548
USER: genes 9 Torsion [CA]-CB--CG-[CD2] |==|  0.14708
ROOT
ATOM      1  CA  HIS F   2       0.896  32.341 -21.034  1.00 49.99 LIG 0.18  C 
ENDROOT
BRANCH 1 2
ATOM      2  N   HIS F   2       0.461  32.222 -22.426  1.00 49.83 LIG-0.35  N 
ATOM      3  C   GLY F   1       0.247  33.285 -23.198  1.00 49.82 LIG 0.24  C 
ATOM      4 O    GLY F   1       0.340  34.448 -22.793  1.00 49.53 LIG-0.27  OA
ATOM      5 H    HIS F   2       0.358  31.412 -22.693  1.00 49.83 LIG 0.16  HD
BRANCH 3 6
ATOM      6  CA  GLY F   1      -0.131  32.993 -24.640  1.00 49.90 LIG 0.33  C 
BRANCH 6 7
ATOM      7  N   GLY F   1      -0.929  34.085 -25.273  1.00 49.95 LIG-0.07  N 
ATOM      8 H3   GLY F   1      -1.754  33.793 -25.437  1.00 49.95 LIG 0.27  HD
ATOM      9 H1   GLY F   1      -0.966  34.783 -24.722  1.00 49.95 LIG 0.27  HD
ATOM     10 H2   GLY F   1      -0.544  34.330 -26.036  1.00 49.95 LIG 0.27  HD
ENDBRANCH 6 7
ENDBRANCH 3 6
ENDBRANCH 1 2
BRANCH 1 11
ATOM     11  C   HIS F   2       2.420  32.302 -20.932  1.00 50.00 LIG 0.24  C 
ATOM     12 O    HIS F   2       3.123  32.370 -21.943  1.00 49.82 LIG-0.27  OA
ATOM     13  N   GLY F   3       2.918  32.204 -19.701  1.00 50.02 LIG-0.35  N 
ATOM     14 H    GLY F   3       2.434  32.131 -18.994  1.00 50.02 LIG 0.16  HD
BRANCH 13 15
ATOM     15  CA  GLY F   3       4.353  32.211 -19.444  1.00 50.20 LIG 0.21  C 
BRANCH 15 16
ATOM     16  C   GLY F   3       5.075  31.073 -20.139  1.00 50.42 LIG 0.21  C 
ATOM     17 O    GLY F   3       5.432  31.179 -21.313  1.00 50.69 LIG-0.29  OA
ENDBRANCH 15 16
ENDBRANCH 13 15
ENDBRANCH 1 11
BRANCH 1 18
ATOM     18  CB  HIS F   2       0.272  31.239 -20.175  1.00 49.99 LIG 0.10  C 
BRANCH 18 19
ATOM     19  CG  HIS F   2       0.034  31.644 -18.753  1.00 50.63 LIG 0.06  A 
ATOM     20  CD2 HIS F   2      -0.619  32.707 -18.222  1.00 51.31 LIG 0.14  A 
ATOM     21 NE2  HIS F   2      -0.546  32.588 -16.855  1.00 51.32 LIG-0.25  NA
ATOM     22  CE1 HIS F   2       0.134  31.495 -16.555  1.00 50.87 LIG 0.23  A 
ATOM     23 ND1  HIS F   2       0.493  30.906 -17.682  1.00 50.82 LIG-0.24  NA
ENDBRANCH 18 19
ENDBRANCH 1 18
TORSDOF 8
ENDMDL
MODEL 12
USER: ADFR SOLUTION from run 68
USER: SCORE 8.331786 LL:  -1.260 LR:  -7.165 RR:   0.000 FEB:  -4.779
USER: RMSD 7.050409
USER: SEED 67
USER: STATUS no improvement in best in 29 clusters for 5 generations
USER: GENES 10
USER: genes 0 Translation |==|  0.73051 0.62792 0.38835
USER: genes 1 Rotation |==|  0.43407 0.55182 0.01053 0.55821
USER: genes 2 Torsion [C]-CA--N-[C] |==|  0.62158
USER: genes 3 Torsion [N]-C--CA-[N] |==|  0.42318
USER: genes 4 Torsion [C]-CA--N-[H3] |==|  0.74493
USER: genes 5 Torsion [N]-CA--C-[N] |==|  0.42625
USER: genes 6 Torsion [C]-N--CA-[C] |==|  0.38797
USER: genes 7 Torsion [N]-CA--C-[O] |==|  0.79485
USER: genes 8 Torsion [N]-CA--CB-[CG] |==|  0.36369
USER: genes 9 Torsion [CA]-CB--CG-[CD2] |==|  0.27310
ROOT
ATOM      1  CA  HIS F   2       2.304  32.341 -20.907  1.00 49.99 LIG 0.18  C 
ENDROOT
BRANCH 1 2
ATOM      2  N   HIS F   2       1.893  32.229 -22.307  1.00 49.83 LIG-0.35  N 
ATOM      3  C   GLY F   1       1.235  33.201 -22.936  1.00 49.82 LIG 0.24  C 
ATOM      4 O    GLY F   1       0.869  34.241 -22.382  1.00 49.53 LIG-0.27  OA
ATOM      5 H    HIS F   2       2.113  31.486 -22.679  1.00 49.83 LIG 0.16  HD
BRANCH 3 6
ATOM      6  CA  GLY F   1       0.943  32.960 -24.408  1.00 49.90 LIG 0.33  C 
BRANCH 6 7
ATOM      7  N   GLY F   1      -0.277  33.672 -24.890  1.00 49.95 LIG-0.07  N 
ATOM      8 H3   GLY F   1      -0.984  33.138 -24.809  1.00 49.95 LIG 0.27  HD
ATOM      9 H1   GLY F   1      -0.404  34.407 -24.404  1.00 49.95 LIG 0.27  HD
ATOM     10 H2   GLY F   1      -0.172  33.897 -25.745  1.00 49.95 LIG 0.27  HD
ENDBRANCH 6 7
ENDBRANCH 3 6
ENDBRANCH 1 2
BRANCH 1 11
ATOM     11  C   HIS F   2       3.735  31.840 -20.716  1.00 50.00 LIG 0.24  C 
ATOM     12 O    HIS F   2       4.221  31.007 -21.484  1.00 49.82 LIG-0.27  OA
ATOM     13  N   GLY F   3       4.402  32.365 -19.691  1.00 50.02 LIG-0.35  N 
ATOM     14 H    GLY F   3       4.061  32.927 -19.136  1.00 50.02 LIG 0.16  HD
BRANCH 13 15
ATOM     15  CA  GLY F   3       5.792  32.024 -19.417  1.00 50.20 LIG 0.21  C 
BRANCH 15 16
ATOM     16  C   GLY F   3       6.614  33.225 -18.991  1.00 50.42 LIG 0.21  C 
ATOM     17 O    GLY F   3       6.953  34.077 -19.813  1.00 50.69 LIG-0.29  OA
ENDBRANCH 15 16
ENDBRANCH 13 15
ENDBRANCH 1 11
BRANCH 1 18
ATOM     18  CB  HIS F   2       1.341  31.578 -19.996  1.00 49.99 LIG 0.10  C 
BRANCH 18 19
ATOM     19  CG  HIS F   2       2.023  30.667 -19.023  1.00 50.63 LIG 0.06  A 
ATOM     20  CD2 HIS F   2       2.341  30.833 -17.716  1.00 51.31 LIG 0.14  A 
ATOM     21 NE2  HIS F   2       2.953  29.675 -17.297  1.00 51.32 LIG-0.25  NA
ATOM     22  CE1 HIS F   2       3.014  28.831 -18.312  1.00 50.87 LIG 0.23  A 
ATOM     23 ND1  HIS F   2       2.459  29.404 -19.365  1.00 50.82 LIG-0.24  NA
ENDBRANCH 18 19
ENDBRANCH 1 18
TORSDOF 8
ENDMDL
MODEL 13
USER: ADFR SOLUTION from run 98
USER: SCORE 8.131127 LL:  -1.061 LR:  -7.120 RR:   0.000 FEB:  -4.733
USER: RMSD 4.597808
USER: SEED 97
USER: STATUS no improvement in best in 28 clusters for 5 generations
USER: GENES 10
USER: genes 0 Translation |==|  0.51463 0.71721 0.42098
USER: genes 1 Rotation |==|  0.64586 0.58312 0.52563 0.97028
USER: genes 2 Torsion [C]-CA--N-[C] |==|  0.79254
USER: genes 3 Torsion [N]-C--CA-[N] |==|  0.11737
USER: genes 4 Torsion [C]-CA--N-[H3] |==|  0.12025
USER: genes 5 Torsion [N]-CA--C-[N] |==|  0.45448
USER: genes 6 Torsion [C]-N--CA-[C] |==|  0.64545
USER: genes 7 Torsion [N]-CA--C-[O] |==|  0.53159
USER: genes 8 Torsion [N]-CA--CB-[CG] |==|  0.81981
USER: genes 9 Torsion [CA]-CB--CG-[CD2] |==|  0.64208
ROOT
ATOM      1  CA  HIS F   2      -1.420  33.479 -20.369  1.00 49.99 LIG 0.18  C 
ENDROOT
BRANCH 1 2
ATOM      2  N   HIS F   2      -1.823  34.540 -21.293  1.00 49.83 LIG-0.35  N 
ATOM      3  C   GLY F   1      -2.930  34.460 -22.029  1.00 49.82 LIG 0.24  C 
ATOM      4 O    GLY F   1      -3.668  33.471 -22.039  1.00 49.53 LIG-0.27  OA
ATOM      5 H    HIS F   2      -1.286  35.210 -21.315  1.00 49.83 LIG 0.16  HD
BRANCH 3 6
ATOM      6  CA  GLY F   1      -3.247  35.674 -22.886  1.00 49.90 LIG 0.33  C 
BRANCH 6 7
ATOM      7  N   GLY F   1      -2.047  36.245 -23.565  1.00 49.95 LIG-0.07  N 
ATOM      8 H3   GLY F   1      -1.552  35.585 -23.897  1.00 49.95 LIG 0.27  HD
ATOM      9 H1   GLY F   1      -2.307  36.782 -24.226  1.00 49.95 LIG 0.27  HD
ATOM     10 H2   GLY F   1      -1.566  36.710 -22.978  1.00 49.95 LIG 0.27  HD
ENDBRANCH 6 7
ENDBRANCH 3 6
ENDBRANCH 1 2
BRANCH 1 11
ATOM     11  C   HIS F   2      -2.288  33.489 -19.112  1.00 50.00 LIG 0.24  C 
ATOM     12 O    HIS F   2      -2.984  34.468 -18.832  1.00 49.82 LIG-0.27  OA
ATOM     13  N   GLY F   3      -2.245  32.387 -18.367  1.00 50.02 LIG-0.35  N 
ATOM     14 H    GLY F   3      -1.743  31.711 -18.543  1.00 50.02 LIG 0.16  HD
BRANCH 13 15
ATOM     15  CA  GLY F   3      -3.061  32.230 -17.169  1.00 50.20 LIG 0.21  C 
BRANCH 15 16
ATOM     16  C   GLY F   3      -2.244  31.834 -15.956  1.00 50.42 LIG 0.21  C 
ATOM     17 O    GLY F   3      -2.797  31.460 -14.921  1.00 50.69 LIG-0.29  OA
ENDBRANCH 15 16
ENDBRANCH 13 15
ENDBRANCH 1 11
BRANCH 1 18
ATOM     18  CB  HIS F   2       0.060  33.615 -20.002  1.00 49.99 LIG 0.10  C 
BRANCH 18 19
ATOM     19  CG  HIS F   2       0.989  33.416 -21.159  1.00 50.63 LIG 0.06  A 
ATOM     20  CD2 HIS F   2       2.077  32.620 -21.306  1.00 51.31 LIG 0.14  A 
ATOM     21 NE2  HIS F   2       2.556  32.819 -22.579  1.00 51.32 LIG-0.25  NA
ATOM     22  CE1 HIS F   2       1.796  33.710 -23.190  1.00 50.87 LIG 0.23  A 
ATOM     23 ND1  HIS F   2       0.842  34.085 -22.356  1.00 50.82 LIG-0.24  NA
ENDBRANCH 18 19
ENDBRANCH 1 18
TORSDOF 8
ENDMDL
MODEL 14
USER: ADFR SOLUTION from run 13
USER: SCORE 8.335458 LL:  -1.362 LR:  -7.117 RR:   0.000 FEB:  -4.731
USER: RMSD 7.040160
USER: SEED 567176
USER: STATUS no improvement in best in 29 clusters for 5 generations
USER: GENES 10
USER: genes 0 Translation |==|  0.55713 0.65320 0.21574
USER: genes 1 Rotation |==|  0.57519 0.73038 0.30154 0.88972
USER: genes 2 Torsion [C]-CA--N-[C] |==|  0.55718
USER: genes 3 Torsion [N]-C--CA-[N] |==|  0.09768
USER: genes 4 Torsion [C]-CA--N-[H3] |==|  0.16781
USER: genes 5 Torsion [N]-CA--C-[N] |==|  0.43904
USER: genes 6 Torsion [C]-N--CA-[C] |==|  0.64703
USER: genes 7 Torsion [N]-CA--C-[O] |==|  0.22902
USER: genes 8 Torsion [N]-CA--CB-[CG] |==|  0.31370
USER: genes 9 Torsion [CA]-CB--CG-[CD2] |==|  0.77935
ROOT
ATOM      1  CA  HIS F   2      -0.686  32.663 -23.755  1.00 49.99 LIG 0.18  C 
ENDROOT
BRANCH 1 2
ATOM      2  N   HIS F   2      -1.247  33.697 -24.626  1.00 49.83 LIG-0.35  N 
ATOM      3  C   GLY F   1      -2.184  33.433 -25.534  1.00 49.82 LIG 0.24  C 
ATOM      4 O    GLY F   1      -2.612  32.296 -25.756  1.00 49.53 LIG-0.27  OA
ATOM      5 H    HIS F   2      -0.918  34.481 -24.497  1.00 49.83 LIG 0.16  HD
BRANCH 3 6
ATOM      6  CA  GLY F   1      -2.714  34.627 -26.309  1.00 49.90 LIG 0.33  C 
BRANCH 6 7
ATOM      7  N   GLY F   1      -1.672  35.660 -26.584  1.00 49.95 LIG-0.07  N 
ATOM      8 H3   GLY F   1      -1.018  35.300 -27.069  1.00 49.95 LIG 0.27  HD
ATOM      9 H1   GLY F   1      -2.036  36.337 -27.033  1.00 49.95 LIG 0.27  HD
ATOM     10 H2   GLY F   1      -1.340  35.959 -25.815  1.00 49.95 LIG 0.27  HD
ENDBRANCH 6 7
ENDBRANCH 3 6
ENDBRANCH 1 2
BRANCH 1 11
ATOM     11  C   HIS F   2      -0.044  33.282 -22.515  1.00 50.00 LIG 0.24  C 
ATOM     12 O    HIS F   2       0.313  34.462 -22.510  1.00 49.82 LIG-0.27  OA
ATOM     13  N   GLY F   3       0.086  32.475 -21.464  1.00 50.02 LIG-0.35  N 
ATOM     14 H    GLY F   3      -0.138  31.645 -21.469  1.00 50.02 LIG 0.16  HD
BRANCH 13 15
ATOM     15  CA  GLY F   3       0.630  32.940 -20.195  1.00 50.20 LIG 0.21  C 
BRANCH 15 16
ATOM     16  C   GLY F   3       1.776  32.078 -19.701  1.00 50.42 LIG 0.21  C 
ATOM     17 O    GLY F   3       2.919  32.251 -20.125  1.00 50.69 LIG-0.29  OA
ENDBRANCH 15 16
ENDBRANCH 13 15
ENDBRANCH 1 11
BRANCH 1 18
ATOM     18  CB  HIS F   2       0.328  31.806 -24.515  1.00 49.99 LIG 0.10  C 
BRANCH 18 19
ATOM     19  CG  HIS F   2       1.736  31.967 -24.032  1.00 50.63 LIG 0.06  A 
ATOM     20  CD2 HIS F   2       2.659  32.932 -24.271  1.00 51.31 LIG 0.14  A 
ATOM     21 NE2  HIS F   2       3.791  32.594 -23.567  1.00 51.32 LIG-0.25  NA
ATOM     22  CE1 HIS F   2       3.574  31.460 -22.925  1.00 50.87 LIG 0.23  A 
ATOM     23 ND1  HIS F   2       2.342  31.061 -23.187  1.00 50.82 LIG-0.24  NA
ENDBRANCH 18 19
ENDBRANCH 1 18
TORSDOF 8
ENDMDL
MODEL 15
USER: ADFR SOLUTION from run 60
USER: SCORE 8.040821 LL:  -1.007 LR:  -7.105 RR:   0.000 FEB:  -4.719
USER: RMSD 6.079049
USER: SEED 59
USER: STATUS no improvement in best in 18 clusters for 5 generations
USER: GENES 10
USER: genes 0 Translation |==|  0.57856 0.59836 0.48591
USER: genes 1 Rotation |==|  0.40293 0.66714 0.04306 0.56205
USER: genes 2 Torsion [C]-CA--N-[C] |==|  0.85636
USER: genes 3 Torsion [N]-C--CA-[N] |==|  0.37273
USER: genes 4 Torsion [C]-CA--N-[H3] |==|  0.07779
USER: genes 5 Torsion [N]-CA--C-[N] |==|  0.35556
USER: genes 6 Torsion [C]-N--CA-[C] |==|  0.11800
USER: genes 7 Torsion [N]-CA--C-[O] |==|  0.54167
USER: genes 8 Torsion [N]-CA--CB-[CG] |==|  0.69771
USER: genes 9 Torsion [CA]-CB--CG-[CD2] |==|  0.79763
ROOT
ATOM      1  CA  HIS F   2      -0.317  31.964 -19.297  1.00 49.99 LIG 0.18  C 
ENDROOT
BRANCH 1 2
ATOM      2  N   HIS F   2      -0.981  32.469 -20.499  1.00 49.83 LIG-0.35  N 
ATOM      3  C   GLY F   1      -0.417  33.371 -21.300  1.00 49.82 LIG 0.24  C 
ATOM      4 O    GLY F   1       0.676  33.895 -21.067  1.00 49.53 LIG-0.27  OA
ATOM      5 H    HIS F   2      -1.760  32.133 -20.638  1.00 49.83 LIG 0.16  HD
BRANCH 3 6
ATOM      6  CA  GLY F   1      -1.205  33.739 -22.545  1.00 49.90 LIG 0.33  C 
BRANCH 6 7
ATOM      7  N   GLY F   1      -1.267  35.211 -22.790  1.00 49.95 LIG-0.07  N 
ATOM      8 H3   GLY F   1      -0.544  35.599 -22.444  1.00 49.95 LIG 0.27  HD
ATOM      9 H1   GLY F   1      -1.296  35.365 -23.666  1.00 49.95 LIG 0.27  HD
ATOM     10 H2   GLY F   1      -1.996  35.546 -22.405  1.00 49.95 LIG 0.27  HD
ENDBRANCH 6 7
ENDBRANCH 3 6
ENDBRANCH 1 2
BRANCH 1 11
ATOM     11  C   HIS F   2       1.092  31.467 -19.619  1.00 50.00 LIG 0.24  C 
ATOM     12 O    HIS F   2       1.285  30.667 -20.537  1.00 49.82 LIG-0.27  OA
ATOM     13  N   GLY F   3       2.069  31.959 -18.861  1.00 50.02 LIG-0.35  N 
ATOM     14 H    GLY F   3       1.938  32.498 -18.203  1.00 50.02 LIG 0.16  HD
BRANCH 13 15
ATOM     15  CA  GLY F   3       3.468  31.619 -19.085  1.00 50.20 LIG 0.21  C 
BRANCH 15 16
ATOM     16  C   GLY F   3       3.839  31.618 -20.555  1.00 50.42 LIG 0.21  C 
ATOM     17 O    GLY F   3       4.885  31.094 -20.938  1.00 50.69 LIG-0.29  OA
ENDBRANCH 15 16
ENDBRANCH 13 15
ENDBRANCH 1 11
BRANCH 1 18
ATOM     18  CB  HIS F   2      -1.144  30.853 -18.648  1.00 49.99 LIG 0.10  C 
BRANCH 18 19
ATOM     19  CG  HIS F   2      -1.789  31.256 -17.358  1.00 50.63 LIG 0.06  A 
ATOM     20  CD2 HIS F   2      -1.266  31.470 -16.125  1.00 51.31 LIG 0.14  A 
ATOM     21 NE2  HIS F   2      -2.305  31.833 -15.301  1.00 51.32 LIG-0.25  NA
ATOM     22  CE1 HIS F   2      -3.427  31.836 -16.000  1.00 50.87 LIG 0.23  A 
ATOM     23 ND1  HIS F   2      -3.143  31.493 -17.244  1.00 50.82 LIG-0.24  NA
ENDBRANCH 18 19
ENDBRANCH 1 18
TORSDOF 8
ENDMDL
MODEL 16
USER: ADFR SOLUTION from run 109
USER: SCORE 8.107067 LL:  -1.136 LR:  -7.085 RR:   0.000 FEB:  -4.699
USER: RMSD 7.027565
USER: SEED 108
USER: STATUS no improvement in best in 19 clusters for 5 generations
USER: GENES 10
USER: genes 0 Translation |==|  0.65379 0.52902 0.65467
USER: genes 1 Rotation |==|  0.35293 0.06329 0.57894 0.67727
USER: genes 2 Torsion [C]-CA--N-[C] |==|  0.82333
USER: genes 3 Torsion [N]-C--CA-[N] |==|  0.30831
USER: genes 4 Torsion [C]-CA--N-[H3] |==|  0.46545
USER: genes 5 Torsion [N]-CA--C-[N] |==|  0.86668
USER: genes 6 Torsion [C]-N--CA-[C] |==|  0.77499
USER: genes 7 Torsion [N]-CA--C-[O] |==|  0.56090
USER: genes 8 Torsion [N]-CA--CB-[CG] |==|  0.62340
USER: genes 9 Torsion [CA]-CB--CG-[CD2] |==|  0.83813
ROOT
ATOM      1  CA  HIS F   2       0.981  31.080 -16.513  1.00 49.99 LIG 0.18  C 
ENDROOT
BRANCH 1 2
ATOM      2  N   HIS F   2       2.082  31.503 -15.646  1.00 49.83 LIG-0.35  N 
ATOM      3  C   GLY F   1       3.133  30.724 -15.399  1.00 49.82 LIG 0.24  C 
ATOM      4 O    GLY F   1       3.238  29.571 -15.826  1.00 49.53 LIG-0.27  OA
ATOM      5 H    HIS F   2       1.987  32.291 -15.317  1.00 49.83 LIG 0.16  HD
BRANCH 3 6
ATOM      6  CA  GLY F   1       4.224  31.336 -14.537  1.00 49.90 LIG 0.33  C 
BRANCH 6 7
ATOM      7  N   GLY F   1       4.328  30.710 -13.186  1.00 49.95 LIG-0.07  N 
ATOM      8 H3   GLY F   1       5.083  30.972 -12.794  1.00 49.95 LIG 0.27  HD
ATOM      9 H1   GLY F   1       3.634  30.961 -12.688  1.00 49.95 LIG 0.27  HD
ATOM     10 H2   GLY F   1       4.329  29.824 -13.267  1.00 49.95 LIG 0.27  HD
ENDBRANCH 6 7
ENDBRANCH 3 6
ENDBRANCH 1 2
BRANCH 1 11
ATOM     11  C   HIS F   2       1.465  30.862 -17.945  1.00 50.00 LIG 0.24  C 
ATOM     12 O    HIS F   2       1.156  29.843 -18.569  1.00 49.82 LIG-0.27  OA
ATOM     13  N   GLY F   3       2.215  31.834 -18.460  1.00 50.02 LIG-0.35  N 
ATOM     14 H    GLY F   3       2.454  32.535 -18.023  1.00 50.02 LIG 0.16  HD
BRANCH 13 15
ATOM     15  CA  GLY F   3       2.702  31.791 -19.833  1.00 50.20 LIG 0.21  C 
BRANCH 15 16
ATOM     16  C   GLY F   3       3.938  30.927 -19.985  1.00 50.42 LIG 0.21  C 
ATOM     17 O    GLY F   3       4.701  31.085 -20.939  1.00 50.69 LIG-0.29  OA
ENDBRANCH 15 16
ENDBRANCH 13 15
ENDBRANCH 1 11
BRANCH 1 18
ATOM     18  CB  HIS F   2      -0.158  32.101 -16.480  1.00 49.99 LIG 0.10  C 
BRANCH 18 19
ATOM     19  CG  HIS F   2      -1.518  31.486 -16.359  1.00 50.63 LIG 0.06  A 
ATOM     20  CD2 HIS F   2      -2.168  30.592 -17.144  1.00 51.31 LIG 0.14  A 
ATOM     21 NE2  HIS F   2      -3.392  30.358 -16.565  1.00 51.32 LIG-0.25  NA
ATOM     22  CE1 HIS F   2      -3.494  31.086 -15.467  1.00 50.87 LIG 0.23  A 
ATOM     23 ND1  HIS F   2      -2.376  31.775 -15.318  1.00 50.82 LIG-0.24  NA
ENDBRANCH 18 19
ENDBRANCH 1 18
TORSDOF 8
ENDMDL
MODEL 17
USER: ADFR SOLUTION from run 85
USER: SCORE 8.016465 LL:  -1.033 LR:  -7.055 RR:   0.000 FEB:  -4.669
USER: RMSD 1.658093
USER: SEED 84
USER: STATUS no improvement in best in 33 clusters for 5 generations
USER: GENES 10
USER: genes 0 Translation |==|  0.48785 0.43795 0.58812
USER: genes 1 Rotation |==|  0.34772 0.60686 0.52335 0.96351
USER: genes 2 Torsion [C]-CA--N-[C] |==|  0.83233
USER: genes 3 Torsion [N]-C--CA-[N] |==|  0.00610
USER: genes 4 Torsion [C]-CA--N-[H3] |==|  0.62399
USER: genes 5 Torsion [N]-CA--C-[N] |==|  0.34449
USER: genes 6 Torsion [C]-N--CA-[C] |==|  0.30095
USER: genes 7 Torsion [N]-CA--C-[O] |==|  0.18935
USER: genes 8 Torsion [N]-CA--CB-[CG] |==|  0.74492
USER: genes 9 Torsion [CA]-CB--CG-[CD2] |==|  0.84675
ROOT
ATOM      1  CA  HIS F   2      -1.882  29.919 -17.611  1.00 49.99 LIG 0.18  C 
ENDROOT
BRANCH 1 2
ATOM      2  N   HIS F   2      -2.400  29.370 -18.865  1.00 49.83 LIG-0.35  N 
ATOM      3  C   GLY F   1      -3.556  28.713 -18.930  1.00 49.82 LIG 0.24  C 
ATOM      4 O    GLY F   1      -4.250  28.462 -17.941  1.00 49.53 LIG-0.27  OA
ATOM      5 H    HIS F   2      -1.895  29.512 -19.545  1.00 49.83 LIG 0.16  HD
BRANCH 3 6
ATOM      6  CA  GLY F   1      -3.990  28.269 -20.317  1.00 49.90 LIG 0.33  C 
BRANCH 6 7
ATOM      7  N   GLY F   1      -3.000  28.610 -21.381  1.00 49.95 LIG-0.07  N 
ATOM      8 H3   GLY F   1      -3.426  28.948 -22.085  1.00 49.95 LIG 0.27  HD
ATOM      9 H1   GLY F   1      -2.422  29.210 -21.067  1.00 49.95 LIG 0.27  HD
ATOM     10 H2   GLY F   1      -2.561  27.875 -21.625  1.00 49.95 LIG 0.27  HD
ENDBRANCH 6 7
ENDBRANCH 3 6
ENDBRANCH 1 2
BRANCH 1 11
ATOM     11  C   HIS F   2      -2.848  30.945 -17.021  1.00 50.00 LIG 0.24  C 
ATOM     12 O    HIS F   2      -3.219  31.917 -17.683  1.00 49.82 LIG-0.27  OA
ATOM     13  N   GLY F   3      -3.256  30.710 -15.776  1.00 50.02 LIG-0.35  N 
ATOM     14 H    GLY F   3      -2.982  30.048 -15.300  1.00 50.02 LIG 0.16  HD
BRANCH 13 15
ATOM     15  CA  GLY F   3      -4.220  31.571 -15.102  1.00 50.20 LIG 0.21  C 
BRANCH 15 16
ATOM     16  C   GLY F   3      -5.576  30.914 -14.941  1.00 50.42 LIG 0.21  C 
ATOM     17 O    GLY F   3      -5.722  29.952 -14.186  1.00 50.69 LIG-0.29  OA
ENDBRANCH 15 16
ENDBRANCH 13 15
ENDBRANCH 1 11
BRANCH 1 18
ATOM     18  CB  HIS F   2      -0.500  30.541 -17.823  1.00 49.99 LIG 0.10  C 
BRANCH 18 19
ATOM     19  CG  HIS F   2       0.633  29.593 -17.579  1.00 50.63 LIG 0.06  A 
ATOM     20  CD2 HIS F   2       0.949  28.835 -16.501  1.00 51.31 LIG 0.14  A 
ATOM     21 NE2  HIS F   2       2.092  28.137 -16.815  1.00 51.32 LIG-0.25  NA
ATOM     22  CE1 HIS F   2       2.468  28.460 -18.040  1.00 50.87 LIG 0.23  A 
ATOM     23 ND1  HIS F   2       1.604  29.335 -18.524  1.00 50.82 LIG-0.24  NA
ENDBRANCH 18 19
ENDBRANCH 1 18
TORSDOF 8
ENDMDL
MODEL 18
USER: ADFR SOLUTION from run 177
USER: SCORE 7.951687 LL:  -1.253 LR:  -7.048 RR:   0.000 FEB:  -4.662
USER: RMSD 6.516495
USER: SEED 176
USER: STATUS no improvement in best in 39 clusters for 5 generations
USER: GENES 10
USER: genes 0 Translation |==|  0.55180 0.69516 0.29573
USER: genes 1 Rotation |==|  0.50636 0.51332 0.52984 0.99889
USER: genes 2 Torsion [C]-CA--N-[C] |==|  0.73504
USER: genes 3 Torsion [N]-C--CA-[N] |==|  0.89468
USER: genes 4 Torsion [C]-CA--N-[H3] |==|  0.37771
USER: genes 5 Torsion [N]-CA--C-[N] |==|  0.85000
USER: genes 6 Torsion [C]-N--CA-[C] |==|  0.61499
USER: genes 7 Torsion [N]-CA--C-[O] |==|  0.02997
USER: genes 8 Torsion [N]-CA--CB-[CG] |==|  0.84937
USER: genes 9 Torsion [CA]-CB--CG-[CD2] |==|  0.70834
ROOT
ATOM      1  CA  HIS F   2      -0.779  33.198 -22.435  1.00 49.99 LIG 0.18  C 
ENDROOT
BRANCH 1 2
ATOM      2  N   HIS F   2      -0.811  33.589 -23.845  1.00 49.83 LIG-0.35  N 
ATOM      3  C   GLY F   1      -1.317  32.800 -24.791  1.00 49.82 LIG 0.24  C 
ATOM      4 O    GLY F   1      -1.741  31.662 -24.570  1.00 49.53 LIG-0.27  OA
ATOM      5 H    HIS F   2      -0.478  34.365 -24.003  1.00 49.83 LIG 0.16  HD
BRANCH 3 6
ATOM      6  CA  GLY F   1      -1.343  33.380 -26.196  1.00 49.90 LIG 0.33  C 
BRANCH 6 7
ATOM      7  N   GLY F   1      -1.672  34.835 -26.226  1.00 49.95 LIG-0.07  N 
ATOM      8 H3   GLY F   1      -1.125  35.252 -26.790  1.00 49.95 LIG 0.27  HD
ATOM      9 H1   GLY F   1      -2.514  34.944 -26.495  1.00 49.95 LIG 0.27  HD
ATOM     10 H2   GLY F   1      -1.575  35.179 -25.411  1.00 49.95 LIG 0.27  HD
ENDBRANCH 6 7
ENDBRANCH 3 6
ENDBRANCH 1 2
BRANCH 1 11
ATOM     11  C   HIS F   2      -1.986  33.757 -21.685  1.00 50.00 LIG 0.24  C 
ATOM     12 O    HIS F   2      -2.720  33.015 -21.027  1.00 49.82 LIG-0.27  OA
ATOM     13  N   GLY F   3      -2.174  35.071 -21.782  1.00 50.02 LIG-0.35  N 
ATOM     14 H    GLY F   3      -1.681  35.590 -22.259  1.00 50.02 LIG 0.16  HD
BRANCH 13 15
ATOM     15  CA  GLY F   3      -3.252  35.753 -21.077  1.00 50.20 LIG 0.21  C 
BRANCH 15 16
ATOM     16  C   GLY F   3      -3.931  36.807 -21.929  1.00 50.42 LIG 0.21  C 
ATOM     17 O    GLY F   3      -3.702  36.881 -23.136  1.00 50.69 LIG-0.29  OA
ENDBRANCH 15 16
ENDBRANCH 13 15
ENDBRANCH 1 11
BRANCH 1 18
ATOM     18  CB  HIS F   2       0.524  33.657 -21.776  1.00 49.99 LIG 0.10  C 
BRANCH 18 19
ATOM     19  CG  HIS F   2       1.757  33.194 -22.489  1.00 50.63 LIG 0.06  A 
ATOM     20  CD2 HIS F   2       2.653  32.223 -22.186  1.00 51.31 LIG 0.14  A 
ATOM     21 NE2  HIS F   2       3.592  32.210 -23.190  1.00 51.32 LIG-0.25  NA
ATOM     22  CE1 HIS F   2       3.289  33.144 -24.074  1.00 50.87 LIG 0.23  A 
ATOM     23 ND1  HIS F   2       2.185  33.751 -23.676  1.00 50.82 LIG-0.24  NA
ENDBRANCH 18 19
ENDBRANCH 1 18
TORSDOF 8
ENDMDL
MODEL 19
USER: ADFR SOLUTION from run 2
USER: SCORE 7.756122 LL:  -1.132 LR:  -7.045 RR:   0.000 FEB:  -4.659
USER: RMSD 5.030555
USER: SEED 413271
USER: STATUS no improvement in best in 30 clusters for 5 generations
USER: GENES 10
USER: genes 0 Translation |==|  0.52386 0.64488 0.51218
USER: genes 1 Rotation |==|  0.45978 0.39322 0.98581 0.53116
USER: genes 2 Torsion [C]-CA--N-[C] |==|  0.56111
USER: genes 3 Torsion [N]-C--CA-[N] |==|  0.53575
USER: genes 4 Torsion [C]-CA--N-[H3] |==|  0.25378
USER: genes 5 Torsion [N]-CA--C-[N] |==|  0.32986
USER: genes 6 Torsion [C]-N--CA-[C] |==|  0.83851
USER: genes 7 Torsion [N]-CA--C-[O] |==|  0.32360
USER: genes 8 Torsion [N]-CA--CB-[CG] |==|  0.49127
USER: genes 9 Torsion [CA]-CB--CG-[CD2] |==|  0.03080
ROOT
ATOM      1  CA  HIS F   2      -1.260  32.557 -18.864  1.00 49.99 LIG 0.18  C 
ENDROOT
BRANCH 1 2
ATOM      2  N   HIS F   2      -1.117  32.829 -20.295  1.00 49.83 LIG-0.35  N 
ATOM      3  C   GLY F   1      -1.494  33.982 -20.842  1.00 49.82 LIG 0.24  C 
ATOM      4 O    GLY F   1      -2.045  34.886 -20.208  1.00 49.53 LIG-0.27  OA
ATOM      5 H    HIS F   2      -0.770  32.181 -20.742  1.00 49.83 LIG 0.16  HD
BRANCH 3 6
ATOM      6  CA  GLY F   1      -1.212  34.136 -22.327  1.00 49.90 LIG 0.33  C 
BRANCH 6 7
ATOM      7  N   GLY F   1      -1.371  35.537 -22.815  1.00 49.95 LIG-0.07  N 
ATOM      8 H3   GLY F   1      -0.590  35.961 -22.762  1.00 49.95 LIG 0.27  HD
ATOM      9 H1   GLY F   1      -1.646  35.528 -23.662  1.00 49.95 LIG 0.27  HD
ATOM     10 H2   GLY F   1      -1.972  35.960 -22.314  1.00 49.95 LIG 0.27  HD
ENDBRANCH 6 7
ENDBRANCH 3 6
ENDBRANCH 1 2
BRANCH 1 11
ATOM     11  C   HIS F   2      -0.301  31.456 -18.417  1.00 50.00 LIG 0.24  C 
ATOM     12 O    HIS F   2      -0.368  30.324 -18.902  1.00 49.82 LIG-0.27  OA
ATOM     13  N   GLY F   3       0.597  31.804 -17.497  1.00 50.02 LIG-0.35  N 
ATOM     14 H    GLY F   3       0.633  32.585 -17.137  1.00 50.02 LIG 0.16  HD
BRANCH 13 15
ATOM     15  CA  GLY F   3       1.611  30.876 -17.015  1.00 50.20 LIG 0.21  C 
BRANCH 15 16
ATOM     16  C   GLY F   3       1.012  29.620 -16.413  1.00 50.42 LIG 0.21  C 
ATOM     17 O    GLY F   3       1.220  28.518 -16.923  1.00 50.69 LIG-0.29  OA
ENDBRANCH 15 16
ENDBRANCH 13 15
ENDBRANCH 1 11
BRANCH 1 18
ATOM     18  CB  HIS F   2      -2.705  32.182 -18.526  1.00 49.99 LIG 0.10  C 
BRANCH 18 19
ATOM     19  CG  HIS F   2      -2.913  31.817 -17.089  1.00 50.63 LIG 0.06  A 
ATOM     20  CD2 HIS F   2      -2.106  31.947 -16.007  1.00 51.31 LIG 0.14  A 
ATOM     21 NE2  HIS F   2      -2.798  31.460 -14.923  1.00 51.32 LIG-0.25  NA
ATOM     22  CE1 HIS F   2      -3.985  31.038 -15.326  1.00 50.87 LIG 0.23  A 
ATOM     23 ND1  HIS F   2      -4.080  31.244 -16.628  1.00 50.82 LIG-0.24  NA
ENDBRANCH 18 19
ENDBRANCH 1 18
TORSDOF 8
ENDMDL
MODEL 20
USER: ADFR SOLUTION from run 62
USER: SCORE 7.533997 LL:  -0.944 LR:  -7.026 RR:   0.000 FEB:  -4.640
USER: RMSD 6.790557
USER: SEED 61
USER: STATUS no improvement in best in 20 clusters for 5 generations
USER: GENES 10
USER: genes 0 Translation |==|  0.60451 0.72827 0.40562
USER: genes 1 Rotation |==|  0.34728 0.73907 0.09343 0.56500
USER: genes 2 Torsion [C]-CA--N-[C] |==|  0.20731
USER: genes 3 Torsion [N]-C--CA-[N] |==|  0.12603
USER: genes 4 Torsion [C]-CA--N-[H3] |==|  0.65622
USER: genes 5 Torsion [N]-CA--C-[N] |==|  0.99511
USER: genes 6 Torsion [C]-N--CA-[C] |==|  0.12657
USER: genes 7 Torsion [N]-CA--C-[O] |==|  0.67793
USER: genes 8 Torsion [N]-CA--CB-[CG] |==|  0.71797
USER: genes 9 Torsion [CA]-CB--CG-[CD2] |==|  0.76053
ROOT
ATOM      1  CA  HIS F   2       0.131  33.620 -20.622  1.00 49.99 LIG 0.18  C 
ENDROOT
BRANCH 1 2
ATOM      2  N   HIS F   2      -0.846  34.388 -21.396  1.00 49.83 LIG-0.35  N 
ATOM      3  C   GLY F   1      -1.555  33.847 -22.384  1.00 49.82 LIG 0.24  C 
ATOM      4 O    GLY F   1      -1.408  32.683 -22.766  1.00 49.53 LIG-0.27  OA
ATOM      5 H    HIS F   2      -0.917  35.210 -21.154  1.00 49.83 LIG 0.16  HD
BRANCH 3 6
ATOM      6  CA  GLY F   1      -2.579  34.758 -23.042  1.00 49.90 LIG 0.33  C 
BRANCH 6 7
ATOM      7  N   GLY F   1      -2.047  36.118 -23.347  1.00 49.95 LIG-0.07  N 
ATOM      8 H3   GLY F   1      -2.561  36.732 -22.958  1.00 49.95 LIG 0.27  HD
ATOM      9 H1   GLY F   1      -1.215  36.189 -23.037  1.00 49.95 LIG 0.27  HD
ATOM     10 H2   GLY F   1      -2.047  36.247 -24.227  1.00 49.95 LIG 0.27  HD
ENDBRANCH 6 7
ENDBRANCH 3 6
ENDBRANCH 1 2
BRANCH 1 11
ATOM     11  C   HIS F   2       1.401  33.375 -21.435  1.00 50.00 LIG 0.24  C 
ATOM     12 O    HIS F   2       2.354  32.762 -20.948  1.00 49.82 LIG-0.27  OA
ATOM     13  N   GLY F   3       1.396  33.848 -22.679  1.00 50.02 LIG-0.35  N 
ATOM     14 H    GLY F   3       0.745  34.297 -23.017  1.00 50.02 LIG 0.16  HD
BRANCH 13 15
ATOM     15  CA  GLY F   3       2.515  33.642 -23.589  1.00 50.20 LIG 0.21  C 
BRANCH 15 16
ATOM     16  C   GLY F   3       3.020  32.213 -23.578  1.00 50.42 LIG 0.21  C 
ATOM     17 O    GLY F   3       4.159  31.952 -23.190  1.00 50.69 LIG-0.29  OA
ENDBRANCH 15 16
ENDBRANCH 13 15
ENDBRANCH 1 11
BRANCH 1 18
ATOM     18  CB  HIS F   2      -0.471  32.295 -20.152  1.00 49.99 LIG 0.10  C 
BRANCH 18 19
ATOM     19  CG  HIS F   2      -0.899  32.301 -18.717  1.00 50.63 LIG 0.06  A 
ATOM     20  CD2 HIS F   2      -0.209  32.048 -17.577  1.00 51.31 LIG 0.14  A 
ATOM     21 NE2  HIS F   2      -1.085  32.206 -16.529  1.00 51.32 LIG-0.25  NA
ATOM     22  CE1 HIS F   2      -2.271  32.538 -17.007  1.00 50.87 LIG 0.23  A 
ATOM     23 ND1  HIS F   2      -2.186  32.604 -18.324  1.00 50.82 LIG-0.24  NA
ENDBRANCH 18 19
ENDBRANCH 1 18
TORSDOF 8
ENDMDL
MODEL 21
USER: ADFR SOLUTION from run 43
USER: SCORE 7.362551 LL:  -0.921 LR:  -7.023 RR:   0.000 FEB:  -4.636
USER: RMSD 7.597344
USER: SEED 42
USER: STATUS no improvement in best in 29 clusters for 5 generations
USER: GENES 10
USER: genes 0 Translation |==|  0.60314 0.76507 0.31717
USER: genes 1 Rotation |==|  0.42527 0.55106 0.00970 0.53759
USER: genes 2 Torsion [C]-CA--N-[C] |==|  0.16090
USER: genes 3 Torsion [N]-C--CA-[N] |==|  0.01468
USER: genes 4 Torsion [C]-CA--N-[H3] |==|  0.95546
USER: genes 5 Torsion [N]-CA--C-[N] |==|  0.65866
USER: genes 6 Torsion [C]-N--CA-[C] |==|  0.86354
USER: genes 7 Torsion [N]-CA--C-[O] |==|  0.40872
USER: genes 8 Torsion [N]-CA--CB-[CG] |==|  0.77441
USER: genes 9 Torsion [CA]-CB--CG-[CD2] |==|  0.12750
ROOT
ATOM      1  CA  HIS F   2       0.107  34.090 -22.082  1.00 49.99 LIG 0.18  C 
ENDROOT
BRANCH 1 2
ATOM      2  N   HIS F   2      -0.371  33.987 -23.461  1.00 49.83 LIG-0.35  N 
ATOM      3  C   GLY F   1      -0.484  32.819 -24.090  1.00 49.82 LIG 0.24  C 
ATOM      4 O    GLY F   1      -0.143  31.743 -23.590  1.00 49.53 LIG-0.27  OA
ATOM      5 H    HIS F   2      -0.570  34.742 -23.821  1.00 49.83 LIG 0.16  HD
BRANCH 3 6
ATOM      6  CA  GLY F   1      -1.064  32.874 -25.494  1.00 49.90 LIG 0.33  C 
BRANCH 6 7
ATOM      7  N   GLY F   1      -1.297  34.266 -25.980  1.00 49.95 LIG-0.07  N 
ATOM      8 H3   GLY F   1      -1.277  34.829 -25.291  1.00 49.95 LIG 0.27  HD
ATOM      9 H1   GLY F   1      -0.661  34.488 -26.562  1.00 49.95 LIG 0.27  HD
ATOM     10 H2   GLY F   1      -2.092  34.313 -26.377  1.00 49.95 LIG 0.27  HD
ENDBRANCH 6 7
ENDBRANCH 3 6
ENDBRANCH 1 2
BRANCH 1 11
ATOM     11  C   HIS F   2       1.502  33.483 -21.939  1.00 50.00 LIG 0.24  C 
ATOM     12 O    HIS F   2       2.444  33.898 -22.618  1.00 49.82 LIG-0.27  OA
ATOM     13  N   GLY F   3       1.622  32.506 -21.043  1.00 50.02 LIG-0.35  N 
ATOM     14 H    GLY F   3       0.964  32.195 -20.584  1.00 50.02 LIG 0.16  HD
BRANCH 13 15
ATOM     15  CA  GLY F   3       2.902  31.870 -20.759  1.00 50.20 LIG 0.21  C 
BRANCH 15 16
ATOM     16  C   GLY F   3       3.632  31.441 -22.017  1.00 50.42 LIG 0.21  C 
ATOM     17 O    GLY F   3       4.862  31.460 -22.067  1.00 50.69 LIG-0.29  OA
ENDBRANCH 15 16
ENDBRANCH 13 15
ENDBRANCH 1 11
BRANCH 1 18
ATOM     18  CB  HIS F   2      -0.872  33.419 -21.117  1.00 49.99 LIG 0.10  C 
BRANCH 18 19
ATOM     19  CG  HIS F   2      -2.046  34.275 -20.754  1.00 50.63 LIG 0.06  A 
ATOM     20  CD2 HIS F   2      -2.869  35.035 -21.519  1.00 51.31 LIG 0.14  A 
ATOM     21 NE2  HIS F   2      -3.792  35.608 -20.676  1.00 51.32 LIG-0.25  NA
ATOM     22  CE1 HIS F   2      -3.541  35.221 -19.438  1.00 50.87 LIG 0.23  A 
ATOM     23 ND1  HIS F   2      -2.494  34.415 -19.457  1.00 50.82 LIG-0.24  NA
ENDBRANCH 18 19
ENDBRANCH 1 18
TORSDOF 8
ENDMDL
MODEL 22
USER: ADFR SOLUTION from run 5
USER: SCORE 7.659219 LL:  -1.134 LR:  -7.021 RR:   0.000 FEB:  -4.634
USER: RMSD 6.608438
USER: SEED 709239
USER: STATUS no improvement in best in 24 clusters for 5 generations
USER: GENES 10
USER: genes 0 Translation |==|  0.79753 0.47337 0.66525
USER: genes 1 Rotation |==|  0.96803 0.38067 0.37588 0.53614
USER: genes 2 Torsion [C]-CA--N-[C] |==|  0.56113
USER: genes 3 Torsion [N]-C--CA-[N] |==|  0.95574
USER: genes 4 Torsion [C]-CA--N-[H3] |==|  0.51340
USER: genes 5 Torsion [N]-CA--C-[N] |==|  0.28702
USER: genes 6 Torsion [C]-N--CA-[C] |==|  0.67364
USER: genes 7 Torsion [N]-CA--C-[O] |==|  0.94783
USER: genes 8 Torsion [N]-CA--CB-[CG] |==|  0.61572
USER: genes 9 Torsion [CA]-CB--CG-[CD2] |==|  0.32152
ROOT
ATOM      1  CA  HIS F   2       3.460  30.371 -16.338  1.00 49.99 LIG 0.18  C 
ENDROOT
BRANCH 1 2
ATOM      2  N   HIS F   2       4.091  30.045 -15.058  1.00 49.83 LIG-0.35  N 
ATOM      3  C   GLY F   1       5.325  30.438 -14.752  1.00 49.82 LIG 0.24  C 
ATOM      4 O    GLY F   1       6.055  31.052 -15.534  1.00 49.53 LIG-0.27  OA
ATOM      5 H    HIS F   2       3.594  29.582 -14.531  1.00 49.83 LIG 0.16  HD
BRANCH 3 6
ATOM      6  CA  GLY F   1       5.808  30.081 -13.356  1.00 49.90 LIG 0.33  C 
BRANCH 6 7
ATOM      7  N   GLY F   1       4.703  29.685 -12.434  1.00 49.95 LIG-0.07  N 
ATOM      8 H3   GLY F   1       5.031  29.555 -11.616  1.00 49.95 LIG 0.27  HD
ATOM      9 H1   GLY F   1       4.091  30.331 -12.408  1.00 49.95 LIG 0.27  HD
ATOM     10 H2   GLY F   1       4.328  28.933 -12.725  1.00 49.95 LIG 0.27  HD
ENDBRANCH 6 7
ENDBRANCH 3 6
ENDBRANCH 1 2
BRANCH 1 11
ATOM     11  C   HIS F   2       1.938  30.294 -16.234  1.00 50.00 LIG 0.24  C 
ATOM     12 O    HIS F   2       1.360  29.205 -16.214  1.00 49.82 LIG-0.27  OA
ATOM     13  N   GLY F   3       1.301  31.460 -16.157  1.00 50.02 LIG-0.35  N 
ATOM     14 H    GLY F   3       1.696  32.223 -16.195  1.00 50.02 LIG 0.16  HD
BRANCH 13 15
ATOM     15  CA  GLY F   3      -0.145  31.543 -15.998  1.00 50.20 LIG 0.21  C 
BRANCH 15 16
ATOM     16  C   GLY F   3      -0.821  32.229 -17.169  1.00 50.42 LIG 0.21  C 
ATOM     17 O    GLY F   3      -0.175  32.942 -17.938  1.00 50.69 LIG-0.29  OA
ENDBRANCH 15 16
ENDBRANCH 13 15
ENDBRANCH 1 11
BRANCH 1 18
ATOM     18  CB  HIS F   2       3.971  29.445 -17.444  1.00 49.99 LIG 0.10  C 
BRANCH 18 19
ATOM     19  CG  HIS F   2       4.244  30.145 -18.740  1.00 50.63 LIG 0.06  A 
ATOM     20  CD2 HIS F   2       5.396  30.337 -19.427  1.00 51.31 LIG 0.14  A 
ATOM     21 NE2  HIS F   2       5.078  31.039 -20.566  1.00 51.32 LIG-0.25  NA
ATOM     22  CE1 HIS F   2       3.778  31.276 -20.574  1.00 50.87 LIG 0.23  A 
ATOM     23 ND1  HIS F   2       3.251  30.746 -19.485  1.00 50.82 LIG-0.24  NA
ENDBRANCH 18 19
ENDBRANCH 1 18
TORSDOF 8
ENDMDL
MODEL 23
USER: ADFR SOLUTION from run 163
USER: SCORE 8.089296 LL:  -1.213 LR:  -6.991 RR:   0.000 FEB:  -4.604
USER: RMSD 6.912401
USER: SEED 162
USER: STATUS no improvement in best in 27 clusters for 5 generations
USER: GENES 10
USER: genes 0 Translation |==|  0.64040 0.69876 0.42318
USER: genes 1 Rotation |==|  0.64403 0.52809 0.95918 0.63273
USER: genes 2 Torsion [C]-CA--N-[C] |==|  0.70166
USER: genes 3 Torsion [N]-C--CA-[N] |==|  0.40236
USER: genes 4 Torsion [C]-CA--N-[H3] |==|  0.56030
USER: genes 5 Torsion [N]-CA--C-[N] |==|  0.41876
USER: genes 6 Torsion [C]-N--CA-[C] |==|  0.38578
USER: genes 7 Torsion [N]-CA--C-[O] |==|  0.78158
USER: genes 8 Torsion [N]-CA--CB-[CG] |==|  0.99978
USER: genes 9 Torsion [CA]-CB--CG-[CD2] |==|  0.30789
ROOT
ATOM      1  CA  HIS F   2       0.750  33.244 -20.333  1.00 49.99 LIG 0.18  C 
ENDROOT
BRANCH 1 2
ATOM      2  N   HIS F   2      -0.263  33.061 -21.373  1.00 49.83 LIG-0.35  N 
ATOM      3  C   GLY F   1      -0.183  33.661 -22.558  1.00 49.82 LIG 0.24  C 
ATOM      4 O    GLY F   1       0.710  34.460 -22.855  1.00 49.53 LIG-0.27  OA
ATOM      5 H    HIS F   2      -0.905  32.535 -21.149  1.00 49.83 LIG 0.16  HD
BRANCH 3 6
ATOM      6  CA  GLY F   1      -1.275  33.311 -23.555  1.00 49.90 LIG 0.33  C 
BRANCH 6 7
ATOM      7  N   GLY F   1      -1.672  34.460 -24.422  1.00 49.95 LIG-0.07  N 
ATOM      8 H3   GLY F   1      -2.488  34.318 -24.748  1.00 49.95 LIG 0.27  HD
ATOM      9 H1   GLY F   1      -1.672  35.209 -23.940  1.00 49.95 LIG 0.27  HD
ATOM     10 H2   GLY F   1      -1.094  34.540 -25.093  1.00 49.95 LIG 0.27  HD
ENDBRANCH 6 7
ENDBRANCH 3 6
ENDBRANCH 1 2
BRANCH 1 11
ATOM     11  C   HIS F   2       1.608  31.990 -20.177  1.00 50.00 LIG 0.24  C 
ATOM     12 O    HIS F   2       1.149  30.874 -20.435  1.00 49.82 LIG-0.27  OA
ATOM     13  N   GLY F   3       2.857  32.188 -19.763  1.00 50.02 LIG-0.35  N 
ATOM     14 H    GLY F   3       3.176  32.960 -19.557  1.00 50.02 LIG 0.16  HD
BRANCH 13 15
ATOM     15  CA  GLY F   3       3.808  31.092 -19.621  1.00 50.20 LIG 0.21  C 
BRANCH 15 16
ATOM     16  C   GLY F   3       5.195  31.457 -20.113  1.00 50.42 LIG 0.21  C 
ATOM     17 O    GLY F   3       5.453  31.460 -21.317  1.00 50.69 LIG-0.29  OA
ENDBRANCH 15 16
ENDBRANCH 13 15
ENDBRANCH 1 11
BRANCH 1 18
ATOM     18  CB  HIS F   2       0.097  33.618 -19.000  1.00 49.99 LIG 0.10  C 
BRANCH 18 19
ATOM     19  CG  HIS F   2      -1.397  33.710 -19.065  1.00 50.63 LIG 0.06  A 
ATOM     20  CD2 HIS F   2      -2.365  32.929 -18.526  1.00 51.31 LIG 0.14  A 
ATOM     21 NE2  HIS F   2      -3.574  33.473 -18.889  1.00 51.32 LIG-0.25  NA
ATOM     22  CE1 HIS F   2      -3.357  34.546 -19.630  1.00 50.87 LIG 0.23  A 
ATOM     23 ND1  HIS F   2      -2.052  34.712 -19.750  1.00 50.82 LIG-0.24  NA
ENDBRANCH 18 19
ENDBRANCH 1 18
TORSDOF 8
ENDMDL
MODEL 24
USER: ADFR SOLUTION from run 41
USER: SCORE 7.885227 LL:  -0.994 LR:  -6.977 RR:   0.000 FEB:  -4.590
USER: RMSD 8.483348
USER: SEED 40
USER: STATUS no improvement in best in 24 clusters for 5 generations
USER: GENES 10
USER: genes 0 Translation |==|  0.68280 0.72060 0.26149
USER: genes 1 Rotation |==|  0.29941 0.62600 0.06223 0.54741
USER: genes 2 Torsion [C]-CA--N-[C] |==|  0.16795
USER: genes 3 Torsion [N]-C--CA-[N] |==|  0.11204
USER: genes 4 Torsion [C]-CA--N-[H3] |==|  0.81801
USER: genes 5 Torsion [N]-CA--C-[N] |==|  0.08472
USER: genes 6 Torsion [C]-N--CA-[C] |==|  0.81835
USER: genes 7 Torsion [N]-CA--C-[O] |==|  0.17554
USER: genes 8 Torsion [N]-CA--CB-[CG] |==|  0.77621
USER: genes 9 Torsion [CA]-CB--CG-[CD2] |==|  0.15080
ROOT
ATOM      1  CA  HIS F   2       1.481  33.523 -23.000  1.00 49.99 LIG 0.18  C 
ENDROOT
BRANCH 1 2
ATOM      2  N   HIS F   2       0.347  33.708 -23.906  1.00 49.83 LIG-0.35  N 
ATOM      3  C   GLY F   1      -0.133  32.720 -24.658  1.00 49.82 LIG 0.24  C 
ATOM      4 O    GLY F   1       0.368  31.593 -24.698  1.00 49.53 LIG-0.27  OA
ATOM      5 H    HIS F   2       0.025  34.505 -23.907  1.00 49.83 LIG 0.16  HD
BRANCH 3 6
ATOM      6  CA  GLY F   1      -1.359  33.055 -25.492  1.00 49.90 LIG 0.33  C 
BRANCH 6 7
ATOM      7  N   GLY F   1      -1.299  34.414 -26.106  1.00 49.95 LIG-0.07  N 
ATOM      8 H3   GLY F   1      -1.315  35.031 -25.465  1.00 49.95 LIG 0.27  HD
ATOM      9 H1   GLY F   1      -0.547  34.495 -26.576  1.00 49.95 LIG 0.27  HD
ATOM     10 H2   GLY F   1      -1.998  34.528 -26.645  1.00 49.95 LIG 0.27  HD
ENDBRANCH 6 7
ENDBRANCH 3 6
ENDBRANCH 1 2
BRANCH 1 11
ATOM     11  C   HIS F   2       2.730  33.093 -23.768  1.00 50.00 LIG 0.24  C 
ATOM     12 O    HIS F   2       3.577  32.366 -23.242  1.00 49.82 LIG-0.27  OA
ATOM     13  N   GLY F   3       2.828  33.542 -25.017  1.00 50.02 LIG-0.35  N 
ATOM     14 H    GLY F   3       2.254  34.069 -25.382  1.00 50.02 LIG 0.16  HD
BRANCH 13 15
ATOM     15  CA  GLY F   3       3.936  33.171 -25.888  1.00 50.20 LIG 0.21  C 
BRANCH 15 16
ATOM     16  C   GLY F   3       5.267  33.703 -25.397  1.00 50.42 LIG 0.21  C 
ATOM     17 O    GLY F   3       5.731  33.335 -24.317  1.00 50.69 LIG-0.29  OA
ENDBRANCH 15 16
ENDBRANCH 13 15
ENDBRANCH 1 11
BRANCH 1 18
ATOM     18  CB  HIS F   2       1.143  32.503 -21.911  1.00 49.99 LIG 0.10  C 
BRANCH 18 19
ATOM     19  CG  HIS F   2       0.339  33.071 -20.782  1.00 50.63 LIG 0.06  A 
ATOM     20  CD2 HIS F   2      -0.836  33.747 -20.772  1.00 51.31 LIG 0.14  A 
ATOM     21 NE2  HIS F   2      -1.133  34.027 -19.459  1.00 51.32 LIG-0.25  NA
ATOM     22  CE1 HIS F   2      -0.172  33.546 -18.690  1.00 50.87 LIG 0.23  A 
ATOM     23 ND1  HIS F   2       0.728  32.963 -19.463  1.00 50.82 LIG-0.24  NA
ENDBRANCH 18 19
ENDBRANCH 1 18
TORSDOF 8
ENDMDL
MODEL 25
USER: ADFR SOLUTION from run 79
USER: SCORE 8.132114 LL:  -1.164 LR:  -6.974 RR:   0.000 FEB:  -4.588
USER: RMSD 7.691638
USER: SEED 78
USER: STATUS no improvement in best in 18 clusters for 5 generations
USER: GENES 10
USER: genes 0 Translation |==|  0.68233 0.69321 0.36072
USER: genes 1 Rotation |==|  0.52783 0.48976 0.98505 0.61767
USER: genes 2 Torsion [C]-CA--N-[C] |==|  0.81226
USER: genes 3 Torsion [N]-C--CA-[N] |==|  0.10164
USER: genes 4 Torsion [C]-CA--N-[H3] |==|  0.03389
USER: genes 5 Torsion [N]-CA--C-[N] |==|  0.40982
USER: genes 6 Torsion [C]-N--CA-[C] |==|  0.27232
USER: genes 7 Torsion [N]-CA--C-[O] |==|  0.91988
USER: genes 8 Torsion [N]-CA--CB-[CG] |==|  0.93118
USER: genes 9 Torsion [CA]-CB--CG-[CD2] |==|  0.41762
ROOT
ATOM      1  CA  HIS F   2       1.473  33.173 -21.363  1.00 49.99 LIG 0.18  C 
ENDROOT
BRANCH 1 2
ATOM      2  N   HIS F   2       1.096  32.995 -22.766  1.00 49.83 LIG-0.35  N 
ATOM      3  C   GLY F   1       1.995  32.962 -23.747  1.00 49.82 LIG 0.24  C 
ATOM      4 O    GLY F   1       3.203  33.136 -23.565  1.00 49.53 LIG-0.27  OA
ATOM      5 H    HIS F   2       0.250  32.914 -22.894  1.00 49.83 LIG 0.16  HD
BRANCH 3 6
ATOM      6  CA  GLY F   1       1.449  32.697 -25.140  1.00 49.90 LIG 0.33  C 
BRANCH 6 7
ATOM      7  N   GLY F   1       0.122  33.335 -25.383  1.00 49.95 LIG-0.07  N 
ATOM      8 H3   GLY F   1      -0.053  33.914 -24.730  1.00 49.95 LIG 0.27  HD
ATOM      9 H1   GLY F   1       0.137  33.764 -26.163  1.00 49.95 LIG 0.27  HD
ATOM     10 H2   GLY F   1      -0.510  32.709 -25.401  1.00 49.95 LIG 0.27  HD
ENDBRANCH 6 7
ENDBRANCH 3 6
ENDBRANCH 1 2
BRANCH 1 11
ATOM     11  C   HIS F   2       2.242  31.959 -20.844  1.00 50.00 LIG 0.24  C 
ATOM     12 O    HIS F   2       2.003  30.829 -21.275  1.00 49.82 LIG-0.27  OA
ATOM     13  N   GLY F   3       3.171  32.209 -19.924  1.00 50.02 LIG-0.35  N 
ATOM     14 H    GLY F   3       3.326  32.991 -19.602  1.00 50.02 LIG 0.16  HD
BRANCH 13 15
ATOM     15  CA  GLY F   3       4.020  31.158 -19.378  1.00 50.20 LIG 0.21  C 
BRANCH 15 16
ATOM     16  C   GLY F   3       5.379  31.100 -20.047  1.00 50.42 LIG 0.21  C 
ATOM     17 O    GLY F   3       5.518  31.456 -21.218  1.00 50.69 LIG-0.29  OA
ENDBRANCH 15 16
ENDBRANCH 13 15
ENDBRANCH 1 11
BRANCH 1 18
ATOM     18  CB  HIS F   2       0.239  33.438 -20.499  1.00 49.99 LIG 0.10  C 
BRANCH 18 19
ATOM     19  CG  HIS F   2      -0.913  34.025 -21.255  1.00 50.63 LIG 0.06  A 
ATOM     20  CD2 HIS F   2      -2.252  33.927 -21.065  1.00 51.31 LIG 0.14  A 
ATOM     21 NE2  HIS F   2      -2.858  34.676 -22.045  1.00 51.32 LIG-0.25  NA
ATOM     22  CE1 HIS F   2      -1.926  35.210 -22.815  1.00 50.87 LIG 0.23  A 
ATOM     23 ND1  HIS F   2      -0.744  34.835 -22.359  1.00 50.82 LIG-0.24  NA
ENDBRANCH 18 19
ENDBRANCH 1 18
TORSDOF 8
ENDMDL
MODEL 26
USER: ADFR SOLUTION from run 50
USER: SCORE 8.335336 LL:  -1.378 LR:  -6.962 RR:   0.000 FEB:  -4.576
USER: RMSD 7.462554
USER: SEED 49
USER: STATUS no improvement in best in 25 clusters for 5 generations
USER: GENES 10
USER: genes 0 Translation |==|  0.69545 0.70780 0.29677
USER: genes 1 Rotation |==|  0.44068 0.48200 0.97957 0.62717
USER: genes 2 Torsion [C]-CA--N-[C] |==|  0.83989
USER: genes 3 Torsion [N]-C--CA-[N] |==|  0.21877
USER: genes 4 Torsion [C]-CA--N-[H3] |==|  0.33149
USER: genes 5 Torsion [N]-CA--C-[N] |==|  0.37643
USER: genes 6 Torsion [C]-N--CA-[C] |==|  0.28209
USER: genes 7 Torsion [N]-CA--C-[O] |==|  0.95047
USER: genes 8 Torsion [N]-CA--CB-[CG] |==|  0.40323
USER: genes 9 Torsion [CA]-CB--CG-[CD2] |==|  0.69270
ROOT
ATOM      1  CA  HIS F   2       1.699  33.359 -22.418  1.00 49.99 LIG 0.18  C 
ENDROOT
BRANCH 1 2
ATOM      2  N   HIS F   2       1.807  33.110 -23.856  1.00 49.83 LIG-0.35  N 
ATOM      3  C   GLY F   1       2.959  32.789 -24.440  1.00 49.82 LIG 0.24  C 
ATOM      4 O    GLY F   1       4.033  32.733 -23.834  1.00 49.53 LIG-0.27  OA
ATOM      5 H    HIS F   2       1.064  33.190 -24.283  1.00 49.83 LIG 0.16  HD
BRANCH 3 6
ATOM      6  CA  GLY F   1       2.890  32.492 -25.928  1.00 49.90 LIG 0.33  C 
BRANCH 6 7
ATOM      7  N   GLY F   1       2.825  33.721 -26.772  1.00 49.95 LIG-0.07  N 
ATOM      8 H3   GLY F   1       3.530  33.746 -27.315  1.00 49.95 LIG 0.27  HD
ATOM      9 H1   GLY F   1       2.078  33.710 -27.256  1.00 49.95 LIG 0.27  HD
ATOM     10 H2   GLY F   1       2.828  34.441 -26.249  1.00 49.95 LIG 0.27  HD
ENDBRANCH 6 7
ENDBRANCH 3 6
ENDBRANCH 1 2
BRANCH 1 11
ATOM     11  C   HIS F   2       2.175  32.149 -21.616  1.00 50.00 LIG 0.24  C 
ATOM     12 O    HIS F   2       1.839  31.007 -21.938  1.00 49.82 LIG-0.27  OA
ATOM     13  N   GLY F   3       2.967  32.413 -20.579  1.00 50.02 LIG-0.35  N 
ATOM     14 H    GLY F   3       3.184  33.208 -20.335  1.00 50.02 LIG 0.16  HD
BRANCH 13 15
ATOM     15  CA  GLY F   3       3.541  31.357 -19.756  1.00 50.20 LIG 0.21  C 
BRANCH 15 16
ATOM     16  C   GLY F   3       4.993  31.080 -20.093  1.00 50.42 LIG 0.21  C 
ATOM     17 O    GLY F   3       5.474  31.460 -21.161  1.00 50.69 LIG-0.29  OA
ENDBRANCH 15 16
ENDBRANCH 13 15
ENDBRANCH 1 11
BRANCH 1 18
ATOM     18  CB  HIS F   2       0.264  33.727 -22.037  1.00 49.99 LIG 0.10  C 
BRANCH 18 19
ATOM     19  CG  HIS F   2      -0.153  33.218 -20.692  1.00 50.63 LIG 0.06  A 
ATOM     20  CD2 HIS F   2      -1.039  32.255 -20.335  1.00 51.31 LIG 0.14  A 
ATOM     21 NE2  HIS F   2      -1.029  32.184 -18.962  1.00 51.32 LIG-0.25  NA
ATOM     22  CE1 HIS F   2      -0.174  33.074 -18.492  1.00 50.87 LIG 0.23  A 
ATOM     23 ND1  HIS F   2       0.370  33.710 -19.515  1.00 50.82 LIG-0.24  NA
ENDBRANCH 18 19
ENDBRANCH 1 18
TORSDOF 8
ENDMDL
MODEL 27
USER: ADFR SOLUTION from run 53
USER: SCORE 8.137387 LL:  -1.323 LR:  -6.869 RR:   0.000 FEB:  -4.482
USER: RMSD 7.380298
USER: SEED 52
USER: STATUS no improvement in best in 16 clusters for 5 generations
USER: GENES 10
USER: genes 0 Translation |==|  0.75992 0.35287 0.63569
USER: genes 1 Rotation |==|  0.59084 0.03499 0.60102 0.62372
USER: genes 2 Torsion [C]-CA--N-[C] |==|  0.84819
USER: genes 3 Torsion [N]-C--CA-[N] |==|  0.18474
USER: genes 4 Torsion [C]-CA--N-[H3] |==|  0.68656
USER: genes 5 Torsion [N]-CA--C-[N] |==|  0.89151
USER: genes 6 Torsion [C]-N--CA-[C] |==|  0.81561
USER: genes 7 Torsion [N]-CA--C-[O] |==|  0.35964
USER: genes 8 Torsion [N]-CA--CB-[CG] |==|  0.14643
USER: genes 9 Torsion [CA]-CB--CG-[CD2] |==|  0.34749
ROOT
ATOM      1  CA  HIS F   2       2.812  28.834 -16.826  1.00 49.99 LIG 0.18  C 
ENDROOT
BRANCH 1 2
ATOM      2  N   HIS F   2       3.136  29.773 -15.752  1.00 49.83 LIG-0.35  N 
ATOM      3  C   GLY F   1       4.356  30.283 -15.595  1.00 49.82 LIG 0.24  C 
ATOM      4 O    GLY F   1       5.319  29.965 -16.298  1.00 49.53 LIG-0.27  OA
ATOM      5 H    HIS F   2       2.473  29.961 -15.238  1.00 49.83 LIG 0.16  HD
BRANCH 3 6
ATOM      6  CA  GLY F   1       4.512  31.299 -14.476  1.00 49.90 LIG 0.33  C 
BRANCH 6 7
ATOM      7  N   GLY F   1       4.328  30.710 -13.116  1.00 49.95 LIG-0.07  N 
ATOM      8 H3   GLY F   1       3.588  31.040 -12.748  1.00 49.95 LIG 0.27  HD
ATOM      9 H1   GLY F   1       4.256  29.825 -13.183  1.00 49.95 LIG 0.27  HD
ATOM     10 H2   GLY F   1       5.029  30.912 -12.607  1.00 49.95 LIG 0.27  HD
ENDBRANCH 6 7
ENDBRANCH 3 6
ENDBRANCH 1 2
BRANCH 1 11
ATOM     11  C   HIS F   2       3.186  29.413 -18.190  1.00 50.00 LIG 0.24  C 
ATOM     12 O    HIS F   2       3.667  28.695 -19.070  1.00 49.82 LIG-0.27  OA
ATOM     13  N   GLY F   3       2.949  30.712 -18.355  1.00 50.02 LIG-0.35  N 
ATOM     14 H    GLY F   3       2.637  31.223 -17.737  1.00 50.02 LIG 0.16  HD
BRANCH 13 15
ATOM     15  CA  GLY F   3       3.204  31.390 -19.619  1.00 50.20 LIG 0.21  C 
BRANCH 15 16
ATOM     16  C   GLY F   3       4.679  31.446 -19.964  1.00 50.42 LIG 0.21  C 
ATOM     17 O    GLY F   3       5.079  31.085 -21.072  1.00 50.69 LIG-0.29  OA
ENDBRANCH 15 16
ENDBRANCH 13 15
ENDBRANCH 1 11
BRANCH 1 18
ATOM     18  CB  HIS F   2       1.329  28.460 -16.790  1.00 49.99 LIG 0.10  C 
BRANCH 18 19
ATOM     19  CG  HIS F   2       0.408  29.641 -16.778  1.00 50.63 LIG 0.06  A 
ATOM     20  CD2 HIS F   2      -0.623  29.980 -17.591  1.00 51.31 LIG 0.14  A 
ATOM     21 NE2  HIS F   2      -1.137  31.166 -17.123  1.00 51.32 LIG-0.25  NA
ATOM     22  CE1 HIS F   2      -0.443  31.546 -16.064  1.00 50.87 LIG 0.23  A 
ATOM     23 ND1  HIS F   2       0.494  30.642 -15.834  1.00 50.82 LIG-0.24  NA
ENDBRANCH 18 19
ENDBRANCH 1 18
TORSDOF 8
ENDMDL
MODEL 28
USER: ADFR SOLUTION from run 25
USER: SCORE 7.745339 LL:  -1.328 LR:  -6.869 RR:   0.000 FEB:  -4.482
USER: RMSD 4.869366
USER: SEED 24
USER: STATUS no improvement in best in 18 clusters for 5 generations
USER: GENES 10
USER: genes 0 Translation |==|  0.62489 0.57936 0.42834
USER: genes 1 Rotation |==|  0.69016 0.62915 0.67838 0.90662
USER: genes 2 Torsion [C]-CA--N-[C] |==|  0.53334
USER: genes 3 Torsion [N]-C--CA-[N] |==|  0.36751
USER: genes 4 Torsion [C]-CA--N-[H3] |==|  0.95329
USER: genes 5 Torsion [N]-CA--C-[N] |==|  0.51598
USER: genes 6 Torsion [C]-N--CA-[C] |==|  0.46053
USER: genes 7 Torsion [N]-CA--C-[O] |==|  0.96675
USER: genes 8 Torsion [N]-CA--CB-[CG] |==|  0.61046
USER: genes 9 Torsion [CA]-CB--CG-[CD2] |==|  0.14265
ROOT
ATOM      1  CA  HIS F   2       0.482  31.722 -20.247  1.00 49.99 LIG 0.18  C 
ENDROOT
BRANCH 1 2
ATOM      2  N   HIS F   2      -0.580  32.565 -20.797  1.00 49.83 LIG-0.35  N 
ATOM      3  C   GLY F   1      -0.437  33.237 -21.938  1.00 49.82 LIG 0.24  C 
ATOM      4 O    GLY F   1       0.610  33.252 -22.590  1.00 49.53 LIG-0.27  OA
ATOM      5 H    HIS F   2      -1.294  32.586 -20.320  1.00 49.83 LIG 0.16  HD
BRANCH 3 6
ATOM      6  CA  GLY F   1      -1.657  34.010 -22.410  1.00 49.90 LIG 0.33  C 
BRANCH 6 7
ATOM      7  N   GLY F   1      -1.346  35.412 -22.815  1.00 49.95 LIG-0.07  N 
ATOM      8 H3   GLY F   1      -0.550  35.645 -22.490  1.00 49.95 LIG 0.27  HD
ATOM      9 H1   GLY F   1      -1.331  35.468 -23.703  1.00 49.95 LIG 0.27  HD
ATOM     10 H2   GLY F   1      -1.969  35.960 -22.494  1.00 49.95 LIG 0.27  HD
ENDBRANCH 6 7
ENDBRANCH 3 6
ENDBRANCH 1 2
BRANCH 1 11
ATOM     11  C   HIS F   2      -0.045  30.850 -19.109  1.00 50.00 LIG 0.24  C 
ATOM     12 O    HIS F   2      -1.248  30.826 -18.837  1.00 49.82 LIG-0.27  OA
ATOM     13  N   GLY F   3       0.866  30.130 -18.458  1.00 50.02 LIG-0.35  N 
ATOM     14 H    GLY F   3       1.709  30.161 -18.626  1.00 50.02 LIG 0.16  HD
BRANCH 13 15
ATOM     15  CA  GLY F   3       0.504  29.212 -17.386  1.00 50.20 LIG 0.21  C 
BRANCH 15 16
ATOM     16  C   GLY F   3       1.629  28.261 -17.029  1.00 50.42 LIG 0.21  C 
ATOM     17 O    GLY F   3       2.620  28.159 -17.753  1.00 50.69 LIG-0.29  OA
ENDBRANCH 15 16
ENDBRANCH 13 15
ENDBRANCH 1 11
BRANCH 1 18
ATOM     18  CB  HIS F   2       1.660  32.575 -19.771  1.00 49.99 LIG 0.10  C 
BRANCH 18 19
ATOM     19  CG  HIS F   2       2.999  31.981 -20.079  1.00 50.63 LIG 0.06  A 
ATOM     20  CD2 HIS F   2       3.523  31.507 -21.236  1.00 51.31 LIG 0.14  A 
ATOM     21 NE2  HIS F   2       4.802  31.085 -20.960  1.00 51.32 LIG-0.25  NA
ATOM     22  CE1 HIS F   2       5.053  31.285 -19.678  1.00 50.87 LIG 0.23  A 
ATOM     23 ND1  HIS F   2       3.983  31.826 -19.124  1.00 50.82 LIG-0.24  NA
ENDBRANCH 18 19
ENDBRANCH 1 18
TORSDOF 8
ENDMDL
MODEL 29
USER: ADFR SOLUTION from run 68
USER: SCORE 7.963613 LL:  -1.190 LR:  -6.864 RR:   0.000 FEB:  -4.477
USER: RMSD 5.921898
USER: SEED 67
USER: STATUS no improvement in best in 29 clusters for 5 generations
USER: GENES 10
USER: genes 0 Translation |==|  0.60853 0.71164 0.34263
USER: genes 1 Rotation |==|  0.67056 0.72513 0.51121 0.91243
USER: genes 2 Torsion [C]-CA--N-[C] |==|  0.64319
USER: genes 3 Torsion [N]-C--CA-[N] |==|  0.31369
USER: genes 4 Torsion [C]-CA--N-[H3] |==|  0.04962
USER: genes 5 Torsion [N]-CA--C-[N] |==|  0.43889
USER: genes 6 Torsion [C]-N--CA-[C] |==|  0.48271
USER: genes 7 Torsion [N]-CA--C-[O] |==|  0.07714
USER: genes 8 Torsion [N]-CA--CB-[CG] |==|  0.63596
USER: genes 9 Torsion [CA]-CB--CG-[CD2] |==|  0.02460
ROOT
ATOM      1  CA  HIS F   2       0.200  33.408 -21.662  1.00 49.99 LIG 0.18  C 
ENDROOT
BRANCH 1 2
ATOM      2  N   HIS F   2      -0.728  34.477 -22.033  1.00 49.83 LIG-0.35  N 
ATOM      3  C   GLY F   1      -1.663  34.315 -22.968  1.00 49.82 LIG 0.24  C 
ATOM      4 O    GLY F   1      -1.785  33.283 -23.634  1.00 49.53 LIG-0.27  OA
ATOM      5 H    HIS F   2      -0.615  35.208 -21.597  1.00 49.83 LIG 0.16  HD
BRANCH 3 6
ATOM      6  CA  GLY F   1      -2.594  35.496 -23.187  1.00 49.90 LIG 0.33  C 
BRANCH 6 7
ATOM      7  N   GLY F   1      -2.422  36.142 -24.521  1.00 49.95 LIG-0.07  N 
ATOM      8 H3   GLY F   1      -1.993  35.586 -25.068  1.00 49.95 LIG 0.27  HD
ATOM      9 H1   GLY F   1      -3.221  36.335 -24.863  1.00 49.95 LIG 0.27  HD
ATOM     10 H2   GLY F   1      -1.950  36.891 -24.430  1.00 49.95 LIG 0.27  HD
ENDBRANCH 6 7
ENDBRANCH 3 6
ENDBRANCH 1 2
BRANCH 1 11
ATOM     11  C   HIS F   2       0.209  33.193 -20.149  1.00 50.00 LIG 0.24  C 
ATOM     12 O    HIS F   2      -0.170  34.081 -19.382  1.00 49.82 LIG-0.27  OA
ATOM     13  N   GLY F   3       0.635  32.002 -19.734  1.00 50.02 LIG-0.35  N 
ATOM     14 H    GLY F   3       0.923  31.387 -20.262  1.00 50.02 LIG 0.16  HD
BRANCH 13 15
ATOM     15  CA  GLY F   3       0.647  31.633 -18.324  1.00 50.20 LIG 0.21  C 
BRANCH 15 16
ATOM     16  C   GLY F   3       1.029  30.182 -18.105  1.00 50.42 LIG 0.21  C 
ATOM     17 O    GLY F   3       1.751  29.594 -18.910  1.00 50.69 LIG-0.29  OA
ENDBRANCH 15 16
ENDBRANCH 13 15
ENDBRANCH 1 11
BRANCH 1 18
ATOM     18  CB  HIS F   2       1.610  33.715 -22.169  1.00 49.99 LIG 0.10  C 
BRANCH 18 19
ATOM     19  CG  HIS F   2       2.252  32.574 -22.896  1.00 50.63 LIG 0.06  A 
ATOM     20  CD2 HIS F   2       1.751  31.386 -23.316  1.00 51.31 LIG 0.14  A 
ATOM     21 NE2  HIS F   2       2.773  30.713 -23.943  1.00 51.32 LIG-0.25  NA
ATOM     22  CE1 HIS F   2       3.864  31.457 -23.904  1.00 50.87 LIG 0.23  A 
ATOM     23 ND1  HIS F   2       3.577  32.586 -23.280  1.00 50.82 LIG-0.24  NA
ENDBRANCH 18 19
ENDBRANCH 1 18
TORSDOF 8
ENDMDL
MODEL 30
USER: ADFR SOLUTION from run 21
USER: SCORE 7.622901 LL:  -1.047 LR:  -6.856 RR:   0.000 FEB:  -4.470
USER: RMSD 7.664036
USER: SEED 20
USER: STATUS no improvement in best in 21 clusters for 5 generations
USER: GENES 10
USER: genes 0 Translation |==|  0.57333 0.76471 0.35203
USER: genes 1 Rotation |==|  0.65893 0.32011 0.93832 0.51604
USER: genes 2 Torsion [C]-CA--N-[C] |==|  0.19103
USER: genes 3 Torsion [N]-C--CA-[N] |==|  0.15102
USER: genes 4 Torsion [C]-CA--N-[H3] |==|  0.81297
USER: genes 5 Torsion [N]-CA--C-[N] |==|  0.02824
USER: genes 6 Torsion [C]-N--CA-[C] |==|  0.79474
USER: genes 7 Torsion [N]-CA--C-[O] |==|  0.27571
USER: genes 8 Torsion [N]-CA--CB-[CG] |==|  0.84453
USER: genes 9 Torsion [CA]-CB--CG-[CD2] |==|  0.53815
ROOT
ATOM      1  CA  HIS F   2      -0.407  34.085 -21.507  1.00 49.99 LIG 0.18  C 
ENDROOT
BRANCH 1 2
ATOM      2  N   HIS F   2      -1.334  34.734 -22.435  1.00 49.83 LIG-0.35  N 
ATOM      3  C   GLY F   1      -2.178  34.043 -23.198  1.00 49.82 LIG 0.24  C 
ATOM      4 O    GLY F   1      -2.209  32.810 -23.230  1.00 49.53 LIG-0.27  OA
ATOM      5 H    HIS F   2      -1.282  35.592 -22.440  1.00 49.83 LIG 0.16  HD
BRANCH 3 6
ATOM      6  CA  GLY F   1      -3.125  34.867 -24.055  1.00 49.90 LIG 0.33  C 
BRANCH 6 7
ATOM      7  N   GLY F   1      -2.422  35.857 -24.923  1.00 49.95 LIG-0.07  N 
ATOM      8 H3   GLY F   1      -2.047  36.484 -24.415  1.00 49.95 LIG 0.27  HD
ATOM      9 H1   GLY F   1      -1.792  35.442 -25.396  1.00 49.95 LIG 0.27  HD
ATOM     10 H2   GLY F   1      -3.007  36.235 -25.477  1.00 49.95 LIG 0.27  HD
ENDBRANCH 6 7
ENDBRANCH 3 6
ENDBRANCH 1 2
BRANCH 1 11
ATOM     11  C   HIS F   2       0.677  33.318 -22.262  1.00 50.00 LIG 0.24  C 
ATOM     12 O    HIS F   2       1.434  32.546 -21.670  1.00 49.82 LIG-0.27  OA
ATOM     13  N   GLY F   3       0.733  33.532 -23.575  1.00 50.02 LIG-0.35  N 
ATOM     14 H    GLY F   3       0.224  34.087 -23.990  1.00 50.02 LIG 0.16  HD
BRANCH 13 15
ATOM     15  CA  GLY F   3       1.678  32.830 -24.434  1.00 50.20 LIG 0.21  C 
BRANCH 15 16
ATOM     16  C   GLY F   3       3.098  33.335 -24.271  1.00 50.42 LIG 0.21  C 
ATOM     17 O    GLY F   3       3.904  32.727 -23.565  1.00 50.69 LIG-0.29  OA
ENDBRANCH 15 16
ENDBRANCH 13 15
ENDBRANCH 1 11
BRANCH 1 18
ATOM     18  CB  HIS F   2      -1.158  33.154 -20.553  1.00 49.99 LIG 0.10  C 
BRANCH 18 19
ATOM     19  CG  HIS F   2      -2.250  33.831 -19.783  1.00 50.63 LIG 0.06  A 
ATOM     20  CD2 HIS F   2      -2.958  33.434 -18.697  1.00 51.31 LIG 0.14  A 
ATOM     21 NE2  HIS F   2      -3.834  34.447 -18.390  1.00 51.32 LIG-0.25  NA
ATOM     22  CE1 HIS F   2      -3.676  35.430 -19.260  1.00 50.87 LIG 0.23  A 
ATOM     23 ND1  HIS F   2      -2.724  35.084 -20.110  1.00 50.82 LIG-0.24  NA
ENDBRANCH 18 19
ENDBRANCH 1 18
TORSDOF 8
ENDMDL
MODEL 31
USER: ADFR SOLUTION from run 100
USER: SCORE 7.803569 LL:  -1.057 LR:  -6.860 RR:   0.000 FEB:  -4.474
USER: RMSD 4.771522
USER: SEED 99
USER: STATUS no improvement in best in 30 clusters for 5 generations
USER: GENES 10
USER: genes 0 Translation |==|  0.45442 0.44579 0.54103
USER: genes 1 Rotation |==|  0.96823 0.51033 0.60574 0.63953
USER: genes 2 Torsion [C]-CA--N-[C] |==|  0.71703
USER: genes 3 Torsion [N]-C--CA-[N] |==|  0.01691
USER: genes 4 Torsion [C]-CA--N-[H3] |==|  0.00529
USER: genes 5 Torsion [N]-CA--C-[N] |==|  0.44794
USER: genes 6 Torsion [C]-N--CA-[C] |==|  0.59922
USER: genes 7 Torsion [N]-CA--C-[O] |==|  0.36735
USER: genes 8 Torsion [N]-CA--CB-[CG] |==|  0.93287
USER: genes 9 Torsion [CA]-CB--CG-[CD2] |==|  0.38216
ROOT
ATOM      1  CA  HIS F   2      -2.458  30.019 -18.388  1.00 49.99 LIG 0.18  C 
ENDROOT
BRANCH 1 2
ATOM      2  N   HIS F   2      -2.985  30.465 -17.098  1.00 49.83 LIG-0.35  N 
ATOM      3  C   GLY F   1      -3.709  31.575 -16.969  1.00 49.82 LIG 0.24  C 
ATOM      4 O    GLY F   1      -3.944  32.343 -17.906  1.00 49.53 LIG-0.27  OA
ATOM      5 H    HIS F   2      -2.785  29.949 -16.440  1.00 49.83 LIG 0.16  HD
BRANCH 3 6
ATOM      6  CA  GLY F   1      -4.242  31.862 -15.576  1.00 49.90 LIG 0.33  C 
BRANCH 6 7
ATOM      7  N   GLY F   1      -3.737  30.910 -14.544  1.00 49.95 LIG-0.07  N 
ATOM      8 H3   GLY F   1      -3.172  30.335 -14.922  1.00 49.95 LIG 0.27  HD
ATOM      9 H1   GLY F   1      -3.315  31.362 -13.903  1.00 49.95 LIG 0.27  HD
ATOM     10 H2   GLY F   1      -4.421  30.464 -14.190  1.00 49.95 LIG 0.27  HD
ENDBRANCH 6 7
ENDBRANCH 3 6
ENDBRANCH 1 2
BRANCH 1 11
ATOM     11  C   HIS F   2      -3.305  28.884 -18.962  1.00 50.00 LIG 0.24  C 
ATOM     12 O    HIS F   2      -4.066  28.236 -18.240  1.00 49.82 LIG-0.27  OA
ATOM     13  N   GLY F   3      -3.172  28.662 -20.268  1.00 50.02 LIG-0.35  N 
ATOM     14 H    GLY F   3      -2.625  29.094 -20.772  1.00 50.02 LIG 0.16  HD
BRANCH 13 15
ATOM     15  CA  GLY F   3      -3.956  27.650 -20.964  1.00 50.20 LIG 0.21  C 
BRANCH 15 16
ATOM     16  C   GLY F   3      -3.172  26.962 -22.064  1.00 50.42 LIG 0.21  C 
ATOM     17 O    GLY F   3      -3.172  25.734 -22.161  1.00 50.69 LIG-0.29  OA
ENDBRANCH 15 16
ENDBRANCH 13 15
ENDBRANCH 1 11
BRANCH 1 18
ATOM     18  CB  HIS F   2      -0.997  29.585 -18.256  1.00 49.99 LIG 0.10  C 
BRANCH 18 19
ATOM     19  CG  HIS F   2      -0.283  30.211 -17.098  1.00 50.63 LIG 0.06  A 
ATOM     20  CD2 HIS F   2       0.578  29.690 -16.190  1.00 51.31 LIG 0.14  A 
ATOM     21 NE2  HIS F   2       0.945  30.710 -15.345  1.00 51.32 LIG-0.25  NA
ATOM     22  CE1 HIS F   2       0.326  31.817 -15.716  1.00 50.87 LIG 0.23  A 
ATOM     23 ND1  HIS F   2      -0.420  31.544 -16.772  1.00 50.82 LIG-0.24  NA
ENDBRANCH 18 19
ENDBRANCH 1 18
TORSDOF 8
ENDMDL
MODEL 32
USER: ADFR SOLUTION from run 83
USER: SCORE 7.978130 LL:  -1.295 LR:  -6.846 RR:   0.000 FEB:  -4.460
USER: RMSD 6.163654
USER: SEED 82
USER: STATUS no improvement in best in 23 clusters for 5 generations
USER: GENES 10
USER: genes 0 Translation |==|  0.69609 0.55156 0.44491
USER: genes 1 Rotation |==|  0.09544 0.62314 0.28855 0.66266
USER: genes 2 Torsion [C]-CA--N-[C] |==|  0.64457
USER: genes 3 Torsion [N]-C--CA-[N] |==|  0.37902
USER: genes 4 Torsion [C]-CA--N-[H3] |==|  0.32284
USER: genes 5 Torsion [N]-CA--C-[N] |==|  0.35761
USER: genes 6 Torsion [C]-N--CA-[C] |==|  0.82378
USER: genes 7 Torsion [N]-CA--C-[O] |==|  0.91445
USER: genes 8 Torsion [N]-CA--CB-[CG] |==|  0.88478
USER: genes 9 Torsion [CA]-CB--CG-[CD2] |==|  0.68691
ROOT
ATOM      1  CA  HIS F   2       1.711  31.367 -19.974  1.00 49.99 LIG 0.18  C 
ENDROOT
BRANCH 1 2
ATOM      2  N   HIS F   2       0.515  30.624 -19.576  1.00 49.83 LIG-0.35  N 
ATOM      3  C   GLY F   1      -0.150  30.892 -18.454  1.00 49.82 LIG 0.24  C 
ATOM      4 O    GLY F   1       0.214  31.741 -17.636  1.00 49.53 LIG-0.27  OA
ATOM      5 H    HIS F   2       0.286  30.005 -20.127  1.00 49.83 LIG 0.16  HD
BRANCH 3 6
ATOM      6  CA  GLY F   1      -1.412  30.078 -18.219  1.00 49.90 LIG 0.33  C 
BRANCH 6 7
ATOM      7  N   GLY F   1      -1.545  29.591 -16.815  1.00 49.95 LIG-0.07  N 
ATOM      8 H3   GLY F   1      -2.264  29.958 -16.440  1.00 49.95 LIG 0.27  HD
ATOM      9 H1   GLY F   1      -1.631  28.704 -16.815  1.00 49.95 LIG 0.27  HD
ATOM     10 H2   GLY F   1      -0.820  29.818 -16.351  1.00 49.95 LIG 0.27  HD
ENDBRANCH 6 7
ENDBRANCH 3 6
ENDBRANCH 1 2
BRANCH 1 11
ATOM     11  C   HIS F   2       1.580  31.889 -21.404  1.00 50.00 LIG 0.24  C 
ATOM     12 O    HIS F   2       1.253  31.135 -22.324  1.00 49.82 LIG-0.27  OA
ATOM     13  N   GLY F   3       1.827  33.186 -21.575  1.00 50.02 LIG-0.35  N 
ATOM     14 H    GLY F   3       2.079  33.711 -20.943  1.00 50.02 LIG 0.16  HD
BRANCH 13 15
ATOM     15  CA  GLY F   3       1.689  33.835 -22.872  1.00 50.20 LIG 0.21  C 
BRANCH 15 16
ATOM     16  C   GLY F   3       2.655  33.288 -23.904  1.00 50.42 LIG 0.21  C 
ATOM     17 O    GLY F   3       3.758  32.856 -23.565  1.00 50.69 LIG-0.29  OA
ENDBRANCH 15 16
ENDBRANCH 13 15
ENDBRANCH 1 11
BRANCH 1 18
ATOM     18  CB  HIS F   2       2.962  30.499 -19.831  1.00 49.99 LIG 0.10  C 
BRANCH 18 19
ATOM     19  CG  HIS F   2       2.981  29.667 -18.586  1.00 50.63 LIG 0.06  A 
ATOM     20  CD2 HIS F   2       3.773  29.720 -17.487  1.00 51.31 LIG 0.14  A 
ATOM     21 NE2  HIS F   2       3.352  28.728 -16.634  1.00 51.32 LIG-0.25  NA
ATOM     22  CE1 HIS F   2       2.341  28.083 -17.191  1.00 50.87 LIG 0.23  A 
ATOM     23 ND1  HIS F   2       2.096  28.632 -18.368  1.00 50.82 LIG-0.24  NA
ENDBRANCH 18 19
ENDBRANCH 1 18
TORSDOF 8
ENDMDL
MODEL 33
USER: ADFR SOLUTION from run 157
USER: SCORE 7.829166 LL:  -1.084 LR:  -6.854 RR:   0.000 FEB:  -4.467
USER: RMSD 7.982473
USER: SEED 156
USER: STATUS no improvement in best in 40 clusters for 5 generations
USER: GENES 10
USER: genes 0 Translation |==|  0.46473 0.80887 0.34756
USER: genes 1 Rotation |==|  0.45208 0.53994 0.00829 0.56578
USER: genes 2 Torsion [C]-CA--N-[C] |==|  0.68268
USER: genes 3 Torsion [N]-C--CA-[N] |==|  0.66075
USER: genes 4 Torsion [C]-CA--N-[H3] |==|  0.24984
USER: genes 5 Torsion [N]-CA--C-[N] |==|  0.06111
USER: genes 6 Torsion [C]-N--CA-[C] |==|  0.44259
USER: genes 7 Torsion [N]-CA--C-[O] |==|  0.46169
USER: genes 8 Torsion [N]-CA--CB-[CG] |==|  0.65594
USER: genes 9 Torsion [CA]-CB--CG-[CD2] |==|  0.56271
ROOT
ATOM      1  CA  HIS F   2      -2.280  34.648 -21.580  1.00 49.99 LIG 0.18  C 
ENDROOT
BRANCH 1 2
ATOM      2  N   HIS F   2      -2.574  34.477 -23.004  1.00 49.83 LIG-0.35  N 
ATOM      3  C   GLY F   1      -2.798  35.509 -23.814  1.00 49.82 LIG 0.24  C 
ATOM      4 O    GLY F   1      -2.835  36.680 -23.426  1.00 49.53 LIG-0.27  OA
ATOM      5 H    HIS F   2      -2.588  33.657 -23.263  1.00 49.83 LIG 0.16  HD
BRANCH 3 6
ATOM      6  CA  GLY F   1      -3.018  35.168 -25.278  1.00 49.90 LIG 0.33  C 
BRANCH 6 7
ATOM      7  N   GLY F   1      -2.047  35.841 -26.191  1.00 49.95 LIG-0.07  N 
ATOM      8 H3   GLY F   1      -1.332  35.321 -26.298  1.00 49.95 LIG 0.27  HD
ATOM      9 H1   GLY F   1      -2.432  35.982 -26.982  1.00 49.95 LIG 0.27  HD
ATOM     10 H2   GLY F   1      -1.798  36.619 -25.839  1.00 49.95 LIG 0.27  HD
ENDBRANCH 6 7
ENDBRANCH 3 6
ENDBRANCH 1 2
BRANCH 1 11
ATOM     11  C   HIS F   2      -0.858  34.195 -21.257  1.00 50.00 LIG 0.24  C 
ATOM     12 O    HIS F   2      -0.544  33.866 -20.110  1.00 49.82 LIG-0.27  OA
ATOM     13  N   GLY F   3      -0.008  34.172 -22.281  1.00 50.02 LIG-0.35  N 
ATOM     14 H    GLY F   3      -0.213  34.423 -23.078  1.00 50.02 LIG 0.16  HD
BRANCH 13 15
ATOM     15  CA  GLY F   3       1.367  33.710 -22.136  1.00 50.20 LIG 0.21  C 
BRANCH 15 16
ATOM     16  C   GLY F   3       1.986  33.298 -23.457  1.00 50.42 LIG 0.21  C 
ATOM     17 O    GLY F   3       3.201  33.127 -23.555  1.00 50.69 LIG-0.29  OA
ENDBRANCH 15 16
ENDBRANCH 13 15
ENDBRANCH 1 11
BRANCH 1 18
ATOM     18  CB  HIS F   2      -3.294  33.889 -20.722  1.00 49.99 LIG 0.10  C 
BRANCH 18 19
ATOM     19  CG  HIS F   2      -4.006  34.750 -19.725  1.00 50.63 LIG 0.06  A 
ATOM     20  CD2 HIS F   2      -4.636  34.441 -18.565  1.00 51.31 LIG 0.14  A 
ATOM     21 NE2  HIS F   2      -5.110  35.617 -18.034  1.00 51.32 LIG-0.25  NA
ATOM     22  CE1 HIS F   2      -4.789  36.612 -18.842  1.00 50.87 LIG 0.23  A 
ATOM     23 ND1  HIS F   2      -4.120  36.117 -19.868  1.00 50.82 LIG-0.24  NA
ENDBRANCH 18 19
ENDBRANCH 1 18
TORSDOF 8
ENDMDL
MODEL 34
USER: ADFR SOLUTION from run 157
USER: SCORE 7.794705 LL:  -1.191 LR:  -6.840 RR:   0.000 FEB:  -4.453
USER: RMSD 6.659846
USER: SEED 156
USER: STATUS no improvement in best in 40 clusters for 5 generations
USER: GENES 10
USER: genes 0 Translation |==|  0.45242 0.80915 0.27835
USER: genes 1 Rotation |==|  0.45910 0.47361 0.38086 0.98315
USER: genes 2 Torsion [C]-CA--N-[C] |==|  0.69901
USER: genes 3 Torsion [N]-C--CA-[N] |==|  0.94979
USER: genes 4 Torsion [C]-CA--N-[H3] |==|  0.67983
USER: genes 5 Torsion [N]-CA--C-[N] |==|  0.47643
USER: genes 6 Torsion [C]-N--CA-[C] |==|  0.52025
USER: genes 7 Torsion [N]-CA--C-[O] |==|  0.97192
USER: genes 8 Torsion [N]-CA--CB-[CG] |==|  0.90777
USER: genes 9 Torsion [CA]-CB--CG-[CD2] |==|  0.82374
ROOT
ATOM      1  CA  HIS F   2      -2.493  34.652 -22.722  1.00 49.99 LIG 0.18  C 
ENDROOT
BRANCH 1 2
ATOM      2  N   HIS F   2      -2.162  34.659 -24.148  1.00 49.83 LIG-0.35  N 
ATOM      3  C   GLY F   1      -2.783  33.876 -25.027  1.00 49.82 LIG 0.24  C 
ATOM      4 O    GLY F   1      -3.639  33.045 -24.709  1.00 49.53 LIG-0.27  OA
ATOM      5 H    HIS F   2      -1.537  35.210 -24.360  1.00 49.83 LIG 0.16  HD
BRANCH 3 6
ATOM      6  CA  GLY F   1      -2.375  34.054 -26.480  1.00 49.90 LIG 0.33  C 
BRANCH 6 7
ATOM      7  N   GLY F   1      -1.672  35.345 -26.740  1.00 49.95 LIG-0.07  N 
ATOM      8 H3   GLY F   1      -2.166  35.847 -27.284  1.00 49.95 LIG 0.27  HD
ATOM      9 H1   GLY F   1      -1.547  35.775 -25.970  1.00 49.95 LIG 0.27  HD
ATOM     10 H2   GLY F   1      -0.884  35.183 -27.120  1.00 49.95 LIG 0.27  HD
ENDBRANCH 6 7
ENDBRANCH 3 6
ENDBRANCH 1 2
BRANCH 1 11
ATOM     11  C   HIS F   2      -3.227  35.931 -22.324  1.00 50.00 LIG 0.24  C 
ATOM     12 O    HIS F   2      -3.343  36.866 -23.119  1.00 49.82 LIG-0.27  OA
ATOM     13  N   GLY F   3      -3.730  35.953 -21.092  1.00 50.02 LIG-0.35  N 
ATOM     14 H    GLY F   3      -3.632  35.314 -20.524  1.00 50.02 LIG 0.16  HD
BRANCH 13 15
ATOM     15  CA  GLY F   3      -4.502  37.083 -20.592  1.00 50.20 LIG 0.21  C 
BRANCH 15 16
ATOM     16  C   GLY F   3      -4.819  36.964 -19.114  1.00 50.42 LIG 0.21  C 
ATOM     17 O    GLY F   3      -4.600  35.915 -18.507  1.00 50.69 LIG-0.29  OA
ENDBRANCH 15 16
ENDBRANCH 13 15
ENDBRANCH 1 11
BRANCH 1 18
ATOM     18  CB  HIS F   2      -1.232  34.470 -21.874  1.00 49.99 LIG 0.10  C 
BRANCH 18 19
ATOM     19  CG  HIS F   2      -0.190  33.608 -22.518  1.00 50.63 LIG 0.06  A 
ATOM     20  CD2 HIS F   2      -0.207  32.300 -22.875  1.00 51.31 LIG 0.14  A 
ATOM     21 NE2  HIS F   2       1.014  32.018 -23.440  1.00 51.32 LIG-0.25  NA
ATOM     22  CE1 HIS F   2       1.757  33.111 -23.425  1.00 50.87 LIG 0.23  A 
ATOM     23 ND1  HIS F   2       1.053  34.085 -22.876  1.00 50.82 LIG-0.24  NA
ENDBRANCH 18 19
ENDBRANCH 1 18
TORSDOF 8
ENDMDL
MODEL 35
USER: ADFR SOLUTION from run 29
USER: SCORE 8.018708 LL:  -1.306 LR:  -6.815 RR:   0.000 FEB:  -4.429
USER: RMSD 6.217644
USER: SEED 28
USER: STATUS no improvement in best in 29 clusters for 5 generations
USER: GENES 10
USER: genes 0 Translation |==|  0.61426 0.53665 0.67199
USER: genes 1 Rotation |==|  0.37009 0.09576 0.56237 0.75657
USER: genes 2 Torsion [C]-CA--N-[C] |==|  0.78803
USER: genes 3 Torsion [N]-C--CA-[N] |==|  0.31401
USER: genes 4 Torsion [C]-CA--N-[H3] |==|  0.76881
USER: genes 5 Torsion [N]-CA--C-[N] |==|  0.88889
USER: genes 6 Torsion [C]-N--CA-[C] |==|  0.26526
USER: genes 7 Torsion [N]-CA--C-[O] |==|  0.02012
USER: genes 8 Torsion [N]-CA--CB-[CG] |==|  0.56067
USER: genes 9 Torsion [CA]-CB--CG-[CD2] |==|  0.80702
ROOT
ATOM      1  CA  HIS F   2       0.299  31.177 -16.227  1.00 49.99 LIG 0.18  C 
ENDROOT
BRANCH 1 2
ATOM      2  N   HIS F   2       1.641  31.426 -15.698  1.00 49.83 LIG-0.35  N 
ATOM      3  C   GLY F   1       2.587  30.490 -15.689  1.00 49.82 LIG 0.24  C 
ATOM      4 O    GLY F   1       2.398  29.331 -16.068  1.00 49.53 LIG-0.27  OA
ATOM      5 H    HIS F   2       1.757  32.223 -15.397  1.00 49.83 LIG 0.16  HD
BRANCH 3 6
ATOM      6  CA  GLY F   1       3.948  30.927 -15.172  1.00 49.90 LIG 0.33  C 
BRANCH 6 7
ATOM      7  N   GLY F   1       4.328  30.270 -13.887  1.00 49.95 LIG-0.07  N 
ATOM      8 H3   GLY F   1       3.958  30.710 -13.208  1.00 49.95 LIG 0.27  HD
ATOM      9 H1   GLY F   1       4.039  29.428 -13.887  1.00 49.95 LIG 0.27  HD
ATOM     10 H2   GLY F   1       5.213  30.279 -13.799  1.00 49.95 LIG 0.27  HD
ENDBRANCH 6 7
ENDBRANCH 3 6
ENDBRANCH 1 2
BRANCH 1 11
ATOM     11  C   HIS F   2       0.304  31.180 -17.755  1.00 50.00 LIG 0.24  C 
ATOM     12 O    HIS F   2      -0.375  30.370 -18.390  1.00 49.82 LIG-0.27  OA
ATOM     13  N   GLY F   3       1.068  32.105 -18.332  1.00 50.02 LIG-0.35  N 
ATOM     14 H    GLY F   3       1.563  32.656 -17.895  1.00 50.02 LIG 0.16  HD
BRANCH 13 15
ATOM     15  CA  GLY F   3       1.130  32.263 -19.780  1.00 50.20 LIG 0.21  C 
BRANCH 15 16
ATOM     16  C   GLY F   3       0.186  33.333 -20.290  1.00 50.42 LIG 0.21  C 
ATOM     17 O    GLY F   3      -0.431  34.053 -19.504  1.00 50.69 LIG-0.29  OA
ENDBRANCH 15 16
ENDBRANCH 13 15
ENDBRANCH 1 11
BRANCH 1 18
ATOM     18  CB  HIS F   2      -0.695  32.210 -15.691  1.00 49.99 LIG 0.10  C 
BRANCH 18 19
ATOM     19  CG  HIS F   2      -2.122  31.759 -15.743  1.00 50.63 LIG 0.06  A 
ATOM     20  CD2 HIS F   2      -2.956  31.549 -16.791  1.00 51.31 LIG 0.14  A 
ATOM     21 NE2  HIS F   2      -4.158  31.127 -16.275  1.00 51.32 LIG-0.25  NA
ATOM     22  CE1 HIS F   2      -4.068  31.085 -14.957  1.00 50.87 LIG 0.23  A 
ATOM     23 ND1  HIS F   2      -2.849  31.459 -14.611  1.00 50.82 LIG-0.24  NA
ENDBRANCH 18 19
ENDBRANCH 1 18
TORSDOF 8
ENDMDL
MODEL 36
USER: ADFR SOLUTION from run 194
USER: SCORE 7.748469 LL:  -1.046 LR:  -6.804 RR:   0.000 FEB:  -4.418
USER: RMSD 5.890300
USER: SEED 193
USER: STATUS no improvement in best in 36 clusters for 5 generations
USER: GENES 10
USER: genes 0 Translation |==|  0.61731 0.69477 0.26994
USER: genes 1 Rotation |==|  0.53837 0.67447 0.53374 0.96578
USER: genes 2 Torsion [C]-CA--N-[C] |==|  0.68121
USER: genes 3 Torsion [N]-C--CA-[N] |==|  0.09213
USER: genes 4 Torsion [C]-CA--N-[H3] |==|  0.82154
USER: genes 5 Torsion [N]-CA--C-[N] |==|  0.05527
USER: genes 6 Torsion [C]-N--CA-[C] |==|  0.81783
USER: genes 7 Torsion [N]-CA--C-[O] |==|  0.23960
USER: genes 8 Torsion [N]-CA--CB-[CG] |==|  0.60432
USER: genes 9 Torsion [CA]-CB--CG-[CD2] |==|  0.87961
ROOT
ATOM      1  CA  HIS F   2       0.352  33.193 -22.861  1.00 49.99 LIG 0.18  C 
ENDROOT
BRANCH 1 2
ATOM      2  N   HIS F   2      -0.545  33.689 -23.906  1.00 49.83 LIG-0.35  N 
ATOM      3  C   GLY F   1      -1.267  32.872 -24.671  1.00 49.82 LIG 0.24  C 
ATOM      4 O    GLY F   1      -1.197  31.642 -24.604  1.00 49.53 LIG-0.27  OA
ATOM      5 H    HIS F   2      -0.561  34.545 -23.978  1.00 49.83 LIG 0.16  HD
BRANCH 3 6
ATOM      6  CA  GLY F   1      -2.203  33.545 -25.661  1.00 49.90 LIG 0.33  C 
BRANCH 6 7
ATOM      7  N   GLY F   1      -1.672  34.836 -26.190  1.00 49.95 LIG-0.07  N 
ATOM      8 H3   GLY F   1      -1.601  35.422 -25.524  1.00 49.95 LIG 0.27  HD
ATOM      9 H1   GLY F   1      -0.870  34.701 -26.553  1.00 49.95 LIG 0.27  HD
ATOM     10 H2   GLY F   1      -2.227  35.155 -26.808  1.00 49.95 LIG 0.27  HD
ENDBRANCH 6 7
ENDBRANCH 3 6
ENDBRANCH 1 2
BRANCH 1 11
ATOM     11  C   HIS F   2      -0.131  33.623 -21.477  1.00 50.00 LIG 0.24  C 
ATOM     12 O    HIS F   2       0.643  33.644 -20.516  1.00 49.82 LIG-0.27  OA
ATOM     13  N   GLY F   3      -1.411  33.976 -21.391  1.00 50.02 LIG-0.35  N 
ATOM     14 H    GLY F   3      -1.962  33.941 -22.051  1.00 50.02 LIG 0.16  HD
BRANCH 13 15
ATOM     15  CA  GLY F   3      -1.999  34.460 -20.148  1.00 50.20 LIG 0.21  C 
BRANCH 15 16
ATOM     16  C   GLY F   3      -2.031  33.399 -19.066  1.00 50.42 LIG 0.21  C 
ATOM     17 O    GLY F   3      -1.059  33.224 -18.330  1.00 50.69 LIG-0.29  OA
ENDBRANCH 15 16
ENDBRANCH 13 15
ENDBRANCH 1 11
BRANCH 1 18
ATOM     18  CB  HIS F   2       1.784  33.673 -23.104  1.00 49.99 LIG 0.10  C 
BRANCH 18 19
ATOM     19  CG  HIS F   2       2.828  32.656 -22.760  1.00 50.63 LIG 0.06  A 
ATOM     20  CD2 HIS F   2       2.948  31.822 -21.697  1.00 51.31 LIG 0.14  A 
ATOM     21 NE2  HIS F   2       4.094  31.087 -21.886  1.00 51.32 LIG-0.25  NA
ATOM     22  CE1 HIS F   2       4.662  31.460 -23.020  1.00 50.87 LIG 0.23  A 
ATOM     23 ND1  HIS F   2       3.917  32.404 -23.568  1.00 50.82 LIG-0.24  NA
ENDBRANCH 18 19
ENDBRANCH 1 18
TORSDOF 8
ENDMDL
MODEL 37
USER: ADFR SOLUTION from run 10
USER: SCORE 7.412342 LL:  -1.194 LR:  -6.803 RR:   0.000 FEB:  -4.416
USER: RMSD 7.606472
USER: SEED 368643
USER: STATUS no improvement in best in 15 clusters for 5 generations
USER: GENES 10
USER: genes 0 Translation |==|  0.73931 0.50301 0.44866
USER: genes 1 Rotation |==|  0.61318 0.89182 0.78524 0.54805
USER: genes 2 Torsion [C]-CA--N-[C] |==|  0.16110
USER: genes 3 Torsion [N]-C--CA-[N] |==|  0.64492
USER: genes 4 Torsion [C]-CA--N-[H3] |==|  0.96193
USER: genes 5 Torsion [N]-CA--C-[N] |==|  0.63418
USER: genes 6 Torsion [C]-N--CA-[C] |==|  0.15759
USER: genes 7 Torsion [N]-CA--C-[O] |==|  0.05152
USER: genes 8 Torsion [N]-CA--CB-[CG] |==|  0.61076
USER: genes 9 Torsion [CA]-CB--CG-[CD2] |==|  0.39221
ROOT
ATOM      1  CA  HIS F   2       2.456  30.748 -19.912  1.00 49.99 LIG 0.18  C 
ENDROOT
BRANCH 1 2
ATOM      2  N   HIS F   2       1.886  29.669 -19.105  1.00 49.83 LIG-0.35  N 
ATOM      3  C   GLY F   1       1.900  29.691 -17.774  1.00 49.82 LIG 0.24  C 
ATOM      4 O    GLY F   1       2.442  30.584 -17.116  1.00 49.53 LIG-0.27  OA
ATOM      5 H    HIS F   2       1.545  29.028 -19.566  1.00 49.83 LIG 0.16  HD
BRANCH 3 6
ATOM      6  CA  GLY F   1       1.204  28.531 -17.083  1.00 49.90 LIG 0.33  C 
BRANCH 6 7
ATOM      7  N   GLY F   1       0.203  28.966 -16.065  1.00 49.95 LIG-0.07  N 
ATOM      8 H3   GLY F   1       0.317  29.831 -15.888  1.00 49.95 LIG 0.27  HD
ATOM      9 H1   GLY F   1      -0.619  28.834 -16.381  1.00 49.95 LIG 0.27  HD
ATOM     10 H2   GLY F   1       0.313  28.494 -15.319  1.00 49.95 LIG 0.27  HD
ENDBRANCH 6 7
ENDBRANCH 3 6
ENDBRANCH 1 2
BRANCH 1 11
ATOM     11  C   HIS F   2       3.934  30.954 -19.586  1.00 50.00 LIG 0.24  C 
ATOM     12 O    HIS F   2       4.712  29.997 -19.547  1.00 49.82 LIG-0.27  OA
ATOM     13  N   GLY F   3       4.312  32.211 -19.364  1.00 50.02 LIG-0.35  N 
ATOM     14 H    GLY F   3       3.771  32.879 -19.366  1.00 50.02 LIG 0.16  HD
BRANCH 13 15
ATOM     15  CA  GLY F   3       5.699  32.566 -19.096  1.00 50.20 LIG 0.21  C 
BRANCH 15 16
ATOM     16  C   GLY F   3       6.640  32.116 -20.196  1.00 50.42 LIG 0.21  C 
ATOM     17 O    GLY F   3       6.208  31.835 -21.315  1.00 50.69 LIG-0.29  OA
ENDBRANCH 15 16
ENDBRANCH 13 15
ENDBRANCH 1 11
BRANCH 1 18
ATOM     18  CB  HIS F   2       1.675  32.048 -19.709  1.00 49.99 LIG 0.10  C 
BRANCH 18 19
ATOM     19  CG  HIS F   2       1.476  32.836 -20.966  1.00 50.63 LIG 0.06  A 
ATOM     20  CD2 HIS F   2       0.414  33.548 -21.417  1.00 51.31 LIG 0.14  A 
ATOM     21 NE2  HIS F   2       0.770  34.085 -22.631  1.00 51.32 LIG-0.25  NA
ATOM     22  CE1 HIS F   2       2.004  33.710 -22.920  1.00 50.87 LIG 0.23  A 
ATOM     23 ND1  HIS F   2       2.454  32.958 -21.931  1.00 50.82 LIG-0.24  NA
ENDBRANCH 18 19
ENDBRANCH 1 18
TORSDOF 8
ENDMDL
MODEL 38
USER: ADFR SOLUTION from run 184
USER: SCORE 7.911379 LL:  -1.242 LR:  -6.793 RR:   0.000 FEB:  -4.407
USER: RMSD 7.511948
USER: SEED 183
USER: STATUS no improvement in best in 29 clusters for 5 generations
USER: GENES 10
USER: genes 0 Translation |==|  0.71859 0.64391 0.38400
USER: genes 1 Rotation |==|  0.43252 0.53006 0.00593 0.52089
USER: genes 2 Torsion [C]-CA--N-[C] |==|  0.59878
USER: genes 3 Torsion [N]-C--CA-[N] |==|  0.43814
USER: genes 4 Torsion [C]-CA--N-[H3] |==|  0.70021
USER: genes 5 Torsion [N]-CA--C-[N] |==|  0.44102
USER: genes 6 Torsion [C]-N--CA-[C] |==|  0.38102
USER: genes 7 Torsion [N]-CA--C-[O] |==|  0.78601
USER: genes 8 Torsion [N]-CA--CB-[CG] |==|  0.80174
USER: genes 9 Torsion [CA]-CB--CG-[CD2] |==|  0.73565
ROOT
ATOM      1  CA  HIS F   2       2.099  32.545 -20.979  1.00 49.99 LIG 0.18  C 
ENDROOT
BRANCH 1 2
ATOM      2  N   HIS F   2       1.653  32.342 -22.358  1.00 49.83 LIG-0.35  N 
ATOM      3  C   GLY F   1       0.980  33.270 -23.033  1.00 49.82 LIG 0.24  C 
ATOM      4 O    GLY F   1       0.627  34.345 -22.540  1.00 49.53 LIG-0.27  OA
ATOM      5 H    HIS F   2       1.865  31.576 -22.686  1.00 49.83 LIG 0.16  HD
BRANCH 3 6
ATOM      6  CA  GLY F   1       0.652  32.934 -24.478  1.00 49.90 LIG 0.33  C 
BRANCH 6 7
ATOM      7  N   GLY F   1      -0.504  33.710 -25.016  1.00 49.95 LIG-0.07  N 
ATOM      8 H3   GLY F   1      -1.208  33.172 -25.104  1.00 49.95 LIG 0.27  HD
ATOM      9 H1   GLY F   1      -0.705  34.371 -24.455  1.00 49.95 LIG 0.27  HD
ATOM     10 H2   GLY F   1      -0.290  34.050 -25.810  1.00 49.95 LIG 0.27  HD
ENDBRANCH 6 7
ENDBRANCH 3 6
ENDBRANCH 1 2
BRANCH 1 11
ATOM     11  C   HIS F   2       3.451  31.877 -20.737  1.00 50.00 LIG 0.24  C 
ATOM     12 O    HIS F   2       3.850  30.972 -21.474  1.00 49.82 LIG-0.27  OA
ATOM     13  N   GLY F   3       4.153  32.341 -19.705  1.00 50.02 LIG-0.35  N 
ATOM     14 H    GLY F   3       3.870  32.954 -19.172  1.00 50.02 LIG 0.16  HD
BRANCH 13 15
ATOM     15  CA  GLY F   3       5.483  31.839 -19.385  1.00 50.20 LIG 0.21  C 
BRANCH 15 16
ATOM     16  C   GLY F   3       6.451  32.946 -19.021  1.00 50.42 LIG 0.21  C 
ATOM     17 O    GLY F   3       6.953  33.655 -19.894  1.00 50.69 LIG-0.29  OA
ENDBRANCH 15 16
ENDBRANCH 13 15
ENDBRANCH 1 11
BRANCH 1 18
ATOM     18  CB  HIS F   2       1.056  32.021 -19.990  1.00 49.99 LIG 0.10  C 
BRANCH 18 19
ATOM     19  CG  HIS F   2      -0.184  32.858 -19.920  1.00 50.63 LIG 0.06  A 
ATOM     20  CD2 HIS F   2      -0.541  33.860 -19.078  1.00 51.31 LIG 0.14  A 
ATOM     21 NE2  HIS F   2      -1.786  34.293 -19.467  1.00 51.32 LIG-0.25  NA
ATOM     22  CE1 HIS F   2      -2.184  33.578 -20.506  1.00 50.87 LIG 0.23  A 
ATOM     23 ND1  HIS F   2      -1.235  32.708 -20.800  1.00 50.82 LIG-0.24  NA
ENDBRANCH 18 19
ENDBRANCH 1 18
TORSDOF 8
ENDMDL
MODEL 39
USER: ADFR SOLUTION from run 132
USER: SCORE 7.951964 LL:  -1.176 LR:  -6.778 RR:   0.000 FEB:  -4.391
USER: RMSD 3.131793
USER: SEED 131
USER: STATUS no improvement in best in 21 clusters for 5 generations
USER: GENES 10
USER: genes 0 Translation |==|  0.62926 0.54677 0.45110
USER: genes 1 Rotation |==|  0.66731 0.46437 0.51671 0.96953
USER: genes 2 Torsion [C]-CA--N-[C] |==|  0.82899
USER: genes 3 Torsion [N]-C--CA-[N] |==|  0.60623
USER: genes 4 Torsion [C]-CA--N-[H3] |==|  0.96134
USER: genes 5 Torsion [N]-CA--C-[N] |==|  0.37237
USER: genes 6 Torsion [C]-N--CA-[C] |==|  0.46380
USER: genes 7 Torsion [N]-CA--C-[O] |==|  0.37853
USER: genes 8 Torsion [N]-CA--CB-[CG] |==|  0.49741
USER: genes 9 Torsion [CA]-CB--CG-[CD2] |==|  0.79890
ROOT
ATOM      1  CA  HIS F   2       0.558  31.306 -19.872  1.00 49.99 LIG 0.18  C 
ENDROOT
BRANCH 1 2
ATOM      2  N   HIS F   2       0.763  32.477 -20.725  1.00 49.83 LIG-0.35  N 
ATOM      3  C   GLY F   1      -0.078  32.801 -21.705  1.00 49.82 LIG 0.24  C 
ATOM      4 O    GLY F   1      -1.058  32.116 -22.011  1.00 49.53 LIG-0.27  OA
ATOM      5 H    HIS F   2       1.469  32.930 -20.536  1.00 49.83 LIG 0.16  HD
BRANCH 3 6
ATOM      6  CA  GLY F   1       0.236  34.085 -22.453  1.00 49.90 LIG 0.33  C 
BRANCH 6 7
ATOM      7  N   GLY F   1      -0.982  34.869 -22.815  1.00 49.95 LIG-0.07  N 
ATOM      8 H3   GLY F   1      -1.704  34.360 -22.711  1.00 49.95 LIG 0.27  HD
ATOM      9 H1   GLY F   1      -1.043  35.583 -22.287  1.00 49.95 LIG 0.27  HD
ATOM     10 H2   GLY F   1      -0.925  35.132 -23.663  1.00 49.95 LIG 0.27  HD
ENDBRANCH 6 7
ENDBRANCH 3 6
ENDBRANCH 1 2
BRANCH 1 11
ATOM     11  C   HIS F   2      -0.751  31.420 -19.092  1.00 50.00 LIG 0.24  C 
ATOM     12 O    HIS F   2      -1.060  32.472 -18.526  1.00 49.82 LIG-0.27  OA
ATOM     13  N   GLY F   3      -1.517  30.332 -19.080  1.00 50.02 LIG-0.35  N 
ATOM     14 H    GLY F   3      -1.296  29.588 -19.451  1.00 50.02 LIG 0.16  HD
BRANCH 13 15
ATOM     15  CA  GLY F   3      -2.818  30.308 -18.423  1.00 50.20 LIG 0.21  C 
BRANCH 15 16
ATOM     16  C   GLY F   3      -3.639  29.090 -18.799  1.00 50.42 LIG 0.21  C 
ATOM     17 O    GLY F   3      -4.256  28.460 -17.940  1.00 50.69 LIG-0.29  OA
ENDBRANCH 15 16
ENDBRANCH 13 15
ENDBRANCH 1 11
BRANCH 1 18
ATOM     18  CB  HIS F   2       1.738  31.118 -18.917  1.00 49.99 LIG 0.10  C 
BRANCH 18 19
ATOM     19  CG  HIS F   2       1.588  29.948 -17.994  1.00 50.63 LIG 0.06  A 
ATOM     20  CD2 HIS F   2       0.787  29.756 -16.917  1.00 51.31 LIG 0.14  A 
ATOM     21 NE2  HIS F   2       1.045  28.492 -16.440  1.00 51.32 LIG-0.25  NA
ATOM     22  CE1 HIS F   2       1.975  27.931 -17.193  1.00 50.87 LIG 0.23  A 
ATOM     23 ND1  HIS F   2       2.318  28.788 -18.138  1.00 50.82 LIG-0.24  NA
ENDBRANCH 18 19
ENDBRANCH 1 18
TORSDOF 8
ENDMDL
MODEL 40
USER: ADFR SOLUTION from run 27
USER: SCORE 7.335019 LL:  -1.340 LR:  -6.764 RR:   0.000 FEB:  -4.378
USER: RMSD 3.739635
USER: SEED 26
USER: STATUS no improvement in best in 18 clusters for 5 generations
USER: GENES 10
USER: genes 0 Translation |==|  0.58788 0.52866 0.57140
USER: genes 1 Rotation |==|  0.88320 0.32184 0.36248 0.72913
USER: genes 2 Torsion [C]-CA--N-[C] |==|  0.18690
USER: genes 3 Torsion [N]-C--CA-[N] |==|  0.68054
USER: genes 4 Torsion [C]-CA--N-[H3] |==|  0.30610
USER: genes 5 Torsion [N]-CA--C-[N] |==|  0.70204
USER: genes 6 Torsion [C]-N--CA-[C] |==|  0.80578
USER: genes 7 Torsion [N]-CA--C-[O] |==|  0.91584
USER: genes 8 Torsion [N]-CA--CB-[CG] |==|  0.91780
USER: genes 9 Torsion [CA]-CB--CG-[CD2] |==|  0.32894
ROOT
ATOM      1  CA  HIS F   2      -0.156  31.075 -17.887  1.00 49.99 LIG 0.18  C 
ENDROOT
BRANCH 1 2
ATOM      2  N   HIS F   2       0.853  31.610 -16.972  1.00 49.83 LIG-0.35  N 
ATOM      3  C   GLY F   1       0.992  31.164 -15.725  1.00 49.82 LIG 0.24  C 
ATOM      4 O    GLY F   1       0.252  30.314 -15.223  1.00 49.53 LIG-0.27  OA
ATOM      5 H    HIS F   2       1.342  32.230 -17.312  1.00 49.83 LIG 0.16  HD
BRANCH 3 6
ATOM      6  CA  GLY F   1       2.133  31.770 -14.926  1.00 49.90 LIG 0.33  C 
BRANCH 6 7
ATOM      7  N   GLY F   1       3.191  30.781 -14.566  1.00 49.95 LIG-0.07  N 
ATOM      8 H3   GLY F   1       3.932  30.957 -15.028  1.00 49.95 LIG 0.27  HD
ATOM      9 H1   GLY F   1       3.365  30.836 -13.695  1.00 49.95 LIG 0.27  HD
ATOM     10 H2   GLY F   1       2.909  29.960 -14.760  1.00 49.95 LIG 0.27  HD
ENDBRANCH 6 7
ENDBRANCH 3 6
ENDBRANCH 1 2
BRANCH 1 11
ATOM     11  C   HIS F   2      -1.565  31.434 -17.418  1.00 50.00 LIG 0.24  C 
ATOM     12 O    HIS F   2      -1.993  32.586 -17.525  1.00 49.82 LIG-0.27  OA
ATOM     13  N   GLY F   3      -2.281  30.434 -16.908  1.00 50.02 LIG-0.35  N 
ATOM     14 H    GLY F   3      -1.980  29.635 -16.807  1.00 50.02 LIG 0.16  HD
BRANCH 13 15
ATOM     15  CA  GLY F   3      -3.659  30.614 -16.470  1.00 50.20 LIG 0.21  C 
BRANCH 15 16
ATOM     16  C   GLY F   3      -3.766  31.460 -15.216  1.00 50.42 LIG 0.21  C 
ATOM     17 O    GLY F   3      -2.863  31.460 -14.380  1.00 50.69 LIG-0.29  OA
ENDBRANCH 15 16
ENDBRANCH 13 15
ENDBRANCH 1 11
BRANCH 1 18
ATOM     18  CB  HIS F   2      -0.008  29.560 -18.032  1.00 49.99 LIG 0.10  C 
BRANCH 18 19
ATOM     19  CG  HIS F   2       1.397  29.071 -17.856  1.00 50.63 LIG 0.06  A 
ATOM     20  CD2 HIS F   2       1.942  28.225 -16.947  1.00 51.31 LIG 0.14  A 
ATOM     21 NE2  HIS F   2       3.278  28.111 -17.249  1.00 51.32 LIG-0.25  NA
ATOM     22  CE1 HIS F   2       3.547  28.866 -18.300  1.00 50.87 LIG 0.23  A 
ATOM     23 ND1  HIS F   2       2.428  29.453 -18.687  1.00 50.82 LIG-0.24  NA
ENDBRANCH 18 19
ENDBRANCH 1 18
TORSDOF 8
ENDMDL
MODEL 41
USER: ADFR SOLUTION from run 113
USER: SCORE 7.735110 LL:  -1.407 LR:  -6.755 RR:   0.000 FEB:  -4.369
USER: RMSD 4.239711
USER: SEED 112
USER: STATUS no improvement in best in 27 clusters for 5 generations
USER: GENES 10
USER: genes 0 Translation |==|  0.55707 0.61034 0.47500
USER: genes 1 Rotation |==|  0.62999 0.46772 0.83690 0.84432
USER: genes 2 Torsion [C]-CA--N-[C] |==|  0.62778
USER: genes 3 Torsion [N]-C--CA-[N] |==|  0.34257
USER: genes 4 Torsion [C]-CA--N-[H3] |==|  0.71412
USER: genes 5 Torsion [N]-CA--C-[N] |==|  0.96170
USER: genes 6 Torsion [C]-N--CA-[C] |==|  0.21490
USER: genes 7 Torsion [N]-CA--C-[O] |==|  0.54614
USER: genes 8 Torsion [N]-CA--CB-[CG] |==|  0.30625
USER: genes 9 Torsion [CA]-CB--CG-[CD2] |==|  0.29502
ROOT
ATOM      1  CA  HIS F   2      -0.688  32.117 -19.477  1.00 49.99 LIG 0.18  C 
ENDROOT
BRANCH 1 2
ATOM      2  N   HIS F   2      -1.389  32.811 -20.559  1.00 49.83 LIG-0.35  N 
ATOM      3  C   GLY F   1      -0.743  33.433 -21.542  1.00 49.82 LIG 0.24  C 
ATOM      4 O    GLY F   1       0.487  33.527 -21.593  1.00 49.53 LIG-0.27  OA
ATOM      5 H    HIS F   2      -2.246  32.778 -20.499  1.00 49.83 LIG 0.16  HD
BRANCH 3 6
ATOM      6  CA  GLY F   1      -1.614  34.043 -22.627  1.00 49.90 LIG 0.33  C 
BRANCH 6 7
ATOM      7  N   GLY F   1      -1.382  35.506 -22.815  1.00 49.95 LIG-0.07  N 
ATOM      8 H3   GLY F   1      -2.043  35.963 -22.432  1.00 49.95 LIG 0.27  HD
ATOM      9 H1   GLY F   1      -0.607  35.734 -22.440  1.00 49.95 LIG 0.27  HD
ATOM     10 H2   GLY F   1      -1.357  35.694 -23.684  1.00 49.95 LIG 0.27  HD
ENDBRANCH 6 7
ENDBRANCH 3 6
ENDBRANCH 1 2
BRANCH 1 11
ATOM     11  C   HIS F   2      -1.301  30.741 -19.221  1.00 50.00 LIG 0.24  C 
ATOM     12 O    HIS F   2      -0.715  29.907 -18.527  1.00 49.82 LIG-0.27  OA
ATOM     13  N   GLY F   3      -2.490  30.522 -19.779  1.00 50.02 LIG-0.35  N 
ATOM     14 H    GLY F   3      -2.893  31.090 -20.284  1.00 50.02 LIG 0.16  HD
BRANCH 13 15
ATOM     15  CA  GLY F   3      -3.221  29.278 -19.577  1.00 50.20 LIG 0.21  C 
BRANCH 15 16
ATOM     16  C   GLY F   3      -3.901  29.214 -18.224  1.00 50.42 LIG 0.21  C 
ATOM     17 O    GLY F   3      -4.297  28.140 -17.770  1.00 50.69 LIG-0.29  OA
ENDBRANCH 15 16
ENDBRANCH 13 15
ENDBRANCH 1 11
BRANCH 1 18
ATOM     18  CB  HIS F   2      -0.698  32.956 -18.199  1.00 49.99 LIG 0.10  C 
BRANCH 18 19
ATOM     19  CG  HIS F   2      -1.560  32.392 -17.112  1.00 50.63 LIG 0.06  A 
ATOM     20  CD2 HIS F   2      -1.242  31.763 -15.954  1.00 51.31 LIG 0.14  A 
ATOM     21 NE2  HIS F   2      -2.423  31.460 -15.319  1.00 51.32 LIG-0.25  NA
ATOM     22  CE1 HIS F   2      -3.430  31.881 -16.063  1.00 50.87 LIG 0.23  A 
ATOM     23 ND1  HIS F   2      -2.937  32.449 -17.149  1.00 50.82 LIG-0.24  NA
ENDBRANCH 18 19
ENDBRANCH 1 18
TORSDOF 8
ENDMDL
MODEL 42
USER: ADFR SOLUTION from run 95
USER: SCORE 7.947539 LL:  -1.231 LR:  -6.732 RR:   0.000 FEB:  -4.345
USER: RMSD 3.600256
USER: SEED 94
USER: STATUS no improvement in best in 24 clusters for 5 generations
USER: GENES 10
USER: genes 0 Translation |==|  0.54967 0.52126 0.64569
USER: genes 1 Rotation |==|  0.93413 0.39905 0.72305 0.53987
USER: genes 2 Torsion [C]-CA--N-[C] |==|  0.82777
USER: genes 3 Torsion [N]-C--CA-[N] |==|  0.88991
USER: genes 4 Torsion [C]-CA--N-[H3] |==|  0.40917
USER: genes 5 Torsion [N]-CA--C-[N] |==|  0.94892
USER: genes 6 Torsion [C]-N--CA-[C] |==|  0.47883
USER: genes 7 Torsion [N]-CA--C-[O] |==|  0.95708
USER: genes 8 Torsion [N]-CA--CB-[CG] |==|  0.45213
USER: genes 9 Torsion [CA]-CB--CG-[CD2] |==|  0.66221
ROOT
ATOM      1  CA  HIS F   2      -0.815  30.981 -16.661  1.00 49.99 LIG 0.18  C 
ENDROOT
BRANCH 1 2
ATOM      2  N   HIS F   2      -1.971  31.091 -15.770  1.00 49.83 LIG-0.35  N 
ATOM      3  C   GLY F   1      -3.003  31.888 -16.037  1.00 49.82 LIG 0.24  C 
ATOM      4 O    GLY F   1      -3.046  32.637 -17.017  1.00 49.53 LIG-0.27  OA
ATOM      5 H    HIS F   2      -1.920  30.598 -15.067  1.00 49.83 LIG 0.16  HD
BRANCH 3 6
ATOM      6  CA  GLY F   1      -4.156  31.834 -15.049  1.00 49.90 LIG 0.33  C 
BRANCH 6 7
ATOM      7  N   GLY F   1      -4.454  30.454 -14.565  1.00 49.95 LIG-0.07  N 
ATOM      8 H3   GLY F   1      -4.744  30.490 -13.725  1.00 49.95 LIG 0.27  HD
ATOM      9 H1   GLY F   1      -5.080  30.087 -15.080  1.00 49.95 LIG 0.27  HD
ATOM     10 H2   GLY F   1      -3.714  29.960 -14.602  1.00 49.95 LIG 0.27  HD
ENDBRANCH 6 7
ENDBRANCH 3 6
ENDBRANCH 1 2
BRANCH 1 11
ATOM     11  C   HIS F   2      -1.229  30.443 -18.030  1.00 50.00 LIG 0.24  C 
ATOM     12 O    HIS F   2      -0.494  30.579 -19.011  1.00 49.82 LIG-0.27  OA
ATOM     13  N   GLY F   3      -2.405  29.822 -18.079  1.00 50.02 LIG-0.35  N 
ATOM     14 H    GLY F   3      -2.934  29.746 -17.405  1.00 50.02 LIG 0.16  HD
BRANCH 13 15
ATOM     15  CA  GLY F   3      -2.906  29.210 -19.303  1.00 50.20 LIG 0.21  C 
BRANCH 15 16
ATOM     16  C   GLY F   3      -4.173  28.408 -19.077  1.00 50.42 LIG 0.21  C 
ATOM     17 O    GLY F   3      -4.517  28.085 -17.940  1.00 50.69 LIG-0.29  OA
ENDBRANCH 15 16
ENDBRANCH 13 15
ENDBRANCH 1 11
BRANCH 1 18
ATOM     18  CB  HIS F   2       0.267  30.096 -16.040  1.00 49.99 LIG 0.10  C 
BRANCH 18 19
ATOM     19  CG  HIS F   2       1.282  29.602 -17.023  1.00 50.63 LIG 0.06  A 
ATOM     20  CD2 HIS F   2       1.654  28.345 -17.371  1.00 51.31 LIG 0.14  A 
ATOM     21 NE2  HIS F   2       2.626  28.461 -18.336  1.00 51.32 LIG-0.25  NA
ATOM     22  CE1 HIS F   2       2.849  29.743 -18.568  1.00 50.87 LIG 0.23  A 
ATOM     23 ND1  HIS F   2       2.050  30.453 -17.791  1.00 50.82 LIG-0.24  NA
ENDBRANCH 18 19
ENDBRANCH 1 18
TORSDOF 8
ENDMDL
MODEL 43
USER: ADFR SOLUTION from run 68
USER: SCORE 7.848360 LL:  -1.209 LR:  -6.725 RR:   0.000 FEB:  -4.339
USER: RMSD 5.551671
USER: SEED 67
USER: STATUS no improvement in best in 29 clusters for 5 generations
USER: GENES 10
USER: genes 0 Translation |==|  0.56500 0.52018 0.63487
USER: genes 1 Rotation |==|  0.64267 0.68819 0.93064 0.59370
USER: genes 2 Torsion [C]-CA--N-[C] |==|  0.62459
USER: genes 3 Torsion [N]-C--CA-[N] |==|  0.62710
USER: genes 4 Torsion [C]-CA--N-[H3] |==|  0.99657
USER: genes 5 Torsion [N]-CA--C-[N] |==|  0.45000
USER: genes 6 Torsion [C]-N--CA-[C] |==|  0.18125
USER: genes 7 Torsion [N]-CA--C-[O] |==|  0.77243
USER: genes 8 Torsion [N]-CA--CB-[CG] |==|  0.95545
USER: genes 9 Torsion [CA]-CB--CG-[CD2] |==|  0.78076
ROOT
ATOM      1  CA  HIS F   2      -0.551  30.967 -16.840  1.00 49.99 LIG 0.18  C 
ENDROOT
BRANCH 1 2
ATOM      2  N   HIS F   2      -1.552  30.019 -17.329  1.00 49.83 LIG-0.35  N 
ATOM      3  C   GLY F   1      -2.208  30.203 -18.473  1.00 49.82 LIG 0.24  C 
ATOM      4 O    GLY F   1      -2.071  31.206 -19.180  1.00 49.53 LIG-0.27  OA
ATOM      5 H    HIS F   2      -1.675  29.342 -16.815  1.00 49.83 LIG 0.16  HD
BRANCH 3 6
ATOM      6  CA  GLY F   1      -3.163  29.093 -18.878  1.00 49.90 LIG 0.33  C 
BRANCH 6 7
ATOM      7  N   GLY F   1      -3.038  28.702 -20.313  1.00 49.95 LIG-0.07  N 
ATOM      8 H3   GLY F   1      -2.422  29.210 -20.706  1.00 49.95 LIG 0.27  HD
ATOM      9 H1   GLY F   1      -2.797  27.847 -20.368  1.00 49.95 LIG 0.27  HD
ATOM     10 H2   GLY F   1      -3.821  28.816 -20.721  1.00 49.95 LIG 0.27  HD
ENDBRANCH 6 7
ENDBRANCH 3 6
ENDBRANCH 1 2
BRANCH 1 11
ATOM     11  C   HIS F   2       0.693  30.237 -16.335  1.00 50.00 LIG 0.24  C 
ATOM     12 O    HIS F   2       0.654  29.033 -16.069  1.00 49.82 LIG-0.27  OA
ATOM     13  N   GLY F   3       1.793  30.976 -16.217  1.00 50.02 LIG-0.35  N 
ATOM     14 H    GLY F   3       1.821  31.821 -16.377  1.00 50.02 LIG 0.16  HD
BRANCH 13 15
ATOM     15  CA  GLY F   3       3.068  30.406 -15.800  1.00 50.20 LIG 0.21  C 
BRANCH 15 16
ATOM     16  C   GLY F   3       3.617  29.411 -16.803  1.00 50.42 LIG 0.21  C 
ATOM     17 O    GLY F   3       3.218  28.246 -16.815  1.00 50.69 LIG-0.29  OA
ENDBRANCH 15 16
ENDBRANCH 13 15
ENDBRANCH 1 11
BRANCH 1 18
ATOM     18  CB  HIS F   2      -1.137  31.855 -15.740  1.00 49.99 LIG 0.10  C 
BRANCH 18 19
ATOM     19  CG  HIS F   2      -2.633  31.834 -15.680  1.00 50.63 LIG 0.06  A 
ATOM     20  CD2 HIS F   2      -3.567  32.464 -16.434  1.00 51.31 LIG 0.14  A 
ATOM     21 NE2  HIS F   2      -4.799  32.083 -15.956  1.00 51.32 LIG-0.25  NA
ATOM     22  CE1 HIS F   2      -4.628  31.255 -14.940  1.00 50.87 LIG 0.23  A 
ATOM     23 ND1  HIS F   2      -3.330  31.086 -14.754  1.00 50.82 LIG-0.24  NA
ENDBRANCH 18 19
ENDBRANCH 1 18
TORSDOF 8
ENDMDL
MODEL 44
USER: ADFR SOLUTION from run 23
USER: SCORE 7.828889 LL:  -1.275 LR:  -6.691 RR:   0.000 FEB:  -4.305
USER: RMSD 5.073733
USER: SEED 22
USER: STATUS no improvement in best in 39 clusters for 5 generations
USER: GENES 10
USER: genes 0 Translation |==|  0.59845 0.49856 0.57244
USER: genes 1 Rotation |==|  0.24190 0.52844 0.09876 0.64692
USER: genes 2 Torsion [C]-CA--N-[C] |==|  0.56653
USER: genes 3 Torsion [N]-C--CA-[N] |==|  0.94840
USER: genes 4 Torsion [C]-CA--N-[H3] |==|  0.30971
USER: genes 5 Torsion [N]-CA--C-[N] |==|  0.44591
USER: genes 6 Torsion [C]-N--CA-[C] |==|  0.84470
USER: genes 7 Torsion [N]-CA--C-[O] |==|  0.39180
USER: genes 8 Torsion [N]-CA--CB-[CG] |==|  0.31969
USER: genes 9 Torsion [CA]-CB--CG-[CD2] |==|  0.76113
ROOT
ATOM      1  CA  HIS F   2       0.026  30.692 -17.870  1.00 49.99 LIG 0.18  C 
ENDROOT
BRANCH 1 2
ATOM      2  N   HIS F   2      -1.077  30.057 -18.592  1.00 49.83 LIG-0.35  N 
ATOM      3  C   GLY F   1      -2.348  30.206 -18.226  1.00 49.82 LIG 0.24  C 
ATOM      4 O    GLY F   1      -2.695  30.835 -17.223  1.00 49.53 LIG-0.27  OA
ATOM      5 H    HIS F   2      -0.829  29.585 -19.267  1.00 49.83 LIG 0.16  HD
BRANCH 3 6
ATOM      6  CA  GLY F   1      -3.379  29.541 -19.121  1.00 49.90 LIG 0.33  C 
BRANCH 6 7
ATOM      7  N   GLY F   1      -2.855  29.210 -20.479  1.00 49.95 LIG-0.07  N 
ATOM      8 H3   GLY F   1      -2.797  28.326 -20.568  1.00 49.95 LIG 0.27  HD
ATOM      9 H1   GLY F   1      -3.406  29.534 -21.098  1.00 49.95 LIG 0.27  HD
ATOM     10 H2   GLY F   1      -2.048  29.571 -20.582  1.00 49.95 LIG 0.27  HD
ENDBRANCH 6 7
ENDBRANCH 3 6
ENDBRANCH 1 2
BRANCH 1 11
ATOM     11  C   HIS F   2       1.246  30.864 -18.774  1.00 50.00 LIG 0.24  C 
ATOM     12 O    HIS F   2       1.363  30.204 -19.809  1.00 49.82 LIG-0.27  OA
ATOM     13  N   GLY F   3       2.142  31.764 -18.377  1.00 50.02 LIG-0.35  N 
ATOM     14 H    GLY F   3       2.078  32.210 -17.644  1.00 50.02 LIG 0.16  HD
BRANCH 13 15
ATOM     15  CA  GLY F   3       3.328  32.076 -19.164  1.00 50.20 LIG 0.21  C 
BRANCH 15 16
ATOM     16  C   GLY F   3       4.166  30.849 -19.466  1.00 50.42 LIG 0.21  C 
ATOM     17 O    GLY F   3       4.703  30.710 -20.565  1.00 50.69 LIG-0.29  OA
ENDBRANCH 15 16
ENDBRANCH 13 15
ENDBRANCH 1 11
BRANCH 1 18
ATOM     18  CB  HIS F   2       0.392  29.886 -16.622  1.00 49.99 LIG 0.10  C 
BRANCH 18 19
ATOM     19  CG  HIS F   2       1.767  29.294 -16.667  1.00 50.63 LIG 0.06  A 
ATOM     20  CD2 HIS F   2       2.222  28.129 -17.190  1.00 51.31 LIG 0.14  A 
ATOM     21 NE2  HIS F   2       3.578  28.085 -16.964  1.00 51.32 LIG-0.25  NA
ATOM     22  CE1 HIS F   2       3.941  29.180 -16.318  1.00 50.87 LIG 0.23  A 
ATOM     23 ND1  HIS F   2       2.868  29.927 -16.128  1.00 50.82 LIG-0.24  NA
ENDBRANCH 18 19
ENDBRANCH 1 18
TORSDOF 8
ENDMDL
MODEL 45
USER: ADFR SOLUTION from run 177
USER: SCORE 7.208464 LL:  -1.058 LR:  -6.646 RR:   0.000 FEB:  -4.259
USER: RMSD 5.464957
USER: SEED 176
USER: STATUS no improvement in best in 39 clusters for 5 generations
USER: GENES 10
USER: genes 0 Translation |==|  0.42291 0.56129 0.67408
USER: genes 1 Rotation |==|  0.12379 0.44175 0.77145 0.67716
USER: genes 2 Torsion [C]-CA--N-[C] |==|  0.56115
USER: genes 3 Torsion [N]-C--CA-[N] |==|  0.96625
USER: genes 4 Torsion [C]-CA--N-[H3] |==|  0.07397
USER: genes 5 Torsion [N]-CA--C-[N] |==|  0.28469
USER: genes 6 Torsion [C]-N--CA-[C] |==|  0.77338
USER: genes 7 Torsion [N]-CA--C-[O] |==|  0.62047
USER: genes 8 Torsion [N]-CA--CB-[CG] |==|  0.54653
USER: genes 9 Torsion [CA]-CB--CG-[CD2] |==|  0.45900
ROOT
ATOM      1  CA  HIS F   2      -3.002  31.491 -16.193  1.00 49.99 LIG 0.18  C 
ENDROOT
BRANCH 1 2
ATOM      2  N   HIS F   2      -1.766  30.710 -16.262  1.00 49.83 LIG-0.35  N 
ATOM      3  C   GLY F   1      -0.567  31.254 -16.065  1.00 49.82 LIG 0.24  C 
ATOM      4 O    GLY F   1      -0.394  32.460 -15.868  1.00 49.53 LIG-0.27  OA
ATOM      5 H    HIS F   2      -1.887  29.878 -16.440  1.00 49.83 LIG 0.16  HD
BRANCH 3 6
ATOM      6  CA  GLY F   1       0.611  30.295 -16.100  1.00 49.90 LIG 0.33  C 
BRANCH 6 7
ATOM      7  N   GLY F   1       0.203  28.860 -16.065  1.00 49.95 LIG-0.07  N 
ATOM      8 H3   GLY F   1      -0.614  28.775 -16.407  1.00 49.95 LIG 0.27  HD
ATOM      9 H1   GLY F   1       0.777  28.376 -16.544  1.00 49.95 LIG 0.27  HD
ATOM     10 H2   GLY F   1       0.203  28.571 -15.223  1.00 49.95 LIG 0.27  HD
ENDBRANCH 6 7
ENDBRANCH 3 6
ENDBRANCH 1 2
BRANCH 1 11
ATOM     11  C   HIS F   2      -4.204  30.591 -15.915  1.00 50.00 LIG 0.24  C 
ATOM     12 O    HIS F   2      -4.696  29.899 -16.811  1.00 49.82 LIG-0.27  OA
ATOM     13  N   GLY F   3      -4.661  30.599 -14.665  1.00 50.02 LIG-0.35  N 
ATOM     14 H    GLY F   3      -4.339  31.097 -14.042  1.00 50.02 LIG 0.16  HD
BRANCH 13 15
ATOM     15  CA  GLY F   3      -5.767  29.751 -14.240  1.00 50.20 LIG 0.21  C 
BRANCH 15 16
ATOM     16  C   GLY F   3      -7.120  30.335 -14.594  1.00 50.42 LIG 0.21  C 
ATOM     17 O    GLY F   3      -8.046  30.312 -13.782  1.00 50.69 LIG-0.29  OA
ENDBRANCH 15 16
ENDBRANCH 13 15
ENDBRANCH 1 11
BRANCH 1 18
ATOM     18  CB  HIS F   2      -3.213  32.288 -17.482  1.00 49.99 LIG 0.10  C 
BRANCH 18 19
ATOM     19  CG  HIS F   2      -4.212  33.396 -17.351  1.00 50.63 LIG 0.06  A 
ATOM     20  CD2 HIS F   2      -4.477  34.459 -18.148  1.00 51.31 LIG 0.14  A 
ATOM     21 NE2  HIS F   2      -5.504  35.160 -17.562  1.00 51.32 LIG-0.25  NA
ATOM     22  CE1 HIS F   2      -5.852  34.554 -16.441  1.00 50.87 LIG 0.23  A 
ATOM     23 ND1  HIS F   2      -5.090  33.485 -16.291  1.00 50.82 LIG-0.24  NA
ENDBRANCH 18 19
ENDBRANCH 1 18
TORSDOF 8
ENDMDL
MODEL 46
USER: ADFR SOLUTION from run 60
USER: SCORE 7.873149 LL:  -1.414 LR:  -6.647 RR:   0.000 FEB:  -4.260
USER: RMSD 5.256695
USER: SEED 59
USER: STATUS no improvement in best in 18 clusters for 5 generations
USER: GENES 10
USER: genes 0 Translation |==|  0.62140 0.63570 0.47887
USER: genes 1 Rotation |==|  0.45096 0.62639 0.01971 0.53067
USER: genes 2 Torsion [C]-CA--N-[C] |==|  0.56348
USER: genes 3 Torsion [N]-C--CA-[N] |==|  0.58313
USER: genes 4 Torsion [C]-CA--N-[H3] |==|  0.87740
USER: genes 5 Torsion [N]-CA--C-[N] |==|  0.42779
USER: genes 6 Torsion [C]-N--CA-[C] |==|  0.66426
USER: genes 7 Torsion [N]-CA--C-[O] |==|  0.82965
USER: genes 8 Torsion [N]-CA--CB-[CG] |==|  0.44658
USER: genes 9 Torsion [CA]-CB--CG-[CD2] |==|  0.24261
ROOT
ATOM      1  CA  HIS F   2       0.422  32.440 -19.414  1.00 49.99 LIG 0.18  C 
ENDROOT
BRANCH 1 2
ATOM      2  N   HIS F   2       0.050  32.794 -20.784  1.00 49.83 LIG-0.35  N 
ATOM      3  C   GLY F   1      -0.788  33.790 -21.060  1.00 49.82 LIG 0.24  C 
ATOM      4 O    GLY F   1      -1.362  34.454 -20.192  1.00 49.53 LIG-0.27  OA
ATOM      5 H    HIS F   2       0.420  32.303 -21.386  1.00 49.83 LIG 0.16  HD
BRANCH 3 6
ATOM      6  CA  GLY F   1      -1.016  34.077 -22.535  1.00 49.90 LIG 0.33  C 
BRANCH 6 7
ATOM      7  N   GLY F   1      -1.327  35.510 -22.815  1.00 49.95 LIG-0.07  N 
ATOM      8 H3   GLY F   1      -1.914  35.809 -22.217  1.00 49.95 LIG 0.27  HD
ATOM      9 H1   GLY F   1      -0.580  35.992 -22.764  1.00 49.95 LIG 0.27  HD
ATOM     10 H2   GLY F   1      -1.672  35.585 -23.632  1.00 49.95 LIG 0.27  HD
ENDBRANCH 6 7
ENDBRANCH 3 6
ENDBRANCH 1 2
BRANCH 1 11
ATOM     11  C   HIS F   2       1.756  31.696 -19.383  1.00 50.00 LIG 0.24  C 
ATOM     12 O    HIS F   2       2.148  31.061 -20.365  1.00 49.82 LIG-0.27  OA
ATOM     13  N   GLY F   3       2.450  31.793 -18.251  1.00 50.02 LIG-0.35  N 
ATOM     14 H    GLY F   3       2.171  32.213 -17.555  1.00 50.02 LIG 0.16  HD
BRANCH 13 15
ATOM     15  CA  GLY F   3       3.764  31.182 -18.095  1.00 50.20 LIG 0.21  C 
BRANCH 15 16
ATOM     16  C   GLY F   3       3.810  30.180 -16.958  1.00 50.42 LIG 0.21  C 
ATOM     17 O    GLY F   3       3.583  30.533 -15.800  1.00 50.69 LIG-0.29  OA
ENDBRANCH 15 16
ENDBRANCH 13 15
ENDBRANCH 1 11
BRANCH 1 18
ATOM     18  CB  HIS F   2      -0.675  31.603 -18.753  1.00 49.99 LIG 0.10  C 
BRANCH 18 19
ATOM     19  CG  HIS F   2      -0.208  30.830 -17.559  1.00 50.63 LIG 0.06  A 
ATOM     20  CD2 HIS F   2      -0.123  31.171 -16.250  1.00 51.31 LIG 0.14  A 
ATOM     21 NE2  HIS F   2       0.365  30.077 -15.575  1.00 51.32 LIG-0.25  NA
ATOM     22  CE1 HIS F   2       0.578  29.100 -16.440  1.00 50.87 LIG 0.23  A 
ATOM     23 ND1  HIS F   2       0.239  29.528 -17.643  1.00 50.82 LIG-0.24  NA
ENDBRANCH 18 19
ENDBRANCH 1 18
TORSDOF 8
ENDMDL
MODEL 47
USER: ADFR SOLUTION from run 17
USER: SCORE 7.384443 LL:  -1.306 LR:  -6.641 RR:   0.000 FEB:  -4.255
USER: RMSD 5.441581
USER: SEED 16
USER: STATUS no improvement in best in 20 clusters for 5 generations
USER: GENES 10
USER: genes 0 Translation |==|  0.62348 0.63864 0.41020
USER: genes 1 Rotation |==|  0.50058 0.52487 0.00067 0.50699
USER: genes 2 Torsion [C]-CA--N-[C] |==|  0.64444
USER: genes 3 Torsion [N]-C--CA-[N] |==|  0.39077
USER: genes 4 Torsion [C]-CA--N-[H3] |==|  0.71196
USER: genes 5 Torsion [N]-CA--C-[N] |==|  0.80346
USER: genes 6 Torsion [C]-N--CA-[C] |==|  0.31523
USER: genes 7 Torsion [N]-CA--C-[O] |==|  0.49773
USER: genes 8 Torsion [N]-CA--CB-[CG] |==|  0.44159
USER: genes 9 Torsion [CA]-CB--CG-[CD2] |==|  0.20738
ROOT
ATOM      1  CA  HIS F   2       0.458  32.478 -20.547  1.00 49.99 LIG 0.18  C 
ENDROOT
BRANCH 1 2
ATOM      2  N   HIS F   2       0.382  32.267 -21.993  1.00 49.83 LIG-0.35  N 
ATOM      3  C   GLY F   1       0.296  33.277 -22.856  1.00 49.82 LIG 0.24  C 
ATOM      4 O    GLY F   1       0.214  34.459 -22.511  1.00 49.53 LIG-0.27  OA
ATOM      5 H    HIS F   2       0.398  31.440 -22.229  1.00 49.83 LIG 0.16  HD
BRANCH 3 6
ATOM      6  CA  GLY F   1       0.298  32.895 -24.327  1.00 49.90 LIG 0.33  C 
BRANCH 6 7
ATOM      7  N   GLY F   1      -0.645  33.710 -25.148  1.00 49.95 LIG-0.07  N 
ATOM      8 H3   GLY F   1      -1.370  33.228 -25.334  1.00 49.95 LIG 0.27  HD
ATOM      9 H1   GLY F   1      -0.881  34.438 -24.694  1.00 49.95 LIG 0.27  HD
ATOM     10 H2   GLY F   1      -0.247  33.950 -25.907  1.00 49.95 LIG 0.27  HD
ENDBRANCH 6 7
ENDBRANCH 3 6
ENDBRANCH 1 2
BRANCH 1 11
ATOM     11  C   HIS F   2       1.646  31.728 -19.946  1.00 50.00 LIG 0.24  C 
ATOM     12 O    HIS F   2       2.628  32.340 -19.519  1.00 49.82 LIG-0.27  OA
ATOM     13  N   GLY F   3       1.539  30.402 -19.909  1.00 50.02 LIG-0.35  N 
ATOM     14 H    GLY F   3       0.868  29.968 -20.228  1.00 50.02 LIG 0.16  HD
BRANCH 13 15
ATOM     15  CA  GLY F   3       2.568  29.559 -19.316  1.00 50.20 LIG 0.21  C 
BRANCH 15 16
ATOM     16  C   GLY F   3       2.089  28.847 -18.066  1.00 50.42 LIG 0.21  C 
ATOM     17 O    GLY F   3       2.836  28.084 -17.452  1.00 50.69 LIG-0.29  OA
ENDBRANCH 15 16
ENDBRANCH 13 15
ENDBRANCH 1 11
BRANCH 1 18
ATOM     18  CB  HIS F   2      -0.845  32.051 -19.868  1.00 49.99 LIG 0.10  C 
BRANCH 18 19
ATOM     19  CG  HIS F   2      -0.698  31.760 -18.406  1.00 50.63 LIG 0.06  A 
ATOM     20  CD2 HIS F   2      -0.546  32.585 -17.341  1.00 51.31 LIG 0.14  A 
ATOM     21 NE2  HIS F   2      -0.469  31.792 -16.221  1.00 51.32 LIG-0.25  NA
ATOM     22  CE1 HIS F   2      -0.562  30.525 -16.585  1.00 50.87 LIG 0.23  A 
ATOM     23 ND1  HIS F   2      -0.703  30.478 -17.898  1.00 50.82 LIG-0.24  NA
ENDBRANCH 18 19
ENDBRANCH 1 18
TORSDOF 8
ENDMDL
MODEL 48
USER: ADFR SOLUTION from run 134
USER: SCORE 7.227354 LL:  -1.205 LR:  -6.627 RR:   0.000 FEB:  -4.240
USER: RMSD 5.464539
USER: SEED 133
USER: STATUS no improvement in best in 24 clusters for 5 generations
USER: GENES 10
USER: genes 0 Translation |==|  0.65285 0.53508 0.38219
USER: genes 1 Rotation |==|  0.61034 0.70380 0.56877 0.93768
USER: genes 2 Torsion [C]-CA--N-[C] |==|  0.17636
USER: genes 3 Torsion [N]-C--CA-[N] |==|  0.61519
USER: genes 4 Torsion [C]-CA--N-[H3] |==|  0.43348
USER: genes 5 Torsion [N]-CA--C-[N] |==|  0.18889
USER: genes 6 Torsion [C]-N--CA-[C] |==|  0.79872
USER: genes 7 Torsion [N]-CA--C-[O] |==|  0.96168
USER: genes 8 Torsion [N]-CA--CB-[CG] |==|  0.81937
USER: genes 9 Torsion [CA]-CB--CG-[CD2] |==|  0.00029
ROOT
ATOM      1  CA  HIS F   2       0.965  31.157 -21.009  1.00 49.99 LIG 0.18  C 
ENDROOT
BRANCH 1 2
ATOM      2  N   HIS F   2      -0.100  31.886 -21.699  1.00 49.83 LIG-0.35  N 
ATOM      3  C   GLY F   1      -0.339  33.177 -21.478  1.00 49.82 LIG 0.24  C 
ATOM      4 O    GLY F   1       0.270  33.845 -20.638  1.00 49.53 LIG-0.27  OA
ATOM      5 H    HIS F   2      -0.550  31.408 -22.254  1.00 49.83 LIG 0.16  HD
BRANCH 3 6
ATOM      6  CA  GLY F   1      -1.431  33.805 -22.327  1.00 49.90 LIG 0.33  C 
BRANCH 6 7
ATOM      7  N   GLY F   1      -1.085  35.172 -22.815  1.00 49.95 LIG-0.07  N 
ATOM      8 H3   GLY F   1      -1.553  35.353 -23.550  1.00 49.95 LIG 0.27  HD
ATOM      9 H1   GLY F   1      -1.279  35.771 -22.186  1.00 49.95 LIG 0.27  HD
ATOM     10 H2   GLY F   1      -0.215  35.210 -23.001  1.00 49.95 LIG 0.27  HD
ENDBRANCH 6 7
ENDBRANCH 3 6
ENDBRANCH 1 2
BRANCH 1 11
ATOM     11  C   HIS F   2       0.704  31.103 -19.505  1.00 50.00 LIG 0.24  C 
ATOM     12 O    HIS F   2       1.424  31.721 -18.716  1.00 49.82 LIG-0.27  OA
ATOM     13  N   GLY F   3      -0.337  30.368 -19.121  1.00 50.02 LIG-0.35  N 
ATOM     14 H    GLY F   3      -0.828  29.916 -19.663  1.00 50.02 LIG 0.16  HD
BRANCH 13 15
ATOM     15  CA  GLY F   3      -0.741  30.268 -17.724  1.00 50.20 LIG 0.21  C 
BRANCH 15 16
ATOM     16  C   GLY F   3       0.216  29.429 -16.900  1.00 50.42 LIG 0.21  C 
ATOM     17 O    GLY F   3       1.056  28.714 -17.448  1.00 50.69 LIG-0.29  OA
ENDBRANCH 15 16
ENDBRANCH 13 15
ENDBRANCH 1 11
BRANCH 1 18
ATOM     18  CB  HIS F   2       2.328  31.789 -21.296  1.00 49.99 LIG 0.10  C 
BRANCH 18 19
ATOM     19  CG  HIS F   2       2.746  31.697 -22.731  1.00 50.63 LIG 0.06  A 
ATOM     20  CD2 HIS F   2       2.128  31.156 -23.810  1.00 51.31 LIG 0.14  A 
ATOM     21 NE2  HIS F   2       2.952  31.356 -24.892  1.00 51.32 LIG-0.25  NA
ATOM     22  CE1 HIS F   2       4.040  31.990 -24.492  1.00 50.87 LIG 0.23  A 
ATOM     23 ND1  HIS F   2       3.940  32.210 -23.193  1.00 50.82 LIG-0.24  NA
ENDBRANCH 18 19
ENDBRANCH 1 18
TORSDOF 8
ENDMDL
MODEL 49
USER: ADFR SOLUTION from run 158
USER: SCORE 7.892258 LL:  -1.346 LR:  -6.603 RR:   0.000 FEB:  -4.217
USER: RMSD 6.628540
USER: SEED 157
USER: STATUS no improvement in best in 33 clusters for 5 generations
USER: GENES 10
USER: genes 0 Translation |==|  0.64094 0.62365 0.25147
USER: genes 1 Rotation |==|  0.58332 0.81268 0.55083 0.87776
USER: genes 2 Torsion [C]-CA--N-[C] |==|  0.15037
USER: genes 3 Torsion [N]-C--CA-[N] |==|  0.67624
USER: genes 4 Torsion [C]-CA--N-[H3] |==|  0.15838
USER: genes 5 Torsion [N]-CA--C-[N] |==|  0.12754
USER: genes 6 Torsion [C]-N--CA-[C] |==|  0.30383
USER: genes 7 Torsion [N]-CA--C-[O] |==|  0.97893
USER: genes 8 Torsion [N]-CA--CB-[CG] |==|  0.55377
USER: genes 9 Torsion [CA]-CB--CG-[CD2] |==|  0.20351
ROOT
ATOM      1  CA  HIS F   2       0.759  32.287 -23.166  1.00 49.99 LIG 0.18  C 
ENDROOT
BRANCH 1 2
ATOM      2  N   HIS F   2      -0.592  32.819 -23.342  1.00 49.83 LIG-0.35  N 
ATOM      3  C   GLY F   1      -0.920  34.061 -22.991  1.00 49.82 LIG 0.24  C 
ATOM      4 O    GLY F   1      -0.137  34.839 -22.440  1.00 49.53 LIG-0.27  OA
ATOM      5 H    HIS F   2      -1.147  32.261 -23.689  1.00 49.83 LIG 0.16  HD
BRANCH 3 6
ATOM      6  CA  GLY F   1      -2.345  34.485 -23.306  1.00 49.90 LIG 0.33  C 
BRANCH 6 7
ATOM      7  N   GLY F   1      -2.422  35.609 -24.285  1.00 49.95 LIG-0.07  N 
ATOM      8 H3   GLY F   1      -2.003  35.378 -25.036  1.00 49.95 LIG 0.27  HD
ATOM      9 H1   GLY F   1      -3.275  35.788 -24.466  1.00 49.95 LIG 0.27  HD
ATOM     10 H2   GLY F   1      -2.035  36.332 -23.940  1.00 49.95 LIG 0.27  HD
ENDBRANCH 6 7
ENDBRANCH 3 6
ENDBRANCH 1 2
BRANCH 1 11
ATOM     11  C   HIS F   2       1.225  32.444 -21.719  1.00 50.00 LIG 0.24  C 
ATOM     12 O    HIS F   2       2.348  32.885 -21.461  1.00 49.82 LIG-0.27  OA
ATOM     13  N   GLY F   3       0.347  32.090 -20.784  1.00 50.02 LIG-0.35  N 
ATOM     14 H    GLY F   3      -0.428  31.759 -20.957  1.00 50.02 LIG 0.16  HD
BRANCH 13 15
ATOM     15  CA  GLY F   3       0.630  32.236 -19.362  1.00 50.20 LIG 0.21  C 
BRANCH 15 16
ATOM     16  C   GLY F   3      -0.189  33.335 -18.714  1.00 50.42 LIG 0.21  C 
ATOM     17 O    GLY F   3      -0.885  34.086 -19.399  1.00 50.69 LIG-0.29  OA
ENDBRANCH 15 16
ENDBRANCH 13 15
ENDBRANCH 1 11
BRANCH 1 18
ATOM     18  CB  HIS F   2       1.739  32.968 -24.123  1.00 49.99 LIG 0.10  C 
BRANCH 18 19
ATOM     19  CG  HIS F   2       3.005  32.197 -24.341  1.00 50.63 LIG 0.06  A 
ATOM     20  CD2 HIS F   2       3.252  31.063 -25.041  1.00 51.31 LIG 0.14  A 
ATOM     21 NE2  HIS F   2       4.595  30.794 -24.919  1.00 51.32 LIG-0.25  NA
ATOM     22  CE1 HIS F   2       5.151  31.726 -24.164  1.00 50.87 LIG 0.23  A 
ATOM     23 ND1  HIS F   2       4.214  32.585 -23.804  1.00 50.82 LIG-0.24  NA
ENDBRANCH 18 19
ENDBRANCH 1 18
TORSDOF 8
ENDMDL
MODEL 50
USER: ADFR SOLUTION from run 179
USER: SCORE 7.485168 LL:  -1.105 LR:  -6.597 RR:   0.000 FEB:  -4.211
USER: RMSD 4.850234
USER: SEED 178
USER: STATUS no improvement in best in 35 clusters for 5 generations
USER: GENES 10
USER: genes 0 Translation |==|  0.58641 0.54949 0.57153
USER: genes 1 Rotation |==|  0.19471 0.82711 0.33963 0.65517
USER: genes 2 Torsion [C]-CA--N-[C] |==|  0.72011
USER: genes 3 Torsion [N]-C--CA-[N] |==|  0.30812
USER: genes 4 Torsion [C]-CA--N-[H3] |==|  0.77666
USER: genes 5 Torsion [N]-CA--C-[N] |==|  0.93285
USER: genes 6 Torsion [C]-N--CA-[C] |==|  0.18844
USER: genes 7 Torsion [N]-CA--C-[O] |==|  0.59979
USER: genes 8 Torsion [N]-CA--CB-[CG] |==|  0.66944
USER: genes 9 Torsion [CA]-CB--CG-[CD2] |==|  0.20287
ROOT
ATOM      1  CA  HIS F   2      -0.182  31.341 -17.885  1.00 49.99 LIG 0.18  C 
ENDROOT
BRANCH 1 2
ATOM      2  N   HIS F   2      -1.529  31.329 -17.313  1.00 49.83 LIG-0.35  N 
ATOM      3  C   GLY F   1      -1.787  31.783 -16.089  1.00 49.82 LIG 0.24  C 
ATOM      4 O    GLY F   1      -0.913  32.192 -15.319  1.00 49.53 LIG-0.27  OA
ATOM      5 H    HIS F   2      -2.129  31.005 -17.836  1.00 49.83 LIG 0.16  HD
BRANCH 3 6
ATOM      6  CA  GLY F   1      -3.247  31.768 -15.669  1.00 49.90 LIG 0.33  C 
BRANCH 6 7
ATOM      7  N   GLY F   1      -3.543  30.767 -14.602  1.00 49.95 LIG-0.07  N 
ATOM      8 H3   GLY F   1      -3.628  29.960 -14.967  1.00 49.95 LIG 0.27  HD
ATOM      9 H1   GLY F   1      -2.877  30.757 -14.011  1.00 49.95 LIG 0.27  HD
ATOM     10 H2   GLY F   1      -4.301  30.987 -14.190  1.00 49.95 LIG 0.27  HD
ENDBRANCH 6 7
ENDBRANCH 3 6
ENDBRANCH 1 2
BRANCH 1 11
ATOM     11  C   HIS F   2      -0.005  32.515 -18.846  1.00 50.00 LIG 0.24  C 
ATOM     12 O    HIS F   2       1.116  32.966 -19.094  1.00 49.82 LIG-0.27  OA
ATOM     13  N   GLY F   3      -1.122  32.994 -19.390  1.00 50.02 LIG-0.35  N 
ATOM     14 H    GLY F   3      -1.908  32.701 -19.202  1.00 50.02 LIG 0.16  HD
BRANCH 13 15
ATOM     15  CA  GLY F   3      -1.105  34.076 -20.366  1.00 50.20 LIG 0.21  C 
BRANCH 15 16
ATOM     16  C   GLY F   3      -0.476  33.664 -21.682  1.00 50.42 LIG 0.21  C 
ATOM     17 O    GLY F   3       0.203  34.460 -22.330  1.00 50.69 LIG-0.29  OA
ENDBRANCH 15 16
ENDBRANCH 13 15
ENDBRANCH 1 11
BRANCH 1 18
ATOM     18  CB  HIS F   2       0.119  30.018 -18.592  1.00 49.99 LIG 0.10  C 
BRANCH 18 19
ATOM     19  CG  HIS F   2       1.280  29.272 -18.010  1.00 50.63 LIG 0.06  A 
ATOM     20  CD2 HIS F   2       1.408  28.580 -16.851  1.00 51.31 LIG 0.14  A 
ATOM     21 NE2  HIS F   2       2.689  28.082 -16.815  1.00 51.32 LIG-0.25  NA
ATOM     22  CE1 HIS F   2       3.328  28.460 -17.909  1.00 50.87 LIG 0.23  A 
ATOM     23 ND1  HIS F   2       2.499  29.178 -18.647  1.00 50.82 LIG-0.24  NA
ENDBRANCH 18 19
ENDBRANCH 1 18
TORSDOF 8
ENDMDL
MODEL 51
USER: ADFR SOLUTION from run 84
USER: SCORE 7.512010 LL:  -1.337 LR:  -6.576 RR:   0.000 FEB:  -4.189
USER: RMSD 5.137635
USER: SEED 83
USER: STATUS no improvement in best in 36 clusters for 5 generations
USER: GENES 10
USER: genes 0 Translation |==|  0.54793 0.51056 0.60115
USER: genes 1 Rotation |==|  0.75477 0.83817 0.66268 0.71041
USER: genes 2 Torsion [C]-CA--N-[C] |==|  0.53393
USER: genes 3 Torsion [N]-C--CA-[N] |==|  0.99522
USER: genes 4 Torsion [C]-CA--N-[H3] |==|  0.58763
USER: genes 5 Torsion [N]-CA--C-[N] |==|  0.39573
USER: genes 6 Torsion [C]-N--CA-[C] |==|  0.68920
USER: genes 7 Torsion [N]-CA--C-[O] |==|  0.86005
USER: genes 8 Torsion [N]-CA--CB-[CG] |==|  0.51413
USER: genes 9 Torsion [CA]-CB--CG-[CD2] |==|  0.26935
ROOT
ATOM      1  CA  HIS F   2      -0.845  30.845 -17.396  1.00 49.99 LIG 0.18  C 
ENDROOT
BRANCH 1 2
ATOM      2  N   HIS F   2      -1.988  31.007 -16.496  1.00 49.83 LIG-0.35  N 
ATOM      3  C   GLY F   1      -3.131  31.564 -16.890  1.00 49.82 LIG 0.24  C 
ATOM      4 O    GLY F   1      -3.301  32.040 -18.016  1.00 49.53 LIG-0.27  OA
ATOM      5 H    HIS F   2      -1.852  30.712 -15.700  1.00 49.83 LIG 0.16  HD
BRANCH 3 6
ATOM      6  CA  GLY F   1      -4.245  31.594 -15.857  1.00 49.90 LIG 0.33  C 
BRANCH 6 7
ATOM      7  N   GLY F   1      -3.870  30.944 -14.567  1.00 49.95 LIG-0.07  N 
ATOM      8 H3   GLY F   1      -4.593  30.579 -14.197  1.00 49.95 LIG 0.27  HD
ATOM      9 H1   GLY F   1      -3.263  30.310 -14.719  1.00 49.95 LIG 0.27  HD
ATOM     10 H2   GLY F   1      -3.530  31.553 -14.015  1.00 49.95 LIG 0.27  HD
ENDBRANCH 6 7
ENDBRANCH 3 6
ENDBRANCH 1 2
BRANCH 1 11
ATOM     11  C   HIS F   2       0.206  29.920 -16.785  1.00 50.00 LIG 0.24  C 
ATOM     12 O    HIS F   2       0.441  29.943 -15.574  1.00 49.82 LIG-0.27  OA
ATOM     13  N   GLY F   3       0.824  29.101 -17.633  1.00 50.02 LIG-0.35  N 
ATOM     14 H    GLY F   3       0.682  29.096 -18.481  1.00 50.02 LIG 0.16  HD
BRANCH 13 15
ATOM     15  CA  GLY F   3       1.810  28.125 -17.187  1.00 50.20 LIG 0.21  C 
BRANCH 15 16
ATOM     16  C   GLY F   3       3.211  28.453 -17.662  1.00 50.42 LIG 0.21  C 
ATOM     17 O    GLY F   3       3.430  28.702 -18.848  1.00 50.69 LIG-0.29  OA
ENDBRANCH 15 16
ENDBRANCH 13 15
ENDBRANCH 1 11
BRANCH 1 18
ATOM     18  CB  HIS F   2      -0.231  32.202 -17.742  1.00 49.99 LIG 0.10  C 
BRANCH 18 19
ATOM     19  CG  HIS F   2       0.870  32.127 -18.755  1.00 50.63 LIG 0.06  A 
ATOM     20  CD2 HIS F   2       0.865  32.321 -20.097  1.00 51.31 LIG 0.14  A 
ATOM     21 NE2  HIS F   2       2.154  32.137 -20.538  1.00 51.32 LIG-0.25  NA
ATOM     22  CE1 HIS F   2       2.922  31.833 -19.506  1.00 50.87 LIG 0.23  A 
ATOM     23 ND1  HIS F   2       2.172  31.823 -18.418  1.00 50.82 LIG-0.24  NA
ENDBRANCH 18 19
ENDBRANCH 1 18
TORSDOF 8
ENDMDL
MODEL 52
USER: ADFR SOLUTION from run 166
USER: SCORE 7.713210 LL:  -1.238 LR:  -6.570 RR:   0.000 FEB:  -4.183
USER: RMSD 3.237423
USER: SEED 165
USER: STATUS no improvement in best in 20 clusters for 5 generations
USER: GENES 10
USER: genes 0 Translation |==|  0.48518 0.70413 0.47425
USER: genes 1 Rotation |==|  0.61999 0.54334 0.51106 0.98332
USER: genes 2 Torsion [C]-CA--N-[C] |==|  0.74450
USER: genes 3 Torsion [N]-C--CA-[N] |==|  0.16182
USER: genes 4 Torsion [C]-CA--N-[H3] |==|  0.17542
USER: genes 5 Torsion [N]-CA--C-[N] |==|  0.45539
USER: genes 6 Torsion [C]-N--CA-[C] |==|  0.52181
USER: genes 7 Torsion [N]-CA--C-[O] |==|  0.23195
USER: genes 8 Torsion [N]-CA--CB-[CG] |==|  0.53105
USER: genes 9 Torsion [CA]-CB--CG-[CD2] |==|  0.21746
ROOT
ATOM      1  CA  HIS F   2      -1.928  33.313 -19.490  1.00 49.99 LIG 0.18  C 
ENDROOT
BRANCH 1 2
ATOM      2  N   HIS F   2      -2.095  34.283 -20.573  1.00 49.83 LIG-0.35  N 
ATOM      3  C   GLY F   1      -2.856  34.038 -21.637  1.00 49.82 LIG 0.24  C 
ATOM      4 O    GLY F   1      -3.430  32.962 -21.827  1.00 49.53 LIG-0.27  OA
ATOM      5 H    HIS F   2      -1.661  35.016 -20.457  1.00 49.83 LIG 0.16  HD
BRANCH 3 6
ATOM      6  CA  GLY F   1      -2.984  35.174 -22.638  1.00 49.90 LIG 0.33  C 
BRANCH 6 7
ATOM      7  N   GLY F   1      -1.672  35.623 -23.189  1.00 49.95 LIG-0.07  N 
ATOM      8 H3   GLY F   1      -1.297  34.956 -23.644  1.00 49.95 LIG 0.27  HD
ATOM      9 H1   GLY F   1      -1.800  36.317 -23.733  1.00 49.95 LIG 0.27  HD
ATOM     10 H2   GLY F   1      -1.136  35.865 -22.522  1.00 49.95 LIG 0.27  HD
ENDBRANCH 6 7
ENDBRANCH 3 6
ENDBRANCH 1 2
BRANCH 1 11
ATOM     11  C   HIS F   2      -2.959  33.541 -18.386  1.00 50.00 LIG 0.24  C 
ATOM     12 O    HIS F   2      -3.597  34.595 -18.325  1.00 49.82 LIG-0.27  OA
ATOM     13  N   GLY F   3      -3.122  32.538 -17.526  1.00 50.02 LIG-0.35  N 
ATOM     14 H    GLY F   3      -2.663  31.811 -17.548  1.00 50.02 LIG 0.16  HD
BRANCH 13 15
ATOM     15  CA  GLY F   3      -4.108  32.590 -16.455  1.00 50.20 LIG 0.21  C 
BRANCH 15 16
ATOM     16  C   GLY F   3      -3.985  31.426 -15.491  1.00 50.42 LIG 0.21  C 
ATOM     17 O    GLY F   3      -3.172  31.460 -14.567  1.00 50.69 LIG-0.29  OA
ENDBRANCH 15 16
ENDBRANCH 13 15
ENDBRANCH 1 11
BRANCH 1 18
ATOM     18  CB  HIS F   2      -0.509  33.375 -18.921  1.00 49.99 LIG 0.10  C 
BRANCH 18 19
ATOM     19  CG  HIS F   2      -0.178  32.243 -17.998  1.00 50.63 LIG 0.06  A 
ATOM     20  CD2 HIS F   2       0.164  30.956 -18.248  1.00 51.31 LIG 0.14  A 
ATOM     21 NE2  HIS F   2       0.373  30.347 -17.034  1.00 51.32 LIG-0.25  NA
ATOM     22  CE1 HIS F   2       0.159  31.227 -16.071  1.00 50.87 LIG 0.23  A 
ATOM     23 ND1  HIS F   2      -0.172  32.379 -16.625  1.00 50.82 LIG-0.24  NA
ENDBRANCH 18 19
ENDBRANCH 1 18
TORSDOF 8
ENDMDL
MODEL 53
USER: ADFR SOLUTION from run 158
USER: SCORE 7.816958 LL:  -1.331 LR:  -6.566 RR:   0.000 FEB:  -4.179
USER: RMSD 6.930680
USER: SEED 157
USER: STATUS no improvement in best in 33 clusters for 5 generations
USER: GENES 10
USER: genes 0 Translation |==|  0.65226 0.51907 0.65195
USER: genes 1 Rotation |==|  0.37491 0.05332 0.58065 0.66830
USER: genes 2 Torsion [C]-CA--N-[C] |==|  0.81172
USER: genes 3 Torsion [N]-C--CA-[N] |==|  0.33943
USER: genes 4 Torsion [C]-CA--N-[H3] |==|  0.43813
USER: genes 5 Torsion [N]-CA--C-[N] |==|  0.87893
USER: genes 6 Torsion [C]-N--CA-[C] |==|  0.77681
USER: genes 7 Torsion [N]-CA--C-[O] |==|  0.52750
USER: genes 8 Torsion [N]-CA--CB-[CG] |==|  0.34755
USER: genes 9 Torsion [CA]-CB--CG-[CD2] |==|  0.25710
ROOT
ATOM      1  CA  HIS F   2       0.955  30.953 -16.558  1.00 49.99 LIG 0.18  C 
ENDROOT
BRANCH 1 2
ATOM      2  N   HIS F   2       1.984  31.460 -15.650  1.00 49.83 LIG-0.35  N 
ATOM      3  C   GLY F   1       3.059  30.746 -15.322  1.00 49.82 LIG 0.24  C 
ATOM      4 O    GLY F   1       3.246  29.588 -15.704  1.00 49.53 LIG-0.27  OA
ATOM      5 H    HIS F   2       1.831  32.252 -15.353  1.00 49.83 LIG 0.16  HD
BRANCH 3 6
ATOM      6  CA  GLY F   1       4.070  31.442 -14.426  1.00 49.90 LIG 0.33  C 
BRANCH 6 7
ATOM      7  N   GLY F   1       4.328  30.710 -13.151  1.00 49.95 LIG-0.07  N 
ATOM      8 H3   GLY F   1       5.119  30.953 -12.824  1.00 49.95 LIG 0.27  HD
ATOM      9 H1   GLY F   1       3.690  30.907 -12.561  1.00 49.95 LIG 0.27  HD
ATOM     10 H2   GLY F   1       4.328  29.834 -13.305  1.00 49.95 LIG 0.27  HD
ENDBRANCH 6 7
ENDBRANCH 3 6
ENDBRANCH 1 2
BRANCH 1 11
ATOM     11  C   HIS F   2       1.498  30.815 -17.979  1.00 50.00 LIG 0.24  C 
ATOM     12 O    HIS F   2       1.240  29.820 -18.660  1.00 49.82 LIG-0.27  OA
ATOM     13  N   GLY F   3       2.242  31.828 -18.418  1.00 50.02 LIG-0.35  N 
ATOM     14 H    GLY F   3       2.446  32.513 -17.940  1.00 50.02 LIG 0.16  HD
BRANCH 13 15
ATOM     15  CA  GLY F   3       2.782  31.861 -19.771  1.00 50.20 LIG 0.21  C 
BRANCH 15 16
ATOM     16  C   GLY F   3       4.036  31.022 -19.919  1.00 50.42 LIG 0.21  C 
ATOM     17 O    GLY F   3       4.716  31.085 -20.943  1.00 50.69 LIG-0.29  OA
ENDBRANCH 15 16
ENDBRANCH 13 15
ENDBRANCH 1 11
BRANCH 1 18
ATOM     18  CB  HIS F   2      -0.278  31.859 -16.539  1.00 49.99 LIG 0.10  C 
BRANCH 18 19
ATOM     19  CG  HIS F   2      -0.682  32.357 -17.893  1.00 50.63 LIG 0.06  A 
ATOM     20  CD2 HIS F   2      -1.557  31.864 -18.803  1.00 51.31 LIG 0.14  A 
ATOM     21 NE2  HIS F   2      -1.554  32.723 -19.876  1.00 51.32 LIG-0.25  NA
ATOM     22  CE1 HIS F   2      -0.703  33.705 -19.638  1.00 50.87 LIG 0.23  A 
ATOM     23 ND1  HIS F   2      -0.164  33.509 -18.447  1.00 50.82 LIG-0.24  NA
ENDBRANCH 18 19
ENDBRANCH 1 18
TORSDOF 8
ENDMDL
MODEL 54
USER: ADFR SOLUTION from run 161
USER: SCORE 7.633527 LL:  -1.101 LR:  -6.553 RR:   0.000 FEB:  -4.166
USER: RMSD 6.581584
USER: SEED 160
USER: STATUS no improvement in best in 30 clusters for 5 generations
USER: GENES 10
USER: genes 0 Translation |==|  0.73618 0.51695 0.43079
USER: genes 1 Rotation |==|  0.17634 0.64159 0.16167 0.60359
USER: genes 2 Torsion [C]-CA--N-[C] |==|  0.72814
USER: genes 3 Torsion [N]-C--CA-[N] |==|  0.92369
USER: genes 4 Torsion [C]-CA--N-[H3] |==|  0.34075
USER: genes 5 Torsion [N]-CA--C-[N] |==|  0.01667
USER: genes 6 Torsion [C]-N--CA-[C] |==|  0.78686
USER: genes 7 Torsion [N]-CA--C-[O] |==|  0.22007
USER: genes 8 Torsion [N]-CA--CB-[CG] |==|  0.88006
USER: genes 9 Torsion [CA]-CB--CG-[CD2] |==|  0.43251
ROOT
ATOM      1  CA  HIS F   2       2.402  30.926 -20.207  1.00 49.99 LIG 0.18  C 
ENDROOT
BRANCH 1 2
ATOM      2  N   HIS F   2       0.957  30.768 -20.372  1.00 49.83 LIG-0.35  N 
ATOM      3  C   GLY F   1       0.110  31.789 -20.252  1.00 49.82 LIG 0.24  C 
ATOM      4 O    GLY F   1       0.463  32.929 -19.937  1.00 49.53 LIG-0.27  OA
ATOM      5 H    HIS F   2       0.710  29.965 -20.551  1.00 49.83 LIG 0.16  HD
BRANCH 3 6
ATOM      6  CA  GLY F   1      -1.351  31.475 -20.523  1.00 49.90 LIG 0.33  C 
BRANCH 6 7
ATOM      7  N   GLY F   1      -1.543  30.335 -21.467  1.00 49.95 LIG-0.07  N 
ATOM      8 H3   GLY F   1      -2.035  29.705 -21.076  1.00 49.95 LIG 0.27  HD
ATOM      9 H1   GLY F   1      -1.959  30.623 -22.200  1.00 49.95 LIG 0.27  HD
ATOM     10 H2   GLY F   1      -0.751  29.997 -21.690  1.00 49.95 LIG 0.27  HD
ENDBRANCH 6 7
ENDBRANCH 3 6
ENDBRANCH 1 2
BRANCH 1 11
ATOM     11  C   HIS F   2       3.096  31.063 -21.561  1.00 50.00 LIG 0.24  C 
ATOM     12 O    HIS F   2       4.326  31.085 -21.642  1.00 49.82 LIG-0.27  OA
ATOM     13  N   GLY F   3       2.293  31.143 -22.620  1.00 50.02 LIG-0.35  N 
ATOM     14 H    GLY F   3       1.435  31.153 -22.569  1.00 50.02 LIG 0.16  HD
BRANCH 13 15
ATOM     15  CA  GLY F   3       2.812  31.222 -23.980  1.00 50.20 LIG 0.21  C 
BRANCH 15 16
ATOM     16  C   GLY F   3       3.340  32.601 -24.323  1.00 50.42 LIG 0.21  C 
ATOM     17 O    GLY F   3       4.454  32.960 -23.940  1.00 50.69 LIG-0.29  OA
ENDBRANCH 15 16
ENDBRANCH 13 15
ENDBRANCH 1 11
BRANCH 1 18
ATOM     18  CB  HIS F   2       2.989  29.753 -19.419  1.00 49.99 LIG 0.10  C 
BRANCH 18 19
ATOM     19  CG  HIS F   2       2.168  29.352 -18.233  1.00 50.63 LIG 0.06  A 
ATOM     20  CD2 HIS F   2       2.076  28.176 -17.565  1.00 51.31 LIG 0.14  A 
ATOM     21 NE2  HIS F   2       1.177  28.358 -16.541  1.00 51.32 LIG-0.25  NA
ATOM     22  CE1 HIS F   2       0.726  29.600 -16.582  1.00 50.87 LIG 0.23  A 
ATOM     23 ND1  HIS F   2       1.310  30.222 -17.592  1.00 50.82 LIG-0.24  NA
ENDBRANCH 18 19
ENDBRANCH 1 18
TORSDOF 8
ENDMDL
MODEL 55
USER: ADFR SOLUTION from run 111
USER: SCORE 7.152819 LL:  -1.216 LR:  -6.551 RR:   0.000 FEB:  -4.165
USER: RMSD 3.822134
USER: SEED 110
USER: STATUS no improvement in best in 29 clusters for 5 generations
USER: GENES 10
USER: genes 0 Translation |==|  0.48591 0.58679 0.69053
USER: genes 1 Rotation |==|  0.14057 0.51343 0.78322 0.70104
USER: genes 2 Torsion [C]-CA--N-[C] |==|  0.61209
USER: genes 3 Torsion [N]-C--CA-[N] |==|  0.94037
USER: genes 4 Torsion [C]-CA--N-[H3] |==|  0.38234
USER: genes 5 Torsion [N]-CA--C-[N] |==|  0.80037
USER: genes 6 Torsion [C]-N--CA-[C] |==|  0.60478
USER: genes 7 Torsion [N]-CA--C-[O] |==|  0.99458
USER: genes 8 Torsion [N]-CA--CB-[CG] |==|  0.94258
USER: genes 9 Torsion [CA]-CB--CG-[CD2] |==|  0.69539
ROOT
ATOM      1  CA  HIS F   2      -1.915  31.817 -15.921  1.00 49.99 LIG 0.18  C 
ENDROOT
BRANCH 1 2
ATOM      2  N   HIS F   2      -0.933  30.753 -16.137  1.00 49.83 LIG-0.35  N 
ATOM      3  C   GLY F   1       0.358  30.907 -15.852  1.00 49.82 LIG 0.24  C 
ATOM      4 O    GLY F   1       0.840  31.967 -15.444  1.00 49.53 LIG-0.27  OA
ATOM      5 H    HIS F   2      -1.265  30.029 -16.460  1.00 49.83 LIG 0.16  HD
BRANCH 3 6
ATOM      6  CA  GLY F   1       1.236  29.685 -16.065  1.00 49.90 LIG 0.33  C 
BRANCH 6 7
ATOM      7  N   GLY F   1       0.470  28.404 -16.065  1.00 49.95 LIG-0.07  N 
ATOM      8 H3   GLY F   1       0.770  27.879 -16.718  1.00 49.95 LIG 0.27  HD
ATOM      9 H1   GLY F   1       0.578  27.993 -15.282  1.00 49.95 LIG 0.27  HD
ATOM     10 H2   GLY F   1      -0.393  28.573 -16.194  1.00 49.95 LIG 0.27  HD
ENDBRANCH 6 7
ENDBRANCH 3 6
ENDBRANCH 1 2
BRANCH 1 11
ATOM     11  C   HIS F   2      -3.219  31.252 -15.361  1.00 50.00 LIG 0.24  C 
ATOM     12 O    HIS F   2      -3.547  31.460 -14.190  1.00 49.82 LIG-0.27  OA
ATOM     13  N   GLY F   3      -3.961  30.548 -16.213  1.00 50.02 LIG-0.35  N 
ATOM     14 H    GLY F   3      -3.727  30.378 -17.023  1.00 50.02 LIG 0.16  HD
BRANCH 13 15
ATOM     15  CA  GLY F   3      -5.256  29.994 -15.837  1.00 50.20 LIG 0.21  C 
BRANCH 15 16
ATOM     16  C   GLY F   3      -5.502  28.626 -16.440  1.00 50.42 LIG 0.21  C 
ATOM     17 O    GLY F   3      -4.672  28.111 -17.190  1.00 50.69 LIG-0.29  OA
ENDBRANCH 15 16
ENDBRANCH 13 15
ENDBRANCH 1 11
BRANCH 1 18
ATOM     18  CB  HIS F   2      -2.175  32.585 -17.218  1.00 49.99 LIG 0.10  C 
BRANCH 18 19
ATOM     19  CG  HIS F   2      -1.083  32.443 -18.234  1.00 50.63 LIG 0.06  A 
ATOM     20  CD2 HIS F   2      -0.164  33.329 -18.688  1.00 51.31 LIG 0.14  A 
ATOM     21 NE2  HIS F   2       0.611  32.672 -19.614  1.00 51.32 LIG-0.25  NA
ATOM     22  CE1 HIS F   2       0.179  31.428 -19.730  1.00 50.87 LIG 0.23  A 
ATOM     23 ND1  HIS F   2      -0.841  31.264 -18.907  1.00 50.82 LIG-0.24  NA
ENDBRANCH 18 19
ENDBRANCH 1 18
TORSDOF 8
ENDMDL
MODEL 56
USER: ADFR SOLUTION from run 103
USER: SCORE 7.146837 LL:  -1.172 LR:  -6.536 RR:   0.000 FEB:  -4.149
USER: RMSD 3.197237
USER: SEED 102
USER: STATUS no improvement in best in 22 clusters for 5 generations
USER: GENES 10
USER: genes 0 Translation |==|  0.61260 0.59085 0.47010
USER: genes 1 Rotation |==|  0.70840 0.62431 0.55759 0.93336
USER: genes 2 Torsion [C]-CA--N-[C] |==|  0.63335
USER: genes 3 Torsion [N]-C--CA-[N] |==|  0.34705
USER: genes 4 Torsion [C]-CA--N-[H3] |==|  0.02324
USER: genes 5 Torsion [N]-CA--C-[N] |==|  0.81270
USER: genes 6 Torsion [C]-N--CA-[C] |==|  0.81933
USER: genes 7 Torsion [N]-CA--C-[O] |==|  0.49355
USER: genes 8 Torsion [N]-CA--CB-[CG] |==|  0.49588
USER: genes 9 Torsion [CA]-CB--CG-[CD2] |==|  0.64732
ROOT
ATOM      1  CA  HIS F   2       0.270  31.868 -19.558  1.00 49.99 LIG 0.18  C 
ENDROOT
BRANCH 1 2
ATOM      2  N   HIS F   2      -0.400  33.067 -20.064  1.00 49.83 LIG-0.35  N 
ATOM      3  C   GLY F   1      -0.792  33.183 -21.331  1.00 49.82 LIG 0.24  C 
ATOM      4 O    GLY F   1      -0.571  32.325 -22.190  1.00 49.53 LIG-0.27  OA
ATOM      5 H    HIS F   2      -0.516  33.680 -19.473  1.00 49.83 LIG 0.16  HD
BRANCH 3 6
ATOM      6  CA  GLY F   1      -1.538  34.460 -21.681  1.00 49.90 LIG 0.33  C 
BRANCH 6 7
ATOM      7  N   GLY F   1      -0.922  35.210 -22.815  1.00 49.95 LIG-0.07  N 
ATOM      8 H3   GLY F   1      -0.278  34.717 -23.182  1.00 49.95 LIG 0.27  HD
ATOM      9 H1   GLY F   1      -1.544  35.388 -23.426  1.00 49.95 LIG 0.27  HD
ATOM     10 H2   GLY F   1      -0.576  35.972 -22.514  1.00 49.95 LIG 0.27  HD
ENDBRANCH 6 7
ENDBRANCH 3 6
ENDBRANCH 1 2
BRANCH 1 11
ATOM     11  C   HIS F   2      -0.364  31.396 -18.251  1.00 50.00 LIG 0.24  C 
ATOM     12 O    HIS F   2      -0.976  30.327 -18.196  1.00 49.82 LIG-0.27  OA
ATOM     13  N   GLY F   3      -0.201  32.200 -17.202  1.00 50.02 LIG-0.35  N 
ATOM     14 H    GLY F   3       0.203  32.958 -17.240  1.00 50.02 LIG 0.16  HD
BRANCH 13 15
ATOM     15  CA  GLY F   3      -0.703  31.855 -15.878  1.00 50.20 LIG 0.21  C 
BRANCH 15 16
ATOM     16  C   GLY F   3      -2.216  31.782 -15.829  1.00 50.42 LIG 0.21  C 
ATOM     17 O    GLY F   3      -2.796  31.460 -14.792  1.00 50.69 LIG-0.29  OA
ENDBRANCH 15 16
ENDBRANCH 13 15
ENDBRANCH 1 11
BRANCH 1 18
ATOM     18  CB  HIS F   2       1.767  32.124 -19.368  1.00 49.99 LIG 0.10  C 
BRANCH 18 19
ATOM     19  CG  HIS F   2       2.515  30.949 -18.818  1.00 50.63 LIG 0.06  A 
ATOM     20  CD2 HIS F   2       3.340  30.836 -17.749  1.00 51.31 LIG 0.14  A 
ATOM     21 NE2  HIS F   2       3.750  29.525 -17.689  1.00 51.32 LIG-0.25  NA
ATOM     22  CE1 HIS F   2       3.202  28.858 -18.690  1.00 50.87 LIG 0.23  A 
ATOM     23 ND1  HIS F   2       2.451  29.694 -19.385  1.00 50.82 LIG-0.24  NA
ENDBRANCH 18 19
ENDBRANCH 1 18
TORSDOF 8
ENDMDL
MODEL 57
USER: ADFR SOLUTION from run 6
USER: SCORE 7.571436 LL:  -1.088 LR:  -6.541 RR:   0.000 FEB:  -4.155
USER: RMSD 5.480947
USER: SEED 119389
USER: STATUS no improvement in best in 42 clusters for 5 generations
USER: GENES 10
USER: genes 0 Translation |==|  0.55217 0.56884 0.53743
USER: genes 1 Rotation |==|  0.72793 0.84128 0.69778 0.70605
USER: genes 2 Torsion [C]-CA--N-[C] |==|  0.15199
USER: genes 3 Torsion [N]-C--CA-[N] |==|  0.30596
USER: genes 4 Torsion [C]-CA--N-[H3] |==|  0.12473
USER: genes 5 Torsion [N]-CA--C-[N] |==|  0.10007
USER: genes 6 Torsion [C]-N--CA-[C] |==|  0.81503
USER: genes 7 Torsion [N]-CA--C-[O] |==|  0.39813
USER: genes 8 Torsion [N]-CA--CB-[CG] |==|  0.62496
USER: genes 9 Torsion [CA]-CB--CG-[CD2] |==|  0.28557
ROOT
ATOM      1  CA  HIS F   2      -0.772  31.588 -18.447  1.00 49.99 LIG 0.18  C 
ENDROOT
BRANCH 1 2
ATOM      2  N   HIS F   2      -1.999  31.532 -17.651  1.00 49.83 LIG-0.35  N 
ATOM      3  C   GLY F   1      -2.030  31.879 -16.366  1.00 49.82 LIG 0.24  C 
ATOM      4 O    GLY F   1      -1.027  32.215 -15.730  1.00 49.53 LIG-0.27  OA
ATOM      5 H    HIS F   2      -2.688  31.259 -18.086  1.00 49.83 LIG 0.16  HD
BRANCH 3 6
ATOM      6  CA  GLY F   1      -3.394  31.835 -15.699  1.00 49.90 LIG 0.33  C 
BRANCH 6 7
ATOM      7  N   GLY F   1      -3.525  30.735 -14.699  1.00 49.95 LIG-0.07  N 
ATOM      8 H3   GLY F   1      -2.797  30.710 -14.188  1.00 49.95 LIG 0.27  HD
ATOM      9 H1   GLY F   1      -4.240  30.881 -14.189  1.00 49.95 LIG 0.27  HD
ATOM     10 H2   GLY F   1      -3.617  29.957 -15.122  1.00 49.95 LIG 0.27  HD
ENDBRANCH 6 7
ENDBRANCH 3 6
ENDBRANCH 1 2
BRANCH 1 11
ATOM     11  C   HIS F   2       0.346  30.784 -17.786  1.00 50.00 LIG 0.24  C 
ATOM     12 O    HIS F   2       1.516  31.173 -17.833  1.00 49.82 LIG-0.27  OA
ATOM     13  N   GLY F   3      -0.028  29.670 -17.162  1.00 50.02 LIG-0.35  N 
ATOM     14 H    GLY F   3      -0.838  29.381 -17.146  1.00 50.02 LIG 0.16  HD
BRANCH 13 15
ATOM     15  CA  GLY F   3       0.920  28.831 -16.440  1.00 50.20 LIG 0.21  C 
BRANCH 15 16
ATOM     16  C   GLY F   3       1.930  28.171 -17.357  1.00 50.42 LIG 0.21  C 
ATOM     17 O    GLY F   3       3.098  28.018 -16.998  1.00 50.69 LIG-0.29  OA
ENDBRANCH 15 16
ENDBRANCH 13 15
ENDBRANCH 1 11
BRANCH 1 18
ATOM     18  CB  HIS F   2      -0.335  33.037 -18.669  1.00 49.99 LIG 0.10  C 
BRANCH 18 19
ATOM     19  CG  HIS F   2       0.073  33.336 -20.079  1.00 50.63 LIG 0.06  A 
ATOM     20  CD2 HIS F   2      -0.576  33.977 -21.081  1.00 51.31 LIG 0.14  A 
ATOM     21 NE2  HIS F   2       0.262  33.982 -22.171  1.00 51.32 LIG-0.25  NA
ATOM     22  CE1 HIS F   2       1.383  33.360 -21.852  1.00 50.87 LIG 0.23  A 
ATOM     23 ND1  HIS F   2       1.296  32.962 -20.595  1.00 50.82 LIG-0.24  NA
ENDBRANCH 18 19
ENDBRANCH 1 18
TORSDOF 8
ENDMDL
MODEL 58
USER: ADFR SOLUTION from run 198
USER: SCORE 7.397930 LL:  -1.154 LR:  -6.539 RR:   0.000 FEB:  -4.152
USER: RMSD 4.638292
USER: SEED 197
USER: STATUS no improvement in best in 20 clusters for 5 generations
USER: GENES 10
USER: genes 0 Translation |==|  0.59242 0.54056 0.65393
USER: genes 1 Rotation |==|  0.11007 0.66054 0.24269 0.57729
USER: genes 2 Torsion [C]-CA--N-[C] |==|  0.85203
USER: genes 3 Torsion [N]-C--CA-[N] |==|  0.09340
USER: genes 4 Torsion [C]-CA--N-[H3] |==|  0.79235
USER: genes 5 Torsion [N]-CA--C-[N] |==|  0.32963
USER: genes 6 Torsion [C]-N--CA-[C] |==|  0.29729
USER: genes 7 Torsion [N]-CA--C-[O] |==|  0.98925
USER: genes 8 Torsion [N]-CA--CB-[CG] |==|  0.60120
USER: genes 9 Torsion [CA]-CB--CG-[CD2] |==|  0.13000
ROOT
ATOM      1  CA  HIS F   2      -0.078  31.227 -16.525  1.00 49.99 LIG 0.18  C 
ENDROOT
BRANCH 1 2
ATOM      2  N   HIS F   2      -1.454  31.035 -16.065  1.00 49.83 LIG-0.35  N 
ATOM      3  C   GLY F   1      -2.433  31.881 -16.376  1.00 49.82 LIG 0.24  C 
ATOM      4 O    GLY F   1      -2.255  32.918 -17.020  1.00 49.53 LIG-0.27  OA
ATOM      5 H    HIS F   2      -1.567  30.333 -15.582  1.00 49.83 LIG 0.16  HD
BRANCH 3 6
ATOM      6  CA  GLY F   1      -3.819  31.502 -15.882  1.00 49.90 LIG 0.33  C 
BRANCH 6 7
ATOM      7  N   GLY F   1      -3.803  30.792 -14.569  1.00 49.95 LIG-0.07  N 
ATOM      8 H3   GLY F   1      -3.523  29.955 -14.688  1.00 49.95 LIG 0.27  HD
ATOM      9 H1   GLY F   1      -3.252  31.212 -14.011  1.00 49.95 LIG 0.27  HD
ATOM     10 H2   GLY F   1      -4.623  30.783 -14.225  1.00 49.95 LIG 0.27  HD
ENDBRANCH 6 7
ENDBRANCH 3 6
ENDBRANCH 1 2
BRANCH 1 11
ATOM     11  C   HIS F   2      -0.027  31.402 -18.042  1.00 50.00 LIG 0.24  C 
ATOM     12 O    HIS F   2      -0.426  30.511 -18.795  1.00 49.82 LIG-0.27  OA
ATOM     13  N   GLY F   3       0.457  32.563 -18.478  1.00 50.02 LIG-0.35  N 
ATOM     14 H    GLY F   3       0.760  33.179 -17.959  1.00 50.02 LIG 0.16  HD
BRANCH 13 15
ATOM     15  CA  GLY F   3       0.515  32.894 -19.896  1.00 50.20 LIG 0.21  C 
BRANCH 15 16
ATOM     16  C   GLY F   3      -0.519  33.928 -20.296  1.00 50.42 LIG 0.21  C 
ATOM     17 O    GLY F   3      -1.340  34.344 -19.478  1.00 50.69 LIG-0.29  OA
ENDBRANCH 15 16
ENDBRANCH 13 15
ENDBRANCH 1 11
BRANCH 1 18
ATOM     18  CB  HIS F   2       0.808  30.058 -16.089  1.00 49.99 LIG 0.10  C 
BRANCH 18 19
ATOM     19  CG  HIS F   2       2.200  30.463 -15.715  1.00 50.63 LIG 0.06  A 
ATOM     20  CD2 HIS F   2       2.659  31.467 -14.929  1.00 51.31 LIG 0.14  A 
ATOM     21 NE2  HIS F   2       4.031  31.379 -14.916  1.00 51.32 LIG-0.25  NA
ATOM     22  CE1 HIS F   2       4.403  30.362 -15.673  1.00 50.87 LIG 0.23  A 
ATOM     23 ND1  HIS F   2       3.317  29.791 -16.165  1.00 50.82 LIG-0.24  NA
ENDBRANCH 18 19
ENDBRANCH 1 18
TORSDOF 8
ENDMDL
MODEL 59
USER: ADFR SOLUTION from run 28
USER: SCORE 7.525680 LL:  -1.194 LR:  -6.518 RR:   0.000 FEB:  -4.132
USER: RMSD 4.492710
USER: SEED 27
USER: STATUS no improvement in best in 20 clusters for 5 generations
USER: GENES 10
USER: genes 0 Translation |==|  0.57000 0.70743 0.37379
USER: genes 1 Rotation |==|  0.65087 0.69015 0.46502 0.93573
USER: genes 2 Torsion [C]-CA--N-[C] |==|  0.69456
USER: genes 3 Torsion [N]-C--CA-[N] |==|  0.25332
USER: genes 4 Torsion [C]-CA--N-[H3] |==|  0.01385
USER: genes 5 Torsion [N]-CA--C-[N] |==|  0.32596
USER: genes 6 Torsion [C]-N--CA-[C] |==|  0.79024
USER: genes 7 Torsion [N]-CA--C-[O] |==|  0.45659
USER: genes 8 Torsion [N]-CA--CB-[CG] |==|  0.50325
USER: genes 9 Torsion [CA]-CB--CG-[CD2] |==|  0.09052
ROOT
ATOM      1  CA  HIS F   2      -0.464  33.355 -21.147  1.00 49.99 LIG 0.18  C 
ENDROOT
BRANCH 1 2
ATOM      2  N   HIS F   2      -1.160  34.469 -21.793  1.00 49.83 LIG-0.35  N 
ATOM      3  C   GLY F   1      -2.267  34.297 -22.512  1.00 49.82 LIG 0.24  C 
ATOM      4 O    GLY F   1      -2.761  33.190 -22.742  1.00 49.53 LIG-0.27  OA
ATOM      5 H    HIS F   2      -0.791  35.235 -21.664  1.00 49.83 LIG 0.16  HD
BRANCH 3 6
ATOM      6  CA  GLY F   1      -2.909  35.562 -23.056  1.00 49.90 LIG 0.33  C 
BRANCH 6 7
ATOM      7  N   GLY F   1      -2.422  35.931 -24.417  1.00 49.95 LIG-0.07  N 
ATOM      8 H3   GLY F   1      -1.877  35.296 -24.720  1.00 49.95 LIG 0.27  HD
ATOM      9 H1   GLY F   1      -3.116  36.014 -24.969  1.00 49.95 LIG 0.27  HD
ATOM     10 H2   GLY F   1      -1.983  36.704 -24.377  1.00 49.95 LIG 0.27  HD
ENDBRANCH 6 7
ENDBRANCH 3 6
ENDBRANCH 1 2
BRANCH 1 11
ATOM     11  C   HIS F   2      -0.615  33.421 -19.629  1.00 50.00 LIG 0.24  C 
ATOM     12 O    HIS F   2      -0.170  34.379 -18.991  1.00 49.82 LIG-0.27  OA
ATOM     13  N   GLY F   3      -1.255  32.401 -19.062  1.00 50.02 LIG-0.35  N 
ATOM     14 H    GLY F   3      -1.546  31.719 -19.498  1.00 50.02 LIG 0.16  HD
BRANCH 13 15
ATOM     15  CA  GLY F   3      -1.522  32.354 -17.630  1.00 50.20 LIG 0.21  C 
BRANCH 15 16
ATOM     16  C   GLY F   3      -0.288  32.013 -16.819  1.00 50.42 LIG 0.21  C 
ATOM     17 O    GLY F   3      -0.262  32.209 -15.603  1.00 50.69 LIG-0.29  OA
ENDBRANCH 15 16
ENDBRANCH 13 15
ENDBRANCH 1 11
BRANCH 1 18
ATOM     18  CB  HIS F   2       1.014  33.338 -21.541  1.00 49.99 LIG 0.10  C 
BRANCH 18 19
ATOM     19  CG  HIS F   2       1.786  32.205 -20.939  1.00 50.63 LIG 0.06  A 
ATOM     20  CD2 HIS F   2       1.417  30.940 -20.621  1.00 51.31 LIG 0.14  A 
ATOM     21 NE2  HIS F   2       2.525  30.311 -20.104  1.00 51.32 LIG-0.25  NA
ATOM     22  CE1 HIS F   2       3.537  31.162 -20.097  1.00 50.87 LIG 0.23  A 
ATOM     23 ND1  HIS F   2       3.119  32.311 -20.598  1.00 50.82 LIG-0.24  NA
ENDBRANCH 18 19
ENDBRANCH 1 18
TORSDOF 8
ENDMDL
MODEL 60
USER: ADFR SOLUTION from run 121
USER: SCORE 7.661046 LL:  -1.238 LR:  -6.497 RR:   0.000 FEB:  -4.110
USER: RMSD 7.919684
USER: SEED 120
USER: STATUS no improvement in best in 29 clusters for 5 generations
USER: GENES 10
USER: genes 0 Translation |==|  0.71335 0.62947 0.28908
USER: genes 1 Rotation |==|  0.26011 0.61741 0.08721 0.59094
USER: genes 2 Torsion [C]-CA--N-[C] |==|  0.68889
USER: genes 3 Torsion [N]-C--CA-[N] |==|  0.67599
USER: genes 4 Torsion [C]-CA--N-[H3] |==|  0.12970
USER: genes 5 Torsion [N]-CA--C-[N] |==|  0.02559
USER: genes 6 Torsion [C]-N--CA-[C] |==|  0.19340
USER: genes 7 Torsion [N]-CA--C-[O] |==|  0.99496
USER: genes 8 Torsion [N]-CA--CB-[CG] |==|  0.77840
USER: genes 9 Torsion [CA]-CB--CG-[CD2] |==|  0.46553
ROOT
ATOM      1  CA  HIS F   2       2.008  32.361 -22.545  1.00 49.99 LIG 0.18  C 
ENDROOT
BRANCH 1 2
ATOM      2  N   HIS F   2       0.749  32.328 -23.290  1.00 49.83 LIG-0.35  N 
ATOM      3  C   GLY F   1      -0.049  33.390 -23.387  1.00 49.82 LIG 0.24  C 
ATOM      4 O    GLY F   1       0.174  34.460 -22.815  1.00 49.53 LIG-0.27  OA
ATOM      5 H    HIS F   2       0.576  31.569 -23.654  1.00 49.83 LIG 0.16  HD
BRANCH 3 6
ATOM      6  CA  GLY F   1      -1.284  33.215 -24.255  1.00 49.90 LIG 0.33  C 
BRANCH 6 7
ATOM      7  N   GLY F   1      -1.297  34.112 -25.448  1.00 49.95 LIG-0.07  N 
ATOM      8 H3   GLY F   1      -0.504  34.083 -25.850  1.00 49.95 LIG 0.27  HD
ATOM      9 H1   GLY F   1      -1.927  33.842 -26.015  1.00 49.95 LIG 0.27  HD
ATOM     10 H2   GLY F   1      -1.468  34.947 -25.190  1.00 49.95 LIG 0.27  HD
ENDBRANCH 6 7
ENDBRANCH 3 6
ENDBRANCH 1 2
BRANCH 1 11
ATOM     11  C   HIS F   2       3.205  32.240 -23.488  1.00 50.00 LIG 0.24  C 
ATOM     12 O    HIS F   2       4.343  32.068 -23.045  1.00 49.82 LIG-0.27  OA
ATOM     13  N   GLY F   3       2.931  32.321 -24.788  1.00 50.02 LIG-0.35  N 
ATOM     14 H    GLY F   3       2.144  32.465 -25.102  1.00 50.02 LIG 0.16  HD
BRANCH 13 15
ATOM     15  CA  GLY F   3       3.962  32.169 -25.806  1.00 50.20 LIG 0.21  C 
BRANCH 15 16
ATOM     16  C   GLY F   3       4.485  30.749 -25.899  1.00 50.42 LIG 0.21  C 
ATOM     17 O    GLY F   3       4.066  29.874 -25.139  1.00 50.69 LIG-0.29  OA
ENDBRANCH 15 16
ENDBRANCH 13 15
ENDBRANCH 1 11
BRANCH 1 18
ATOM     18  CB  HIS F   2       2.042  31.254 -21.489  1.00 49.99 LIG 0.10  C 
BRANCH 18 19
ATOM     19  CG  HIS F   2       1.281  31.586 -20.243  1.00 50.63 LIG 0.06  A 
ATOM     20  CD2 HIS F   2       0.893  30.812 -19.200  1.00 51.31 LIG 0.14  A 
ATOM     21 NE2  HIS F   2       0.228  31.627 -18.314  1.00 51.32 LIG-0.25  NA
ATOM     22  CE1 HIS F   2       0.202  32.856 -18.799  1.00 50.87 LIG 0.23  A 
ATOM     23 ND1  HIS F   2       0.832  32.859 -19.961  1.00 50.82 LIG-0.24  NA
ENDBRANCH 18 19
ENDBRANCH 1 18
TORSDOF 8
ENDMDL
MODEL 61
USER: ADFR SOLUTION from run 187
USER: SCORE 7.741224 LL:  -1.262 LR:  -6.491 RR:   0.000 FEB:  -4.105
USER: RMSD 5.440873
USER: SEED 186
USER: STATUS no improvement in best in 33 clusters for 5 generations
USER: GENES 10
USER: genes 0 Translation |==|  0.52288 0.72898 0.38406
USER: genes 1 Rotation |==|  0.66279 0.56477 0.52984 0.96735
USER: genes 2 Torsion [C]-CA--N-[C] |==|  0.76416
USER: genes 3 Torsion [N]-C--CA-[N] |==|  0.31870
USER: genes 4 Torsion [C]-CA--N-[H3] |==|  0.94416
USER: genes 5 Torsion [N]-CA--C-[N] |==|  0.99640
USER: genes 6 Torsion [C]-N--CA-[C] |==|  0.46930
USER: genes 7 Torsion [N]-CA--C-[O] |==|  0.93068
USER: genes 8 Torsion [N]-CA--CB-[CG] |==|  0.80503
USER: genes 9 Torsion [CA]-CB--CG-[CD2] |==|  0.63775
ROOT
ATOM      1  CA  HIS F   2      -1.277  33.629 -20.978  1.00 49.99 LIG 0.18  C 
ENDROOT
BRANCH 1 2
ATOM      2  N   HIS F   2      -1.602  34.762 -21.846  1.00 49.83 LIG-0.35  N 
ATOM      3  C   GLY F   1      -2.529  34.686 -22.798  1.00 49.82 LIG 0.24  C 
ATOM      4 O    GLY F   1      -3.144  33.650 -23.065  1.00 49.53 LIG-0.27  OA
ATOM      5 H    HIS F   2      -1.143  35.471 -21.685  1.00 49.83 LIG 0.16  HD
BRANCH 3 6
ATOM      6  CA  GLY F   1      -2.799  35.969 -23.566  1.00 49.90 LIG 0.33  C 
BRANCH 6 7
ATOM      7  N   GLY F   1      -2.422  35.883 -25.008  1.00 49.95 LIG-0.07  N 
ATOM      8 H3   GLY F   1      -1.844  35.216 -25.125  1.00 49.95 LIG 0.27  HD
ATOM      9 H1   GLY F   1      -3.151  35.733 -25.497  1.00 49.95 LIG 0.27  HD
ATOM     10 H2   GLY F   1      -2.046  36.648 -25.263  1.00 49.95 LIG 0.27  HD
ENDBRANCH 6 7
ENDBRANCH 3 6
ENDBRANCH 1 2
BRANCH 1 11
ATOM     11  C   HIS F   2      -2.230  33.564 -19.785  1.00 50.00 LIG 0.24  C 
ATOM     12 O    HIS F   2      -2.127  32.669 -18.943  1.00 49.82 LIG-0.27  OA
ATOM     13  N   GLY F   3      -3.146  34.527 -19.719  1.00 50.02 LIG-0.35  N 
ATOM     14 H    GLY F   3      -3.239  35.140 -20.316  1.00 50.02 LIG 0.16  HD
BRANCH 13 15
ATOM     15  CA  GLY F   3      -4.087  34.625 -18.611  1.00 50.20 LIG 0.21  C 
BRANCH 15 16
ATOM     16  C   GLY F   3      -4.850  35.935 -18.609  1.00 50.42 LIG 0.21  C 
ATOM     17 O    GLY F   3      -4.378  36.938 -19.145  1.00 50.69 LIG-0.29  OA
ENDBRANCH 15 16
ENDBRANCH 13 15
ENDBRANCH 1 11
BRANCH 1 18
ATOM     18  CB  HIS F   2       0.175  33.710 -20.503  1.00 49.99 LIG 0.10  C 
BRANCH 18 19
ATOM     19  CG  HIS F   2       1.179  33.454 -21.583  1.00 50.63 LIG 0.06  A 
ATOM     20  CD2 HIS F   2       2.256  32.631 -21.627  1.00 51.31 LIG 0.14  A 
ATOM     21 NE2  HIS F   2       2.828  32.777 -22.868  1.00 51.32 LIG-0.25  NA
ATOM     22  CE1 HIS F   2       2.133  33.663 -23.560  1.00 50.87 LIG 0.23  A 
ATOM     23 ND1  HIS F   2       1.131  34.085 -22.809  1.00 50.82 LIG-0.24  NA
ENDBRANCH 18 19
ENDBRANCH 1 18
TORSDOF 8
ENDMDL
MODEL 62
USER: ADFR SOLUTION from run 58
USER: SCORE 7.521018 LL:  -1.438 LR:  -6.493 RR:   0.000 FEB:  -4.107
USER: RMSD 4.793240
USER: SEED 57
USER: STATUS no improvement in best in 27 clusters for 5 generations
USER: GENES 10
USER: genes 0 Translation |==|  0.44529 0.54498 0.59860
USER: genes 1 Rotation |==|  0.88210 0.33081 0.22550 0.50523
USER: genes 2 Torsion [C]-CA--N-[C] |==|  0.64691
USER: genes 3 Torsion [N]-C--CA-[N] |==|  0.08616
USER: genes 4 Torsion [C]-CA--N-[H3] |==|  0.58927
USER: genes 5 Torsion [N]-CA--C-[N] |==|  0.91368
USER: genes 6 Torsion [C]-N--CA-[C] |==|  0.32631
USER: genes 7 Torsion [N]-CA--C-[O] |==|  0.17391
USER: genes 8 Torsion [N]-CA--CB-[CG] |==|  0.25130
USER: genes 9 Torsion [CA]-CB--CG-[CD2] |==|  0.28817
ROOT
ATOM      1  CA  HIS F   2      -2.616  31.283 -17.438  1.00 49.99 LIG 0.18  C 
ENDROOT
BRANCH 1 2
ATOM      2  N   HIS F   2      -1.579  30.463 -16.812  1.00 49.83 LIG-0.35  N 
ATOM      3  C   GLY F   1      -0.293  30.808 -16.824  1.00 49.82 LIG 0.24  C 
ATOM      4 O    GLY F   1       0.135  31.807 -17.408  1.00 49.53 LIG-0.27  OA
ATOM      5 H    HIS F   2      -1.875  29.746 -16.440  1.00 49.83 LIG 0.16  HD
BRANCH 3 6
ATOM      6  CA  GLY F   1       0.649  29.886 -16.067  1.00 49.90 LIG 0.33  C 
BRANCH 6 7
ATOM      7  N   GLY F   1       0.203  28.462 -16.065  1.00 49.95 LIG-0.07  N 
ATOM      8 H3   GLY F   1       0.455  28.073 -15.305  1.00 49.95 LIG 0.27  HD
ATOM      9 H1   GLY F   1      -0.684  28.428 -16.136  1.00 49.95 LIG 0.27  HD
ATOM     10 H2   GLY F   1       0.572  28.034 -16.753  1.00 49.95 LIG 0.27  HD
ENDBRANCH 6 7
ENDBRANCH 3 6
ENDBRANCH 1 2
BRANCH 1 11
ATOM     11  C   HIS F   2      -3.744  31.586 -16.453  1.00 50.00 LIG 0.24  C 
ATOM     12 O    HIS F   2      -4.387  32.635 -16.532  1.00 49.82 LIG-0.27  OA
ATOM     13  N   GLY F   3      -3.981  30.651 -15.536  1.00 50.02 LIG-0.35  N 
ATOM     14 H    GLY F   3      -3.520  29.929 -15.460  1.00 50.02 LIG 0.16  HD
BRANCH 13 15
ATOM     15  CA  GLY F   3      -5.061  30.776 -14.565  1.00 50.20 LIG 0.21  C 
BRANCH 15 16
ATOM     16  C   GLY F   3      -6.100  29.682 -14.706  1.00 50.42 LIG 0.21  C 
ATOM     17 O    GLY F   3      -5.797  28.501 -14.530  1.00 50.69 LIG-0.29  OA
ENDBRANCH 15 16
ENDBRANCH 13 15
ENDBRANCH 1 11
BRANCH 1 18
ATOM     18  CB  HIS F   2      -3.165  30.599 -18.691  1.00 49.99 LIG 0.10  C 
BRANCH 18 19
ATOM     19  CG  HIS F   2      -4.343  29.712 -18.428  1.00 50.63 LIG 0.06  A 
ATOM     20  CD2 HIS F   2      -5.667  29.892 -18.656  1.00 51.31 LIG 0.14  A 
ATOM     21 NE2  HIS F   2      -6.311  28.754 -18.233  1.00 51.32 LIG-0.25  NA
ATOM     22  CE1 HIS F   2      -5.416  27.907 -17.755  1.00 50.87 LIG 0.23  A 
ATOM     23 ND1  HIS F   2      -4.221  28.460 -17.863  1.00 50.82 LIG-0.24  NA
ENDBRANCH 18 19
ENDBRANCH 1 18
TORSDOF 8
ENDMDL
MODEL 63
USER: ADFR SOLUTION from run 88
USER: SCORE 7.100836 LL:  -1.101 LR:  -6.482 RR:   0.000 FEB:  -4.095
USER: RMSD 5.825929
USER: SEED 87
USER: STATUS no improvement in best in 31 clusters for 5 generations
USER: GENES 10
USER: genes 0 Translation |==|  0.45700 0.41457 0.54206
USER: genes 1 Rotation |==|  0.57861 0.96254 0.48428 0.67214
USER: genes 2 Torsion [C]-CA--N-[C] |==|  0.62026
USER: genes 3 Torsion [N]-C--CA-[N] |==|  0.82258
USER: genes 4 Torsion [C]-CA--N-[H3] |==|  0.70140
USER: genes 5 Torsion [N]-CA--C-[N] |==|  0.16667
USER: genes 6 Torsion [C]-N--CA-[C] |==|  0.72606
USER: genes 7 Torsion [N]-CA--C-[O] |==|  0.18091
USER: genes 8 Torsion [N]-CA--CB-[CG] |==|  0.67228
USER: genes 9 Torsion [CA]-CB--CG-[CD2] |==|  0.58955
ROOT
ATOM      1  CA  HIS F   2      -2.414  29.621 -18.371  1.00 49.99 LIG 0.18  C 
ENDROOT
BRANCH 1 2
ATOM      2  N   HIS F   2      -3.255  30.213 -17.331  1.00 49.83 LIG-0.35  N 
ATOM      3  C   GLY F   1      -4.297  29.571 -16.806  1.00 49.82 LIG 0.24  C 
ATOM      4 O    GLY F   1      -4.672  28.460 -17.189  1.00 49.53 LIG-0.27  OA
ATOM      5 H    HIS F   2      -3.016  31.004 -17.094  1.00 49.83 LIG 0.16  HD
BRANCH 3 6
ATOM      6  CA  GLY F   1      -5.026  30.293 -15.685  1.00 49.90 LIG 0.33  C 
BRANCH 6 7
ATOM      7  N   GLY F   1      -4.180  30.505 -14.473  1.00 49.95 LIG-0.07  N 
ATOM      8 H3   GLY F   1      -4.450  29.959 -13.824  1.00 49.95 LIG 0.27  HD
ATOM      9 H1   GLY F   1      -3.329  30.333 -14.671  1.00 49.95 LIG 0.27  HD
ATOM     10 H2   GLY F   1      -4.256  31.349 -14.202  1.00 49.95 LIG 0.27  HD
ENDBRANCH 6 7
ENDBRANCH 3 6
ENDBRANCH 1 2
BRANCH 1 11
ATOM     11  C   HIS F   2      -0.934  29.876 -18.090  1.00 50.00 LIG 0.24  C 
ATOM     12 O    HIS F   2      -0.239  30.508 -18.889  1.00 49.82 LIG-0.27  OA
ATOM     13  N   GLY F   3      -0.468  29.389 -16.942  1.00 50.02 LIG-0.35  N 
ATOM     14 H    GLY F   3      -0.941  28.927 -16.392  1.00 50.02 LIG 0.16  HD
BRANCH 13 15
ATOM     15  CA  GLY F   3       0.909  29.602 -16.513  1.00 50.20 LIG 0.21  C 
BRANCH 15 16
ATOM     16  C   GLY F   3       1.803  28.416 -16.815  1.00 50.42 LIG 0.21  C 
ATOM     17 O    GLY F   3       2.036  28.085 -17.978  1.00 50.69 LIG-0.29  OA
ENDBRANCH 15 16
ENDBRANCH 13 15
ENDBRANCH 1 11
BRANCH 1 18
ATOM     18  CB  HIS F   2      -2.799  30.158 -19.751  1.00 49.99 LIG 0.10  C 
BRANCH 18 19
ATOM     19  CG  HIS F   2      -3.290  29.103 -20.694  1.00 50.63 LIG 0.06  A 
ATOM     20  CD2 HIS F   2      -3.187  28.990 -22.041  1.00 51.31 LIG 0.14  A 
ATOM     21 NE2  HIS F   2      -3.807  27.816 -22.399  1.00 51.32 LIG-0.25  NA
ATOM     22  CE1 HIS F   2      -4.280  27.232 -21.311  1.00 50.87 LIG 0.23  A 
ATOM     23 ND1  HIS F   2      -3.979  27.987 -20.269  1.00 50.82 LIG-0.24  NA
ENDBRANCH 18 19
ENDBRANCH 1 18
TORSDOF 8
ENDMDL
MODEL 64
USER: ADFR SOLUTION from run 6
USER: SCORE 7.493569 LL:  -1.310 LR:  -6.484 RR:   0.000 FEB:  -4.097
USER: RMSD 4.406738
USER: SEED 119389
USER: STATUS no improvement in best in 42 clusters for 5 generations
USER: GENES 10
USER: genes 0 Translation |==|  0.58284 0.65064 0.53494
USER: genes 1 Rotation |==|  0.06207 0.66504 0.67179 0.53835
USER: genes 2 Torsion [C]-CA--N-[C] |==|  0.19234
USER: genes 3 Torsion [N]-C--CA-[N] |==|  0.47019
USER: genes 4 Torsion [C]-CA--N-[H3] |==|  0.28716
USER: genes 5 Torsion [N]-CA--C-[N] |==|  0.02235
USER: genes 6 Torsion [C]-N--CA-[C] |==|  0.42327
USER: genes 7 Torsion [N]-CA--C-[O] |==|  0.11863
USER: genes 8 Torsion [N]-CA--CB-[CG] |==|  0.60878
USER: genes 9 Torsion [CA]-CB--CG-[CD2] |==|  0.81150
ROOT
ATOM      1  CA  HIS F   2      -0.243  32.631 -18.489  1.00 49.99 LIG 0.18  C 
ENDROOT
BRANCH 1 2
ATOM      2  N   HIS F   2       0.365  31.802 -17.446  1.00 49.83 LIG-0.35  N 
ATOM      3  C   GLY F   1       0.021  30.530 -17.257  1.00 49.82 LIG 0.24  C 
ATOM      4 O    GLY F   1      -0.870  29.966 -17.897  1.00 49.53 LIG-0.27  OA
ATOM      5 H    HIS F   2       0.957  32.210 -16.975  1.00 49.83 LIG 0.16  HD
BRANCH 3 6
ATOM      6  CA  GLY F   1       0.796  29.786 -16.182  1.00 49.90 LIG 0.33  C 
BRANCH 6 7
ATOM      7  N   GLY F   1       0.203  28.459 -15.841  1.00 49.95 LIG-0.07  N 
ATOM      8 H3   GLY F   1       0.685  27.813 -16.218  1.00 49.95 LIG 0.27  HD
ATOM      9 H1   GLY F   1       0.203  28.352 -14.957  1.00 49.95 LIG 0.27  HD
ATOM     10 H2   GLY F   1      -0.633  28.420 -16.144  1.00 49.95 LIG 0.27  HD
ENDBRANCH 6 7
ENDBRANCH 3 6
ENDBRANCH 1 2
BRANCH 1 11
ATOM     11  C   HIS F   2      -1.705  32.933 -18.164  1.00 50.00 LIG 0.24  C 
ATOM     12 O    HIS F   2      -2.435  33.483 -18.992  1.00 49.82 LIG-0.27  OA
ATOM     13  N   GLY F   3      -2.122  32.558 -16.957  1.00 50.02 LIG-0.35  N 
ATOM     14 H    GLY F   3      -1.612  32.197 -16.366  1.00 50.02 LIG 0.16  HD
BRANCH 13 15
ATOM     15  CA  GLY F   3      -3.504  32.732 -16.528  1.00 50.20 LIG 0.21  C 
BRANCH 15 16
ATOM     16  C   GLY F   3      -3.925  31.709 -15.491  1.00 50.42 LIG 0.21  C 
ATOM     17 O    GLY F   3      -3.172  31.406 -14.565  1.00 50.69 LIG-0.29  OA
ENDBRANCH 15 16
ENDBRANCH 13 15
ENDBRANCH 1 11
BRANCH 1 18
ATOM     18  CB  HIS F   2      -0.125  31.954 -19.856  1.00 49.99 LIG 0.10  C 
BRANCH 18 19
ATOM     19  CG  HIS F   2       0.178  32.903 -20.974  1.00 50.63 LIG 0.06  A 
ATOM     20  CD2 HIS F   2      -0.563  33.889 -21.536  1.00 51.31 LIG 0.14  A 
ATOM     21 NE2  HIS F   2       0.203  34.460 -22.525  1.00 51.32 LIG-0.25  NA
ATOM     22  CE1 HIS F   2       1.371  33.843 -22.573  1.00 50.87 LIG 0.23  A 
ATOM     23 ND1  HIS F   2       1.382  32.900 -21.647  1.00 50.82 LIG-0.24  NA
ENDBRANCH 18 19
ENDBRANCH 1 18
TORSDOF 8
ENDMDL
MODEL 65
USER: ADFR SOLUTION from run 85
USER: SCORE 7.604993 LL:  -1.157 LR:  -6.462 RR:   0.000 FEB:  -4.076
USER: RMSD 2.211082
USER: SEED 84
USER: STATUS no improvement in best in 33 clusters for 5 generations
USER: GENES 10
USER: genes 0 Translation |==|  0.48076 0.48438 0.63637
USER: genes 1 Rotation |==|  0.40429 0.59999 0.54070 0.97873
USER: genes 2 Torsion [C]-CA--N-[C] |==|  0.78974
USER: genes 3 Torsion [N]-C--CA-[N] |==|  0.13477
USER: genes 4 Torsion [C]-CA--N-[H3] |==|  0.59487
USER: genes 5 Torsion [N]-CA--C-[N] |==|  0.96390
USER: genes 6 Torsion [C]-N--CA-[C] |==|  0.37077
USER: genes 7 Torsion [N]-CA--C-[O] |==|  0.95158
USER: genes 8 Torsion [N]-CA--CB-[CG] |==|  0.73980
USER: genes 9 Torsion [CA]-CB--CG-[CD2] |==|  0.60327
ROOT
ATOM      1  CA  HIS F   2      -2.004  30.511 -16.815  1.00 49.99 LIG 0.18  C 
ENDROOT
BRANCH 1 2
ATOM      2  N   HIS F   2      -2.505  30.272 -18.169  1.00 49.83 LIG-0.35  N 
ATOM      3  C   GLY F   1      -3.466  29.388 -18.427  1.00 49.82 LIG 0.24  C 
ATOM      4 O    GLY F   1      -3.967  28.660 -17.565  1.00 49.53 LIG-0.27  OA
ATOM      5 H    HIS F   2      -2.126  30.752 -18.773  1.00 49.83 LIG 0.16  HD
BRANCH 3 6
ATOM      6  CA  GLY F   1      -3.926  29.310 -19.873  1.00 49.90 LIG 0.33  C 
BRANCH 6 7
ATOM      7  N   GLY F   1      -2.797  29.210 -20.845  1.00 49.95 LIG-0.07  N 
ATOM      8 H3   GLY F   1      -3.011  29.641 -21.594  1.00 49.95 LIG 0.27  HD
ATOM      9 H1   GLY F   1      -2.067  29.576 -20.491  1.00 49.95 LIG 0.27  HD
ATOM     10 H2   GLY F   1      -2.639  28.354 -21.031  1.00 49.95 LIG 0.27  HD
ENDBRANCH 6 7
ENDBRANCH 3 6
ENDBRANCH 1 2
BRANCH 1 11
ATOM     11  C   HIS F   2      -2.995  31.343 -16.003  1.00 50.00 LIG 0.24  C 
ATOM     12 O    HIS F   2      -2.870  31.460 -14.781  1.00 49.82 LIG-0.27  OA
ATOM     13  N   GLY F   3      -3.971  31.925 -16.696  1.00 50.02 LIG-0.35  N 
ATOM     14 H    GLY F   3      -4.078  31.828 -17.544  1.00 50.02 LIG 0.16  HD
BRANCH 13 15
ATOM     15  CA  GLY F   3      -4.957  32.793 -16.065  1.00 50.20 LIG 0.21  C 
BRANCH 15 16
ATOM     16  C   GLY F   3      -5.177  34.081 -16.834  1.00 50.42 LIG 0.21  C 
ATOM     17 O    GLY F   3      -4.358  34.459 -17.672  1.00 50.69 LIG-0.29  OA
ENDBRANCH 15 16
ENDBRANCH 13 15
ENDBRANCH 1 11
BRANCH 1 18
ATOM     18  CB  HIS F   2      -0.636  31.194 -16.856  1.00 49.99 LIG 0.10  C 
BRANCH 18 19
ATOM     19  CG  HIS F   2       0.518  30.241 -16.796  1.00 50.63 LIG 0.06  A 
ATOM     20  CD2 HIS F   2       1.724  30.334 -16.183  1.00 51.31 LIG 0.14  A 
ATOM     21 NE2  HIS F   2       2.401  29.165 -16.441  1.00 51.32 LIG-0.25  NA
ATOM     22  CE1 HIS F   2       1.641  28.385 -17.190  1.00 50.87 LIG 0.23  A 
ATOM     23 ND1  HIS F   2       0.499  29.009 -17.417  1.00 50.82 LIG-0.24  NA
ENDBRANCH 18 19
ENDBRANCH 1 18
TORSDOF 8
ENDMDL
MODEL 66
USER: ADFR SOLUTION from run 195
USER: SCORE 7.256645 LL:  -1.160 LR:  -6.456 RR:   0.000 FEB:  -4.069
USER: RMSD 7.880306
USER: SEED 194
USER: STATUS no improvement in best in 27 clusters for 5 generations
USER: GENES 10
USER: genes 0 Translation |==|  0.55751 0.63343 0.19633
USER: genes 1 Rotation |==|  0.55769 0.75899 0.23679 0.83214
USER: genes 2 Torsion [C]-CA--N-[C] |==|  0.54036
USER: genes 3 Torsion [N]-C--CA-[N] |==|  0.05730
USER: genes 4 Torsion [C]-CA--N-[H3] |==|  0.80282
USER: genes 5 Torsion [N]-CA--C-[N] |==|  0.50437
USER: genes 6 Torsion [C]-N--CA-[C] |==|  0.66338
USER: genes 7 Torsion [N]-CA--C-[O] |==|  0.17457
USER: genes 8 Torsion [N]-CA--CB-[CG] |==|  0.63595
USER: genes 9 Torsion [CA]-CB--CG-[CD2] |==|  0.99374
ROOT
ATOM      1  CA  HIS F   2      -0.680  32.411 -24.075  1.00 49.99 LIG 0.18  C 
ENDROOT
BRANCH 1 2
ATOM      2  N   HIS F   2      -1.204  33.499 -24.903  1.00 49.83 LIG-0.35  N 
ATOM      3  C   GLY F   1      -2.328  33.380 -25.606  1.00 49.82 LIG 0.24  C 
ATOM      4 O    GLY F   1      -2.984  32.337 -25.666  1.00 49.53 LIG-0.27  OA
ATOM      5 H    HIS F   2      -0.723  34.211 -24.891  1.00 49.83 LIG 0.16  HD
BRANCH 3 6
ATOM      6  CA  GLY F   1      -2.776  34.623 -26.357  1.00 49.90 LIG 0.33  C 
BRANCH 6 7
ATOM      7  N   GLY F   1      -1.672  35.602 -26.587  1.00 49.95 LIG-0.07  N 
ATOM      8 H3   GLY F   1      -1.449  35.984 -25.815  1.00 49.95 LIG 0.27  HD
ATOM      9 H1   GLY F   1      -0.965  35.178 -26.923  1.00 49.95 LIG 0.27  HD
ATOM     10 H2   GLY F   1      -1.943  36.226 -27.160  1.00 49.95 LIG 0.27  HD
ENDBRANCH 6 7
ENDBRANCH 3 6
ENDBRANCH 1 2
BRANCH 1 11
ATOM     11  C   HIS F   2       0.395  32.922 -23.118  1.00 50.00 LIG 0.24  C 
ATOM     12 O    HIS F   2       0.693  34.118 -23.081  1.00 49.82 LIG-0.27  OA
ATOM     13  N   GLY F   3       0.964  32.004 -22.339  1.00 50.02 LIG-0.35  N 
ATOM     14 H    GLY F   3       0.779  31.165 -22.377  1.00 50.02 LIG 0.16  HD
BRANCH 13 15
ATOM     15  CA  GLY F   3       1.965  32.351 -21.339  1.00 50.20 LIG 0.21  C 
BRANCH 15 16
ATOM     16  C   GLY F   3       3.284  31.638 -21.563  1.00 50.42 LIG 0.21  C 
ATOM     17 O    GLY F   3       3.939  31.836 -22.586  1.00 50.69 LIG-0.29  OA
ENDBRANCH 15 16
ENDBRANCH 13 15
ENDBRANCH 1 11
BRANCH 1 18
ATOM     18  CB  HIS F   2      -0.130  31.282 -24.949  1.00 49.99 LIG 0.10  C 
BRANCH 18 19
ATOM     19  CG  HIS F   2      -0.620  29.922 -24.558  1.00 50.63 LIG 0.06  A 
ATOM     20  CD2 HIS F   2      -1.429  29.520 -23.548  1.00 51.31 LIG 0.14  A 
ATOM     21 NE2  HIS F   2      -1.565  28.156 -23.655  1.00 51.32 LIG-0.25  NA
ATOM     22  CE1 HIS F   2      -0.859  27.734 -24.690  1.00 50.87 LIG 0.23  A 
ATOM     23 ND1  HIS F   2      -0.281  28.780 -25.253  1.00 50.82 LIG-0.24  NA
ENDBRANCH 18 19
ENDBRANCH 1 18
TORSDOF 8
ENDMDL
MODEL 67
USER: ADFR SOLUTION from run 181
USER: SCORE 7.842377 LL:  -1.520 LR:  -6.465 RR:   0.000 FEB:  -4.078
USER: RMSD 5.170649
USER: SEED 180
USER: STATUS no improvement in best in 28 clusters for 5 generations
USER: GENES 10
USER: genes 0 Translation |==|  0.61135 0.68439 0.42429
USER: genes 1 Rotation |==|  0.48549 0.51626 0.97944 0.64021
USER: genes 2 Torsion [C]-CA--N-[C] |==|  0.55019
USER: genes 3 Torsion [N]-C--CA-[N] |==|  0.43293
USER: genes 4 Torsion [C]-CA--N-[H3] |==|  0.71396
USER: genes 5 Torsion [N]-CA--C-[N] |==|  0.46571
USER: genes 6 Torsion [C]-N--CA-[C] |==|  0.67501
USER: genes 7 Torsion [N]-CA--C-[O] |==|  0.90668
USER: genes 8 Torsion [N]-CA--CB-[CG] |==|  0.28122
USER: genes 9 Torsion [CA]-CB--CG-[CD2] |==|  0.79603
ROOT
ATOM      1  CA  HIS F   2       0.249  33.061 -20.314  1.00 49.99 LIG 0.18  C 
ENDROOT
BRANCH 1 2
ATOM      2  N   HIS F   2       0.039  32.701 -21.717  1.00 49.83 LIG-0.35  N 
ATOM      3  C   GLY F   1      -0.108  33.616 -22.673  1.00 49.82 LIG 0.24  C 
ATOM      4 O    GLY F   1      -0.139  34.829 -22.451  1.00 49.53 LIG-0.27  OA
ATOM      5 H    HIS F   2       0.021  31.854 -21.863  1.00 49.83 LIG 0.16  HD
BRANCH 3 6
ATOM      6  CA  GLY F   1      -0.245  33.081 -24.089  1.00 49.90 LIG 0.33  C 
BRANCH 6 7
ATOM      7  N   GLY F   1      -0.954  34.020 -25.007  1.00 49.95 LIG-0.07  N 
ATOM      8 H3   GLY F   1      -1.789  33.740 -25.132  1.00 49.95 LIG 0.27  HD
ATOM      9 H1   GLY F   1      -0.965  34.835 -24.648  1.00 49.95 LIG 0.27  HD
ATOM     10 H2   GLY F   1      -0.530  34.048 -25.789  1.00 49.95 LIG 0.27  HD
ENDBRANCH 6 7
ENDBRANCH 3 6
ENDBRANCH 1 2
BRANCH 1 11
ATOM     11  C   HIS F   2       0.819  31.883 -19.526  1.00 50.00 LIG 0.24  C 
ATOM     12 O    HIS F   2       0.843  30.750 -20.013  1.00 49.82 LIG-0.27  OA
ATOM     13  N   GLY F   3       1.285  32.166 -18.312  1.00 50.02 LIG-0.35  N 
ATOM     14 H    GLY F   3       1.249  32.949 -17.958  1.00 50.02 LIG 0.16  HD
BRANCH 13 15
ATOM     15  CA  GLY F   3       1.908  31.156 -17.467  1.00 50.20 LIG 0.21  C 
BRANCH 15 16
ATOM     16  C   GLY F   3       1.137  30.913 -16.184  1.00 50.42 LIG 0.21  C 
ATOM     17 O    GLY F   3       0.536  31.833 -15.629  1.00 50.69 LIG-0.29  OA
ENDBRANCH 15 16
ENDBRANCH 13 15
ENDBRANCH 1 11
BRANCH 1 18
ATOM     18  CB  HIS F   2      -1.054  33.552 -19.680  1.00 49.99 LIG 0.10  C 
BRANCH 18 19
ATOM     19  CG  HIS F   2      -1.737  32.524 -18.831  1.00 50.63 LIG 0.06  A 
ATOM     20  CD2 HIS F   2      -2.430  31.407 -19.162  1.00 51.31 LIG 0.14  A 
ATOM     21 NE2  HIS F   2      -2.835  30.818 -17.988  1.00 51.32 LIG-0.25  NA
ATOM     22  CE1 HIS F   2      -2.413  31.549 -16.972  1.00 50.87 LIG 0.23  A 
ATOM     23 ND1  HIS F   2      -1.746  32.584 -17.453  1.00 50.82 LIG-0.24  NA
ENDBRANCH 18 19
ENDBRANCH 1 18
TORSDOF 8
ENDMDL
MODEL 68
USER: ADFR SOLUTION from run 200
USER: SCORE 7.614495 LL:  -1.350 LR:  -6.457 RR:   0.000 FEB:  -4.070
USER: RMSD 5.613500
USER: SEED 199
USER: STATUS no improvement in best in 42 clusters for 5 generations
USER: GENES 10
USER: genes 0 Translation |==|  0.43986 0.55275 0.66886
USER: genes 1 Rotation |==|  0.38318 0.33314 0.05056 0.58071
USER: genes 2 Torsion [C]-CA--N-[C] |==|  0.70222
USER: genes 3 Torsion [N]-C--CA-[N] |==|  0.63221
USER: genes 4 Torsion [C]-CA--N-[H3] |==|  0.39494
USER: genes 5 Torsion [N]-CA--C-[N] |==|  0.95072
USER: genes 6 Torsion [C]-N--CA-[C] |==|  0.56864
USER: genes 7 Torsion [N]-CA--C-[O] |==|  0.02200
USER: genes 8 Torsion [N]-CA--CB-[CG] |==|  0.89913
USER: genes 9 Torsion [CA]-CB--CG-[CD2] |==|  0.83227
ROOT
ATOM      1  CA  HIS F   2      -2.709  31.383 -16.279  1.00 49.99 LIG 0.18  C 
ENDROOT
BRANCH 1 2
ATOM      2  N   HIS F   2      -3.069  30.159 -16.996  1.00 49.83 LIG-0.35  N 
ATOM      3  C   GLY F   1      -3.466  30.168 -18.267  1.00 49.82 LIG 0.24  C 
ATOM      4 O    GLY F   1      -3.620  31.203 -18.921  1.00 49.53 LIG-0.27  OA
ATOM      5 H    HIS F   2      -2.999  29.443 -16.525  1.00 49.83 LIG 0.16  HD
BRANCH 3 6
ATOM      6  CA  GLY F   1      -3.733  28.808 -18.889  1.00 49.90 LIG 0.33  C 
BRANCH 6 7
ATOM      7  N   GLY F   1      -3.100  28.639 -20.230  1.00 49.95 LIG-0.07  N 
ATOM      8 H3   GLY F   1      -2.797  27.806 -20.312  1.00 49.95 LIG 0.27  HD
ATOM      9 H1   GLY F   1      -3.702  28.800 -20.866  1.00 49.95 LIG 0.27  HD
ATOM     10 H2   GLY F   1      -2.422  29.210 -20.312  1.00 49.95 LIG 0.27  HD
ENDBRANCH 6 7
ENDBRANCH 3 6
ENDBRANCH 1 2
BRANCH 1 11
ATOM     11  C   HIS F   2      -1.199  31.471 -16.070  1.00 50.00 LIG 0.24  C 
ATOM     12 O    HIS F   2      -0.663  32.543 -15.778  1.00 49.82 LIG-0.27  OA
ATOM     13  N   GLY F   3      -0.524  30.333 -16.212  1.00 50.02 LIG-0.35  N 
ATOM     14 H    GLY F   3      -0.888  29.587 -16.440  1.00 50.02 LIG 0.16  HD
BRANCH 13 15
ATOM     15  CA  GLY F   3       0.914  30.252 -15.990  1.00 50.20 LIG 0.21  C 
BRANCH 15 16
ATOM     16  C   GLY F   3       1.557  29.107 -16.746  1.00 50.42 LIG 0.21  C 
ATOM     17 O    GLY F   3       0.910  28.453 -17.565  1.00 50.69 LIG-0.29  OA
ENDBRANCH 15 16
ENDBRANCH 13 15
ENDBRANCH 1 11
BRANCH 1 18
ATOM     18  CB  HIS F   2      -3.443  31.460 -14.938  1.00 49.99 LIG 0.10  C 
BRANCH 18 19
ATOM     19  CG  HIS F   2      -4.837  30.915 -14.980  1.00 50.63 LIG 0.06  A 
ATOM     20  CD2 HIS F   2      -5.920  31.283 -15.708  1.00 51.31 LIG 0.14  A 
ATOM     21 NE2  HIS F   2      -6.947  30.437 -15.364  1.00 51.32 LIG-0.25  NA
ATOM     22  CE1 HIS F   2      -6.513  29.583 -14.452  1.00 50.87 LIG 0.23  A 
ATOM     23 ND1  HIS F   2      -5.243  29.849 -14.204  1.00 50.82 LIG-0.24  NA
ENDBRANCH 18 19
ENDBRANCH 1 18
TORSDOF 8
ENDMDL
MODEL 69
USER: ADFR SOLUTION from run 19
USER: SCORE 7.037977 LL:  -1.237 LR:  -6.452 RR:   0.000 FEB:  -4.065
USER: RMSD 7.249948
USER: SEED 18
USER: STATUS no improvement in best in 22 clusters for 5 generations
USER: GENES 10
USER: genes 0 Translation |==|  0.69577 0.53024 0.36745
USER: genes 1 Rotation |==|  0.60691 0.88593 0.70459 0.71856
USER: genes 2 Torsion [C]-CA--N-[C] |==|  0.17708
USER: genes 3 Torsion [N]-C--CA-[N] |==|  0.96590
USER: genes 4 Torsion [C]-CA--N-[H3] |==|  0.95989
USER: genes 5 Torsion [N]-CA--C-[N] |==|  0.68333
USER: genes 6 Torsion [C]-N--CA-[C] |==|  0.19874
USER: genes 7 Torsion [N]-CA--C-[O] |==|  0.03641
USER: genes 8 Torsion [N]-CA--CB-[CG] |==|  0.58340
USER: genes 9 Torsion [CA]-CB--CG-[CD2] |==|  0.38416
ROOT
ATOM      1  CA  HIS F   2       1.705  31.096 -21.252  1.00 49.99 LIG 0.18  C 
ENDROOT
BRANCH 1 2
ATOM      2  N   HIS F   2       0.445  30.726 -20.607  1.00 49.83 LIG-0.35  N 
ATOM      3  C   GLY F   1      -0.073  31.428 -19.601  1.00 49.82 LIG 0.24  C 
ATOM      4 O    GLY F   1       0.489  32.403 -19.095  1.00 49.53 LIG-0.27  OA
ATOM      5 H    HIS F   2       0.075  30.023 -20.935  1.00 49.83 LIG 0.16  HD
BRANCH 3 6
ATOM      6  CA  GLY F   1      -1.423  30.956 -19.088  1.00 49.90 LIG 0.33  C 
BRANCH 6 7
ATOM      7  N   GLY F   1      -2.079  29.960 -19.986  1.00 49.95 LIG-0.07  N 
ATOM      8 H3   GLY F   1      -1.671  29.960 -20.777  1.00 49.95 LIG 0.27  HD
ATOM      9 H1   GLY F   1      -2.023  29.150 -19.623  1.00 49.95 LIG 0.27  HD
ATOM     10 H2   GLY F   1      -2.936  30.177 -20.095  1.00 49.95 LIG 0.27  HD
ENDBRANCH 6 7
ENDBRANCH 3 6
ENDBRANCH 1 2
BRANCH 1 11
ATOM     11  C   HIS F   2       2.871  31.002 -20.269  1.00 50.00 LIG 0.24  C 
ATOM     12 O    HIS F   2       3.229  29.913 -19.815  1.00 49.82 LIG-0.27  OA
ATOM     13  N   GLY F   3       3.462  32.154 -19.958  1.00 50.02 LIG-0.35  N 
ATOM     14 H    GLY F   3       3.202  32.919 -20.252  1.00 50.02 LIG 0.16  HD
BRANCH 13 15
ATOM     15  CA  GLY F   3       4.621  32.214 -19.077  1.00 50.20 LIG 0.21  C 
BRANCH 15 16
ATOM     16  C   GLY F   3       5.877  31.668 -19.727  1.00 50.42 LIG 0.21  C 
ATOM     17 O    GLY F   3       5.917  31.460 -20.940  1.00 50.69 LIG-0.29  OA
ENDBRANCH 15 16
ENDBRANCH 13 15
ENDBRANCH 1 11
BRANCH 1 18
ATOM     18  CB  HIS F   2       1.616  32.501 -21.849  1.00 49.99 LIG 0.10  C 
BRANCH 18 19
ATOM     19  CG  HIS F   2       2.476  32.698 -23.060  1.00 50.63 LIG 0.06  A 
ATOM     20  CD2 HIS F   2       2.236  33.335 -24.233  1.00 51.31 LIG 0.14  A 
ATOM     21 NE2  HIS F   2       3.375  33.224 -24.995  1.00 51.32 LIG-0.25  NA
ATOM     22  CE1 HIS F   2       4.279  32.537 -24.319  1.00 50.87 LIG 0.23  A 
ATOM     23 ND1  HIS F   2       3.763  32.210 -23.147  1.00 50.82 LIG-0.24  NA
ENDBRANCH 18 19
ENDBRANCH 1 18
TORSDOF 8
ENDMDL
MODEL 70
USER: ADFR SOLUTION from run 159
USER: SCORE 7.421830 LL:  -1.071 LR:  -6.446 RR:   0.000 FEB:  -4.059
USER: RMSD 5.032520
USER: SEED 158
USER: STATUS no improvement in best in 17 clusters for 5 generations
USER: GENES 10
USER: genes 0 Translation |==|  0.46484 0.46143 0.52392
USER: genes 1 Rotation |==|  0.66345 0.93248 0.53644 0.68687
USER: genes 2 Torsion [C]-CA--N-[C] |==|  0.70952
USER: genes 3 Torsion [N]-C--CA-[N] |==|  0.78435
USER: genes 4 Torsion [C]-CA--N-[H3] |==|  0.00769
USER: genes 5 Torsion [N]-CA--C-[N] |==|  0.06090
USER: genes 6 Torsion [C]-N--CA-[C] |==|  0.83820
USER: genes 7 Torsion [N]-CA--C-[O] |==|  0.26575
USER: genes 8 Torsion [N]-CA--CB-[CG] |==|  0.24768
USER: genes 9 Torsion [CA]-CB--CG-[CD2] |==|  0.81548
ROOT
ATOM      1  CA  HIS F   2      -2.279  30.218 -18.670  1.00 49.99 LIG 0.18  C 
ENDROOT
BRANCH 1 2
ATOM      2  N   HIS F   2      -3.128  30.712 -17.586  1.00 49.83 LIG-0.35  N 
ATOM      3  C   GLY F   1      -4.026  29.941 -16.977  1.00 49.82 LIG 0.24  C 
ATOM      4 O    GLY F   1      -4.258  28.776 -17.312  1.00 49.53 LIG-0.27  OA
ATOM      5 H    HIS F   2      -2.992  31.536 -17.381  1.00 49.83 LIG 0.16  HD
BRANCH 3 6
ATOM      6  CA  GLY F   1      -4.778  30.582 -15.822  1.00 49.90 LIG 0.33  C 
BRANCH 6 7
ATOM      7  N   GLY F   1      -3.977  30.652 -14.565  1.00 49.95 LIG-0.07  N 
ATOM      8 H3   GLY F   1      -3.159  30.335 -14.716  1.00 49.95 LIG 0.27  HD
ATOM      9 H1   GLY F   1      -3.921  31.499 -14.295  1.00 49.95 LIG 0.27  HD
ATOM     10 H2   GLY F   1      -4.372  30.166 -13.933  1.00 49.95 LIG 0.27  HD
ENDBRANCH 6 7
ENDBRANCH 3 6
ENDBRANCH 1 2
BRANCH 1 11
ATOM     11  C   HIS F   2      -0.853  29.972 -18.180  1.00 50.00 LIG 0.24  C 
ATOM     12 O    HIS F   2       0.094  29.957 -18.971  1.00 49.82 LIG-0.27  OA
ATOM     13  N   GLY F   3      -0.711  29.790 -16.869  1.00 50.02 LIG-0.35  N 
ATOM     14 H    GLY F   3      -1.370  29.775 -16.316  1.00 50.02 LIG 0.16  HD
BRANCH 13 15
ATOM     15  CA  GLY F   3       0.594  29.600 -16.251  1.00 50.20 LIG 0.21  C 
BRANCH 15 16
ATOM     16  C   GLY F   3       1.337  28.405 -16.815  1.00 50.42 LIG 0.21  C 
ATOM     17 O    GLY F   3       2.163  28.549 -17.718  1.00 50.69 LIG-0.29  OA
ENDBRANCH 15 16
ENDBRANCH 13 15
ENDBRANCH 1 11
BRANCH 1 18
ATOM     18  CB  HIS F   2      -2.281  31.195 -19.848  1.00 49.99 LIG 0.10  C 
BRANCH 18 19
ATOM     19  CG  HIS F   2      -1.220  32.248 -19.761  1.00 50.63 LIG 0.06  A 
ATOM     20  CD2 HIS F   2      -1.050  33.276 -18.893  1.00 51.31 LIG 0.14  A 
ATOM     21 NE2  HIS F   2       0.100  33.933 -19.263  1.00 51.32 LIG-0.25  NA
ATOM     22  CE1 HIS F   2       0.614  33.335 -20.324  1.00 50.87 LIG 0.23  A 
ATOM     23 ND1  HIS F   2      -0.162  32.315 -20.643  1.00 50.82 LIG-0.24  NA
ENDBRANCH 18 19
ENDBRANCH 1 18
TORSDOF 8
ENDMDL
MODEL 71
USER: ADFR SOLUTION from run 41
USER: SCORE 7.385612 LL:  -1.136 LR:  -6.449 RR:   0.000 FEB:  -4.063
USER: RMSD 6.956257
USER: SEED 40
USER: STATUS no improvement in best in 24 clusters for 5 generations
USER: GENES 10
USER: genes 0 Translation |==|  0.68342 0.57863 0.48532
USER: genes 1 Rotation |==|  0.66898 0.94312 0.59427 0.62730
USER: genes 2 Torsion [C]-CA--N-[C] |==|  0.73924
USER: genes 3 Torsion [N]-C--CA-[N] |==|  0.32465
USER: genes 4 Torsion [C]-CA--N-[H3] |==|  0.80405
USER: genes 5 Torsion [N]-CA--C-[N] |==|  0.27222
USER: genes 6 Torsion [C]-N--CA-[C] |==|  0.85710
USER: genes 7 Torsion [N]-CA--C-[O] |==|  0.89108
USER: genes 8 Torsion [N]-CA--CB-[CG] |==|  0.49810
USER: genes 9 Torsion [CA]-CB--CG-[CD2] |==|  0.98339
ROOT
ATOM      1  CA  HIS F   2       1.492  31.712 -19.307  1.00 49.99 LIG 0.18  C 
ENDROOT
BRANCH 1 2
ATOM      2  N   HIS F   2       0.792  31.789 -18.024  1.00 49.83 LIG-0.35  N 
ATOM      3  C   GLY F   1       0.239  30.723 -17.450  1.00 49.82 LIG 0.24  C 
ATOM      4 O    GLY F   1       0.218  29.605 -17.973  1.00 49.53 LIG-0.27  OA
ATOM      5 H    HIS F   2       0.773  32.577 -17.682  1.00 49.83 LIG 0.16  HD
BRANCH 3 6
ATOM      6  CA  GLY F   1      -0.388  30.954 -16.085  1.00 49.90 LIG 0.33  C 
BRANCH 6 7
ATOM      7  N   GLY F   1      -1.860  30.711 -16.065  1.00 49.95 LIG-0.07  N 
ATOM      8 H3   GLY F   1      -2.274  31.355 -16.519  1.00 49.95 LIG 0.27  HD
ATOM      9 H1   GLY F   1      -2.037  29.924 -16.440  1.00 49.95 LIG 0.27  HD
ATOM     10 H2   GLY F   1      -2.150  30.710 -15.223  1.00 49.95 LIG 0.27  HD
ENDBRANCH 6 7
ENDBRANCH 3 6
ENDBRANCH 1 2
BRANCH 1 11
ATOM     11  C   HIS F   2       2.992  31.512 -19.101  1.00 50.00 LIG 0.24  C 
ATOM     12 O    HIS F   2       3.729  32.469 -18.847  1.00 49.82 LIG-0.27  OA
ATOM     13  N   GLY F   3       3.431  30.260 -19.202  1.00 50.02 LIG-0.35  N 
ATOM     14 H    GLY F   3       2.928  29.592 -19.403  1.00 50.02 LIG 0.16  HD
BRANCH 13 15
ATOM     15  CA  GLY F   3       4.828  29.909 -18.976  1.00 50.20 LIG 0.21  C 
BRANCH 15 16
ATOM     16  C   GLY F   3       5.782  30.765 -19.785  1.00 50.42 LIG 0.21  C 
ATOM     17 O    GLY F   3       5.511  31.085 -20.943  1.00 50.69 LIG-0.29  OA
ENDBRANCH 15 16
ENDBRANCH 13 15
ENDBRANCH 1 11
BRANCH 1 18
ATOM     18  CB  HIS F   2       1.227  32.965 -20.145  1.00 49.99 LIG 0.10  C 
BRANCH 18 19
ATOM     19  CG  HIS F   2       1.926  32.965 -21.469  1.00 50.63 LIG 0.06  A 
ATOM     20  CD2 HIS F   2       2.828  32.106 -22.004  1.00 51.31 LIG 0.14  A 
ATOM     21 NE2  HIS F   2       3.139  32.573 -23.259  1.00 51.32 LIG-0.25  NA
ATOM     22  CE1 HIS F   2       2.458  33.683 -23.485  1.00 50.87 LIG 0.23  A 
ATOM     23 ND1  HIS F   2       1.717  33.941 -22.421  1.00 50.82 LIG-0.24  NA
ENDBRANCH 18 19
ENDBRANCH 1 18
TORSDOF 8
ENDMDL
MODEL 72
USER: ADFR SOLUTION from run 56
USER: SCORE 7.305109 LL:  -0.992 LR:  -6.438 RR:   0.000 FEB:  -4.051
USER: RMSD 6.472650
USER: SEED 55
USER: STATUS no improvement in best in 21 clusters for 5 generations
USER: GENES 10
USER: genes 0 Translation |==|  0.54726 0.73196 0.41566
USER: genes 1 Rotation |==|  0.48206 0.52894 0.97507 0.65215
USER: genes 2 Torsion [C]-CA--N-[C] |==|  0.69492
USER: genes 3 Torsion [N]-C--CA-[N] |==|  0.31414
USER: genes 4 Torsion [C]-CA--N-[H3] |==|  0.64135
USER: genes 5 Torsion [N]-CA--C-[N] |==|  0.42984
USER: genes 6 Torsion [C]-N--CA-[C] |==|  0.74038
USER: genes 7 Torsion [N]-CA--C-[O] |==|  0.78835
USER: genes 8 Torsion [N]-CA--CB-[CG] |==|  0.87040
USER: genes 9 Torsion [CA]-CB--CG-[CD2] |==|  0.11489
ROOT
ATOM      1  CA  HIS F   2      -0.857  33.667 -20.457  1.00 49.99 LIG 0.18  C 
ENDROOT
BRANCH 1 2
ATOM      2  N   HIS F   2      -1.085  33.247 -21.839  1.00 49.83 LIG-0.35  N 
ATOM      3  C   GLY F   1      -0.313  33.654 -22.845  1.00 49.82 LIG 0.24  C 
ATOM      4 O    GLY F   1       0.613  34.457 -22.706  1.00 49.53 LIG-0.27  OA
ATOM      5 H    HIS F   2      -1.756  32.719 -21.939  1.00 49.83 LIG 0.16  HD
BRANCH 3 6
ATOM      6  CA  GLY F   1      -0.637  33.070 -24.210  1.00 49.90 LIG 0.33  C 
BRANCH 6 7
ATOM      7  N   GLY F   1      -1.152  34.085 -25.176  1.00 49.95 LIG-0.07  N 
ATOM      8 H3   GLY F   1      -1.908  33.790 -25.542  1.00 49.95 LIG 0.27  HD
ATOM      9 H1   GLY F   1      -1.309  34.850 -24.748  1.00 49.95 LIG 0.27  HD
ATOM     10 H2   GLY F   1      -0.547  34.221 -25.814  1.00 49.95 LIG 0.27  HD
ENDBRANCH 6 7
ENDBRANCH 3 6
ENDBRANCH 1 2
BRANCH 1 11
ATOM     11  C   HIS F   2      -0.348  32.504 -19.608  1.00 50.00 LIG 0.24  C 
ATOM     12 O    HIS F   2      -0.593  31.337 -19.923  1.00 49.82 LIG-0.27  OA
ATOM     13  N   GLY F   3       0.369  32.835 -18.536  1.00 50.02 LIG-0.35  N 
ATOM     14 H    GLY F   3       0.523  33.647 -18.297  1.00 50.02 LIG 0.16  HD
BRANCH 13 15
ATOM     15  CA  GLY F   3       0.966  31.832 -17.664  1.00 50.20 LIG 0.21  C 
BRANCH 15 16
ATOM     16  C   GLY F   3       0.078  31.481 -16.487  1.00 50.42 LIG 0.21  C 
ATOM     17 O    GLY F   3      -0.022  32.245 -15.526  1.00 50.69 LIG-0.29  OA
ENDBRANCH 15 16
ENDBRANCH 13 15
ENDBRANCH 1 11
BRANCH 1 18
ATOM     18  CB  HIS F   2      -2.133  34.257 -19.852  1.00 49.99 LIG 0.10  C 
BRANCH 18 19
ATOM     19  CG  HIS F   2      -2.823  35.243 -20.742  1.00 50.63 LIG 0.06  A 
ATOM     20  CD2 HIS F   2      -3.054  35.233 -22.078  1.00 51.31 LIG 0.14  A 
ATOM     21 NE2  HIS F   2      -3.743  36.384 -22.380  1.00 51.32 LIG-0.25  NA
ATOM     22  CE1 HIS F   2      -3.922  37.080 -21.270  1.00 50.87 LIG 0.23  A 
ATOM     23 ND1  HIS F   2      -3.379  36.413 -20.268  1.00 50.82 LIG-0.24  NA
ENDBRANCH 18 19
ENDBRANCH 1 18
TORSDOF 8
ENDMDL
MODEL 73
USER: ADFR SOLUTION from run 104
USER: SCORE 7.187175 LL:  -1.065 LR:  -6.439 RR:   0.000 FEB:  -4.053
USER: RMSD 5.979837
USER: SEED 103
USER: STATUS no improvement in best in 32 clusters for 5 generations
USER: GENES 10
USER: genes 0 Translation |==|  0.43533 0.52181 0.64016
USER: genes 1 Rotation |==|  0.51051 0.86117 0.20839 0.68550
USER: genes 2 Torsion [C]-CA--N-[C] |==|  0.61172
USER: genes 3 Torsion [N]-C--CA-[N] |==|  0.49120
USER: genes 4 Torsion [C]-CA--N-[H3] |==|  0.25788
USER: genes 5 Torsion [N]-CA--C-[N] |==|  0.50556
USER: genes 6 Torsion [C]-N--CA-[C] |==|  0.57983
USER: genes 7 Torsion [N]-CA--C-[O] |==|  0.48499
USER: genes 8 Torsion [N]-CA--CB-[CG] |==|  0.73089
USER: genes 9 Torsion [CA]-CB--CG-[CD2] |==|  0.04761
ROOT
ATOM      1  CA  HIS F   2      -2.788  30.988 -16.752  1.00 49.99 LIG 0.18  C 
ENDROOT
BRANCH 1 2
ATOM      2  N   HIS F   2      -3.413  32.282 -17.028  1.00 49.83 LIG-0.35  N 
ATOM      3  C   GLY F   1      -4.519  32.685 -16.407  1.00 49.82 LIG 0.24  C 
ATOM      4 O    GLY F   1      -5.136  31.986 -15.599  1.00 49.53 LIG-0.27  OA
ATOM      5 H    HIS F   2      -3.004  32.750 -17.622  1.00 49.83 LIG 0.16  HD
BRANCH 3 6
ATOM      6  CA  GLY F   1      -5.003  34.084 -16.753  1.00 49.90 LIG 0.33  C 
BRANCH 6 7
ATOM      7  N   GLY F   1      -6.285  34.446 -16.081  1.00 49.95 LIG-0.07  N 
ATOM      8 H3   GLY F   1      -6.111  34.865 -15.315  1.00 49.95 LIG 0.27  HD
ATOM      9 H1   GLY F   1      -6.757  34.983 -16.612  1.00 49.95 LIG 0.27  HD
ATOM     10 H2   GLY F   1      -6.753  33.708 -15.916  1.00 49.95 LIG 0.27  HD
ENDBRANCH 6 7
ENDBRANCH 3 6
ENDBRANCH 1 2
BRANCH 1 11
ATOM     11  C   HIS F   2      -1.265  31.112 -16.722  1.00 50.00 LIG 0.24  C 
ATOM     12 O    HIS F   2      -0.717  32.207 -16.868  1.00 49.82 LIG-0.27  OA
ATOM     13  N   GLY F   3      -0.594  29.981 -16.518  1.00 50.02 LIG-0.35  N 
ATOM     14 H    GLY F   3      -0.968  29.210 -16.440  1.00 50.02 LIG 0.16  HD
BRANCH 13 15
ATOM     15  CA  GLY F   3       0.859  29.952 -16.410  1.00 50.20 LIG 0.21  C 
BRANCH 15 16
ATOM     16  C   GLY F   3       1.452  28.634 -16.868  1.00 50.42 LIG 0.21  C 
ATOM     17 O    GLY F   3       2.673  28.483 -16.932  1.00 50.69 LIG-0.29  OA
ENDBRANCH 15 16
ENDBRANCH 13 15
ENDBRANCH 1 11
BRANCH 1 18
ATOM     18  CB  HIS F   2      -3.221  29.945 -17.784  1.00 49.99 LIG 0.10  C 
BRANCH 18 19
ATOM     19  CG  HIS F   2      -4.354  29.079 -17.328  1.00 50.63 LIG 0.06  A 
ATOM     20  CD2 HIS F   2      -5.250  29.235 -16.322  1.00 51.31 LIG 0.14  A 
ATOM     21 NE2  HIS F   2      -6.086  28.143 -16.351  1.00 51.32 LIG-0.25  NA
ATOM     22  CE1 HIS F   2      -5.713  27.343 -17.333  1.00 50.87 LIG 0.23  A 
ATOM     23 ND1  HIS F   2      -4.672  27.885 -17.940  1.00 50.82 LIG-0.24  NA
ENDBRANCH 18 19
ENDBRANCH 1 18
TORSDOF 8
ENDMDL
MODEL 74
USER: ADFR SOLUTION from run 171
USER: SCORE 7.616175 LL:  -1.248 LR:  -6.425 RR:   0.000 FEB:  -4.039
USER: RMSD 6.358046
USER: SEED 170
USER: STATUS no improvement in best in 34 clusters for 5 generations
USER: GENES 10
USER: genes 0 Translation |==|  0.57252 0.56216 0.49512
USER: genes 1 Rotation |==|  0.28505 0.15566 0.26237 0.66957
USER: genes 2 Torsion [C]-CA--N-[C] |==|  0.16622
USER: genes 3 Torsion [N]-C--CA-[N] |==|  0.82062
USER: genes 4 Torsion [C]-CA--N-[H3] |==|  0.44755
USER: genes 5 Torsion [N]-CA--C-[N] |==|  0.11111
USER: genes 6 Torsion [C]-N--CA-[C] |==|  0.21347
USER: genes 7 Torsion [N]-CA--C-[O] |==|  0.46287
USER: genes 8 Torsion [N]-CA--CB-[CG] |==|  0.87067
USER: genes 9 Torsion [CA]-CB--CG-[CD2] |==|  0.27730
ROOT
ATOM      1  CA  HIS F   2      -0.421  31.502 -19.145  1.00 49.99 LIG 0.18  C 
ENDROOT
BRANCH 1 2
ATOM      2  N   HIS F   2      -0.052  30.247 -18.491  1.00 49.83 LIG-0.35  N 
ATOM      3  C   GLY F   1       1.047  30.126 -17.749  1.00 49.82 LIG 0.24  C 
ATOM      4 O    GLY F   1       1.869  31.036 -17.602  1.00 49.53 LIG-0.27  OA
ATOM      5 H    HIS F   2      -0.605  29.603 -18.628  1.00 49.83 LIG 0.16  HD
BRANCH 3 6
ATOM      6  CA  GLY F   1       1.251  28.778 -17.079  1.00 49.90 LIG 0.33  C 
BRANCH 6 7
ATOM      7  N   GLY F   1       0.203  28.460 -16.065  1.00 49.95 LIG-0.07  N 
ATOM      8 H3   GLY F   1       0.200  27.584 -15.906  1.00 49.95 LIG 0.27  HD
ATOM      9 H1   GLY F   1       0.378  28.898 -15.310  1.00 49.95 LIG 0.27  HD
ATOM     10 H2   GLY F   1      -0.594  28.708 -16.373  1.00 49.95 LIG 0.27  HD
ENDBRANCH 6 7
ENDBRANCH 3 6
ENDBRANCH 1 2
BRANCH 1 11
ATOM     11  C   HIS F   2       0.665  31.950 -20.122  1.00 50.00 LIG 0.24  C 
ATOM     12 O    HIS F   2       0.985  33.138 -20.210  1.00 49.82 LIG-0.27  OA
ATOM     13  N   GLY F   3       1.233  30.986 -20.843  1.00 50.02 LIG-0.35  N 
ATOM     14 H    GLY F   3       0.998  30.160 -20.804  1.00 50.02 LIG 0.16  HD
BRANCH 13 15
ATOM     15  CA  GLY F   3       2.321  31.255 -21.774  1.00 50.20 LIG 0.21  C 
BRANCH 15 16
ATOM     16  C   GLY F   3       3.650  31.460 -21.075  1.00 50.42 LIG 0.21  C 
ATOM     17 O    GLY F   3       4.703  31.453 -21.713  1.00 50.69 LIG-0.29  OA
ENDBRANCH 15 16
ENDBRANCH 13 15
ENDBRANCH 1 11
BRANCH 1 18
ATOM     18  CB  HIS F   2      -0.696  32.594 -18.109  1.00 49.99 LIG 0.10  C 
BRANCH 18 19
ATOM     19  CG  HIS F   2      -1.572  32.148 -16.980  1.00 50.63 LIG 0.06  A 
ATOM     20  CD2 HIS F   2      -1.273  31.753 -15.718  1.00 51.31 LIG 0.14  A 
ATOM     21 NE2  HIS F   2      -2.461  31.460 -15.091  1.00 51.32 LIG-0.25  NA
ATOM     22  CE1 HIS F   2      -3.454  31.660 -15.940  1.00 50.87 LIG 0.23  A 
ATOM     23 ND1  HIS F   2      -2.945  32.077 -17.086  1.00 50.82 LIG-0.24  NA
ENDBRANCH 18 19
ENDBRANCH 1 18
TORSDOF 8
ENDMDL
MODEL 75
USER: ADFR SOLUTION from run 157
USER: SCORE 7.550886 LL:  -1.228 LR:  -6.421 RR:   0.000 FEB:  -4.034
USER: RMSD 7.176029
USER: SEED 156
USER: STATUS no improvement in best in 40 clusters for 5 generations
USER: GENES 10
USER: genes 0 Translation |==|  0.46656 0.80969 0.34583
USER: genes 1 Rotation |==|  0.45269 0.54301 0.00920 0.57087
USER: genes 2 Torsion [C]-CA--N-[C] |==|  0.67785
USER: genes 3 Torsion [N]-C--CA-[N] |==|  0.66708
USER: genes 4 Torsion [C]-CA--N-[H3] |==|  0.24655
USER: genes 5 Torsion [N]-CA--C-[N] |==|  0.04924
USER: genes 6 Torsion [C]-N--CA-[C] |==|  0.45651
USER: genes 7 Torsion [N]-CA--C-[O] |==|  0.49273
USER: genes 8 Torsion [N]-CA--CB-[CG] |==|  0.22335
USER: genes 9 Torsion [CA]-CB--CG-[CD2] |==|  0.33972
ROOT
ATOM      1  CA  HIS F   2      -2.249  34.659 -21.609  1.00 49.99 LIG 0.18  C 
ENDROOT
BRANCH 1 2
ATOM      2  N   HIS F   2      -2.537  34.503 -23.035  1.00 49.83 LIG-0.35  N 
ATOM      3  C   GLY F   1      -2.812  35.539 -23.824  1.00 49.82 LIG 0.24  C 
ATOM      4 O    GLY F   1      -2.905  36.699 -23.412  1.00 49.53 LIG-0.27  OA
ATOM      5 H    HIS F   2      -2.511  33.689 -23.311  1.00 49.83 LIG 0.16  HD
BRANCH 3 6
ATOM      6  CA  GLY F   1      -3.018  35.218 -25.295  1.00 49.90 LIG 0.33  C 
BRANCH 6 7
ATOM      7  N   GLY F   1      -2.047  35.914 -26.190  1.00 49.95 LIG-0.07  N 
ATOM      8 H3   GLY F   1      -1.319  35.412 -26.286  1.00 49.95 LIG 0.27  HD
ATOM      9 H1   GLY F   1      -2.421  36.049 -26.987  1.00 49.95 LIG 0.27  HD
ATOM     10 H2   GLY F   1      -1.822  36.697 -25.833  1.00 49.95 LIG 0.27  HD
ENDBRANCH 6 7
ENDBRANCH 3 6
ENDBRANCH 1 2
BRANCH 1 11
ATOM     11  C   HIS F   2      -0.818  34.228 -21.289  1.00 50.00 LIG 0.24  C 
ATOM     12 O    HIS F   2      -0.481  33.963 -20.132  1.00 49.82 LIG-0.27  OA
ATOM     13  N   GLY F   3       0.012  34.151 -22.327  1.00 50.02 LIG-0.35  N 
ATOM     14 H    GLY F   3      -0.210  34.358 -23.132  1.00 50.02 LIG 0.16  HD
BRANCH 13 15
ATOM     15  CA  GLY F   3       1.391  33.702 -22.183  1.00 50.20 LIG 0.21  C 
BRANCH 15 16
ATOM     16  C   GLY F   3       2.025  33.334 -23.510  1.00 50.42 LIG 0.21  C 
ATOM     17 O    GLY F   3       3.203  32.981 -23.567  1.00 50.69 LIG-0.29  OA
ENDBRANCH 15 16
ENDBRANCH 13 15
ENDBRANCH 1 11
BRANCH 1 18
ATOM     18  CB  HIS F   2      -3.250  33.868 -20.764  1.00 49.99 LIG 0.10  C 
BRANCH 18 19
ATOM     19  CG  HIS F   2      -2.936  32.406 -20.667  1.00 50.63 LIG 0.06  A 
ATOM     20  CD2 HIS F   2      -2.713  31.609 -19.594  1.00 51.31 LIG 0.14  A 
ATOM     21 NE2  HIS F   2      -2.481  30.341 -20.072  1.00 51.32 LIG-0.25  NA
ATOM     22  CE1 HIS F   2      -2.552  30.359 -21.391  1.00 50.87 LIG 0.23  A 
ATOM     23 ND1  HIS F   2      -2.828  31.593 -21.776  1.00 50.82 LIG-0.24  NA
ENDBRANCH 18 19
ENDBRANCH 1 18
TORSDOF 8
ENDMDL
MODEL 76
USER: ADFR SOLUTION from run 15
USER: SCORE 7.559036 LL:  -1.204 LR:  -6.420 RR:   0.000 FEB:  -4.034
USER: RMSD 6.005444
USER: SEED 203046
USER: STATUS no improvement in best in 28 clusters for 5 generations
USER: GENES 10
USER: genes 0 Translation |==|  0.69229 0.59609 0.50689
USER: genes 1 Rotation |==|  0.72208 0.21285 0.83799 0.56313
USER: genes 2 Torsion [C]-CA--N-[C] |==|  0.13889
USER: genes 3 Torsion [N]-C--CA-[N] |==|  0.36682
USER: genes 4 Torsion [C]-CA--N-[H3] |==|  0.18178
USER: genes 5 Torsion [N]-CA--C-[N] |==|  0.12222
USER: genes 6 Torsion [C]-N--CA-[C] |==|  0.82817
USER: genes 7 Torsion [N]-CA--C-[O] |==|  0.92241
USER: genes 8 Torsion [N]-CA--CB-[CG] |==|  0.56492
USER: genes 9 Torsion [CA]-CB--CG-[CD2] |==|  0.62438
ROOT
ATOM      1  CA  HIS F   2       1.645  31.935 -18.951  1.00 49.99 LIG 0.18  C 
ENDROOT
BRANCH 1 2
ATOM      2  N   HIS F   2       0.710  33.057 -19.043  1.00 49.83 LIG-0.35  N 
ATOM      3  C   GLY F   1      -0.333  33.050 -19.870  1.00 49.82 LIG 0.24  C 
ATOM      4 O    GLY F   1      -0.563  32.132 -20.662  1.00 49.53 LIG-0.27  OA
ATOM      5 H    HIS F   2       0.896  33.713 -18.519  1.00 49.83 LIG 0.16  HD
BRANCH 3 6
ATOM      6  CA  GLY F   1      -1.249  34.260 -19.794  1.00 49.90 LIG 0.33  C 
BRANCH 6 7
ATOM      7  N   GLY F   1      -1.576  34.836 -21.132  1.00 49.95 LIG-0.07  N 
ATOM      8 H3   GLY F   1      -2.053  34.248 -21.599  1.00 49.95 LIG 0.27  HD
ATOM      9 H1   GLY F   1      -2.047  35.584 -21.026  1.00 49.95 LIG 0.27  HD
ATOM     10 H2   GLY F   1      -0.823  35.020 -21.568  1.00 49.95 LIG 0.27  HD
ENDBRANCH 6 7
ENDBRANCH 3 6
ENDBRANCH 1 2
BRANCH 1 11
ATOM     11  C   HIS F   2       2.132  31.514 -20.337  1.00 50.00 LIG 0.24  C 
ATOM     12 O    HIS F   2       2.190  30.323 -20.651  1.00 49.82 LIG-0.27  OA
ATOM     13  N   GLY F   3       2.468  32.504 -21.161  1.00 50.02 LIG-0.35  N 
ATOM     14 H    GLY F   3       2.453  33.335 -20.940  1.00 50.02 LIG 0.16  HD
BRANCH 13 15
ATOM     15  CA  GLY F   3       2.897  32.257 -22.532  1.00 50.20 LIG 0.21  C 
BRANCH 15 16
ATOM     16  C   GLY F   3       4.165  31.429 -22.605  1.00 50.42 LIG 0.21  C 
ATOM     17 O    GLY F   3       4.989  31.460 -21.691  1.00 50.69 LIG-0.29  OA
ENDBRANCH 15 16
ENDBRANCH 13 15
ENDBRANCH 1 11
BRANCH 1 18
ATOM     18  CB  HIS F   2       1.002  30.752 -18.225  1.00 49.99 LIG 0.10  C 
BRANCH 18 19
ATOM     19  CG  HIS F   2       1.991  29.814 -17.606  1.00 50.63 LIG 0.06  A 
ATOM     20  CD2 HIS F   2       2.057  28.460 -17.600  1.00 51.31 LIG 0.14  A 
ATOM     21 NE2  HIS F   2       3.181  28.110 -16.890  1.00 51.32 LIG-0.25  NA
ATOM     22  CE1 HIS F   2       3.782  29.210 -16.469  1.00 50.87 LIG 0.23  A 
ATOM     23 ND1  HIS F   2       3.085  30.252 -16.889  1.00 50.82 LIG-0.24  NA
ENDBRANCH 18 19
ENDBRANCH 1 18
TORSDOF 8
ENDMDL
MODEL 77
USER: ADFR SOLUTION from run 50
USER: SCORE 7.712717 LL:  -1.402 LR:  -6.417 RR:   0.000 FEB:  -4.031
USER: RMSD 7.911295
USER: SEED 49
USER: STATUS no improvement in best in 25 clusters for 5 generations
USER: GENES 10
USER: genes 0 Translation |==|  0.61452 0.64704 0.32445
USER: genes 1 Rotation |==|  0.31413 0.73870 0.14462 0.67940
USER: genes 2 Torsion [C]-CA--N-[C] |==|  0.83670
USER: genes 3 Torsion [N]-C--CA-[N] |==|  0.58956
USER: genes 4 Torsion [C]-CA--N-[H3] |==|  0.56355
USER: genes 5 Torsion [N]-CA--C-[N] |==|  0.86873
USER: genes 6 Torsion [C]-N--CA-[C] |==|  0.19986
USER: genes 7 Torsion [N]-CA--C-[O] |==|  0.85612
USER: genes 8 Torsion [N]-CA--CB-[CG] |==|  0.10414
USER: genes 9 Torsion [CA]-CB--CG-[CD2] |==|  0.72516
ROOT
ATOM      1  CA  HIS F   2       0.304  32.585 -21.962  1.00 49.99 LIG 0.18  C 
ENDROOT
BRANCH 1 2
ATOM      2  N   HIS F   2      -0.918  32.993 -22.657  1.00 49.83 LIG-0.35  N 
ATOM      3  C   GLY F   1      -1.226  34.271 -22.864  1.00 49.82 LIG 0.24  C 
ATOM      4 O    GLY F   1      -0.547  35.210 -22.440  1.00 49.53 LIG-0.27  OA
ATOM      5 H    HIS F   2      -1.410  32.337 -22.916  1.00 49.83 LIG 0.16  HD
BRANCH 3 6
ATOM      6  CA  GLY F   1      -2.492  34.528 -23.664  1.00 49.90 LIG 0.33  C 
BRANCH 6 7
ATOM      7  N   GLY F   1      -2.422  35.764 -24.497  1.00 49.95 LIG-0.07  N 
ATOM      8 H3   GLY F   1      -3.246  36.051 -24.673  1.00 49.95 LIG 0.27  HD
ATOM      9 H1   GLY F   1      -1.976  36.396 -24.055  1.00 49.95 LIG 0.27  HD
ATOM     10 H2   GLY F   1      -2.002  35.585 -25.260  1.00 49.95 LIG 0.27  HD
ENDBRANCH 6 7
ENDBRANCH 3 6
ENDBRANCH 1 2
BRANCH 1 11
ATOM     11  C   HIS F   2       1.544  33.113 -22.679  1.00 50.00 LIG 0.24  C 
ATOM     12 O    HIS F   2       2.453  33.661 -22.050  1.00 49.82 LIG-0.27  OA
ATOM     13  N   GLY F   3       1.575  32.933 -23.997  1.00 50.02 LIG-0.35  N 
ATOM     14 H    GLY F   3       0.934  32.574 -24.445  1.00 50.02 LIG 0.16  HD
BRANCH 13 15
ATOM     15  CA  GLY F   3       2.718  33.335 -24.807  1.00 50.20 LIG 0.21  C 
BRANCH 15 16
ATOM     16  C   GLY F   3       3.924  32.441 -24.598  1.00 50.42 LIG 0.21  C 
ATOM     17 O    GLY F   3       4.346  32.210 -23.464  1.00 50.69 LIG-0.29  OA
ENDBRANCH 15 16
ENDBRANCH 13 15
ENDBRANCH 1 11
BRANCH 1 18
ATOM     18  CB  HIS F   2       0.368  31.062 -21.828  1.00 49.99 LIG 0.10  C 
BRANCH 18 19
ATOM     19  CG  HIS F   2      -0.160  30.328 -23.022  1.00 50.63 LIG 0.06  A 
ATOM     20  CD2 HIS F   2      -1.363  29.749 -23.256  1.00 51.31 LIG 0.14  A 
ATOM     21 NE2  HIS F   2      -1.320  29.221 -24.524  1.00 51.32 LIG-0.25  NA
ATOM     22  CE1 HIS F   2      -0.131  29.461 -25.049  1.00 50.87 LIG 0.23  A 
ATOM     23 ND1  HIS F   2       0.588  30.129 -24.164  1.00 50.82 LIG-0.24  NA
ENDBRANCH 18 19
ENDBRANCH 1 18
TORSDOF 8
ENDMDL
MODEL 78
USER: ADFR SOLUTION from run 139
USER: SCORE 7.771438 LL:  -1.392 LR:  -6.404 RR:   0.000 FEB:  -4.018
USER: RMSD 8.235745
USER: SEED 138
USER: STATUS no improvement in best in 33 clusters for 5 generations
USER: GENES 10
USER: genes 0 Translation |==|  0.67762 0.61513 0.12272
USER: genes 1 Rotation |==|  0.59229 0.74561 0.52496 0.92490
USER: genes 2 Torsion [C]-CA--N-[C] |==|  0.82510
USER: genes 3 Torsion [N]-C--CA-[N] |==|  0.89110
USER: genes 4 Torsion [C]-CA--N-[H3] |==|  0.15684
USER: genes 5 Torsion [N]-CA--C-[N] |==|  0.41411
USER: genes 6 Torsion [C]-N--CA-[C] |==|  0.72532
USER: genes 7 Torsion [N]-CA--C-[O] |==|  0.85713
USER: genes 8 Torsion [N]-CA--CB-[CG] |==|  0.47188
USER: genes 9 Torsion [CA]-CB--CG-[CD2] |==|  0.23214
ROOT
ATOM      1  CA  HIS F   2       1.392  32.178 -25.290  1.00 49.99 LIG 0.18  C 
ENDROOT
BRANCH 1 2
ATOM      2  N   HIS F   2       0.260  32.902 -25.871  1.00 49.83 LIG-0.35  N 
ATOM      3  C   GLY F   1      -1.003  32.603 -25.577  1.00 49.82 LIG 0.24  C 
ATOM      4 O    GLY F   1      -1.325  31.664 -24.844  1.00 49.53 LIG-0.27  OA
ATOM      5 H    HIS F   2       0.486  33.530 -26.413  1.00 49.83 LIG 0.16  HD
BRANCH 3 6
ATOM      6  CA  GLY F   1      -2.060  33.494 -26.206  1.00 49.90 LIG 0.33  C 
BRANCH 6 7
ATOM      7  N   GLY F   1      -1.672  34.935 -26.239  1.00 49.95 LIG-0.07  N 
ATOM      8 H3   GLY F   1      -0.898  35.025 -26.668  1.00 49.95 LIG 0.27  HD
ATOM      9 H1   GLY F   1      -2.301  35.403 -26.662  1.00 49.95 LIG 0.27  HD
ATOM     10 H2   GLY F   1      -1.587  35.239 -25.407  1.00 49.95 LIG 0.27  HD
ENDBRANCH 6 7
ENDBRANCH 3 6
ENDBRANCH 1 2
BRANCH 1 11
ATOM     11  C   HIS F   2       1.435  32.356 -23.774  1.00 50.00 LIG 0.24  C 
ATOM     12 O    HIS F   2       1.014  33.388 -23.246  1.00 49.82 LIG-0.27  OA
ATOM     13  N   GLY F   3       1.937  31.335 -23.082  1.00 50.02 LIG-0.35  N 
ATOM     14 H    GLY F   3       2.255  30.623 -23.445  1.00 50.02 LIG 0.16  HD
BRANCH 13 15
ATOM     15  CA  GLY F   3       1.991  31.338 -21.626  1.00 50.20 LIG 0.21  C 
BRANCH 15 16
ATOM     16  C   GLY F   3       3.356  31.727 -21.095  1.00 50.42 LIG 0.21  C 
ATOM     17 O    GLY F   3       4.372  31.161 -21.499  1.00 50.69 LIG-0.29  OA
ENDBRANCH 15 16
ENDBRANCH 13 15
ENDBRANCH 1 11
BRANCH 1 18
ATOM     18  CB  HIS F   2       2.709  32.633 -25.922  1.00 49.99 LIG 0.10  C 
BRANCH 18 19
ATOM     19  CG  HIS F   2       3.926  32.118 -25.219  1.00 50.63 LIG 0.06  A 
ATOM     20  CD2 HIS F   2       4.584  30.937 -25.320  1.00 51.31 LIG 0.14  A 
ATOM     21 NE2  HIS F   2       5.649  30.990 -24.452  1.00 51.32 LIG-0.25  NA
ATOM     22  CE1 HIS F   2       5.642  32.158 -23.835  1.00 50.87 LIG 0.23  A 
ATOM     23 ND1  HIS F   2       4.614  32.859 -24.281  1.00 50.82 LIG-0.24  NA
ENDBRANCH 18 19
ENDBRANCH 1 18
TORSDOF 8
ENDMDL
MODEL 79
USER: ADFR SOLUTION from run 74
USER: SCORE 7.614691 LL:  -1.279 LR:  -6.388 RR:   0.000 FEB:  -4.002
USER: RMSD 6.585701
USER: SEED 73
USER: STATUS no improvement in best in 37 clusters for 5 generations
USER: GENES 10
USER: genes 0 Translation |==|  0.72130 0.46662 0.63029
USER: genes 1 Rotation |==|  0.56396 0.20012 0.89494 0.50280
USER: genes 2 Torsion [C]-CA--N-[C] |==|  0.14908
USER: genes 3 Torsion [N]-C--CA-[N] |==|  0.91277
USER: genes 4 Torsion [C]-CA--N-[H3] |==|  0.01859
USER: genes 5 Torsion [N]-CA--C-[N] |==|  0.12222
USER: genes 6 Torsion [C]-N--CA-[C] |==|  0.41788
USER: genes 7 Torsion [N]-CA--C-[O] |==|  0.76310
USER: genes 8 Torsion [N]-CA--CB-[CG] |==|  0.93812
USER: genes 9 Torsion [CA]-CB--CG-[CD2] |==|  0.35427
ROOT
ATOM      1  CA  HIS F   2       2.145  30.284 -16.915  1.00 49.99 LIG 0.18  C 
ENDROOT
BRANCH 1 2
ATOM      2  N   HIS F   2       1.727  31.519 -17.581  1.00 49.83 LIG-0.35  N 
ATOM      3  C   GLY F   1       1.386  31.554 -18.867  1.00 49.82 LIG 0.24  C 
ATOM      4 O    GLY F   1       1.450  30.573 -19.613  1.00 49.53 LIG-0.27  OA
ATOM      5 H    HIS F   2       1.723  32.209 -17.069  1.00 49.83 LIG 0.16  HD
BRANCH 3 6
ATOM      6  CA  GLY F   1       0.906  32.898 -19.390  1.00 49.90 LIG 0.33  C 
BRANCH 6 7
ATOM      7  N   GLY F   1       0.203  33.715 -18.357  1.00 49.95 LIG-0.07  N 
ATOM      8 H3   GLY F   1       0.266  33.311 -17.566  1.00 49.95 LIG 0.27  HD
ATOM      9 H1   GLY F   1       0.578  34.521 -18.310  1.00 49.95 LIG 0.27  HD
ATOM     10 H2   GLY F   1      -0.654  33.800 -18.579  1.00 49.95 LIG 0.27  HD
ENDBRANCH 6 7
ENDBRANCH 3 6
ENDBRANCH 1 2
BRANCH 1 11
ATOM     11  C   HIS F   2       3.290  29.615 -17.673  1.00 50.00 LIG 0.24  C 
ATOM     12 O    HIS F   2       3.287  28.399 -17.879  1.00 49.82 LIG-0.27  OA
ATOM     13  N   GLY F   3       4.261  30.424 -18.093  1.00 50.02 LIG-0.35  N 
ATOM     14 H    GLY F   3       4.282  31.268 -17.932  1.00 50.02 LIG 0.16  HD
BRANCH 13 15
ATOM     15  CA  GLY F   3       5.389  29.936 -18.876  1.00 50.20 LIG 0.21  C 
BRANCH 15 16
ATOM     16  C   GLY F   3       5.945  30.989 -19.815  1.00 50.42 LIG 0.21  C 
ATOM     17 O    GLY F   3       5.452  31.159 -20.931  1.00 50.69 LIG-0.29  OA
ENDBRANCH 15 16
ENDBRANCH 13 15
ENDBRANCH 1 11
BRANCH 1 18
ATOM     18  CB  HIS F   2       0.965  29.323 -16.766  1.00 49.99 LIG 0.10  C 
BRANCH 18 19
ATOM     19  CG  HIS F   2      -0.372  29.995 -16.815  1.00 50.63 LIG 0.06  A 
ATOM     20  CD2 HIS F   2      -1.470  29.748 -17.571  1.00 51.31 LIG 0.14  A 
ATOM     21 NE2  HIS F   2      -2.429  30.663 -17.204  1.00 51.32 LIG-0.25  NA
ATOM     22  CE1 HIS F   2      -1.936  31.448 -16.262  1.00 50.87 LIG 0.23  A 
ATOM     23 ND1  HIS F   2      -0.698  31.065 -16.008  1.00 50.82 LIG-0.24  NA
ENDBRANCH 18 19
ENDBRANCH 1 18
TORSDOF 8
ENDMDL
MODEL 80
USER: ADFR SOLUTION from run 107
USER: SCORE 7.566088 LL:  -1.278 LR:  -6.387 RR:   0.000 FEB:  -4.001
USER: RMSD 6.559415
USER: SEED 106
USER: STATUS no improvement in best in 25 clusters for 5 generations
USER: GENES 10
USER: genes 0 Translation |==|  0.44832 0.81515 0.27547
USER: genes 1 Rotation |==|  0.47427 0.49486 0.36582 0.98094
USER: genes 2 Torsion [C]-CA--N-[C] |==|  0.76844
USER: genes 3 Torsion [N]-C--CA-[N] |==|  0.94553
USER: genes 4 Torsion [C]-CA--N-[H3] |==|  0.98603
USER: genes 5 Torsion [N]-CA--C-[N] |==|  0.47319
USER: genes 6 Torsion [C]-N--CA-[C] |==|  0.45400
USER: genes 7 Torsion [N]-CA--C-[O] |==|  0.10750
USER: genes 8 Torsion [N]-CA--CB-[CG] |==|  0.55308
USER: genes 9 Torsion [CA]-CB--CG-[CD2] |==|  0.55458
ROOT
ATOM      1  CA  HIS F   2      -2.563  34.728 -22.770  1.00 49.99 LIG 0.18  C 
ENDROOT
BRANCH 1 2
ATOM      2  N   HIS F   2      -2.319  34.834 -24.209  1.00 49.83 LIG-0.35  N 
ATOM      3  C   GLY F   1      -3.267  34.597 -25.112  1.00 49.82 LIG 0.24  C 
ATOM      4 O    GLY F   1      -4.404  34.216 -24.818  1.00 49.53 LIG-0.27  OA
ATOM      5 H    HIS F   2      -1.515  35.060 -24.412  1.00 49.83 LIG 0.16  HD
BRANCH 3 6
ATOM      6  CA  GLY F   1      -2.874  34.820 -26.563  1.00 49.90 LIG 0.33  C 
BRANCH 6 7
ATOM      7  N   GLY F   1      -1.672  35.691 -26.720  1.00 49.95 LIG-0.07  N 
ATOM      8 H3   GLY F   1      -1.423  36.000 -25.923  1.00 49.95 LIG 0.27  HD
ATOM      9 H1   GLY F   1      -1.007  35.219 -27.075  1.00 49.95 LIG 0.27  HD
ATOM     10 H2   GLY F   1      -1.868  36.375 -27.254  1.00 49.95 LIG 0.27  HD
ENDBRANCH 6 7
ENDBRANCH 3 6
ENDBRANCH 1 2
BRANCH 1 11
ATOM     11  C   HIS F   2      -3.187  36.012 -22.225  1.00 50.00 LIG 0.24  C 
ATOM     12 O    HIS F   2      -3.268  37.023 -22.928  1.00 49.82 LIG-0.27  OA
ATOM     13  N   GLY F   3      -3.634  35.956 -20.973  1.00 50.02 LIG-0.35  N 
ATOM     14 H    GLY F   3      -3.558  35.262 -20.469  1.00 50.02 LIG 0.16  HD
BRANCH 13 15
ATOM     15  CA  GLY F   3      -4.301  37.085 -20.338  1.00 50.20 LIG 0.21  C 
BRANCH 15 16
ATOM     16  C   GLY F   3      -5.067  36.684 -19.092  1.00 50.42 LIG 0.21  C 
ATOM     17 O    GLY F   3      -4.609  35.845 -18.316  1.00 50.69 LIG-0.29  OA
ENDBRANCH 15 16
ENDBRANCH 13 15
ENDBRANCH 1 11
BRANCH 1 18
ATOM     18  CB  HIS F   2      -1.270  34.400 -22.022  1.00 49.99 LIG 0.10  C 
BRANCH 18 19
ATOM     19  CG  HIS F   2      -1.490  33.837 -20.652  1.00 50.63 LIG 0.06  A 
ATOM     20  CD2 HIS F   2      -0.667  33.752 -19.578  1.00 51.31 LIG 0.14  A 
ATOM     21 NE2  HIS F   2      -1.381  33.152 -18.567  1.00 51.32 LIG-0.25  NA
ATOM     22  CE1 HIS F   2      -2.596  32.873 -19.006  1.00 50.87 LIG 0.23  A 
ATOM     23 ND1  HIS F   2      -2.688  33.278 -20.261  1.00 50.82 LIG-0.24  NA
ENDBRANCH 18 19
ENDBRANCH 1 18
TORSDOF 8
ENDMDL
MODEL 81
USER: ADFR SOLUTION from run 54
USER: SCORE 7.507878 LL:  -1.194 LR:  -6.386 RR:   0.000 FEB:  -4.000
USER: RMSD 6.927446
USER: SEED 53
USER: STATUS no improvement in best in 30 clusters for 5 generations
USER: GENES 10
USER: genes 0 Translation |==|  0.54819 0.74758 0.46741
USER: genes 1 Rotation |==|  0.52866 0.35525 0.97698 0.52677
USER: genes 2 Torsion [C]-CA--N-[C] |==|  0.16658
USER: genes 3 Torsion [N]-C--CA-[N] |==|  0.98405
USER: genes 4 Torsion [C]-CA--N-[H3] |==|  0.81974
USER: genes 5 Torsion [N]-CA--C-[N] |==|  0.12178
USER: genes 6 Torsion [C]-N--CA-[C] |==|  0.33303
USER: genes 7 Torsion [N]-CA--C-[O] |==|  0.20648
USER: genes 8 Torsion [N]-CA--CB-[CG] |==|  0.83156
USER: genes 9 Torsion [CA]-CB--CG-[CD2] |==|  0.54024
ROOT
ATOM      1  CA  HIS F   2      -0.841  33.867 -19.603  1.00 49.99 LIG 0.18  C 
ENDROOT
BRANCH 1 2
ATOM      2  N   HIS F   2      -1.085  34.374 -20.953  1.00 49.83 LIG-0.35  N 
ATOM      3  C   GLY F   1      -1.464  33.583 -21.954  1.00 49.82 LIG 0.24  C 
ATOM      4 O    GLY F   1      -1.583  32.359 -21.844  1.00 49.53 LIG-0.27  OA
ATOM      5 H    HIS F   2      -0.963  35.221 -21.037  1.00 49.83 LIG 0.16  HD
BRANCH 3 6
ATOM      6  CA  GLY F   1      -1.747  34.274 -23.277  1.00 49.90 LIG 0.33  C 
BRANCH 6 7
ATOM      7  N   GLY F   1      -1.679  35.763 -23.190  1.00 49.95 LIG-0.07  N 
ATOM      8 H3   GLY F   1      -2.327  36.059 -22.656  1.00 49.95 LIG 0.27  HD
ATOM      9 H1   GLY F   1      -0.889  36.005 -22.860  1.00 49.95 LIG 0.27  HD
ATOM     10 H2   GLY F   1      -1.782  36.113 -24.001  1.00 49.95 LIG 0.27  HD
ENDBRANCH 6 7
ENDBRANCH 3 6
ENDBRANCH 1 2
BRANCH 1 11
ATOM     11  C   HIS F   2       0.269  32.817 -19.605  1.00 50.00 LIG 0.24  C 
ATOM     12 O    HIS F   2       0.149  31.768 -18.967  1.00 49.82 LIG-0.27  OA
ATOM     13  N   GLY F   3       1.342  33.106 -20.339  1.00 50.02 LIG-0.35  N 
ATOM     14 H    GLY F   3       1.442  33.846 -20.766  1.00 50.02 LIG 0.16  HD
BRANCH 13 15
ATOM     15  CA  GLY F   3       2.456  32.178 -20.481  1.00 50.20 LIG 0.21  C 
BRANCH 15 16
ATOM     16  C   GLY F   3       2.697  31.773 -21.922  1.00 50.42 LIG 0.21  C 
ATOM     17 O    GLY F   3       3.220  32.557 -22.715  1.00 50.69 LIG-0.29  OA
ENDBRANCH 15 16
ENDBRANCH 13 15
ENDBRANCH 1 11
BRANCH 1 18
ATOM     18  CB  HIS F   2      -2.123  33.291 -19.000  1.00 49.99 LIG 0.10  C 
BRANCH 18 19
ATOM     19  CG  HIS F   2      -3.232  34.290 -18.872  1.00 50.63 LIG 0.06  A 
ATOM     20  CD2 HIS F   2      -4.394  34.252 -18.175  1.00 51.31 LIG 0.14  A 
ATOM     21 NE2  HIS F   2      -5.043  35.443 -18.402  1.00 51.32 LIG-0.25  NA
ATOM     22  CE1 HIS F   2      -4.309  36.183 -19.215  1.00 50.87 LIG 0.23  A 
ATOM     23 ND1  HIS F   2      -3.211  35.511 -19.512  1.00 50.82 LIG-0.24  NA
ENDBRANCH 18 19
ENDBRANCH 1 18
TORSDOF 8
ENDMDL
MODEL 82
USER: ADFR SOLUTION from run 21
USER: SCORE 7.681718 LL:  -1.327 LR:  -6.372 RR:   0.000 FEB:  -3.985
USER: RMSD 5.443077
USER: SEED 20
USER: STATUS no improvement in best in 21 clusters for 5 generations
USER: GENES 10
USER: genes 0 Translation |==|  0.57466 0.51563 0.68183
USER: genes 1 Rotation |==|  0.31224 0.15552 0.62627 0.78308
USER: genes 2 Torsion [C]-CA--N-[C] |==|  0.81005
USER: genes 3 Torsion [N]-C--CA-[N] |==|  0.26350
USER: genes 4 Torsion [C]-CA--N-[H3] |==|  0.18585
USER: genes 5 Torsion [N]-CA--C-[N] |==|  0.42764
USER: genes 6 Torsion [C]-N--CA-[C] |==|  0.54625
USER: genes 7 Torsion [N]-CA--C-[O] |==|  0.85542
USER: genes 8 Torsion [N]-CA--CB-[CG] |==|  0.51233
USER: genes 9 Torsion [CA]-CB--CG-[CD2] |==|  0.70493
ROOT
ATOM      1  CA  HIS F   2      -0.384  30.909 -16.065  1.00 49.99 LIG 0.18  C 
ENDROOT
BRANCH 1 2
ATOM      2  N   HIS F   2       1.066  31.077 -15.957  1.00 49.83 LIG-0.35  N 
ATOM      3  C   GLY F   1       1.907  30.046 -15.997  1.00 49.82 LIG 0.24  C 
ATOM      4 O    GLY F   1       1.536  28.871 -16.067  1.00 49.53 LIG-0.27  OA
ATOM      5 H    HIS F   2       1.319  31.893 -15.867  1.00 49.83 LIG 0.16  HD
BRANCH 3 6
ATOM      6  CA  GLY F   1       3.385  30.393 -15.944  1.00 49.90 LIG 0.33  C 
BRANCH 6 7
ATOM      7  N   GLY F   1       3.954  30.337 -14.565  1.00 49.95 LIG-0.07  N 
ATOM      8 H3   GLY F   1       3.951  29.495 -14.276  1.00 49.95 LIG 0.27  HD
ATOM      9 H1   GLY F   1       4.790  30.643 -14.576  1.00 49.95 LIG 0.27  HD
ATOM     10 H2   GLY F   1       3.462  30.839 -14.020  1.00 49.95 LIG 0.27  HD
ENDBRANCH 6 7
ENDBRANCH 3 6
ENDBRANCH 1 2
BRANCH 1 11
ATOM     11  C   HIS F   2      -0.778  30.446 -17.466  1.00 50.00 LIG 0.24  C 
ATOM     12 O    HIS F   2      -0.062  30.696 -18.439  1.00 49.82 LIG-0.27  OA
ATOM     13  N   GLY F   3      -1.917  29.762 -17.554  1.00 50.02 LIG-0.35  N 
ATOM     14 H    GLY F   3      -2.433  29.606 -16.884  1.00 50.02 LIG 0.16  HD
BRANCH 13 15
ATOM     15  CA  GLY F   3      -2.393  29.210 -18.816  1.00 50.20 LIG 0.21  C 
BRANCH 15 16
ATOM     16  C   GLY F   3      -3.861  28.835 -18.771  1.00 50.42 LIG 0.21  C 
ATOM     17 O    GLY F   3      -4.297  28.112 -17.875  1.00 50.69 LIG-0.29  OA
ENDBRANCH 15 16
ENDBRANCH 13 15
ENDBRANCH 1 11
BRANCH 1 18
ATOM     18  CB  HIS F   2      -1.108  32.208 -15.704  1.00 49.99 LIG 0.10  C 
BRANCH 18 19
ATOM     19  CG  HIS F   2      -2.600  32.083 -15.690  1.00 50.63 LIG 0.06  A 
ATOM     20  CD2 HIS F   2      -3.543  32.530 -16.556  1.00 51.31 LIG 0.14  A 
ATOM     21 NE2  HIS F   2      -4.765  32.129 -16.068  1.00 51.32 LIG-0.25  NA
ATOM     22  CE1 HIS F   2      -4.580  31.466 -14.940  1.00 50.87 LIG 0.23  A 
ATOM     23 ND1  HIS F   2      -3.283  31.422 -14.690  1.00 50.82 LIG-0.24  NA
ENDBRANCH 18 19
ENDBRANCH 1 18
TORSDOF 8
ENDMDL
MODEL 83
USER: ADFR SOLUTION from run 187
USER: SCORE 7.392147 LL:  -1.164 LR:  -6.364 RR:   0.000 FEB:  -3.977
USER: RMSD 7.469078
USER: SEED 186
USER: STATUS no improvement in best in 33 clusters for 5 generations
USER: GENES 10
USER: genes 0 Translation |==|  0.55494 0.74462 0.36179
USER: genes 1 Rotation |==|  0.45582 0.52004 0.98566 0.60853
USER: genes 2 Torsion [C]-CA--N-[C] |==|  0.76925
USER: genes 3 Torsion [N]-C--CA-[N] |==|  0.19530
USER: genes 4 Torsion [C]-CA--N-[H3] |==|  0.04173
USER: genes 5 Torsion [N]-CA--C-[N] |==|  0.31667
USER: genes 6 Torsion [C]-N--CA-[C] |==|  0.27577
USER: genes 7 Torsion [N]-CA--C-[O] |==|  0.96314
USER: genes 8 Torsion [N]-CA--CB-[CG] |==|  0.83301
USER: genes 9 Torsion [CA]-CB--CG-[CD2] |==|  0.11780
ROOT
ATOM      1  CA  HIS F   2      -0.724  33.829 -21.345  1.00 49.99 LIG 0.18  C 
ENDROOT
BRANCH 1 2
ATOM      2  N   HIS F   2      -0.734  33.383 -22.739  1.00 49.83 LIG-0.35  N 
ATOM      3  C   GLY F   1       0.325  33.515 -23.536  1.00 49.82 LIG 0.24  C 
ATOM      4 O    GLY F   1       1.371  34.070 -23.188  1.00 49.53 LIG-0.27  OA
ATOM      5 H    HIS F   2      -1.477  33.033 -22.991  1.00 49.83 LIG 0.16  HD
BRANCH 3 6
ATOM      6  CA  GLY F   1       0.179  32.937 -24.934  1.00 49.90 LIG 0.33  C 
BRANCH 6 7
ATOM      7  N   GLY F   1      -0.764  33.710 -25.795  1.00 49.95 LIG-0.07  N 
ATOM      8 H3   GLY F   1      -0.922  34.503 -25.424  1.00 49.95 LIG 0.27  HD
ATOM      9 H1   GLY F   1      -0.403  33.826 -26.601  1.00 49.95 LIG 0.27  HD
ATOM     10 H2   GLY F   1      -1.528  33.262 -25.875  1.00 49.95 LIG 0.27  HD
ENDBRANCH 6 7
ENDBRANCH 3 6
ENDBRANCH 1 2
BRANCH 1 11
ATOM     11  C   HIS F   2      -0.096  32.773 -20.438  1.00 50.00 LIG 0.24  C 
ATOM     12 O    HIS F   2      -0.635  31.676 -20.277  1.00 49.82 LIG-0.27  OA
ATOM     13  N   GLY F   3       1.053  33.114 -19.858  1.00 50.02 LIG-0.35  N 
ATOM     14 H    GLY F   3       1.422  33.886 -19.946  1.00 50.02 LIG 0.16  HD
BRANCH 13 15
ATOM     15  CA  GLY F   3       1.796  32.191 -19.010  1.00 50.20 LIG 0.21  C 
BRANCH 15 16
ATOM     16  C   GLY F   3       2.944  31.523 -19.741  1.00 50.42 LIG 0.21  C 
ATOM     17 O    GLY F   3       3.026  31.583 -20.969  1.00 50.69 LIG-0.29  OA
ENDBRANCH 15 16
ENDBRANCH 13 15
ENDBRANCH 1 11
BRANCH 1 18
ATOM     18  CB  HIS F   2      -2.140  34.168 -20.875  1.00 49.99 LIG 0.10  C 
BRANCH 18 19
ATOM     19  CG  HIS F   2      -2.794  35.259 -21.666  1.00 50.63 LIG 0.06  A 
ATOM     20  CD2 HIS F   2      -2.824  35.502 -22.999  1.00 51.31 LIG 0.14  A 
ATOM     21 NE2  HIS F   2      -3.580  36.635 -23.188  1.00 51.32 LIG-0.25  NA
ATOM     22  CE1 HIS F   2      -3.993  37.076 -22.012  1.00 50.87 LIG 0.23  A 
ATOM     23 ND1  HIS F   2      -3.535  36.262 -21.078  1.00 50.82 LIG-0.24  NA
ENDBRANCH 18 19
ENDBRANCH 1 18
TORSDOF 8
ENDMDL
MODEL 84
USER: ADFR SOLUTION from run 23
USER: SCORE 7.565132 LL:  -1.355 LR:  -6.358 RR:   0.000 FEB:  -3.971
USER: RMSD 5.228881
USER: SEED 22
USER: STATUS no improvement in best in 39 clusters for 5 generations
USER: GENES 10
USER: genes 0 Translation |==|  0.54752 0.65824 0.38684
USER: genes 1 Rotation |==|  0.41364 0.51788 0.41851 0.98537
USER: genes 2 Torsion [C]-CA--N-[C] |==|  0.18207
USER: genes 3 Torsion [N]-C--CA-[N] |==|  0.32603
USER: genes 4 Torsion [C]-CA--N-[H3] |==|  0.04668
USER: genes 5 Torsion [N]-CA--C-[N] |==|  0.06120
USER: genes 6 Torsion [C]-N--CA-[C] |==|  0.44180
USER: genes 7 Torsion [N]-CA--C-[O] |==|  0.86493
USER: genes 8 Torsion [N]-CA--CB-[CG] |==|  0.71280
USER: genes 9 Torsion [CA]-CB--CG-[CD2] |==|  0.85688
ROOT
ATOM      1  CA  HIS F   2      -0.852  32.728 -20.932  1.00 49.99 LIG 0.18  C 
ENDROOT
BRANCH 1 2
ATOM      2  N   HIS F   2      -0.842  32.551 -22.385  1.00 49.83 LIG-0.35  N 
ATOM      3  C   GLY F   1      -0.248  33.417 -23.203  1.00 49.82 LIG 0.24  C 
ATOM      4 O    GLY F   1       0.286  34.460 -22.815  1.00 49.53 LIG-0.27  OA
ATOM      5 H    HIS F   2      -1.250  31.845 -22.656  1.00 49.83 LIG 0.16  HD
BRANCH 3 6
ATOM      6  CA  GLY F   1      -0.263  33.055 -24.679  1.00 49.90 LIG 0.33  C 
BRANCH 6 7
ATOM      7  N   GLY F   1      -1.007  34.039 -25.519  1.00 49.95 LIG-0.07  N 
ATOM      8 H3   GLY F   1      -1.114  34.797 -25.065  1.00 49.95 LIG 0.27  HD
ATOM      9 H1   GLY F   1      -0.547  34.202 -26.264  1.00 49.95 LIG 0.27  HD
ATOM     10 H2   GLY F   1      -1.805  33.706 -25.731  1.00 49.95 LIG 0.27  HD
ENDBRANCH 6 7
ENDBRANCH 3 6
ENDBRANCH 1 2
BRANCH 1 11
ATOM     11  C   HIS F   2      -1.653  33.967 -20.537  1.00 50.00 LIG 0.24  C 
ATOM     12 O    HIS F   2      -1.458  34.527 -19.456  1.00 49.82 LIG-0.27  OA
ATOM     13  N   GLY F   3      -2.545  34.392 -21.429  1.00 50.02 LIG-0.35  N 
ATOM     14 H    GLY F   3      -2.704  33.992 -22.174  1.00 50.02 LIG 0.16  HD
BRANCH 13 15
ATOM     15  CA  GLY F   3      -3.343  35.592 -21.214  1.00 50.20 LIG 0.21  C 
BRANCH 15 16
ATOM     16  C   GLY F   3      -3.893  36.165 -22.506  1.00 50.42 LIG 0.21  C 
ATOM     17 O    GLY F   3      -3.160  36.335 -23.480  1.00 50.69 LIG-0.29  OA
ENDBRANCH 15 16
ENDBRANCH 13 15
ENDBRANCH 1 11
BRANCH 1 18
ATOM     18  CB  HIS F   2       0.574  32.813 -20.386  1.00 49.99 LIG 0.10  C 
BRANCH 18 19
ATOM     19  CG  HIS F   2       1.040  31.557 -19.716  1.00 50.63 LIG 0.06  A 
ATOM     20  CD2 HIS F   2       0.477  30.802 -18.741  1.00 51.31 LIG 0.14  A 
ATOM     21 NE2  HIS F   2       1.326  29.747 -18.504  1.00 51.32 LIG-0.25  NA
ATOM     22  CE1 HIS F   2       2.377  29.854 -19.299  1.00 50.87 LIG 0.23  A 
ATOM     23 ND1  HIS F   2       2.228  30.936 -20.042  1.00 50.82 LIG-0.24  NA
ENDBRANCH 18 19
ENDBRANCH 1 18
TORSDOF 8
ENDMDL
MODEL 85
USER: ADFR SOLUTION from run 64
USER: SCORE 7.522655 LL:  -1.201 LR:  -6.345 RR:   0.000 FEB:  -3.959
USER: RMSD 1.983208
USER: SEED 63
USER: STATUS no improvement in best in 27 clusters for 5 generations
USER: GENES 10
USER: genes 0 Translation |==|  0.54761 0.54835 0.61388
USER: genes 1 Rotation |==|  0.67019 0.42173 0.51336 0.96339
USER: genes 2 Torsion [C]-CA--N-[C] |==|  0.80385
USER: genes 3 Torsion [N]-C--CA-[N] |==|  0.52169
USER: genes 4 Torsion [C]-CA--N-[H3] |==|  0.50273
USER: genes 5 Torsion [N]-CA--C-[N] |==|  0.43260
USER: genes 6 Torsion [C]-N--CA-[C] |==|  0.38381
USER: genes 7 Torsion [N]-CA--C-[O] |==|  0.03526
USER: genes 8 Torsion [N]-CA--CB-[CG] |==|  0.73260
USER: genes 9 Torsion [CA]-CB--CG-[CD2] |==|  0.37034
ROOT
ATOM      1  CA  HIS F   2      -0.851  31.326 -17.186  1.00 49.99 LIG 0.18  C 
ENDROOT
BRANCH 1 2
ATOM      2  N   HIS F   2      -0.437  32.497 -17.961  1.00 49.83 LIG-0.35  N 
ATOM      3  C   GLY F   1      -0.977  32.798 -19.140  1.00 49.82 LIG 0.24  C 
ATOM      4 O    GLY F   1      -1.819  32.091 -19.700  1.00 49.53 LIG-0.27  OA
ATOM      5 H    HIS F   2       0.179  32.966 -17.586  1.00 49.83 LIG 0.16  HD
BRANCH 3 6
ATOM      6  CA  GLY F   1      -0.490  34.085 -19.784  1.00 49.90 LIG 0.33  C 
BRANCH 6 7
ATOM      7  N   GLY F   1      -1.261  34.460 -21.006  1.00 49.95 LIG-0.07  N 
ATOM      8 H3   GLY F   1      -0.926  35.210 -21.349  1.00 49.95 LIG 0.27  HD
ATOM      9 H1   GLY F   1      -1.201  33.806 -21.607  1.00 49.95 LIG 0.27  HD
ATOM     10 H2   GLY F   1      -2.115  34.587 -20.791  1.00 49.95 LIG 0.27  HD
ENDBRANCH 6 7
ENDBRANCH 3 6
ENDBRANCH 1 2
BRANCH 1 11
ATOM     11  C   HIS F   2      -2.255  31.516 -16.616  1.00 50.00 LIG 0.24  C 
ATOM     12 O    HIS F   2      -2.719  32.645 -16.440  1.00 49.82 LIG-0.27  OA
ATOM     13  N   GLY F   3      -2.927  30.399 -16.343  1.00 50.02 LIG-0.35  N 
ATOM     14 H    GLY F   3      -2.601  29.609 -16.440  1.00 50.02 LIG 0.16  HD
BRANCH 13 15
ATOM     15  CA  GLY F   3      -4.297  30.423 -15.846  1.00 50.20 LIG 0.21  C 
BRANCH 15 16
ATOM     16  C   GLY F   3      -5.170  29.366 -16.494  1.00 50.42 LIG 0.21  C 
ATOM     17 O    GLY F   3      -4.669  28.460 -17.161  1.00 50.69 LIG-0.29  OA
ENDBRANCH 15 16
ENDBRANCH 13 15
ENDBRANCH 1 11
BRANCH 1 18
ATOM     18  CB  HIS F   2       0.150  31.037 -16.065  1.00 49.99 LIG 0.10  C 
BRANCH 18 19
ATOM     19  CG  HIS F   2       1.170  30.000 -16.419  1.00 50.63 LIG 0.06  A 
ATOM     20  CD2 HIS F   2       2.517  29.980 -16.261  1.00 51.31 LIG 0.14  A 
ATOM     21 NE2  HIS F   2       2.965  28.776 -16.751  1.00 51.32 LIG-0.25  NA
ATOM     22  CE1 HIS F   2       1.933  28.085 -17.201  1.00 50.87 LIG 0.23  A 
ATOM     23 ND1  HIS F   2       0.838  28.800 -17.011  1.00 50.82 LIG-0.24  NA
ENDBRANCH 18 19
ENDBRANCH 1 18
TORSDOF 8
ENDMDL
MODEL 86
USER: ADFR SOLUTION from run 157
USER: SCORE 6.983593 LL:  -1.277 LR:  -6.340 RR:   0.000 FEB:  -3.954
USER: RMSD 7.293514
USER: SEED 156
USER: STATUS no improvement in best in 40 clusters for 5 generations
USER: GENES 10
USER: genes 0 Translation |==|  0.48543 0.82340 0.29615
USER: genes 1 Rotation |==|  0.48550 0.56826 0.00766 0.55228
USER: genes 2 Torsion [C]-CA--N-[C] |==|  0.54128
USER: genes 3 Torsion [N]-C--CA-[N] |==|  0.82307
USER: genes 4 Torsion [C]-CA--N-[H3] |==|  0.94770
USER: genes 5 Torsion [N]-CA--C-[N] |==|  0.55556
USER: genes 6 Torsion [C]-N--CA-[C] |==|  0.52437
USER: genes 7 Torsion [N]-CA--C-[O] |==|  0.92668
USER: genes 8 Torsion [N]-CA--CB-[CG] |==|  0.60795
USER: genes 9 Torsion [CA]-CB--CG-[CD2] |==|  0.64328
ROOT
ATOM      1  CA  HIS F   2      -1.923  34.833 -22.428  1.00 49.99 LIG 0.18  C 
ENDROOT
BRANCH 1 2
ATOM      2  N   HIS F   2      -2.060  34.857 -23.885  1.00 49.83 LIG-0.35  N 
ATOM      3  C   GLY F   1      -2.990  35.584 -24.502  1.00 49.82 LIG 0.24  C 
ATOM      4 O    GLY F   1      -3.843  36.244 -23.901  1.00 49.53 LIG-0.27  OA
ATOM      5 H    HIS F   2      -1.491  34.364 -24.299  1.00 49.83 LIG 0.16  HD
BRANCH 3 6
ATOM      6  CA  GLY F   1      -2.955  35.557 -26.020  1.00 49.90 LIG 0.33  C 
BRANCH 6 7
ATOM      7  N   GLY F   1      -1.706  36.142 -26.591  1.00 49.95 LIG-0.07  N 
ATOM      8 H3   GLY F   1      -1.309  36.651 -25.978  1.00 49.95 LIG 0.27  HD
ATOM      9 H1   GLY F   1      -1.155  35.486 -26.833  1.00 49.95 LIG 0.27  HD
ATOM     10 H2   GLY F   1      -1.907  36.637 -27.302  1.00 49.95 LIG 0.27  HD
ENDBRANCH 6 7
ENDBRANCH 3 6
ENDBRANCH 1 2
BRANCH 1 11
ATOM     11  C   HIS F   2      -0.582  34.231 -22.015  1.00 50.00 LIG 0.24  C 
ATOM     12 O    HIS F   2       0.362  34.186 -22.807  1.00 49.82 LIG-0.27  OA
ATOM     13  N   GLY F   3      -0.508  33.779 -20.764  1.00 50.02 LIG-0.35  N 
ATOM     14 H    GLY F   3      -1.170  33.785 -20.215  1.00 50.02 LIG 0.16  HD
BRANCH 13 15
ATOM     15  CA  GLY F   3       0.723  33.229 -20.212  1.00 50.20 LIG 0.21  C 
BRANCH 15 16
ATOM     16  C   GLY F   3       0.517  32.588 -18.853  1.00 50.42 LIG 0.21  C 
ATOM     17 O    GLY F   3      -0.399  32.957 -18.118  1.00 50.69 LIG-0.29  OA
ENDBRANCH 15 16
ENDBRANCH 13 15
ENDBRANCH 1 11
BRANCH 1 18
ATOM     18  CB  HIS F   2      -3.079  34.063 -21.788  1.00 49.99 LIG 0.10  C 
BRANCH 18 19
ATOM     19  CG  HIS F   2      -3.578  34.671 -20.514  1.00 50.63 LIG 0.06  A 
ATOM     20  CD2 HIS F   2      -3.784  34.134 -19.286  1.00 51.31 LIG 0.14  A 
ATOM     21 NE2  HIS F   2      -4.242  35.143 -18.473  1.00 51.32 LIG-0.25  NA
ATOM     22  CE1 HIS F   2      -4.322  36.259 -19.176  1.00 50.87 LIG 0.23  A 
ATOM     23 ND1  HIS F   2      -3.926  36.002 -20.410  1.00 50.82 LIG-0.24  NA
ENDBRANCH 18 19
ENDBRANCH 1 18
TORSDOF 8
ENDMDL
MODEL 87
USER: ADFR SOLUTION from run 135
USER: SCORE 7.129042 LL:  -1.028 LR:  -6.340 RR:   0.000 FEB:  -3.953
USER: RMSD 2.530665
USER: SEED 134
USER: STATUS no improvement in best in 30 clusters for 5 generations
USER: GENES 10
USER: genes 0 Translation |==|  0.41287 0.50096 0.66773
USER: genes 1 Rotation |==|  0.40904 0.53934 0.59834 0.98011
USER: genes 2 Torsion [C]-CA--N-[C] |==|  0.77776
USER: genes 3 Torsion [N]-C--CA-[N] |==|  0.20030
USER: genes 4 Torsion [C]-CA--N-[H3] |==|  0.98932
USER: genes 5 Torsion [N]-CA--C-[N] |==|  0.20927
USER: genes 6 Torsion [C]-N--CA-[C] |==|  0.63258
USER: genes 7 Torsion [N]-CA--C-[O] |==|  0.48175
USER: genes 8 Torsion [N]-CA--CB-[CG] |==|  0.78356
USER: genes 9 Torsion [CA]-CB--CG-[CD2] |==|  0.05706
ROOT
ATOM      1  CA  HIS F   2      -3.175  30.722 -16.298  1.00 49.99 LIG 0.18  C 
ENDROOT
BRANCH 1 2
ATOM      2  N   HIS F   2      -3.351  30.514 -17.735  1.00 49.83 LIG-0.35  N 
ATOM      3  C   GLY F   1      -3.906  29.411 -18.232  1.00 49.82 LIG 0.24  C 
ATOM      4 O    GLY F   1      -4.259  28.456 -17.535  1.00 49.53 LIG-0.27  OA
ATOM      5 H    HIS F   2      -3.067  31.163 -18.221  1.00 49.83 LIG 0.16  HD
BRANCH 3 6
ATOM      6  CA  GLY F   1      -4.083  29.378 -19.741  1.00 49.90 LIG 0.33  C 
BRANCH 6 7
ATOM      7  N   GLY F   1      -2.797  29.212 -20.481  1.00 49.95 LIG-0.07  N 
ATOM      8 H3   GLY F   1      -2.120  29.215 -19.904  1.00 49.95 LIG 0.27  HD
ATOM      9 H1   GLY F   1      -2.806  28.440 -20.924  1.00 49.95 LIG 0.27  HD
ATOM     10 H2   GLY F   1      -2.697  29.883 -21.058  1.00 49.95 LIG 0.27  HD
ENDBRANCH 6 7
ENDBRANCH 3 6
ENDBRANCH 1 2
BRANCH 1 11
ATOM     11  C   HIS F   2      -4.478  31.185 -15.648  1.00 50.00 LIG 0.24  C 
ATOM     12 O    HIS F   2      -4.638  32.364 -15.323  1.00 49.82 LIG-0.27  OA
ATOM     13  N   GLY F   3      -5.407  30.247 -15.474  1.00 50.02 LIG-0.35  N 
ATOM     14 H    GLY F   3      -5.292  29.419 -15.676  1.00 50.02 LIG 0.16  HD
BRANCH 13 15
ATOM     15  CA  GLY F   3      -6.719  30.551 -14.918  1.00 50.20 LIG 0.21  C 
BRANCH 15 16
ATOM     16  C   GLY F   3      -7.125  29.585 -13.823  1.00 50.42 LIG 0.21  C 
ATOM     17 O    GLY F   3      -8.151  29.774 -13.168  1.00 50.69 LIG-0.29  OA
ENDBRANCH 15 16
ENDBRANCH 13 15
ENDBRANCH 1 11
BRANCH 1 18
ATOM     18  CB  HIS F   2      -2.054  31.728 -16.029  1.00 49.99 LIG 0.10  C 
BRANCH 18 19
ATOM     19  CG  HIS F   2      -0.679  31.151 -16.169  1.00 50.63 LIG 0.06  A 
ATOM     20  CD2 HIS F   2      -0.234  30.049 -16.821  1.00 51.31 LIG 0.14  A 
ATOM     21 NE2  HIS F   2       1.127  29.988 -16.635  1.00 51.32 LIG-0.25  NA
ATOM     22  CE1 HIS F   2       1.504  31.013 -15.889  1.00 50.87 LIG 0.23  A 
ATOM     23 ND1  HIS F   2       0.434  31.730 -15.597  1.00 50.82 LIG-0.24  NA
ENDBRANCH 18 19
ENDBRANCH 1 18
TORSDOF 8
ENDMDL
MODEL 88
USER: ADFR SOLUTION from run 12
USER: SCORE 7.165298 LL:  -1.242 LR:  -6.338 RR:   0.000 FEB:  -3.952
USER: RMSD 7.337220
USER: SEED 689903
USER: STATUS no improvement in best in 22 clusters for 5 generations
USER: GENES 10
USER: genes 0 Translation |==|  0.66953 0.64337 0.30082
USER: genes 1 Rotation |==|  0.26460 0.62118 0.07834 0.54592
USER: genes 2 Torsion [C]-CA--N-[C] |==|  0.66481
USER: genes 3 Torsion [N]-C--CA-[N] |==|  0.63754
USER: genes 4 Torsion [C]-CA--N-[H3] |==|  0.16689
USER: genes 5 Torsion [N]-CA--C-[N] |==|  0.87900
USER: genes 6 Torsion [C]-N--CA-[C] |==|  0.49283
USER: genes 7 Torsion [N]-CA--C-[O] |==|  0.95448
USER: genes 8 Torsion [N]-CA--CB-[CG] |==|  0.49566
USER: genes 9 Torsion [CA]-CB--CG-[CD2] |==|  0.59208
ROOT
ATOM      1  CA  HIS F   2       1.252  32.538 -22.351  1.00 49.99 LIG 0.18  C 
ENDROOT
BRANCH 1 2
ATOM      2  N   HIS F   2      -0.009  32.658 -23.083  1.00 49.83 LIG-0.35  N 
ATOM      3  C   GLY F   1      -0.708  33.790 -23.117  1.00 49.82 LIG 0.24  C 
ATOM      4 O    GLY F   1      -0.385  34.805 -22.494  1.00 49.53 LIG-0.27  OA
ATOM      5 H    HIS F   2      -0.253  31.937 -23.483  1.00 49.83 LIG 0.16  HD
BRANCH 3 6
ATOM      6  CA  GLY F   1      -1.959  33.773 -23.979  1.00 49.90 LIG 0.33  C 
BRANCH 6 7
ATOM      7  N   GLY F   1      -2.048  34.934 -24.913  1.00 49.95 LIG-0.07  N 
ATOM      8 H3   GLY F   1      -1.346  34.929 -25.460  1.00 49.95 LIG 0.27  HD
ATOM      9 H1   GLY F   1      -2.797  34.875 -25.390  1.00 49.95 LIG 0.27  HD
ATOM     10 H2   GLY F   1      -2.054  35.692 -24.445  1.00 49.95 LIG 0.27  HD
ENDBRANCH 6 7
ENDBRANCH 3 6
ENDBRANCH 1 2
BRANCH 1 11
ATOM     11  C   HIS F   2       2.393  32.147 -23.289  1.00 50.00 LIG 0.24  C 
ATOM     12 O    HIS F   2       3.497  32.692 -23.203  1.00 49.82 LIG-0.27  OA
ATOM     13  N   GLY F   3       2.118  31.192 -24.174  1.00 50.02 LIG-0.35  N 
ATOM     14 H    GLY F   3       1.344  30.825 -24.255  1.00 50.02 LIG 0.16  HD
BRANCH 13 15
ATOM     15  CA  GLY F   3       3.122  30.677 -25.096  1.00 50.20 LIG 0.21  C 
BRANCH 15 16
ATOM     16  C   GLY F   3       2.595  29.553 -25.965  1.00 50.42 LIG 0.21  C 
ATOM     17 O    GLY F   3       1.556  28.962 -25.666  1.00 50.69 LIG-0.29  OA
ENDBRANCH 15 16
ENDBRANCH 13 15
ENDBRANCH 1 11
BRANCH 1 18
ATOM     18  CB  HIS F   2       1.124  31.527 -21.211  1.00 49.99 LIG 0.10  C 
BRANCH 18 19
ATOM     19  CG  HIS F   2       2.390  31.323 -20.438  1.00 50.63 LIG 0.06  A 
ATOM     20  CD2 HIS F   2       2.896  30.226 -19.823  1.00 51.31 LIG 0.14  A 
ATOM     21 NE2  HIS F   2       4.101  30.590 -19.270  1.00 51.32 LIG-0.25  NA
ATOM     22  CE1 HIS F   2       4.324  31.867 -19.529  1.00 50.87 LIG 0.23  A 
ATOM     23 ND1  HIS F   2       3.308  32.332 -20.235  1.00 50.82 LIG-0.24  NA
ENDBRANCH 18 19
ENDBRANCH 1 18
TORSDOF 8
ENDMDL
MODEL 89
USER: ADFR SOLUTION from run 16
USER: SCORE 7.749796 LL:  -1.464 LR:  -6.325 RR:   0.000 FEB:  -3.938
USER: RMSD 5.955332
USER: SEED 397254
USER: STATUS no improvement in best in 34 clusters for 5 generations
USER: GENES 10
USER: genes 0 Translation |==|  0.54495 0.72889 0.41370
USER: genes 1 Rotation |==|  0.55545 0.51215 0.99675 0.50450
USER: genes 2 Torsion [C]-CA--N-[C] |==|  0.79138
USER: genes 3 Torsion [N]-C--CA-[N] |==|  0.38018
USER: genes 4 Torsion [C]-CA--N-[H3] |==|  0.93147
USER: genes 5 Torsion [N]-CA--C-[N] |==|  0.98178
USER: genes 6 Torsion [C]-N--CA-[C] |==|  0.73814
USER: genes 7 Torsion [N]-CA--C-[O] |==|  0.88559
USER: genes 8 Torsion [N]-CA--CB-[CG] |==|  0.25979
USER: genes 9 Torsion [CA]-CB--CG-[CD2] |==|  0.79897
ROOT
ATOM      1  CA  HIS F   2      -0.897  33.628 -20.489  1.00 49.99 LIG 0.18  C 
ENDROOT
BRANCH 1 2
ATOM      2  N   HIS F   2      -1.299  33.214 -21.834  1.00 49.83 LIG-0.35  N 
ATOM      3  C   GLY F   1      -0.673  33.641 -22.928  1.00 49.82 LIG 0.24  C 
ATOM      4 O    GLY F   1       0.251  34.459 -22.905  1.00 49.53 LIG-0.27  OA
ATOM      5 H    HIS F   2      -1.969  32.676 -21.849  1.00 49.83 LIG 0.16  HD
BRANCH 3 6
ATOM      6  CA  GLY F   1      -1.165  33.063 -24.244  1.00 49.90 LIG 0.33  C 
BRANCH 6 7
ATOM      7  N   GLY F   1      -1.291  34.084 -25.325  1.00 49.95 LIG-0.07  N 
ATOM      8 H3   GLY F   1      -1.405  34.889 -24.962  1.00 49.95 LIG 0.27  HD
ATOM      9 H1   GLY F   1      -0.551  34.085 -25.821  1.00 49.95 LIG 0.27  HD
ATOM     10 H2   GLY F   1      -1.991  33.889 -25.839  1.00 49.95 LIG 0.27  HD
ENDBRANCH 6 7
ENDBRANCH 3 6
ENDBRANCH 1 2
BRANCH 1 11
ATOM     11  C   HIS F   2       0.383  32.914 -20.056  1.00 50.00 LIG 0.24  C 
ATOM     12 O    HIS F   2       0.944  33.209 -18.998  1.00 49.82 LIG-0.27  OA
ATOM     13  N   GLY F   3       0.827  31.967 -20.879  1.00 50.02 LIG-0.35  N 
ATOM     14 H    GLY F   3       0.454  31.773 -21.630  1.00 50.02 LIG 0.16  HD
BRANCH 13 15
ATOM     15  CA  GLY F   3       2.004  31.164 -20.572  1.00 50.20 LIG 0.21  C 
BRANCH 15 16
ATOM     16  C   GLY F   3       3.271  31.730 -21.182  1.00 50.42 LIG 0.21  C 
ATOM     17 O    GLY F   3       3.268  32.185 -22.326  1.00 50.69 LIG-0.29  OA
ENDBRANCH 15 16
ENDBRANCH 13 15
ENDBRANCH 1 11
BRANCH 1 18
ATOM     18  CB  HIS F   2      -2.021  33.373 -19.484  1.00 49.99 LIG 0.10  C 
BRANCH 18 19
ATOM     19  CG  HIS F   2      -1.920  32.050 -18.788  1.00 50.63 LIG 0.06  A 
ATOM     20  CD2 HIS F   2      -2.136  30.787 -19.232  1.00 51.31 LIG 0.14  A 
ATOM     21 NE2  HIS F   2      -1.889  29.939 -18.179  1.00 51.32 LIG-0.25  NA
ATOM     22  CE1 HIS F   2      -1.541  30.655 -17.124  1.00 50.87 LIG 0.23  A 
ATOM     23 ND1  HIS F   2      -1.550  31.931 -17.465  1.00 50.82 LIG-0.24  NA
ENDBRANCH 18 19
ENDBRANCH 1 18
TORSDOF 8
ENDMDL
MODEL 90
USER: ADFR SOLUTION from run 84
USER: SCORE 7.362846 LL:  -1.071 LR:  -6.310 RR:   0.000 FEB:  -3.924
USER: RMSD 5.921609
USER: SEED 83
USER: STATUS no improvement in best in 36 clusters for 5 generations
USER: GENES 10
USER: genes 0 Translation |==|  0.53629 0.68028 0.50537
USER: genes 1 Rotation |==|  0.52788 0.38157 0.98097 0.56216
USER: genes 2 Torsion [C]-CA--N-[C] |==|  0.84909
USER: genes 3 Torsion [N]-C--CA-[N] |==|  0.22122
USER: genes 4 Torsion [C]-CA--N-[H3] |==|  0.87842
USER: genes 5 Torsion [N]-CA--C-[N] |==|  0.37647
USER: genes 6 Torsion [C]-N--CA-[C] |==|  0.76021
USER: genes 7 Torsion [N]-CA--C-[O] |==|  0.18008
USER: genes 8 Torsion [N]-CA--CB-[CG] |==|  0.84504
USER: genes 9 Torsion [CA]-CB--CG-[CD2] |==|  0.54894
ROOT
ATOM      1  CA  HIS F   2      -1.046  33.009 -18.976  1.00 49.99 LIG 0.18  C 
ENDROOT
BRANCH 1 2
ATOM      2  N   HIS F   2      -1.292  33.392 -20.367  1.00 49.83 LIG-0.35  N 
ATOM      3  C   GLY F   1      -0.304  33.682 -21.211  1.00 49.82 LIG 0.24  C 
ATOM      4 O    GLY F   1       0.885  33.710 -20.880  1.00 49.53 LIG-0.27  OA
ATOM      5 H    HIS F   2      -2.123  33.412 -20.584  1.00 49.83 LIG 0.16  HD
BRANCH 3 6
ATOM      6  CA  GLY F   1      -0.720  33.992 -22.639  1.00 49.90 LIG 0.33  C 
BRANCH 6 7
ATOM      7  N   GLY F   1      -1.231  35.383 -22.815  1.00 49.95 LIG-0.07  N 
ATOM      8 H3   GLY F   1      -1.780  35.585 -22.144  1.00 49.95 LIG 0.27  HD
ATOM      9 H1   GLY F   1      -0.547  35.953 -22.820  1.00 49.95 LIG 0.27  HD
ATOM     10 H2   GLY F   1      -1.672  35.443 -23.586  1.00 49.95 LIG 0.27  HD
ENDBRANCH 6 7
ENDBRANCH 3 6
ENDBRANCH 1 2
BRANCH 1 11
ATOM     11  C   HIS F   2      -0.079  31.829 -18.897  1.00 50.00 LIG 0.24  C 
ATOM     12 O    HIS F   2      -0.197  30.862 -19.654  1.00 49.82 LIG-0.27  OA
ATOM     13  N   GLY F   3       0.883  31.925 -17.981  1.00 50.02 LIG-0.35  N 
ATOM     14 H    GLY F   3       0.956  32.585 -17.434  1.00 50.02 LIG 0.16  HD
BRANCH 13 15
ATOM     15  CA  GLY F   3       1.910  30.903 -17.826  1.00 50.20 LIG 0.21  C 
BRANCH 15 16
ATOM     16  C   GLY F   3       1.475  29.775 -16.912  1.00 50.42 LIG 0.21  C 
ATOM     17 O    GLY F   3       0.541  29.037 -17.225  1.00 50.69 LIG-0.29  OA
ENDBRANCH 15 16
ENDBRANCH 13 15
ENDBRANCH 1 11
BRANCH 1 18
ATOM     18  CB  HIS F   2      -2.360  32.676 -18.266  1.00 49.99 LIG 0.10  C 
BRANCH 18 19
ATOM     19  CG  HIS F   2      -3.370  33.780 -18.316  1.00 50.63 LIG 0.06  A 
ATOM     20  CD2 HIS F   2      -4.482  34.009 -17.576  1.00 51.31 LIG 0.14  A 
ATOM     21 NE2  HIS F   2      -5.042  35.178 -18.035  1.00 51.32 LIG-0.25  NA
ATOM     22  CE1 HIS F   2      -4.304  35.647 -19.026  1.00 50.87 LIG 0.23  A 
ATOM     23 ND1  HIS F   2      -3.288  34.824 -19.214  1.00 50.82 LIG-0.24  NA
ENDBRANCH 18 19
ENDBRANCH 1 18
TORSDOF 8
ENDMDL
MODEL 91
USER: ADFR SOLUTION from run 179
USER: SCORE 7.524808 LL:  -1.264 LR:  -6.300 RR:   0.000 FEB:  -3.913
USER: RMSD 7.353760
USER: SEED 178
USER: STATUS no improvement in best in 35 clusters for 5 generations
USER: GENES 10
USER: genes 0 Translation |==|  0.74978 0.47423 0.44903
USER: genes 1 Rotation |==|  0.57040 0.98054 0.57324 0.59359
USER: genes 2 Torsion [C]-CA--N-[C] |==|  0.71190
USER: genes 3 Torsion [N]-C--CA-[N] |==|  0.38540
USER: genes 4 Torsion [C]-CA--N-[H3] |==|  0.08384
USER: genes 5 Torsion [N]-CA--C-[N] |==|  0.02582
USER: genes 6 Torsion [C]-N--CA-[C] |==|  0.16861
USER: genes 7 Torsion [N]-CA--C-[O] |==|  0.70989
USER: genes 8 Torsion [N]-CA--CB-[CG] |==|  0.01481
USER: genes 9 Torsion [CA]-CB--CG-[CD2] |==|  0.74038
ROOT
ATOM      1  CA  HIS F   2       2.637  30.381 -19.906  1.00 49.99 LIG 0.18  C 
ENDROOT
BRANCH 1 2
ATOM      2  N   HIS F   2       2.066  30.407 -18.559  1.00 49.83 LIG-0.35  N 
ATOM      3  C   GLY F   1       1.860  29.299 -17.851  1.00 49.82 LIG 0.24  C 
ATOM      4 O    GLY F   1       2.074  28.165 -18.289  1.00 49.53 LIG-0.27  OA
ATOM      5 H    HIS F   2       1.880  31.196 -18.271  1.00 49.83 LIG 0.16  HD
BRANCH 3 6
ATOM      6  CA  GLY F   1       1.328  29.499 -16.442  1.00 49.90 LIG 0.33  C 
BRANCH 6 7
ATOM      7  N   GLY F   1       0.272  28.514 -16.065  1.00 49.95 LIG-0.07  N 
ATOM      8 H3   GLY F   1       0.414  27.748 -16.494  1.00 49.95 LIG 0.27  HD
ATOM      9 H1   GLY F   1       0.299  28.371 -15.187  1.00 49.95 LIG 0.27  HD
ATOM     10 H2   GLY F   1      -0.527  28.835 -16.288  1.00 49.95 LIG 0.27  HD
ENDBRANCH 6 7
ENDBRANCH 3 6
ENDBRANCH 1 2
BRANCH 1 11
ATOM     11  C   HIS F   2       4.102  30.814 -19.889  1.00 50.00 LIG 0.24  C 
ATOM     12 O    HIS F   2       4.709  31.032 -20.940  1.00 49.82 LIG-0.27  OA
ATOM     13  N   GLY F   3       4.655  30.946 -18.685  1.00 50.02 LIG-0.35  N 
ATOM     14 H    GLY F   3       4.245  30.772 -17.949  1.00 50.02 LIG 0.16  HD
BRANCH 13 15
ATOM     15  CA  GLY F   3       6.027  31.404 -18.510  1.00 50.20 LIG 0.21  C 
BRANCH 15 16
ATOM     16  C   GLY F   3       6.251  32.797 -19.065  1.00 50.42 LIG 0.21  C 
ATOM     17 O    GLY F   3       6.848  32.960 -20.130  1.00 50.69 LIG-0.29  OA
ENDBRANCH 15 16
ENDBRANCH 13 15
ENDBRANCH 1 11
BRANCH 1 18
ATOM     18  CB  HIS F   2       1.826  31.267 -20.855  1.00 49.99 LIG 0.10  C 
BRANCH 18 19
ATOM     19  CG  HIS F   2       0.738  32.040 -20.177  1.00 50.63 LIG 0.06  A 
ATOM     20  CD2 HIS F   2      -0.575  31.759 -19.989  1.00 51.31 LIG 0.14  A 
ATOM     21 NE2  HIS F   2      -1.120  32.811 -19.292  1.00 51.32 LIG-0.25  NA
ATOM     22  CE1 HIS F   2      -0.178  33.710 -19.065  1.00 50.87 LIG 0.23  A 
ATOM     23 ND1  HIS F   2       0.953  33.268 -19.587  1.00 50.82 LIG-0.24  NA
ENDBRANCH 18 19
ENDBRANCH 1 18
TORSDOF 8
ENDMDL
MODEL 92
USER: ADFR SOLUTION from run 126
USER: SCORE 7.445128 LL:  -1.281 LR:  -6.302 RR:   0.000 FEB:  -3.916
USER: RMSD 6.709089
USER: SEED 125
USER: STATUS no improvement in best in 23 clusters for 5 generations
USER: GENES 10
USER: genes 0 Translation |==|  0.80966 0.55965 0.53368
USER: genes 1 Rotation |==|  0.09017 0.62468 0.24230 0.50908
USER: genes 2 Torsion [C]-CA--N-[C] |==|  0.18333
USER: genes 3 Torsion [N]-C--CA-[N] |==|  0.57098
USER: genes 4 Torsion [C]-CA--N-[H3] |==|  0.58902
USER: genes 5 Torsion [N]-CA--C-[N] |==|  0.06965
USER: genes 6 Torsion [C]-N--CA-[C] |==|  0.75108
USER: genes 7 Torsion [N]-CA--C-[O] |==|  0.21937
USER: genes 8 Torsion [N]-CA--CB-[CG] |==|  0.83219
USER: genes 9 Torsion [CA]-CB--CG-[CD2] |==|  0.68046
ROOT
ATOM      1  CA  HIS F   2       3.670  31.471 -18.509  1.00 49.99 LIG 0.18  C 
ENDROOT
BRANCH 1 2
ATOM      2  N   HIS F   2       2.352  31.449 -17.874  1.00 49.83 LIG-0.35  N 
ATOM      3  C   GLY F   1       1.621  30.339 -17.786  1.00 49.82 LIG 0.24  C 
ATOM      4 O    GLY F   1       1.964  29.261 -18.281  1.00 49.53 LIG-0.27  OA
ATOM      5 H    HIS F   2       2.098  32.210 -17.566  1.00 49.83 LIG 0.16  HD
BRANCH 3 6
ATOM      6  CA  GLY F   1       0.308  30.466 -17.034  1.00 49.90 LIG 0.33  C 
BRANCH 6 7
ATOM      7  N   GLY F   1      -0.161  29.177 -16.446  1.00 49.95 LIG-0.07  N 
ATOM      8 H3   GLY F   1      -1.051  29.159 -16.440  1.00 49.95 LIG 0.27  HD
ATOM      9 H1   GLY F   1       0.146  28.498 -16.934  1.00 49.95 LIG 0.27  HD
ATOM     10 H2   GLY F   1       0.142  29.102 -15.612  1.00 49.95 LIG 0.27  HD
ENDBRANCH 6 7
ENDBRANCH 3 6
ENDBRANCH 1 2
BRANCH 1 11
ATOM     11  C   HIS F   2       3.560  31.189 -20.007  1.00 50.00 LIG 0.24  C 
ATOM     12 O    HIS F   2       4.508  30.707 -20.631  1.00 49.82 LIG-0.27  OA
ATOM     13  N   GLY F   3       2.390  31.484 -20.570  1.00 50.02 LIG-0.35  N 
ATOM     14 H    GLY F   3       1.733  31.843 -20.146  1.00 50.02 LIG 0.16  HD
BRANCH 13 15
ATOM     15  CA  GLY F   3       2.120  31.219 -21.977  1.00 50.20 LIG 0.21  C 
BRANCH 15 16
ATOM     16  C   GLY F   3       2.501  32.381 -22.873  1.00 50.42 LIG 0.21  C 
ATOM     17 O    GLY F   3       3.676  32.570 -23.190  1.00 50.69 LIG-0.29  OA
ENDBRANCH 15 16
ENDBRANCH 13 15
ENDBRANCH 1 11
BRANCH 1 18
ATOM     18  CB  HIS F   2       4.611  30.466 -17.841  1.00 49.99 LIG 0.10  C 
BRANCH 18 19
ATOM     19  CG  HIS F   2       4.843  30.733 -16.386  1.00 50.63 LIG 0.06  A 
ATOM     20  CD2 HIS F   2       5.964  31.083 -15.709  1.00 51.31 LIG 0.14  A 
ATOM     21 NE2  HIS F   2       5.615  31.212 -14.385  1.00 51.32 LIG-0.25  NA
ATOM     22  CE1 HIS F   2       4.328  30.943 -14.252  1.00 50.87 LIG 0.23  A 
ATOM     23 ND1  HIS F   2       3.838  30.653 -15.444  1.00 50.82 LIG-0.24  NA
ENDBRANCH 18 19
ENDBRANCH 1 18
TORSDOF 8
ENDMDL
MODEL 93
USER: ADFR SOLUTION from run 2
USER: SCORE 7.345218 LL:  -1.369 LR:  -6.288 RR:   0.000 FEB:  -3.901
USER: RMSD 3.734822
USER: SEED 413271
USER: STATUS no improvement in best in 30 clusters for 5 generations
USER: GENES 10
USER: genes 0 Translation |==|  0.45777 0.55810 0.41202
USER: genes 1 Rotation |==|  0.68987 0.44090 0.72869 0.89769
USER: genes 2 Torsion [C]-CA--N-[C] |==|  0.54444
USER: genes 3 Torsion [N]-C--CA-[N] |==|  0.49432
USER: genes 4 Torsion [C]-CA--N-[H3] |==|  0.77810
USER: genes 5 Torsion [N]-CA--C-[N] |==|  0.40945
USER: genes 6 Torsion [C]-N--CA-[C] |==|  0.82446
USER: genes 7 Torsion [N]-CA--C-[O] |==|  0.86170
USER: genes 8 Torsion [N]-CA--CB-[CG] |==|  0.57281
USER: genes 9 Torsion [CA]-CB--CG-[CD2] |==|  0.17724
ROOT
ATOM      1  CA  HIS F   2      -2.400  31.451 -20.517  1.00 49.99 LIG 0.18  C 
ENDROOT
BRANCH 1 2
ATOM      2  N   HIS F   2      -2.865  32.619 -21.265  1.00 49.83 LIG-0.35  N 
ATOM      3  C   GLY F   1      -2.025  33.486 -21.827  1.00 49.82 LIG 0.24  C 
ATOM      4 O    GLY F   1      -0.798  33.411 -21.714  1.00 49.53 LIG-0.27  OA
ATOM      5 H    HIS F   2      -3.721  32.691 -21.308  1.00 49.83 LIG 0.16  HD
BRANCH 3 6
ATOM      6  CA  GLY F   1      -2.665  34.605 -22.630  1.00 49.90 LIG 0.33  C 
BRANCH 6 7
ATOM      7  N   GLY F   1      -1.672  35.568 -23.192  1.00 49.95 LIG-0.07  N 
ATOM      8 H3   GLY F   1      -1.422  36.141 -22.558  1.00 49.95 LIG 0.27  HD
ATOM      9 H1   GLY F   1      -0.960  35.123 -23.486  1.00 49.95 LIG 0.27  HD
ATOM     10 H2   GLY F   1      -2.041  36.016 -23.867  1.00 49.95 LIG 0.27  HD
ENDBRANCH 6 7
ENDBRANCH 3 6
ENDBRANCH 1 2
BRANCH 1 11
ATOM     11  C   HIS F   2      -3.528  30.438 -20.327  1.00 50.00 LIG 0.24  C 
ATOM     12 O    HIS F   2      -4.699  30.809 -20.217  1.00 49.82 LIG-0.27  OA
ATOM     13  N   GLY F   3      -3.163  29.158 -20.303  1.00 50.02 LIG-0.35  N 
ATOM     14 H    GLY F   3      -2.346  28.894 -20.355  1.00 50.02 LIG 0.16  HD
BRANCH 13 15
ATOM     15  CA  GLY F   3      -4.134  28.078 -20.184  1.00 50.20 LIG 0.21  C 
BRANCH 15 16
ATOM     16  C   GLY F   3      -4.895  28.120 -18.874  1.00 50.42 LIG 0.21  C 
ATOM     17 O    GLY F   3      -4.296  28.226 -17.803  1.00 50.69 LIG-0.29  OA
ENDBRANCH 15 16
ENDBRANCH 13 15
ENDBRANCH 1 11
BRANCH 1 18
ATOM     18  CB  HIS F   2      -1.821  31.869 -19.164  1.00 49.99 LIG 0.10  C 
BRANCH 18 19
ATOM     19  CG  HIS F   2      -0.804  30.914 -18.621  1.00 50.63 LIG 0.06  A 
ATOM     20  CD2 HIS F   2       0.415  30.545 -19.087  1.00 51.31 LIG 0.14  A 
ATOM     21 NE2  HIS F   2       0.936  29.641 -18.191  1.00 51.32 LIG-0.25  NA
ATOM     22  CE1 HIS F   2       0.065  29.456 -17.214  1.00 50.87 LIG 0.23  A 
ATOM     23 ND1  HIS F   2      -0.992  30.213 -17.448  1.00 50.82 LIG-0.24  NA
ENDBRANCH 18 19
ENDBRANCH 1 18
TORSDOF 8
ENDMDL
MODEL 94
USER: ADFR SOLUTION from run 112
USER: SCORE 7.171654 LL:  -1.110 LR:  -6.268 RR:   0.000 FEB:  -3.882
USER: RMSD 6.417765
USER: SEED 111
USER: STATUS no improvement in best in 29 clusters for 5 generations
USER: GENES 10
USER: genes 0 Translation |==|  0.68139 0.48313 0.50965
USER: genes 1 Rotation |==|  0.39031 0.56752 0.02049 0.55901
USER: genes 2 Torsion [C]-CA--N-[C] |==|  0.77521
USER: genes 3 Torsion [N]-C--CA-[N] |==|  0.02379
USER: genes 4 Torsion [C]-CA--N-[H3] |==|  0.12198
USER: genes 5 Torsion [N]-CA--C-[N] |==|  0.29449
USER: genes 6 Torsion [C]-N--CA-[C] |==|  0.34692
USER: genes 7 Torsion [N]-CA--C-[O] |==|  0.84775
USER: genes 8 Torsion [N]-CA--CB-[CG] |==|  0.73837
USER: genes 9 Torsion [CA]-CB--CG-[CD2] |==|  0.79428
ROOT
ATOM      1  CA  HIS F   2       1.457  30.495 -18.906  1.00 49.99 LIG 0.18  C 
ENDROOT
BRANCH 1 2
ATOM      2  N   HIS F   2       0.798  30.435 -20.211  1.00 49.83 LIG-0.35  N 
ATOM      3  C   GLY F   1       0.955  31.383 -21.132  1.00 49.82 LIG 0.24  C 
ATOM      4 O    GLY F   1       1.614  32.409 -20.944  1.00 49.53 LIG-0.27  OA
ATOM      5 H    HIS F   2       0.306  29.739 -20.324  1.00 49.83 LIG 0.16  HD
BRANCH 3 6
ATOM      6  CA  GLY F   1       0.260  31.139 -22.461  1.00 49.90 LIG 0.33  C 
BRANCH 6 7
ATOM      7  N   GLY F   1      -0.655  29.960 -22.440  1.00 49.95 LIG-0.07  N 
ATOM      8 H3   GLY F   1      -1.134  29.970 -21.690  1.00 49.95 LIG 0.27  HD
ATOM      9 H1   GLY F   1      -1.201  29.995 -23.142  1.00 49.95 LIG 0.27  HD
ATOM     10 H2   GLY F   1      -0.175  29.211 -22.475  1.00 49.95 LIG 0.27  HD
ENDBRANCH 6 7
ENDBRANCH 3 6
ENDBRANCH 1 2
BRANCH 1 11
ATOM     11  C   HIS F   2       2.905  30.017 -19.002  1.00 50.00 LIG 0.24  C 
ATOM     12 O    HIS F   2       3.167  28.820 -19.142  1.00 49.82 LIG-0.27  OA
ATOM     13  N   GLY F   3       3.836  30.966 -18.936  1.00 50.02 LIG-0.35  N 
ATOM     14 H    GLY F   3       3.661  31.799 -18.814  1.00 50.02 LIG 0.16  HD
BRANCH 13 15
ATOM     15  CA  GLY F   3       5.256  30.667 -19.069  1.00 50.20 LIG 0.21  C 
BRANCH 15 16
ATOM     16  C   GLY F   3       5.922  31.475 -20.165  1.00 50.42 LIG 0.21  C 
ATOM     17 O    GLY F   3       5.481  31.457 -21.314  1.00 50.69 LIG-0.29  OA
ENDBRANCH 15 16
ENDBRANCH 13 15
ENDBRANCH 1 11
BRANCH 1 18
ATOM     18  CB  HIS F   2       0.687  29.672 -17.871  1.00 49.99 LIG 0.10  C 
BRANCH 18 19
ATOM     19  CG  HIS F   2      -0.291  30.473 -17.069  1.00 50.63 LIG 0.06  A 
ATOM     20  CD2 HIS F   2      -0.106  31.366 -16.066  1.00 51.31 LIG 0.14  A 
ATOM     21 NE2  HIS F   2      -1.349  31.818 -15.689  1.00 51.32 LIG-0.25  NA
ATOM     22  CE1 HIS F   2      -2.265  31.218 -16.429  1.00 50.87 LIG 0.23  A 
ATOM     23 ND1  HIS F   2      -1.654  30.404 -17.271  1.00 50.82 LIG-0.24  NA
ENDBRANCH 18 19
ENDBRANCH 1 18
TORSDOF 8
ENDMDL
MODEL 95
USER: ADFR SOLUTION from run 67
USER: SCORE 7.327471 LL:  -1.160 LR:  -6.264 RR:   0.000 FEB:  -3.878
USER: RMSD 6.067792
USER: SEED 66
USER: STATUS no improvement in best in 18 clusters for 5 generations
USER: GENES 10
USER: genes 0 Translation |==|  0.79663 0.58829 0.47225
USER: genes 1 Rotation |==|  0.11630 0.71893 0.26693 0.52270
USER: genes 2 Torsion [C]-CA--N-[C] |==|  0.13333
USER: genes 3 Torsion [N]-C--CA-[N] |==|  0.06366
USER: genes 4 Torsion [C]-CA--N-[H3] |==|  0.39877
USER: genes 5 Torsion [N]-CA--C-[N] |==|  0.11117
USER: genes 6 Torsion [C]-N--CA-[C] |==|  0.39030
USER: genes 7 Torsion [N]-CA--C-[O] |==|  0.12722
USER: genes 8 Torsion [N]-CA--CB-[CG] |==|  0.99045
USER: genes 9 Torsion [CA]-CB--CG-[CD2] |==|  0.79430
ROOT
ATOM      1  CA  HIS F   2       3.445  31.836 -19.523  1.00 49.99 LIG 0.18  C 
ENDROOT
BRANCH 1 2
ATOM      2  N   HIS F   2       2.169  32.039 -18.836  1.00 49.83 LIG-0.35  N 
ATOM      3  C   GLY F   1       1.043  31.451 -19.236  1.00 49.82 LIG 0.24  C 
ATOM      4 O    GLY F   1       0.970  30.740 -20.242  1.00 49.53 LIG-0.27  OA
ATOM      5 H    HIS F   2       2.215  32.566 -18.159  1.00 49.83 LIG 0.16  HD
BRANCH 3 6
ATOM      6  CA  GLY F   1      -0.182  31.706 -18.374  1.00 49.90 LIG 0.33  C 
BRANCH 6 7
ATOM      7  N   GLY F   1      -0.083  32.957 -17.566  1.00 49.95 LIG-0.07  N 
ATOM      8 H3   GLY F   1      -0.883  33.344 -17.518  1.00 49.95 LIG 0.27  HD
ATOM      9 H1   GLY F   1       0.200  32.760 -16.745  1.00 49.95 LIG 0.27  HD
ATOM     10 H2   GLY F   1       0.493  33.515 -17.951  1.00 49.95 LIG 0.27  HD
ENDBRANCH 6 7
ENDBRANCH 3 6
ENDBRANCH 1 2
BRANCH 1 11
ATOM     11  C   HIS F   2       3.286  32.003 -21.033  1.00 50.00 LIG 0.24  C 
ATOM     12 O    HIS F   2       3.865  31.247 -21.817  1.00 49.82 LIG-0.27  OA
ATOM     13  N   GLY F   3       2.488  32.993 -21.428  1.00 50.02 LIG-0.35  N 
ATOM     14 H    GLY F   3       2.101  33.539 -20.887  1.00 50.02 LIG 0.16  HD
BRANCH 13 15
ATOM     15  CA  GLY F   3       2.198  33.239 -22.834  1.00 50.20 LIG 0.21  C 
BRANCH 15 16
ATOM     16  C   GLY F   3       0.752  33.625 -23.072  1.00 50.42 LIG 0.21  C 
ATOM     17 O    GLY F   3       0.198  34.460 -22.356  1.00 50.69 LIG-0.29  OA
ENDBRANCH 15 16
ENDBRANCH 13 15
ENDBRANCH 1 11
BRANCH 1 18
ATOM     18  CB  HIS F   2       4.025  30.459 -19.193  1.00 49.99 LIG 0.10  C 
BRANCH 18 19
ATOM     19  CG  HIS F   2       3.215  29.684 -18.200  1.00 50.63 LIG 0.06  A 
ATOM     20  CD2 HIS F   2       3.067  29.828 -16.860  1.00 51.31 LIG 0.14  A 
ATOM     21 NE2  HIS F   2       2.194  28.852 -16.441  1.00 51.32 LIG-0.25  NA
ATOM     22  CE1 HIS F   2       1.824  28.130 -17.484  1.00 50.87 LIG 0.23  A 
ATOM     23 ND1  HIS F   2       2.423  28.613 -18.558  1.00 50.82 LIG-0.24  NA
ENDBRANCH 18 19
ENDBRANCH 1 18
TORSDOF 8
ENDMDL
MODEL 96
USER: ADFR SOLUTION from run 42
USER: SCORE 7.437157 LL:  -1.269 LR:  -6.247 RR:   0.000 FEB:  -3.860
USER: RMSD 5.780150
USER: SEED 41
USER: STATUS no improvement in best in 33 clusters for 5 generations
USER: GENES 10
USER: genes 0 Translation |==|  0.63431 0.61719 0.36530
USER: genes 1 Rotation |==|  0.44461 0.64700 0.51387 0.97448
USER: genes 2 Torsion [C]-CA--N-[C] |==|  0.16772
USER: genes 3 Torsion [N]-C--CA-[N] |==|  0.44736
USER: genes 4 Torsion [C]-CA--N-[H3] |==|  0.62907
USER: genes 5 Torsion [N]-CA--C-[N] |==|  0.09057
USER: genes 6 Torsion [C]-N--CA-[C] |==|  0.35445
USER: genes 7 Torsion [N]-CA--C-[O] |==|  0.63645
USER: genes 8 Torsion [N]-CA--CB-[CG] |==|  0.89471
USER: genes 9 Torsion [CA]-CB--CG-[CD2] |==|  0.89722
ROOT
ATOM      1  CA  HIS F   2       0.645  32.204 -21.288  1.00 49.99 LIG 0.18  C 
ENDROOT
BRANCH 1 2
ATOM      2  N   HIS F   2      -0.107  32.224 -22.543  1.00 49.83 LIG-0.35  N 
ATOM      3  C   GLY F   1      -0.328  33.346 -23.223  1.00 49.82 LIG 0.24  C 
ATOM      4 O    GLY F   1       0.027  34.460 -22.828  1.00 49.53 LIG-0.27  OA
ATOM      5 H    HIS F   2      -0.389  31.452 -22.795  1.00 49.83 LIG 0.16  HD
BRANCH 3 6
ATOM      6  CA  GLY F   1      -1.063  33.189 -24.544  1.00 49.90 LIG 0.33  C 
BRANCH 6 7
ATOM      7  N   GLY F   1      -1.672  34.460 -25.035  1.00 49.95 LIG-0.07  N 
ATOM      8 H3   GLY F   1      -2.509  34.307 -25.296  1.00 49.95 LIG 0.27  HD
ATOM      9 H1   GLY F   1      -1.672  35.062 -24.379  1.00 49.95 LIG 0.27  HD
ATOM     10 H2   GLY F   1      -1.199  34.771 -25.721  1.00 49.95 LIG 0.27  HD
ENDBRANCH 6 7
ENDBRANCH 3 6
ENDBRANCH 1 2
BRANCH 1 11
ATOM     11  C   HIS F   2      -0.035  33.071 -20.229  1.00 50.00 LIG 0.24  C 
ATOM     12 O    HIS F   2       0.631  33.682 -19.389  1.00 49.82 LIG-0.27  OA
ATOM     13  N   GLY F   3      -1.364  33.125 -20.287  1.00 50.02 LIG-0.35  N 
ATOM     14 H    GLY F   3      -1.835  32.683 -20.854  1.00 50.02 LIG 0.16  HD
BRANCH 13 15
ATOM     15  CA  GLY F   3      -2.145  33.954 -19.378  1.00 50.20 LIG 0.21  C 
BRANCH 15 16
ATOM     16  C   GLY F   3      -3.110  34.868 -20.106  1.00 50.42 LIG 0.21  C 
ATOM     17 O    GLY F   3      -3.166  36.068 -19.835  1.00 50.69 LIG-0.29  OA
ENDBRANCH 15 16
ENDBRANCH 13 15
ENDBRANCH 1 11
BRANCH 1 18
ATOM     18  CB  HIS F   2       2.087  32.662 -21.513  1.00 49.99 LIG 0.10  C 
BRANCH 18 19
ATOM     19  CG  HIS F   2       2.678  32.185 -22.804  1.00 50.63 LIG 0.06  A 
ATOM     20  CD2 HIS F   2       2.538  31.014 -23.472  1.00 51.31 LIG 0.14  A 
ATOM     21 NE2  HIS F   2       3.296  31.107 -24.616  1.00 51.32 LIG-0.25  NA
ATOM     22  CE1 HIS F   2       3.885  32.289 -24.646  1.00 50.87 LIG 0.23  A 
ATOM     23 ND1  HIS F   2       3.528  32.960 -23.565  1.00 50.82 LIG-0.24  NA
ENDBRANCH 18 19
ENDBRANCH 1 18
TORSDOF 8
ENDMDL
MODEL 97
USER: ADFR SOLUTION from run 178
USER: SCORE 7.458960 LL:  -1.328 LR:  -6.245 RR:   0.000 FEB:  -3.859
USER: RMSD 4.320506
USER: SEED 177
USER: STATUS no improvement in best in 16 clusters for 5 generations
USER: GENES 10
USER: genes 0 Translation |==|  0.60935 0.48023 0.62677
USER: genes 1 Rotation |==|  0.14255 0.73379 0.26769 0.61664
USER: genes 2 Torsion [C]-CA--N-[C] |==|  0.82513
USER: genes 3 Torsion [N]-C--CA-[N] |==|  0.20682
USER: genes 4 Torsion [C]-CA--N-[H3] |==|  0.33889
USER: genes 5 Torsion [N]-CA--C-[N] |==|  0.86667
USER: genes 6 Torsion [C]-N--CA-[C] |==|  0.56772
USER: genes 7 Torsion [N]-CA--C-[O] |==|  0.01590
USER: genes 8 Torsion [N]-CA--CB-[CG] |==|  0.49461
USER: genes 9 Torsion [CA]-CB--CG-[CD2] |==|  0.23235
ROOT
ATOM      1  CA  HIS F   2       0.214  30.458 -16.973  1.00 49.99 LIG 0.18  C 
ENDROOT
BRANCH 1 2
ATOM      2  N   HIS F   2      -1.184  30.365 -16.553  1.00 49.83 LIG-0.35  N 
ATOM      3  C   GLY F   1      -1.944  31.441 -16.362  1.00 49.82 LIG 0.24  C 
ATOM      4 O    GLY F   1      -1.522  32.596 -16.465  1.00 49.53 LIG-0.27  OA
ATOM      5 H    HIS F   2      -1.465  29.560 -16.442  1.00 49.83 LIG 0.16  HD
BRANCH 3 6
ATOM      6  CA  GLY F   1      -3.394  31.174 -15.996  1.00 49.90 LIG 0.33  C 
BRANCH 6 7
ATOM      7  N   GLY F   1      -3.571  30.710 -14.589  1.00 49.95 LIG-0.07  N 
ATOM      8 H3   GLY F   1      -4.116  31.267 -14.158  1.00 49.95 LIG 0.27  HD
ATOM      9 H1   GLY F   1      -3.922  29.891 -14.587  1.00 49.95 LIG 0.27  HD
ATOM     10 H2   GLY F   1      -2.781  30.693 -14.180  1.00 49.95 LIG 0.27  HD
ENDBRANCH 6 7
ENDBRANCH 3 6
ENDBRANCH 1 2
BRANCH 1 11
ATOM     11  C   HIS F   2       0.328  31.099 -18.355  1.00 50.00 LIG 0.24  C 
ATOM     12 O    HIS F   2       1.141  32.002 -18.568  1.00 49.82 LIG-0.27  OA
ATOM     13  N   GLY F   3      -0.485  30.614 -19.290  1.00 50.02 LIG-0.35  N 
ATOM     14 H    GLY F   3      -1.071  30.001 -19.143  1.00 50.02 LIG 0.16  HD
BRANCH 13 15
ATOM     15  CA  GLY F   3      -0.451  31.088 -20.668  1.00 50.20 LIG 0.21  C 
BRANCH 15 16
ATOM     16  C   GLY F   3      -1.767  30.875 -21.390  1.00 50.42 LIG 0.21  C 
ATOM     17 O    GLY F   3      -2.752  30.447 -20.788  1.00 50.69 LIG-0.29  OA
ENDBRANCH 15 16
ENDBRANCH 13 15
ENDBRANCH 1 11
BRANCH 1 18
ATOM     18  CB  HIS F   2       0.876  29.079 -16.964  1.00 49.99 LIG 0.10  C 
BRANCH 18 19
ATOM     19  CG  HIS F   2       2.300  29.089 -17.429  1.00 50.63 LIG 0.06  A 
ATOM     20  CD2 HIS F   2       3.453  29.361 -16.771  1.00 51.31 LIG 0.14  A 
ATOM     21 NE2  HIS F   2       4.480  29.212 -17.672  1.00 51.32 LIG-0.25  NA
ATOM     22  CE1 HIS F   2       3.975  28.867 -18.844  1.00 50.87 LIG 0.23  A 
ATOM     23 ND1  HIS F   2       2.662  28.784 -18.724  1.00 50.82 LIG-0.24  NA
ENDBRANCH 18 19
ENDBRANCH 1 18
TORSDOF 8
ENDMDL
MODEL 98
USER: ADFR SOLUTION from run 93
USER: SCORE 7.341948 LL:  -1.165 LR:  -6.244 RR:   0.000 FEB:  -3.858
USER: RMSD 2.048311
USER: SEED 92
USER: STATUS no improvement in best in 25 clusters for 5 generations
USER: GENES 10
USER: genes 0 Translation |==|  0.58050 0.45062 0.61109
USER: genes 1 Rotation |==|  0.44882 0.52570 0.46377 0.99539
USER: genes 2 Torsion [C]-CA--N-[C] |==|  0.15736
USER: genes 3 Torsion [N]-C--CA-[N] |==|  0.12863
USER: genes 4 Torsion [C]-CA--N-[H3] |==|  0.64091
USER: genes 5 Torsion [N]-CA--C-[N] |==|  0.12778
USER: genes 6 Torsion [C]-N--CA-[C] |==|  0.81950
USER: genes 7 Torsion [N]-CA--C-[O] |==|  0.03392
USER: genes 8 Torsion [N]-CA--CB-[CG] |==|  0.89744
USER: genes 9 Torsion [CA]-CB--CG-[CD2] |==|  0.77195
ROOT
ATOM      1  CA  HIS F   2      -0.283  30.080 -17.232  1.00 49.99 LIG 0.18  C 
ENDROOT
BRANCH 1 2
ATOM      2  N   HIS F   2      -0.317  30.130 -18.694  1.00 49.83 LIG-0.35  N 
ATOM      3  C   GLY F   1      -0.085  31.251 -19.374  1.00 49.82 LIG 0.24  C 
ATOM      4 O    GLY F   1       0.117  32.342 -18.835  1.00 49.53 LIG-0.27  OA
ATOM      5 H    HIS F   2      -0.497  29.377 -19.067  1.00 49.83 LIG 0.16  HD
BRANCH 3 6
ATOM      6  CA  GLY F   1      -0.085  31.121 -20.888  1.00 49.90 LIG 0.33  C 
BRANCH 6 7
ATOM      7  N   GLY F   1      -1.242  30.335 -21.412  1.00 49.95 LIG-0.07  N 
ATOM      8 H3   GLY F   1      -0.946  29.704 -21.965  1.00 49.95 LIG 0.27  HD
ATOM      9 H1   GLY F   1      -1.674  29.955 -20.733  1.00 49.95 LIG 0.27  HD
ATOM     10 H2   GLY F   1      -1.795  30.877 -21.849  1.00 49.95 LIG 0.27  HD
ENDBRANCH 6 7
ENDBRANCH 3 6
ENDBRANCH 1 2
BRANCH 1 11
ATOM     11  C   HIS F   2      -1.260  31.088 -16.628  1.00 50.00 LIG 0.24  C 
ATOM     12 O    HIS F   2      -0.914  31.828 -15.704  1.00 49.82 LIG-0.27  OA
ATOM     13  N   GLY F   3      -2.476  31.115 -17.168  1.00 50.02 LIG-0.35  N 
ATOM     14 H    GLY F   3      -2.732  30.585 -17.796  1.00 50.02 LIG 0.16  HD
BRANCH 13 15
ATOM     15  CA  GLY F   3      -3.496  32.061 -16.733  1.00 50.20 LIG 0.21  C 
BRANCH 15 16
ATOM     16  C   GLY F   3      -3.928  31.833 -15.298  1.00 50.42 LIG 0.21  C 
ATOM     17 O    GLY F   3      -3.285  31.085 -14.560  1.00 50.69 LIG-0.29  OA
ENDBRANCH 15 16
ENDBRANCH 13 15
ENDBRANCH 1 11
BRANCH 1 18
ATOM     18  CB  HIS F   2       1.134  30.329 -16.713  1.00 49.99 LIG 0.10  C 
BRANCH 18 19
ATOM     19  CG  HIS F   2       2.205  29.725 -17.569  1.00 50.63 LIG 0.06  A 
ATOM     20  CD2 HIS F   2       2.698  28.464 -17.628  1.00 51.31 LIG 0.14  A 
ATOM     21 NE2  HIS F   2       3.668  28.452 -18.602  1.00 51.32 LIG-0.25  NA
ATOM     22  CE1 HIS F   2       3.772  29.664 -19.119  1.00 50.87 LIG 0.23  A 
ATOM     23 ND1  HIS F   2       2.899  30.450 -18.515  1.00 50.82 LIG-0.24  NA
ENDBRANCH 18 19
ENDBRANCH 1 18
TORSDOF 8
ENDMDL
MODEL 99
USER: ADFR SOLUTION from run 161
USER: SCORE 7.482204 LL:  -1.349 LR:  -6.229 RR:   0.000 FEB:  -3.843
USER: RMSD 3.429747
USER: SEED 160
USER: STATUS no improvement in best in 30 clusters for 5 generations
USER: GENES 10
USER: genes 0 Translation |==|  0.58697 0.66709 0.54560
USER: genes 1 Rotation |==|  0.04965 0.61351 0.66574 0.58262
USER: genes 2 Torsion [C]-CA--N-[C] |==|  0.16823
USER: genes 3 Torsion [N]-C--CA-[N] |==|  0.43224
USER: genes 4 Torsion [C]-CA--N-[H3] |==|  0.96537
USER: genes 5 Torsion [N]-CA--C-[N] |==|  0.07835
USER: genes 6 Torsion [C]-N--CA-[C] |==|  0.40370
USER: genes 7 Torsion [N]-CA--C-[O] |==|  0.12175
USER: genes 8 Torsion [N]-CA--CB-[CG] |==|  0.90492
USER: genes 9 Torsion [CA]-CB--CG-[CD2] |==|  0.42418
ROOT
ATOM      1  CA  HIS F   2      -0.172  32.840 -18.313  1.00 49.99 LIG 0.18  C 
ENDROOT
BRANCH 1 2
ATOM      2  N   HIS F   2       0.445  31.883 -17.394  1.00 49.83 LIG-0.35  N 
ATOM      3  C   GLY F   1       0.142  30.587 -17.406  1.00 49.82 LIG 0.24  C 
ATOM      4 O    GLY F   1      -0.718  30.099 -18.144  1.00 49.53 LIG-0.27  OA
ATOM      5 H    HIS F   2       1.015  32.233 -16.853  1.00 49.83 LIG 0.16  HD
BRANCH 3 6
ATOM      6  CA  GLY F   1       0.923  29.713 -16.438  1.00 49.90 LIG 0.33  C 
BRANCH 6 7
ATOM      7  N   GLY F   1       0.203  28.460 -16.065  1.00 49.95 LIG-0.07  N 
ATOM      8 H3   GLY F   1      -0.645  28.514 -16.331  1.00 49.95 LIG 0.27  HD
ATOM      9 H1   GLY F   1       0.594  27.764 -16.460  1.00 49.95 LIG 0.27  HD
ATOM     10 H2   GLY F   1       0.230  28.353 -15.182  1.00 49.95 LIG 0.27  HD
ENDBRANCH 6 7
ENDBRANCH 3 6
ENDBRANCH 1 2
BRANCH 1 11
ATOM     11  C   HIS F   2      -1.687  32.886 -18.120  1.00 50.00 LIG 0.24  C 
ATOM     12 O    HIS F   2      -2.435  33.175 -19.056  1.00 49.82 LIG-0.27  OA
ATOM     13  N   GLY F   3      -2.127  32.585 -16.900  1.00 50.02 LIG-0.35  N 
ATOM     14 H    GLY F   3      -1.609  32.406 -16.236  1.00 50.02 LIG 0.16  HD
BRANCH 13 15
ATOM     15  CA  GLY F   3      -3.548  32.533 -16.581  1.00 50.20 LIG 0.21  C 
BRANCH 15 16
ATOM     16  C   GLY F   3      -3.877  31.460 -15.562  1.00 50.42 LIG 0.21  C 
ATOM     17 O    GLY F   3      -3.172  31.303 -14.565  1.00 50.69 LIG-0.29  OA
ENDBRANCH 15 16
ENDBRANCH 13 15
ENDBRANCH 1 11
BRANCH 1 18
ATOM     18  CB  HIS F   2       0.175  32.500 -19.763  1.00 49.99 LIG 0.10  C 
BRANCH 18 19
ATOM     19  CG  HIS F   2       1.547  31.925 -19.937  1.00 50.63 LIG 0.06  A 
ATOM     20  CD2 HIS F   2       2.053  31.085 -20.873  1.00 51.31 LIG 0.14  A 
ATOM     21 NE2  HIS F   2       3.378  30.885 -20.567  1.00 51.32 LIG-0.25  NA
ATOM     22  CE1 HIS F   2       3.674  31.572 -19.477  1.00 50.87 LIG 0.23  A 
ATOM     23 ND1  HIS F   2       2.588  32.210 -19.079  1.00 50.82 LIG-0.24  NA
ENDBRANCH 18 19
ENDBRANCH 1 18
TORSDOF 8
ENDMDL
MODEL 100
USER: ADFR SOLUTION from run 189
USER: SCORE 7.605732 LL:  -1.397 LR:  -6.212 RR:   0.000 FEB:  -3.826
USER: RMSD 5.420824
USER: SEED 188
USER: STATUS no improvement in best in 21 clusters for 5 generations
USER: GENES 10
USER: genes 0 Translation |==|  0.52911 0.66229 0.52760
USER: genes 1 Rotation |==|  0.57170 0.38535 0.97847 0.55271
USER: genes 2 Torsion [C]-CA--N-[C] |==|  0.83504
USER: genes 3 Torsion [N]-C--CA-[N] |==|  0.37011
USER: genes 4 Torsion [C]-CA--N-[H3] |==|  0.18731
USER: genes 5 Torsion [N]-CA--C-[N] |==|  0.36673
USER: genes 6 Torsion [C]-N--CA-[C] |==|  0.26860
USER: genes 7 Torsion [N]-CA--C-[O] |==|  0.92925
USER: genes 8 Torsion [N]-CA--CB-[CG] |==|  0.21387
USER: genes 9 Torsion [CA]-CB--CG-[CD2] |==|  0.33693
ROOT
ATOM      1  CA  HIS F   2      -1.170  32.779 -18.610  1.00 49.99 LIG 0.18  C 
ENDROOT
BRANCH 1 2
ATOM      2  N   HIS F   2      -1.666  33.150 -19.935  1.00 49.83 LIG-0.35  N 
ATOM      3  C   GLY F   1      -0.865  33.615 -20.892  1.00 49.82 LIG 0.24  C 
ATOM      4 O    GLY F   1       0.340  33.826 -20.724  1.00 49.53 LIG-0.27  OA
ATOM      5 H    HIS F   2      -2.513  33.040 -20.037  1.00 49.83 LIG 0.16  HD
BRANCH 3 6
ATOM      6  CA  GLY F   1      -1.521  33.886 -22.235  1.00 49.90 LIG 0.33  C 
BRANCH 6 7
ATOM      7  N   GLY F   1      -1.150  35.210 -22.815  1.00 49.95 LIG-0.07  N 
ATOM      8 H3   GLY F   1      -0.287  35.207 -23.035  1.00 49.95 LIG 0.27  HD
ATOM      9 H1   GLY F   1      -1.641  35.364 -23.542  1.00 49.95 LIG 0.27  HD
ATOM     10 H2   GLY F   1      -1.300  35.850 -22.215  1.00 49.95 LIG 0.27  HD
ENDBRANCH 6 7
ENDBRANCH 3 6
ENDBRANCH 1 2
BRANCH 1 11
ATOM     11  C   HIS F   2      -0.116  31.678 -18.708  1.00 50.00 LIG 0.24  C 
ATOM     12 O    HIS F   2      -0.309  30.678 -19.404  1.00 49.82 LIG-0.27  OA
ATOM     13  N   GLY F   3       1.002  31.879 -18.014  1.00 50.02 LIG-0.35  N 
ATOM     14 H    GLY F   3       1.134  32.562 -17.508  1.00 50.02 LIG 0.16  HD
BRANCH 13 15
ATOM     15  CA  GLY F   3       2.118  30.943 -18.054  1.00 50.20 LIG 0.21  C 
BRANCH 15 16
ATOM     16  C   GLY F   3       3.190  31.356 -19.043  1.00 50.42 LIG 0.21  C 
ATOM     17 O    GLY F   3       2.913  32.065 -20.011  1.00 50.69 LIG-0.29  OA
ENDBRANCH 15 16
ENDBRANCH 13 15
ENDBRANCH 1 11
BRANCH 1 18
ATOM     18  CB  HIS F   2      -2.322  32.341 -17.703  1.00 49.99 LIG 0.10  C 
BRANCH 18 19
ATOM     19  CG  HIS F   2      -2.820  30.958 -17.986  1.00 50.63 LIG 0.06  A 
ATOM     20  CD2 HIS F   2      -2.903  29.858 -17.197  1.00 51.31 LIG 0.14  A 
ATOM     21 NE2  HIS F   2      -3.449  28.852 -17.958  1.00 51.32 LIG-0.25  NA
ATOM     22  CE1 HIS F   2      -3.687  29.314 -19.173  1.00 50.87 LIG 0.23  A 
ATOM     23 ND1  HIS F   2      -3.318  30.582 -19.216  1.00 50.82 LIG-0.24  NA
ENDBRANCH 18 19
ENDBRANCH 1 18
TORSDOF 8
ENDMDL
MODEL 101
USER: ADFR SOLUTION from run 113
USER: SCORE 7.461604 LL:  -1.277 LR:  -6.215 RR:   0.000 FEB:  -3.828
USER: RMSD 6.172213
USER: SEED 112
USER: STATUS no improvement in best in 27 clusters for 5 generations
USER: GENES 10
USER: genes 0 Translation |==|  0.74117 0.38393 0.63800
USER: genes 1 Rotation |==|  0.42289 0.81204 0.34926 0.85208
USER: genes 2 Torsion [C]-CA--N-[C] |==|  0.83195
USER: genes 3 Torsion [N]-C--CA-[N] |==|  0.32214
USER: genes 4 Torsion [C]-CA--N-[H3] |==|  0.87286
USER: genes 5 Torsion [N]-CA--C-[N] |==|  0.35559
USER: genes 6 Torsion [C]-N--CA-[C] |==|  0.53324
USER: genes 7 Torsion [N]-CA--C-[O] |==|  0.06554
USER: genes 8 Torsion [N]-CA--CB-[CG] |==|  0.20249
USER: genes 9 Torsion [CA]-CB--CG-[CD2] |==|  0.34428
ROOT
ATOM      1  CA  HIS F   2       2.488  29.230 -16.788  1.00 49.99 LIG 0.18  C 
ENDROOT
BRANCH 1 2
ATOM      2  N   HIS F   2       1.195  29.673 -17.311  1.00 49.83 LIG-0.35  N 
ATOM      3  C   GLY F   1       0.265  30.226 -16.536  1.00 49.82 LIG 0.24  C 
ATOM      4 O    GLY F   1       0.390  30.358 -15.315  1.00 49.53 LIG-0.27  OA
ATOM      5 H    HIS F   2       1.094  29.542 -18.155  1.00 49.83 LIG 0.16  HD
BRANCH 3 6
ATOM      6  CA  GLY F   1      -0.995  30.697 -17.243  1.00 49.90 LIG 0.33  C 
BRANCH 6 7
ATOM      7  N   GLY F   1      -2.220  29.960 -16.816  1.00 49.95 LIG-0.07  N 
ATOM      8 H3   GLY F   1      -2.050  29.087 -16.798  1.00 49.95 LIG 0.27  HD
ATOM      9 H1   GLY F   1      -2.463  30.232 -16.004  1.00 49.95 LIG 0.27  HD
ATOM     10 H2   GLY F   1      -2.879  30.121 -17.392  1.00 49.95 LIG 0.27  HD
ENDBRANCH 6 7
ENDBRANCH 3 6
ENDBRANCH 1 2
BRANCH 1 11
ATOM     11  C   HIS F   2       3.261  30.399 -16.180  1.00 50.00 LIG 0.24  C 
ATOM     12 O    HIS F   2       3.434  31.442 -16.815  1.00 49.82 LIG-0.27  OA
ATOM     13  N   GLY F   3       3.713  30.216 -14.941  1.00 50.02 LIG-0.35  N 
ATOM     14 H    GLY F   3       3.617  29.482 -14.502  1.00 50.02 LIG 0.16  HD
BRANCH 13 15
ATOM     15  CA  GLY F   3       4.419  31.261 -14.212  1.00 50.20 LIG 0.21  C 
BRANCH 15 16
ATOM     16  C   GLY F   3       5.086  30.745 -12.952  1.00 50.42 LIG 0.21  C 
ATOM     17 O    GLY F   3       5.382  29.555 -12.841  1.00 50.69 LIG-0.29  OA
ENDBRANCH 15 16
ENDBRANCH 13 15
ENDBRANCH 1 11
BRANCH 1 18
ATOM     18  CB  HIS F   2       3.313  28.553 -17.884  1.00 49.99 LIG 0.10  C 
BRANCH 18 19
ATOM     19  CG  HIS F   2       3.865  29.505 -18.900  1.00 50.63 LIG 0.06  A 
ATOM     20  CD2 HIS F   2       5.135  29.732 -19.315  1.00 51.31 LIG 0.14  A 
ATOM     21 NE2  HIS F   2       5.078  30.710 -20.280  1.00 51.32 LIG-0.25  NA
ATOM     22  CE1 HIS F   2       3.819  31.075 -20.447  1.00 50.87 LIG 0.23  A 
ATOM     23 ND1  HIS F   2       3.066  30.362 -19.628  1.00 50.82 LIG-0.24  NA
ENDBRANCH 18 19
ENDBRANCH 1 18
TORSDOF 8
ENDMDL
MODEL 102
USER: ADFR SOLUTION from run 146
USER: SCORE 7.605184 LL:  -1.469 LR:  -6.193 RR:   0.000 FEB:  -3.807
USER: RMSD 5.297299
USER: SEED 145
USER: STATUS no improvement in best in 32 clusters for 5 generations
USER: GENES 10
USER: genes 0 Translation |==|  0.65765 0.58311 0.34190
USER: genes 1 Rotation |==|  0.44852 0.63410 0.48271 0.97861
USER: genes 2 Torsion [C]-CA--N-[C] |==|  0.15286
USER: genes 3 Torsion [N]-C--CA-[N] |==|  0.40467
USER: genes 4 Torsion [C]-CA--N-[H3] |==|  0.33754
USER: genes 5 Torsion [N]-CA--C-[N] |==|  0.10129
USER: genes 6 Torsion [C]-N--CA-[C] |==|  0.33918
USER: genes 7 Torsion [N]-CA--C-[O] |==|  0.98983
USER: genes 8 Torsion [N]-CA--CB-[CG] |==|  0.57283
USER: genes 9 Torsion [CA]-CB--CG-[CD2] |==|  0.92817
ROOT
ATOM      1  CA  HIS F   2       1.048  31.770 -21.674  1.00 49.99 LIG 0.18  C 
ENDROOT
BRANCH 1 2
ATOM      2  N   HIS F   2       0.387  31.849 -22.977  1.00 49.83 LIG-0.35  N 
ATOM      3  C   GLY F   1       0.255  32.996 -23.640  1.00 49.82 LIG 0.24  C 
ATOM      4 O    GLY F   1       0.619  34.085 -23.190  1.00 49.53 LIG-0.27  OA
ATOM      5 H    HIS F   2       0.098  31.094 -23.270  1.00 49.83 LIG 0.16  HD
BRANCH 3 6
ATOM      6  CA  GLY F   1      -0.390  32.898 -25.013  1.00 49.90 LIG 0.33  C 
BRANCH 6 7
ATOM      7  N   GLY F   1      -1.228  34.085 -25.355  1.00 49.95 LIG-0.07  N 
ATOM      8 H3   GLY F   1      -0.922  34.460 -26.101  1.00 49.95 LIG 0.27  HD
ATOM      9 H1   GLY F   1      -2.072  33.827 -25.477  1.00 49.95 LIG 0.27  HD
ATOM     10 H2   GLY F   1      -1.193  34.676 -24.690  1.00 49.95 LIG 0.27  HD
ENDBRANCH 6 7
ENDBRANCH 3 6
ENDBRANCH 1 2
BRANCH 1 11
ATOM     11  C   HIS F   2       0.407  32.734 -20.677  1.00 50.00 LIG 0.24  C 
ATOM     12 O    HIS F   2       1.094  33.335 -19.848  1.00 49.82 LIG-0.27  OA
ATOM     13  N   GLY F   3      -0.913  32.880 -20.775  1.00 50.02 LIG-0.35  N 
ATOM     14 H    GLY F   3      -1.401  32.445 -21.334  1.00 50.02 LIG 0.16  HD
BRANCH 13 15
ATOM     15  CA  GLY F   3      -1.654  33.806 -19.928  1.00 50.20 LIG 0.21  C 
BRANCH 15 16
ATOM     16  C   GLY F   3      -2.428  34.835 -20.728  1.00 50.42 LIG 0.21  C 
ATOM     17 O    GLY F   3      -2.338  34.874 -21.956  1.00 50.69 LIG-0.29  OA
ENDBRANCH 15 16
ENDBRANCH 13 15
ENDBRANCH 1 11
BRANCH 1 18
ATOM     18  CB  HIS F   2       2.545  32.051 -21.807  1.00 49.99 LIG 0.10  C 
BRANCH 18 19
ATOM     19  CG  HIS F   2       3.377  31.416 -20.735  1.00 50.63 LIG 0.06  A 
ATOM     20  CD2 HIS F   2       3.071  31.044 -19.468  1.00 51.31 LIG 0.14  A 
ATOM     21 NE2  HIS F   2       4.206  30.497 -18.920  1.00 51.32 LIG-0.25  NA
ATOM     22  CE1 HIS F   2       5.178  30.537 -19.815  1.00 50.87 LIG 0.23  A 
ATOM     23 ND1  HIS F   2       4.703  31.085 -20.920  1.00 50.82 LIG-0.24  NA
ENDBRANCH 18 19
ENDBRANCH 1 18
TORSDOF 8
ENDMDL
MODEL 103
USER: ADFR SOLUTION from run 159
USER: SCORE 7.631213 LL:  -1.489 LR:  -6.173 RR:   0.000 FEB:  -3.787
USER: RMSD 7.659528
USER: SEED 158
USER: STATUS no improvement in best in 17 clusters for 5 generations
USER: GENES 10
USER: genes 0 Translation |==|  0.57626 0.61411 0.11010
USER: genes 1 Rotation |==|  0.65077 0.68752 0.40601 0.92810
USER: genes 2 Torsion [C]-CA--N-[C] |==|  0.79010
USER: genes 3 Torsion [N]-C--CA-[N] |==|  0.80898
USER: genes 4 Torsion [C]-CA--N-[H3] |==|  0.94832
USER: genes 5 Torsion [N]-CA--C-[N] |==|  0.94172
USER: genes 6 Torsion [C]-N--CA-[C] |==|  0.70796
USER: genes 7 Torsion [N]-CA--C-[O] |==|  0.91286
USER: genes 8 Torsion [N]-CA--CB-[CG] |==|  0.31027
USER: genes 9 Torsion [CA]-CB--CG-[CD2] |==|  0.77366
ROOT
ATOM      1  CA  HIS F   2      -0.356  32.165 -25.498  1.00 49.99 LIG 0.18  C 
ENDROOT
BRANCH 1 2
ATOM      2  N   HIS F   2      -0.858  33.351 -26.194  1.00 49.83 LIG-0.35  N 
ATOM      3  C   GLY F   1      -2.152  33.658 -26.236  1.00 49.82 LIG 0.24  C 
ATOM      4 O    GLY F   1      -3.035  32.945 -25.750  1.00 49.53 LIG-0.27  OA
ATOM      5 H    HIS F   2      -0.245  33.825 -26.566  1.00 49.83 LIG 0.16  HD
BRANCH 3 6
ATOM      6  CA  GLY F   1      -2.504  34.960 -26.936  1.00 49.90 LIG 0.33  C 
BRANCH 6 7
ATOM      7  N   GLY F   1      -2.047  36.170 -26.192  1.00 49.95 LIG-0.07  N 
ATOM      8 H3   GLY F   1      -1.885  35.954 -25.344  1.00 49.95 LIG 0.27  HD
ATOM      9 H1   GLY F   1      -1.302  36.485 -26.565  1.00 49.95 LIG 0.27  HD
ATOM     10 H2   GLY F   1      -2.680  36.794 -26.222  1.00 49.95 LIG 0.27  HD
ENDBRANCH 6 7
ENDBRANCH 3 6
ENDBRANCH 1 2
BRANCH 1 11
ATOM     11  C   HIS F   2      -0.365  32.373 -23.985  1.00 50.00 LIG 0.24  C 
ATOM     12 O    HIS F   2      -0.346  31.410 -23.214  1.00 49.82 LIG-0.27  OA
ATOM     13  N   GLY F   3      -0.382  33.639 -23.572  1.00 50.02 LIG-0.35  N 
ATOM     14 H    GLY F   3      -0.421  34.314 -24.104  1.00 50.02 LIG 0.16  HD
BRANCH 13 15
ATOM     15  CA  GLY F   3      -0.338  33.992 -22.159  1.00 50.20 LIG 0.21  C 
BRANCH 15 16
ATOM     16  C   GLY F   3      -1.682  34.452 -21.630  1.00 50.42 LIG 0.21  C 
ATOM     17 O    GLY F   3      -2.477  35.040 -22.364  1.00 50.69 LIG-0.29  OA
ENDBRANCH 15 16
ENDBRANCH 13 15
ENDBRANCH 1 11
BRANCH 1 18
ATOM     18  CB  HIS F   2       1.049  31.806 -25.984  1.00 49.99 LIG 0.10  C 
BRANCH 18 19
ATOM     19  CG  HIS F   2       2.115  32.012 -24.952  1.00 50.63 LIG 0.06  A 
ATOM     20  CD2 HIS F   2       2.777  33.129 -24.561  1.00 51.31 LIG 0.14  A 
ATOM     21 NE2  HIS F   2       3.649  32.757 -23.565  1.00 51.32 LIG-0.25  NA
ATOM     22  CE1 HIS F   2       3.531  31.457 -23.356  1.00 50.87 LIG 0.23  A 
ATOM     23 ND1  HIS F   2       2.612  30.984 -24.178  1.00 50.82 LIG-0.24  NA
ENDBRANCH 18 19
ENDBRANCH 1 18
TORSDOF 8
ENDMDL
MODEL 104
USER: ADFR SOLUTION from run 136
USER: SCORE 7.481448 LL:  -1.317 LR:  -6.172 RR:   0.000 FEB:  -3.786
USER: RMSD 4.924207
USER: SEED 135
USER: STATUS no improvement in best in 25 clusters for 5 generations
USER: GENES 10
USER: genes 0 Translation |==|  0.49433 0.55831 0.44261
USER: genes 1 Rotation |==|  0.58261 0.66477 0.06243 0.65670
USER: genes 2 Torsion [C]-CA--N-[C] |==|  0.80556
USER: genes 3 Torsion [N]-C--CA-[N] |==|  0.37060
USER: genes 4 Torsion [C]-CA--N-[H3] |==|  0.97003
USER: genes 5 Torsion [N]-CA--C-[N] |==|  0.41596
USER: genes 6 Torsion [C]-N--CA-[C] |==|  0.40738
USER: genes 7 Torsion [N]-CA--C-[O] |==|  0.99421
USER: genes 8 Torsion [N]-CA--CB-[CG] |==|  0.54893
USER: genes 9 Torsion [CA]-CB--CG-[CD2] |==|  0.53037
ROOT
ATOM      1  CA  HIS F   2      -1.770  31.453 -20.012  1.00 49.99 LIG 0.18  C 
ENDROOT
BRANCH 1 2
ATOM      2  N   HIS F   2      -1.487  32.174 -21.254  1.00 49.83 LIG-0.35  N 
ATOM      3  C   GLY F   1      -1.009  33.417 -21.263  1.00 49.82 LIG 0.24  C 
ATOM      4 O    GLY F   1      -0.822  34.079 -20.239  1.00 49.53 LIG-0.27  OA
ATOM      5 H    HIS F   2      -1.657  31.725 -21.967  1.00 49.83 LIG 0.16  HD
BRANCH 3 6
ATOM      6  CA  GLY F   1      -0.701  33.999 -22.632  1.00 49.90 LIG 0.33  C 
BRANCH 6 7
ATOM      7  N   GLY F   1      -1.226  35.384 -22.815  1.00 49.95 LIG-0.07  N 
ATOM      8 H3   GLY F   1      -1.772  35.586 -22.142  1.00 49.95 LIG 0.27  HD
ATOM      9 H1   GLY F   1      -0.547  35.960 -22.829  1.00 49.95 LIG 0.27  HD
ATOM     10 H2   GLY F   1      -1.672  35.434 -23.583  1.00 49.95 LIG 0.27  HD
ENDBRANCH 6 7
ENDBRANCH 3 6
ENDBRANCH 1 2
BRANCH 1 11
ATOM     11  C   HIS F   2      -0.477  31.089 -19.284  1.00 50.00 LIG 0.24  C 
ATOM     12 O    HIS F   2       0.565  30.884 -19.911  1.00 49.82 LIG-0.27  OA
ATOM     13  N   GLY F   3      -0.556  31.023 -17.957  1.00 50.02 LIG-0.35  N 
ATOM     14 H    GLY F   3      -1.284  31.141 -17.515  1.00 50.02 LIG 0.16  HD
BRANCH 13 15
ATOM     15  CA  GLY F   3       0.608  30.741 -17.126  1.00 50.20 LIG 0.21  C 
BRANCH 15 16
ATOM     16  C   GLY F   3       0.556  31.455 -15.789  1.00 50.42 LIG 0.21  C 
ATOM     17 O    GLY F   3      -0.377  32.210 -15.516  1.00 50.69 LIG-0.29  OA
ENDBRANCH 15 16
ENDBRANCH 13 15
ENDBRANCH 1 11
BRANCH 1 18
ATOM     18  CB  HIS F   2      -2.601  30.200 -20.290  1.00 49.99 LIG 0.10  C 
BRANCH 18 19
ATOM     19  CG  HIS F   2      -3.279  29.643 -19.076  1.00 50.63 LIG 0.06  A 
ATOM     20  CD2 HIS F   2      -3.923  28.468 -18.872  1.00 51.31 LIG 0.14  A 
ATOM     21 NE2  HIS F   2      -4.349  28.460 -17.565  1.00 51.32 LIG-0.25  NA
ATOM     22  CE1 HIS F   2      -3.985  29.592 -16.988  1.00 50.87 LIG 0.23  A 
ATOM     23 ND1  HIS F   2      -3.336  30.323 -17.878  1.00 50.82 LIG-0.24  NA
ENDBRANCH 18 19
ENDBRANCH 1 18
TORSDOF 8
ENDMDL
MODEL 105
USER: ADFR SOLUTION from run 190
USER: SCORE 7.476555 LL:  -1.342 LR:  -6.156 RR:   0.000 FEB:  -3.770
USER: RMSD 5.521089
USER: SEED 189
USER: STATUS no improvement in best in 30 clusters for 5 generations
USER: GENES 10
USER: genes 0 Translation |==|  0.64028 0.56577 0.51352
USER: genes 1 Rotation |==|  0.86294 0.78854 0.59289 0.66245
USER: genes 2 Torsion [C]-CA--N-[C] |==|  0.80266
USER: genes 3 Torsion [N]-C--CA-[N] |==|  0.51848
USER: genes 4 Torsion [C]-CA--N-[H3] |==|  0.66935
USER: genes 5 Torsion [N]-CA--C-[N] |==|  0.97222
USER: genes 6 Torsion [C]-N--CA-[C] |==|  0.21178
USER: genes 7 Torsion [N]-CA--C-[O] |==|  0.83455
USER: genes 8 Torsion [N]-CA--CB-[CG] |==|  0.38226
USER: genes 9 Torsion [CA]-CB--CG-[CD2] |==|  0.23690
ROOT
ATOM      1  CA  HIS F   2       0.748  31.549 -18.842  1.00 49.99 LIG 0.18  C 
ENDROOT
BRANCH 1 2
ATOM      2  N   HIS F   2       0.108  31.954 -17.590  1.00 49.83 LIG-0.35  N 
ATOM      3  C   GLY F   1      -1.010  31.385 -17.144  1.00 49.82 LIG 0.24  C 
ATOM      4 O    GLY F   1      -1.627  30.519 -17.771  1.00 49.53 LIG-0.27  OA
ATOM      5 H    HIS F   2       0.518  32.585 -17.174  1.00 49.83 LIG 0.16  HD
BRANCH 3 6
ATOM      6  CA  GLY F   1      -1.508  31.868 -15.792  1.00 49.90 LIG 0.33  C 
BRANCH 6 7
ATOM      7  N   GLY F   1      -2.670  31.085 -15.279  1.00 49.95 LIG-0.07  N 
ATOM      8 H3   GLY F   1      -3.370  31.625 -15.177  1.00 49.95 LIG 0.27  HD
ATOM      9 H1   GLY F   1      -2.874  30.441 -15.859  1.00 49.95 LIG 0.27  HD
ATOM     10 H2   GLY F   1      -2.460  30.722 -14.494  1.00 49.95 LIG 0.27  HD
ENDBRANCH 6 7
ENDBRANCH 3 6
ENDBRANCH 1 2
BRANCH 1 11
ATOM     11  C   HIS F   2       1.386  30.167 -18.709  1.00 50.00 LIG 0.24  C 
ATOM     12 O    HIS F   2       1.823  29.575 -19.698  1.00 49.82 LIG-0.27  OA
ATOM     13  N   GLY F   3       1.444  29.670 -17.475  1.00 50.02 LIG-0.35  N 
ATOM     14 H    GLY F   3       1.120  30.067 -16.784  1.00 50.02 LIG 0.16  HD
BRANCH 13 15
ATOM     15  CA  GLY F   3       2.074  28.388 -17.186  1.00 50.20 LIG 0.21  C 
BRANCH 15 16
ATOM     16  C   GLY F   3       3.588  28.467 -17.196  1.00 50.42 LIG 0.21  C 
ATOM     17 O    GLY F   3       4.192  28.825 -18.208  1.00 50.69 LIG-0.29  OA
ENDBRANCH 15 16
ENDBRANCH 13 15
ENDBRANCH 1 11
BRANCH 1 18
ATOM     18  CB  HIS F   2       1.788  32.582 -19.278  1.00 49.99 LIG 0.10  C 
BRANCH 18 19
ATOM     19  CG  HIS F   2       3.060  31.979 -19.790  1.00 50.63 LIG 0.06  A 
ATOM     20  CD2 HIS F   2       3.406  31.532 -21.022  1.00 51.31 LIG 0.14  A 
ATOM     21 NE2  HIS F   2       4.703  31.085 -20.943  1.00 51.32 LIG-0.25  NA
ATOM     22  CE1 HIS F   2       5.138  31.245 -19.705  1.00 50.87 LIG 0.23  A 
ATOM     23 ND1  HIS F   2       4.167  31.785 -18.990  1.00 50.82 LIG-0.24  NA
ENDBRANCH 18 19
ENDBRANCH 1 18
TORSDOF 8
ENDMDL
MODEL 106
USER: ADFR SOLUTION from run 112
USER: SCORE 7.103591 LL:  -1.185 LR:  -6.164 RR:   0.000 FEB:  -3.778
USER: RMSD 6.302079
USER: SEED 111
USER: STATUS no improvement in best in 29 clusters for 5 generations
USER: GENES 10
USER: genes 0 Translation |==|  0.79988 0.55581 0.54740
USER: genes 1 Rotation |==|  0.98031 0.45472 0.38052 0.55459
USER: genes 2 Torsion [C]-CA--N-[C] |==|  0.14998
USER: genes 3 Torsion [N]-C--CA-[N] |==|  0.26869
USER: genes 4 Torsion [C]-CA--N-[H3] |==|  0.97858
USER: genes 5 Torsion [N]-CA--C-[N] |==|  0.16111
USER: genes 6 Torsion [C]-N--CA-[C] |==|  0.50850
USER: genes 7 Torsion [N]-CA--C-[O] |==|  0.94823
USER: genes 8 Torsion [N]-CA--CB-[CG] |==|  0.57190
USER: genes 9 Torsion [CA]-CB--CG-[CD2] |==|  0.93641
ROOT
ATOM      1  CA  HIS F   2       3.501  31.422 -18.283  1.00 49.99 LIG 0.18  C 
ENDROOT
BRANCH 1 2
ATOM      2  N   HIS F   2       4.213  31.301 -17.010  1.00 49.83 LIG-0.35  N 
ATOM      3  C   GLY F   1       4.314  30.145 -16.357  1.00 49.82 LIG 0.24  C 
ATOM      4 O    GLY F   1       3.772  29.103 -16.735  1.00 49.53 LIG-0.27  OA
ATOM      5 H    HIS F   2       4.555  32.038 -16.728  1.00 49.83 LIG 0.16  HD
BRANCH 3 6
ATOM      6  CA  GLY F   1       5.147  30.171 -15.086  1.00 49.90 LIG 0.33  C 
BRANCH 6 7
ATOM      7  N   GLY F   1       4.328  30.336 -13.849  1.00 49.95 LIG-0.07  N 
ATOM      8 H3   GLY F   1       3.483  30.504 -14.073  1.00 49.95 LIG 0.27  HD
ATOM      9 H1   GLY F   1       4.364  29.588 -13.368  1.00 49.95 LIG 0.27  HD
ATOM     10 H2   GLY F   1       4.647  31.013 -13.369  1.00 49.95 LIG 0.27  HD
ENDBRANCH 6 7
ENDBRANCH 3 6
ENDBRANCH 1 2
BRANCH 1 11
ATOM     11  C   HIS F   2       2.076  30.884 -18.166  1.00 50.00 LIG 0.24  C 
ATOM     12 O    HIS F   2       1.686  29.964 -18.888  1.00 49.82 LIG-0.27  OA
ATOM     13  N   GLY F   3       1.311  31.461 -17.242  1.00 50.02 LIG-0.35  N 
ATOM     14 H    GLY F   3       1.568  32.119 -16.752  1.00 50.02 LIG 0.16  HD
BRANCH 13 15
ATOM     15  CA  GLY F   3      -0.052  31.017 -16.978  1.00 50.20 LIG 0.21  C 
BRANCH 15 16
ATOM     16  C   GLY F   3      -0.751  31.869 -15.937  1.00 50.42 LIG 0.21  C 
ATOM     17 O    GLY F   3      -0.103  32.584 -15.172  1.00 50.69 LIG-0.29  OA
ENDBRANCH 15 16
ENDBRANCH 13 15
ENDBRANCH 1 11
BRANCH 1 18
ATOM     18  CB  HIS F   2       4.258  30.698 -19.398  1.00 49.99 LIG 0.10  C 
BRANCH 18 19
ATOM     19  CG  HIS F   2       3.986  31.244 -20.766  1.00 50.63 LIG 0.06  A 
ATOM     20  CD2 HIS F   2       2.938  31.953 -21.253  1.00 51.31 LIG 0.14  A 
ATOM     21 NE2  HIS F   2       3.203  32.209 -22.578  1.00 51.32 LIG-0.25  NA
ATOM     22  CE1 HIS F   2       4.368  31.672 -22.895  1.00 50.87 LIG 0.23  A 
ATOM     23 ND1  HIS F   2       4.862  31.085 -21.819  1.00 50.82 LIG-0.24  NA
ENDBRANCH 18 19
ENDBRANCH 1 18
TORSDOF 8
ENDMDL
MODEL 107
USER: ADFR SOLUTION from run 10
USER: SCORE 7.268694 LL:  -1.136 LR:  -6.154 RR:   0.000 FEB:  -3.767
USER: RMSD 5.116268
USER: SEED 368643
USER: STATUS no improvement in best in 15 clusters for 5 generations
USER: GENES 10
USER: genes 0 Translation |==|  0.68610 0.55867 0.58761
USER: genes 1 Rotation |==|  0.05855 0.48934 0.72641 0.56119
USER: genes 2 Torsion [C]-CA--N-[C] |==|  0.79598
USER: genes 3 Torsion [N]-C--CA-[N] |==|  0.51312
USER: genes 4 Torsion [C]-CA--N-[H3] |==|  0.00433
USER: genes 5 Torsion [N]-CA--C-[N] |==|  0.40000
USER: genes 6 Torsion [C]-N--CA-[C] |==|  0.38957
USER: genes 7 Torsion [N]-CA--C-[O] |==|  0.66081
USER: genes 8 Torsion [N]-CA--CB-[CG] |==|  0.93509
USER: genes 9 Torsion [CA]-CB--CG-[CD2] |==|  0.38032
ROOT
ATOM      1  CA  HIS F   2       1.538  31.458 -17.619  1.00 49.99 LIG 0.18  C 
ENDROOT
BRANCH 1 2
ATOM      2  N   HIS F   2       2.705  30.852 -16.977  1.00 49.83 LIG-0.35  N 
ATOM      3  C   GLY F   1       2.958  30.996 -15.678  1.00 49.82 LIG 0.24  C 
ATOM      4 O    GLY F   1       2.272  31.694 -14.927  1.00 49.53 LIG-0.27  OA
ATOM      5 H    HIS F   2       3.204  30.400 -17.511  1.00 49.83 LIG 0.16  HD
BRANCH 3 6
ATOM      6  CA  GLY F   1       4.169  30.245 -15.150  1.00 49.90 LIG 0.33  C 
BRANCH 6 7
ATOM      7  N   GLY F   1       4.333  30.358 -13.671  1.00 49.95 LIG-0.07  N 
ATOM      8 H3   GLY F   1       3.665  30.840 -13.334  1.00 49.95 LIG 0.27  HD
ATOM      9 H1   GLY F   1       4.324  29.545 -13.308  1.00 49.95 LIG 0.27  HD
ATOM     10 H2   GLY F   1       5.108  30.755 -13.487  1.00 49.95 LIG 0.27  HD
ENDBRANCH 6 7
ENDBRANCH 3 6
ENDBRANCH 1 2
BRANCH 1 11
ATOM     11  C   HIS F   2       0.257  30.720 -17.236  1.00 50.00 LIG 0.24  C 
ATOM     12 O    HIS F   2       0.257  29.497 -17.070  1.00 49.82 LIG-0.27  OA
ATOM     13  N   GLY F   3      -0.828  31.477 -17.086  1.00 50.02 LIG-0.35  N 
ATOM     14 H    GLY F   3      -0.840  32.326 -17.224  1.00 50.02 LIG 0.16  HD
BRANCH 13 15
ATOM     15  CA  GLY F   3      -2.108  30.920 -16.669  1.00 50.20 LIG 0.21  C 
BRANCH 15 16
ATOM     16  C   GLY F   3      -2.845  31.819 -15.696  1.00 50.42 LIG 0.21  C 
ATOM     17 O    GLY F   3      -3.169  31.406 -14.581  1.00 50.69 LIG-0.29  OA
ENDBRANCH 15 16
ENDBRANCH 13 15
ENDBRANCH 1 11
BRANCH 1 18
ATOM     18  CB  HIS F   2       1.709  31.484 -19.140  1.00 49.99 LIG 0.10  C 
BRANCH 18 19
ATOM     19  CG  HIS F   2       3.137  31.434 -19.588  1.00 50.63 LIG 0.06  A 
ATOM     20  CD2 HIS F   2       3.739  30.734 -20.581  1.00 51.31 LIG 0.14  A 
ATOM     21 NE2  HIS F   2       5.072  31.070 -20.564  1.00 51.32 LIG-0.25  NA
ATOM     22  CE1 HIS F   2       5.283  31.940 -19.592  1.00 50.87 LIG 0.23  A 
ATOM     23 ND1  HIS F   2       4.132  32.178 -18.989  1.00 50.82 LIG-0.24  NA
ENDBRANCH 18 19
ENDBRANCH 1 18
TORSDOF 8
ENDMDL
MODEL 108
USER: ADFR SOLUTION from run 44
USER: SCORE 7.408779 LL:  -1.301 LR:  -6.142 RR:   0.000 FEB:  -3.756
USER: RMSD 7.396538
USER: SEED 43
USER: STATUS no improvement in best in 34 clusters for 5 generations
USER: GENES 10
USER: genes 0 Translation |==|  0.64971 0.63890 0.17364
USER: genes 1 Rotation |==|  0.74406 0.53286 0.77949 0.83353
USER: genes 2 Torsion [C]-CA--N-[C] |==|  0.84290
USER: genes 3 Torsion [N]-C--CA-[N] |==|  0.17397
USER: genes 4 Torsion [C]-CA--N-[H3] |==|  0.43136
USER: genes 5 Torsion [N]-CA--C-[N] |==|  0.90739
USER: genes 6 Torsion [C]-N--CA-[C] |==|  0.80598
USER: genes 7 Torsion [N]-CA--C-[O] |==|  0.98270
USER: genes 8 Torsion [N]-CA--CB-[CG] |==|  0.51022
USER: genes 9 Torsion [CA]-CB--CG-[CD2] |==|  0.68831
ROOT
ATOM      1  CA  HIS F   2       0.910  32.481 -24.450  1.00 49.99 LIG 0.18  C 
ENDROOT
BRANCH 1 2
ATOM      2  N   HIS F   2      -0.195  33.335 -24.886  1.00 49.83 LIG-0.35  N 
ATOM      3  C   GLY F   1      -0.979  33.017 -25.914  1.00 49.82 LIG 0.24  C 
ATOM      4 O    GLY F   1      -0.804  32.016 -26.615  1.00 49.53 LIG-0.27  OA
ATOM      5 H    HIS F   2      -0.289  34.052 -24.421  1.00 49.83 LIG 0.16  HD
BRANCH 3 6
ATOM      6  CA  GLY F   1      -2.126  33.972 -26.195  1.00 49.90 LIG 0.33  C 
BRANCH 6 7
ATOM      7  N   GLY F   1      -1.672  35.345 -26.565  1.00 49.95 LIG-0.07  N 
ATOM      8 H3   GLY F   1      -2.302  35.746 -27.049  1.00 49.95 LIG 0.27  HD
ATOM      9 H1   GLY F   1      -1.521  35.817 -25.825  1.00 49.95 LIG 0.27  HD
ATOM     10 H2   GLY F   1      -0.922  35.292 -27.041  1.00 49.95 LIG 0.27  HD
ENDBRANCH 6 7
ENDBRANCH 3 6
ENDBRANCH 1 2
BRANCH 1 11
ATOM     11  C   HIS F   2       0.417  31.074 -24.119  1.00 50.00 LIG 0.24  C 
ATOM     12 O    HIS F   2       1.135  30.090 -24.315  1.00 49.82 LIG-0.27  OA
ATOM     13  N   GLY F   3      -0.808  30.993 -23.605  1.00 50.02 LIG-0.35  N 
ATOM     14 H    GLY F   3      -1.323  31.672 -23.489  1.00 50.02 LIG 0.16  HD
BRANCH 13 15
ATOM     15  CA  GLY F   3      -1.391  29.723 -23.190  1.00 50.20 LIG 0.21  C 
BRANCH 15 16
ATOM     16  C   GLY F   3      -1.715  28.819 -24.363  1.00 50.42 LIG 0.21  C 
ATOM     17 O    GLY F   3      -1.592  29.223 -25.520  1.00 50.69 LIG-0.29  OA
ENDBRANCH 15 16
ENDBRANCH 13 15
ENDBRANCH 1 11
BRANCH 1 18
ATOM     18  CB  HIS F   2       1.629  33.096 -23.247  1.00 49.99 LIG 0.10  C 
BRANCH 18 19
ATOM     19  CG  HIS F   2       2.828  32.319 -22.798  1.00 50.63 LIG 0.06  A 
ATOM     20  CD2 HIS F   2       3.062  31.609 -21.668  1.00 51.31 LIG 0.14  A 
ATOM     21 NE2  HIS F   2       4.329  31.085 -21.771  1.00 51.32 LIG-0.25  NA
ATOM     22  CE1 HIS F   2       4.857  31.466 -22.921  1.00 50.87 LIG 0.23  A 
ATOM     23 ND1  HIS F   2       3.972  32.210 -23.561  1.00 50.82 LIG-0.24  NA
ENDBRANCH 18 19
ENDBRANCH 1 18
TORSDOF 8
ENDMDL
MODEL 109
USER: ADFR SOLUTION from run 75
USER: SCORE 7.327625 LL:  -1.212 LR:  -6.137 RR:   0.000 FEB:  -3.751
USER: RMSD 6.903613
USER: SEED 74
USER: STATUS no improvement in best in 22 clusters for 5 generations
USER: GENES 10
USER: genes 0 Translation |==|  0.60878 0.59558 0.49464
USER: genes 1 Rotation |==|  0.21758 0.09084 0.45629 0.53028
USER: genes 2 Torsion [C]-CA--N-[C] |==|  0.81839
USER: genes 3 Torsion [N]-C--CA-[N] |==|  0.91520
USER: genes 4 Torsion [C]-CA--N-[H3] |==|  0.93012
USER: genes 5 Torsion [N]-CA--C-[N] |==|  0.91111
USER: genes 6 Torsion [C]-N--CA-[C] |==|  0.17792
USER: genes 7 Torsion [N]-CA--C-[O] |==|  0.42969
USER: genes 8 Torsion [N]-CA--CB-[CG] |==|  0.42014
USER: genes 9 Torsion [CA]-CB--CG-[CD2] |==|  0.29440
ROOT
ATOM      1  CA  HIS F   2       0.204  31.929 -19.153  1.00 49.99 LIG 0.18  C 
ENDROOT
BRANCH 1 2
ATOM      2  N   HIS F   2       0.502  31.830 -17.724  1.00 49.83 LIG-0.35  N 
ATOM      3  C   GLY F   1       0.526  30.665 -17.080  1.00 49.82 LIG 0.24  C 
ATOM      4 O    GLY F   1       0.245  29.589 -17.615  1.00 49.53 LIG-0.27  OA
ATOM      5 H    HIS F   2       0.658  32.586 -17.345  1.00 49.83 LIG 0.16  HD
BRANCH 3 6
ATOM      6  CA  GLY F   1       0.923  30.724 -15.615  1.00 49.90 LIG 0.33  C 
BRANCH 6 7
ATOM      7  N   GLY F   1       1.871  31.835 -15.305  1.00 49.95 LIG-0.07  N 
ATOM      8 H3   GLY F   1       2.326  32.049 -16.039  1.00 49.95 LIG 0.27  HD
ATOM      9 H1   GLY F   1       1.414  32.545 -15.022  1.00 49.95 LIG 0.27  HD
ATOM     10 H2   GLY F   1       2.437  31.574 -14.671  1.00 49.95 LIG 0.27  HD
ENDBRANCH 6 7
ENDBRANCH 3 6
ENDBRANCH 1 2
BRANCH 1 11
ATOM     11  C   HIS F   2       1.291  31.251 -19.987  1.00 50.00 LIG 0.24  C 
ATOM     12 O    HIS F   2       1.019  30.713 -21.063  1.00 49.82 LIG-0.27  OA
ATOM     13  N   GLY F   3       2.522  31.295 -19.483  1.00 50.02 LIG-0.35  N 
ATOM     14 H    GLY F   3       2.715  31.647 -18.722  1.00 50.02 LIG 0.16  HD
BRANCH 13 15
ATOM     15  CA  GLY F   3       3.668  30.740 -20.192  1.00 50.20 LIG 0.21  C 
BRANCH 15 16
ATOM     16  C   GLY F   3       3.950  31.459 -21.497  1.00 50.42 LIG 0.21  C 
ATOM     17 O    GLY F   3       5.083  31.460 -21.981  1.00 50.69 LIG-0.29  OA
ENDBRANCH 15 16
ENDBRANCH 13 15
ENDBRANCH 1 11
BRANCH 1 18
ATOM     18  CB  HIS F   2       0.038  33.391 -19.573  1.00 49.99 LIG 0.10  C 
BRANCH 18 19
ATOM     19  CG  HIS F   2       0.405  33.655 -21.000  1.00 50.63 LIG 0.06  A 
ATOM     20  CD2 HIS F   2      -0.362  33.901 -22.090  1.00 51.31 LIG 0.14  A 
ATOM     21 NE2  HIS F   2       0.489  34.085 -23.154  1.00 51.32 LIG-0.25  NA
ATOM     22  CE1 HIS F   2       1.735  33.950 -22.734  1.00 50.87 LIG 0.23  A 
ATOM     23 ND1  HIS F   2       1.712  33.692 -21.438  1.00 50.82 LIG-0.24  NA
ENDBRANCH 18 19
ENDBRANCH 1 18
TORSDOF 8
ENDMDL
MODEL 110
USER: ADFR SOLUTION from run 95
USER: SCORE 7.246676 LL:  -1.195 LR:  -6.120 RR:   0.000 FEB:  -3.733
USER: RMSD 5.428671
USER: SEED 94
USER: STATUS no improvement in best in 24 clusters for 5 generations
USER: GENES 10
USER: genes 0 Translation |==|  0.52176 0.49906 0.56734
USER: genes 1 Rotation |==|  0.57060 0.53722 0.01009 0.56014
USER: genes 2 Torsion [C]-CA--N-[C] |==|  0.78360
USER: genes 3 Torsion [N]-C--CA-[N] |==|  0.05221
USER: genes 4 Torsion [C]-CA--N-[H3] |==|  0.98031
USER: genes 5 Torsion [N]-CA--C-[N] |==|  0.91688
USER: genes 6 Torsion [C]-N--CA-[C] |==|  0.64279
USER: genes 7 Torsion [N]-CA--C-[O] |==|  0.94524
USER: genes 8 Torsion [N]-CA--CB-[CG] |==|  0.58205
USER: genes 9 Torsion [CA]-CB--CG-[CD2] |==|  0.02341
ROOT
ATOM      1  CA  HIS F   2      -1.297  30.698 -17.954  1.00 49.99 LIG 0.18  C 
ENDROOT
BRANCH 1 2
ATOM      2  N   HIS F   2      -0.921  30.597 -19.365  1.00 49.83 LIG-0.35  N 
ATOM      3  C   GLY F   1      -0.069  31.445 -19.937  1.00 49.82 LIG 0.24  C 
ATOM      4 O    GLY F   1       0.424  32.412 -19.349  1.00 49.53 LIG-0.27  OA
ATOM      5 H    HIS F   2      -1.297  29.947 -19.783  1.00 49.83 LIG 0.16  HD
BRANCH 3 6
ATOM      6  CA  GLY F   1       0.274  31.163 -21.390  1.00 49.90 LIG 0.33  C 
BRANCH 6 7
ATOM      7  N   GLY F   1      -0.713  30.270 -22.065  1.00 49.95 LIG-0.07  N 
ATOM      8 H3   GLY F   1      -1.296  29.964 -21.465  1.00 49.95 LIG 0.27  HD
ATOM      9 H1   GLY F   1      -1.148  30.728 -22.693  1.00 49.95 LIG 0.27  HD
ATOM     10 H2   GLY F   1      -0.287  29.585 -22.440  1.00 49.95 LIG 0.27  HD
ENDBRANCH 6 7
ENDBRANCH 3 6
ENDBRANCH 1 2
BRANCH 1 11
ATOM     11  C   HIS F   2      -0.197  30.138 -17.053  1.00 50.00 LIG 0.24  C 
ATOM     12 O    HIS F   2      -0.032  30.575 -15.911  1.00 49.82 LIG-0.27  OA
ATOM     13  N   GLY F   3       0.542  29.162 -17.576  1.00 50.02 LIG-0.35  N 
ATOM     14 H    GLY F   3       0.448  28.870 -18.379  1.00 50.02 LIG 0.16  HD
BRANCH 13 15
ATOM     15  CA  GLY F   3       1.590  28.494 -16.816  1.00 50.20 LIG 0.21  C 
BRANCH 15 16
ATOM     16  C   GLY F   3       2.914  28.460 -17.554  1.00 50.42 LIG 0.21  C 
ATOM     17 O    GLY F   3       2.956  28.620 -18.775  1.00 50.69 LIG-0.29  OA
ENDBRANCH 15 16
ENDBRANCH 13 15
ENDBRANCH 1 11
BRANCH 1 18
ATOM     18  CB  HIS F   2      -2.622  29.980 -17.694  1.00 49.99 LIG 0.10  C 
BRANCH 18 19
ATOM     19  CG  HIS F   2      -3.417  30.568 -16.569  1.00 50.63 LIG 0.06  A 
ATOM     20  CD2 HIS F   2      -3.242  31.702 -15.847  1.00 51.31 LIG 0.14  A 
ATOM     21 NE2  HIS F   2      -4.272  31.769 -14.940  1.00 51.32 LIG-0.25  NA
ATOM     22  CE1 HIS F   2      -5.049  30.711 -15.094  1.00 50.87 LIG 0.23  A 
ATOM     23 ND1  HIS F   2      -4.557  29.972 -16.071  1.00 50.82 LIG-0.24  NA
ENDBRANCH 18 19
ENDBRANCH 1 18
TORSDOF 8
ENDMDL
MODEL 111
USER: ADFR SOLUTION from run 115
USER: SCORE 7.344816 LL:  -1.296 LR:  -6.120 RR:   0.000 FEB:  -3.734
USER: RMSD 2.595357
USER: SEED 114
USER: STATUS no improvement in best in 25 clusters for 5 generations
USER: GENES 10
USER: genes 0 Translation |==|  0.49239 0.43918 0.59800
USER: genes 1 Rotation |==|  0.35761 0.58829 0.51026 0.97098
USER: genes 2 Torsion [C]-CA--N-[C] |==|  0.83139
USER: genes 3 Torsion [N]-C--CA-[N] |==|  0.96727
USER: genes 4 Torsion [C]-CA--N-[H3] |==|  0.01973
USER: genes 5 Torsion [N]-CA--C-[N] |==|  0.34471
USER: genes 6 Torsion [C]-N--CA-[C] |==|  0.31817
USER: genes 7 Torsion [N]-CA--C-[O] |==|  0.17081
USER: genes 8 Torsion [N]-CA--CB-[CG] |==|  0.15824
USER: genes 9 Torsion [CA]-CB--CG-[CD2] |==|  0.28279
ROOT
ATOM      1  CA  HIS F   2      -1.803  29.935 -17.448  1.00 49.99 LIG 0.18  C 
ENDROOT
BRANCH 1 2
ATOM      2  N   HIS F   2      -2.226  29.452 -18.763  1.00 49.83 LIG-0.35  N 
ATOM      3  C   GLY F   1      -3.390  28.835 -18.955  1.00 49.82 LIG 0.24  C 
ATOM      4 O    GLY F   1      -4.175  28.568 -18.041  1.00 49.53 LIG-0.27  OA
ATOM      5 H    HIS F   2      -1.658  29.603 -19.391  1.00 49.83 LIG 0.16  HD
BRANCH 3 6
ATOM      6  CA  GLY F   1      -3.713  28.459 -20.392  1.00 49.90 LIG 0.33  C 
BRANCH 6 7
ATOM      7  N   GLY F   1      -2.797  29.092 -21.386  1.00 49.95 LIG-0.07  N 
ATOM      8 H3   GLY F   1      -2.139  29.512 -20.959  1.00 49.95 LIG 0.27  HD
ATOM      9 H1   GLY F   1      -2.453  28.464 -21.915  1.00 49.95 LIG 0.27  HD
ATOM     10 H2   GLY F   1      -3.251  29.677 -21.879  1.00 49.95 LIG 0.27  HD
ENDBRANCH 6 7
ENDBRANCH 3 6
ENDBRANCH 1 2
BRANCH 1 11
ATOM     11  C   HIS F   2      -2.783  30.974 -16.906  1.00 50.00 LIG 0.24  C 
ATOM     12 O    HIS F   2      -3.062  31.982 -17.560  1.00 49.82 LIG-0.27  OA
ATOM     13  N   GLY F   3      -3.308  30.710 -15.711  1.00 50.02 LIG-0.35  N 
ATOM     14 H    GLY F   3      -3.100  30.022 -15.239  1.00 50.02 LIG 0.16  HD
BRANCH 13 15
ATOM     15  CA  GLY F   3      -4.298  31.582 -15.092  1.00 50.20 LIG 0.21  C 
BRANCH 15 16
ATOM     16  C   GLY F   3      -5.650  30.913 -14.940  1.00 50.42 LIG 0.21  C 
ATOM     17 O    GLY F   3      -5.776  29.901 -14.249  1.00 50.69 LIG-0.29  OA
ENDBRANCH 15 16
ENDBRANCH 13 15
ENDBRANCH 1 11
BRANCH 1 18
ATOM     18  CB  HIS F   2      -0.388  30.512 -17.512  1.00 49.99 LIG 0.10  C 
BRANCH 18 19
ATOM     19  CG  HIS F   2      -0.232  31.620 -18.507  1.00 50.63 LIG 0.06  A 
ATOM     20  CD2 HIS F   2      -0.178  32.965 -18.348  1.00 51.31 LIG 0.14  A 
ATOM     21 NE2  HIS F   2      -0.014  33.516 -19.597  1.00 51.32 LIG-0.25  NA
ATOM     22  CE1 HIS F   2       0.023  32.545 -20.493  1.00 50.87 LIG 0.23  A 
ATOM     23 ND1  HIS F   2      -0.104  31.391 -19.861  1.00 50.82 LIG-0.24  NA
ENDBRANCH 18 19
ENDBRANCH 1 18
TORSDOF 8
ENDMDL
MODEL 112
USER: ADFR SOLUTION from run 89
USER: SCORE 7.063244 LL:  -1.060 LR:  -6.106 RR:   0.000 FEB:  -3.720
USER: RMSD 7.933219
USER: SEED 88
USER: STATUS no improvement in best in 47 clusters for 5 generations
USER: GENES 10
USER: genes 0 Translation |==|  0.73928 0.61394 0.33524
USER: genes 1 Rotation |==|  0.68402 0.89954 0.49525 0.73765
USER: genes 2 Torsion [C]-CA--N-[C] |==|  0.68889
USER: genes 3 Torsion [N]-C--CA-[N] |==|  0.82030
USER: genes 4 Torsion [C]-CA--N-[H3] |==|  0.98321
USER: genes 5 Torsion [N]-CA--C-[N] |==|  0.00068
USER: genes 6 Torsion [C]-N--CA-[C] |==|  0.23335
USER: genes 7 Torsion [N]-CA--C-[O] |==|  0.79122
USER: genes 8 Torsion [N]-CA--CB-[CG] |==|  0.49459
USER: genes 9 Torsion [CA]-CB--CG-[CD2] |==|  0.23733
ROOT
ATOM      1  CA  HIS F   2       2.456  32.163 -21.783  1.00 49.99 LIG 0.18  C 
ENDROOT
BRANCH 1 2
ATOM      2  N   HIS F   2       1.574  32.987 -20.956  1.00 49.83 LIG-0.35  N 
ATOM      3  C   GLY F   1       0.389  32.555 -20.529  1.00 49.82 LIG 0.24  C 
ATOM      4 O    GLY F   1      -0.086  31.459 -20.840  1.00 49.53 LIG-0.27  OA
ATOM      5 H    HIS F   2       1.890  33.765 -20.774  1.00 49.83 LIG 0.16  HD
BRANCH 3 6
ATOM      6  CA  GLY F   1      -0.374  33.503 -19.619  1.00 49.90 LIG 0.33  C 
BRANCH 6 7
ATOM      7  N   GLY F   1       0.310  33.747 -18.315  1.00 49.95 LIG-0.07  N 
ATOM      8 H3   GLY F   1       1.024  33.219 -18.251  1.00 49.95 LIG 0.27  HD
ATOM      9 H1   GLY F   1       0.566  34.598 -18.269  1.00 49.95 LIG 0.27  HD
ATOM     10 H2   GLY F   1      -0.250  33.569 -17.647  1.00 49.95 LIG 0.27  HD
ENDBRANCH 6 7
ENDBRANCH 3 6
ENDBRANCH 1 2
BRANCH 1 11
ATOM     11  C   HIS F   2       3.714  31.765 -21.014  1.00 50.00 LIG 0.24  C 
ATOM     12 O    HIS F   2       4.590  31.080 -21.547  1.00 49.82 LIG-0.27  OA
ATOM     13  N   GLY F   3       3.797  32.212 -19.763  1.00 50.02 LIG-0.35  N 
ATOM     14 H    GLY F   3       3.179  32.669 -19.378  1.00 50.02 LIG 0.16  HD
BRANCH 13 15
ATOM     15  CA  GLY F   3       4.963  31.958 -18.926  1.00 50.20 LIG 0.21  C 
BRANCH 15 16
ATOM     16  C   GLY F   3       6.076  32.960 -19.160  1.00 50.42 LIG 0.21  C 
ATOM     17 O    GLY F   3       6.776  32.896 -20.171  1.00 50.69 LIG-0.29  OA
ENDBRANCH 15 16
ENDBRANCH 13 15
ENDBRANCH 1 11
BRANCH 1 18
ATOM     18  CB  HIS F   2       2.824  32.893 -23.076  1.00 49.99 LIG 0.10  C 
BRANCH 18 19
ATOM     19  CG  HIS F   2       3.764  32.128 -23.955  1.00 50.63 LIG 0.06  A 
ATOM     20  CD2 HIS F   2       3.536  31.179 -24.896  1.00 51.31 LIG 0.14  A 
ATOM     21 NE2  HIS F   2       4.758  30.816 -25.412  1.00 51.32 LIG-0.25  NA
ATOM     22  CE1 HIS F   2       5.703  31.513 -24.805  1.00 50.87 LIG 0.23  A 
ATOM     23 ND1  HIS F   2       5.130  32.313 -23.924  1.00 50.82 LIG-0.24  NA
ENDBRANCH 18 19
ENDBRANCH 1 18
TORSDOF 8
ENDMDL
MODEL 113
USER: ADFR SOLUTION from run 190
USER: SCORE 7.461041 LL:  -1.410 LR:  -6.103 RR:   0.000 FEB:  -3.716
USER: RMSD 5.375382
USER: SEED 189
USER: STATUS no improvement in best in 30 clusters for 5 generations
USER: GENES 10
USER: genes 0 Translation |==|  0.52546 0.69396 0.39759
USER: genes 1 Rotation |==|  0.47221 0.40643 0.49007 0.99028
USER: genes 2 Torsion [C]-CA--N-[C] |==|  0.82876
USER: genes 3 Torsion [N]-C--CA-[N] |==|  0.64683
USER: genes 4 Torsion [C]-CA--N-[H3] |==|  0.48100
USER: genes 5 Torsion [N]-CA--C-[N] |==|  0.88785
USER: genes 6 Torsion [C]-N--CA-[C] |==|  0.62886
USER: genes 7 Torsion [N]-CA--C-[O] |==|  0.96671
USER: genes 8 Torsion [N]-CA--CB-[CG] |==|  0.59137
USER: genes 9 Torsion [CA]-CB--CG-[CD2] |==|  0.83496
ROOT
ATOM      1  CA  HIS F   2      -1.233  33.183 -20.755  1.00 49.99 LIG 0.18  C 
ENDROOT
BRANCH 1 2
ATOM      2  N   HIS F   2      -0.614  33.365 -22.068  1.00 49.83 LIG-0.35  N 
ATOM      3  C   GLY F   1      -1.225  33.015 -23.198  1.00 49.82 LIG 0.24  C 
ATOM      4 O    GLY F   1      -2.326  32.460 -23.230  1.00 49.53 LIG-0.27  OA
ATOM      5 H    HIS F   2       0.171  33.714 -22.041  1.00 49.83 LIG 0.16  HD
BRANCH 3 6
ATOM      6  CA  GLY F   1      -0.479  33.335 -24.483  1.00 49.90 LIG 0.33  C 
BRANCH 6 7
ATOM      7  N   GLY F   1      -1.297  34.110 -25.461  1.00 49.95 LIG-0.07  N 
ATOM      8 H3   GLY F   1      -0.786  34.355 -26.148  1.00 49.95 LIG 0.27  HD
ATOM      9 H1   GLY F   1      -1.967  33.603 -25.756  1.00 49.95 LIG 0.27  HD
ATOM     10 H2   GLY F   1      -1.627  34.835 -25.065  1.00 49.95 LIG 0.27  HD
ENDBRANCH 6 7
ENDBRANCH 3 6
ENDBRANCH 1 2
BRANCH 1 11
ATOM     11  C   HIS F   2      -2.521  33.996 -20.640  1.00 50.00 LIG 0.24  C 
ATOM     12 O    HIS F   2      -3.513  33.532 -20.073  1.00 49.82 LIG-0.27  OA
ATOM     13  N   GLY F   3      -2.488  35.216 -21.172  1.00 50.02 LIG-0.35  N 
ATOM     14 H    GLY F   3      -1.808  35.536 -21.590  1.00 50.02 LIG 0.16  HD
BRANCH 13 15
ATOM     15  CA  GLY F   3      -3.623  36.126 -21.091  1.00 50.20 LIG 0.21  C 
BRANCH 15 16
ATOM     16  C   GLY F   3      -3.938  36.785 -22.419  1.00 50.42 LIG 0.21  C 
ATOM     17 O    GLY F   3      -3.148  36.710 -23.360  1.00 50.69 LIG-0.29  OA
ENDBRANCH 15 16
ENDBRANCH 13 15
ENDBRANCH 1 11
BRANCH 1 18
ATOM     18  CB  HIS F   2      -0.257  33.561 -19.639  1.00 49.99 LIG 0.10  C 
BRANCH 18 19
ATOM     19  CG  HIS F   2      -0.422  32.748 -18.392  1.00 50.63 LIG 0.06  A 
ATOM     20  CD2 HIS F   2      -1.483  32.585 -17.564  1.00 51.31 LIG 0.14  A 
ATOM     21 NE2  HIS F   2      -1.095  31.718 -16.571  1.00 51.32 LIG-0.25  NA
ATOM     22  CE1 HIS F   2       0.163  31.366 -16.776  1.00 50.87 LIG 0.23  A 
ATOM     23 ND1  HIS F   2       0.591  31.972 -17.869  1.00 50.82 LIG-0.24  NA
ENDBRANCH 18 19
ENDBRANCH 1 18
TORSDOF 8
ENDMDL
MODEL 114
USER: ADFR SOLUTION from run 181
USER: SCORE 7.526943 LL:  -1.504 LR:  -6.102 RR:   0.000 FEB:  -3.716
USER: RMSD 5.024151
USER: SEED 180
USER: STATUS no improvement in best in 28 clusters for 5 generations
USER: GENES 10
USER: genes 0 Translation |==|  0.42450 0.72832 0.53159
USER: genes 1 Rotation |==|  0.52119 0.39444 0.96000 0.66374
USER: genes 2 Torsion [C]-CA--N-[C] |==|  0.80039
USER: genes 3 Torsion [N]-C--CA-[N] |==|  0.38290
USER: genes 4 Torsion [C]-CA--N-[H3] |==|  0.73770
USER: genes 5 Torsion [N]-CA--C-[N] |==|  0.88333
USER: genes 6 Torsion [C]-N--CA-[C] |==|  0.18806
USER: genes 7 Torsion [N]-CA--C-[O] |==|  0.31811
USER: genes 8 Torsion [N]-CA--CB-[CG] |==|  0.38093
USER: genes 9 Torsion [CA]-CB--CG-[CD2] |==|  0.68544
ROOT
ATOM      1  CA  HIS F   2      -2.974  33.621 -18.544  1.00 49.99 LIG 0.18  C 
ENDROOT
BRANCH 1 2
ATOM      2  N   HIS F   2      -3.175  34.018 -19.938  1.00 49.83 LIG-0.35  N 
ATOM      3  C   GLY F   1      -2.160  34.183 -20.784  1.00 49.82 LIG 0.24  C 
ATOM      4 O    GLY F   1      -0.977  34.075 -20.453  1.00 49.53 LIG-0.27  OA
ATOM      5 H    HIS F   2      -3.998  34.132 -20.156  1.00 49.83 LIG 0.16  HD
BRANCH 3 6
ATOM      6  CA  GLY F   1      -2.539  34.526 -22.215  1.00 49.90 LIG 0.33  C 
BRANCH 6 7
ATOM      7  N   GLY F   1      -1.674  35.584 -22.816  1.00 49.95 LIG-0.07  N 
ATOM      8 H3   GLY F   1      -2.061  36.379 -22.711  1.00 49.95 LIG 0.27  HD
ATOM      9 H1   GLY F   1      -0.881  35.585 -22.411  1.00 49.95 LIG 0.27  HD
ATOM     10 H2   GLY F   1      -1.564  35.421 -23.683  1.00 49.95 LIG 0.27  HD
ENDBRANCH 6 7
ENDBRANCH 3 6
ENDBRANCH 1 2
BRANCH 1 11
ATOM     11  C   HIS F   2      -2.547  32.158 -18.447  1.00 50.00 LIG 0.24  C 
ATOM     12 O    HIS F   2      -1.666  31.807 -17.658  1.00 49.82 LIG-0.27  OA
ATOM     13  N   GLY F   3      -3.188  31.310 -19.249  1.00 50.02 LIG-0.35  N 
ATOM     14 H    GLY F   3      -3.785  31.551 -19.819  1.00 50.02 LIG 0.16  HD
BRANCH 13 15
ATOM     15  CA  GLY F   3      -2.926  29.877 -19.229  1.00 50.20 LIG 0.21  C 
BRANCH 15 16
ATOM     16  C   GLY F   3      -3.379  29.220 -17.940  1.00 50.42 LIG 0.21  C 
ATOM     17 O    GLY F   3      -4.293  28.395 -17.943  1.00 50.69 LIG-0.29  OA
ENDBRANCH 15 16
ENDBRANCH 13 15
ENDBRANCH 1 11
BRANCH 1 18
ATOM     18  CB  HIS F   2      -4.242  33.866 -17.723  1.00 49.99 LIG 0.10  C 
BRANCH 18 19
ATOM     19  CG  HIS F   2      -4.577  32.750 -16.782  1.00 50.63 LIG 0.06  A 
ATOM     20  CD2 HIS F   2      -5.614  31.876 -16.764  1.00 51.31 LIG 0.14  A 
ATOM     21 NE2  HIS F   2      -5.428  31.049 -15.682  1.00 51.32 LIG-0.25  NA
ATOM     22  CE1 HIS F   2      -4.321  31.406 -15.054  1.00 50.87 LIG 0.23  A 
ATOM     23 ND1  HIS F   2      -3.788  32.428 -15.698  1.00 50.82 LIG-0.24  NA
ENDBRANCH 18 19
ENDBRANCH 1 18
TORSDOF 8
ENDMDL
MODEL 115
USER: ADFR SOLUTION from run 177
USER: SCORE 7.134629 LL:  -1.089 LR:  -6.095 RR:   0.000 FEB:  -3.709
USER: RMSD 4.903944
USER: SEED 176
USER: STATUS no improvement in best in 39 clusters for 5 generations
USER: GENES 10
USER: genes 0 Translation |==|  0.37472 0.61813 0.69700
USER: genes 1 Rotation |==|  0.11254 0.75903 0.42654 0.66547
USER: genes 2 Torsion [C]-CA--N-[C] |==|  0.15050
USER: genes 3 Torsion [N]-C--CA-[N] |==|  0.31326
USER: genes 4 Torsion [C]-CA--N-[H3] |==|  0.85827
USER: genes 5 Torsion [N]-CA--C-[N] |==|  0.10621
USER: genes 6 Torsion [C]-N--CA-[C] |==|  0.52458
USER: genes 7 Torsion [N]-CA--C-[O] |==|  0.20602
USER: genes 8 Torsion [N]-CA--CB-[CG] |==|  0.66111
USER: genes 9 Torsion [CA]-CB--CG-[CD2] |==|  0.47403
ROOT
ATOM      1  CA  HIS F   2      -3.833  32.216 -15.814  1.00 49.99 LIG 0.18  C 
ENDROOT
BRANCH 1 2
ATOM      2  N   HIS F   2      -4.853  31.541 -15.012  1.00 49.83 LIG-0.35  N 
ATOM      3  C   GLY F   1      -5.955  31.022 -15.550  1.00 49.82 LIG 0.24  C 
ATOM      4 O    GLY F   1      -6.234  31.118 -16.748  1.00 49.53 LIG-0.27  OA
ATOM      5 H    HIS F   2      -4.676  31.511 -14.171  1.00 49.83 LIG 0.16  HD
BRANCH 3 6
ATOM      6  CA  GLY F   1      -6.881  30.291 -14.592  1.00 49.90 LIG 0.33  C 
BRANCH 6 7
ATOM      7  N   GLY F   1      -8.190  30.981 -14.396  1.00 49.95 LIG-0.07  N 
ATOM      8 H3   GLY F   1      -8.047  31.835 -14.190  1.00 49.95 LIG 0.27  HD
ATOM      9 H1   GLY F   1      -8.666  30.933 -15.147  1.00 49.95 LIG 0.27  HD
ATOM     10 H2   GLY F   1      -8.637  30.588 -13.736  1.00 49.95 LIG 0.27  HD
ENDBRANCH 6 7
ENDBRANCH 3 6
ENDBRANCH 1 2
BRANCH 1 11
ATOM     11  C   HIS F   2      -4.449  33.335 -16.653  1.00 50.00 LIG 0.24  C 
ATOM     12 O    HIS F   2      -4.065  33.545 -17.806  1.00 49.82 LIG-0.27  OA
ATOM     13  N   GLY F   3      -5.413  34.039 -16.065  1.00 50.02 LIG-0.35  N 
ATOM     14 H    GLY F   3      -5.668  33.914 -15.253  1.00 50.02 LIG 0.16  HD
BRANCH 13 15
ATOM     15  CA  GLY F   3      -6.130  35.101 -16.760  1.00 50.20 LIG 0.21  C 
BRANCH 15 16
ATOM     16  C   GLY F   3      -7.026  35.901 -15.836  1.00 50.42 LIG 0.21  C 
ATOM     17 O    GLY F   3      -6.547  36.710 -15.041  1.00 50.69 LIG-0.29  OA
ENDBRANCH 15 16
ENDBRANCH 13 15
ENDBRANCH 1 11
BRANCH 1 18
ATOM     18  CB  HIS F   2      -3.098  31.216 -16.709  1.00 49.99 LIG 0.10  C 
BRANCH 18 19
ATOM     19  CG  HIS F   2      -1.617  31.181 -16.485  1.00 50.63 LIG 0.06  A 
ATOM     20  CD2 HIS F   2      -0.663  30.335 -16.945  1.00 51.31 LIG 0.14  A 
ATOM     21 NE2  HIS F   2       0.540  30.766 -16.440  1.00 51.32 LIG-0.25  NA
ATOM     22  CE1 HIS F   2       0.333  31.835 -15.690  1.00 50.87 LIG 0.23  A 
ATOM     23 ND1  HIS F   2      -0.960  32.107 -15.702  1.00 50.82 LIG-0.24  NA
ENDBRANCH 18 19
ENDBRANCH 1 18
TORSDOF 8
ENDMDL
MODEL 116
USER: ADFR SOLUTION from run 171
USER: SCORE 7.121053 LL:  -1.258 LR:  -6.089 RR:   0.000 FEB:  -3.702
USER: RMSD 5.068429
USER: SEED 170
USER: STATUS no improvement in best in 34 clusters for 5 generations
USER: GENES 10
USER: genes 0 Translation |==|  0.73369 0.44230 0.46039
USER: genes 1 Rotation |==|  0.59098 0.71830 0.66766 0.90738
USER: genes 2 Torsion [C]-CA--N-[C] |==|  0.19372
USER: genes 3 Torsion [N]-C--CA-[N] |==|  0.10798
USER: genes 4 Torsion [C]-CA--N-[H3] |==|  0.12217
USER: genes 5 Torsion [N]-CA--C-[N] |==|  0.05000
USER: genes 6 Torsion [C]-N--CA-[C] |==|  0.24452
USER: genes 7 Torsion [N]-CA--C-[O] |==|  0.02638
USER: genes 8 Torsion [N]-CA--CB-[CG] |==|  0.83918
USER: genes 9 Torsion [CA]-CB--CG-[CD2] |==|  0.21623
ROOT
ATOM      1  CA  HIS F   2       2.359  29.974 -19.719  1.00 49.99 LIG 0.18  C 
ENDROOT
BRANCH 1 2
ATOM      2  N   HIS F   2       1.076  30.290 -20.347  1.00 49.83 LIG-0.35  N 
ATOM      3  C   GLY F   1       0.406  31.409 -20.077  1.00 49.82 LIG 0.24  C 
ATOM      4 O    GLY F   1       0.778  32.236 -19.240  1.00 49.53 LIG-0.27  OA
ATOM      5 H    HIS F   2       0.799  29.692 -20.899  1.00 49.83 LIG 0.16  HD
BRANCH 3 6
ATOM      6  CA  GLY F   1      -0.875  31.623 -20.865  1.00 49.90 LIG 0.33  C 
BRANCH 6 7
ATOM      7  N   GLY F   1      -1.657  30.368 -21.069  1.00 49.95 LIG-0.07  N 
ATOM      8 H3   GLY F   1      -1.683  29.907 -20.309  1.00 49.95 LIG 0.27  HD
ATOM      9 H1   GLY F   1      -2.486  30.572 -21.321  1.00 49.95 LIG 0.27  HD
ATOM     10 H2   GLY F   1      -1.269  29.875 -21.701  1.00 49.95 LIG 0.27  HD
ENDBRANCH 6 7
ENDBRANCH 3 6
ENDBRANCH 1 2
BRANCH 1 11
ATOM     11  C   HIS F   2       2.179  29.657 -18.235  1.00 50.00 LIG 0.24  C 
ATOM     12 O    HIS F   2       3.137  29.700 -17.459  1.00 49.82 LIG-0.27  OA
ATOM     13  N   GLY F   3       0.942  29.351 -17.852  1.00 50.02 LIG-0.35  N 
ATOM     14 H    GLY F   3       0.275  29.295 -18.392  1.00 50.02 LIG 0.16  HD
BRANCH 13 15
ATOM     15  CA  GLY F   3       0.608  29.079 -16.459  1.00 50.20 LIG 0.21  C 
BRANCH 15 16
ATOM     16  C   GLY F   3       0.247  30.335 -15.691  1.00 50.42 LIG 0.21  C 
ATOM     17 O    GLY F   3       0.085  31.405 -16.277  1.00 50.69 LIG-0.29  OA
ENDBRANCH 15 16
ENDBRANCH 13 15
ENDBRANCH 1 11
BRANCH 1 18
ATOM     18  CB  HIS F   2       3.351  31.124 -19.906  1.00 49.99 LIG 0.10  C 
BRANCH 18 19
ATOM     19  CG  HIS F   2       3.606  31.474 -21.340  1.00 50.63 LIG 0.06  A 
ATOM     20  CD2 HIS F   2       2.870  32.182 -22.232  1.00 51.31 LIG 0.14  A 
ATOM     21 NE2  HIS F   2       3.578  32.210 -23.410  1.00 51.32 LIG-0.25  NA
ATOM     22  CE1 HIS F   2       4.704  31.538 -23.250  1.00 50.87 LIG 0.23  A 
ATOM     23 ND1  HIS F   2       4.747  31.085 -22.010  1.00 50.82 LIG-0.24  NA
ENDBRANCH 18 19
ENDBRANCH 1 18
TORSDOF 8
ENDMDL
MODEL 117
USER: ADFR SOLUTION from run 23
USER: SCORE 7.093859 LL:  -1.106 LR:  -6.090 RR:   0.000 FEB:  -3.703
USER: RMSD 2.586479
USER: SEED 22
USER: STATUS no improvement in best in 39 clusters for 5 generations
USER: GENES 10
USER: genes 0 Translation |==|  0.47217 0.43388 0.55784
USER: genes 1 Rotation |==|  0.34371 0.60287 0.58141 0.95647
USER: genes 2 Torsion [C]-CA--N-[C] |==|  0.84786
USER: genes 3 Torsion [N]-C--CA-[N] |==|  0.08480
USER: genes 4 Torsion [C]-CA--N-[H3] |==|  0.86129
USER: genes 5 Torsion [N]-CA--C-[N] |==|  0.41111
USER: genes 6 Torsion [C]-N--CA-[C] |==|  0.87827
USER: genes 7 Torsion [N]-CA--C-[O] |==|  0.90325
USER: genes 8 Torsion [N]-CA--CB-[CG] |==|  0.54359
USER: genes 9 Torsion [CA]-CB--CG-[CD2] |==|  0.75086
ROOT
ATOM      1  CA  HIS F   2      -2.152  29.867 -18.111  1.00 49.99 LIG 0.18  C 
ENDROOT
BRANCH 1 2
ATOM      2  N   HIS F   2      -2.615  29.241 -19.350  1.00 49.83 LIG-0.35  N 
ATOM      3  C   GLY F   1      -3.667  28.426 -19.387  1.00 49.82 LIG 0.24  C 
ATOM      4 O    GLY F   1      -4.296  28.086 -18.381  1.00 49.53 LIG-0.27  OA
ATOM      5 H    HIS F   2      -2.149  29.448 -20.042  1.00 49.83 LIG 0.16  HD
BRANCH 3 6
ATOM      6  CA  GLY F   1      -4.063  27.915 -20.761  1.00 49.90 LIG 0.33  C 
BRANCH 6 7
ATOM      7  N   GLY F   1      -2.907  27.780 -21.695  1.00 49.95 LIG-0.07  N 
ATOM      8 H3   GLY F   1      -2.433  28.534 -21.693  1.00 49.95 LIG 0.27  HD
ATOM      9 H1   GLY F   1      -2.389  27.104 -21.432  1.00 49.95 LIG 0.27  HD
ATOM     10 H2   GLY F   1      -3.206  27.620 -22.518  1.00 49.95 LIG 0.27  HD
ENDBRANCH 6 7
ENDBRANCH 3 6
ENDBRANCH 1 2
BRANCH 1 11
ATOM     11  C   HIS F   2      -3.283  30.638 -17.432  1.00 50.00 LIG 0.24  C 
ATOM     12 O    HIS F   2      -4.172  31.172 -18.098  1.00 49.82 LIG-0.27  OA
ATOM     13  N   GLY F   3      -3.242  30.679 -16.102  1.00 50.02 LIG-0.35  N 
ATOM     14 H    GLY F   3      -2.611  30.329 -15.632  1.00 50.02 LIG 0.16  HD
BRANCH 13 15
ATOM     15  CA  GLY F   3      -4.282  31.330 -15.315  1.00 50.20 LIG 0.21  C 
BRANCH 15 16
ATOM     16  C   GLY F   3      -4.693  32.671 -15.890  1.00 50.42 LIG 0.21  C 
ATOM     17 O    GLY F   3      -3.866  33.399 -16.440  1.00 50.69 LIG-0.29  OA
ENDBRANCH 15 16
ENDBRANCH 13 15
ENDBRANCH 1 11
BRANCH 1 18
ATOM     18  CB  HIS F   2      -0.960  30.787 -18.381  1.00 49.99 LIG 0.10  C 
BRANCH 18 19
ATOM     19  CG  HIS F   2      -0.201  31.170 -17.148  1.00 50.63 LIG 0.06  A 
ATOM     20  CD2 HIS F   2      -0.353  32.209 -16.290  1.00 51.31 LIG 0.14  A 
ATOM     21 NE2  HIS F   2       0.610  32.077 -15.317  1.00 51.32 LIG-0.25  NA
ATOM     22  CE1 HIS F   2       1.332  30.999 -15.572  1.00 50.87 LIG 0.23  A 
ATOM     23 ND1  HIS F   2       0.862  30.433 -16.669  1.00 50.82 LIG-0.24  NA
ENDBRANCH 18 19
ENDBRANCH 1 18
TORSDOF 8
ENDMDL
MODEL 118
USER: ADFR SOLUTION from run 12
USER: SCORE 7.268869 LL:  -1.245 LR:  -6.087 RR:   0.000 FEB:  -3.701
USER: RMSD 5.361949
USER: SEED 689903
USER: STATUS no improvement in best in 22 clusters for 5 generations
USER: GENES 10
USER: genes 0 Translation |==|  0.67404 0.61864 0.48819
USER: genes 1 Rotation |==|  0.94073 0.29272 0.61194 0.51607
USER: genes 2 Torsion [C]-CA--N-[C] |==|  0.16637
USER: genes 3 Torsion [N]-C--CA-[N] |==|  0.47995
USER: genes 4 Torsion [C]-CA--N-[H3] |==|  0.13235
USER: genes 5 Torsion [N]-CA--C-[N] |==|  0.11150
USER: genes 6 Torsion [C]-N--CA-[C] |==|  0.80457
USER: genes 7 Torsion [N]-CA--C-[O] |==|  0.01847
USER: genes 8 Torsion [N]-CA--CB-[CG] |==|  0.62742
USER: genes 9 Torsion [CA]-CB--CG-[CD2] |==|  0.80015
ROOT
ATOM      1  CA  HIS F   2       1.330  32.223 -19.260  1.00 49.99 LIG 0.18  C 
ENDROOT
BRANCH 1 2
ATOM      2  N   HIS F   2       0.595  32.274 -17.996  1.00 49.83 LIG-0.35  N 
ATOM      3  C   GLY F   1      -0.392  31.428 -17.710  1.00 49.82 LIG 0.24  C 
ATOM      4 O    GLY F   1      -0.805  30.576 -18.502  1.00 49.53 LIG-0.27  OA
ATOM      5 H    HIS F   2       0.858  32.895 -17.462  1.00 49.83 LIG 0.16  HD
BRANCH 3 6
ATOM      6  CA  GLY F   1      -1.007  31.566 -16.328  1.00 49.90 LIG 0.33  C 
BRANCH 6 7
ATOM      7  N   GLY F   1      -2.214  30.710 -16.132  1.00 49.95 LIG-0.07  N 
ATOM      8 H3   GLY F   1      -2.041  29.884 -16.414  1.00 49.95 LIG 0.27  HD
ATOM      9 H1   GLY F   1      -2.426  30.689 -15.267  1.00 49.95 LIG 0.27  HD
ATOM     10 H2   GLY F   1      -2.895  31.045 -16.596  1.00 49.95 LIG 0.27  HD
ENDBRANCH 6 7
ENDBRANCH 3 6
ENDBRANCH 1 2
BRANCH 1 11
ATOM     11  C   HIS F   2       0.391  32.427 -20.448  1.00 50.00 LIG 0.24  C 
ATOM     12 O    HIS F   2       0.519  31.759 -21.476  1.00 49.82 LIG-0.27  OA
ATOM     13  N   GLY F   3      -0.556  33.349 -20.288  1.00 50.02 LIG-0.35  N 
ATOM     14 H    GLY F   3      -0.635  33.835 -19.583  1.00 50.02 LIG 0.16  HD
BRANCH 13 15
ATOM     15  CA  GLY F   3      -1.557  33.615 -21.313  1.00 50.20 LIG 0.21  C 
BRANCH 15 16
ATOM     16  C   GLY F   3      -0.973  34.298 -22.534  1.00 50.42 LIG 0.21  C 
ATOM     17 O    GLY F   3       0.243  34.460 -22.642  1.00 50.69 LIG-0.29  OA
ENDBRANCH 15 16
ENDBRANCH 13 15
ENDBRANCH 1 11
BRANCH 1 18
ATOM     18  CB  HIS F   2       2.086  30.899 -19.394  1.00 49.99 LIG 0.10  C 
BRANCH 18 19
ATOM     19  CG  HIS F   2       3.501  31.056 -19.858  1.00 50.63 LIG 0.06  A 
ATOM     20  CD2 HIS F   2       4.014  31.388 -21.068  1.00 51.31 LIG 0.14  A 
ATOM     21 NE2  HIS F   2       5.383  31.399 -20.940  1.00 51.32 LIG-0.25  NA
ATOM     22  CE1 HIS F   2       5.700  31.078 -19.698  1.00 50.87 LIG 0.23  A 
ATOM     23 ND1  HIS F   2       4.583  30.868 -19.024  1.00 50.82 LIG-0.24  NA
ENDBRANCH 18 19
ENDBRANCH 1 18
TORSDOF 8
ENDMDL
MODEL 119
USER: ADFR SOLUTION from run 15
USER: SCORE 7.426229 LL:  -1.399 LR:  -6.076 RR:   0.000 FEB:  -3.689
USER: RMSD 5.891505
USER: SEED 203046
USER: STATUS no improvement in best in 28 clusters for 5 generations
USER: GENES 10
USER: genes 0 Translation |==|  0.49859 0.71752 0.50262
USER: genes 1 Rotation |==|  0.45158 0.73162 0.05954 0.50210
USER: genes 2 Torsion [C]-CA--N-[C] |==|  0.15634
USER: genes 3 Torsion [N]-C--CA-[N] |==|  0.28001
USER: genes 4 Torsion [C]-CA--N-[H3] |==|  0.13935
USER: genes 5 Torsion [N]-CA--C-[N] |==|  0.10556
USER: genes 6 Torsion [C]-N--CA-[C] |==|  0.38684
USER: genes 7 Torsion [N]-CA--C-[O] |==|  0.04638
USER: genes 8 Torsion [N]-CA--CB-[CG] |==|  0.58132
USER: genes 9 Torsion [CA]-CB--CG-[CD2] |==|  0.91471
ROOT
ATOM      1  CA  HIS F   2      -1.696  33.483 -19.022  1.00 49.99 LIG 0.18  C 
ENDROOT
BRANCH 1 2
ATOM      2  N   HIS F   2      -2.058  34.431 -20.077  1.00 49.83 LIG-0.35  N 
ATOM      3  C   GLY F   1      -2.340  34.041 -21.318  1.00 49.82 LIG 0.24  C 
ATOM      4 O    GLY F   1      -2.263  32.868 -21.695  1.00 49.53 LIG-0.27  OA
ATOM      5 H    HIS F   2      -2.071  35.252 -19.822  1.00 49.83 LIG 0.16  HD
BRANCH 3 6
ATOM      6  CA  GLY F   1      -2.767  35.139 -22.278  1.00 49.90 LIG 0.33  C 
BRANCH 6 7
ATOM      7  N   GLY F   1      -1.672  35.583 -23.190  1.00 49.95 LIG-0.07  N 
ATOM      8 H3   GLY F   1      -1.298  34.872 -23.573  1.00 49.95 LIG 0.27  HD
ATOM      9 H1   GLY F   1      -2.007  36.116 -23.819  1.00 49.95 LIG 0.27  HD
ATOM     10 H2   GLY F   1      -1.057  36.025 -22.723  1.00 49.95 LIG 0.27  HD
ENDBRANCH 6 7
ENDBRANCH 3 6
ENDBRANCH 1 2
BRANCH 1 11
ATOM     11  C   HIS F   2      -0.491  32.639 -19.434  1.00 50.00 LIG 0.24  C 
ATOM     12 O    HIS F   2      -0.429  31.442 -19.143  1.00 49.82 LIG-0.27  OA
ATOM     13  N   GLY F   3       0.456  33.274 -20.121  1.00 50.02 LIG-0.35  N 
ATOM     14 H    GLY F   3       0.430  34.114 -20.306  1.00 50.02 LIG 0.16  HD
BRANCH 13 15
ATOM     15  CA  GLY F   3       1.636  32.586 -20.628  1.00 50.20 LIG 0.21  C 
BRANCH 15 16
ATOM     16  C   GLY F   3       2.019  33.037 -22.024  1.00 50.42 LIG 0.21  C 
ATOM     17 O    GLY F   3       1.570  34.085 -22.491  1.00 50.69 LIG-0.29  OA
ENDBRANCH 15 16
ENDBRANCH 13 15
ENDBRANCH 1 11
BRANCH 1 18
ATOM     18  CB  HIS F   2      -2.884  32.587 -18.668  1.00 49.99 LIG 0.10  C 
BRANCH 18 19
ATOM     19  CG  HIS F   2      -2.881  32.113 -17.247  1.00 50.63 LIG 0.06  A 
ATOM     20  CD2 HIS F   2      -1.860  31.850 -16.394  1.00 51.31 LIG 0.14  A 
ATOM     21 NE2  HIS F   2      -2.419  31.453 -15.202  1.00 51.32 LIG-0.25  NA
ATOM     22  CE1 HIS F   2      -3.735  31.465 -15.320  1.00 50.87 LIG 0.23  A 
ATOM     23 ND1  HIS F   2      -4.040  31.862 -16.543  1.00 50.82 LIG-0.24  NA
ENDBRANCH 18 19
ENDBRANCH 1 18
TORSDOF 8
ENDMDL
MODEL 120
USER: ADFR SOLUTION from run 111
USER: SCORE 7.532207 LL:  -1.512 LR:  -6.076 RR:   0.000 FEB:  -3.690
USER: RMSD 4.469870
USER: SEED 110
USER: STATUS no improvement in best in 29 clusters for 5 generations
USER: GENES 10
USER: genes 0 Translation |==|  0.59861 0.59002 0.44112
USER: genes 1 Rotation |==|  0.56417 0.63872 0.57846 0.96956
USER: genes 2 Torsion [C]-CA--N-[C] |==|  0.15758
USER: genes 3 Torsion [N]-C--CA-[N] |==|  0.62474
USER: genes 4 Torsion [C]-CA--N-[H3] |==|  0.74319
USER: genes 5 Torsion [N]-CA--C-[N] |==|  0.12222
USER: genes 6 Torsion [C]-N--CA-[C] |==|  0.26991
USER: genes 7 Torsion [N]-CA--C-[O] |==|  0.96005
USER: genes 8 Torsion [N]-CA--CB-[CG] |==|  0.87856
USER: genes 9 Torsion [CA]-CB--CG-[CD2] |==|  0.73087
ROOT
ATOM      1  CA  HIS F   2       0.029  31.858 -20.037  1.00 49.99 LIG 0.18  C 
ENDROOT
BRANCH 1 2
ATOM      2  N   HIS F   2      -0.776  32.430 -21.116  1.00 49.83 LIG-0.35  N 
ATOM      3  C   GLY F   1      -1.199  33.692 -21.097  1.00 49.82 LIG 0.24  C 
ATOM      4 O    GLY F   1      -1.000  34.460 -20.152  1.00 49.53 LIG-0.27  OA
ATOM      5 H    HIS F   2      -0.948  31.881 -21.755  1.00 49.83 LIG 0.16  HD
BRANCH 3 6
ATOM      6  CA  GLY F   1      -1.963  34.155 -22.326  1.00 49.90 LIG 0.33  C 
BRANCH 6 7
ATOM      7  N   GLY F   1      -1.534  35.499 -22.815  1.00 49.95 LIG-0.07  N 
ATOM      8 H3   GLY F   1      -2.047  36.126 -22.446  1.00 49.95 LIG 0.27  HD
ATOM      9 H1   GLY F   1      -0.685  35.640 -22.590  1.00 49.95 LIG 0.27  HD
ATOM     10 H2   GLY F   1      -1.616  35.533 -23.700  1.00 49.95 LIG 0.27  HD
ENDBRANCH 6 7
ENDBRANCH 3 6
ENDBRANCH 1 2
BRANCH 1 11
ATOM     11  C   HIS F   2      -0.687  31.987 -18.693  1.00 50.00 LIG 0.24  C 
ATOM     12 O    HIS F   2      -0.079  32.359 -17.686  1.00 49.82 LIG-0.27  OA
ATOM     13  N   GLY F   3      -1.983  31.685 -18.693  1.00 50.02 LIG-0.35  N 
ATOM     14 H    GLY F   3      -2.407  31.401 -19.386  1.00 50.02 LIG 0.16  HD
BRANCH 13 15
ATOM     15  CA  GLY F   3      -2.808  31.814 -17.499  1.00 50.20 LIG 0.21  C 
BRANCH 15 16
ATOM     16  C   GLY F   3      -3.580  33.118 -17.461  1.00 50.42 LIG 0.21  C 
ATOM     17 O    GLY F   3      -3.289  34.042 -18.220  1.00 50.69 LIG-0.29  OA
ENDBRANCH 15 16
ENDBRANCH 13 15
ENDBRANCH 1 11
BRANCH 1 18
ATOM     18  CB  HIS F   2       1.406  32.521 -19.978  1.00 49.99 LIG 0.10  C 
BRANCH 18 19
ATOM     19  CG  HIS F   2       2.044  32.708 -21.320  1.00 50.63 LIG 0.06  A 
ATOM     20  CD2 HIS F   2       2.957  31.961 -21.988  1.00 51.31 LIG 0.14  A 
ATOM     21 NE2  HIS F   2       3.190  32.585 -23.191  1.00 51.32 LIG-0.25  NA
ATOM     22  CE1 HIS F   2       2.453  33.680 -23.256  1.00 50.87 LIG 0.23  A 
ATOM     23 ND1  HIS F   2       1.751  33.776 -22.141  1.00 50.82 LIG-0.24  NA
ENDBRANCH 18 19
ENDBRANCH 1 18
TORSDOF 8
ENDMDL
MODEL 121
USER: ADFR SOLUTION from run 119
USER: SCORE 7.354948 LL:  -1.309 LR:  -6.080 RR:   0.000 FEB:  -3.693
USER: RMSD 6.715101
USER: SEED 118
USER: STATUS no improvement in best in 26 clusters for 5 generations
USER: GENES 10
USER: genes 0 Translation |==|  0.66926 0.57881 0.39218
USER: genes 1 Rotation |==|  0.18950 0.63606 0.21624 0.73358
USER: genes 2 Torsion [C]-CA--N-[C] |==|  0.83523
USER: genes 3 Torsion [N]-C--CA-[N] |==|  0.99441
USER: genes 4 Torsion [C]-CA--N-[H3] |==|  0.27464
USER: genes 5 Torsion [N]-CA--C-[N] |==|  0.89635
USER: genes 6 Torsion [C]-N--CA-[C] |==|  0.20752
USER: genes 7 Torsion [N]-CA--C-[O] |==|  0.91458
USER: genes 8 Torsion [N]-CA--CB-[CG] |==|  0.49506
USER: genes 9 Torsion [CA]-CB--CG-[CD2] |==|  0.20351
ROOT
ATOM      1  CA  HIS F   2       1.248  31.715 -20.844  1.00 49.99 LIG 0.18  C 
ENDROOT
BRANCH 1 2
ATOM      2  N   HIS F   2      -0.027  31.109 -21.231  1.00 49.83 LIG-0.35  N 
ATOM      3  C   GLY F   1      -1.095  31.837 -21.546  1.00 49.82 LIG 0.24  C 
ATOM      4 O    GLY F   1      -1.119  33.070 -21.482  1.00 49.53 LIG-0.27  OA
ATOM      5 H    HIS F   2      -0.019  30.249 -21.236  1.00 49.83 LIG 0.16  HD
BRANCH 3 6
ATOM      6  CA  GLY F   1      -2.321  31.059 -21.996  1.00 49.90 LIG 0.33  C 
BRANCH 6 7
ATOM      7  N   GLY F   1      -2.094  29.585 -22.053  1.00 49.95 LIG-0.07  N 
ATOM      8 H3   GLY F   1      -2.417  29.206 -21.315  1.00 49.95 LIG 0.27  HD
ATOM      9 H1   GLY F   1      -2.508  29.248 -22.765  1.00 49.95 LIG 0.27  HD
ATOM     10 H2   GLY F   1      -1.221  29.421 -22.112  1.00 49.95 LIG 0.27  HD
ENDBRANCH 6 7
ENDBRANCH 3 6
ENDBRANCH 1 2
BRANCH 1 11
ATOM     11  C   HIS F   2       1.787  32.613 -21.956  1.00 50.00 LIG 0.24  C 
ATOM     12 O    HIS F   2       2.376  33.664 -21.690  1.00 49.82 LIG-0.27  OA
ATOM     13  N   GLY F   3       1.588  32.182 -23.200  1.00 50.02 LIG-0.35  N 
ATOM     14 H    GLY F   3       1.156  31.464 -23.393  1.00 50.02 LIG 0.16  HD
BRANCH 13 15
ATOM     15  CA  GLY F   3       2.094  32.905 -24.359  1.00 50.20 LIG 0.21  C 
BRANCH 15 16
ATOM     16  C   GLY F   3       3.590  32.744 -24.539  1.00 50.42 LIG 0.21  C 
ATOM     17 O    GLY F   3       4.326  32.585 -23.565  1.00 50.69 LIG-0.29  OA
ENDBRANCH 15 16
ENDBRANCH 13 15
ENDBRANCH 1 11
BRANCH 1 18
ATOM     18  CB  HIS F   2       2.271  30.638 -20.479  1.00 49.99 LIG 0.10  C 
BRANCH 18 19
ATOM     19  CG  HIS F   2       3.617  31.183 -20.112  1.00 50.63 LIG 0.06  A 
ATOM     20  CD2 HIS F   2       4.045  31.835 -19.003  1.00 51.31 LIG 0.14  A 
ATOM     21 NE2  HIS F   2       5.382  32.103 -19.180  1.00 51.32 LIG-0.25  NA
ATOM     22  CE1 HIS F   2       5.760  31.639 -20.359  1.00 50.87 LIG 0.23  A 
ATOM     23 ND1  HIS F   2       4.715  31.077 -20.940  1.00 50.82 LIG-0.24  NA
ENDBRANCH 18 19
ENDBRANCH 1 18
TORSDOF 8
ENDMDL
MODEL 122
USER: ADFR SOLUTION from run 194
USER: SCORE 7.300629 LL:  -1.357 LR:  -6.077 RR:   0.000 FEB:  -3.691
USER: RMSD 5.087537
USER: SEED 193
USER: STATUS no improvement in best in 36 clusters for 5 generations
USER: GENES 10
USER: genes 0 Translation |==|  0.72903 0.61798 0.51160
USER: genes 1 Rotation |==|  0.03750 0.67967 0.49237 0.56127
USER: genes 2 Torsion [C]-CA--N-[C] |==|  0.17097
USER: genes 3 Torsion [N]-C--CA-[N] |==|  0.50952
USER: genes 4 Torsion [C]-CA--N-[H3] |==|  0.46246
USER: genes 5 Torsion [N]-CA--C-[N] |==|  0.12778
USER: genes 6 Torsion [C]-N--CA-[C] |==|  0.34803
USER: genes 7 Torsion [N]-CA--C-[O] |==|  0.00323
USER: genes 8 Torsion [N]-CA--CB-[CG] |==|  0.69254
USER: genes 9 Torsion [CA]-CB--CG-[CD2] |==|  0.06166
ROOT
ATOM      1  CA  HIS F   2       2.279  32.214 -18.874  1.00 49.99 LIG 0.18  C 
ENDROOT
BRANCH 1 2
ATOM      2  N   HIS F   2       1.946  31.600 -17.587  1.00 49.83 LIG-0.35  N 
ATOM      3  C   GLY F   1       1.229  30.483 -17.496  1.00 49.82 LIG 0.24  C 
ATOM      4 O    GLY F   1       0.739  29.909 -18.473  1.00 49.53 LIG-0.27  OA
ATOM      5 H    HIS F   2       2.254  32.024 -16.906  1.00 49.83 LIG 0.16  HD
BRANCH 3 6
ATOM      6  CA  GLY F   1       1.031  29.934 -16.093  1.00 49.90 LIG 0.33  C 
BRANCH 6 7
ATOM      7  N   GLY F   1       0.289  28.639 -16.067  1.00 49.95 LIG-0.07  N 
ATOM      8 H3   GLY F   1       0.370  28.267 -15.262  1.00 49.95 LIG 0.27  HD
ATOM      9 H1   GLY F   1      -0.571  28.786 -16.240  1.00 49.95 LIG 0.27  HD
ATOM     10 H2   GLY F   1       0.626  28.090 -16.681  1.00 49.95 LIG 0.27  HD
ENDBRANCH 6 7
ENDBRANCH 3 6
ENDBRANCH 1 2
BRANCH 1 11
ATOM     11  C   HIS F   2       1.015  32.629 -19.625  1.00 50.00 LIG 0.24  C 
ATOM     12 O    HIS F   2       0.874  32.361 -20.821  1.00 49.82 LIG-0.27  OA
ATOM     13  N   GLY F   3       0.097  33.273 -18.908  1.00 50.02 LIG-0.35  N 
ATOM     14 H    GLY F   3       0.199  33.485 -18.081  1.00 50.02 LIG 0.16  HD
BRANCH 13 15
ATOM     15  CA  GLY F   3      -1.182  33.682 -19.476  1.00 50.20 LIG 0.21  C 
BRANCH 15 16
ATOM     16  C   GLY F   3      -2.364  33.166 -18.680  1.00 50.42 LIG 0.21  C 
ATOM     17 O    GLY F   3      -2.191  32.499 -17.659  1.00 50.69 LIG-0.29  OA
ENDBRANCH 15 16
ENDBRANCH 13 15
ENDBRANCH 1 11
BRANCH 1 18
ATOM     18  CB  HIS F   2       3.123  31.265 -19.725  1.00 49.99 LIG 0.10  C 
BRANCH 18 19
ATOM     19  CG  HIS F   2       4.541  31.712 -19.903  1.00 50.63 LIG 0.06  A 
ATOM     20  CD2 HIS F   2       5.313  32.550 -19.169  1.00 51.31 LIG 0.14  A 
ATOM     21 NE2  HIS F   2       6.546  32.603 -19.775  1.00 51.32 LIG-0.25  NA
ATOM     22  CE1 HIS F   2       6.530  31.831 -20.848  1.00 50.87 LIG 0.23  A 
ATOM     23 ND1  HIS F   2       5.333  31.281 -20.947  1.00 50.82 LIG-0.24  NA
ENDBRANCH 18 19
ENDBRANCH 1 18
TORSDOF 8
ENDMDL
MODEL 123
USER: ADFR SOLUTION from run 10
USER: SCORE 6.874976 LL:  -1.041 LR:  -6.058 RR:   0.000 FEB:  -3.672
USER: RMSD 4.736216
USER: SEED 368643
USER: STATUS no improvement in best in 15 clusters for 5 generations
USER: GENES 10
USER: genes 0 Translation |==|  0.45979 0.58082 0.59723
USER: genes 1 Rotation |==|  0.11560 0.69513 0.75329 0.50209
USER: genes 2 Torsion [C]-CA--N-[C] |==|  0.57631
USER: genes 3 Torsion [N]-C--CA-[N] |==|  0.17233
USER: genes 4 Torsion [C]-CA--N-[H3] |==|  0.91256
USER: genes 5 Torsion [N]-CA--C-[N] |==|  0.48878
USER: genes 6 Torsion [C]-N--CA-[C] |==|  0.43424
USER: genes 7 Torsion [N]-CA--C-[O] |==|  0.63095
USER: genes 8 Torsion [N]-CA--CB-[CG] |==|  0.16328
USER: genes 9 Torsion [CA]-CB--CG-[CD2] |==|  0.02685
ROOT
ATOM      1  CA  HIS F   2      -2.366  31.740 -17.461  1.00 49.99 LIG 0.18  C 
ENDROOT
BRANCH 1 2
ATOM      2  N   HIS F   2      -1.462  30.875 -16.702  1.00 49.83 LIG-0.35  N 
ATOM      3  C   GLY F   1      -0.167  30.769 -16.991  1.00 49.82 LIG 0.24  C 
ATOM      4 O    GLY F   1       0.363  31.339 -17.949  1.00 49.53 LIG-0.27  OA
ATOM      5 H    HIS F   2      -1.842  30.447 -16.060  1.00 49.83 LIG 0.16  HD
BRANCH 3 6
ATOM      6  CA  GLY F   1       0.650  29.884 -16.065  1.00 49.90 LIG 0.33  C 
BRANCH 6 7
ATOM      7  N   GLY F   1       0.204  28.460 -16.065  1.00 49.95 LIG-0.07  N 
ATOM      8 H3   GLY F   1      -0.673  28.424 -16.212  1.00 49.95 LIG 0.27  HD
ATOM      9 H1   GLY F   1       0.631  28.015 -16.707  1.00 49.95 LIG 0.27  HD
ATOM     10 H2   GLY F   1       0.387  28.091 -15.277  1.00 49.95 LIG 0.27  HD
ENDBRANCH 6 7
ENDBRANCH 3 6
ENDBRANCH 1 2
BRANCH 1 11
ATOM     11  C   HIS F   2      -3.533  32.207 -16.593  1.00 50.00 LIG 0.24  C 
ATOM     12 O    HIS F   2      -3.662  31.802 -15.435  1.00 49.82 LIG-0.27  OA
ATOM     13  N   GLY F   3      -4.373  33.069 -17.162  1.00 50.02 LIG-0.35  N 
ATOM     14 H    GLY F   3      -4.303  33.336 -17.977  1.00 50.02 LIG 0.16  HD
BRANCH 13 15
ATOM     15  CA  GLY F   3      -5.501  33.642 -16.440  1.00 50.20 LIG 0.21  C 
BRANCH 15 16
ATOM     16  C   GLY F   3      -5.960  34.962 -17.028  1.00 50.42 LIG 0.21  C 
ATOM     17 O    GLY F   3      -6.172  35.933 -16.302  1.00 50.69 LIG-0.29  OA
ENDBRANCH 15 16
ENDBRANCH 13 15
ENDBRANCH 1 11
BRANCH 1 18
ATOM     18  CB  HIS F   2      -2.878  31.025 -18.712  1.00 49.99 LIG 0.10  C 
BRANCH 18 19
ATOM     19  CG  HIS F   2      -3.611  29.752 -18.423  1.00 50.63 LIG 0.06  A 
ATOM     20  CD2 HIS F   2      -4.046  29.216 -17.256  1.00 51.31 LIG 0.14  A 
ATOM     21 NE2  HIS F   2      -4.672  28.031 -17.562  1.00 51.32 LIG-0.25  NA
ATOM     22  CE1 HIS F   2      -4.619  27.842 -18.869  1.00 50.87 LIG 0.23  A 
ATOM     23 ND1  HIS F   2      -3.986  28.867 -19.412  1.00 50.82 LIG-0.24  NA
ENDBRANCH 18 19
ENDBRANCH 1 18
TORSDOF 8
ENDMDL
MODEL 124
USER: ADFR SOLUTION from run 64
USER: SCORE 7.029883 LL:  -1.200 LR:  -6.049 RR:   0.000 FEB:  -3.663
USER: RMSD 5.893267
USER: SEED 63
USER: STATUS no improvement in best in 27 clusters for 5 generations
USER: GENES 10
USER: genes 0 Translation |==|  0.47021 0.46628 0.53326
USER: genes 1 Rotation |==|  0.66694 0.93821 0.56675 0.66015
USER: genes 2 Torsion [C]-CA--N-[C] |==|  0.68149
USER: genes 3 Torsion [N]-C--CA-[N] |==|  0.88418
USER: genes 4 Torsion [C]-CA--N-[H3] |==|  0.33885
USER: genes 5 Torsion [N]-CA--C-[N] |==|  0.08889
USER: genes 6 Torsion [C]-N--CA-[C] |==|  0.79998
USER: genes 7 Torsion [N]-CA--C-[O] |==|  0.35354
USER: genes 8 Torsion [N]-CA--CB-[CG] |==|  0.98712
USER: genes 9 Torsion [CA]-CB--CG-[CD2] |==|  0.69362
ROOT
ATOM      1  CA  HIS F   2      -2.186  30.280 -18.516  1.00 49.99 LIG 0.18  C 
ENDROOT
BRANCH 1 2
ATOM      2  N   HIS F   2      -2.983  30.570 -17.324  1.00 49.83 LIG-0.35  N 
ATOM      3  C   GLY F   1      -3.945  29.756 -16.894  1.00 49.82 LIG 0.24  C 
ATOM      4 O    GLY F   1      -4.282  28.731 -17.492  1.00 49.53 LIG-0.27  OA
ATOM      5 H    HIS F   2      -2.773  31.306 -16.932  1.00 49.83 LIG 0.16  HD
BRANCH 3 6
ATOM      6  CA  GLY F   1      -4.631  30.163 -15.601  1.00 49.90 LIG 0.33  C 
BRANCH 6 7
ATOM      7  N   GLY F   1      -3.684  30.674 -14.567  1.00 49.95 LIG-0.07  N 
ATOM      8 H3   GLY F   1      -3.917  31.500 -14.333  1.00 49.95 LIG 0.27  HD
ATOM      9 H1   GLY F   1      -3.711  30.145 -13.852  1.00 49.95 LIG 0.27  HD
ATOM     10 H2   GLY F   1      -2.858  30.681 -14.898  1.00 49.95 LIG 0.27  HD
ENDBRANCH 6 7
ENDBRANCH 3 6
ENDBRANCH 1 2
BRANCH 1 11
ATOM     11  C   HIS F   2      -0.722  30.042 -18.151  1.00 50.00 LIG 0.24  C 
ATOM     12 O    HIS F   2       0.183  30.364 -18.926  1.00 49.82 LIG-0.27  OA
ATOM     13  N   GLY F   3      -0.501  29.488 -16.962  1.00 50.02 LIG-0.35  N 
ATOM     14 H    GLY F   3      -1.128  29.239 -16.427  1.00 50.02 LIG 0.16  HD
BRANCH 13 15
ATOM     15  CA  GLY F   3       0.845  29.252 -16.455  1.00 50.20 LIG 0.21  C 
BRANCH 15 16
ATOM     16  C   GLY F   3       1.549  28.120 -17.177  1.00 50.42 LIG 0.21  C 
ATOM     17 O    GLY F   3       2.666  28.287 -17.669  1.00 50.69 LIG-0.29  OA
ENDBRANCH 15 16
ENDBRANCH 13 15
ENDBRANCH 1 11
BRANCH 1 18
ATOM     18  CB  HIS F   2      -2.308  31.412 -19.538  1.00 49.99 LIG 0.10  C 
BRANCH 18 19
ATOM     19  CG  HIS F   2      -3.281  32.480 -19.143  1.00 50.63 LIG 0.06  A 
ATOM     20  CD2 HIS F   2      -4.493  32.817 -19.648  1.00 51.31 LIG 0.14  A 
ATOM     21 NE2  HIS F   2      -4.965  33.871 -18.901  1.00 51.32 LIG-0.25  NA
ATOM     22  CE1 HIS F   2      -4.072  34.175 -17.975  1.00 50.87 LIG 0.23  A 
ATOM     23 ND1  HIS F   2      -3.048  33.349 -18.098  1.00 50.82 LIG-0.24  NA
ENDBRANCH 18 19
ENDBRANCH 1 18
TORSDOF 8
ENDMDL
MODEL 125
USER: ADFR SOLUTION from run 79
USER: SCORE 7.211745 LL:  -1.308 LR:  -6.045 RR:   0.000 FEB:  -3.659
USER: RMSD 6.771195
USER: SEED 78
USER: STATUS no improvement in best in 18 clusters for 5 generations
USER: GENES 10
USER: genes 0 Translation |==|  0.72395 0.42514 0.54677
USER: genes 1 Rotation |==|  0.61971 0.06838 0.48197 0.72147
USER: genes 2 Torsion [C]-CA--N-[C] |==|  0.55327
USER: genes 3 Torsion [N]-C--CA-[N] |==|  0.31195
USER: genes 4 Torsion [C]-CA--N-[H3] |==|  0.10758
USER: genes 5 Torsion [N]-CA--C-[N] |==|  0.46617
USER: genes 6 Torsion [C]-N--CA-[C] |==|  0.22830
USER: genes 7 Torsion [N]-CA--C-[O] |==|  0.76067
USER: genes 8 Torsion [N]-CA--CB-[CG] |==|  0.17832
USER: genes 9 Torsion [CA]-CB--CG-[CD2] |==|  0.34846
ROOT
ATOM      1  CA  HIS F   2       2.191  29.755 -18.293  1.00 49.99 LIG 0.18  C 
ENDROOT
BRANCH 1 2
ATOM      2  N   HIS F   2       3.123  30.239 -17.274  1.00 49.83 LIG-0.35  N 
ATOM      3  C   GLY F   1       3.766  29.416 -16.449  1.00 49.82 LIG 0.24  C 
ATOM      4 O    GLY F   1       3.588  28.195 -16.434  1.00 49.53 LIG-0.27  OA
ATOM      5 H    HIS F   2       3.215  31.094 -17.259  1.00 49.83 LIG 0.16  HD
BRANCH 3 6
ATOM      6  CA  GLY F   1       4.753  30.068 -15.496  1.00 49.90 LIG 0.33  C 
BRANCH 6 7
ATOM      7  N   GLY F   1       4.328  29.996 -14.067  1.00 49.95 LIG-0.07  N 
ATOM      8 H3   GLY F   1       3.953  29.204 -13.908  1.00 49.95 LIG 0.27  HD
ATOM      9 H1   GLY F   1       5.038  30.098 -13.540  1.00 49.95 LIG 0.27  HD
ATOM     10 H2   GLY F   1       3.739  30.641 -13.898  1.00 49.95 LIG 0.27  HD
ENDBRANCH 6 7
ENDBRANCH 3 6
ENDBRANCH 1 2
BRANCH 1 11
ATOM     11  C   HIS F   2       1.968  30.810 -19.376  1.00 50.00 LIG 0.24  C 
ATOM     12 O    HIS F   2       2.363  31.969 -19.220  1.00 49.82 LIG-0.27  OA
ATOM     13  N   GLY F   3       1.344  30.393 -20.475  1.00 50.02 LIG-0.35  N 
ATOM     14 H    GLY F   3       1.045  29.593 -20.580  1.00 50.02 LIG 0.16  HD
BRANCH 13 15
ATOM     15  CA  GLY F   3       1.111  31.272 -21.613  1.00 50.20 LIG 0.21  C 
BRANCH 15 16
ATOM     16  C   GLY F   3       2.319  31.383 -22.522  1.00 50.42 LIG 0.21  C 
ATOM     17 O    GLY F   3       3.204  32.207 -22.291  1.00 50.69 LIG-0.29  OA
ENDBRANCH 15 16
ENDBRANCH 13 15
ENDBRANCH 1 11
BRANCH 1 18
ATOM     18  CB  HIS F   2       0.860  29.346 -17.660  1.00 49.99 LIG 0.10  C 
BRANCH 18 19
ATOM     19  CG  HIS F   2       0.118  30.482 -17.026  1.00 50.63 LIG 0.06  A 
ATOM     20  CD2 HIS F   2      -1.146  30.938 -17.210  1.00 51.31 LIG 0.14  A 
ATOM     21 NE2  HIS F   2      -1.319  32.006 -16.361  1.00 51.32 LIG-0.25  NA
ATOM     22  CE1 HIS F   2      -0.201  32.203 -15.686  1.00 50.87 LIG 0.23  A 
ATOM     23 ND1  HIS F   2       0.682  31.297 -16.067  1.00 50.82 LIG-0.24  NA
ENDBRANCH 18 19
ENDBRANCH 1 18
TORSDOF 8
ENDMDL
MODEL 126
USER: ADFR SOLUTION from run 49
USER: SCORE 7.566496 LL:  -1.539 LR:  -6.038 RR:   0.000 FEB:  -3.652
USER: RMSD 7.667849
USER: SEED 48
USER: STATUS no improvement in best in 24 clusters for 5 generations
USER: GENES 10
USER: genes 0 Translation |==|  0.73351 0.41576 0.60291
USER: genes 1 Rotation |==|  0.38999 0.02623 0.61232 0.52878
USER: genes 2 Torsion [C]-CA--N-[C] |==|  0.83057
USER: genes 3 Torsion [N]-C--CA-[N] |==|  0.40141
USER: genes 4 Torsion [C]-CA--N-[H3] |==|  0.00417
USER: genes 5 Torsion [N]-CA--C-[N] |==|  0.93889
USER: genes 6 Torsion [C]-N--CA-[C] |==|  0.32952
USER: genes 7 Torsion [N]-CA--C-[O] |==|  0.71391
USER: genes 8 Torsion [N]-CA--CB-[CG] |==|  0.26046
USER: genes 9 Torsion [CA]-CB--CG-[CD2] |==|  0.74483
ROOT
ATOM      1  CA  HIS F   2       2.356  29.636 -17.367  1.00 49.99 LIG 0.18  C 
ENDROOT
BRANCH 1 2
ATOM      2  N   HIS F   2       2.710  30.524 -16.259  1.00 49.83 LIG-0.35  N 
ATOM      3  C   GLY F   1       3.670  30.225 -15.386  1.00 49.82 LIG 0.24  C 
ATOM      4 O    GLY F   1       4.294  29.161 -15.402  1.00 49.53 LIG-0.27  OA
ATOM      5 H    HIS F   2       2.246  31.246 -16.226  1.00 49.83 LIG 0.16  HD
BRANCH 3 6
ATOM      6  CA  GLY F   1       3.965  31.284 -14.336  1.00 49.90 LIG 0.33  C 
BRANCH 6 7
ATOM      7  N   GLY F   1       4.328  30.710 -13.007  1.00 49.95 LIG-0.07  N 
ATOM      8 H3   GLY F   1       4.331  29.822 -13.058  1.00 49.95 LIG 0.27  HD
ATOM      9 H1   GLY F   1       5.137  30.996 -12.771  1.00 49.95 LIG 0.27  HD
ATOM     10 H2   GLY F   1       3.733  30.970 -12.399  1.00 49.95 LIG 0.27  HD
ENDBRANCH 6 7
ENDBRANCH 3 6
ENDBRANCH 1 2
BRANCH 1 11
ATOM     11  C   HIS F   2       3.546  29.426 -18.302  1.00 50.00 LIG 0.24  C 
ATOM     12 O    HIS F   2       3.599  28.445 -19.047  1.00 49.82 LIG-0.27  OA
ATOM     13  N   GLY F   3       4.490  30.364 -18.261  1.00 50.02 LIG-0.35  N 
ATOM     14 H    GLY F   3       4.471  31.038 -17.727  1.00 50.02 LIG 0.16  HD
BRANCH 13 15
ATOM     15  CA  GLY F   3       5.656  30.327 -19.135  1.00 50.20 LIG 0.21  C 
BRANCH 15 16
ATOM     16  C   GLY F   3       5.736  31.532 -20.051  1.00 50.42 LIG 0.21  C 
ATOM     17 O    GLY F   3       5.420  31.441 -21.238  1.00 50.69 LIG-0.29  OA
ENDBRANCH 15 16
ENDBRANCH 13 15
ENDBRANCH 1 11
BRANCH 1 18
ATOM     18  CB  HIS F   2       1.155  30.186 -18.140  1.00 49.99 LIG 0.10  C 
BRANCH 18 19
ATOM     19  CG  HIS F   2       1.531  31.022 -19.323  1.00 50.63 LIG 0.06  A 
ATOM     20  CD2 HIS F   2       1.725  32.358 -19.449  1.00 51.31 LIG 0.14  A 
ATOM     21 NE2  HIS F   2       2.067  32.597 -20.759  1.00 51.32 LIG-0.25  NA
ATOM     22  CE1 HIS F   2       2.076  31.451 -21.417  1.00 50.87 LIG 0.23  A 
ATOM     23 ND1  HIS F   2       1.758  30.485 -20.573  1.00 50.82 LIG-0.24  NA
ENDBRANCH 18 19
ENDBRANCH 1 18
TORSDOF 8
ENDMDL
MODEL 127
USER: ADFR SOLUTION from run 110
USER: SCORE 7.330937 LL:  -1.360 LR:  -6.027 RR:   0.000 FEB:  -3.641
USER: RMSD 6.085716
USER: SEED 109
USER: STATUS no improvement in best in 12 clusters for 5 generations
USER: GENES 10
USER: genes 0 Translation |==|  0.34559 0.64716 0.69109
USER: genes 1 Rotation |==|  0.11479 0.38247 0.76777 0.62686
USER: genes 2 Torsion [C]-CA--N-[C] |==|  0.15988
USER: genes 3 Torsion [N]-C--CA-[N] |==|  0.39234
USER: genes 4 Torsion [C]-CA--N-[H3] |==|  0.65729
USER: genes 5 Torsion [N]-CA--C-[N] |==|  0.12222
USER: genes 6 Torsion [C]-N--CA-[C] |==|  0.15571
USER: genes 7 Torsion [N]-CA--C-[O] |==|  0.09954
USER: genes 8 Torsion [N]-CA--CB-[CG] |==|  0.63081
USER: genes 9 Torsion [CA]-CB--CG-[CD2] |==|  0.44553
ROOT
ATOM      1  CA  HIS F   2      -4.336  32.586 -15.912  1.00 49.99 LIG 0.18  C 
ENDROOT
BRANCH 1 2
ATOM      2  N   HIS F   2      -2.937  32.177 -15.777  1.00 49.83 LIG-0.35  N 
ATOM      3  C   GLY F   1      -2.389  31.246 -16.555  1.00 49.82 LIG 0.24  C 
ATOM      4 O    GLY F   1      -3.022  30.615 -17.406  1.00 49.53 LIG-0.27  OA
ATOM      5 H    HIS F   2      -2.509  32.589 -15.156  1.00 49.83 LIG 0.16  HD
BRANCH 3 6
ATOM      6  CA  GLY F   1      -0.908  30.986 -16.337  1.00 49.90 LIG 0.33  C 
BRANCH 6 7
ATOM      7  N   GLY F   1      -0.542  29.543 -16.439  1.00 49.95 LIG-0.07  N 
ATOM      8 H3   GLY F   1      -0.143  29.283 -15.686  1.00 49.95 LIG 0.27  HD
ATOM      9 H1   GLY F   1      -1.278  29.058 -16.566  1.00 49.95 LIG 0.27  HD
ATOM     10 H2   GLY F   1       0.012  29.424 -17.124  1.00 49.95 LIG 0.27  HD
ENDBRANCH 6 7
ENDBRANCH 3 6
ENDBRANCH 1 2
BRANCH 1 11
ATOM     11  C   HIS F   2      -5.274  31.392 -15.749  1.00 50.00 LIG 0.24  C 
ATOM     12 O    HIS F   2      -6.223  31.223 -16.518  1.00 49.82 LIG-0.27  OA
ATOM     13  N   GLY F   3      -4.990  30.562 -14.747  1.00 50.02 LIG-0.35  N 
ATOM     14 H    GLY F   3      -4.344  30.686 -14.192  1.00 50.02 LIG 0.16  HD
BRANCH 13 15
ATOM     15  CA  GLY F   3      -5.763  29.351 -14.503  1.00 50.20 LIG 0.21  C 
BRANCH 15 16
ATOM     16  C   GLY F   3      -5.815  28.439 -15.712  1.00 50.42 LIG 0.21  C 
ATOM     17 O    GLY F   3      -4.842  28.331 -16.460  1.00 50.69 LIG-0.29  OA
ENDBRANCH 15 16
ENDBRANCH 13 15
ENDBRANCH 1 11
BRANCH 1 18
ATOM     18  CB  HIS F   2      -4.571  33.275 -17.258  1.00 49.99 LIG 0.10  C 
BRANCH 18 19
ATOM     19  CG  HIS F   2      -5.344  34.553 -17.155  1.00 50.63 LIG 0.06  A 
ATOM     20  CD2 HIS F   2      -5.456  35.601 -18.008  1.00 51.31 LIG 0.14  A 
ATOM     21 NE2  HIS F   2      -6.305  36.512 -17.423  1.00 51.32 LIG-0.25  NA
ATOM     22  CE1 HIS F   2      -6.694  36.043 -16.250  1.00 50.87 LIG 0.23  A 
ATOM     23 ND1  HIS F   2      -6.130  34.862 -16.065  1.00 50.82 LIG-0.24  NA
ENDBRANCH 18 19
ENDBRANCH 1 18
TORSDOF 8
ENDMDL
MODEL 128
USER: ADFR SOLUTION from run 15
USER: SCORE 7.375027 LL:  -1.396 LR:  -6.029 RR:   0.000 FEB:  -3.643
USER: RMSD 3.195953
USER: SEED 203046
USER: STATUS no improvement in best in 28 clusters for 5 generations
USER: GENES 10
USER: genes 0 Translation |==|  0.55445 0.55619 0.48819
USER: genes 1 Rotation |==|  0.54048 0.56952 0.45345 0.99128
USER: genes 2 Torsion [C]-CA--N-[C] |==|  0.16110
USER: genes 3 Torsion [N]-C--CA-[N] |==|  0.45344
USER: genes 4 Torsion [C]-CA--N-[H3] |==|  0.81130
USER: genes 5 Torsion [N]-CA--C-[N] |==|  0.11548
USER: genes 6 Torsion [C]-N--CA-[C] |==|  0.36222
USER: genes 7 Torsion [N]-CA--C-[O] |==|  0.87981
USER: genes 8 Torsion [N]-CA--CB-[CG] |==|  0.60245
USER: genes 9 Torsion [CA]-CB--CG-[CD2] |==|  0.88535
ROOT
ATOM      1  CA  HIS F   2      -0.733  31.426 -19.260  1.00 49.99 LIG 0.18  C 
ENDROOT
BRANCH 1 2
ATOM      2  N   HIS F   2      -0.944  32.015 -20.583  1.00 49.83 LIG-0.35  N 
ATOM      3  C   GLY F   1      -0.660  33.288 -20.850  1.00 49.82 LIG 0.24  C 
ATOM      4 O    GLY F   1      -0.255  34.085 -19.999  1.00 49.53 LIG-0.27  OA
ATOM      5 H    HIS F   2      -1.265  31.468 -21.163  1.00 49.83 LIG 0.16  HD
BRANCH 3 6
ATOM      6  CA  GLY F   1      -0.869  33.727 -22.289  1.00 49.90 LIG 0.33  C 
BRANCH 6 7
ATOM      7  N   GLY F   1      -0.924  35.210 -22.451  1.00 49.95 LIG-0.07  N 
ATOM      8 H3   GLY F   1      -1.662  35.524 -22.066  1.00 49.95 LIG 0.27  HD
ATOM      9 H1   GLY F   1      -0.210  35.577 -22.065  1.00 49.95 LIG 0.27  HD
ATOM     10 H2   GLY F   1      -0.931  35.415 -23.316  1.00 49.95 LIG 0.27  HD
ENDBRANCH 6 7
ENDBRANCH 3 6
ENDBRANCH 1 2
BRANCH 1 11
ATOM     11  C   HIS F   2      -1.515  32.187 -18.191  1.00 50.00 LIG 0.24  C 
ATOM     12 O    HIS F   2      -1.006  32.442 -17.097  1.00 49.82 LIG-0.27  OA
ATOM     13  N   GLY F   3      -2.751  32.553 -18.525  1.00 50.02 LIG-0.35  N 
ATOM     14 H    GLY F   3      -3.120  32.357 -19.276  1.00 50.02 LIG 0.16  HD
BRANCH 13 15
ATOM     15  CA  GLY F   3      -3.596  33.332 -17.628  1.00 50.20 LIG 0.21  C 
BRANCH 15 16
ATOM     16  C   GLY F   3      -4.216  34.535 -18.311  1.00 50.42 LIG 0.21  C 
ATOM     17 O    GLY F   3      -3.547  35.245 -19.062  1.00 50.69 LIG-0.29  OA
ENDBRANCH 15 16
ENDBRANCH 13 15
ENDBRANCH 1 11
BRANCH 1 18
ATOM     18  CB  HIS F   2       0.757  31.393 -18.914  1.00 49.99 LIG 0.10  C 
BRANCH 18 19
ATOM     19  CG  HIS F   2       1.173  30.172 -18.153  1.00 50.63 LIG 0.06  A 
ATOM     20  CD2 HIS F   2       0.573  29.503 -17.138  1.00 51.31 LIG 0.14  A 
ATOM     21 NE2  HIS F   2       1.384  28.440 -16.817  1.00 51.32 LIG-0.25  NA
ATOM     22  CE1 HIS F   2       2.447  28.459 -17.602  1.00 50.87 LIG 0.23  A 
ATOM     23 ND1  HIS F   2       2.344  29.493 -18.418  1.00 50.82 LIG-0.24  NA
ENDBRANCH 18 19
ENDBRANCH 1 18
TORSDOF 8
ENDMDL
MODEL 129
USER: ADFR SOLUTION from run 76
USER: SCORE 6.808271 LL:  -1.178 LR:  -6.019 RR:   0.000 FEB:  -3.633
USER: RMSD 5.953047
USER: SEED 75
USER: STATUS no improvement in best in 18 clusters for 5 generations
USER: GENES 10
USER: genes 0 Translation |==|  0.33629 0.65460 0.63817
USER: genes 1 Rotation |==|  0.17627 0.80108 0.46285 0.73058
USER: genes 2 Torsion [C]-CA--N-[C] |==|  0.62299
USER: genes 3 Torsion [N]-C--CA-[N] |==|  0.87305
USER: genes 4 Torsion [C]-CA--N-[H3] |==|  0.72185
USER: genes 5 Torsion [N]-CA--C-[N] |==|  0.08839
USER: genes 6 Torsion [C]-N--CA-[C] |==|  0.49974
USER: genes 7 Torsion [N]-CA--C-[O] |==|  0.20873
USER: genes 8 Torsion [N]-CA--CB-[CG] |==|  0.93470
USER: genes 9 Torsion [CA]-CB--CG-[CD2] |==|  0.75561
ROOT
ATOM      1  CA  HIS F   2      -4.496  32.681 -16.785  1.00 49.99 LIG 0.18  C 
ENDROOT
BRANCH 1 2
ATOM      2  N   HIS F   2      -5.647  31.940 -16.267  1.00 49.83 LIG-0.35  N 
ATOM      3  C   GLY F   1      -5.560  31.142 -15.205  1.00 49.82 LIG 0.24  C 
ATOM      4 O    GLY F   1      -4.503  30.917 -14.611  1.00 49.53 LIG-0.27  OA
ATOM      5 H    HIS F   2      -6.374  32.068 -16.708  1.00 49.83 LIG 0.16  HD
BRANCH 3 6
ATOM      6  CA  GLY F   1      -6.860  30.501 -14.749  1.00 49.90 LIG 0.33  C 
BRANCH 6 7
ATOM      7  N   GLY F   1      -8.002  31.460 -14.693  1.00 49.95 LIG-0.07  N 
ATOM      8 H3   GLY F   1      -8.131  31.720 -13.852  1.00 49.95 LIG 0.27  HD
ATOM      9 H1   GLY F   1      -7.819  32.170 -15.198  1.00 49.95 LIG 0.27  HD
ATOM     10 H2   GLY F   1      -8.739  31.063 -14.997  1.00 49.95 LIG 0.27  HD
ENDBRANCH 6 7
ENDBRANCH 3 6
ENDBRANCH 1 2
BRANCH 1 11
ATOM     11  C   HIS F   2      -4.878  34.122 -17.120  1.00 50.00 LIG 0.24  C 
ATOM     12 O    HIS F   2      -4.333  34.721 -18.050  1.00 49.82 LIG-0.27  OA
ATOM     13  N   GLY F   3      -5.828  34.663 -16.361  1.00 50.02 LIG-0.35  N 
ATOM     14 H    GLY F   3      -6.195  34.260 -15.695  1.00 50.02 LIG 0.16  HD
BRANCH 13 15
ATOM     15  CA  GLY F   3      -6.334  36.009 -16.597  1.00 50.20 LIG 0.21  C 
BRANCH 15 16
ATOM     16  C   GLY F   3      -7.412  36.408 -15.608  1.00 50.42 LIG 0.21  C 
ATOM     17 O    GLY F   3      -7.121  36.711 -14.450  1.00 50.69 LIG-0.29  OA
ENDBRANCH 15 16
ENDBRANCH 13 15
ENDBRANCH 1 11
BRANCH 1 18
ATOM     18  CB  HIS F   2      -3.909  31.981 -18.013  1.00 49.99 LIG 0.10  C 
BRANCH 18 19
ATOM     19  CG  HIS F   2      -4.219  30.518 -18.079  1.00 50.63 LIG 0.06  A 
ATOM     20  CD2 HIS F   2      -3.573  29.442 -17.566  1.00 51.31 LIG 0.14  A 
ATOM     21 NE2  HIS F   2      -4.297  28.328 -17.917  1.00 51.32 LIG-0.25  NA
ATOM     22  CE1 HIS F   2      -5.346  28.704 -18.627  1.00 50.87 LIG 0.23  A 
ATOM     23 ND1  HIS F   2      -5.324  30.020 -18.738  1.00 50.82 LIG-0.24  NA
ENDBRANCH 18 19
ENDBRANCH 1 18
TORSDOF 8
ENDMDL
MODEL 130
USER: ADFR SOLUTION from run 123
USER: SCORE 7.095657 LL:  -1.141 LR:  -6.016 RR:   0.000 FEB:  -3.629
USER: RMSD 5.061437
USER: SEED 122
USER: STATUS no improvement in best in 38 clusters for 5 generations
USER: GENES 10
USER: genes 0 Translation |==|  0.48644 0.62542 0.60920
USER: genes 1 Rotation |==|  0.11238 0.57191 0.78325 0.61978
USER: genes 2 Torsion [C]-CA--N-[C] |==|  0.75059
USER: genes 3 Torsion [N]-C--CA-[N] |==|  0.87008
USER: genes 4 Torsion [C]-CA--N-[H3] |==|  0.68942
USER: genes 5 Torsion [N]-CA--C-[N] |==|  0.95616
USER: genes 6 Torsion [C]-N--CA-[C] |==|  0.32269
USER: genes 7 Torsion [N]-CA--C-[O] |==|  0.08163
USER: genes 8 Torsion [N]-CA--CB-[CG] |==|  0.56124
USER: genes 9 Torsion [CA]-CB--CG-[CD2] |==|  0.32303
ROOT
ATOM      1  CA  HIS F   2      -1.906  32.309 -17.263  1.00 49.99 LIG 0.18  C 
ENDROOT
BRANCH 1 2
ATOM      2  N   HIS F   2      -0.904  31.259 -17.074  1.00 49.83 LIG-0.35  N 
ATOM      3  C   GLY F   1      -0.001  31.305 -16.097  1.00 49.82 LIG 0.24  C 
ATOM      4 O    GLY F   1       0.104  32.253 -15.314  1.00 49.53 LIG-0.27  OA
ATOM      5 H    HIS F   2      -0.954  30.619 -17.646  1.00 49.83 LIG 0.16  HD
BRANCH 3 6
ATOM      6  CA  GLY F   1       0.923  30.103 -15.991  1.00 49.90 LIG 0.33  C 
BRANCH 6 7
ATOM      7  N   GLY F   1       0.203  28.798 -16.065  1.00 49.95 LIG-0.07  N 
ATOM      8 H3   GLY F   1       0.245  28.390 -15.275  1.00 49.95 LIG 0.27  HD
ATOM      9 H1   GLY F   1      -0.649  28.941 -16.280  1.00 49.95 LIG 0.27  HD
ATOM     10 H2   GLY F   1       0.582  28.284 -16.685  1.00 49.95 LIG 0.27  HD
ENDBRANCH 6 7
ENDBRANCH 3 6
ENDBRANCH 1 2
BRANCH 1 11
ATOM     11  C   HIS F   2      -3.175  32.004 -16.469  1.00 50.00 LIG 0.24  C 
ATOM     12 O    HIS F   2      -4.020  32.880 -16.268  1.00 49.82 LIG-0.27  OA
ATOM     13  N   GLY F   3      -3.301  30.753 -16.033  1.00 50.02 LIG-0.35  N 
ATOM     14 H    GLY F   3      -2.705  30.144 -16.148  1.00 50.02 LIG 0.16  HD
BRANCH 13 15
ATOM     15  CA  GLY F   3      -4.483  30.302 -15.309  1.00 50.20 LIG 0.21  C 
BRANCH 15 16
ATOM     16  C   GLY F   3      -5.252  29.232 -16.059  1.00 50.42 LIG 0.21  C 
ATOM     17 O    GLY F   3      -4.672  28.460 -16.823  1.00 50.69 LIG-0.29  OA
ENDBRANCH 15 16
ENDBRANCH 13 15
ENDBRANCH 1 11
BRANCH 1 18
ATOM     18  CB  HIS F   2      -2.230  32.487 -18.748  1.00 49.99 LIG 0.10  C 
BRANCH 18 19
ATOM     19  CG  HIS F   2      -2.812  33.826 -19.083  1.00 50.63 LIG 0.06  A 
ATOM     20  CD2 HIS F   2      -2.346  34.833 -19.861  1.00 51.31 LIG 0.14  A 
ATOM     21 NE2  HIS F   2      -3.286  35.836 -19.832  1.00 51.32 LIG-0.25  NA
ATOM     22  CE1 HIS F   2      -4.290  35.462 -19.058  1.00 50.87 LIG 0.23  A 
ATOM     23 ND1  HIS F   2      -4.030  34.252 -18.595  1.00 50.82 LIG-0.24  NA
ENDBRANCH 18 19
ENDBRANCH 1 18
TORSDOF 8
ENDMDL
MODEL 131
USER: ADFR SOLUTION from run 156
USER: SCORE 7.241576 LL:  -1.292 LR:  -6.018 RR:   0.000 FEB:  -3.631
USER: RMSD 5.376725
USER: SEED 155
USER: STATUS no improvement in best in 25 clusters for 5 generations
USER: GENES 10
USER: genes 0 Translation |==|  0.59757 0.59499 0.49279
USER: genes 1 Rotation |==|  0.72355 0.86396 0.64269 0.71725
USER: genes 2 Torsion [C]-CA--N-[C] |==|  0.84444
USER: genes 3 Torsion [N]-C--CA-[N] |==|  0.67017
USER: genes 4 Torsion [C]-CA--N-[H3] |==|  0.33807
USER: genes 5 Torsion [N]-CA--C-[N] |==|  0.88214
USER: genes 6 Torsion [C]-N--CA-[C] |==|  0.53093
USER: genes 7 Torsion [N]-CA--C-[O] |==|  0.00743
USER: genes 8 Torsion [N]-CA--CB-[CG] |==|  0.54990
USER: genes 9 Torsion [CA]-CB--CG-[CD2] |==|  0.86328
ROOT
ATOM      1  CA  HIS F   2       0.011  31.921 -19.184  1.00 49.99 LIG 0.18  C 
ENDROOT
BRANCH 1 2
ATOM      2  N   HIS F   2      -1.126  32.115 -18.283  1.00 49.83 LIG-0.35  N 
ATOM      3  C   GLY F   1      -1.712  31.102 -17.648  1.00 49.82 LIG 0.24  C 
ATOM      4 O    GLY F   1      -1.388  29.922 -17.810  1.00 49.53 LIG-0.27  OA
ATOM      5 H    HIS F   2      -1.375  32.933 -18.204  1.00 49.83 LIG 0.16  HD
BRANCH 3 6
ATOM      6  CA  GLY F   1      -2.833  31.476 -16.693  1.00 49.90 LIG 0.33  C 
BRANCH 6 7
ATOM      7  N   GLY F   1      -2.557  31.085 -15.279  1.00 49.95 LIG-0.07  N 
ATOM      8 H3   GLY F   1      -2.582  31.808 -14.761  1.00 49.95 LIG 0.27  HD
ATOM      9 H1   GLY F   1      -3.173  30.503 -15.006  1.00 49.95 LIG 0.27  HD
ATOM     10 H2   GLY F   1      -1.752  30.710 -15.226  1.00 49.95 LIG 0.27  HD
ENDBRANCH 6 7
ENDBRANCH 3 6
ENDBRANCH 1 2
BRANCH 1 11
ATOM     11  C   HIS F   2       1.157  31.203 -18.473  1.00 50.00 LIG 0.24  C 
ATOM     12 O    HIS F   2       1.794  30.313 -19.041  1.00 49.82 LIG-0.27  OA
ATOM     13  N   GLY F   3       1.416  31.607 -17.231  1.00 50.02 LIG-0.35  N 
ATOM     14 H    GLY F   3       0.959  32.210 -16.821  1.00 50.02 LIG 0.16  HD
BRANCH 13 15
ATOM     15  CA  GLY F   3       2.513  31.053 -16.450  1.00 50.20 LIG 0.21  C 
BRANCH 15 16
ATOM     16  C   GLY F   3       2.454  31.460 -14.991  1.00 50.42 LIG 0.21  C 
ATOM     17 O    GLY F   3       1.521  32.143 -14.567  1.00 50.69 LIG-0.29  OA
ENDBRANCH 15 16
ENDBRANCH 13 15
ENDBRANCH 1 11
BRANCH 1 18
ATOM     18  CB  HIS F   2       0.486  33.260 -19.752  1.00 49.99 LIG 0.10  C 
BRANCH 18 19
ATOM     19  CG  HIS F   2       1.337  33.128 -20.977  1.00 50.63 LIG 0.06  A 
ATOM     20  CD2 HIS F   2       2.418  32.351 -21.236  1.00 51.31 LIG 0.14  A 
ATOM     21 NE2  HIS F   2       2.810  32.617 -22.527  1.00 51.32 LIG-0.25  NA
ATOM     22  CE1 HIS F   2       2.004  33.529 -23.040  1.00 50.87 LIG 0.23  A 
ATOM     23 ND1  HIS F   2       1.105  33.853 -22.127  1.00 50.82 LIG-0.24  NA
ENDBRANCH 18 19
ENDBRANCH 1 18
TORSDOF 8
ENDMDL
MODEL 132
USER: ADFR SOLUTION from run 32
USER: SCORE 7.429051 LL:  -1.561 LR:  -6.013 RR:   0.000 FEB:  -3.627
USER: RMSD 6.032819
USER: SEED 31
USER: STATUS no improvement in best in 33 clusters for 5 generations
USER: GENES 10
USER: genes 0 Translation |==|  0.69176 0.53533 0.56765
USER: genes 1 Rotation |==|  0.69334 0.86266 0.57981 0.77336
USER: genes 2 Torsion [C]-CA--N-[C] |==|  0.78334
USER: genes 3 Torsion [N]-C--CA-[N] |==|  0.47338
USER: genes 4 Torsion [C]-CA--N-[H3] |==|  0.30889
USER: genes 5 Torsion [N]-CA--C-[N] |==|  0.87942
USER: genes 6 Torsion [C]-N--CA-[C] |==|  0.17195
USER: genes 7 Torsion [N]-CA--C-[O] |==|  0.05623
USER: genes 8 Torsion [N]-CA--CB-[CG] |==|  0.47583
USER: genes 9 Torsion [CA]-CB--CG-[CD2] |==|  0.16903
ROOT
ATOM      1  CA  HIS F   2       1.636  31.161 -17.949  1.00 49.99 LIG 0.18  C 
ENDROOT
BRANCH 1 2
ATOM      2  N   HIS F   2       0.463  31.724 -17.279  1.00 49.83 LIG-0.35  N 
ATOM      3  C   GLY F   1      -0.500  30.960 -16.767  1.00 49.82 LIG 0.24  C 
ATOM      4 O    GLY F   1      -0.514  29.730 -16.864  1.00 49.53 LIG-0.27  OA
ATOM      5 H    HIS F   2       0.455  32.583 -17.249  1.00 49.83 LIG 0.16  HD
BRANCH 3 6
ATOM      6  CA  GLY F   1      -1.614  31.695 -16.041  1.00 49.90 LIG 0.33  C 
BRANCH 6 7
ATOM      7  N   GLY F   1      -2.768  30.816 -15.690  1.00 49.95 LIG-0.07  N 
ATOM      8 H3   GLY F   1      -2.803  30.710 -14.807  1.00 49.95 LIG 0.27  HD
ATOM      9 H1   GLY F   1      -3.524  31.191 -15.974  1.00 49.95 LIG 0.27  HD
ATOM     10 H2   GLY F   1      -2.667  30.023 -16.080  1.00 49.95 LIG 0.27  HD
ENDBRANCH 6 7
ENDBRANCH 3 6
ENDBRANCH 1 2
BRANCH 1 11
ATOM     11  C   HIS F   2       2.649  30.640 -16.931  1.00 50.00 LIG 0.24  C 
ATOM     12 O    HIS F   2       3.219  29.559 -17.103  1.00 49.82 LIG-0.27  OA
ATOM     13  N   GLY F   3       2.873  31.424 -15.879  1.00 50.02 LIG-0.35  N 
ATOM     14 H    GLY F   3       2.461  32.167 -15.741  1.00 50.02 LIG 0.16  HD
BRANCH 13 15
ATOM     15  CA  GLY F   3       3.853  31.085 -14.855  1.00 50.20 LIG 0.21  C 
BRANCH 15 16
ATOM     16  C   GLY F   3       5.263  30.996 -15.404  1.00 50.42 LIG 0.21  C 
ATOM     17 O    GLY F   3       5.558  31.542 -16.468  1.00 50.69 LIG-0.29  OA
ENDBRANCH 15 16
ENDBRANCH 13 15
ENDBRANCH 1 11
BRANCH 1 18
ATOM     18  CB  HIS F   2       2.283  32.196 -18.870  1.00 49.99 LIG 0.10  C 
BRANCH 18 19
ATOM     19  CG  HIS F   2       3.603  31.764 -19.431  1.00 50.63 LIG 0.06  A 
ATOM     20  CD2 HIS F   2       3.938  30.714 -20.220  1.00 51.31 LIG 0.14  A 
ATOM     21 NE2  HIS F   2       5.292  30.794 -20.450  1.00 51.32 LIG-0.25  NA
ATOM     22  CE1 HIS F   2       5.772  31.852 -19.819  1.00 50.87 LIG 0.23  A 
ATOM     23 ND1  HIS F   2       4.773  32.455 -19.199  1.00 50.82 LIG-0.24  NA
ENDBRANCH 18 19
ENDBRANCH 1 18
TORSDOF 8
ENDMDL
MODEL 133
USER: ADFR SOLUTION from run 146
USER: SCORE 7.207623 LL:  -1.393 LR:  -6.001 RR:   0.000 FEB:  -3.614
USER: RMSD 6.244450
USER: SEED 145
USER: STATUS no improvement in best in 32 clusters for 5 generations
USER: GENES 10
USER: genes 0 Translation |==|  0.32111 0.52214 0.66624
USER: genes 1 Rotation |==|  0.48937 0.51652 0.03923 0.69316
USER: genes 2 Torsion [C]-CA--N-[C] |==|  0.18888
USER: genes 3 Torsion [N]-C--CA-[N] |==|  0.37967
USER: genes 4 Torsion [C]-CA--N-[H3] |==|  0.95643
USER: genes 5 Torsion [N]-CA--C-[N] |==|  0.05828
USER: genes 6 Torsion [C]-N--CA-[C] |==|  0.25418
USER: genes 7 Torsion [N]-CA--C-[O] |==|  0.05566
USER: genes 8 Torsion [N]-CA--CB-[CG] |==|  0.67867
USER: genes 9 Torsion [CA]-CB--CG-[CD2] |==|  0.08672
ROOT
ATOM      1  CA  HIS F   2      -4.758  30.992 -16.322  1.00 49.99 LIG 0.18  C 
ENDROOT
BRANCH 1 2
ATOM      2  N   HIS F   2      -4.661  30.748 -17.762  1.00 49.83 LIG-0.35  N 
ATOM      3  C   GLY F   1      -4.054  29.674 -18.263  1.00 49.82 LIG 0.24  C 
ATOM      4 O    GLY F   1      -3.477  28.835 -17.566  1.00 49.53 LIG-0.27  OA
ATOM      5 H    HIS F   2      -5.029  31.355 -18.246  1.00 49.83 LIG 0.16  HD
BRANCH 3 6
ATOM      6  CA  GLY F   1      -4.102  29.529 -19.774  1.00 49.90 LIG 0.33  C 
BRANCH 6 7
ATOM      7  N   GLY F   1      -2.797  29.112 -20.367  1.00 49.95 LIG-0.07  N 
ATOM      8 H3   GLY F   1      -2.147  29.233 -19.771  1.00 49.95 LIG 0.27  HD
ATOM      9 H1   GLY F   1      -2.835  28.251 -20.593  1.00 49.95 LIG 0.27  HD
ATOM     10 H2   GLY F   1      -2.630  29.601 -21.092  1.00 49.95 LIG 0.27  HD
ENDBRANCH 6 7
ENDBRANCH 3 6
ENDBRANCH 1 2
BRANCH 1 11
ATOM     11  C   HIS F   2      -3.384  31.294 -15.725  1.00 50.00 LIG 0.24  C 
ATOM     12 O    HIS F   2      -3.172  31.141 -14.519  1.00 49.82 LIG-0.27  OA
ATOM     13  N   GLY F   3      -2.456  31.711 -16.582  1.00 50.02 LIG-0.35  N 
ATOM     14 H    GLY F   3      -2.604  31.843 -17.419  1.00 50.02 LIG 0.16  HD
BRANCH 13 15
ATOM     15  CA  GLY F   3      -1.086  31.984 -16.167  1.00 50.20 LIG 0.21  C 
BRANCH 15 16
ATOM     16  C   GLY F   3      -0.183  30.774 -16.307  1.00 50.42 LIG 0.21  C 
ATOM     17 O    GLY F   3      -0.493  29.841 -17.048  1.00 50.69 LIG-0.29  OA
ENDBRANCH 15 16
ENDBRANCH 13 15
ENDBRANCH 1 11
BRANCH 1 18
ATOM     18  CB  HIS F   2      -5.403  29.801 -15.612  1.00 49.99 LIG 0.10  C 
BRANCH 18 19
ATOM     19  CG  HIS F   2      -6.719  30.119 -14.973  1.00 50.63 LIG 0.06  A 
ATOM     20  CD2 HIS F   2      -7.690  31.001 -15.316  1.00 51.31 LIG 0.14  A 
ATOM     21 NE2  HIS F   2      -8.696  30.879 -14.387  1.00 51.32 LIG-0.25  NA
ATOM     22  CE1 HIS F   2      -8.353  29.960 -13.501  1.00 50.87 LIG 0.23  A 
ATOM     23 ND1  HIS F   2      -7.166  29.484 -13.833  1.00 50.82 LIG-0.24  NA
ENDBRANCH 18 19
ENDBRANCH 1 18
TORSDOF 8
ENDMDL
MODEL 134
USER: ADFR SOLUTION from run 137
USER: SCORE 6.851546 LL:  -0.962 LR:  -5.984 RR:   0.000 FEB:  -3.598
USER: RMSD 6.229756
USER: SEED 136
USER: STATUS no improvement in best in 24 clusters for 5 generations
USER: GENES 10
USER: genes 0 Translation |==|  0.31233 0.54736 0.67558
USER: genes 1 Rotation |==|  0.48566 0.23465 0.23975 0.83415
USER: genes 2 Torsion [C]-CA--N-[C] |==|  0.78889
USER: genes 3 Torsion [N]-C--CA-[N] |==|  0.95699
USER: genes 4 Torsion [C]-CA--N-[H3] |==|  0.99522
USER: genes 5 Torsion [N]-CA--C-[N] |==|  0.47676
USER: genes 6 Torsion [C]-N--CA-[C] |==|  0.56311
USER: genes 7 Torsion [N]-CA--C-[O] |==|  0.36190
USER: genes 8 Torsion [N]-CA--CB-[CG] |==|  0.72552
USER: genes 9 Torsion [CA]-CB--CG-[CD2] |==|  0.18265
ROOT
ATOM      1  CA  HIS F   2      -4.909  31.314 -16.168  1.00 49.99 LIG 0.18  C 
ENDROOT
BRANCH 1 2
ATOM      2  N   HIS F   2      -3.700  30.579 -16.540  1.00 49.83 LIG-0.35  N 
ATOM      3  C   GLY F   1      -3.359  30.363 -17.809  1.00 49.82 LIG 0.24  C 
ATOM      4 O    GLY F   1      -4.057  30.710 -18.766  1.00 49.53 LIG-0.27  OA
ATOM      5 H    HIS F   2      -3.237  30.303 -15.870  1.00 49.83 LIG 0.16  HD
BRANCH 3 6
ATOM      6  CA  GLY F   1      -2.038  29.646 -18.029  1.00 49.90 LIG 0.33  C 
BRANCH 6 7
ATOM      7  N   GLY F   1      -1.170  29.625 -16.815  1.00 49.95 LIG-0.07  N 
ATOM      8 H3   GLY F   1      -1.571  30.068 -16.156  1.00 49.95 LIG 0.27  HD
ATOM      9 H1   GLY F   1      -1.030  28.782 -16.564  1.00 49.95 LIG 0.27  HD
ATOM     10 H2   GLY F   1      -0.390  30.012 -17.000  1.00 49.95 LIG 0.27  HD
ENDBRANCH 6 7
ENDBRANCH 3 6
ENDBRANCH 1 2
BRANCH 1 11
ATOM     11  C   HIS F   2      -4.720  32.816 -16.371  1.00 50.00 LIG 0.24  C 
ATOM     12 O    HIS F   2      -3.615  33.281 -16.659  1.00 49.82 LIG-0.27  OA
ATOM     13  N   GLY F   3      -5.812  33.564 -16.228  1.00 50.02 LIG-0.35  N 
ATOM     14 H    GLY F   3      -6.580  33.250 -16.003  1.00 50.02 LIG 0.16  HD
BRANCH 13 15
ATOM     15  CA  GLY F   3      -5.797  35.005 -16.445  1.00 50.20 LIG 0.21  C 
BRANCH 15 16
ATOM     16  C   GLY F   3      -6.928  35.715 -15.727  1.00 50.42 LIG 0.21  C 
ATOM     17 O    GLY F   3      -6.705  36.702 -15.024  1.00 50.69 LIG-0.29  OA
ENDBRANCH 15 16
ENDBRANCH 13 15
ENDBRANCH 1 11
BRANCH 1 18
ATOM     18  CB  HIS F   2      -5.303  31.012 -14.721  1.00 49.99 LIG 0.10  C 
BRANCH 18 19
ATOM     19  CG  HIS F   2      -6.385  29.984 -14.591  1.00 50.63 LIG 0.06  A 
ATOM     20  CD2 HIS F   2      -6.405  28.663 -14.896  1.00 51.31 LIG 0.14  A 
ATOM     21 NE2  HIS F   2      -7.652  28.189 -14.567  1.00 51.32 LIG-0.25  NA
ATOM     22  CE1 HIS F   2      -8.376  29.184 -14.084  1.00 50.87 LIG 0.23  A 
ATOM     23 ND1  HIS F   2      -7.634  30.278 -14.086  1.00 50.82 LIG-0.24  NA
ENDBRANCH 18 19
ENDBRANCH 1 18
TORSDOF 8
ENDMDL
MODEL 135
USER: ADFR SOLUTION from run 29
USER: SCORE 6.976061 LL:  -1.111 LR:  -5.976 RR:   0.000 FEB:  -3.590
USER: RMSD 7.130337
USER: SEED 28
USER: STATUS no improvement in best in 29 clusters for 5 generations
USER: GENES 10
USER: genes 0 Translation |==|  0.55857 0.65277 0.20238
USER: genes 1 Rotation |==|  0.57238 0.72562 0.28749 0.88561
USER: genes 2 Torsion [C]-CA--N-[C] |==|  0.60692
USER: genes 3 Torsion [N]-C--CA-[N] |==|  0.03774
USER: genes 4 Torsion [C]-CA--N-[H3] |==|  0.17861
USER: genes 5 Torsion [N]-CA--C-[N] |==|  0.41907
USER: genes 6 Torsion [C]-N--CA-[C] |==|  0.31300
USER: genes 7 Torsion [N]-CA--C-[O] |==|  0.84204
USER: genes 8 Torsion [N]-CA--CB-[CG] |==|  0.66845
USER: genes 9 Torsion [CA]-CB--CG-[CD2] |==|  0.90595
ROOT
ATOM      1  CA  HIS F   2      -0.662  32.658 -23.976  1.00 49.99 LIG 0.18  C 
ENDROOT
BRANCH 1 2
ATOM      2  N   HIS F   2      -1.178  33.682 -24.884  1.00 49.83 LIG-0.35  N 
ATOM      3  C   GLY F   1      -2.339  33.549 -25.521  1.00 49.82 LIG 0.24  C 
ATOM      4 O    GLY F   1      -3.042  32.537 -25.447  1.00 49.53 LIG-0.27  OA
ATOM      5 H    HIS F   2      -0.667  34.369 -24.966  1.00 49.83 LIG 0.16  HD
BRANCH 3 6
ATOM      6  CA  GLY F   1      -2.769  34.732 -26.373  1.00 49.90 LIG 0.33  C 
BRANCH 6 7
ATOM      7  N   GLY F   1      -1.672  35.716 -26.610  1.00 49.95 LIG-0.07  N 
ATOM      8 H3   GLY F   1      -1.025  35.331 -27.084  1.00 49.95 LIG 0.27  HD
ATOM      9 H1   GLY F   1      -1.992  36.416 -27.058  1.00 49.95 LIG 0.27  HD
ATOM     10 H2   GLY F   1      -1.344  35.990 -25.829  1.00 49.95 LIG 0.27  HD
ENDBRANCH 6 7
ENDBRANCH 3 6
ENDBRANCH 1 2
BRANCH 1 11
ATOM     11  C   HIS F   2       0.018  33.293 -22.764  1.00 50.00 LIG 0.24  C 
ATOM     12 O    HIS F   2       0.547  34.404 -22.846  1.00 49.82 LIG-0.27  OA
ATOM     13  N   GLY F   3      -0.015  32.582 -21.639  1.00 50.02 LIG-0.35  N 
ATOM     14 H    GLY F   3      -0.361  31.796 -21.581  1.00 50.02 LIG 0.16  HD
BRANCH 13 15
ATOM     15  CA  GLY F   3       0.543  33.083 -20.390  1.00 50.20 LIG 0.21  C 
BRANCH 15 16
ATOM     16  C   GLY F   3      -0.520  33.352 -19.343  1.00 50.42 LIG 0.21  C 
ATOM     17 O    GLY F   3      -1.452  34.122 -19.578  1.00 50.69 LIG-0.29  OA
ENDBRANCH 15 16
ENDBRANCH 13 15
ENDBRANCH 1 11
BRANCH 1 18
ATOM     18  CB  HIS F   2       0.306  31.724 -24.706  1.00 49.99 LIG 0.10  C 
BRANCH 18 19
ATOM     19  CG  HIS F   2      -0.131  30.291 -24.716  1.00 50.63 LIG 0.06  A 
ATOM     20  CD2 HIS F   2      -0.804  29.555 -23.799  1.00 51.31 LIG 0.14  A 
ATOM     21 NE2  HIS F   2      -0.952  28.291 -24.321  1.00 51.32 LIG-0.25  NA
ATOM     22  CE1 HIS F   2      -0.384  28.251 -25.514  1.00 50.87 LIG 0.23  A 
ATOM     23 ND1  HIS F   2       0.117  29.445 -25.777  1.00 50.82 LIG-0.24  NA
ENDBRANCH 18 19
ENDBRANCH 1 18
TORSDOF 8
ENDMDL
MODEL 136
USER: ADFR SOLUTION from run 140
USER: SCORE 7.159154 LL:  -1.413 LR:  -5.977 RR:   0.000 FEB:  -3.591
USER: RMSD 6.498588
USER: SEED 139
USER: STATUS no improvement in best in 30 clusters for 5 generations
USER: GENES 10
USER: genes 0 Translation |==|  0.26724 0.48383 0.75715
USER: genes 1 Rotation |==|  0.32510 0.83489 0.24199 0.70172
USER: genes 2 Torsion [C]-CA--N-[C] |==|  0.55000
USER: genes 3 Torsion [N]-C--CA-[N] |==|  0.89129
USER: genes 4 Torsion [C]-CA--N-[H3] |==|  0.10274
USER: genes 5 Torsion [N]-CA--C-[N] |==|  0.48739
USER: genes 6 Torsion [C]-N--CA-[C] |==|  0.63257
USER: genes 7 Torsion [N]-CA--C-[O] |==|  0.14119
USER: genes 8 Torsion [N]-CA--CB-[CG] |==|  0.23392
USER: genes 9 Torsion [CA]-CB--CG-[CD2] |==|  0.84996
ROOT
ATOM      1  CA  HIS F   2      -5.687  30.504 -14.822  1.00 49.99 LIG 0.18  C 
ENDROOT
BRANCH 1 2
ATOM      2  N   HIS F   2      -7.021  31.085 -14.978  1.00 49.83 LIG-0.35  N 
ATOM      3  C   GLY F   1      -8.066  30.673 -14.263  1.00 49.82 LIG 0.24  C 
ATOM      4 O    GLY F   1      -8.011  29.737 -13.461  1.00 49.53 LIG-0.27  OA
ATOM      5 H    HIS F   2      -7.065  31.710 -15.567  1.00 49.83 LIG 0.16  HD
BRANCH 3 6
ATOM      6  CA  GLY F   1      -9.366  31.426 -14.492  1.00 49.90 LIG 0.33  C 
BRANCH 6 7
ATOM      7  N   GLY F   1      -9.172  32.896 -14.664  1.00 49.95 LIG-0.07  N 
ATOM      8 H3   GLY F   1      -8.422  33.045 -15.120  1.00 49.95 LIG 0.27  HD
ATOM      9 H1   GLY F   1      -9.863  33.236 -15.110  1.00 49.95 LIG 0.27  HD
ATOM     10 H2   GLY F   1      -9.115  33.284 -13.865  1.00 49.95 LIG 0.27  HD
ENDBRANCH 6 7
ENDBRANCH 3 6
ENDBRANCH 1 2
BRANCH 1 11
ATOM     11  C   HIS F   2      -4.617  31.424 -15.407  1.00 50.00 LIG 0.24  C 
ATOM     12 O    HIS F   2      -4.930  32.465 -15.991  1.00 49.82 LIG-0.27  OA
ATOM     13  N   GLY F   3      -3.356  31.034 -15.235  1.00 50.02 LIG-0.35  N 
ATOM     14 H    GLY F   3      -3.133  30.297 -14.850  1.00 50.02 LIG 0.16  HD
BRANCH 13 15
ATOM     15  CA  GLY F   3      -2.229  31.836 -15.690  1.00 50.20 LIG 0.21  C 
BRANCH 15 16
ATOM     16  C   GLY F   3      -1.207  31.022 -16.458  1.00 50.42 LIG 0.21  C 
ATOM     17 O    GLY F   3      -1.554  30.298 -17.391  1.00 50.69 LIG-0.29  OA
ENDBRANCH 15 16
ENDBRANCH 13 15
ENDBRANCH 1 11
BRANCH 1 18
ATOM     18  CB  HIS F   2      -5.620  29.120 -15.471  1.00 49.99 LIG 0.10  C 
BRANCH 18 19
ATOM     19  CG  HIS F   2      -5.339  29.156 -16.942  1.00 50.63 LIG 0.06  A 
ATOM     20  CD2 HIS F   2      -5.961  29.808 -17.955  1.00 51.31 LIG 0.14  A 
ATOM     21 NE2  HIS F   2      -5.284  29.499 -19.111  1.00 51.32 LIG-0.25  NA
ATOM     22  CE1 HIS F   2      -4.287  28.681 -18.821  1.00 50.87 LIG 0.23  A 
ATOM     23 ND1  HIS F   2      -4.297  28.460 -17.518  1.00 50.82 LIG-0.24  NA
ENDBRANCH 18 19
ENDBRANCH 1 18
TORSDOF 8
ENDMDL
MODEL 137
USER: ADFR SOLUTION from run 146
USER: SCORE 7.378083 LL:  -1.451 LR:  -5.979 RR:   0.000 FEB:  -3.593
USER: RMSD 5.930568
USER: SEED 145
USER: STATUS no improvement in best in 32 clusters for 5 generations
USER: GENES 10
USER: genes 0 Translation |==|  0.65380 0.51770 0.41881
USER: genes 1 Rotation |==|  0.65801 0.86116 0.73207 0.70185
USER: genes 2 Torsion [C]-CA--N-[C] |==|  0.16095
USER: genes 3 Torsion [N]-C--CA-[N] |==|  0.32926
USER: genes 4 Torsion [C]-CA--N-[H3] |==|  0.58491
USER: genes 5 Torsion [N]-CA--C-[N] |==|  0.10186
USER: genes 6 Torsion [C]-N--CA-[C] |==|  0.39209
USER: genes 7 Torsion [N]-CA--C-[O] |==|  0.99748
USER: genes 8 Torsion [N]-CA--CB-[CG] |==|  0.58378
USER: genes 9 Torsion [CA]-CB--CG-[CD2] |==|  0.93492
ROOT
ATOM      1  CA  HIS F   2       0.981  30.936 -20.405  1.00 49.99 LIG 0.18  C 
ENDROOT
BRANCH 1 2
ATOM      2  N   HIS F   2      -0.274  30.549 -19.760  1.00 49.83 LIG-0.35  N 
ATOM      3  C   GLY F   1      -0.602  30.957 -18.536  1.00 49.82 LIG 0.24  C 
ATOM      4 O    GLY F   1       0.143  31.639 -17.827  1.00 49.53 LIG-0.27  OA
ATOM      5 H    HIS F   2      -0.774  30.040 -20.241  1.00 49.83 LIG 0.16  HD
BRANCH 3 6
ATOM      6  CA  GLY F   1      -1.971  30.527 -18.037  1.00 49.90 LIG 0.33  C 
BRANCH 6 7
ATOM      7  N   GLY F   1      -1.911  29.672 -16.815  1.00 49.95 LIG-0.07  N 
ATOM      8 H3   GLY F   1      -2.600  29.108 -16.813  1.00 49.95 LIG 0.27  HD
ATOM      9 H1   GLY F   1      -1.150  29.210 -16.813  1.00 49.95 LIG 0.27  HD
ATOM     10 H2   GLY F   1      -1.947  30.186 -16.090  1.00 49.95 LIG 0.27  HD
ENDBRANCH 6 7
ENDBRANCH 3 6
ENDBRANCH 1 2
BRANCH 1 11
ATOM     11  C   HIS F   2       2.182  30.508 -19.563  1.00 50.00 LIG 0.24  C 
ATOM     12 O    HIS F   2       3.185  31.223 -19.484  1.00 49.82 LIG-0.27  OA
ATOM     13  N   GLY F   3       2.064  29.343 -18.930  1.00 50.02 LIG-0.35  N 
ATOM     14 H    GLY F   3       1.378  28.829 -19.001  1.00 50.02 LIG 0.16  HD
BRANCH 13 15
ATOM     15  CA  GLY F   3       3.106  28.833 -18.048  1.00 50.20 LIG 0.21  C 
BRANCH 15 16
ATOM     16  C   GLY F   3       2.544  28.150 -16.817  1.00 50.42 LIG 0.21  C 
ATOM     17 O    GLY F   3       1.328  28.085 -16.635  1.00 50.69 LIG-0.29  OA
ENDBRANCH 15 16
ENDBRANCH 13 15
ENDBRANCH 1 11
BRANCH 1 18
ATOM     18  CB  HIS F   2       1.015  32.443 -20.664  1.00 49.99 LIG 0.10  C 
BRANCH 18 19
ATOM     19  CG  HIS F   2       1.819  32.831 -21.866  1.00 50.63 LIG 0.06  A 
ATOM     20  CD2 HIS F   2       2.828  32.196 -22.510  1.00 51.31 LIG 0.14  A 
ATOM     21 NE2  HIS F   2       3.203  32.994 -23.565  1.00 51.32 LIG-0.25  NA
ATOM     22  CE1 HIS F   2       2.456  34.084 -23.565  1.00 50.87 LIG 0.23  A 
ATOM     23 ND1  HIS F   2       1.612  34.010 -22.552  1.00 50.82 LIG-0.24  NA
ENDBRANCH 18 19
ENDBRANCH 1 18
TORSDOF 8
ENDMDL
MODEL 138
USER: ADFR SOLUTION from run 170
USER: SCORE 7.218302 LL:  -1.417 LR:  -5.982 RR:   0.000 FEB:  -3.596
USER: RMSD 6.440116
USER: SEED 169
USER: STATUS no improvement in best in 32 clusters for 5 generations
USER: GENES 10
USER: genes 0 Translation |==|  0.79122 0.55882 0.71145
USER: genes 1 Rotation |==|  0.97884 0.39893 0.39792 0.50878
USER: genes 2 Torsion [C]-CA--N-[C] |==|  0.55021
USER: genes 3 Torsion [N]-C--CA-[N] |==|  0.07667
USER: genes 4 Torsion [C]-CA--N-[H3] |==|  0.69995
USER: genes 5 Torsion [N]-CA--C-[N] |==|  0.47490
USER: genes 6 Torsion [C]-N--CA-[C] |==|  0.83215
USER: genes 7 Torsion [N]-CA--C-[O] |==|  0.79836
USER: genes 8 Torsion [N]-CA--CB-[CG] |==|  0.27820
USER: genes 9 Torsion [CA]-CB--CG-[CD2] |==|  0.35292
ROOT
ATOM      1  CA  HIS F   2       3.352  31.460 -15.576  1.00 49.99 LIG 0.18  C 
ENDROOT
BRANCH 1 2
ATOM      2  N   HIS F   2       3.855  31.034 -14.270  1.00 49.83 LIG-0.35  N 
ATOM      3  C   GLY F   1       5.054  31.395 -13.816  1.00 49.82 LIG 0.24  C 
ATOM      4 O    GLY F   1       5.856  32.062 -14.476  1.00 49.53 LIG-0.27  OA
ATOM      5 H    HIS F   2       3.311  30.536 -13.829  1.00 49.83 LIG 0.16  HD
BRANCH 3 6
ATOM      6  CA  GLY F   1       5.400  30.930 -12.412  1.00 49.90 LIG 0.33  C 
BRANCH 6 7
ATOM      7  N   GLY F   1       4.703  29.670 -12.020  1.00 49.95 LIG-0.07  N 
ATOM      8 H3   GLY F   1       4.073  29.854 -11.419  1.00 49.95 LIG 0.27  HD
ATOM      9 H1   GLY F   1       4.329  29.302 -12.739  1.00 49.95 LIG 0.27  HD
ATOM     10 H2   GLY F   1       5.291  29.102 -11.669  1.00 49.95 LIG 0.27  HD
ENDBRANCH 6 7
ENDBRANCH 3 6
ENDBRANCH 1 2
BRANCH 1 11
ATOM     11  C   HIS F   2       1.835  31.294 -15.658  1.00 50.00 LIG 0.24  C 
ATOM     12 O    HIS F   2       1.214  30.710 -14.767  1.00 49.82 LIG-0.27  OA
ATOM     13  N   GLY F   3       1.249  31.823 -16.730  1.00 50.02 LIG-0.35  N 
ATOM     14 H    GLY F   3       1.679  32.210 -17.367  1.00 50.02 LIG 0.16  HD
BRANCH 13 15
ATOM     15  CA  GLY F   3      -0.195  31.791 -16.918  1.00 50.20 LIG 0.21  C 
BRANCH 15 16
ATOM     16  C   GLY F   3      -0.745  30.379 -16.972  1.00 50.42 LIG 0.21  C 
ATOM     17 O    GLY F   3      -0.549  29.667 -17.958  1.00 50.69 LIG-0.29  OA
ENDBRANCH 15 16
ENDBRANCH 13 15
ENDBRANCH 1 11
BRANCH 1 18
ATOM     18  CB  HIS F   2       4.039  30.684 -16.701  1.00 49.99 LIG 0.10  C 
BRANCH 18 19
ATOM     19  CG  HIS F   2       3.219  29.556 -17.245  1.00 50.63 LIG 0.06  A 
ATOM     20  CD2 HIS F   2       2.850  29.248 -18.513  1.00 51.31 LIG 0.14  A 
ATOM     21 NE2  HIS F   2       2.105  28.094 -18.451  1.00 51.32 LIG-0.25  NA
ATOM     22  CE1 HIS F   2       2.014  27.710 -17.190  1.00 50.87 LIG 0.23  A 
ATOM     23 ND1  HIS F   2       2.678  28.573 -16.442  1.00 50.82 LIG-0.24  NA
ENDBRANCH 18 19
ENDBRANCH 1 18
TORSDOF 8
ENDMDL
MODEL 139
USER: ADFR SOLUTION from run 160
USER: SCORE 7.183396 LL:  -1.233 LR:  -5.964 RR:   0.000 FEB:  -3.578
USER: RMSD 3.369355
USER: SEED 159
USER: STATUS no improvement in best in 27 clusters for 5 generations
USER: GENES 10
USER: genes 0 Translation |==|  0.47708 0.50003 0.64399
USER: genes 1 Rotation |==|  0.38537 0.59681 0.56319 0.97275
USER: genes 2 Torsion [C]-CA--N-[C] |==|  0.81204
USER: genes 3 Torsion [N]-C--CA-[N] |==|  0.11132
USER: genes 4 Torsion [C]-CA--N-[H3] |==|  0.31082
USER: genes 5 Torsion [N]-CA--C-[N] |==|  0.92435
USER: genes 6 Torsion [C]-N--CA-[C] |==|  0.41653
USER: genes 7 Torsion [N]-CA--C-[O] |==|  0.58885
USER: genes 8 Torsion [N]-CA--CB-[CG] |==|  0.10082
USER: genes 9 Torsion [CA]-CB--CG-[CD2] |==|  0.60440
ROOT
ATOM      1  CA  HIS F   2      -2.067  30.710 -16.689  1.00 49.99 LIG 0.18  C 
ENDROOT
BRANCH 1 2
ATOM      2  N   HIS F   2      -2.542  30.342 -18.024  1.00 49.83 LIG-0.35  N 
ATOM      3  C   GLY F   1      -3.517  29.457 -18.214  1.00 49.82 LIG 0.24  C 
ATOM      4 O    GLY F   1      -4.057  28.835 -17.294  1.00 49.53 LIG-0.27  OA
ATOM      5 H    HIS F   2      -2.136  30.747 -18.664  1.00 49.83 LIG 0.16  HD
BRANCH 3 6
ATOM      6  CA  GLY F   1      -3.943  29.237 -19.655  1.00 49.90 LIG 0.33  C 
BRANCH 6 7
ATOM      7  N   GLY F   1      -2.797  29.211 -20.611  1.00 49.95 LIG-0.07  N 
ATOM      8 H3   GLY F   1      -2.703  28.390 -20.940  1.00 49.95 LIG 0.27  HD
ATOM      9 H1   GLY F   1      -2.952  29.781 -21.277  1.00 49.95 LIG 0.27  HD
ATOM     10 H2   GLY F   1      -2.051  29.447 -20.187  1.00 49.95 LIG 0.27  HD
ENDBRANCH 6 7
ENDBRANCH 3 6
ENDBRANCH 1 2
BRANCH 1 11
ATOM     11  C   HIS F   2      -3.140  31.479 -15.920  1.00 50.00 LIG 0.24  C 
ATOM     12 O    HIS F   2      -3.170  31.460 -14.687  1.00 49.82 LIG-0.27  OA
ATOM     13  N   GLY F   3      -4.010  32.162 -16.660  1.00 50.02 LIG-0.35  N 
ATOM     14 H    GLY F   3      -4.010  32.160 -17.521  1.00 50.02 LIG 0.16  HD
BRANCH 13 15
ATOM     15  CA  GLY F   3      -5.055  32.986 -16.065  1.00 50.20 LIG 0.21  C 
BRANCH 15 16
ATOM     16  C   GLY F   3      -5.429  34.170 -16.934  1.00 50.42 LIG 0.21  C 
ATOM     17 O    GLY F   3      -5.798  35.229 -16.426  1.00 50.69 LIG-0.29  OA
ENDBRANCH 15 16
ENDBRANCH 13 15
ENDBRANCH 1 11
BRANCH 1 18
ATOM     18  CB  HIS F   2      -0.779  31.530 -16.779  1.00 49.99 LIG 0.10  C 
BRANCH 18 19
ATOM     19  CG  HIS F   2      -0.738  32.464 -17.949  1.00 50.63 LIG 0.06  A 
ATOM     20  CD2 HIS F   2       0.280  32.827 -18.769  1.00 51.31 LIG 0.14  A 
ATOM     21 NE2  HIS F   2      -0.235  33.708 -19.690  1.00 51.32 LIG-0.25  NA
ATOM     22  CE1 HIS F   2      -1.521  33.886 -19.442  1.00 50.87 LIG 0.23  A 
ATOM     23 ND1  HIS F   2      -1.850  33.145 -18.398  1.00 50.82 LIG-0.24  NA
ENDBRANCH 18 19
ENDBRANCH 1 18
TORSDOF 8
ENDMDL
MODEL 140
USER: ADFR SOLUTION from run 189
USER: SCORE 7.161665 LL:  -1.252 LR:  -5.948 RR:   0.000 FEB:  -3.562
USER: RMSD 5.207630
USER: SEED 188
USER: STATUS no improvement in best in 21 clusters for 5 generations
USER: GENES 10
USER: genes 0 Translation |==|  0.54994 0.55594 0.46401
USER: genes 1 Rotation |==|  0.39462 0.45774 0.02794 0.61944
USER: genes 2 Torsion [C]-CA--N-[C] |==|  0.80916
USER: genes 3 Torsion [N]-C--CA-[N] |==|  0.95838
USER: genes 4 Torsion [C]-CA--N-[H3] |==|  0.10037
USER: genes 5 Torsion [N]-CA--C-[N] |==|  0.91111
USER: genes 6 Torsion [C]-N--CA-[C] |==|  0.81143
USER: genes 7 Torsion [N]-CA--C-[O] |==|  0.56463
USER: genes 8 Torsion [N]-CA--CB-[CG] |==|  0.34067
USER: genes 9 Torsion [CA]-CB--CG-[CD2] |==|  0.26992
ROOT
ATOM      1  CA  HIS F   2      -0.811  31.423 -19.659  1.00 49.99 LIG 0.18  C 
ENDROOT
BRANCH 1 2
ATOM      2  N   HIS F   2      -1.216  30.712 -20.872  1.00 49.83 LIG-0.35  N 
ATOM      3  C   GLY F   1      -0.995  31.199 -22.091  1.00 49.82 LIG 0.24  C 
ATOM      4 O    GLY F   1      -0.488  32.305 -22.297  1.00 49.53 LIG-0.27  OA
ATOM      5 H    HIS F   2      -1.606  29.960 -20.724  1.00 49.83 LIG 0.16  HD
BRANCH 3 6
ATOM      6  CA  GLY F   1      -1.411  30.307 -23.248  1.00 49.90 LIG 0.33  C 
BRANCH 6 7
ATOM      7  N   GLY F   1      -1.672  28.895 -22.839  1.00 49.95 LIG-0.07  N 
ATOM      8 H3   GLY F   1      -2.047  28.885 -22.032  1.00 49.95 LIG 0.27  HD
ATOM      9 H1   GLY F   1      -2.221  28.513 -23.426  1.00 49.95 LIG 0.27  HD
ATOM     10 H2   GLY F   1      -0.904  28.446 -22.815  1.00 49.95 LIG 0.27  HD
ENDBRANCH 6 7
ENDBRANCH 3 6
ENDBRANCH 1 2
BRANCH 1 11
ATOM     11  C   HIS F   2       0.711  31.457 -19.527  1.00 50.00 LIG 0.24  C 
ATOM     12 O    HIS F   2       1.278  32.408 -18.983  1.00 49.82 LIG-0.27  OA
ATOM     13  N   GLY F   3       1.361  30.405 -20.020  1.00 50.02 LIG-0.35  N 
ATOM     14 H    GLY F   3       0.974  29.750 -20.422  1.00 50.02 LIG 0.16  HD
BRANCH 13 15
ATOM     15  CA  GLY F   3       2.809  30.272 -19.918  1.00 50.20 LIG 0.21  C 
BRANCH 15 16
ATOM     16  C   GLY F   3       3.548  31.295 -20.756  1.00 50.42 LIG 0.21  C 
ATOM     17 O    GLY F   3       4.703  31.085 -21.130  1.00 50.69 LIG-0.29  OA
ENDBRANCH 15 16
ENDBRANCH 13 15
ENDBRANCH 1 11
BRANCH 1 18
ATOM     18  CB  HIS F   2      -1.443  30.786 -18.420  1.00 49.99 LIG 0.10  C 
BRANCH 18 19
ATOM     19  CG  HIS F   2      -0.447  30.336 -17.397  1.00 50.63 LIG 0.06  A 
ATOM     20  CD2 HIS F   2       0.008  30.933 -16.268  1.00 51.31 LIG 0.14  A 
ATOM     21 NE2  HIS F   2       0.912  30.073 -15.690  1.00 51.32 LIG-0.25  NA
ATOM     22  CE1 HIS F   2       1.014  28.990 -16.440  1.00 50.87 LIG 0.23  A 
ATOM     23 ND1  HIS F   2       0.203  29.122 -17.475  1.00 50.82 LIG-0.24  NA
ENDBRANCH 18 19
ENDBRANCH 1 18
TORSDOF 8
ENDMDL
MODEL 141
USER: ADFR SOLUTION from run 77
USER: SCORE 7.263747 LL:  -1.421 LR:  -5.945 RR:   0.000 FEB:  -3.559
USER: RMSD 6.383139
USER: SEED 76
USER: STATUS no improvement in best in 20 clusters for 5 generations
USER: GENES 10
USER: genes 0 Translation |==|  0.34481 0.59412 0.69419
USER: genes 1 Rotation |==|  0.75460 0.28724 0.84430 0.64618
USER: genes 2 Torsion [C]-CA--N-[C] |==|  0.79159
USER: genes 3 Torsion [N]-C--CA-[N] |==|  0.09718
USER: genes 4 Torsion [C]-CA--N-[H3] |==|  0.44643
USER: genes 5 Torsion [N]-CA--C-[N] |==|  0.47778
USER: genes 6 Torsion [C]-N--CA-[C] |==|  0.82711
USER: genes 7 Torsion [N]-CA--C-[O] |==|  0.86977
USER: genes 8 Torsion [N]-CA--CB-[CG] |==|  0.20359
USER: genes 9 Torsion [CA]-CB--CG-[CD2] |==|  0.79977
ROOT
ATOM      1  CA  HIS F   2      -4.349  31.910 -15.861  1.00 49.99 LIG 0.18  C 
ENDROOT
BRANCH 1 2
ATOM      2  N   HIS F   2      -5.311  32.997 -16.049  1.00 49.83 LIG-0.35  N 
ATOM      3  C   GLY F   1      -5.052  34.053 -16.817  1.00 49.82 LIG 0.24  C 
ATOM      4 O    GLY F   1      -3.969  34.231 -17.381  1.00 49.53 LIG-0.27  OA
ATOM      5 H    HIS F   2      -6.049  32.889 -15.622  1.00 49.83 LIG 0.16  HD
BRANCH 3 6
ATOM      6  CA  GLY F   1      -6.181  35.058 -16.966  1.00 49.90 LIG 0.33  C 
BRANCH 6 7
ATOM      7  N   GLY F   1      -7.002  35.210 -15.728  1.00 49.95 LIG-0.07  N 
ATOM      8 H3   GLY F   1      -7.450  35.978 -15.762  1.00 49.95 LIG 0.27  HD
ATOM      9 H1   GLY F   1      -7.577  34.533 -15.669  1.00 49.95 LIG 0.27  HD
ATOM     10 H2   GLY F   1      -6.469  35.209 -15.016  1.00 49.95 LIG 0.27  HD
ENDBRANCH 6 7
ENDBRANCH 3 6
ENDBRANCH 1 2
BRANCH 1 11
ATOM     11  C   HIS F   2      -4.284  31.017 -17.099  1.00 50.00 LIG 0.24  C 
ATOM     12 O    HIS F   2      -5.078  31.168 -18.030  1.00 49.82 LIG-0.27  OA
ATOM     13  N   GLY F   3      -3.322  30.096 -17.102  1.00 50.02 LIG-0.35  N 
ATOM     14 H    GLY F   3      -2.781  29.969 -16.445  1.00 50.02 LIG 0.16  HD
BRANCH 13 15
ATOM     15  CA  GLY F   3      -3.103  29.210 -18.237  1.00 50.20 LIG 0.21  C 
BRANCH 15 16
ATOM     16  C   GLY F   3      -4.296  28.317 -18.518  1.00 50.42 LIG 0.21  C 
ATOM     17 O    GLY F   3      -4.855  27.710 -17.604  1.00 50.69 LIG-0.29  OA
ENDBRANCH 15 16
ENDBRANCH 13 15
ENDBRANCH 1 11
BRANCH 1 18
ATOM     18  CB  HIS F   2      -4.699  31.085 -14.621  1.00 49.99 LIG 0.10  C 
BRANCH 18 19
ATOM     19  CG  HIS F   2      -5.895  30.203 -14.800  1.00 50.63 LIG 0.06  A 
ATOM     20  CD2 HIS F   2      -7.216  30.494 -14.888  1.00 51.31 LIG 0.14  A 
ATOM     21 NE2  HIS F   2      -7.884  29.305 -15.060  1.00 51.32 LIG-0.25  NA
ATOM     22  CE1 HIS F   2      -7.006  28.317 -15.071  1.00 50.87 LIG 0.23  A 
ATOM     23 ND1  HIS F   2      -5.799  28.832 -14.918  1.00 50.82 LIG-0.24  NA
ENDBRANCH 18 19
ENDBRANCH 1 18
TORSDOF 8
ENDMDL
MODEL 142
USER: ADFR SOLUTION from run 118
USER: SCORE 6.944817 LL:  -1.139 LR:  -5.936 RR:   0.000 FEB:  -3.550
USER: RMSD 6.466802
USER: SEED 117
USER: STATUS no improvement in best in 23 clusters for 5 generations
USER: GENES 10
USER: genes 0 Translation |==|  0.56401 0.49326 0.48730
USER: genes 1 Rotation |==|  0.50643 0.00711 0.50206 0.58375
USER: genes 2 Torsion [C]-CA--N-[C] |==|  0.67293
USER: genes 3 Torsion [N]-C--CA-[N] |==|  0.85973
USER: genes 4 Torsion [C]-CA--N-[H3] |==|  0.01412
USER: genes 5 Torsion [N]-CA--C-[N] |==|  0.41671
USER: genes 6 Torsion [C]-N--CA-[C] |==|  0.16374
USER: genes 7 Torsion [N]-CA--C-[O] |==|  0.53460
USER: genes 8 Torsion [N]-CA--CB-[CG] |==|  0.81310
USER: genes 9 Torsion [CA]-CB--CG-[CD2] |==|  0.74404
ROOT
ATOM      1  CA  HIS F   2      -0.568  30.624 -19.275  1.00 49.99 LIG 0.18  C 
ENDROOT
BRANCH 1 2
ATOM      2  N   HIS F   2      -0.191  30.990 -17.909  1.00 49.83 LIG-0.35  N 
ATOM      3  C   GLY F   1       0.284  30.102 -17.038  1.00 49.82 LIG 0.24  C 
ATOM      4 O    GLY F   1       0.389  28.898 -17.287  1.00 49.53 LIG-0.27  OA
ATOM      5 H    HIS F   2      -0.304  31.823 -17.725  1.00 49.83 LIG 0.16  HD
BRANCH 3 6
ATOM      6  CA  GLY F   1       0.696  30.655 -15.684  1.00 49.90 LIG 0.33  C 
BRANCH 6 7
ATOM      7  N   GLY F   1       1.604  31.835 -15.781  1.00 49.95 LIG-0.07  N 
ATOM      8 H3   GLY F   1       1.697  32.068 -16.635  1.00 49.95 LIG 0.27  HD
ATOM      9 H1   GLY F   1       1.257  32.516 -15.324  1.00 49.95 LIG 0.27  HD
ATOM     10 H2   GLY F   1       2.400  31.626 -15.443  1.00 49.95 LIG 0.27  HD
ENDBRANCH 6 7
ENDBRANCH 3 6
ENDBRANCH 1 2
BRANCH 1 11
ATOM     11  C   HIS F   2       0.294  31.362 -20.297  1.00 50.00 LIG 0.24  C 
ATOM     12 O    HIS F   2       0.760  32.476 -20.044  1.00 49.82 LIG-0.27  OA
ATOM     13  N   GLY F   3       0.509  30.725 -21.446  1.00 50.02 LIG-0.35  N 
ATOM     14 H    GLY F   3       0.167  29.960 -21.638  1.00 50.02 LIG 0.16  HD
BRANCH 13 15
ATOM     15  CA  GLY F   3       1.356  31.281 -22.493  1.00 50.20 LIG 0.21  C 
BRANCH 15 16
ATOM     16  C   GLY F   3       2.773  31.538 -22.021  1.00 50.42 LIG 0.21  C 
ATOM     17 O    GLY F   3       3.550  32.210 -22.700  1.00 50.69 LIG-0.29  OA
ENDBRANCH 15 16
ENDBRANCH 13 15
ENDBRANCH 1 11
BRANCH 1 18
ATOM     18  CB  HIS F   2      -2.052  30.903 -19.521  1.00 49.99 LIG 0.10  C 
BRANCH 18 19
ATOM     19  CG  HIS F   2      -2.971  30.025 -18.730  1.00 50.63 LIG 0.06  A 
ATOM     20  CD2 HIS F   2      -3.552  28.838 -19.032  1.00 51.31 LIG 0.14  A 
ATOM     21 NE2  HIS F   2      -4.296  28.460 -17.939  1.00 51.32 LIG-0.25  NA
ATOM     22  CE1 HIS F   2      -4.182  29.385 -17.002  1.00 50.87 LIG 0.23  A 
ATOM     23 ND1  HIS F   2      -3.387  30.339 -17.453  1.00 50.82 LIG-0.24  NA
ENDBRANCH 18 19
ENDBRANCH 1 18
TORSDOF 8
ENDMDL
MODEL 143
USER: ADFR SOLUTION from run 159
USER: SCORE 7.168201 LL:  -1.372 LR:  -5.944 RR:   0.000 FEB:  -3.558
USER: RMSD 3.815472
USER: SEED 158
USER: STATUS no improvement in best in 17 clusters for 5 generations
USER: GENES 10
USER: genes 0 Translation |==|  0.54380 0.43959 0.61722
USER: genes 1 Rotation |==|  0.32304 0.61412 0.22895 0.86358
USER: genes 2 Torsion [C]-CA--N-[C] |==|  0.66851
USER: genes 3 Torsion [N]-C--CA-[N] |==|  0.97084
USER: genes 4 Torsion [C]-CA--N-[H3] |==|  0.65864
USER: genes 5 Torsion [N]-CA--C-[N] |==|  0.01410
USER: genes 6 Torsion [C]-N--CA-[C] |==|  0.32739
USER: genes 7 Torsion [N]-CA--C-[O] |==|  0.85412
USER: genes 8 Torsion [N]-CA--CB-[CG] |==|  0.22974
USER: genes 9 Torsion [CA]-CB--CG-[CD2] |==|  0.40013
ROOT
ATOM      1  CA  HIS F   2      -0.916  29.940 -17.131  1.00 49.99 LIG 0.18  C 
ENDROOT
BRANCH 1 2
ATOM      2  N   HIS F   2      -1.684  29.535 -18.309  1.00 49.83 LIG-0.35  N 
ATOM      3  C   GLY F   1      -2.979  29.232 -18.246  1.00 49.82 LIG 0.24  C 
ATOM      4 O    GLY F   1      -3.620  29.210 -17.191  1.00 49.53 LIG-0.27  OA
ATOM      5 H    HIS F   2      -1.226  29.512 -19.036  1.00 49.83 LIG 0.16  HD
BRANCH 3 6
ATOM      6  CA  GLY F   1      -3.649  28.901 -19.569  1.00 49.90 LIG 0.33  C 
BRANCH 6 7
ATOM      7  N   GLY F   1      -2.797  29.211 -20.754  1.00 49.95 LIG-0.07  N 
ATOM      8 H3   GLY F   1      -3.229  29.774 -21.292  1.00 49.95 LIG 0.27  HD
ATOM      9 H1   GLY F   1      -2.036  29.586 -20.483  1.00 49.95 LIG 0.27  HD
ATOM     10 H2   GLY F   1      -2.616  28.460 -21.195  1.00 49.95 LIG 0.27  HD
ENDBRANCH 6 7
ENDBRANCH 3 6
ENDBRANCH 1 2
BRANCH 1 11
ATOM     11  C   HIS F   2      -0.346  31.346 -17.306  1.00 50.00 LIG 0.24  C 
ATOM     12 O    HIS F   2       0.418  31.828 -16.466  1.00 49.82 LIG-0.27  OA
ATOM     13  N   GLY F   3      -0.715  31.990 -18.411  1.00 50.02 LIG-0.35  N 
ATOM     14 H    GLY F   3      -1.266  31.670 -18.989  1.00 50.02 LIG 0.16  HD
BRANCH 13 15
ATOM     15  CA  GLY F   3      -0.208  33.316 -18.740  1.00 50.20 LIG 0.21  C 
BRANCH 15 16
ATOM     16  C   GLY F   3       0.581  33.333 -20.035  1.00 50.42 LIG 0.21  C 
ATOM     17 O    GLY F   3       1.509  32.545 -20.215  1.00 50.69 LIG-0.29  OA
ENDBRANCH 15 16
ENDBRANCH 13 15
ENDBRANCH 1 11
BRANCH 1 18
ATOM     18  CB  HIS F   2       0.203  28.937 -16.843  1.00 49.99 LIG 0.10  C 
BRANCH 18 19
ATOM     19  CG  HIS F   2       1.438  29.159 -17.660  1.00 50.63 LIG 0.06  A 
ATOM     20  CD2 HIS F   2       2.750  29.010 -17.357  1.00 51.31 LIG 0.14  A 
ATOM     21 NE2  HIS F   2       3.468  29.341 -18.482  1.00 51.32 LIG-0.25  NA
ATOM     22  CE1 HIS F   2       2.627  29.688 -19.440  1.00 50.87 LIG 0.23  A 
ATOM     23 ND1  HIS F   2       1.396  29.585 -18.972  1.00 50.82 LIG-0.24  NA
ENDBRANCH 18 19
ENDBRANCH 1 18
TORSDOF 8
ENDMDL
MODEL 144
USER: ADFR SOLUTION from run 175
USER: SCORE 6.933294 LL:  -1.128 LR:  -5.936 RR:   0.000 FEB:  -3.549
USER: RMSD 6.170707
USER: SEED 174
USER: STATUS no improvement in best in 24 clusters for 5 generations
USER: GENES 10
USER: genes 0 Translation |==|  0.34147 0.55962 0.73023
USER: genes 1 Rotation |==|  0.31023 0.74701 0.11815 0.58465
USER: genes 2 Torsion [C]-CA--N-[C] |==|  0.86449
USER: genes 3 Torsion [N]-C--CA-[N] |==|  0.19230
USER: genes 4 Torsion [C]-CA--N-[H3] |==|  0.15968
USER: genes 5 Torsion [N]-CA--C-[N] |==|  0.35000
USER: genes 6 Torsion [C]-N--CA-[C] |==|  0.63891
USER: genes 7 Torsion [N]-CA--C-[O] |==|  0.80086
USER: genes 8 Torsion [N]-CA--CB-[CG] |==|  0.14408
USER: genes 9 Torsion [CA]-CB--CG-[CD2] |==|  0.75102
ROOT
ATOM      1  CA  HIS F   2      -4.407  31.470 -15.266  1.00 49.99 LIG 0.18  C 
ENDROOT
BRANCH 1 2
ATOM      2  N   HIS F   2      -5.564  32.143 -15.858  1.00 49.83 LIG-0.35  N 
ATOM      3  C   GLY F   1      -5.472  33.335 -16.443  1.00 49.82 LIG 0.24  C 
ATOM      4 O    GLY F   1      -4.428  33.992 -16.484  1.00 49.53 LIG-0.27  OA
ATOM      5 H    HIS F   2      -6.298  31.701 -15.792  1.00 49.83 LIG 0.16  HD
BRANCH 3 6
ATOM      6  CA  GLY F   1      -6.749  33.866 -17.072  1.00 49.90 LIG 0.33  C 
BRANCH 6 7
ATOM      7  N   GLY F   1      -7.789  34.238 -16.068  1.00 49.95 LIG-0.07  N 
ATOM      8 H3   GLY F   1      -7.458  34.846 -15.508  1.00 49.95 LIG 0.27  HD
ATOM      9 H1   GLY F   1      -8.499  34.576 -16.486  1.00 49.95 LIG 0.27  HD
ATOM     10 H2   GLY F   1      -8.032  33.515 -15.609  1.00 49.95 LIG 0.27  HD
ENDBRANCH 6 7
ENDBRANCH 3 6
ENDBRANCH 1 2
BRANCH 1 11
ATOM     11  C   HIS F   2      -3.224  31.464 -16.233  1.00 50.00 LIG 0.24  C 
ATOM     12 O    HIS F   2      -3.348  31.030 -17.381  1.00 49.82 LIG-0.27  OA
ATOM     13  N   GLY F   3      -2.083  31.960 -15.760  1.00 50.02 LIG-0.35  N 
ATOM     14 H    GLY F   3      -1.983  32.241 -14.953  1.00 50.02 LIG 0.16  HD
BRANCH 13 15
ATOM     15  CA  GLY F   3      -0.886  32.069 -16.583  1.00 50.20 LIG 0.21  C 
BRANCH 15 16
ATOM     16  C   GLY F   3       0.340  31.483 -15.911  1.00 50.42 LIG 0.21  C 
ATOM     17 O    GLY F   3       0.865  32.055 -14.955  1.00 50.69 LIG-0.29  OA
ENDBRANCH 15 16
ENDBRANCH 13 15
ENDBRANCH 1 11
BRANCH 1 18
ATOM     18  CB  HIS F   2      -4.766  30.043 -14.847  1.00 49.99 LIG 0.10  C 
BRANCH 18 19
ATOM     19  CG  HIS F   2      -5.409  29.238 -15.933  1.00 50.63 LIG 0.06  A 
ATOM     20  CD2 HIS F   2      -6.710  29.083 -16.281  1.00 51.31 LIG 0.14  A 
ATOM     21 NE2  HIS F   2      -6.743  28.238 -17.364  1.00 51.32 LIG-0.25  NA
ATOM     22  CE1 HIS F   2      -5.508  27.880 -17.668  1.00 50.87 LIG 0.23  A 
ATOM     23 ND1  HIS F   2      -4.683  28.472 -16.821  1.00 50.82 LIG-0.24  NA
ENDBRANCH 18 19
ENDBRANCH 1 18
TORSDOF 8
ENDMDL
MODEL 145
USER: ADFR SOLUTION from run 73
USER: SCORE 7.300005 LL:  -1.369 LR:  -5.936 RR:   0.000 FEB:  -3.550
USER: RMSD 4.601559
USER: SEED 72
USER: STATUS no improvement in best in 21 clusters for 5 generations
USER: GENES 10
USER: genes 0 Translation |==|  0.68016 0.59894 0.50023
USER: genes 1 Rotation |==|  0.12998 0.71003 0.66659 0.70302
USER: genes 2 Torsion [C]-CA--N-[C] |==|  0.80855
USER: genes 3 Torsion [N]-C--CA-[N] |==|  0.66169
USER: genes 4 Torsion [C]-CA--N-[H3] |==|  0.51148
USER: genes 5 Torsion [N]-CA--C-[N] |==|  0.96111
USER: genes 6 Torsion [C]-N--CA-[C] |==|  0.65266
USER: genes 7 Torsion [N]-CA--C-[O] |==|  0.03435
USER: genes 8 Torsion [N]-CA--CB-[CG] |==|  0.79177
USER: genes 9 Torsion [CA]-CB--CG-[CD2] |==|  0.01896
ROOT
ATOM      1  CA  HIS F   2       1.436  31.971 -19.061  1.00 49.99 LIG 0.18  C 
ENDROOT
BRANCH 1 2
ATOM      2  N   HIS F   2       1.375  30.580 -18.611  1.00 49.83 LIG-0.35  N 
ATOM      3  C   GLY F   1       1.473  30.242 -17.327  1.00 49.82 LIG 0.24  C 
ATOM      4 O    GLY F   1       1.680  31.059 -16.425  1.00 49.53 LIG-0.27  OA
ATOM      5 H    HIS F   2       1.272  30.010 -19.246  1.00 49.83 LIG 0.16  HD
BRANCH 3 6
ATOM      6  CA  GLY F   1       1.319  28.763 -17.016  1.00 49.90 LIG 0.33  C 
BRANCH 6 7
ATOM      7  N   GLY F   1       0.204  28.474 -16.066  1.00 49.95 LIG-0.07  N 
ATOM      8 H3   GLY F   1       0.196  27.605 -15.873  1.00 49.95 LIG 0.27  HD
ATOM      9 H1   GLY F   1       0.321  28.943 -15.319  1.00 49.95 LIG 0.27  HD
ATOM     10 H2   GLY F   1      -0.571  28.701 -16.440  1.00 49.95 LIG 0.27  HD
ENDBRANCH 6 7
ENDBRANCH 3 6
ENDBRANCH 1 2
BRANCH 1 11
ATOM     11  C   HIS F   2       0.195  32.745 -18.618  1.00 50.00 LIG 0.24  C 
ATOM     12 O    HIS F   2       0.163  33.976 -18.679  1.00 49.82 LIG-0.27  OA
ATOM     13  N   GLY F   3      -0.825  32.008 -18.182  1.00 50.02 LIG-0.35  N 
ATOM     14 H    GLY F   3      -0.800  31.151 -18.114  1.00 50.02 LIG 0.16  HD
BRANCH 13 15
ATOM     15  CA  GLY F   3      -2.092  32.603 -17.778  1.00 50.20 LIG 0.21  C 
BRANCH 15 16
ATOM     16  C   GLY F   3      -2.499  32.208 -16.372  1.00 50.42 LIG 0.21  C 
ATOM     17 O    GLY F   3      -1.698  31.655 -15.619  1.00 50.69 LIG-0.29  OA
ENDBRANCH 15 16
ENDBRANCH 13 15
ENDBRANCH 1 11
BRANCH 1 18
ATOM     18  CB  HIS F   2       1.599  32.043 -20.581  1.00 49.99 LIG 0.10  C 
BRANCH 18 19
ATOM     19  CG  HIS F   2       2.977  31.704 -21.057  1.00 50.63 LIG 0.06  A 
ATOM     20  CD2 HIS F   2       4.062  31.232 -20.394  1.00 51.31 LIG 0.14  A 
ATOM     21 NE2  HIS F   2       5.070  31.086 -21.316  1.00 51.32 LIG-0.25  NA
ATOM     22  CE1 HIS F   2       4.624  31.460 -22.503  1.00 50.87 LIG 0.23  A 
ATOM     23 ND1  HIS F   2       3.364  31.835 -22.374  1.00 50.82 LIG-0.24  NA
ENDBRANCH 18 19
ENDBRANCH 1 18
TORSDOF 8
ENDMDL
MODEL 146
USER: ADFR SOLUTION from run 22
USER: SCORE 6.953734 LL:  -1.172 LR:  -5.924 RR:   0.000 FEB:  -3.538
USER: RMSD 3.962088
USER: SEED 21
USER: STATUS no improvement in best in 22 clusters for 5 generations
USER: GENES 10
USER: genes 0 Translation |==|  0.47303 0.56197 0.35623
USER: genes 1 Rotation |==|  0.74397 0.64293 0.44374 0.90852
USER: genes 2 Torsion [C]-CA--N-[C] |==|  0.55040
USER: genes 3 Torsion [N]-C--CA-[N] |==|  0.25119
USER: genes 4 Torsion [C]-CA--N-[H3] |==|  0.68518
USER: genes 5 Torsion [N]-CA--C-[N] |==|  0.46626
USER: genes 6 Torsion [C]-N--CA-[C] |==|  0.30190
USER: genes 7 Torsion [N]-CA--C-[O] |==|  0.46477
USER: genes 8 Torsion [N]-CA--CB-[CG] |==|  0.20532
USER: genes 9 Torsion [CA]-CB--CG-[CD2] |==|  0.86531
ROOT
ATOM      1  CA  HIS F   2      -2.137  31.500 -21.437  1.00 49.99 LIG 0.18  C 
ENDROOT
BRANCH 1 2
ATOM      2  N   HIS F   2      -2.411  32.905 -21.741  1.00 49.83 LIG-0.35  N 
ATOM      3  C   GLY F   1      -2.509  33.358 -22.989  1.00 49.82 LIG 0.24  C 
ATOM      4 O    GLY F   1      -2.321  32.652 -23.984  1.00 49.53 LIG-0.27  OA
ATOM      5 H    HIS F   2      -2.501  33.404 -21.047  1.00 49.83 LIG 0.16  HD
BRANCH 3 6
ATOM      6  CA  GLY F   1      -2.868  34.827 -23.136  1.00 49.90 LIG 0.33  C 
BRANCH 6 7
ATOM      7  N   GLY F   1      -1.675  35.722 -23.190  1.00 49.95 LIG-0.07  N 
ATOM      8 H3   GLY F   1      -1.657  36.236 -22.464  1.00 49.95 LIG 0.27  HD
ATOM      9 H1   GLY F   1      -0.935  35.229 -23.223  1.00 49.95 LIG 0.27  HD
ATOM     10 H2   GLY F   1      -1.721  36.236 -23.915  1.00 49.95 LIG 0.27  HD
ENDBRANCH 6 7
ENDBRANCH 3 6
ENDBRANCH 1 2
BRANCH 1 11
ATOM     11  C   HIS F   2      -2.513  31.169 -19.994  1.00 50.00 LIG 0.24  C 
ATOM     12 O    HIS F   2      -2.778  32.065 -19.188  1.00 49.82 LIG-0.27  OA
ATOM     13  N   GLY F   3      -2.544  29.875 -19.683  1.00 50.02 LIG-0.35  N 
ATOM     14 H    GLY F   3      -2.337  29.247 -20.233  1.00 50.02 LIG 0.16  HD
BRANCH 13 15
ATOM     15  CA  GLY F   3      -2.938  29.406 -18.361  1.00 50.20 LIG 0.21  C 
BRANCH 15 16
ATOM     16  C   GLY F   3      -4.295  28.729 -18.363  1.00 50.42 LIG 0.21  C 
ATOM     17 O    GLY F   3      -4.672  28.076 -17.390  1.00 50.69 LIG-0.29  OA
ENDBRANCH 15 16
ENDBRANCH 13 15
ENDBRANCH 1 11
BRANCH 1 18
ATOM     18  CB  HIS F   2      -0.668  31.165 -21.700  1.00 49.99 LIG 0.10  C 
BRANCH 18 19
ATOM     19  CG  HIS F   2       0.271  31.717 -20.673  1.00 50.63 LIG 0.06  A 
ATOM     20  CD2 HIS F   2       0.382  32.958 -20.138  1.00 51.31 LIG 0.14  A 
ATOM     21 NE2  HIS F   2       1.409  32.916 -19.225  1.00 51.32 LIG-0.25  NA
ATOM     22  CE1 HIS F   2       1.916  31.696 -19.205  1.00 50.87 LIG 0.23  A 
ATOM     23 ND1  HIS F   2       1.246  30.952 -20.068  1.00 50.82 LIG-0.24  NA
ENDBRANCH 18 19
ENDBRANCH 1 18
TORSDOF 8
ENDMDL
MODEL 147
USER: ADFR SOLUTION from run 5
USER: SCORE 7.037679 LL:  -1.154 LR:  -5.925 RR:   0.000 FEB:  -3.538
USER: RMSD 6.827477
USER: SEED 709239
USER: STATUS no improvement in best in 24 clusters for 5 generations
USER: GENES 10
USER: genes 0 Translation |==|  0.54835 0.63594 0.38351
USER: genes 1 Rotation |==|  0.49566 0.54198 0.04402 0.70075
USER: genes 2 Torsion [C]-CA--N-[C] |==|  0.83583
USER: genes 3 Torsion [N]-C--CA-[N] |==|  0.34673
USER: genes 4 Torsion [C]-CA--N-[H3] |==|  0.06910
USER: genes 5 Torsion [N]-CA--C-[N] |==|  0.88889
USER: genes 6 Torsion [C]-N--CA-[C] |==|  0.44931
USER: genes 7 Torsion [N]-CA--C-[O] |==|  0.31267
USER: genes 8 Torsion [N]-CA--CB-[CG] |==|  0.91325
USER: genes 9 Torsion [CA]-CB--CG-[CD2] |==|  0.70554
ROOT
ATOM      1  CA  HIS F   2      -0.838  32.443 -20.987  1.00 49.99 LIG 0.18  C 
ENDROOT
BRANCH 1 2
ATOM      2  N   HIS F   2      -0.758  32.354 -22.446  1.00 49.83 LIG-0.35  N 
ATOM      3  C   GLY F   1      -0.317  33.359 -23.198  1.00 49.82 LIG 0.24  C 
ATOM      4 O    GLY F   1       0.002  34.460 -22.739  1.00 49.53 LIG-0.27  OA
ATOM      5 H    HIS F   2      -1.020  31.600 -22.766  1.00 49.83 LIG 0.16  HD
BRANCH 3 6
ATOM      6  CA  GLY F   1      -0.228  33.083 -24.689  1.00 49.90 LIG 0.33  C 
BRANCH 6 7
ATOM      7  N   GLY F   1      -0.984  34.069 -25.517  1.00 49.95 LIG-0.07  N 
ATOM      8 H3   GLY F   1      -1.060  34.835 -25.070  1.00 49.95 LIG 0.27  HD
ATOM      9 H1   GLY F   1      -0.547  34.213 -26.280  1.00 49.95 LIG 0.27  HD
ATOM     10 H2   GLY F   1      -1.794  33.748 -25.696  1.00 49.95 LIG 0.27  HD
ENDBRANCH 6 7
ENDBRANCH 3 6
ENDBRANCH 1 2
BRANCH 1 11
ATOM     11  C   HIS F   2       0.535  32.726 -20.380  1.00 50.00 LIG 0.24  C 
ATOM     12 O    HIS F   2       0.658  33.500 -19.428  1.00 49.82 LIG-0.27  OA
ATOM     13  N   GLY F   3       1.560  32.082 -20.935  1.00 50.02 LIG-0.35  N 
ATOM     14 H    GLY F   3       1.484  31.561 -21.615  1.00 50.02 LIG 0.16  HD
BRANCH 13 15
ATOM     15  CA  GLY F   3       2.920  32.210 -20.428  1.00 50.20 LIG 0.21  C 
BRANCH 15 16
ATOM     16  C   GLY F   3       3.826  31.090 -20.901  1.00 50.42 LIG 0.21  C 
ATOM     17 O    GLY F   3       4.754  31.318 -21.677  1.00 50.69 LIG-0.29  OA
ENDBRANCH 15 16
ENDBRANCH 13 15
ENDBRANCH 1 11
BRANCH 1 18
ATOM     18  CB  HIS F   2      -1.433  31.163 -20.397  1.00 49.99 LIG 0.10  C 
BRANCH 18 19
ATOM     19  CG  HIS F   2      -2.424  30.488 -21.295  1.00 50.63 LIG 0.06  A 
ATOM     20  CD2 HIS F   2      -3.776  30.407 -21.233  1.00 51.31 LIG 0.14  A 
ATOM     21 NE2  HIS F   2      -4.189  29.674 -22.321  1.00 51.32 LIG-0.25  NA
ATOM     22  CE1 HIS F   2      -3.128  29.312 -23.021  1.00 50.87 LIG 0.23  A 
ATOM     23 ND1  HIS F   2      -2.051  29.792 -22.425  1.00 50.82 LIG-0.24  NA
ENDBRANCH 18 19
ENDBRANCH 1 18
TORSDOF 8
ENDMDL
MODEL 148
USER: ADFR SOLUTION from run 48
USER: SCORE 7.247657 LL:  -1.433 LR:  -5.914 RR:   0.000 FEB:  -3.527
USER: RMSD 6.705834
USER: SEED 47
USER: STATUS no improvement in best in 21 clusters for 5 generations
USER: GENES 10
USER: genes 0 Translation |==|  0.56719 0.66703 0.20738
USER: genes 1 Rotation |==|  0.57060 0.54915 0.49977 0.99254
USER: genes 2 Torsion [C]-CA--N-[C] |==|  0.85555
USER: genes 3 Torsion [N]-C--CA-[N] |==|  0.79724
USER: genes 4 Torsion [C]-CA--N-[H3] |==|  0.27572
USER: genes 5 Torsion [N]-CA--C-[N] |==|  0.91811
USER: genes 6 Torsion [C]-N--CA-[C] |==|  0.54426
USER: genes 7 Torsion [N]-CA--C-[O] |==|  0.99697
USER: genes 8 Torsion [N]-CA--CB-[CG] |==|  0.48047
USER: genes 9 Torsion [CA]-CB--CG-[CD2] |==|  0.18496
ROOT
ATOM      1  CA  HIS F   2      -0.513  32.840 -23.893  1.00 49.99 LIG 0.18  C 
ENDROOT
BRANCH 1 2
ATOM      2  N   HIS F   2      -0.692  33.574 -25.147  1.00 49.83 LIG-0.35  N 
ATOM      3  C   GLY F   1      -1.876  33.683 -25.745  1.00 49.82 LIG 0.24  C 
ATOM      4 O    GLY F   1      -2.899  33.131 -25.330  1.00 49.53 LIG-0.27  OA
ATOM      5 H    HIS F   2       0.030  33.923 -25.455  1.00 49.83 LIG 0.16  HD
BRANCH 3 6
ATOM      6  CA  GLY F   1      -1.909  34.538 -27.001  1.00 49.90 LIG 0.33  C 
BRANCH 6 7
ATOM      7  N   GLY F   1      -1.799  36.000 -26.721  1.00 49.95 LIG-0.07  N 
ATOM      8 H3   GLY F   1      -0.960  36.265 -26.854  1.00 49.95 LIG 0.27  HD
ATOM      9 H1   GLY F   1      -2.342  36.448 -27.266  1.00 49.95 LIG 0.27  HD
ATOM     10 H2   GLY F   1      -2.030  36.159 -25.877  1.00 49.95 LIG 0.27  HD
ENDBRANCH 6 7
ENDBRANCH 3 6
ENDBRANCH 1 2
BRANCH 1 11
ATOM     11  C   HIS F   2      -1.509  33.312 -22.835  1.00 50.00 LIG 0.24  C 
ATOM     12 O    HIS F   2      -1.903  32.546 -21.952  1.00 49.82 LIG-0.27  OA
ATOM     13  N   GLY F   3      -1.899  34.581 -22.929  1.00 50.02 LIG-0.35  N 
ATOM     14 H    GLY F   3      -1.647  35.113 -23.557  1.00 50.02 LIG 0.16  HD
BRANCH 13 15
ATOM     15  CA  GLY F   3      -2.803  35.187 -21.960  1.00 50.20 LIG 0.21  C 
BRANCH 15 16
ATOM     16  C   GLY F   3      -3.408  36.484 -22.458  1.00 50.42 LIG 0.21  C 
ATOM     17 O    GLY F   3      -3.107  36.933 -23.565  1.00 50.69 LIG-0.29  OA
ENDBRANCH 15 16
ENDBRANCH 13 15
ENDBRANCH 1 11
BRANCH 1 18
ATOM     18  CB  HIS F   2       0.922  32.982 -23.382  1.00 49.99 LIG 0.10  C 
BRANCH 18 19
ATOM     19  CG  HIS F   2       1.139  32.398 -22.020  1.00 50.63 LIG 0.06  A 
ATOM     20  CD2 HIS F   2       1.099  31.116 -21.581  1.00 51.31 LIG 0.14  A 
ATOM     21 NE2  HIS F   2       1.385  31.139 -20.236  1.00 51.32 LIG-0.25  NA
ATOM     22  CE1 HIS F   2       1.586  32.390 -19.861  1.00 50.87 LIG 0.23  A 
ATOM     23 ND1  HIS F   2       1.446  33.169 -20.919  1.00 50.82 LIG-0.24  NA
ENDBRANCH 18 19
ENDBRANCH 1 18
TORSDOF 8
ENDMDL
MODEL 149
USER: ADFR SOLUTION from run 103
USER: SCORE 7.377976 LL:  -1.518 LR:  -5.906 RR:   0.000 FEB:  -3.520
USER: RMSD 4.270277
USER: SEED 102
USER: STATUS no improvement in best in 22 clusters for 5 generations
USER: GENES 10
USER: genes 0 Translation |==|  0.69575 0.57390 0.42310
USER: genes 1 Rotation |==|  0.68998 0.57286 0.49131 0.95664
USER: genes 2 Torsion [C]-CA--N-[C] |==|  0.77782
USER: genes 3 Torsion [N]-C--CA-[N] |==|  0.57187
USER: genes 4 Torsion [C]-CA--N-[H3] |==|  0.67391
USER: genes 5 Torsion [N]-CA--C-[N] |==|  0.41292
USER: genes 6 Torsion [C]-N--CA-[C] |==|  0.66799
USER: genes 7 Torsion [N]-CA--C-[O] |==|  0.89942
USER: genes 8 Torsion [N]-CA--CB-[CG] |==|  0.44238
USER: genes 9 Torsion [CA]-CB--CG-[CD2] |==|  0.20707
ROOT
ATOM      1  CA  HIS F   2       1.705  31.652 -20.334  1.00 49.99 LIG 0.18  C 
ENDROOT
BRANCH 1 2
ATOM      2  N   HIS F   2       1.479  32.900 -21.065  1.00 49.83 LIG-0.35  N 
ATOM      3  C   GLY F   1       0.420  33.084 -21.850  1.00 49.82 LIG 0.24  C 
ATOM      4 O    GLY F   1      -0.420  32.208 -22.072  1.00 49.53 LIG-0.27  OA
ATOM      5 H    HIS F   2       2.087  33.494 -20.940  1.00 49.83 LIG 0.16  HD
BRANCH 3 6
ATOM      6  CA  GLY F   1       0.293  34.460 -22.482  1.00 49.90 LIG 0.33  C 
BRANCH 6 7
ATOM      7  N   GLY F   1      -1.115  34.827 -22.815  1.00 49.95 LIG-0.07  N 
ATOM      8 H3   GLY F   1      -1.193  34.937 -23.695  1.00 49.95 LIG 0.27  HD
ATOM      9 H1   GLY F   1      -1.662  34.178 -22.548  1.00 49.95 LIG 0.27  HD
ATOM     10 H2   GLY F   1      -1.330  35.585 -22.402  1.00 49.95 LIG 0.27  HD
ENDBRANCH 6 7
ENDBRANCH 3 6
ENDBRANCH 1 2
BRANCH 1 11
ATOM     11  C   HIS F   2       0.858  31.602 -19.063  1.00 50.00 LIG 0.24  C 
ATOM     12 O    HIS F   2       0.567  32.635 -18.456  1.00 49.82 LIG-0.27  OA
ATOM     13  N   GLY F   3       0.460  30.392 -18.677  1.00 50.02 LIG-0.35  N 
ATOM     14 H    GLY F   3       0.680  29.665 -19.082  1.00 50.02 LIG 0.16  HD
BRANCH 13 15
ATOM     15  CA  GLY F   3      -0.398  30.193 -17.516  1.00 50.20 LIG 0.21  C 
BRANCH 15 16
ATOM     16  C   GLY F   3       0.254  29.335 -16.450  1.00 50.42 LIG 0.21  C 
ATOM     17 O    GLY F   3       0.982  28.392 -16.761  1.00 50.69 LIG-0.29  OA
ENDBRANCH 15 16
ENDBRANCH 13 15
ENDBRANCH 1 11
BRANCH 1 18
ATOM     18  CB  HIS F   2       3.188  31.481 -19.999  1.00 49.99 LIG 0.10  C 
BRANCH 18 19
ATOM     19  CG  HIS F   2       3.446  30.533 -18.869  1.00 50.63 LIG 0.06  A 
ATOM     20  CD2 HIS F   2       3.391  29.180 -18.806  1.00 51.31 LIG 0.14  A 
ATOM     21 NE2  HIS F   2       3.733  28.818 -17.525  1.00 51.32 LIG-0.25  NA
ATOM     22  CE1 HIS F   2       3.983  29.910 -16.823  1.00 50.87 LIG 0.23  A 
ATOM     23 ND1  HIS F   2       3.819  30.958 -17.611  1.00 50.82 LIG-0.24  NA
ENDBRANCH 18 19
ENDBRANCH 1 18
TORSDOF 8
ENDMDL
MODEL 150
USER: ADFR SOLUTION from run 139
USER: SCORE 7.020978 LL:  -1.221 LR:  -5.884 RR:   0.000 FEB:  -3.498
USER: RMSD 6.708044
USER: SEED 138
USER: STATUS no improvement in best in 33 clusters for 5 generations
USER: GENES 10
USER: genes 0 Translation |==|  0.35807 0.54950 0.72004
USER: genes 1 Rotation |==|  0.45027 0.86569 0.17120 0.57543
USER: genes 2 Torsion [C]-CA--N-[C] |==|  0.15431
USER: genes 3 Torsion [N]-C--CA-[N] |==|  0.87419
USER: genes 4 Torsion [C]-CA--N-[H3] |==|  0.92273
USER: genes 5 Torsion [N]-CA--C-[N] |==|  0.13889
USER: genes 6 Torsion [C]-N--CA-[C] |==|  0.76321
USER: genes 7 Torsion [N]-CA--C-[O] |==|  0.14299
USER: genes 8 Torsion [N]-CA--CB-[CG] |==|  0.81306
USER: genes 9 Torsion [CA]-CB--CG-[CD2] |==|  0.72580
ROOT
ATOM      1  CA  HIS F   2      -4.120  31.341 -15.434  1.00 49.99 LIG 0.18  C 
ENDROOT
BRANCH 1 2
ATOM      2  N   HIS F   2      -4.681  32.673 -15.663  1.00 49.83 LIG-0.35  N 
ATOM      3  C   GLY F   1      -4.849  33.175 -16.885  1.00 49.82 LIG 0.24  C 
ATOM      4 O    GLY F   1      -4.494  32.591 -17.912  1.00 49.53 LIG-0.27  OA
ATOM      5 H    HIS F   2      -4.890  33.094 -14.944  1.00 49.83 LIG 0.16  HD
BRANCH 3 6
ATOM      6  CA  GLY F   1      -5.510  34.542 -16.956  1.00 49.90 LIG 0.33  C 
BRANCH 6 7
ATOM      7  N   GLY F   1      -6.710  34.661 -16.077  1.00 49.95 LIG-0.07  N 
ATOM      8 H3   GLY F   1      -7.081  33.859 -15.970  1.00 49.95 LIG 0.27  HD
ATOM      9 H1   GLY F   1      -6.467  34.984 -15.284  1.00 49.95 LIG 0.27  HD
ATOM     10 H2   GLY F   1      -7.300  35.212 -16.453  1.00 49.95 LIG 0.27  HD
ENDBRANCH 6 7
ENDBRANCH 3 6
ENDBRANCH 1 2
BRANCH 1 11
ATOM     11  C   HIS F   2      -2.754  31.201 -16.103  1.00 50.00 LIG 0.24  C 
ATOM     12 O    HIS F   2      -2.504  30.241 -16.836  1.00 49.82 LIG-0.27  OA
ATOM     13  N   GLY F   3      -1.880  32.173 -15.850  1.00 50.02 LIG-0.35  N 
ATOM     14 H    GLY F   3      -2.039  32.832 -15.320  1.00 50.02 LIG 0.16  HD
BRANCH 13 15
ATOM     15  CA  GLY F   3      -0.557  32.202 -16.460  1.00 50.20 LIG 0.21  C 
BRANCH 15 16
ATOM     16  C   GLY F   3       0.458  31.379 -15.691  1.00 50.42 LIG 0.21  C 
ATOM     17 O    GLY F   3       0.218  30.210 -15.389  1.00 50.69 LIG-0.29  OA
ENDBRANCH 15 16
ENDBRANCH 13 15
ENDBRANCH 1 11
BRANCH 1 18
ATOM     18  CB  HIS F   2      -5.077  30.257 -15.934  1.00 49.99 LIG 0.10  C 
BRANCH 18 19
ATOM     19  CG  HIS F   2      -6.349  30.164 -15.148  1.00 50.63 LIG 0.06  A 
ATOM     20  CD2 HIS F   2      -6.724  29.328 -14.150  1.00 51.31 LIG 0.14  A 
ATOM     21 NE2  HIS F   2      -7.997  29.688 -13.776  1.00 51.32 LIG-0.25  NA
ATOM     22  CE1 HIS F   2      -8.392  30.705 -14.522  1.00 50.87 LIG 0.23  A 
ATOM     23 ND1  HIS F   2      -7.416  31.013 -15.356  1.00 50.82 LIG-0.24  NA
ENDBRANCH 18 19
ENDBRANCH 1 18
TORSDOF 8
ENDMDL
MODEL 151
USER: ADFR SOLUTION from run 20
USER: SCORE 7.064270 LL:  -1.260 LR:  -5.866 RR:   0.000 FEB:  -3.479
USER: RMSD 6.109316
USER: SEED 19
USER: STATUS no improvement in best in 31 clusters for 5 generations
USER: GENES 10
USER: genes 0 Translation |==|  0.32451 0.54610 0.66066
USER: genes 1 Rotation |==|  0.62319 0.85039 0.81775 0.60530
USER: genes 2 Torsion [C]-CA--N-[C] |==|  0.80164
USER: genes 3 Torsion [N]-C--CA-[N] |==|  0.45383
USER: genes 4 Torsion [C]-CA--N-[H3] |==|  0.38991
USER: genes 5 Torsion [N]-CA--C-[N] |==|  0.35047
USER: genes 6 Torsion [C]-N--CA-[C] |==|  0.73738
USER: genes 7 Torsion [N]-CA--C-[O] |==|  0.32048
USER: genes 8 Torsion [N]-CA--CB-[CG] |==|  0.58795
USER: genes 9 Torsion [CA]-CB--CG-[CD2] |==|  0.43227
ROOT
ATOM      1  CA  HIS F   2      -4.699  31.298 -16.414  1.00 49.99 LIG 0.18  C 
ENDROOT
BRANCH 1 2
ATOM      2  N   HIS F   2      -5.603  30.260 -15.917  1.00 49.83 LIG-0.35  N 
ATOM      3  C   GLY F   1      -5.484  28.982 -16.269  1.00 49.82 LIG 0.24  C 
ATOM      4 O    GLY F   1      -4.647  28.579 -17.082  1.00 49.53 LIG-0.27  OA
ATOM      5 H    HIS F   2      -6.211  30.551 -15.382  1.00 49.83 LIG 0.16  HD
BRANCH 3 6
ATOM      6  CA  GLY F   1      -6.455  28.017 -15.610  1.00 49.90 LIG 0.33  C 
BRANCH 6 7
ATOM      7  N   GLY F   1      -6.547  26.703 -16.312  1.00 49.95 LIG-0.07  N 
ATOM      8 H3   GLY F   1      -6.602  26.049 -15.711  1.00 49.95 LIG 0.27  HD
ATOM      9 H1   GLY F   1      -7.272  26.692 -16.829  1.00 49.95 LIG 0.27  HD
ATOM     10 H2   GLY F   1      -5.823  26.584 -16.815  1.00 49.95 LIG 0.27  HD
ENDBRANCH 6 7
ENDBRANCH 3 6
ENDBRANCH 1 2
BRANCH 1 11
ATOM     11  C   HIS F   2      -3.312  31.160 -15.790  1.00 50.00 LIG 0.24  C 
ATOM     12 O    HIS F   2      -3.172  31.111 -14.565  1.00 49.82 LIG-0.27  OA
ATOM     13  N   GLY F   3      -2.294  31.088 -16.644  1.00 50.02 LIG-0.35  N 
ATOM     14 H    GLY F   3      -2.382  31.146 -17.498  1.00 50.02 LIG 0.16  HD
BRANCH 13 15
ATOM     15  CA  GLY F   3      -0.920  30.900 -16.197  1.00 50.20 LIG 0.21  C 
BRANCH 15 16
ATOM     16  C   GLY F   3      -0.172  32.210 -16.046  1.00 50.42 LIG 0.21  C 
ATOM     17 O    GLY F   3       0.220  32.585 -14.940  1.00 50.69 LIG-0.29  OA
ENDBRANCH 15 16
ENDBRANCH 13 15
ENDBRANCH 1 11
BRANCH 1 18
ATOM     18  CB  HIS F   2      -5.273  32.691 -16.147  1.00 49.99 LIG 0.10  C 
BRANCH 18 19
ATOM     19  CG  HIS F   2      -4.897  33.707 -17.180  1.00 50.63 LIG 0.06  A 
ATOM     20  CD2 HIS F   2      -5.498  34.861 -17.560  1.00 51.31 LIG 0.14  A 
ATOM     21 NE2  HIS F   2      -4.722  35.418 -18.548  1.00 51.32 LIG-0.25  NA
ATOM     22  CE1 HIS F   2      -3.684  34.631 -18.773  1.00 50.87 LIG 0.23  A 
ATOM     23 ND1  HIS F   2      -3.765  33.593 -17.959  1.00 50.82 LIG-0.24  NA
ENDBRANCH 18 19
ENDBRANCH 1 18
TORSDOF 8
ENDMDL
MODEL 152
USER: ADFR SOLUTION from run 4
USER: SCORE 7.210852 LL:  -1.424 LR:  -5.865 RR:   0.000 FEB:  -3.479
USER: RMSD 7.073516
USER: SEED 174858
USER: STATUS no improvement in best in 20 clusters for 5 generations
USER: GENES 10
USER: genes 0 Translation |==|  0.81639 0.44919 0.49458
USER: genes 1 Rotation |==|  0.45407 0.90497 0.74727 0.65081
USER: genes 2 Torsion [C]-CA--N-[C] |==|  0.16882
USER: genes 3 Torsion [N]-C--CA-[N] |==|  0.52185
USER: genes 4 Torsion [C]-CA--N-[H3] |==|  0.63203
USER: genes 5 Torsion [N]-CA--C-[N] |==|  0.08900
USER: genes 6 Torsion [C]-N--CA-[C] |==|  0.28122
USER: genes 7 Torsion [N]-CA--C-[O] |==|  0.94992
USER: genes 8 Torsion [N]-CA--CB-[CG] |==|  0.61358
USER: genes 9 Torsion [CA]-CB--CG-[CD2] |==|  0.47783
ROOT
ATOM      1  CA  HIS F   2       3.786  30.062 -19.154  1.00 49.99 LIG 0.18  C 
ENDROOT
BRANCH 1 2
ATOM      2  N   HIS F   2       2.995  29.034 -18.477  1.00 49.83 LIG-0.35  N 
ATOM      3  C   GLY F   1       2.115  29.326 -17.521  1.00 49.82 LIG 0.24  C 
ATOM      4 O    GLY F   1       1.937  30.469 -17.090  1.00 49.53 LIG-0.27  OA
ATOM      5 H    HIS F   2       3.151  28.234 -18.751  1.00 49.83 LIG 0.16  HD
BRANCH 3 6
ATOM      6  CA  GLY F   1       1.323  28.155 -16.967  1.00 49.90 LIG 0.33  C 
BRANCH 6 7
ATOM      7  N   GLY F   1       0.229  28.569 -16.040  1.00 49.95 LIG-0.07  N 
ATOM      8 H3   GLY F   1       0.259  28.070 -15.303  1.00 49.95 LIG 0.27  HD
ATOM      9 H1   GLY F   1       0.334  29.426 -15.822  1.00 49.95 LIG 0.27  HD
ATOM     10 H2   GLY F   1      -0.558  28.460 -16.440  1.00 49.95 LIG 0.27  HD
ENDBRANCH 6 7
ENDBRANCH 3 6
ENDBRANCH 1 2
BRANCH 1 11
ATOM     11  C   HIS F   2       4.668  30.817 -18.162  1.00 50.00 LIG 0.24  C 
ATOM     12 O    HIS F   2       4.933  32.010 -18.331  1.00 49.82 LIG-0.27  OA
ATOM     13  N   GLY F   3       5.107  30.113 -17.121  1.00 50.02 LIG-0.35  N 
ATOM     14 H    GLY F   3       4.947  29.275 -17.010  1.00 50.02 LIG 0.16  HD
BRANCH 13 15
ATOM     15  CA  GLY F   3       5.912  30.713 -16.065  1.00 50.20 LIG 0.21  C 
BRANCH 15 16
ATOM     16  C   GLY F   3       5.103  31.023 -14.821  1.00 50.42 LIG 0.21  C 
ATOM     17 O    GLY F   3       3.874  31.087 -14.871  1.00 50.69 LIG-0.29  OA
ENDBRANCH 15 16
ENDBRANCH 13 15
ENDBRANCH 1 11
BRANCH 1 18
ATOM     18  CB  HIS F   2       2.878  31.032 -19.913  1.00 49.99 LIG 0.10  C 
BRANCH 18 19
ATOM     19  CG  HIS F   2       3.403  31.424 -21.259  1.00 50.63 LIG 0.06  A 
ATOM     20  CD2 HIS F   2       2.838  32.132 -22.268  1.00 51.31 LIG 0.14  A 
ATOM     21 NE2  HIS F   2       3.766  32.209 -23.279  1.00 51.32 LIG-0.25  NA
ATOM     22  CE1 HIS F   2       4.860  31.566 -22.908  1.00 50.87 LIG 0.23  A 
ATOM     23 ND1  HIS F   2       4.667  31.085 -21.693  1.00 50.82 LIG-0.24  NA
ENDBRANCH 18 19
ENDBRANCH 1 18
TORSDOF 8
ENDMDL
MODEL 153
USER: ADFR SOLUTION from run 90
USER: SCORE 6.915153 LL:  -1.173 LR:  -5.837 RR:   0.000 FEB:  -3.451
USER: RMSD 4.456719
USER: SEED 89
USER: STATUS no improvement in best in 27 clusters for 5 generations
USER: GENES 10
USER: genes 0 Translation |==|  0.34713 0.58360 0.67166
USER: genes 1 Rotation |==|  0.82293 0.51714 0.66296 0.84477
USER: genes 2 Torsion [C]-CA--N-[C] |==|  0.63845
USER: genes 3 Torsion [N]-C--CA-[N] |==|  0.90621
USER: genes 4 Torsion [C]-CA--N-[H3] |==|  0.30497
USER: genes 5 Torsion [N]-CA--C-[N] |==|  0.41693
USER: genes 6 Torsion [C]-N--CA-[C] |==|  0.42445
USER: genes 7 Torsion [N]-CA--C-[O] |==|  0.07298
USER: genes 8 Torsion [N]-CA--CB-[CG] |==|  0.64461
USER: genes 9 Torsion [CA]-CB--CG-[CD2] |==|  0.36961
ROOT
ATOM      1  CA  HIS F   2      -4.309  31.776 -16.233  1.00 49.99 LIG 0.18  C 
ENDROOT
BRANCH 1 2
ATOM      2  N   HIS F   2      -5.047  33.034 -16.111  1.00 49.83 LIG-0.35  N 
ATOM      3  C   GLY F   1      -5.041  33.958 -17.069  1.00 49.82 LIG 0.24  C 
ATOM      4 O    GLY F   1      -4.373  33.860 -18.102  1.00 49.53 LIG-0.27  OA
ATOM      5 H    HIS F   2      -5.479  33.117 -15.373  1.00 49.83 LIG 0.16  HD
BRANCH 3 6
ATOM      6  CA  GLY F   1      -5.915  35.177 -16.821  1.00 49.90 LIG 0.33  C 
BRANCH 6 7
ATOM      7  N   GLY F   1      -7.163  34.862 -16.065  1.00 49.95 LIG-0.07  N 
ATOM      8 H3   GLY F   1      -7.108  35.207 -15.246  1.00 49.95 LIG 0.27  HD
ATOM      9 H1   GLY F   1      -7.863  35.213 -16.488  1.00 49.95 LIG 0.27  HD
ATOM     10 H2   GLY F   1      -7.262  33.980 -16.009  1.00 49.95 LIG 0.27  HD
ENDBRANCH 6 7
ENDBRANCH 3 6
ENDBRANCH 1 2
BRANCH 1 11
ATOM     11  C   HIS F   2      -5.204  30.582 -15.903  1.00 50.00 LIG 0.24  C 
ATOM     12 O    HIS F   2      -6.141  30.695 -15.110  1.00 49.82 LIG-0.27  OA
ATOM     13  N   GLY F   3      -4.911  29.445 -16.530  1.00 50.02 LIG-0.35  N 
ATOM     14 H    GLY F   3      -4.244  29.353 -17.065  1.00 50.02 LIG 0.16  HD
BRANCH 13 15
ATOM     15  CA  GLY F   3      -5.709  28.239 -16.358  1.00 50.20 LIG 0.21  C 
BRANCH 15 16
ATOM     16  C   GLY F   3      -5.648  27.322 -17.564  1.00 50.42 LIG 0.21  C 
ATOM     17 O    GLY F   3      -4.672  27.336 -18.314  1.00 50.69 LIG-0.29  OA
ENDBRANCH 15 16
ENDBRANCH 13 15
ENDBRANCH 1 11
BRANCH 1 18
ATOM     18  CB  HIS F   2      -3.072  31.784 -15.333  1.00 49.99 LIG 0.10  C 
BRANCH 18 19
ATOM     19  CG  HIS F   2      -1.803  31.432 -16.046  1.00 50.63 LIG 0.06  A 
ATOM     20  CD2 HIS F   2      -0.580  32.017 -16.038  1.00 51.31 LIG 0.14  A 
ATOM     21 NE2  HIS F   2       0.229  31.277 -16.867  1.00 51.32 LIG-0.25  NA
ATOM     22  CE1 HIS F   2      -0.473  30.277 -17.372  1.00 50.87 LIG 0.23  A 
ATOM     23 ND1  HIS F   2      -1.702  30.347 -16.892  1.00 50.82 LIG-0.24  NA
ENDBRANCH 18 19
ENDBRANCH 1 18
TORSDOF 8
ENDMDL
MODEL 154
USER: ADFR SOLUTION from run 88
USER: SCORE 6.993381 LL:  -1.221 LR:  -5.838 RR:   0.000 FEB:  -3.451
USER: RMSD 5.143342
USER: SEED 87
USER: STATUS no improvement in best in 31 clusters for 5 generations
USER: GENES 10
USER: genes 0 Translation |==|  0.45998 0.45768 0.53126
USER: genes 1 Rotation |==|  0.64647 0.94080 0.56001 0.67504
USER: genes 2 Torsion [C]-CA--N-[C] |==|  0.69490
USER: genes 3 Torsion [N]-C--CA-[N] |==|  0.84227
USER: genes 4 Torsion [C]-CA--N-[H3] |==|  0.67667
USER: genes 5 Torsion [N]-CA--C-[N] |==|  0.03977
USER: genes 6 Torsion [C]-N--CA-[C] |==|  0.28951
USER: genes 7 Torsion [N]-CA--C-[O] |==|  0.04195
USER: genes 8 Torsion [N]-CA--CB-[CG] |==|  0.56706
USER: genes 9 Torsion [CA]-CB--CG-[CD2] |==|  0.23192
ROOT
ATOM      1  CA  HIS F   2      -2.362  30.170 -18.549  1.00 49.99 LIG 0.18  C 
ENDROOT
BRANCH 1 2
ATOM      2  N   HIS F   2      -3.236  30.494 -17.421  1.00 49.83 LIG-0.35  N 
ATOM      3  C   GLY F   1      -4.108  29.620 -16.921  1.00 49.82 LIG 0.24  C 
ATOM      4 O    GLY F   1      -4.292  28.498 -17.399  1.00 49.53 LIG-0.27  OA
ATOM      5 H    HIS F   2      -3.135  31.291 -17.116  1.00 49.83 LIG 0.16  HD
BRANCH 3 6
ATOM      6  CA  GLY F   1      -4.890  30.085 -15.705  1.00 49.90 LIG 0.33  C 
BRANCH 6 7
ATOM      7  N   GLY F   1      -4.018  30.503 -14.568  1.00 49.95 LIG-0.07  N 
ATOM      8 H3   GLY F   1      -4.155  29.962 -13.874  1.00 49.95 LIG 0.27  HD
ATOM      9 H1   GLY F   1      -3.164  30.457 -14.816  1.00 49.95 LIG 0.27  HD
ATOM     10 H2   GLY F   1      -4.214  31.339 -14.334  1.00 49.95 LIG 0.27  HD
ENDBRANCH 6 7
ENDBRANCH 3 6
ENDBRANCH 1 2
BRANCH 1 11
ATOM     11  C   HIS F   2      -0.908  30.048 -18.097  1.00 50.00 LIG 0.24  C 
ATOM     12 O    HIS F   2       0.011  30.051 -18.919  1.00 49.82 LIG-0.27  OA
ATOM     13  N   GLY F   3      -0.713  29.951 -16.784  1.00 50.02 LIG-0.35  N 
ATOM     14 H    GLY F   3      -1.351  29.924 -16.207  1.00 50.02 LIG 0.16  HD
BRANCH 13 15
ATOM     15  CA  GLY F   3       0.621  29.883 -16.203  1.00 50.20 LIG 0.21  C 
BRANCH 15 16
ATOM     16  C   GLY F   3       1.044  31.189 -15.561  1.00 50.42 LIG 0.21  C 
ATOM     17 O    GLY F   3       0.215  32.067 -15.316  1.00 50.69 LIG-0.29  OA
ENDBRANCH 15 16
ENDBRANCH 13 15
ENDBRANCH 1 11
BRANCH 1 18
ATOM     18  CB  HIS F   2      -2.495  31.219 -19.655  1.00 49.99 LIG 0.10  C 
BRANCH 18 19
ATOM     19  CG  HIS F   2      -2.120  30.714 -21.014  1.00 50.63 LIG 0.06  A 
ATOM     20  CD2 HIS F   2      -2.830  30.021 -21.938  1.00 51.31 LIG 0.14  A 
ATOM     21 NE2  HIS F   2      -2.005  29.822 -23.020  1.00 51.32 LIG-0.25  NA
ATOM     22  CE1 HIS F   2      -0.828  30.367 -22.767  1.00 50.87 LIG 0.23  A 
ATOM     23 ND1  HIS F   2      -0.871  30.913 -21.565  1.00 50.82 LIG-0.24  NA
ENDBRANCH 18 19
ENDBRANCH 1 18
TORSDOF 8
ENDMDL
MODEL 155
USER: ADFR SOLUTION from run 104
USER: SCORE 6.943408 LL:  -1.128 LR:  -5.822 RR:   0.000 FEB:  -3.435
USER: RMSD 9.395752
USER: SEED 103
USER: STATUS no improvement in best in 32 clusters for 5 generations
USER: GENES 10
USER: genes 0 Translation |==|  0.60506 0.51847 0.09371
USER: genes 1 Rotation |==|  0.46325 0.80305 0.19431 0.75172
USER: genes 2 Torsion [C]-CA--N-[C] |==|  0.76287
USER: genes 3 Torsion [N]-C--CA-[N] |==|  0.66955
USER: genes 4 Torsion [C]-CA--N-[H3] |==|  0.86101
USER: genes 5 Torsion [N]-CA--C-[N] |==|  0.98777
USER: genes 6 Torsion [C]-N--CA-[C] |==|  0.81373
USER: genes 7 Torsion [N]-CA--C-[O] |==|  0.25137
USER: genes 8 Torsion [N]-CA--CB-[CG] |==|  0.65655
USER: genes 9 Torsion [CA]-CB--CG-[CD2] |==|  0.62133
ROOT
ATOM      1  CA  HIS F   2       0.140  30.946 -25.769  1.00 49.99 LIG 0.18  C 
ENDROOT
BRANCH 1 2
ATOM      2  N   HIS F   2      -0.710  31.915 -26.461  1.00 49.83 LIG-0.35  N 
ATOM      3  C   GLY F   1      -1.359  32.882 -25.816  1.00 49.82 LIG 0.24  C 
ATOM      4 O    GLY F   1      -1.346  33.005 -24.588  1.00 49.53 LIG-0.27  OA
ATOM      5 H    HIS F   2      -0.749  31.802 -27.312  1.00 49.83 LIG 0.16  HD
BRANCH 3 6
ATOM      6  CA  GLY F   1      -2.142  33.851 -26.686  1.00 49.90 LIG 0.33  C 
BRANCH 6 7
ATOM      7  N   GLY F   1      -1.672  35.262 -26.565  1.00 49.95 LIG-0.07  N 
ATOM      8 H3   GLY F   1      -1.618  35.485 -25.705  1.00 49.95 LIG 0.27  HD
ATOM      9 H1   GLY F   1      -0.869  35.342 -26.942  1.00 49.95 LIG 0.27  HD
ATOM     10 H2   GLY F   1      -2.247  35.803 -26.976  1.00 49.95 LIG 0.27  HD
ENDBRANCH 6 7
ENDBRANCH 3 6
ENDBRANCH 1 2
BRANCH 1 11
ATOM     11  C   HIS F   2       1.552  31.495 -25.576  1.00 50.00 LIG 0.24  C 
ATOM     12 O    HIS F   2       2.400  30.855 -24.949  1.00 49.82 LIG-0.27  OA
ATOM     13  N   GLY F   3       1.796  32.681 -26.130  1.00 50.02 LIG-0.35  N 
ATOM     14 H    GLY F   3       1.203  33.144 -26.547  1.00 50.02 LIG 0.16  HD
BRANCH 13 15
ATOM     15  CA  GLY F   3       3.111  33.305 -26.076  1.00 50.20 LIG 0.21  C 
BRANCH 15 16
ATOM     16  C   GLY F   3       3.507  33.710 -24.670  1.00 50.42 LIG 0.21  C 
ATOM     17 O    GLY F   3       4.123  32.931 -23.941  1.00 50.69 LIG-0.29  OA
ENDBRANCH 15 16
ENDBRANCH 13 15
ENDBRANCH 1 11
BRANCH 1 18
ATOM     18  CB  HIS F   2       0.179  29.619 -26.529  1.00 49.99 LIG 0.10  C 
BRANCH 18 19
ATOM     19  CG  HIS F   2      -0.243  28.439 -25.709  1.00 50.63 LIG 0.06  A 
ATOM     20  CD2 HIS F   2       0.283  27.195 -25.593  1.00 51.31 LIG 0.14  A 
ATOM     21 NE2  HIS F   2      -0.494  26.508 -24.691  1.00 51.32 LIG-0.25  NA
ATOM     22  CE1 HIS F   2      -1.467  27.299 -24.272  1.00 50.87 LIG 0.23  A 
ATOM     23 ND1  HIS F   2      -1.337  28.470 -24.869  1.00 50.82 LIG-0.24  NA
ENDBRANCH 18 19
ENDBRANCH 1 18
TORSDOF 8
ENDMDL
MODEL 156
USER: ADFR SOLUTION from run 180
USER: SCORE 7.019227 LL:  -1.240 LR:  -5.808 RR:   0.000 FEB:  -3.422
USER: RMSD 6.173512
USER: SEED 179
USER: STATUS no improvement in best in 24 clusters for 5 generations
USER: GENES 10
USER: genes 0 Translation |==|  0.39302 0.76849 0.50173
USER: genes 1 Rotation |==|  0.38118 0.42415 0.97223 0.58444
USER: genes 2 Torsion [C]-CA--N-[C] |==|  0.81617
USER: genes 3 Torsion [N]-C--CA-[N] |==|  0.23067
USER: genes 4 Torsion [C]-CA--N-[H3] |==|  0.25406
USER: genes 5 Torsion [N]-CA--C-[N] |==|  0.43333
USER: genes 6 Torsion [C]-N--CA-[C] |==|  0.71279
USER: genes 7 Torsion [N]-CA--C-[O] |==|  0.87522
USER: genes 8 Torsion [N]-CA--CB-[CG] |==|  0.61038
USER: genes 9 Torsion [CA]-CB--CG-[CD2] |==|  0.23590
ROOT
ATOM      1  CA  HIS F   2      -3.517  34.133 -19.037  1.00 49.99 LIG 0.18  C 
ENDROOT
BRANCH 1 2
ATOM      2  N   HIS F   2      -2.967  34.145 -20.392  1.00 49.83 LIG-0.35  N 
ATOM      3  C   GLY F   1      -1.663  34.270 -20.631  1.00 49.82 LIG 0.24  C 
ATOM      4 O    GLY F   1      -0.825  34.444 -19.742  1.00 49.53 LIG-0.27  OA
ATOM      5 H    HIS F   2      -3.558  34.064 -21.012  1.00 49.83 LIG 0.16  HD
BRANCH 3 6
ATOM      6  CA  GLY F   1      -1.245  34.192 -22.090  1.00 49.90 LIG 0.33  C 
BRANCH 6 7
ATOM      7  N   GLY F   1      -1.392  35.488 -22.815  1.00 49.95 LIG-0.07  N 
ATOM      8 H3   GLY F   1      -0.630  35.945 -22.763  1.00 49.95 LIG 0.27  HD
ATOM      9 H1   GLY F   1      -1.585  35.330 -23.670  1.00 49.95 LIG 0.27  HD
ATOM     10 H2   GLY F   1      -2.048  35.962 -22.446  1.00 49.95 LIG 0.27  HD
ENDBRANCH 6 7
ENDBRANCH 3 6
ENDBRANCH 1 2
BRANCH 1 11
ATOM     11  C   HIS F   2      -3.060  32.893 -18.271  1.00 50.00 LIG 0.24  C 
ATOM     12 O    HIS F   2      -2.706  31.875 -18.871  1.00 49.82 LIG-0.27  OA
ATOM     13  N   GLY F   3      -3.062  32.995 -16.944  1.00 50.02 LIG-0.35  N 
ATOM     14 H    GLY F   3      -3.331  33.693 -16.519  1.00 50.02 LIG 0.16  HD
BRANCH 13 15
ATOM     15  CA  GLY F   3      -2.600  31.913 -16.084  1.00 50.20 LIG 0.21  C 
BRANCH 15 16
ATOM     16  C   GLY F   3      -3.742  31.151 -15.441  1.00 50.42 LIG 0.21  C 
ATOM     17 O    GLY F   3      -4.693  31.751 -14.939  1.00 50.69 LIG-0.29  OA
ENDBRANCH 15 16
ENDBRANCH 13 15
ENDBRANCH 1 11
BRANCH 1 18
ATOM     18  CB  HIS F   2      -5.045  34.211 -19.071  1.00 49.99 LIG 0.10  C 
BRANCH 18 19
ATOM     19  CG  HIS F   2      -5.629  35.087 -18.006  1.00 50.63 LIG 0.06  A 
ATOM     20  CD2 HIS F   2      -5.840  36.426 -17.965  1.00 51.31 LIG 0.14  A 
ATOM     21 NE2  HIS F   2      -6.416  36.709 -16.749  1.00 51.32 LIG-0.25  NA
ATOM     22  CE1 HIS F   2      -6.547  35.586 -16.064  1.00 50.87 LIG 0.23  A 
ATOM     23 ND1  HIS F   2      -6.082  34.593 -16.801  1.00 50.82 LIG-0.24  NA
ENDBRANCH 18 19
ENDBRANCH 1 18
TORSDOF 8
ENDMDL
MODEL 157
USER: ADFR SOLUTION from run 172
USER: SCORE 6.929160 LL:  -1.209 LR:  -5.807 RR:   0.000 FEB:  -3.421
USER: RMSD 4.898411
USER: SEED 171
USER: STATUS no improvement in best in 21 clusters for 5 generations
USER: GENES 10
USER: genes 0 Translation |==|  0.36085 0.48126 0.67622
USER: genes 1 Rotation |==|  0.39756 0.48728 0.69038 0.95067
USER: genes 2 Torsion [C]-CA--N-[C] |==|  0.82684
USER: genes 3 Torsion [N]-C--CA-[N] |==|  0.22881
USER: genes 4 Torsion [C]-CA--N-[H3] |==|  0.38341
USER: genes 5 Torsion [N]-CA--C-[N] |==|  0.44441
USER: genes 6 Torsion [C]-N--CA-[C] |==|  0.15007
USER: genes 7 Torsion [N]-CA--C-[O] |==|  0.45129
USER: genes 8 Torsion [N]-CA--CB-[CG] |==|  0.13464
USER: genes 9 Torsion [CA]-CB--CG-[CD2] |==|  0.25599
ROOT
ATOM      1  CA  HIS F   2      -4.072  30.471 -16.157  1.00 49.99 LIG 0.18  C 
ENDROOT
BRANCH 1 2
ATOM      2  N   HIS F   2      -3.962  30.255 -17.600  1.00 49.83 LIG-0.35  N 
ATOM      3  C   GLY F   1      -4.286  29.099 -18.175  1.00 49.82 LIG 0.24  C 
ATOM      4 O    GLY F   1      -4.648  28.104 -17.540  1.00 49.53 LIG-0.27  OA
ATOM      5 H    HIS F   2      -3.671  30.937 -18.036  1.00 49.83 LIG 0.16  HD
BRANCH 3 6
ATOM      6  CA  GLY F   1      -4.184  29.058 -19.690  1.00 49.90 LIG 0.33  C 
BRANCH 6 7
ATOM      7  N   GLY F   1      -2.797  28.804 -20.180  1.00 49.95 LIG-0.07  N 
ATOM      8 H3   GLY F   1      -2.822  28.229 -20.858  1.00 49.95 LIG 0.27  HD
ATOM      9 H1   GLY F   1      -2.434  29.569 -20.454  1.00 49.95 LIG 0.27  HD
ATOM     10 H2   GLY F   1      -2.307  28.463 -19.520  1.00 49.95 LIG 0.27  HD
ENDBRANCH 6 7
ENDBRANCH 3 6
ENDBRANCH 1 2
BRANCH 1 11
ATOM     11  C   HIS F   2      -5.522  30.342 -15.694  1.00 50.00 LIG 0.24  C 
ATOM     12 O    HIS F   2      -6.454  30.443 -16.497  1.00 49.82 LIG-0.27  OA
ATOM     13  N   GLY F   3      -5.700  30.106 -14.396  1.00 50.02 LIG-0.35  N 
ATOM     14 H    GLY F   3      -5.056  30.059 -13.827  1.00 50.02 LIG 0.16  HD
BRANCH 13 15
ATOM     15  CA  GLY F   3      -7.023  29.904 -13.820  1.00 50.20 LIG 0.21  C 
BRANCH 15 16
ATOM     16  C   GLY F   3      -7.804  28.811 -14.522  1.00 50.42 LIG 0.21  C 
ATOM     17 O    GLY F   3      -8.784  28.295 -13.983  1.00 50.69 LIG-0.29  OA
ENDBRANCH 15 16
ENDBRANCH 13 15
ENDBRANCH 1 11
BRANCH 1 18
ATOM     18  CB  HIS F   2      -3.504  31.837 -15.769  1.00 49.99 LIG 0.10  C 
BRANCH 18 19
ATOM     19  CG  HIS F   2      -4.003  32.964 -16.620  1.00 50.63 LIG 0.06  A 
ATOM     20  CD2 HIS F   2      -5.058  33.802 -16.466  1.00 51.31 LIG 0.14  A 
ATOM     21 NE2  HIS F   2      -5.053  34.662 -17.539  1.00 51.32 LIG-0.25  NA
ATOM     22  CE1 HIS F   2      -4.037  34.358 -18.327  1.00 50.87 LIG 0.23  A 
ATOM     23 ND1  HIS F   2      -3.386  33.339 -17.795  1.00 50.82 LIG-0.24  NA
ENDBRANCH 18 19
ENDBRANCH 1 18
TORSDOF 8
ENDMDL
MODEL 158
USER: ADFR SOLUTION from run 3
USER: SCORE 7.004539 LL:  -1.374 LR:  -5.781 RR:   0.000 FEB:  -3.394
USER: RMSD 5.129843
USER: SEED 814396
USER: STATUS no improvement in best in 15 clusters for 5 generations
USER: GENES 10
USER: genes 0 Translation |==|  0.57448 0.52055 0.66532
USER: genes 1 Rotation |==|  0.53493 0.91773 0.46285 0.77001
USER: genes 2 Torsion [C]-CA--N-[C] |==|  0.54444
USER: genes 3 Torsion [N]-C--CA-[N] |==|  0.67788
USER: genes 4 Torsion [C]-CA--N-[H3] |==|  0.73608
USER: genes 5 Torsion [N]-CA--C-[N] |==|  0.44894
USER: genes 6 Torsion [C]-N--CA-[C] |==|  0.51634
USER: genes 7 Torsion [N]-CA--C-[O] |==|  0.02162
USER: genes 8 Torsion [N]-CA--CB-[CG] |==|  0.51239
USER: genes 9 Torsion [CA]-CB--CG-[CD2] |==|  0.59820
ROOT
ATOM      1  CA  HIS F   2      -0.387  30.972 -16.337  1.00 49.99 LIG 0.18  C 
ENDROOT
BRANCH 1 2
ATOM      2  N   HIS F   2      -1.618  31.602 -15.858  1.00 49.83 LIG-0.35  N 
ATOM      3  C   GLY F   1      -2.824  31.105 -16.127  1.00 49.82 LIG 0.24  C 
ATOM      4 O    GLY F   1      -3.006  30.116 -16.843  1.00 49.53 LIG-0.27  OA
ATOM      5 H    HIS F   2      -1.490  32.314 -15.394  1.00 49.83 LIG 0.16  HD
BRANCH 3 6
ATOM      6  CA  GLY F   1      -3.998  31.835 -15.497  1.00 49.90 LIG 0.33  C 
BRANCH 6 7
ATOM      7  N   GLY F   1      -4.753  31.000 -14.516  1.00 49.95 LIG-0.07  N 
ATOM      8 H3   GLY F   1      -5.447  30.619 -14.923  1.00 49.95 LIG 0.27  HD
ATOM      9 H1   GLY F   1      -4.217  30.369 -14.189  1.00 49.95 LIG 0.27  HD
ATOM     10 H2   GLY F   1      -5.045  31.514 -13.851  1.00 49.95 LIG 0.27  HD
ENDBRANCH 6 7
ENDBRANCH 3 6
ENDBRANCH 1 2
BRANCH 1 11
ATOM     11  C   HIS F   2       0.829  31.499 -15.578  1.00 50.00 LIG 0.24  C 
ATOM     12 O    HIS F   2       0.766  32.552 -14.937  1.00 49.82 LIG-0.27  OA
ATOM     13  N   GLY F   3       1.928  30.751 -15.647  1.00 50.02 LIG-0.35  N 
ATOM     14 H    GLY F   3       1.985  30.030 -16.112  1.00 50.02 LIG 0.16  HD
BRANCH 13 15
ATOM     15  CA  GLY F   3       3.147  31.099 -14.930  1.00 50.20 LIG 0.21  C 
BRANCH 15 16
ATOM     16  C   GLY F   3       4.306  30.183 -15.271  1.00 50.42 LIG 0.21  C 
ATOM     17 O    GLY F   3       4.206  29.356 -16.178  1.00 50.69 LIG-0.29  OA
ENDBRANCH 15 16
ENDBRANCH 13 15
ENDBRANCH 1 11
BRANCH 1 18
ATOM     18  CB  HIS F   2      -0.217  31.190 -17.842  1.00 49.99 LIG 0.10  C 
BRANCH 18 19
ATOM     19  CG  HIS F   2       0.968  30.483 -18.424  1.00 50.63 LIG 0.06  A 
ATOM     20  CD2 HIS F   2       1.822  30.837 -19.416  1.00 51.31 LIG 0.14  A 
ATOM     21 NE2  HIS F   2       2.741  29.822 -19.542  1.00 51.32 LIG-0.25  NA
ATOM     22  CE1 HIS F   2       2.459  28.876 -18.663  1.00 50.87 LIG 0.23  A 
ATOM     23 ND1  HIS F   2       1.395  29.251 -17.975  1.00 50.82 LIG-0.24  NA
ENDBRANCH 18 19
ENDBRANCH 1 18
TORSDOF 8
ENDMDL
MODEL 159
USER: ADFR SOLUTION from run 18
USER: SCORE 7.167449 LL:  -1.411 LR:  -5.760 RR:   0.000 FEB:  -3.373
USER: RMSD 4.431707
USER: SEED 17
USER: STATUS no improvement in best in 31 clusters for 5 generations
USER: GENES 10
USER: genes 0 Translation |==|  0.66911 0.58533 0.45428
USER: genes 1 Rotation |==|  0.64265 0.48416 0.55894 0.97532
USER: genes 2 Torsion [C]-CA--N-[C] |==|  0.80556
USER: genes 3 Torsion [N]-C--CA-[N] |==|  0.68098
USER: genes 4 Torsion [C]-CA--N-[H3] |==|  0.62865
USER: genes 5 Torsion [N]-CA--C-[N] |==|  0.95304
USER: genes 6 Torsion [C]-N--CA-[C] |==|  0.57469
USER: genes 7 Torsion [N]-CA--C-[O] |==|  0.96993
USER: genes 8 Torsion [N]-CA--CB-[CG] |==|  0.82177
USER: genes 9 Torsion [CA]-CB--CG-[CD2] |==|  0.97749
ROOT
ATOM      1  CA  HIS F   2       1.245  31.798 -19.819  1.00 49.99 LIG 0.18  C 
ENDROOT
BRANCH 1 2
ATOM      2  N   HIS F   2       1.235  32.880 -20.805  1.00 49.83 LIG-0.35  N 
ATOM      3  C   GLY F   1       0.455  32.853 -21.883  1.00 49.82 LIG 0.24  C 
ATOM      4 O    GLY F   1      -0.273  31.899 -22.171  1.00 49.53 LIG-0.27  OA
ATOM      5 H    HIS F   2       1.773  33.525 -20.623  1.00 49.83 LIG 0.16  HD
BRANCH 3 6
ATOM      6  CA  GLY F   1       0.508  34.085 -22.771  1.00 49.90 LIG 0.33  C 
BRANCH 6 7
ATOM      7  N   GLY F   1      -0.782  34.835 -22.815  1.00 49.95 LIG-0.07  N 
ATOM      8 H3   GLY F   1      -0.980  35.037 -23.659  1.00 49.95 LIG 0.27  HD
ATOM      9 H1   GLY F   1      -1.431  34.332 -22.470  1.00 49.95 LIG 0.27  HD
ATOM     10 H2   GLY F   1      -0.706  35.585 -22.342  1.00 49.95 LIG 0.27  HD
ENDBRANCH 6 7
ENDBRANCH 3 6
ENDBRANCH 1 2
BRANCH 1 11
ATOM     11  C   HIS F   2      -0.058  31.770 -19.023  1.00 50.00 LIG 0.24  C 
ATOM     12 O    HIS F   2      -0.376  30.776 -18.366  1.00 49.82 LIG-0.27  OA
ATOM     13  N   GLY F   3      -0.800  32.874 -19.082  1.00 50.02 LIG-0.35  N 
ATOM     14 H    GLY F   3      -0.596  33.561 -19.558  1.00 50.02 LIG 0.16  HD
BRANCH 13 15
ATOM     15  CA  GLY F   3      -2.041  33.014 -18.331  1.00 50.20 LIG 0.21  C 
BRANCH 15 16
ATOM     16  C   GLY F   3      -3.013  33.974 -18.987  1.00 50.42 LIG 0.21  C 
ATOM     17 O    GLY F   3      -2.655  34.689 -19.924  1.00 50.69 LIG-0.29  OA
ENDBRANCH 15 16
ENDBRANCH 13 15
ENDBRANCH 1 11
BRANCH 1 18
ATOM     18  CB  HIS F   2       2.446  31.932 -18.880  1.00 49.99 LIG 0.10  C 
BRANCH 18 19
ATOM     19  CG  HIS F   2       3.769  31.786 -19.567  1.00 50.63 LIG 0.06  A 
ATOM     20  CD2 HIS F   2       4.083  31.417 -20.833  1.00 51.31 LIG 0.14  A 
ATOM     21 NE2  HIS F   2       5.453  31.460 -20.940  1.00 51.32 LIG-0.25  NA
ATOM     22  CE1 HIS F   2       5.963  31.835 -19.780  1.00 50.87 LIG 0.23  A 
ATOM     23 ND1  HIS F   2       4.968  32.040 -18.935  1.00 50.82 LIG-0.24  NA
ENDBRANCH 18 19
ENDBRANCH 1 18
TORSDOF 8
ENDMDL
MODEL 160
USER: ADFR SOLUTION from run 33
USER: SCORE 7.160350 LL:  -1.519 LR:  -5.740 RR:   0.000 FEB:  -3.354
USER: RMSD 5.996975
USER: SEED 32
USER: STATUS no improvement in best in 34 clusters for 5 generations
USER: GENES 10
USER: genes 0 Translation |==|  0.68512 0.59757 0.52137
USER: genes 1 Rotation |==|  0.71643 0.21270 0.84415 0.54668
USER: genes 2 Torsion [C]-CA--N-[C] |==|  0.14118
USER: genes 3 Torsion [N]-C--CA-[N] |==|  0.35197
USER: genes 4 Torsion [C]-CA--N-[H3] |==|  0.18954
USER: genes 5 Torsion [N]-CA--C-[N] |==|  0.10000
USER: genes 6 Torsion [C]-N--CA-[C] |==|  0.38233
USER: genes 7 Torsion [N]-CA--C-[O] |==|  0.02928
USER: genes 8 Torsion [N]-CA--CB-[CG] |==|  0.92769
USER: genes 9 Torsion [CA]-CB--CG-[CD2] |==|  0.82990
ROOT
ATOM      1  CA  HIS F   2       1.521  31.954 -18.712  1.00 49.99 LIG 0.18  C 
ENDROOT
BRANCH 1 2
ATOM      2  N   HIS F   2       0.556  33.045 -18.851  1.00 49.83 LIG-0.35  N 
ATOM      3  C   GLY F   1      -0.441  33.007 -19.732  1.00 49.82 LIG 0.24  C 
ATOM      4 O    GLY F   1      -0.598  32.085 -20.538  1.00 49.53 LIG-0.27  OA
ATOM      5 H    HIS F   2       0.692  33.704 -18.316  1.00 49.83 LIG 0.16  HD
BRANCH 3 6
ATOM      6  CA  GLY F   1      -1.400  34.185 -19.702  1.00 49.90 LIG 0.33  C 
BRANCH 6 7
ATOM      7  N   GLY F   1      -1.575  34.835 -21.035  1.00 49.95 LIG-0.07  N 
ATOM      8 H3   GLY F   1      -2.007  34.280 -21.581  1.00 49.95 LIG 0.27  HD
ATOM      9 H1   GLY F   1      -2.047  35.584 -20.940  1.00 49.95 LIG 0.27  HD
ATOM     10 H2   GLY F   1      -0.778  35.029 -21.378  1.00 49.95 LIG 0.27  HD
ENDBRANCH 6 7
ENDBRANCH 3 6
ENDBRANCH 1 2
BRANCH 1 11
ATOM     11  C   HIS F   2       2.110  31.569 -20.069  1.00 50.00 LIG 0.24  C 
ATOM     12 O    HIS F   2       2.365  30.392 -20.335  1.00 49.82 LIG-0.27  OA
ATOM     13  N   GLY F   3       2.309  32.571 -20.922  1.00 50.02 LIG-0.35  N 
ATOM     14 H    GLY F   3       2.156  33.396 -20.734  1.00 50.02 LIG 0.16  HD
BRANCH 13 15
ATOM     15  CA  GLY F   3       2.813  32.349 -22.271  1.00 50.20 LIG 0.21  C 
BRANCH 15 16
ATOM     16  C   GLY F   3       2.089  33.185 -23.308  1.00 50.42 LIG 0.21  C 
ATOM     17 O    GLY F   3       1.322  34.085 -22.965  1.00 50.69 LIG-0.29  OA
ENDBRANCH 15 16
ENDBRANCH 13 15
ENDBRANCH 1 11
BRANCH 1 18
ATOM     18  CB  HIS F   2       0.875  30.740 -18.042  1.00 49.99 LIG 0.10  C 
BRANCH 18 19
ATOM     19  CG  HIS F   2      -0.284  31.084 -17.159  1.00 50.63 LIG 0.06  A 
ATOM     20  CD2 HIS F   2      -0.362  31.852 -16.044  1.00 51.31 LIG 0.14  A 
ATOM     21 NE2  HIS F   2      -1.674  31.839 -15.633  1.00 51.32 LIG-0.25  NA
ATOM     22  CE1 HIS F   2      -2.376  31.086 -16.461  1.00 50.87 LIG 0.23  A 
ATOM     23 ND1  HIS F   2      -1.562  30.620 -17.392  1.00 50.82 LIG-0.24  NA
ENDBRANCH 18 19
ENDBRANCH 1 18
TORSDOF 8
ENDMDL
MODEL 161
USER: ADFR SOLUTION from run 92
USER: SCORE 7.108587 LL:  -1.445 LR:  -5.714 RR:   0.000 FEB:  -3.328
USER: RMSD 4.429420
USER: SEED 91
USER: STATUS no improvement in best in 26 clusters for 5 generations
USER: GENES 10
USER: genes 0 Translation |==|  0.51144 0.62889 0.62084
USER: genes 1 Rotation |==|  0.12012 0.55089 0.75839 0.69062
USER: genes 2 Torsion [C]-CA--N-[C] |==|  0.70925
USER: genes 3 Torsion [N]-C--CA-[N] |==|  0.83322
USER: genes 4 Torsion [C]-CA--N-[H3] |==|  0.74006
USER: genes 5 Torsion [N]-CA--C-[N] |==|  0.01114
USER: genes 6 Torsion [C]-N--CA-[C] |==|  0.30606
USER: genes 7 Torsion [N]-CA--C-[O] |==|  0.07508
USER: genes 8 Torsion [N]-CA--CB-[CG] |==|  0.19939
USER: genes 9 Torsion [CA]-CB--CG-[CD2] |==|  0.83758
ROOT
ATOM      1  CA  HIS F   2      -1.475  32.353 -17.071  1.00 49.99 LIG 0.18  C 
ENDROOT
BRANCH 1 2
ATOM      2  N   HIS F   2      -0.625  31.162 -17.064  1.00 49.83 LIG-0.35  N 
ATOM      3  C   GLY F   1       0.343  30.983 -16.168  1.00 49.82 LIG 0.24  C 
ATOM      4 O    GLY F   1       0.642  31.823 -15.315  1.00 49.53 LIG-0.27  OA
ATOM      5 H    HIS F   2      -0.808  30.596 -17.685  1.00 49.83 LIG 0.16  HD
BRANCH 3 6
ATOM      6  CA  GLY F   1       1.088  29.661 -16.251  1.00 49.90 LIG 0.33  C 
BRANCH 6 7
ATOM      7  N   GLY F   1       0.203  28.473 -16.065  1.00 49.95 LIG-0.07  N 
ATOM      8 H3   GLY F   1       0.206  28.232 -15.208  1.00 49.95 LIG 0.27  HD
ATOM      9 H1   GLY F   1      -0.627  28.680 -16.311  1.00 49.95 LIG 0.27  HD
ATOM     10 H2   GLY F   1       0.501  27.800 -16.564  1.00 49.95 LIG 0.27  HD
ENDBRANCH 6 7
ENDBRANCH 3 6
ENDBRANCH 1 2
BRANCH 1 11
ATOM     11  C   HIS F   2      -2.864  32.038 -16.521  1.00 50.00 LIG 0.24  C 
ATOM     12 O    HIS F   2      -3.754  32.892 -16.522  1.00 49.82 LIG-0.27  OA
ATOM     13  N   GLY F   3      -3.041  30.800 -16.063  1.00 50.02 LIG-0.35  N 
ATOM     14 H    GLY F   3      -2.419  30.207 -16.037  1.00 50.02 LIG 0.16  HD
BRANCH 13 15
ATOM     15  CA  GLY F   3      -4.328  30.338 -15.559  1.00 50.20 LIG 0.21  C 
BRANCH 15 16
ATOM     16  C   GLY F   3      -4.981  29.320 -16.473  1.00 50.42 LIG 0.21  C 
ATOM     17 O    GLY F   3      -4.297  28.603 -17.204  1.00 50.69 LIG-0.29  OA
ENDBRANCH 15 16
ENDBRANCH 13 15
ENDBRANCH 1 11
BRANCH 1 18
ATOM     18  CB  HIS F   2      -1.575  32.939 -18.481  1.00 49.99 LIG 0.10  C 
BRANCH 18 19
ATOM     19  CG  HIS F   2      -2.401  32.115 -19.420  1.00 50.63 LIG 0.06  A 
ATOM     20  CD2 HIS F   2      -2.277  30.828 -19.826  1.00 51.31 LIG 0.14  A 
ATOM     21 NE2  HIS F   2      -3.315  30.572 -20.689  1.00 51.32 LIG-0.25  NA
ATOM     22  CE1 HIS F   2      -4.048  31.665 -20.815  1.00 50.87 LIG 0.23  A 
ATOM     23 ND1  HIS F   2      -3.519  32.610 -20.058  1.00 50.82 LIG-0.24  NA
ENDBRANCH 18 19
ENDBRANCH 1 18
TORSDOF 8
ENDMDL
MODEL 162
USER: ADFR SOLUTION from run 162
USER: SCORE 7.159523 LL:  -1.519 LR:  -5.710 RR:   0.000 FEB:  -3.324
USER: RMSD 5.479374
USER: SEED 161
USER: STATUS no improvement in best in 18 clusters for 5 generations
USER: GENES 10
USER: genes 0 Translation |==|  0.60817 0.70384 0.43751
USER: genes 1 Rotation |==|  0.73144 0.36518 0.90783 0.60926
USER: genes 2 Torsion [C]-CA--N-[C] |==|  0.85471
USER: genes 3 Torsion [N]-C--CA-[N] |==|  0.43738
USER: genes 4 Torsion [C]-CA--N-[H3] |==|  0.24199
USER: genes 5 Torsion [N]-CA--C-[N] |==|  0.90540
USER: genes 6 Torsion [C]-N--CA-[C] |==|  0.63072
USER: genes 7 Torsion [N]-CA--C-[O] |==|  0.00216
USER: genes 8 Torsion [N]-CA--CB-[CG] |==|  0.41983
USER: genes 9 Torsion [CA]-CB--CG-[CD2] |==|  0.20114
ROOT
ATOM      1  CA  HIS F   2       0.194  33.309 -20.096  1.00 49.99 LIG 0.18  C 
ENDROOT
BRANCH 1 2
ATOM      2  N   HIS F   2      -0.964  33.962 -20.708  1.00 49.83 LIG-0.35  N 
ATOM      3  C   GLY F   1      -0.932  34.457 -21.943  1.00 49.82 LIG 0.24  C 
ATOM      4 O    GLY F   1       0.081  34.459 -22.647  1.00 49.53 LIG-0.27  OA
ATOM      5 H    HIS F   2      -1.657  33.996 -20.200  1.00 49.83 LIG 0.16  HD
BRANCH 3 6
ATOM      6  CA  GLY F   1      -2.238  35.040 -22.459  1.00 49.90 LIG 0.33  C 
BRANCH 6 7
ATOM      7  N   GLY F   1      -2.047  36.023 -23.565  1.00 49.95 LIG-0.07  N 
ATOM      8 H3   GLY F   1      -2.022  35.593 -24.344  1.00 49.95 LIG 0.27  HD
ATOM      9 H1   GLY F   1      -2.723  36.603 -23.567  1.00 49.95 LIG 0.27  HD
ATOM     10 H2   GLY F   1      -1.282  36.462 -23.444  1.00 49.95 LIG 0.27  HD
ENDBRANCH 6 7
ENDBRANCH 3 6
ENDBRANCH 1 2
BRANCH 1 11
ATOM     11  C   HIS F   2       0.742  32.207 -21.001  1.00 50.00 LIG 0.24  C 
ATOM     12 O    HIS F   2       1.950  31.961 -21.037  1.00 49.82 LIG-0.27  OA
ATOM     13  N   GLY F   3      -0.160  31.543 -21.721  1.00 50.02 LIG-0.35  N 
ATOM     14 H    GLY F   3      -1.000  31.726 -21.720  1.00 50.02 LIG 0.16  HD
BRANCH 13 15
ATOM     15  CA  GLY F   3       0.209  30.431 -22.587  1.00 50.20 LIG 0.21  C 
BRANCH 15 16
ATOM     16  C   GLY F   3      -0.417  30.533 -23.965  1.00 50.42 LIG 0.21  C 
ATOM     17 O    GLY F   3      -1.136  31.488 -24.258  1.00 50.69 LIG-0.29  OA
ENDBRANCH 15 16
ENDBRANCH 13 15
ENDBRANCH 1 11
BRANCH 1 18
ATOM     18  CB  HIS F   2      -0.166  32.745 -18.720  1.00 49.99 LIG 0.10  C 
BRANCH 18 19
ATOM     19  CG  HIS F   2       0.639  31.544 -18.331  1.00 50.63 LIG 0.06  A 
ATOM     20  CD2 HIS F   2       1.936  31.420 -17.954  1.00 51.31 LIG 0.14  A 
ATOM     21 NE2  HIS F   2       2.158  30.088 -17.696  1.00 51.32 LIG-0.25  NA
ATOM     22  CE1 HIS F   2       1.041  29.416 -17.913  1.00 50.87 LIG 0.23  A 
ATOM     23 ND1  HIS F   2       0.108  30.271 -18.295  1.00 50.82 LIG-0.24  NA
ENDBRANCH 18 19
ENDBRANCH 1 18
TORSDOF 8
ENDMDL
MODEL 163
USER: ADFR SOLUTION from run 3
USER: SCORE 6.966070 LL:  -1.361 LR:  -5.683 RR:   0.000 FEB:  -3.297
USER: RMSD 6.727578
USER: SEED 814396
USER: STATUS no improvement in best in 15 clusters for 5 generations
USER: GENES 10
USER: genes 0 Translation |==|  0.62128 0.74344 0.32956
USER: genes 1 Rotation |==|  0.72680 0.30799 0.88090 0.62886
USER: genes 2 Torsion [C]-CA--N-[C] |==|  0.16882
USER: genes 3 Torsion [N]-C--CA-[N] |==|  0.20637
USER: genes 4 Torsion [C]-CA--N-[H3] |==|  0.72315
USER: genes 5 Torsion [N]-CA--C-[N] |==|  0.08954
USER: genes 6 Torsion [C]-N--CA-[C] |==|  0.30663
USER: genes 7 Torsion [N]-CA--C-[O] |==|  0.02354
USER: genes 8 Torsion [N]-CA--CB-[CG] |==|  0.51162
USER: genes 9 Torsion [CA]-CB--CG-[CD2] |==|  0.62043
ROOT
ATOM      1  CA  HIS F   2       0.420  33.814 -21.877  1.00 49.99 LIG 0.18  C 
ENDROOT
BRANCH 1 2
ATOM      2  N   HIS F   2      -0.579  34.778 -22.340  1.00 49.83 LIG-0.35  N 
ATOM      3  C   GLY F   1      -1.798  34.410 -22.727  1.00 49.82 LIG 0.24  C 
ATOM      4 O    GLY F   1      -2.165  33.233 -22.784  1.00 49.53 LIG-0.27  OA
ATOM      5 H    HIS F   2      -0.307  35.594 -22.337  1.00 49.83 LIG 0.16  HD
BRANCH 3 6
ATOM      6  CA  GLY F   1      -2.742  35.538 -23.110  1.00 49.90 LIG 0.33  C 
BRANCH 6 7
ATOM      7  N   GLY F   1      -2.422  36.148 -24.434  1.00 49.95 LIG-0.07  N 
ATOM      8 H3   GLY F   1      -1.967  36.903 -24.311  1.00 49.95 LIG 0.27  HD
ATOM      9 H1   GLY F   1      -1.930  35.581 -24.912  1.00 49.95 LIG 0.27  HD
ATOM     10 H2   GLY F   1      -3.177  36.326 -24.870  1.00 49.95 LIG 0.27  HD
ENDBRANCH 6 7
ENDBRANCH 3 6
ENDBRANCH 1 2
BRANCH 1 11
ATOM     11  C   HIS F   2       0.751  32.801 -22.972  1.00 50.00 LIG 0.24  C 
ATOM     12 O    HIS F   2       1.046  31.638 -22.689  1.00 49.82 LIG-0.27  OA
ATOM     13  N   GLY F   3       0.687  33.254 -24.222  1.00 50.02 LIG-0.35  N 
ATOM     14 H    GLY F   3       0.506  34.070 -24.426  1.00 50.02 LIG 0.16  HD
BRANCH 13 15
ATOM     15  CA  GLY F   3       0.922  32.390 -25.372  1.00 50.20 LIG 0.21  C 
BRANCH 15 16
ATOM     16  C   GLY F   3      -0.339  32.128 -26.172  1.00 50.42 LIG 0.21  C 
ATOM     17 O    GLY F   3      -1.377  32.742 -25.926  1.00 50.69 LIG-0.29  OA
ENDBRANCH 15 16
ENDBRANCH 13 15
ENDBRANCH 1 11
BRANCH 1 18
ATOM     18  CB  HIS F   2      -0.060  33.100 -20.612  1.00 49.99 LIG 0.10  C 
BRANCH 18 19
ATOM     19  CG  HIS F   2       0.953  32.168 -20.023  1.00 50.63 LIG 0.06  A 
ATOM     20  CD2 HIS F   2       0.830  30.915 -19.521  1.00 51.31 LIG 0.14  A 
ATOM     21 NE2  HIS F   2       2.082  30.513 -19.120  1.00 51.32 LIG-0.25  NA
ATOM     22  CE1 HIS F   2       2.943  31.486 -19.361  1.00 50.87 LIG 0.23  A 
ATOM     23 ND1  HIS F   2       2.288  32.496 -19.907  1.00 50.82 LIG-0.24  NA
ENDBRANCH 18 19
ENDBRANCH 1 18
TORSDOF 8
ENDMDL
MODEL 164
USER: ADFR SOLUTION from run 152
USER: SCORE 6.977140 LL:  -1.309 LR:  -5.672 RR:   0.000 FEB:  -3.286
USER: RMSD 4.839925
USER: SEED 151
USER: STATUS no improvement in best in 19 clusters for 5 generations
USER: GENES 10
USER: genes 0 Translation |==|  0.35645 0.57457 0.73258
USER: genes 1 Rotation |==|  0.09540 0.53416 0.40983 0.77750
USER: genes 2 Torsion [C]-CA--N-[C] |==|  0.83456
USER: genes 3 Torsion [N]-C--CA-[N] |==|  0.84135
USER: genes 4 Torsion [C]-CA--N-[H3] |==|  0.22504
USER: genes 5 Torsion [N]-CA--C-[N] |==|  0.36667
USER: genes 6 Torsion [C]-N--CA-[C] |==|  0.52824
USER: genes 7 Torsion [N]-CA--C-[O] |==|  0.92841
USER: genes 8 Torsion [N]-CA--CB-[CG] |==|  0.17500
USER: genes 9 Torsion [CA]-CB--CG-[CD2] |==|  0.39390
ROOT
ATOM      1  CA  HIS F   2      -4.148  31.661 -15.227  1.00 49.99 LIG 0.18  C 
ENDROOT
BRANCH 1 2
ATOM      2  N   HIS F   2      -4.558  30.264 -15.080  1.00 49.83 LIG-0.35  N 
ATOM      3  C   GLY F   1      -5.813  29.914 -14.808  1.00 49.82 LIG 0.24  C 
ATOM      4 O    GLY F   1      -6.715  30.731 -14.601  1.00 49.53 LIG-0.27  OA
ATOM      5 H    HIS F   2      -3.919  29.698 -15.185  1.00 49.83 LIG 0.16  HD
BRANCH 3 6
ATOM      6  CA  GLY F   1      -6.091  28.421 -14.758  1.00 49.90 LIG 0.33  C 
BRANCH 6 7
ATOM      7  N   GLY F   1      -5.729  27.712 -16.021  1.00 49.95 LIG-0.07  N 
ATOM      8 H3   GLY F   1      -4.854  27.552 -16.032  1.00 49.95 LIG 0.27  HD
ATOM      9 H1   GLY F   1      -6.172  26.941 -16.066  1.00 49.95 LIG 0.27  HD
ATOM     10 H2   GLY F   1      -5.946  28.219 -16.719  1.00 49.95 LIG 0.27  HD
ENDBRANCH 6 7
ENDBRANCH 3 6
ENDBRANCH 1 2
BRANCH 1 11
ATOM     11  C   HIS F   2      -4.919  32.341 -16.357  1.00 50.00 LIG 0.24  C 
ATOM     12 O    HIS F   2      -5.038  31.797 -17.458  1.00 49.82 LIG-0.27  OA
ATOM     13  N   GLY F   3      -5.448  33.528 -16.069  1.00 50.02 LIG-0.35  N 
ATOM     14 H    GLY F   3      -5.348  33.924 -15.312  1.00 50.02 LIG 0.16  HD
BRANCH 13 15
ATOM     15  CA  GLY F   3      -6.255  34.269 -17.029  1.00 50.20 LIG 0.21  C 
BRANCH 15 16
ATOM     16  C   GLY F   3      -6.542  35.688 -16.576  1.00 50.42 LIG 0.21  C 
ATOM     17 O    GLY F   3      -6.547  35.976 -15.379  1.00 50.69 LIG-0.29  OA
ENDBRANCH 15 16
ENDBRANCH 13 15
ENDBRANCH 1 11
BRANCH 1 18
ATOM     18  CB  HIS F   2      -2.641  31.761 -15.469  1.00 49.99 LIG 0.10  C 
BRANCH 18 19
ATOM     19  CG  HIS F   2      -2.188  31.110 -16.738  1.00 50.63 LIG 0.06  A 
ATOM     20  CD2 HIS F   2      -1.247  31.474 -17.644  1.00 51.31 LIG 0.14  A 
ATOM     21 NE2  HIS F   2      -1.228  30.507 -18.622  1.00 51.32 LIG-0.25  NA
ATOM     22  CE1 HIS F   2      -2.130  29.585 -18.330  1.00 50.87 LIG 0.23  A 
ATOM     23 ND1  HIS F   2      -2.721  29.924 -17.198  1.00 50.82 LIG-0.24  NA
ENDBRANCH 18 19
ENDBRANCH 1 18
TORSDOF 8
ENDMDL
MODEL 165
USER: ADFR SOLUTION from run 84
USER: SCORE 7.019595 LL:  -1.354 LR:  -5.668 RR:   0.000 FEB:  -3.282
USER: RMSD 7.074253
USER: SEED 83
USER: STATUS no improvement in best in 36 clusters for 5 generations
USER: GENES 10
USER: genes 0 Translation |==|  0.28313 0.38154 0.68437
USER: genes 1 Rotation |==|  0.46559 0.34635 0.77137 0.88932
USER: genes 2 Torsion [C]-CA--N-[C] |==|  0.82773
USER: genes 3 Torsion [N]-C--CA-[N] |==|  0.40559
USER: genes 4 Torsion [C]-CA--N-[H3] |==|  0.34474
USER: genes 5 Torsion [N]-CA--C-[N] |==|  0.37261
USER: genes 6 Torsion [C]-N--CA-[C] |==|  0.58200
USER: genes 7 Torsion [N]-CA--C-[O] |==|  0.78451
USER: genes 8 Torsion [N]-CA--CB-[CG] |==|  0.34646
USER: genes 9 Torsion [CA]-CB--CG-[CD2] |==|  0.74306
ROOT
ATOM      1  CA  HIS F   2      -5.413  29.200 -16.023  1.00 49.99 LIG 0.18  C 
ENDROOT
BRANCH 1 2
ATOM      2  N   HIS F   2      -4.891  29.739 -17.279  1.00 49.83 LIG-0.35  N 
ATOM      3  C   GLY F   1      -4.409  28.958 -18.244  1.00 49.82 LIG 0.24  C 
ATOM      4 O    GLY F   1      -4.307  27.733 -18.137  1.00 49.53 LIG-0.27  OA
ATOM      5 H    HIS F   2      -4.925  30.596 -17.334  1.00 49.83 LIG 0.16  HD
BRANCH 3 6
ATOM      6  CA  GLY F   1      -3.972  29.666 -19.515  1.00 49.90 LIG 0.33  C 
BRANCH 6 7
ATOM      7  N   GLY F   1      -2.797  29.022 -20.174  1.00 49.95 LIG-0.07  N 
ATOM      8 H3   GLY F   1      -3.003  28.818 -21.015  1.00 49.95 LIG 0.27  HD
ATOM      9 H1   GLY F   1      -2.107  29.585 -20.166  1.00 49.95 LIG 0.27  HD
ATOM     10 H2   GLY F   1      -2.579  28.280 -19.734  1.00 49.95 LIG 0.27  HD
ENDBRANCH 6 7
ENDBRANCH 3 6
ENDBRANCH 1 2
BRANCH 1 11
ATOM     11  C   HIS F   2      -6.621  28.299 -16.274  1.00 50.00 LIG 0.24  C 
ATOM     12 O    HIS F   2      -7.519  28.646 -17.044  1.00 49.82 LIG-0.27  OA
ATOM     13  N   GLY F   3      -6.625  27.137 -15.625  1.00 50.02 LIG-0.35  N 
ATOM     14 H    GLY F   3      -6.014  26.899 -15.068  1.00 50.02 LIG 0.16  HD
BRANCH 13 15
ATOM     15  CA  GLY F   3      -7.684  26.152 -15.807  1.00 50.20 LIG 0.21  C 
BRANCH 15 16
ATOM     16  C   GLY F   3      -7.914  25.308 -14.569  1.00 50.42 LIG 0.21  C 
ATOM     17 O    GLY F   3      -7.148  24.386 -14.286  1.00 50.69 LIG-0.29  OA
ENDBRANCH 15 16
ENDBRANCH 13 15
ENDBRANCH 1 11
BRANCH 1 18
ATOM     18  CB  HIS F   2      -5.776  30.330 -15.058  1.00 49.99 LIG 0.10  C 
BRANCH 18 19
ATOM     19  CG  HIS F   2      -7.191  30.275 -14.569  1.00 50.63 LIG 0.06  A 
ATOM     20  CD2 HIS F   2      -8.322  30.856 -15.039  1.00 51.31 LIG 0.14  A 
ATOM     21 NE2  HIS F   2      -9.352  30.464 -14.217  1.00 51.32 LIG-0.25  NA
ATOM     22  CE1 HIS F   2      -8.870  29.676 -13.272  1.00 50.87 LIG 0.23  A 
ATOM     23 ND1  HIS F   2      -7.569  29.544 -13.463  1.00 50.82 LIG-0.24  NA
ENDBRANCH 18 19
ENDBRANCH 1 18
TORSDOF 8
ENDMDL
