MODEL 1
USER: ADFR SOLUTION from run 70
USER: SCORE 16.478666 LL:  -0.500 LR: -16.637 RR:   0.000 FEB: -12.461
USER: RMSD 3.626189
USER: SEED 69
USER: STATUS no improvement in best in 6 clusters for 5 generations
USER: GENES 16
USER: genes 0 Translation |==|  0.34836 0.35359 0.55339
USER: genes 1 Rotation |==|  0.52108 0.51094 0.38298 0.98553
USER: genes 2 Torsion [N]-C--CA-[N] |==|  0.34872
USER: genes 3 Torsion [C]-CA--CB-[CG] |==|  0.32014
USER: genes 4 Torsion [CA]-CB--CG-[CD] |==|  0.38917
USER: genes 5 Torsion [CB]-CG--CD-[CE] |==|  0.75465
USER: genes 6 Torsion [CG]-CD--CE-[NZ] |==|  0.17720
USER: genes 7 Torsion [CD]-CE--NZ-[HZ2] |==|  0.58403
USER: genes 8 Torsion [C]-CA--N-[H2] |==|  0.03282
USER: genes 9 Torsion [C]-N--CA-[C] |==|  0.76618
USER: genes 10 Torsion [N]-CA--C-[N] |==|  0.24058
USER: genes 11 Torsion [C]-N--CA-[C] |==|  0.10876
USER: genes 12 Torsion [N]-CA--C-[O] |==|  0.07811
USER: genes 13 Torsion [N]-CA--CB-[CG] |==|  0.04102
USER: genes 14 Torsion [CA]-CB--CG-[CD] |==|  0.66917
USER: genes 15 Torsion [CB]-CG--CD-[OE2] |==|  0.30173
ROOT
ATOM      1  C   LYS I   1      13.833 -23.985  11.798  1.00 18.69 LIG 0.25  C 
ATOM      2 O    LYS I   1      14.684 -24.194  12.635  1.00 17.50 LIG-0.27  OA
ATOM      3  N   GLY I   2      13.676 -24.727  10.702  1.00 19.29 LIG-0.35  N 
ATOM      4 H    GLY I   2      13.077 -24.568  10.106  1.00 19.29 LIG 0.16  HD
ENDROOT
BRANCH 1 5
ATOM      5  CA  LYS I   1      12.870 -22.820  11.971  1.00 19.30 LIG 0.27  C 
BRANCH 5 6
ATOM      6  CB  LYS I   1      13.627 -21.488  11.815  1.00 20.67 LIG 0.04  C 
BRANCH 6 7
ATOM      7  CG  LYS I   1      13.237 -20.625  10.633  1.00 22.16 LIG 0.00  C 
BRANCH 7 8
ATOM      8  CD  LYS I   1      13.221 -19.161  11.075  1.00 24.26 LIG 0.03  C 
BRANCH 8 9
ATOM      9  CE  LYS I   1      11.915 -18.663  11.647  1.00 26.09 LIG 0.23  C 
BRANCH 9 10
ATOM     10  NZ  LYS I   1      11.473 -19.315  12.914  1.00 28.14 LIG-0.08  N 
ATOM     11 HZ2  LYS I   1      10.584 -19.319  12.952  1.00 28.14 LIG 0.27  HD
ATOM     12 HZ1  LYS I   1      11.798 -18.864  13.609  1.00 28.14 LIG 0.27  HD
ATOM     13 HZ3  LYS I   1      11.774 -20.152  12.937  1.00 28.14 LIG 0.27  HD
ENDBRANCH 9 10
ENDBRANCH 8 9
ENDBRANCH 7 8
ENDBRANCH 6 7
ENDBRANCH 5 6
BRANCH 5 14
ATOM     14  N   LYS I   1      12.176 -22.895  13.293  1.00 18.10 LIG-0.07  N 
ATOM     15 H3   LYS I   1      12.216 -22.101  13.694  1.00 18.10 LIG 0.28  HD
ATOM     16 H1   LYS I   1      11.324 -23.122  13.169  1.00 18.10 LIG 0.28  HD
ATOM     17 H2   LYS I   1      12.575 -23.505  13.804  1.00 18.10 LIG 0.28  HD
ENDBRANCH 5 14
ENDBRANCH 1 5
BRANCH 3 18
ATOM     18  CA  GLY I   2      14.515 -25.893  10.403  1.00 20.06 LIG 0.23  C 
BRANCH 18 19
ATOM     19  C   GLY I   2      15.814 -25.519   9.724  1.00 20.91 LIG 0.23  C 
ATOM     20 O    GLY I   2      15.912 -25.532   8.500  1.00 20.34 LIG-0.27  OA
ATOM     21  N   GLU I   3      16.826 -25.200  10.524  1.00 23.55 LIG-0.35  N 
ATOM     22 H    GLU I   3      16.805 -25.287  11.379  1.00 23.55 LIG 0.16  HD
BRANCH 21 23
ATOM     23  CA  GLU I   3      18.082 -24.665  10.007  1.00 24.92 LIG 0.16  C 
BRANCH 23 24
ATOM     24  C   GLU I   3      17.820 -23.692   8.864  1.00 25.70 LIG 0.22  C 
ATOM     25 O    GLU I   3      16.761 -23.069   8.833  1.00 27.47 LIG-0.29  OA
ENDBRANCH 23 24
BRANCH 23 26
ATOM     26  CB  GLU I   3      18.970 -25.832   9.577  1.00 26.58 LIG 0.04  C 
BRANCH 26 27
ATOM     27  CG  GLU I   3      18.334 -27.216   9.419  1.00 29.64 LIG 0.12  C 
BRANCH 27 28
ATOM     28  CD  GLU I   3      18.899 -28.292  10.327  1.00 32.56 LIG 0.17  C 
ATOM     29 OE2  GLU I   3      18.176 -28.694  11.267  1.00 37.52 LIG-0.65  OA
ATOM     30 OE1  GLU I   3      20.070 -28.698  10.144  1.00 34.95 LIG-0.65  OA
ENDBRANCH 27 28
ENDBRANCH 26 27
ENDBRANCH 23 26
ENDBRANCH 21 23
ENDBRANCH 18 19
ENDBRANCH 3 18
TORSDOF 14
ENDMDL
MODEL 2
USER: ADFR SOLUTION from run 7
USER: SCORE 16.862711 LL:  -0.564 LR: -16.510 RR:   0.000 FEB: -12.334
USER: RMSD 2.307981
USER: SEED 680340
USER: STATUS no improvement in best in 6 clusters for 5 generations
USER: GENES 16
USER: genes 0 Translation |==|  0.35189 0.34668 0.53403
USER: genes 1 Rotation |==|  0.54516 0.45961 0.49289 0.99626
USER: genes 2 Torsion [N]-C--CA-[N] |==|  0.49821
USER: genes 3 Torsion [C]-CA--CB-[CG] |==|  0.58074
USER: genes 4 Torsion [CA]-CB--CG-[CD] |==|  0.32577
USER: genes 5 Torsion [CB]-CG--CD-[CE] |==|  0.59630
USER: genes 6 Torsion [CG]-CD--CE-[NZ] |==|  0.13135
USER: genes 7 Torsion [CD]-CE--NZ-[HZ2] |==|  0.70563
USER: genes 8 Torsion [C]-CA--N-[H2] |==|  0.97533
USER: genes 9 Torsion [C]-N--CA-[C] |==|  0.75501
USER: genes 10 Torsion [N]-CA--C-[N] |==|  0.42784
USER: genes 11 Torsion [C]-N--CA-[C] |==|  0.18955
USER: genes 12 Torsion [N]-CA--C-[O] |==|  0.28473
USER: genes 13 Torsion [N]-CA--CB-[CG] |==|  0.59220
USER: genes 14 Torsion [CA]-CB--CG-[CD] |==|  0.14206
USER: genes 15 Torsion [CB]-CG--CD-[OE2] |==|  0.87043
ROOT
ATOM      1  C   LYS I   1      13.899 -24.099  11.536  1.00 18.69 LIG 0.25  C 
ATOM      2 O    LYS I   1      14.550 -24.029  12.557  1.00 17.50 LIG-0.27  OA
ATOM      3  N   GLY I   2      14.316 -24.723  10.436  1.00 19.29 LIG-0.35  N 
ATOM      4 H    GLY I   2      13.855 -24.762   9.710  1.00 19.29 LIG 0.16  HD
ENDROOT
BRANCH 1 5
ATOM      5  CA  LYS I   1      12.525 -23.451  11.468  1.00 19.30 LIG 0.27  C 
BRANCH 5 6
ATOM      6  CB  LYS I   1      12.482 -22.434  10.312  1.00 20.67 LIG 0.04  C 
BRANCH 6 7
ATOM      7  CG  LYS I   1      11.540 -21.261  10.481  1.00 22.16 LIG 0.00  C 
BRANCH 7 8
ATOM      8  CD  LYS I   1      12.359 -19.970  10.502  1.00 24.26 LIG 0.03  C 
BRANCH 8 9
ATOM      9  CE  LYS I   1      11.839 -18.878  11.406  1.00 26.09 LIG 0.23  C 
BRANCH 9 10
ATOM     10  NZ  LYS I   1      11.466 -19.303  12.786  1.00 28.14 LIG-0.08  N 
ATOM     11 HZ2  LYS I   1      10.579 -19.322  12.861  1.00 28.14 LIG 0.27  HD
ATOM     12 HZ1  LYS I   1      11.801 -18.727  13.375  1.00 28.14 LIG 0.27  HD
ATOM     13 HZ3  LYS I   1      11.794 -20.115  12.945  1.00 28.14 LIG 0.27  HD
ENDBRANCH 9 10
ENDBRANCH 8 9
ENDBRANCH 7 8
ENDBRANCH 6 7
ENDBRANCH 5 6
BRANCH 5 14
ATOM     14  N   LYS I   1      12.176 -22.802  12.770  1.00 18.10 LIG-0.07  N 
ATOM     15 H3   LYS I   1      12.169 -21.918  12.669  1.00 18.10 LIG 0.28  HD
ATOM     16 H1   LYS I   1      11.371 -23.077  13.033  1.00 18.10 LIG 0.28  HD
ATOM     17 H2   LYS I   1      12.781 -23.025  13.384  1.00 18.10 LIG 0.28  HD
ENDBRANCH 5 14
ENDBRANCH 1 5
BRANCH 3 18
ATOM     18  CA  GLY I   2      15.611 -25.410  10.351  1.00 20.06 LIG 0.23  C 
BRANCH 18 19
ATOM     19  C   GLY I   2      16.731 -24.492   9.917  1.00 20.91 LIG 0.23  C 
ATOM     20 O    GLY I   2      16.504 -23.502   9.227  1.00 20.34 LIG-0.27  OA
ATOM     21  N   GLU I   3      17.955 -24.831  10.309  1.00 23.55 LIG-0.35  N 
ATOM     22 H    GLU I   3      18.143 -25.572  10.702  1.00 23.55 LIG 0.16  HD
BRANCH 21 23
ATOM     23  CA  GLU I   3      19.105 -23.955  10.102  1.00 24.92 LIG 0.16  C 
BRANCH 23 24
ATOM     24  C   GLU I   3      18.993 -22.709  10.971  1.00 25.70 LIG 0.22  C 
ATOM     25 O    GLU I   3      19.661 -22.628  11.999  1.00 27.47 LIG-0.29  OA
ENDBRANCH 23 24
BRANCH 23 26
ATOM     26  CB  GLU I   3      19.197 -23.613   8.616  1.00 26.58 LIG 0.04  C 
BRANCH 26 27
ATOM     27  CG  GLU I   3      20.583 -23.410   7.996  1.00 29.64 LIG 0.12  C 
BRANCH 27 28
ATOM     28  CD  GLU I   3      21.577 -24.524   8.263  1.00 32.56 LIG 0.17  C 
ATOM     29 OE2  GLU I   3      21.673 -24.944   9.439  1.00 37.52 LIG-0.65  OA
ATOM     30 OE1  GLU I   3      22.296 -24.944   7.327  1.00 34.95 LIG-0.65  OA
ENDBRANCH 27 28
ENDBRANCH 26 27
ENDBRANCH 23 26
ENDBRANCH 21 23
ENDBRANCH 18 19
ENDBRANCH 3 18
TORSDOF 14
ENDMDL
MODEL 3
USER: ADFR SOLUTION from run 70
USER: SCORE 17.042198 LL:  -0.837 LR: -16.418 RR:   0.000 FEB: -12.242
USER: RMSD 2.274423
USER: SEED 69
USER: STATUS no improvement in best in 6 clusters for 5 generations
USER: GENES 16
USER: genes 0 Translation |==|  0.35124 0.34835 0.55610
USER: genes 1 Rotation |==|  0.48456 0.53405 0.40281 0.98904
USER: genes 2 Torsion [N]-C--CA-[N] |==|  0.32587
USER: genes 3 Torsion [C]-CA--CB-[CG] |==|  0.30472
USER: genes 4 Torsion [CA]-CB--CG-[CD] |==|  0.39689
USER: genes 5 Torsion [CB]-CG--CD-[CE] |==|  0.76648
USER: genes 6 Torsion [CG]-CD--CE-[NZ] |==|  0.19903
USER: genes 7 Torsion [CD]-CE--NZ-[HZ2] |==|  0.56745
USER: genes 8 Torsion [C]-CA--N-[H2] |==|  0.04025
USER: genes 9 Torsion [C]-N--CA-[C] |==|  0.78113
USER: genes 10 Torsion [N]-CA--C-[N] |==|  0.40179
USER: genes 11 Torsion [C]-N--CA-[C] |==|  0.53737
USER: genes 12 Torsion [N]-CA--C-[O] |==|  0.01708
USER: genes 13 Torsion [N]-CA--CB-[CG] |==|  0.54631
USER: genes 14 Torsion [CA]-CB--CG-[CD] |==|  0.84660
USER: genes 15 Torsion [CB]-CG--CD-[OE2] |==|  0.27140
ROOT
ATOM      1  C   LYS I   1      13.887 -24.071  11.834  1.00 18.69 LIG 0.25  C 
ATOM      2 O    LYS I   1      14.844 -24.106  12.577  1.00 17.50 LIG-0.27  OA
ATOM      3  N   GLY I   2      13.676 -24.953  10.858  1.00 19.29 LIG-0.35  N 
ATOM      4 H    GLY I   2      13.000 -24.918  10.327  1.00 19.29 LIG 0.16  HD
ENDROOT
BRANCH 1 5
ATOM      5  CA  LYS I   1      12.845 -22.975  11.993  1.00 19.30 LIG 0.27  C 
BRANCH 5 6
ATOM      6  CB  LYS I   1      13.501 -21.596  11.794  1.00 20.67 LIG 0.04  C 
BRANCH 6 7
ATOM      7  CG  LYS I   1      13.132 -20.850  10.529  1.00 22.16 LIG 0.00  C 
BRANCH 7 8
ATOM      8  CD  LYS I   1      13.034 -19.357  10.849  1.00 24.26 LIG 0.03  C 
BRANCH 8 9
ATOM      9  CE  LYS I   1      11.713 -18.893  11.414  1.00 26.09 LIG 0.23  C 
BRANCH 9 10
ATOM     10  NZ  LYS I   1      11.426 -19.314  12.816  1.00 28.14 LIG-0.08  N 
ATOM     11 HZ2  LYS I   1      10.546 -19.321  12.951  1.00 28.14 LIG 0.27  HD
ATOM     12 HZ1  LYS I   1      11.808 -18.744  13.382  1.00 28.14 LIG 0.27  HD
ATOM     13 HZ3  LYS I   1      11.752 -20.131  12.953  1.00 28.14 LIG 0.27  HD
ENDBRANCH 9 10
ENDBRANCH 8 9
ENDBRANCH 7 8
ENDBRANCH 6 7
ENDBRANCH 5 6
BRANCH 5 14
ATOM     14  N   LYS I   1      12.175 -23.066  13.327  1.00 18.10 LIG-0.07  N 
ATOM     15 H3   LYS I   1      12.127 -22.255  13.691  1.00 18.10 LIG 0.28  HD
ATOM     16 H1   LYS I   1      11.353 -23.393  13.225  1.00 18.10 LIG 0.28  HD
ATOM     17 H2   LYS I   1      12.644 -23.603  13.860  1.00 18.10 LIG 0.28  HD
ENDBRANCH 5 14
ENDBRANCH 1 5
BRANCH 3 18
ATOM     18  CA  GLY I   2      14.582 -26.077  10.591  1.00 20.06 LIG 0.23  C 
BRANCH 18 19
ATOM     19  C   GLY I   2      15.819 -25.661   9.827  1.00 20.91 LIG 0.23  C 
ATOM     20 O    GLY I   2      15.762 -24.794   8.959  1.00 20.34 LIG-0.27  OA
ATOM     21  N   GLU I   3      16.944 -26.296  10.138  1.00 23.55 LIG-0.35  N 
ATOM     22 H    GLU I   3      16.980 -26.974  10.665  1.00 23.55 LIG 0.16  HD
BRANCH 21 23
ATOM     23  CA  GLU I   3      18.238 -25.886   9.599  1.00 24.92 LIG 0.16  C 
BRANCH 23 24
ATOM     24  C   GLU I   3      19.286 -26.964   9.846  1.00 25.70 LIG 0.22  C 
ATOM     25 O    GLU I   3      18.943 -28.041  10.327  1.00 27.47 LIG-0.29  OA
ENDBRANCH 23 24
BRANCH 23 26
ATOM     26  CB  GLU I   3      18.628 -24.550  10.228  1.00 26.58 LIG 0.04  C 
BRANCH 26 27
ATOM     27  CG  GLU I   3      19.731 -23.721   9.561  1.00 29.64 LIG 0.12  C 
BRANCH 27 28
ATOM     28  CD  GLU I   3      21.048 -24.446   9.361  1.00 32.56 LIG 0.17  C 
ATOM     29 OE2  GLU I   3      21.269 -24.944   8.233  1.00 37.52 LIG-0.65  OA
ATOM     30 OE1  GLU I   3      21.836 -24.569  10.327  1.00 34.95 LIG-0.65  OA
ENDBRANCH 27 28
ENDBRANCH 26 27
ENDBRANCH 23 26
ENDBRANCH 21 23
ENDBRANCH 18 19
ENDBRANCH 3 18
TORSDOF 14
ENDMDL
MODEL 4
USER: ADFR SOLUTION from run 12
USER: SCORE 16.423449 LL:  -0.655 LR: -16.280 RR:   0.000 FEB: -12.104
USER: RMSD 4.070041
USER: SEED 121695
USER: STATUS no improvement in best in 6 clusters for 5 generations
USER: GENES 16
USER: genes 0 Translation |==|  0.35588 0.38131 0.54565
USER: genes 1 Rotation |==|  0.69800 0.43395 0.44604 0.95114
USER: genes 2 Torsion [N]-C--CA-[N] |==|  0.48554
USER: genes 3 Torsion [C]-CA--CB-[CG] |==|  0.32417
USER: genes 4 Torsion [CA]-CB--CG-[CD] |==|  0.48435
USER: genes 5 Torsion [CB]-CG--CD-[CE] |==|  0.77936
USER: genes 6 Torsion [CG]-CD--CE-[NZ] |==|  0.07336
USER: genes 7 Torsion [CD]-CE--NZ-[HZ2] |==|  0.39483
USER: genes 8 Torsion [C]-CA--N-[H2] |==|  0.67196
USER: genes 9 Torsion [C]-N--CA-[C] |==|  0.20832
USER: genes 10 Torsion [N]-CA--C-[N] |==|  0.71111
USER: genes 11 Torsion [C]-N--CA-[C] |==|  0.53125
USER: genes 12 Torsion [N]-CA--C-[O] |==|  0.76164
USER: genes 13 Torsion [N]-CA--CB-[CG] |==|  0.05864
USER: genes 14 Torsion [CA]-CB--CG-[CD] |==|  0.26024
USER: genes 15 Torsion [CB]-CG--CD-[OE2] |==|  0.07634
ROOT
ATOM      1  C   LYS I   1      13.974 -23.527  11.693  1.00 18.69 LIG 0.25  C 
ATOM      2 O    LYS I   1      14.469 -24.191  12.579  1.00 17.50 LIG-0.27  OA
ATOM      3  N   GLY I   2      14.483 -23.439  10.465  1.00 19.29 LIG-0.35  N 
ATOM      4 H    GLY I   2      14.133 -22.958   9.842  1.00 19.29 LIG 0.16  HD
ENDROOT
BRANCH 1 5
ATOM      5  CA  LYS I   1      12.702 -22.738  11.959  1.00 19.30 LIG 0.27  C 
BRANCH 5 6
ATOM      6  CB  LYS I   1      12.970 -21.233  11.770  1.00 20.67 LIG 0.04  C 
BRANCH 6 7
ATOM      7  CG  LYS I   1      12.207 -20.545  10.658  1.00 22.16 LIG 0.00  C 
BRANCH 7 8
ATOM      8  CD  LYS I   1      12.495 -19.045  10.717  1.00 24.26 LIG 0.03  C 
BRANCH 8 9
ATOM      9  CE  LYS I   1      11.725 -18.269  11.759  1.00 26.09 LIG 0.23  C 
BRANCH 9 10
ATOM     10  NZ  LYS I   1      11.284 -19.050  12.951  1.00 28.14 LIG-0.08  N 
ATOM     11 HZ2  LYS I   1      11.356 -18.545  13.681  1.00 28.14 LIG 0.27  HD
ATOM     12 HZ1  LYS I   1      11.796 -19.772  13.039  1.00 28.14 LIG 0.27  HD
ATOM     13 HZ3  LYS I   1      10.436 -19.298  12.846  1.00 28.14 LIG 0.27  HD
ENDBRANCH 9 10
ENDBRANCH 8 9
ENDBRANCH 7 8
ENDBRANCH 6 7
ENDBRANCH 5 6
BRANCH 5 14
ATOM     14  N   LYS I   1      12.172 -23.024  13.328  1.00 18.10 LIG-0.07  N 
ATOM     15 H3   LYS I   1      12.720 -23.587  13.746  1.00 18.10 LIG 0.28  HD
ATOM     16 H1   LYS I   1      12.118 -22.265  13.790  1.00 18.10 LIG 0.28  HD
ATOM     17 H2   LYS I   1      11.363 -23.390  13.263  1.00 18.10 LIG 0.28  HD
ENDBRANCH 5 14
ENDBRANCH 1 5
BRANCH 3 18
ATOM     18  CA  GLY I   2      15.695 -24.155  10.051  1.00 20.06 LIG 0.23  C 
BRANCH 18 19
ATOM     19  C   GLY I   2      15.454 -25.631   9.830  1.00 20.91 LIG 0.23  C 
ATOM     20 O    GLY I   2      14.869 -26.031   8.828  1.00 20.34 LIG-0.27  OA
ATOM     21  N   GLU I   3      15.893 -26.448  10.782  1.00 23.55 LIG-0.35  N 
ATOM     22 H    GLU I   3      16.210 -26.179  11.534  1.00 23.55 LIG 0.16  HD
BRANCH 21 23
ATOM     23  CA  GLU I   3      15.875 -27.900  10.625  1.00 24.92 LIG 0.16  C 
BRANCH 23 24
ATOM     24  C   GLU I   3      16.169 -28.586  11.953  1.00 25.70 LIG 0.22  C 
ATOM     25 O    GLU I   3      17.336 -28.777  12.288  1.00 27.47 LIG-0.29  OA
ENDBRANCH 23 24
BRANCH 23 26
ATOM     26  CB  GLU I   3      16.880 -28.287   9.542  1.00 26.58 LIG 0.04  C 
BRANCH 26 27
ATOM     27  CG  GLU I   3      18.004 -27.304   9.201  1.00 29.64 LIG 0.12  C 
BRANCH 27 28
ATOM     28  CD  GLU I   3      19.306 -27.530   9.947  1.00 32.56 LIG 0.17  C 
ATOM     29 OE2  GLU I   3      19.559 -28.697  10.327  1.00 37.52 LIG-0.65  OA
ATOM     30 OE1  GLU I   3      20.047 -26.553  10.202  1.00 34.95 LIG-0.65  OA
ENDBRANCH 27 28
ENDBRANCH 26 27
ENDBRANCH 23 26
ENDBRANCH 21 23
ENDBRANCH 18 19
ENDBRANCH 3 18
TORSDOF 14
ENDMDL
MODEL 5
USER: ADFR SOLUTION from run 171
USER: SCORE 17.228867 LL:  -1.183 LR: -16.251 RR:   0.000 FEB: -12.075
USER: RMSD 4.707876
USER: SEED 170
USER: STATUS no improvement in best in 3 clusters for 5 generations
USER: GENES 16
USER: genes 0 Translation |==|  0.29297 0.53076 0.49542
USER: genes 1 Rotation |==|  0.28367 0.85162 0.44129 0.77589
USER: genes 2 Torsion [N]-C--CA-[N] |==|  0.00374
USER: genes 3 Torsion [C]-CA--CB-[CG] |==|  0.41259
USER: genes 4 Torsion [CA]-CB--CG-[CD] |==|  0.72207
USER: genes 5 Torsion [CB]-CG--CD-[CE] |==|  0.67479
USER: genes 6 Torsion [CG]-CD--CE-[NZ] |==|  0.62653
USER: genes 7 Torsion [CD]-CE--NZ-[HZ2] |==|  0.80455
USER: genes 8 Torsion [C]-CA--N-[H2] |==|  0.42255
USER: genes 9 Torsion [C]-N--CA-[C] |==|  0.19376
USER: genes 10 Torsion [N]-CA--C-[N] |==|  0.64839
USER: genes 11 Torsion [C]-N--CA-[C] |==|  0.71785
USER: genes 12 Torsion [N]-CA--C-[O] |==|  0.85779
USER: genes 13 Torsion [N]-CA--CB-[CG] |==|  0.43716
USER: genes 14 Torsion [CA]-CB--CG-[CD] |==|  0.22314
USER: genes 15 Torsion [CB]-CG--CD-[OE2] |==|  0.12221
ROOT
ATOM      1  C   LYS I   1      12.794 -21.061  11.015  1.00 18.69 LIG 0.25  C 
ATOM      2 O    LYS I   1      13.420 -21.222   9.990  1.00 17.50 LIG-0.27  OA
ATOM      3  N   GLY I   2      12.276 -22.061  11.729  1.00 19.29 LIG-0.35  N 
ATOM      4 H    GLY I   2      11.824 -21.941  12.451  1.00 19.29 LIG 0.16  HD
ENDROOT
BRANCH 1 5
ATOM      5  CA  LYS I   1      12.565 -19.657  11.550  1.00 19.30 LIG 0.27  C 
BRANCH 5 6
ATOM      6  CB  LYS I   1      13.915 -18.937  11.727  1.00 20.67 LIG 0.04  C 
BRANCH 6 7
ATOM      7  CG  LYS I   1      13.910 -17.436  11.527  1.00 22.16 LIG 0.00  C 
BRANCH 7 8
ATOM      8  CD  LYS I   1      14.436 -17.124  10.125  1.00 24.26 LIG 0.03  C 
BRANCH 8 9
ATOM      9  CE  LYS I   1      15.715 -16.323  10.068  1.00 26.09 LIG 0.23  C 
BRANCH 9 10
ATOM     10  NZ  LYS I   1      15.729 -15.194   9.093  1.00 28.14 LIG-0.08  N 
ATOM     11 HZ2  LYS I   1      15.746 -15.518   8.264  1.00 28.14 LIG 0.27  HD
ATOM     12 HZ1  LYS I   1      16.450 -14.692   9.231  1.00 28.14 LIG 0.27  HD
ATOM     13 HZ3  LYS I   1      14.997 -14.699   9.202  1.00 28.14 LIG 0.27  HD
ENDBRANCH 9 10
ENDBRANCH 8 9
ENDBRANCH 7 8
ENDBRANCH 6 7
ENDBRANCH 5 6
BRANCH 5 14
ATOM     14  N   LYS I   1      11.801 -19.694  12.836  1.00 18.10 LIG-0.07  N 
ATOM     15 H3   LYS I   1      10.928 -19.687  12.662  1.00 18.10 LIG 0.28  HD
ATOM     16 H1   LYS I   1      12.009 -20.435  13.283  1.00 18.10 LIG 0.28  HD
ATOM     17 H2   LYS I   1      12.011 -18.982  13.327  1.00 18.10 LIG 0.28  HD
ENDBRANCH 5 14
ENDBRANCH 1 5
BRANCH 3 18
ATOM     18  CA  GLY I   2      12.427 -23.471  11.351  1.00 20.06 LIG 0.23  C 
BRANCH 18 19
ATOM     19  C   GLY I   2      13.845 -23.971  11.515  1.00 20.91 LIG 0.23  C 
ATOM     20 O    GLY I   2      14.445 -23.829  12.577  1.00 20.34 LIG-0.27  OA
ATOM     21  N   GLU I   3      14.393 -24.545  10.449  1.00 23.55 LIG-0.35  N 
ATOM     22 H    GLU I   3      14.027 -24.558   9.672  1.00 23.55 LIG 0.16  HD
BRANCH 21 23
ATOM     23  CA  GLU I   3      15.689 -25.215  10.512  1.00 24.92 LIG 0.16  C 
BRANCH 23 24
ATOM     24  C   GLU I   3      16.782 -24.323   9.937  1.00 25.70 LIG 0.22  C 
ATOM     25 O    GLU I   3      16.628 -23.819   8.827  1.00 27.47 LIG-0.29  OA
ENDBRANCH 23 24
BRANCH 23 26
ATOM     26  CB  GLU I   3      15.586 -26.548   9.773  1.00 26.58 LIG 0.04  C 
BRANCH 26 27
ATOM     27  CG  GLU I   3      16.871 -27.190   9.238  1.00 29.64 LIG 0.12  C 
BRANCH 27 28
ATOM     28  CD  GLU I   3      17.690 -27.944  10.268  1.00 32.56 LIG 0.17  C 
ATOM     29 OE2  GLU I   3      17.075 -28.694  11.060  1.00 37.52 LIG-0.65  OA
ATOM     30 OE1  GLU I   3      18.928 -27.756  10.327  1.00 34.95 LIG-0.65  OA
ENDBRANCH 27 28
ENDBRANCH 26 27
ENDBRANCH 23 26
ENDBRANCH 21 23
ENDBRANCH 18 19
ENDBRANCH 3 18
TORSDOF 14
ENDMDL
MODEL 6
USER: ADFR SOLUTION from run 137
USER: SCORE 16.370546 LL:  -0.812 LR: -15.967 RR:   0.000 FEB: -11.790
USER: RMSD 1.822120
USER: SEED 136
USER: STATUS no improvement in best in 3 clusters for 5 generations
USER: GENES 16
USER: genes 0 Translation |==|  0.35667 0.34450 0.53367
USER: genes 1 Rotation |==|  0.56183 0.45328 0.51263 0.99380
USER: genes 2 Torsion [N]-C--CA-[N] |==|  0.51395
USER: genes 3 Torsion [C]-CA--CB-[CG] |==|  0.60408
USER: genes 4 Torsion [CA]-CB--CG-[CD] |==|  0.29941
USER: genes 5 Torsion [CB]-CG--CD-[CE] |==|  0.57042
USER: genes 6 Torsion [CG]-CD--CE-[NZ] |==|  0.16223
USER: genes 7 Torsion [CD]-CE--NZ-[HZ2] |==|  0.03026
USER: genes 8 Torsion [C]-CA--N-[H2] |==|  0.98092
USER: genes 9 Torsion [C]-N--CA-[C] |==|  0.68017
USER: genes 10 Torsion [N]-CA--C-[N] |==|  0.42390
USER: genes 11 Torsion [C]-N--CA-[C] |==|  0.61336
USER: genes 12 Torsion [N]-CA--C-[O] |==|  0.01734
USER: genes 13 Torsion [N]-CA--CB-[CG] |==|  0.06391
USER: genes 14 Torsion [CA]-CB--CG-[CD] |==|  0.19228
USER: genes 15 Torsion [CB]-CG--CD-[OE2] |==|  0.95473
ROOT
ATOM      1  C   LYS I   1      13.989 -24.135  11.532  1.00 18.69 LIG 0.25  C 
ATOM      2 O    LYS I   1      14.599 -24.076  12.577  1.00 17.50 LIG-0.27  OA
ATOM      3  N   GLY I   2      14.490 -24.655  10.412  1.00 19.29 LIG-0.35  N 
ATOM      4 H    GLY I   2      14.057 -24.685   9.669  1.00 19.29 LIG 0.16  HD
ENDROOT
BRANCH 1 5
ATOM      5  CA  LYS I   1      12.569 -23.596  11.452  1.00 19.30 LIG 0.27  C 
BRANCH 5 6
ATOM      6  CB  LYS I   1      12.444 -22.622  10.266  1.00 20.67 LIG 0.04  C 
BRANCH 6 7
ATOM      7  CG  LYS I   1      11.563 -21.409  10.479  1.00 22.16 LIG 0.00  C 
BRANCH 7 8
ATOM      8  CD  LYS I   1      12.451 -20.170  10.604  1.00 24.26 LIG 0.03  C 
BRANCH 8 9
ATOM      9  CE  LYS I   1      11.863 -19.018  11.382  1.00 26.09 LIG 0.23  C 
BRANCH 9 10
ATOM     10  NZ  LYS I   1      11.476 -19.319  12.791  1.00 28.14 LIG-0.08  N 
ATOM     11 HZ2  LYS I   1      11.797 -20.116  13.024  1.00 28.14 LIG 0.27  HD
ATOM     12 HZ1  LYS I   1      10.589 -19.325  12.860  1.00 28.14 LIG 0.27  HD
ATOM     13 HZ3  LYS I   1      11.810 -18.696  13.330  1.00 28.14 LIG 0.27  HD
ENDBRANCH 9 10
ENDBRANCH 8 9
ENDBRANCH 7 8
ENDBRANCH 6 7
ENDBRANCH 5 6
BRANCH 5 14
ATOM     14  N   LYS I   1      12.176 -22.936  12.735  1.00 18.10 LIG-0.07  N 
ATOM     15 H3   LYS I   1      12.072 -22.063  12.600  1.00 18.10 LIG 0.28  HD
ATOM     16 H1   LYS I   1      11.410 -23.285  13.026  1.00 18.10 LIG 0.28  HD
ATOM     17 H2   LYS I   1      12.812 -23.069  13.344  1.00 18.10 LIG 0.28  HD
ENDBRANCH 5 14
ENDBRANCH 1 5
BRANCH 3 18
ATOM     18  CA  GLY I   2      15.839 -25.229  10.335  1.00 20.06 LIG 0.23  C 
BRANCH 18 19
ATOM     19  C   GLY I   2      16.752 -24.451   9.414  1.00 20.91 LIG 0.23  C 
ATOM     20 O    GLY I   2      16.301 -23.819   8.463  1.00 20.34 LIG-0.27  OA
ATOM     21  N   GLU I   3      18.052 -24.512   9.686  1.00 23.55 LIG-0.35  N 
ATOM     22 H    GLU I   3      18.392 -25.031  10.281  1.00 23.55 LIG 0.16  HD
BRANCH 21 23
ATOM     23  CA  GLU I   3      19.029 -23.684   8.983  1.00 24.92 LIG 0.16  C 
BRANCH 23 24
ATOM     24  C   GLU I   3      20.284 -24.488   8.669  1.00 25.70 LIG 0.22  C 
ATOM     25 O    GLU I   3      20.304 -25.694   8.906  1.00 27.47 LIG-0.29  OA
ENDBRANCH 23 24
BRANCH 23 26
ATOM     26  CB  GLU I   3      19.332 -22.455   9.838  1.00 26.58 LIG 0.04  C 
BRANCH 26 27
ATOM     27  CG  GLU I   3      19.077 -22.531  11.346  1.00 29.64 LIG 0.12  C 
BRANCH 27 28
ATOM     28  CD  GLU I   3      20.014 -23.445  12.113  1.00 32.56 LIG 0.17  C 
ATOM     29 OE2  GLU I   3      20.681 -24.274  11.453  1.00 37.52 LIG-0.65  OA
ATOM     30 OE1  GLU I   3      20.051 -23.379  13.363  1.00 34.95 LIG-0.65  OA
ENDBRANCH 27 28
ENDBRANCH 26 27
ENDBRANCH 23 26
ENDBRANCH 21 23
ENDBRANCH 18 19
ENDBRANCH 3 18
TORSDOF 14
ENDMDL
MODEL 7
USER: ADFR SOLUTION from run 194
USER: SCORE 16.561506 LL:  -0.805 LR: -15.904 RR:   0.000 FEB: -11.728
USER: RMSD 4.545318
USER: SEED 193
USER: STATUS no improvement in best in 7 clusters for 5 generations
USER: GENES 16
USER: genes 0 Translation |==|  0.27719 0.49795 0.49438
USER: genes 1 Rotation |==|  0.24488 0.82475 0.46008 0.77902
USER: genes 2 Torsion [N]-C--CA-[N] |==|  0.13072
USER: genes 3 Torsion [C]-CA--CB-[CG] |==|  0.39937
USER: genes 4 Torsion [CA]-CB--CG-[CD] |==|  0.99172
USER: genes 5 Torsion [CB]-CG--CD-[CE] |==|  0.32635
USER: genes 6 Torsion [CG]-CD--CE-[NZ] |==|  0.58673
USER: genes 7 Torsion [CD]-CE--NZ-[HZ2] |==|  0.90207
USER: genes 8 Torsion [C]-CA--N-[H2] |==|  0.01701
USER: genes 9 Torsion [C]-N--CA-[C] |==|  0.17347
USER: genes 10 Torsion [N]-CA--C-[N] |==|  0.60566
USER: genes 11 Torsion [C]-N--CA-[C] |==|  0.72140
USER: genes 12 Torsion [N]-CA--C-[O] |==|  0.90538
USER: genes 13 Torsion [N]-CA--CB-[CG] |==|  0.40134
USER: genes 14 Torsion [CA]-CB--CG-[CD] |==|  0.28001
USER: genes 15 Torsion [CB]-CG--CD-[OE2] |==|  0.11278
ROOT
ATOM      1  C   LYS I   1      12.498 -21.603  11.001  1.00 18.69 LIG 0.25  C 
ATOM      2 O    LYS I   1      13.165 -21.675   9.992  1.00 17.50 LIG-0.27  OA
ATOM      3  N   GLY I   2      12.173 -22.657  11.748  1.00 19.29 LIG-0.35  N 
ATOM      4 H    GLY I   2      11.690 -22.602  12.459  1.00 19.29 LIG 0.16  HD
ENDROOT
BRANCH 1 5
ATOM      5  CA  LYS I   1      11.985 -20.252  11.474  1.00 19.30 LIG 0.27  C 
BRANCH 5 6
ATOM      6  CB  LYS I   1      12.641 -19.126  10.654  1.00 20.67 LIG 0.04  C 
BRANCH 6 7
ATOM      7  CG  LYS I   1      11.770 -17.929  10.334  1.00 22.16 LIG 0.00  C 
BRANCH 7 8
ATOM      8  CD  LYS I   1      10.362 -18.185  10.876  1.00 24.26 LIG 0.03  C 
BRANCH 8 9
ATOM      9  CE  LYS I   1       9.886 -17.227  11.943  1.00 26.09 LIG 0.23  C 
BRANCH 9 10
ATOM     10  NZ  LYS I   1       8.948 -17.798  12.952  1.00 28.14 LIG-0.08  N 
ATOM     11 HZ2  LYS I   1       8.417 -18.396  12.560  1.00 28.14 LIG 0.27  HD
ATOM     12 HZ1  LYS I   1       8.453 -17.145  13.300  1.00 28.14 LIG 0.27  HD
ATOM     13 HZ3  LYS I   1       9.413 -18.194  13.599  1.00 28.14 LIG 0.27  HD
ENDBRANCH 9 10
ENDBRANCH 8 9
ENDBRANCH 7 8
ENDBRANCH 6 7
ENDBRANCH 5 6
BRANCH 5 14
ATOM     14  N   LYS I   1      12.236 -20.069  12.938  1.00 18.10 LIG-0.07  N 
ATOM     15 H3   LYS I   1      12.679 -19.308  13.070  1.00 18.10 LIG 0.28  HD
ATOM     16 H1   LYS I   1      11.459 -20.039  13.371  1.00 18.10 LIG 0.28  HD
ATOM     17 H2   LYS I   1      12.720 -20.751  13.243  1.00 18.10 LIG 0.28  HD
ENDBRANCH 5 14
ENDBRANCH 1 5
BRANCH 3 18
ATOM     18  CA  GLY I   2      12.606 -24.023  11.432  1.00 20.06 LIG 0.23  C 
BRANCH 18 19
ATOM     19  C   GLY I   2      14.110 -24.180  11.465  1.00 20.91 LIG 0.23  C 
ATOM     20 O    GLY I   2      14.788 -23.588  12.299  1.00 20.34 LIG-0.27  OA
ATOM     21  N   GLU I   3      14.640 -24.971  10.537  1.00 23.55 LIG-0.35  N 
ATOM     22 H    GLU I   3      14.192 -25.308   9.885  1.00 23.55 LIG 0.16  HD
BRANCH 21 23
ATOM     23  CA  GLU I   3      16.052 -25.341  10.550  1.00 24.92 LIG 0.16  C 
BRANCH 23 24
ATOM     24  C   GLU I   3      16.837 -24.493   9.558  1.00 25.70 LIG 0.22  C 
ATOM     25 O    GLU I   3      16.301 -24.138   8.511  1.00 27.47 LIG-0.29  OA
ENDBRANCH 23 24
BRANCH 23 26
ATOM     26  CB  GLU I   3      16.168 -26.834  10.249  1.00 26.58 LIG 0.04  C 
BRANCH 26 27
ATOM     27  CG  GLU I   3      17.363 -27.324   9.424  1.00 29.64 LIG 0.12  C 
BRANCH 27 28
ATOM     28  CD  GLU I   3      18.490 -27.944  10.228  1.00 32.56 LIG 0.17  C 
ATOM     29 OE2  GLU I   3      18.176 -28.694  11.181  1.00 37.52 LIG-0.65  OA
ATOM     30 OE1  GLU I   3      19.676 -27.650   9.952  1.00 34.95 LIG-0.65  OA
ENDBRANCH 27 28
ENDBRANCH 26 27
ENDBRANCH 23 26
ENDBRANCH 21 23
ENDBRANCH 18 19
ENDBRANCH 3 18
TORSDOF 14
ENDMDL
MODEL 8
USER: ADFR SOLUTION from run 182
USER: SCORE 16.778006 LL:  -1.080 LR: -15.888 RR:   0.000 FEB: -11.712
USER: RMSD 5.074708
USER: SEED 181
USER: STATUS 1 or 2 clusters left
USER: GENES 16
USER: genes 0 Translation |==|  0.30155 0.53474 0.50579
USER: genes 1 Rotation |==|  0.29502 0.85677 0.44570 0.77883
USER: genes 2 Torsion [N]-C--CA-[N] |==|  0.97404
USER: genes 3 Torsion [C]-CA--CB-[CG] |==|  0.54020
USER: genes 4 Torsion [CA]-CB--CG-[CD] |==|  0.42728
USER: genes 5 Torsion [CB]-CG--CD-[CE] |==|  0.66012
USER: genes 6 Torsion [CG]-CD--CE-[NZ] |==|  0.54026
USER: genes 7 Torsion [CD]-CE--NZ-[HZ2] |==|  0.56567
USER: genes 8 Torsion [C]-CA--N-[H2] |==|  0.45173
USER: genes 9 Torsion [C]-N--CA-[C] |==|  0.19339
USER: genes 10 Torsion [N]-CA--C-[N] |==|  0.63858
USER: genes 11 Torsion [C]-N--CA-[C] |==|  0.71928
USER: genes 12 Torsion [N]-CA--C-[O] |==|  0.87826
USER: genes 13 Torsion [N]-CA--CB-[CG] |==|  0.71424
USER: genes 14 Torsion [CA]-CB--CG-[CD] |==|  0.78076
USER: genes 15 Torsion [CB]-CG--CD-[OE2] |==|  0.90365
ROOT
ATOM      1  C   LYS I   1      12.955 -20.996  11.155  1.00 18.69 LIG 0.25  C 
ATOM      2 O    LYS I   1      13.571 -21.129  10.120  1.00 17.50 LIG-0.27  OA
ATOM      3  N   GLY I   2      12.411 -22.010  11.826  1.00 19.29 LIG-0.35  N 
ATOM      4 H    GLY I   2      11.966 -21.910  12.556  1.00 19.29 LIG 0.16  HD
ENDROOT
BRANCH 1 5
ATOM      5  CA  LYS I   1      12.770 -19.610  11.754  1.00 19.30 LIG 0.27  C 
BRANCH 5 6
ATOM      6  CB  LYS I   1      14.132 -19.048  12.202  1.00 20.67 LIG 0.04  C 
BRANCH 6 7
ATOM      7  CG  LYS I   1      14.096 -17.841  13.116  1.00 22.16 LIG 0.00  C 
BRANCH 7 8
ATOM      8  CD  LYS I   1      15.375 -17.819  13.955  1.00 24.26 LIG 0.03  C 
BRANCH 8 9
ATOM      9  CE  LYS I   1      15.177 -17.829  15.452  1.00 26.09 LIG 0.23  C 
BRANCH 9 10
ATOM     10  NZ  LYS I   1      16.376 -17.472  16.265  1.00 28.14 LIG-0.08  N 
ATOM     11 HZ2  LYS I   1      16.296 -17.819  17.081  1.00 28.14 LIG 0.27  HD
ATOM     12 HZ1  LYS I   1      16.441 -16.587  16.324  1.00 28.14 LIG 0.27  HD
ATOM     13 HZ3  LYS I   1      17.106 -17.797  15.875  1.00 28.14 LIG 0.27  HD
ENDBRANCH 9 10
ENDBRANCH 8 9
ENDBRANCH 7 8
ENDBRANCH 6 7
ENDBRANCH 5 6
BRANCH 5 14
ATOM     14  N   LYS I   1      11.801 -19.647  12.893  1.00 18.10 LIG-0.07  N 
ATOM     15 H3   LYS I   1      10.971 -19.692  12.574  1.00 18.10 LIG 0.28  HD
ATOM     16 H1   LYS I   1      11.963 -20.361  13.398  1.00 18.10 LIG 0.28  HD
ATOM     17 H2   LYS I   1      11.891 -18.910  13.383  1.00 18.10 LIG 0.28  HD
ENDBRANCH 5 14
ENDBRANCH 1 5
BRANCH 3 18
ATOM     18  CA  GLY I   2      12.518 -23.406  11.385  1.00 20.06 LIG 0.23  C 
BRANCH 18 19
ATOM     19  C   GLY I   2      13.921 -23.953  11.515  1.00 20.91 LIG 0.23  C 
ATOM     20 O    GLY I   2      14.556 -23.820  12.557  1.00 20.34 LIG-0.27  OA
ATOM     21  N   GLU I   3      14.418 -24.560  10.442  1.00 23.55 LIG-0.35  N 
ATOM     22 H    GLU I   3      14.029 -24.569   9.675  1.00 23.55 LIG 0.16  HD
BRANCH 21 23
ATOM     23  CA  GLU I   3      15.691 -25.274  10.476  1.00 24.92 LIG 0.16  C 
BRANCH 23 24
ATOM     24  C   GLU I   3      16.800 -24.423   9.869  1.00 25.70 LIG 0.22  C 
ATOM     25 O    GLU I   3      16.587 -23.809   8.827  1.00 27.47 LIG-0.29  OA
ENDBRANCH 23 24
BRANCH 23 26
ATOM     26  CB  GLU I   3      15.524 -26.606   9.747  1.00 26.58 LIG 0.04  C 
BRANCH 26 27
ATOM     27  CG  GLU I   3      15.378 -27.884  10.580  1.00 29.64 LIG 0.12  C 
BRANCH 27 28
ATOM     28  CD  GLU I   3      16.675 -28.439  11.138  1.00 32.56 LIG 0.17  C 
ATOM     29 OE2  GLU I   3      17.706 -28.315  10.437  1.00 37.52 LIG-0.65  OA
ATOM     30 OE1  GLU I   3      16.664 -29.041  12.237  1.00 34.95 LIG-0.65  OA
ENDBRANCH 27 28
ENDBRANCH 26 27
ENDBRANCH 23 26
ENDBRANCH 21 23
ENDBRANCH 18 19
ENDBRANCH 3 18
TORSDOF 14
ENDMDL
MODEL 9
USER: ADFR SOLUTION from run 130
USER: SCORE 16.420073 LL:  -1.085 LR: -15.521 RR:   0.000 FEB: -11.345
USER: RMSD 3.293244
USER: SEED 129
USER: STATUS no improvement in best in 6 clusters for 5 generations
USER: GENES 16
USER: genes 0 Translation |==|  0.35471 0.36062 0.52743
USER: genes 1 Rotation |==|  0.53378 0.46258 0.48070 0.99708
USER: genes 2 Torsion [N]-C--CA-[N] |==|  0.46331
USER: genes 3 Torsion [C]-CA--CB-[CG] |==|  0.43366
USER: genes 4 Torsion [CA]-CB--CG-[CD] |==|  0.90449
USER: genes 5 Torsion [CB]-CG--CD-[CE] |==|  0.59971
USER: genes 6 Torsion [CG]-CD--CE-[NZ] |==|  0.59687
USER: genes 7 Torsion [CD]-CE--NZ-[HZ2] |==|  0.03992
USER: genes 8 Torsion [C]-CA--N-[H2] |==|  0.33846
USER: genes 9 Torsion [C]-N--CA-[C] |==|  0.76481
USER: genes 10 Torsion [N]-CA--C-[N] |==|  0.42785
USER: genes 11 Torsion [C]-N--CA-[C] |==|  0.19819
USER: genes 12 Torsion [N]-CA--C-[O] |==|  0.21053
USER: genes 13 Torsion [N]-CA--CB-[CG] |==|  0.58311
USER: genes 14 Torsion [CA]-CB--CG-[CD] |==|  0.13196
USER: genes 15 Torsion [CB]-CG--CD-[OE2] |==|  0.36465
ROOT
ATOM      1  C   LYS I   1      13.952 -23.869  11.447  1.00 18.69 LIG 0.25  C 
ATOM      2 O    LYS I   1      14.624 -23.790  12.453  1.00 17.50 LIG-0.27  OA
ATOM      3  N   GLY I   2      14.317 -24.558  10.367  1.00 19.29 LIG-0.35  N 
ATOM      4 H    GLY I   2      13.841 -24.603   9.651  1.00 19.29 LIG 0.16  HD
ENDROOT
BRANCH 1 5
ATOM      5  CA  LYS I   1      12.611 -23.155  11.374  1.00 19.30 LIG 0.27  C 
BRANCH 5 6
ATOM      6  CB  LYS I   1      12.700 -21.973  10.390  1.00 20.67 LIG 0.04  C 
BRANCH 6 7
ATOM      7  CG  LYS I   1      11.398 -21.511   9.772  1.00 22.16 LIG 0.00  C 
BRANCH 7 8
ATOM      8  CD  LYS I   1      10.493 -22.726   9.562  1.00 24.26 LIG 0.03  C 
BRANCH 8 9
ATOM      9  CE  LYS I   1       9.634 -22.698   8.320  1.00 26.09 LIG 0.23  C 
BRANCH 9 10
ATOM     10  NZ  LYS I   1       8.285 -23.319   8.451  1.00 28.14 LIG-0.08  N 
ATOM     11 HZ2  LYS I   1       8.096 -23.440   9.313  1.00 28.14 LIG 0.27  HD
ATOM     12 HZ1  LYS I   1       8.278 -24.105   8.033  1.00 28.14 LIG 0.27  HD
ATOM     13 HZ3  LYS I   1       7.675 -22.785   8.087  1.00 28.14 LIG 0.27  HD
ENDBRANCH 9 10
ENDBRANCH 8 9
ENDBRANCH 7 8
ENDBRANCH 6 7
ENDBRANCH 5 6
BRANCH 5 14
ATOM     14  N   LYS I   1      12.177 -22.696  12.730  1.00 18.10 LIG-0.07  N 
ATOM     15 H3   LYS I   1      11.413 -23.096  12.948  1.00 18.10 LIG 0.28  HD
ATOM     16 H1   LYS I   1      12.802 -22.905  13.329  1.00 18.10 LIG 0.28  HD
ATOM     17 H2   LYS I   1      12.058 -21.814  12.721  1.00 18.10 LIG 0.28  HD
ENDBRANCH 5 14
ENDBRANCH 1 5
BRANCH 3 18
ATOM     18  CA  GLY I   2      15.573 -25.313  10.291  1.00 20.06 LIG 0.23  C 
BRANCH 18 19
ATOM     19  C   GLY I   2      16.748 -24.453   9.882  1.00 20.91 LIG 0.23  C 
ATOM     20 O    GLY I   2      16.584 -23.444   9.202  1.00 20.34 LIG-0.27  OA
ATOM     21  N   GLU I   3      17.946 -24.862  10.286  1.00 23.55 LIG-0.35  N 
ATOM     22 H    GLU I   3      18.088 -25.618  10.672  1.00 23.55 LIG 0.16  HD
BRANCH 21 23
ATOM     23  CA  GLU I   3      19.144 -24.047  10.104  1.00 24.92 LIG 0.16  C 
BRANCH 23 24
ATOM     24  C   GLU I   3      19.124 -22.848  11.044  1.00 25.70 LIG 0.22  C 
ATOM     25 O    GLU I   3      19.374 -23.011  12.236  1.00 27.47 LIG-0.29  OA
ENDBRANCH 23 24
BRANCH 23 26
ATOM     26  CB  GLU I   3      19.233 -23.629   8.638  1.00 26.58 LIG 0.04  C 
BRANCH 26 27
ATOM     27  CG  GLU I   3      20.618 -23.402   8.023  1.00 29.64 LIG 0.12  C 
BRANCH 27 28
ATOM     28  CD  GLU I   3      21.632 -24.495   8.301  1.00 32.56 LIG 0.17  C 
ATOM     29 OE2  GLU I   3      22.279 -24.945   7.327  1.00 37.52 LIG-0.65  OA
ATOM     30 OE1  GLU I   3      21.750 -24.944   9.465  1.00 34.95 LIG-0.65  OA
ENDBRANCH 27 28
ENDBRANCH 26 27
ENDBRANCH 23 26
ENDBRANCH 21 23
ENDBRANCH 18 19
ENDBRANCH 3 18
TORSDOF 14
ENDMDL
MODEL 10
USER: ADFR SOLUTION from run 85
USER: SCORE 16.334205 LL:  -1.068 LR: -15.413 RR:   0.000 FEB: -11.237
USER: RMSD 5.350224
USER: SEED 84
USER: STATUS no improvement in best in 7 clusters for 5 generations
USER: GENES 16
USER: genes 0 Translation |==|  0.34686 0.36637 0.54057
USER: genes 1 Rotation |==|  0.61633 0.48444 0.47510 0.98539
USER: genes 2 Torsion [N]-C--CA-[N] |==|  0.46255
USER: genes 3 Torsion [C]-CA--CB-[CG] |==|  0.79726
USER: genes 4 Torsion [CA]-CB--CG-[CD] |==|  0.60265
USER: genes 5 Torsion [CB]-CG--CD-[CE] |==|  0.57412
USER: genes 6 Torsion [CG]-CD--CE-[NZ] |==|  0.74916
USER: genes 7 Torsion [CD]-CE--NZ-[HZ2] |==|  0.48865
USER: genes 8 Torsion [C]-CA--N-[H2] |==|  0.98751
USER: genes 9 Torsion [C]-N--CA-[C] |==|  0.30219
USER: genes 10 Torsion [N]-CA--C-[N] |==|  0.94765
USER: genes 11 Torsion [C]-N--CA-[C] |==|  0.48046
USER: genes 12 Torsion [N]-CA--C-[O] |==|  0.64910
USER: genes 13 Torsion [N]-CA--CB-[CG] |==|  0.14563
USER: genes 14 Torsion [CA]-CB--CG-[CD] |==|  0.61365
USER: genes 15 Torsion [CB]-CG--CD-[OE2] |==|  0.07644
ROOT
ATOM      1  C   LYS I   1      13.805 -23.774  11.625  1.00 18.69 LIG 0.25  C 
ATOM      2 O    LYS I   1      14.548 -24.021  12.550  1.00 17.50 LIG-0.27  OA
ATOM      3  N   GLY I   2      14.087 -24.060  10.354  1.00 19.29 LIG-0.35  N 
ATOM      4 H    GLY I   2      13.561 -23.873   9.699  1.00 19.29 LIG 0.16  HD
ENDROOT
BRANCH 1 5
ATOM      5  CA  LYS I   1      12.466 -23.101  11.887  1.00 19.30 LIG 0.27  C 
BRANCH 5 6
ATOM      6  CB  LYS I   1      12.493 -21.657  11.353  1.00 20.67 LIG 0.04  C 
BRANCH 6 7
ATOM      7  CG  LYS I   1      13.313 -20.660  12.145  1.00 22.16 LIG 0.00  C 
BRANCH 7 8
ATOM      8  CD  LYS I   1      12.592 -19.311  12.136  1.00 24.26 LIG 0.03  C 
BRANCH 8 9
ATOM      9  CE  LYS I   1      13.473 -18.095  12.297  1.00 26.09 LIG 0.23  C 
BRANCH 9 10
ATOM     10  NZ  LYS I   1      13.697 -17.641  13.700  1.00 28.14 LIG-0.08  N 
ATOM     11 HZ2  LYS I   1      14.272 -16.961  13.705  1.00 28.14 LIG 0.27  HD
ATOM     12 HZ1  LYS I   1      14.029 -18.312  14.180  1.00 28.14 LIG 0.27  HD
ATOM     13 HZ3  LYS I   1      12.924 -17.378  14.054  1.00 28.14 LIG 0.27  HD
ENDBRANCH 9 10
ENDBRANCH 8 9
ENDBRANCH 7 8
ENDBRANCH 6 7
ENDBRANCH 5 6
BRANCH 5 14
ATOM     14  N   LYS I   1      12.131 -23.131  13.344  1.00 18.10 LIG-0.07  N 
ATOM     15 H3   LYS I   1      12.108 -22.300  13.660  1.00 18.10 LIG 0.28  HD
ATOM     16 H1   LYS I   1      11.335 -23.514  13.458  1.00 18.10 LIG 0.28  HD
ATOM     17 H2   LYS I   1      12.750 -23.597  13.782  1.00 18.10 LIG 0.28  HD
ENDBRANCH 5 14
ENDBRANCH 1 5
BRANCH 3 18
ATOM     18  CA  GLY I   2      15.330 -24.723   9.944  1.00 20.06 LIG 0.23  C 
BRANCH 18 19
ATOM     19  C   GLY I   2      15.108 -26.148   9.487  1.00 20.91 LIG 0.23  C 
ATOM     20 O    GLY I   2      15.938 -26.723   8.788  1.00 20.34 LIG-0.27  OA
ATOM     21  N   GLU I   3      13.969 -26.717   9.868  1.00 23.55 LIG-0.35  N 
ATOM     22 H    GLU I   3      13.334 -26.296  10.267  1.00 23.55 LIG 0.16  HD
BRANCH 21 23
ATOM     23  CA  GLU I   3      13.697 -28.133   9.638  1.00 24.92 LIG 0.16  C 
BRANCH 23 24
ATOM     24  C   GLU I   3      12.403 -28.549  10.327  1.00 25.70 LIG 0.22  C 
ATOM     25 O    GLU I   3      12.411 -29.507  11.097  1.00 27.47 LIG-0.29  OA
ENDBRANCH 23 24
BRANCH 23 26
ATOM     26  CB  GLU I   3      14.895 -28.946  10.125  1.00 26.58 LIG 0.04  C 
BRANCH 26 27
ATOM     27  CG  GLU I   3      15.406 -28.716  11.551  1.00 29.64 LIG 0.12  C 
BRANCH 27 28
ATOM     28  CD  GLU I   3      16.915 -28.694  11.698  1.00 32.56 LIG 0.17  C 
ATOM     29 OE2  GLU I   3      17.589 -28.336  10.704  1.00 37.52 LIG-0.65  OA
ATOM     30 OE1  GLU I   3      17.434 -29.079  12.772  1.00 34.95 LIG-0.65  OA
ENDBRANCH 27 28
ENDBRANCH 26 27
ENDBRANCH 23 26
ENDBRANCH 21 23
ENDBRANCH 18 19
ENDBRANCH 3 18
TORSDOF 14
ENDMDL
MODEL 11
USER: ADFR SOLUTION from run 7
USER: SCORE 16.341511 LL:  -1.197 LR: -15.413 RR:   0.000 FEB: -11.237
USER: RMSD 2.148411
USER: SEED 680340
USER: STATUS no improvement in best in 6 clusters for 5 generations
USER: GENES 16
USER: genes 0 Translation |==|  0.35251 0.34674 0.55222
USER: genes 1 Rotation |==|  0.53930 0.46505 0.43084 0.99239
USER: genes 2 Torsion [N]-C--CA-[N] |==|  0.40184
USER: genes 3 Torsion [C]-CA--CB-[CG] |==|  0.68494
USER: genes 4 Torsion [CA]-CB--CG-[CD] |==|  0.47408
USER: genes 5 Torsion [CB]-CG--CD-[CE] |==|  0.40531
USER: genes 6 Torsion [CG]-CD--CE-[NZ] |==|  0.25906
USER: genes 7 Torsion [CD]-CE--NZ-[HZ2] |==|  0.47204
USER: genes 8 Torsion [C]-CA--N-[H2] |==|  0.69942
USER: genes 9 Torsion [C]-N--CA-[C] |==|  0.78151
USER: genes 10 Torsion [N]-CA--C-[N] |==|  0.05915
USER: genes 11 Torsion [C]-N--CA-[C] |==|  0.13002
USER: genes 12 Torsion [N]-CA--C-[O] |==|  0.09489
USER: genes 13 Torsion [N]-CA--CB-[CG] |==|  0.38538
USER: genes 14 Torsion [CA]-CB--CG-[CD] |==|  0.77441
USER: genes 15 Torsion [CB]-CG--CD-[OE2] |==|  0.34757
ROOT
ATOM      1  C   LYS I   1      13.911 -24.098  11.782  1.00 18.69 LIG 0.25  C 
ATOM      2 O    LYS I   1      14.602 -24.193  12.773  1.00 17.50 LIG-0.27  OA
ATOM      3  N   GLY I   2      14.115 -24.801  10.669  1.00 19.29 LIG-0.35  N 
ATOM      4 H    GLY I   2      13.628 -24.723   9.964  1.00 19.29 LIG 0.16  HD
ENDROOT
BRANCH 1 5
ATOM      5  CA  LYS I   1      12.735 -23.133  11.768  1.00 19.30 LIG 0.27  C 
BRANCH 5 6
ATOM      6  CB  LYS I   1      13.206 -21.740  11.310  1.00 20.67 LIG 0.04  C 
BRANCH 6 7
ATOM      7  CG  LYS I   1      13.148 -20.635  12.344  1.00 22.16 LIG 0.00  C 
BRANCH 7 8
ATOM      8  CD  LYS I   1      13.863 -19.403  11.789  1.00 24.26 LIG 0.03  C 
BRANCH 8 9
ATOM      9  CE  LYS I   1      13.288 -18.069  12.203  1.00 26.09 LIG 0.23  C 
BRANCH 9 10
ATOM     10  NZ  LYS I   1      13.903 -17.447  13.412  1.00 28.14 LIG-0.08  N 
ATOM     11 HZ2  LYS I   1      13.610 -16.611  13.497  1.00 28.14 LIG 0.27  HD
ATOM     12 HZ1  LYS I   1      14.788 -17.444  13.327  1.00 28.14 LIG 0.27  HD
ATOM     13 HZ3  LYS I   1      13.676 -17.915  14.134  1.00 28.14 LIG 0.27  HD
ENDBRANCH 9 10
ENDBRANCH 8 9
ENDBRANCH 7 8
ENDBRANCH 6 7
ENDBRANCH 5 6
BRANCH 5 14
ATOM     14  N   LYS I   1      12.083 -23.068  13.113  1.00 18.10 LIG-0.07  N 
ATOM     15 H3   LYS I   1      12.602 -23.470  13.714  1.00 18.10 LIG 0.28  HD
ATOM     16 H1   LYS I   1      11.967 -22.216  13.345  1.00 18.10 LIG 0.28  HD
ATOM     17 H2   LYS I   1      11.294 -23.477  13.080  1.00 18.10 LIG 0.28  HD
ENDBRANCH 5 14
ENDBRANCH 1 5
BRANCH 3 18
ATOM     18  CA  GLY I   2      15.197 -25.783  10.534  1.00 20.06 LIG 0.23  C 
BRANCH 18 19
ATOM     19  C   GLY I   2      16.540 -25.140  10.271  1.00 20.91 LIG 0.23  C 
ATOM     20 O    GLY I   2      17.461 -25.782   9.773  1.00 20.34 LIG-0.27  OA
ATOM     21  N   GLU I   3      16.661 -23.864  10.624  1.00 23.55 LIG-0.35  N 
ATOM     22 H    GLU I   3      16.063 -23.432  11.067  1.00 23.55 LIG 0.16  HD
BRANCH 21 23
ATOM     23  CA  GLU I   3      17.841 -23.074  10.282  1.00 24.92 LIG 0.16  C 
BRANCH 23 24
ATOM     24  C   GLU I   3      18.210 -23.271   8.817  1.00 25.70 LIG 0.22  C 
ATOM     25 O    GLU I   3      17.320 -23.440   7.987  1.00 27.47 LIG-0.29  OA
ENDBRANCH 23 24
BRANCH 23 26
ATOM     26  CB  GLU I   3      18.980 -23.467  11.221  1.00 26.58 LIG 0.04  C 
BRANCH 26 27
ATOM     27  CG  GLU I   3      20.389 -23.619  10.638  1.00 29.64 LIG 0.12  C 
BRANCH 27 28
ATOM     28  CD  GLU I   3      20.663 -24.944   9.952  1.00 32.56 LIG 0.17  C 
ATOM     29 OE2  GLU I   3      21.074 -24.909   8.769  1.00 37.52 LIG-0.65  OA
ATOM     30 OE1  GLU I   3      20.422 -26.013  10.560  1.00 34.95 LIG-0.65  OA
ENDBRANCH 27 28
ENDBRANCH 26 27
ENDBRANCH 23 26
ENDBRANCH 21 23
ENDBRANCH 18 19
ENDBRANCH 3 18
TORSDOF 14
ENDMDL
MODEL 12
USER: ADFR SOLUTION from run 99
USER: SCORE 15.440992 LL:  -0.381 LR: -15.322 RR:   0.000 FEB: -11.146
USER: RMSD 4.284208
USER: SEED 98
USER: STATUS no improvement in best in 5 clusters for 5 generations
USER: GENES 16
USER: genes 0 Translation |==|  0.31195 0.43610 0.45980
USER: genes 1 Rotation |==|  0.10696 0.60638 0.44283 0.78449
USER: genes 2 Torsion [N]-C--CA-[N] |==|  0.98433
USER: genes 3 Torsion [C]-CA--CB-[CG] |==|  0.04680
USER: genes 4 Torsion [CA]-CB--CG-[CD] |==|  0.58451
USER: genes 5 Torsion [CB]-CG--CD-[CE] |==|  0.03862
USER: genes 6 Torsion [CG]-CD--CE-[NZ] |==|  0.19751
USER: genes 7 Torsion [CD]-CE--NZ-[HZ2] |==|  0.56853
USER: genes 8 Torsion [C]-CA--N-[H2] |==|  0.88503
USER: genes 9 Torsion [C]-N--CA-[C] |==|  0.86667
USER: genes 10 Torsion [N]-CA--C-[N] |==|  0.88664
USER: genes 11 Torsion [C]-N--CA-[C] |==|  0.47660
USER: genes 12 Torsion [N]-CA--C-[O] |==|  0.32218
USER: genes 13 Torsion [N]-CA--CB-[CG] |==|  0.52199
USER: genes 14 Torsion [CA]-CB--CG-[CD] |==|  0.38770
USER: genes 15 Torsion [CB]-CG--CD-[OE2] |==|  0.25536
ROOT
ATOM      1  C   LYS I   1      13.150 -22.623  10.534  1.00 18.69 LIG 0.25  C 
ATOM      2 O    LYS I   1      14.171 -22.326   9.952  1.00 17.50 LIG-0.27  OA
ATOM      3  N   GLY I   2      13.116 -23.403  11.615  1.00 19.29 LIG-0.35  N 
ATOM      4 H    GLY I   2      12.388 -23.619  12.019  1.00 19.29 LIG 0.16  HD
ENDROOT
BRANCH 1 5
ATOM      5  CA  LYS I   1      11.813 -22.098  10.036  1.00 19.30 LIG 0.27  C 
BRANCH 5 6
ATOM      6  CB  LYS I   1      11.792 -20.560  10.115  1.00 20.67 LIG 0.04  C 
BRANCH 6 7
ATOM      7  CG  LYS I   1      13.134 -19.874  10.261  1.00 22.16 LIG 0.00  C 
BRANCH 7 8
ATOM      8  CD  LYS I   1      12.941 -18.578  11.051  1.00 24.26 LIG 0.03  C 
BRANCH 8 9
ATOM      9  CE  LYS I   1      11.619 -18.436  11.765  1.00 26.09 LIG 0.23  C 
BRANCH 9 10
ATOM     10  NZ  LYS I   1      11.426 -19.319  12.952  1.00 28.14 LIG-0.08  N 
ATOM     11 HZ2  LYS I   1      10.556 -19.445  13.090  1.00 28.14 LIG 0.27  HD
ATOM     12 HZ1  LYS I   1      11.788 -18.935  13.669  1.00 28.14 LIG 0.27  HD
ATOM     13 HZ3  LYS I   1      11.819 -20.103  12.805  1.00 28.14 LIG 0.27  HD
ENDBRANCH 9 10
ENDBRANCH 8 9
ENDBRANCH 7 8
ENDBRANCH 6 7
ENDBRANCH 5 6
BRANCH 5 14
ATOM     14  N   LYS I   1      10.683 -22.694  10.813  1.00 18.10 LIG-0.07  N 
ATOM     15 H3   LYS I   1      10.610 -22.278  11.597  1.00 18.10 LIG 0.28  HD
ATOM     16 H1   LYS I   1       9.925 -22.599  10.356  1.00 18.10 LIG 0.28  HD
ATOM     17 H2   LYS I   1      10.840 -23.559  10.950  1.00 18.10 LIG 0.28  HD
ENDBRANCH 5 14
ENDBRANCH 1 5
BRANCH 3 18
ATOM     18  CA  GLY I   2      14.324 -23.972  12.225  1.00 20.06 LIG 0.23  C 
BRANCH 18 19
ATOM     19  C   GLY I   2      15.241 -24.618  11.211  1.00 20.91 LIG 0.23  C 
ATOM     20 O    GLY I   2      16.458 -24.468  11.274  1.00 20.34 LIG-0.27  OA
ATOM     21  N   GLU I   3      14.652 -25.331  10.255  1.00 23.55 LIG-0.35  N 
ATOM     22 H    GLU I   3      13.801 -25.360  10.136  1.00 23.55 LIG 0.16  HD
BRANCH 21 23
ATOM     23  CA  GLU I   3      15.417 -26.140   9.311  1.00 24.92 LIG 0.16  C 
BRANCH 23 24
ATOM     24  C   GLU I   3      14.487 -27.003   8.468  1.00 25.70 LIG 0.22  C 
ATOM     25 O    GLU I   3      14.426 -26.819   7.255  1.00 27.47 LIG-0.29  OA
ENDBRANCH 23 24
BRANCH 23 26
ATOM     26  CB  GLU I   3      16.429 -26.977  10.092  1.00 26.58 LIG 0.04  C 
BRANCH 26 27
ATOM     27  CG  GLU I   3      17.478 -27.774   9.310  1.00 29.64 LIG 0.12  C 
BRANCH 27 28
ATOM     28  CD  GLU I   3      18.871 -27.768   9.911  1.00 32.56 LIG 0.17  C 
ATOM     29 OE2  GLU I   3      19.164 -28.694  10.702  1.00 37.52 LIG-0.65  OA
ATOM     30 OE1  GLU I   3      19.651 -26.825   9.644  1.00 34.95 LIG-0.65  OA
ENDBRANCH 27 28
ENDBRANCH 26 27
ENDBRANCH 23 26
ENDBRANCH 21 23
ENDBRANCH 18 19
ENDBRANCH 3 18
TORSDOF 14
ENDMDL
MODEL 13
USER: ADFR SOLUTION from run 68
USER: SCORE 16.139178 LL:  -1.515 LR: -15.148 RR:   0.000 FEB: -10.972
USER: RMSD 2.684209
USER: SEED 67
USER: STATUS no improvement in best in 5 clusters for 5 generations
USER: GENES 16
USER: genes 0 Translation |==|  0.35174 0.36351 0.52795
USER: genes 1 Rotation |==|  0.48934 0.41493 0.37406 0.97622
USER: genes 2 Torsion [N]-C--CA-[N] |==|  0.28868
USER: genes 3 Torsion [C]-CA--CB-[CG] |==|  0.69565
USER: genes 4 Torsion [CA]-CB--CG-[CD] |==|  0.69046
USER: genes 5 Torsion [CB]-CG--CD-[CE] |==|  0.71156
USER: genes 6 Torsion [CG]-CD--CE-[NZ] |==|  0.83573
USER: genes 7 Torsion [CD]-CE--NZ-[HZ2] |==|  0.48376
USER: genes 8 Torsion [C]-CA--N-[H2] |==|  0.16743
USER: genes 9 Torsion [C]-N--CA-[C] |==|  0.66432
USER: genes 10 Torsion [N]-CA--C-[N] |==|  0.39515
USER: genes 11 Torsion [C]-N--CA-[C] |==|  0.63003
USER: genes 12 Torsion [N]-CA--C-[O] |==|  0.89634
USER: genes 13 Torsion [N]-CA--CB-[CG] |==|  0.76582
USER: genes 14 Torsion [CA]-CB--CG-[CD] |==|  0.18027
USER: genes 15 Torsion [CB]-CG--CD-[OE2] |==|  0.19660
ROOT
ATOM      1  C   LYS I   1      13.896 -23.821  11.454  1.00 18.69 LIG 0.25  C 
ATOM      2 O    LYS I   1      14.403 -23.860  12.555  1.00 17.50 LIG-0.27  OA
ATOM      3  N   GLY I   2      14.040 -24.781  10.541  1.00 19.29 LIG-0.35  N 
ATOM      4 H    GLY I   2      13.686 -24.744   9.757  1.00 19.29 LIG 0.16  HD
ENDROOT
BRANCH 1 5
ATOM      5  CA  LYS I   1      13.041 -22.628  11.055  1.00 19.30 LIG 0.27  C 
BRANCH 5 6
ATOM      6  CB  LYS I   1      13.766 -21.320  11.420  1.00 20.67 LIG 0.04  C 
BRANCH 6 7
ATOM      7  CG  LYS I   1      13.179 -20.520  12.565  1.00 22.16 LIG 0.00  C 
BRANCH 7 8
ATOM      8  CD  LYS I   1      12.589 -19.223  12.009  1.00 24.26 LIG 0.03  C 
BRANCH 8 9
ATOM      9  CE  LYS I   1      13.408 -17.977  12.246  1.00 26.09 LIG 0.23  C 
BRANCH 9 10
ATOM     10  NZ  LYS I   1      13.680 -17.642  13.674  1.00 28.14 LIG-0.08  N 
ATOM     11 HZ2  LYS I   1      14.235 -16.948  13.716  1.00 28.14 LIG 0.27  HD
ATOM     12 HZ1  LYS I   1      14.051 -18.343  14.077  1.00 28.14 LIG 0.27  HD
ATOM     13 HZ3  LYS I   1      12.916 -17.437  14.081  1.00 28.14 LIG 0.27  HD
ENDBRANCH 9 10
ENDBRANCH 8 9
ENDBRANCH 7 8
ENDBRANCH 6 7
ENDBRANCH 5 6
BRANCH 5 14
ATOM     14  N   LYS I   1      11.694 -22.698  11.702  1.00 18.10 LIG-0.07  N 
ATOM     15 H3   LYS I   1      11.209 -21.994  11.453  1.00 18.10 LIG 0.28  HD
ATOM     16 H1   LYS I   1      11.282 -23.446  11.450  1.00 18.10 LIG 0.28  HD
ATOM     17 H2   LYS I   1      11.789 -22.695  12.587  1.00 18.10 LIG 0.28  HD
ENDBRANCH 5 14
ENDBRANCH 1 5
BRANCH 3 18
ATOM     18  CA  GLY I   2      14.820 -26.000  10.783  1.00 20.06 LIG 0.23  C 
BRANCH 18 19
ATOM     19  C   GLY I   2      15.958 -26.169   9.801  1.00 20.91 LIG 0.23  C 
ATOM     20 O    GLY I   2      15.820 -25.871   8.618  1.00 20.34 LIG-0.27  OA
ATOM     21  N   GLU I   3      17.088 -26.669  10.290  1.00 23.55 LIG-0.35  N 
ATOM     22 H    GLU I   3      17.167 -26.979  11.089  1.00 23.55 LIG 0.16  HD
BRANCH 21 23
ATOM     23  CA  GLU I   3      18.313 -26.734   9.498  1.00 24.92 LIG 0.16  C 
BRANCH 23 24
ATOM     24  C   GLU I   3      18.959 -28.108   9.622  1.00 25.70 LIG 0.22  C 
ATOM     25 O    GLU I   3      18.929 -28.694  10.702  1.00 27.47 LIG-0.29  OA
ENDBRANCH 23 24
BRANCH 23 26
ATOM     26  CB  GLU I   3      19.248 -25.616   9.952  1.00 26.58 LIG 0.04  C 
BRANCH 26 27
ATOM     27  CG  GLU I   3      19.063 -24.218   9.353  1.00 29.64 LIG 0.12  C 
BRANCH 27 28
ATOM     28  CD  GLU I   3      17.751 -23.539   9.697  1.00 32.56 LIG 0.17  C 
ATOM     29 OE2  GLU I   3      17.593 -23.148  10.876  1.00 37.52 LIG-0.65  OA
ATOM     30 OE1  GLU I   3      16.861 -23.440   8.820  1.00 34.95 LIG-0.65  OA
ENDBRANCH 27 28
ENDBRANCH 26 27
ENDBRANCH 23 26
ENDBRANCH 21 23
ENDBRANCH 18 19
ENDBRANCH 3 18
TORSDOF 14
ENDMDL
MODEL 14
USER: ADFR SOLUTION from run 100
USER: SCORE 16.232803 LL:  -1.221 LR: -15.028 RR:   0.000 FEB: -10.852
USER: RMSD 5.092164
USER: SEED 99
USER: STATUS no improvement in best in 2 clusters for 5 generations
USER: GENES 16
USER: genes 0 Translation |==|  0.34826 0.38544 0.54268
USER: genes 1 Rotation |==|  0.71158 0.44556 0.53092 0.94868
USER: genes 2 Torsion [N]-C--CA-[N] |==|  0.55191
USER: genes 3 Torsion [C]-CA--CB-[CG] |==|  0.25861
USER: genes 4 Torsion [CA]-CB--CG-[CD] |==|  0.15781
USER: genes 5 Torsion [CB]-CG--CD-[CE] |==|  0.45086
USER: genes 6 Torsion [CG]-CD--CE-[NZ] |==|  0.52881
USER: genes 7 Torsion [CD]-CE--NZ-[HZ2] |==|  0.07234
USER: genes 8 Torsion [C]-CA--N-[H2] |==|  0.29112
USER: genes 9 Torsion [C]-N--CA-[C] |==|  0.25288
USER: genes 10 Torsion [N]-CA--C-[N] |==|  0.98890
USER: genes 11 Torsion [C]-N--CA-[C] |==|  0.47826
USER: genes 12 Torsion [N]-CA--C-[O] |==|  0.94294
USER: genes 13 Torsion [N]-CA--CB-[CG] |==|  0.71094
USER: genes 14 Torsion [CA]-CB--CG-[CD] |==|  0.43489
USER: genes 15 Torsion [CB]-CG--CD-[OE2] |==|  0.64684
ROOT
ATOM      1  C   LYS I   1      13.831 -23.459  11.653  1.00 18.69 LIG 0.25  C 
ATOM      2 O    LYS I   1      14.428 -23.951  12.587  1.00 17.50 LIG-0.27  OA
ATOM      3  N   GLY I   2      14.398 -23.174  10.482  1.00 19.29 LIG-0.35  N 
ATOM      4 H    GLY I   2      13.973 -22.815   9.825  1.00 19.29 LIG 0.16  HD
ENDROOT
BRANCH 1 5
ATOM      5  CA  LYS I   1      12.351 -23.134  11.786  1.00 19.30 LIG 0.27  C 
BRANCH 5 6
ATOM      6  CB  LYS I   1      12.038 -21.813  11.061  1.00 20.67 LIG 0.04  C 
BRANCH 6 7
ATOM      7  CG  LYS I   1      11.577 -21.925   9.623  1.00 22.16 LIG 0.00  C 
BRANCH 7 8
ATOM      8  CD  LYS I   1      10.337 -22.819   9.571  1.00 24.26 LIG 0.03  C 
BRANCH 8 9
ATOM      9  CE  LYS I   1       9.505 -22.714   8.315  1.00 26.09 LIG 0.23  C 
BRANCH 9 10
ATOM     10  NZ  LYS I   1       8.178 -23.394   8.359  1.00 28.14 LIG-0.08  N 
ATOM     11 HZ2  LYS I   1       7.897 -23.444   9.202  1.00 28.14 LIG 0.27  HD
ATOM     12 HZ1  LYS I   1       8.254 -24.214   8.022  1.00 28.14 LIG 0.27  HD
ATOM     13 HZ3  LYS I   1       7.591 -22.930   7.878  1.00 28.14 LIG 0.27  HD
ENDBRANCH 9 10
ENDBRANCH 8 9
ENDBRANCH 7 8
ENDBRANCH 6 7
ENDBRANCH 5 6
BRANCH 5 14
ATOM     14  N   LYS I   1      11.947 -23.069  13.225  1.00 18.10 LIG-0.07  N 
ATOM     15 H3   LYS I   1      11.181 -23.507  13.338  1.00 18.10 LIG 0.28  HD
ATOM     16 H1   LYS I   1      12.580 -23.443  13.728  1.00 18.10 LIG 0.28  HD
ATOM     17 H2   LYS I   1      11.841 -22.219  13.466  1.00 18.10 LIG 0.28  HD
ENDBRANCH 5 14
ENDBRANCH 1 5
BRANCH 3 18
ATOM     18  CA  GLY I   2      15.812 -23.444  10.194  1.00 20.06 LIG 0.23  C 
BRANCH 18 19
ATOM     19  C   GLY I   2      16.033 -24.810   9.584  1.00 20.91 LIG 0.23  C 
ATOM     20 O    GLY I   2      17.147 -25.158   9.202  1.00 20.34 LIG-0.27  OA
ATOM     21  N   GLU I   3      14.959 -25.586   9.473  1.00 23.55 LIG-0.35  N 
ATOM     22 H    GLU I   3      14.158 -25.319   9.638  1.00 23.55 LIG 0.16  HD
BRANCH 21 23
ATOM     23  CA  GLU I   3      15.053 -26.982   9.055  1.00 24.92 LIG 0.16  C 
BRANCH 23 24
ATOM     24  C   GLU I   3      13.705 -27.676   9.202  1.00 25.70 LIG 0.22  C 
ATOM     25 O    GLU I   3      12.858 -27.198   9.954  1.00 27.47 LIG-0.29  OA
ENDBRANCH 23 24
BRANCH 23 26
ATOM     26  CB  GLU I   3      16.145 -27.665   9.876  1.00 26.58 LIG 0.04  C 
BRANCH 26 27
ATOM     27  CG  GLU I   3      17.495 -27.944   9.209  1.00 29.64 LIG 0.12  C 
BRANCH 27 28
ATOM     28  CD  GLU I   3      18.666 -28.090  10.163  1.00 32.56 LIG 0.17  C 
ATOM     29 OE2  GLU I   3      19.676 -27.380   9.952  1.00 37.52 LIG-0.65  OA
ATOM     30 OE1  GLU I   3      18.608 -28.940  11.082  1.00 34.95 LIG-0.65  OA
ENDBRANCH 27 28
ENDBRANCH 26 27
ENDBRANCH 23 26
ENDBRANCH 21 23
ENDBRANCH 18 19
ENDBRANCH 3 18
TORSDOF 14
ENDMDL
MODEL 15
USER: ADFR SOLUTION from run 33
USER: SCORE 15.947308 LL:  -1.186 LR: -14.880 RR:   0.000 FEB: -10.704
USER: RMSD 4.073579
USER: SEED 32
USER: STATUS no improvement in best in 7 clusters for 5 generations
USER: GENES 16
USER: genes 0 Translation |==|  0.34221 0.35783 0.53920
USER: genes 1 Rotation |==|  0.55610 0.47955 0.45078 0.99397
USER: genes 2 Torsion [N]-C--CA-[N] |==|  0.46405
USER: genes 3 Torsion [C]-CA--CB-[CG] |==|  0.37592
USER: genes 4 Torsion [CA]-CB--CG-[CD] |==|  0.92533
USER: genes 5 Torsion [CB]-CG--CD-[CE] |==|  0.57466
USER: genes 6 Torsion [CG]-CD--CE-[NZ] |==|  0.61417
USER: genes 7 Torsion [CD]-CE--NZ-[HZ2] |==|  0.35476
USER: genes 8 Torsion [C]-CA--N-[H2] |==|  0.34853
USER: genes 9 Torsion [C]-N--CA-[C] |==|  0.78237
USER: genes 10 Torsion [N]-CA--C-[N] |==|  0.44236
USER: genes 11 Torsion [C]-N--CA-[C] |==|  0.87719
USER: genes 12 Torsion [N]-CA--C-[O] |==|  0.65431
USER: genes 13 Torsion [N]-CA--CB-[CG] |==|  0.10415
USER: genes 14 Torsion [CA]-CB--CG-[CD] |==|  0.78063
USER: genes 15 Torsion [CB]-CG--CD-[OE2] |==|  0.25863
ROOT
ATOM      1  C   LYS I   1      13.717 -23.915  11.606  1.00 18.69 LIG 0.25  C 
ATOM      2 O    LYS I   1      14.458 -24.013  12.561  1.00 17.50 LIG-0.27  OA
ATOM      3  N   GLY I   2      13.932 -24.522  10.439  1.00 19.29 LIG-0.35  N 
ATOM      4 H    GLY I   2      13.409 -24.441   9.761  1.00 19.29 LIG 0.16  HD
ENDROOT
BRANCH 1 5
ATOM      5  CA  LYS I   1      12.463 -23.061  11.705  1.00 19.30 LIG 0.27  C 
BRANCH 5 6
ATOM      6  CB  LYS I   1      12.616 -21.802  10.832  1.00 20.67 LIG 0.04  C 
BRANCH 6 7
ATOM      7  CG  LYS I   1      11.425 -21.428   9.974  1.00 22.16 LIG 0.00  C 
BRANCH 7 8
ATOM      8  CD  LYS I   1      10.626 -22.694   9.661  1.00 24.26 LIG 0.03  C 
BRANCH 8 9
ATOM      9  CE  LYS I   1       9.829 -22.666   8.379  1.00 26.09 LIG 0.23  C 
BRANCH 9 10
ATOM     10  NZ  LYS I   1       8.464 -23.264   8.452  1.00 28.14 LIG-0.08  N 
ATOM     11 HZ2  LYS I   1       7.867 -22.682   8.139  1.00 28.14 LIG 0.27  HD
ATOM     12 HZ1  LYS I   1       8.271 -23.460   9.298  1.00 28.14 LIG 0.27  HD
ATOM     13 HZ3  LYS I   1       8.438 -24.006   7.962  1.00 28.14 LIG 0.27  HD
ENDBRANCH 9 10
ENDBRANCH 8 9
ENDBRANCH 7 8
ENDBRANCH 6 7
ENDBRANCH 5 6
BRANCH 5 14
ATOM     14  N   LYS I   1      12.176 -22.699  13.128  1.00 18.10 LIG-0.07  N 
ATOM     15 H3   LYS I   1      11.414 -23.080  13.383  1.00 18.10 LIG 0.28  HD
ATOM     16 H1   LYS I   1      12.840 -22.986  13.647  1.00 18.10 LIG 0.28  HD
ATOM     17 H2   LYS I   1      12.104 -21.815  13.200  1.00 18.10 LIG 0.28  HD
ENDBRANCH 5 14
ENDBRANCH 1 5
BRANCH 3 18
ATOM     18  CA  GLY I   2      15.089 -25.391  10.195  1.00 20.06 LIG 0.23  C 
BRANCH 18 19
ATOM     19  C   GLY I   2      16.359 -24.614   9.932  1.00 20.91 LIG 0.23  C 
ATOM     20 O    GLY I   2      16.317 -23.448   9.549  1.00 20.34 LIG-0.27  OA
ATOM     21  N   GLU I   3      17.500 -25.268  10.123  1.00 23.55 LIG-0.35  N 
ATOM     22 H    GLU I   3      17.545 -26.111  10.289  1.00 23.55 LIG 0.16  HD
BRANCH 21 23
ATOM     23  CA  GLU I   3      18.796 -24.598  10.066  1.00 24.92 LIG 0.16  C 
BRANCH 23 24
ATOM     24  C   GLU I   3      18.858 -23.653   8.872  1.00 25.70 LIG 0.22  C 
ATOM     25 O    GLU I   3      19.764 -23.778   8.050  1.00 27.47 LIG-0.29  OA
ENDBRANCH 23 24
BRANCH 23 26
ATOM     26  CB  GLU I   3      19.893 -25.659  10.017  1.00 26.58 LIG 0.04  C 
BRANCH 26 27
ATOM     27  CG  GLU I   3      19.642 -26.936   9.209  1.00 29.64 LIG 0.12  C 
BRANCH 27 28
ATOM     28  CD  GLU I   3      18.775 -27.974   9.897  1.00 32.56 LIG 0.17  C 
ATOM     29 OE2  GLU I   3      17.544 -27.945   9.666  1.00 37.52 LIG-0.65  OA
ATOM     30 OE1  GLU I   3      19.300 -28.778  10.702  1.00 34.95 LIG-0.65  OA
ENDBRANCH 27 28
ENDBRANCH 26 27
ENDBRANCH 23 26
ENDBRANCH 21 23
ENDBRANCH 18 19
ENDBRANCH 3 18
TORSDOF 14
ENDMDL
MODEL 16
USER: ADFR SOLUTION from run 45
USER: SCORE 15.343756 LL:  -0.761 LR: -14.853 RR:   0.000 FEB: -10.677
USER: RMSD 2.023292
USER: SEED 44
USER: STATUS no improvement in best in 4 clusters for 5 generations
USER: GENES 16
USER: genes 0 Translation |==|  0.36297 0.37255 0.55309
USER: genes 1 Rotation |==|  0.63985 0.39981 0.58018 0.96257
USER: genes 2 Torsion [N]-C--CA-[N] |==|  0.54907
USER: genes 3 Torsion [C]-CA--CB-[CG] |==|  0.83820
USER: genes 4 Torsion [CA]-CB--CG-[CD] |==|  0.66551
USER: genes 5 Torsion [CB]-CG--CD-[CE] |==|  0.38822
USER: genes 6 Torsion [CG]-CD--CE-[NZ] |==|  0.78628
USER: genes 7 Torsion [CD]-CE--NZ-[HZ2] |==|  0.77976
USER: genes 8 Torsion [C]-CA--N-[H2] |==|  0.01387
USER: genes 9 Torsion [C]-N--CA-[C] |==|  0.50260
USER: genes 10 Torsion [N]-CA--C-[N] |==|  0.46671
USER: genes 11 Torsion [C]-N--CA-[C] |==|  0.63964
USER: genes 12 Torsion [N]-CA--C-[O] |==|  0.91214
USER: genes 13 Torsion [N]-CA--CB-[CG] |==|  0.63874
USER: genes 14 Torsion [CA]-CB--CG-[CD] |==|  0.69172
USER: genes 15 Torsion [CB]-CG--CD-[OE2] |==|  0.87298
ROOT
ATOM      1  C   LYS I   1      14.107 -23.672  11.794  1.00 18.69 LIG 0.25  C 
ATOM      2 O    LYS I   1      14.449 -23.823  12.947  1.00 17.50 LIG-0.27  OA
ATOM      3  N   GLY I   2      14.955 -23.666  10.766  1.00 19.29 LIG-0.35  N 
ATOM      4 H    GLY I   2      14.709 -23.548   9.950  1.00 19.29 LIG 0.16  HD
ENDROOT
BRANCH 1 5
ATOM      5  CA  LYS I   1      12.637 -23.474  11.459  1.00 19.30 LIG 0.27  C 
BRANCH 5 6
ATOM      6  CB  LYS I   1      12.490 -22.425  10.342  1.00 20.67 LIG 0.04  C 
BRANCH 6 7
ATOM      7  CG  LYS I   1      13.067 -21.054  10.624  1.00 22.16 LIG 0.00  C 
BRANCH 7 8
ATOM      8  CD  LYS I   1      11.944 -20.019  10.536  1.00 24.26 LIG 0.03  C 
BRANCH 8 9
ATOM      9  CE  LYS I   1      11.975 -18.928  11.579  1.00 26.09 LIG 0.23  C 
BRANCH 9 10
ATOM     10  NZ  LYS I   1      11.498 -19.318  12.938  1.00 28.14 LIG-0.08  N 
ATOM     11 HZ2  LYS I   1      10.608 -19.322  12.951  1.00 28.14 LIG 0.27  HD
ATOM     12 HZ1  LYS I   1      11.801 -18.735  13.538  1.00 28.14 LIG 0.27  HD
ATOM     13 HZ3  LYS I   1      11.801 -20.131  13.136  1.00 28.14 LIG 0.27  HD
ENDBRANCH 9 10
ENDBRANCH 8 9
ENDBRANCH 7 8
ENDBRANCH 6 7
ENDBRANCH 5 6
BRANCH 5 14
ATOM     14  N   LYS I   1      11.862 -23.078  12.676  1.00 18.10 LIG-0.07  N 
ATOM     15 H3   LYS I   1      11.426 -22.319  12.516  1.00 18.10 LIG 0.28  HD
ATOM     16 H1   LYS I   1      11.277 -23.719  12.877  1.00 18.10 LIG 0.28  HD
ATOM     17 H2   LYS I   1      12.420 -22.961  13.359  1.00 18.10 LIG 0.28  HD
ENDBRANCH 5 14
ENDBRANCH 1 5
BRANCH 3 18
ATOM     18  CA  GLY I   2      16.401 -23.861  10.926  1.00 20.06 LIG 0.23  C 
BRANCH 18 19
ATOM     19  C   GLY I   2      17.149 -23.789   9.613  1.00 20.91 LIG 0.23  C 
ATOM     20 O    GLY I   2      16.548 -23.821   8.543  1.00 20.34 LIG-0.27  OA
ATOM     21  N   GLU I   3      18.473 -23.708   9.694  1.00 23.55 LIG-0.35  N 
ATOM     22 H    GLU I   3      18.913 -23.789  10.428  1.00 23.55 LIG 0.16  HD
BRANCH 21 23
ATOM     23  CA  GLU I   3      19.306 -23.470   8.518  1.00 24.92 LIG 0.16  C 
BRANCH 23 24
ATOM     24  C   GLU I   3      20.434 -24.491   8.445  1.00 25.70 LIG 0.22  C 
ATOM     25 O    GLU I   3      20.907 -24.944   9.485  1.00 27.47 LIG-0.29  OA
ENDBRANCH 23 24
BRANCH 23 26
ATOM     26  CB  GLU I   3      19.831 -22.036   8.575  1.00 26.58 LIG 0.04  C 
BRANCH 26 27
ATOM     27  CG  GLU I   3      19.677 -21.151   7.334  1.00 29.64 LIG 0.12  C 
BRANCH 27 28
ATOM     28  CD  GLU I   3      20.972 -20.809   6.622  1.00 32.56 LIG 0.17  C 
ATOM     29 OE2  GLU I   3      21.940 -20.443   7.327  1.00 37.52 LIG-0.65  OA
ATOM     30 OE1  GLU I   3      21.015 -20.850   5.371  1.00 34.95 LIG-0.65  OA
ENDBRANCH 27 28
ENDBRANCH 26 27
ENDBRANCH 23 26
ENDBRANCH 21 23
ENDBRANCH 18 19
ENDBRANCH 3 18
TORSDOF 14
ENDMDL
MODEL 17
USER: ADFR SOLUTION from run 49
USER: SCORE 15.909454 LL:  -1.438 LR: -14.828 RR:   0.000 FEB: -10.651
USER: RMSD 3.070635
USER: SEED 48
USER: STATUS no improvement in best in 5 clusters for 5 generations
USER: GENES 16
USER: genes 0 Translation |==|  0.35487 0.35623 0.53262
USER: genes 1 Rotation |==|  0.55023 0.44531 0.48000 0.99405
USER: genes 2 Torsion [N]-C--CA-[N] |==|  0.48284
USER: genes 3 Torsion [C]-CA--CB-[CG] |==|  0.44473
USER: genes 4 Torsion [CA]-CB--CG-[CD] |==|  0.89607
USER: genes 5 Torsion [CB]-CG--CD-[CE] |==|  0.60243
USER: genes 6 Torsion [CG]-CD--CE-[NZ] |==|  0.58377
USER: genes 7 Torsion [CD]-CE--NZ-[HZ2] |==|  0.72350
USER: genes 8 Torsion [C]-CA--N-[H2] |==|  0.00417
USER: genes 9 Torsion [C]-N--CA-[C] |==|  0.70021
USER: genes 10 Torsion [N]-CA--C-[N] |==|  0.43088
USER: genes 11 Torsion [C]-N--CA-[C] |==|  0.51374
USER: genes 12 Torsion [N]-CA--C-[O] |==|  0.96830
USER: genes 13 Torsion [N]-CA--CB-[CG] |==|  0.24580
USER: genes 14 Torsion [CA]-CB--CG-[CD] |==|  0.84515
USER: genes 15 Torsion [CB]-CG--CD-[OE2] |==|  0.39468
ROOT
ATOM      1  C   LYS I   1      13.955 -23.941  11.517  1.00 18.69 LIG 0.25  C 
ATOM      2 O    LYS I   1      14.553 -23.931  12.572  1.00 17.50 LIG-0.27  OA
ATOM      3  N   GLY I   2      14.396 -24.562  10.424  1.00 19.29 LIG-0.35  N 
ATOM      4 H    GLY I   2      13.973 -24.559   9.675  1.00 19.29 LIG 0.16  HD
ENDROOT
BRANCH 1 5
ATOM      5  CA  LYS I   1      12.623 -23.217  11.394  1.00 19.30 LIG 0.27  C 
BRANCH 5 6
ATOM      6  CB  LYS I   1      12.739 -22.081  10.360  1.00 20.67 LIG 0.04  C 
BRANCH 6 7
ATOM      7  CG  LYS I   1      11.441 -21.569   9.773  1.00 22.16 LIG 0.00  C 
BRANCH 7 8
ATOM      8  CD  LYS I   1      10.489 -22.750   9.575  1.00 24.26 LIG 0.03  C 
BRANCH 8 9
ATOM      9  CE  LYS I   1       9.622 -22.694   8.340  1.00 26.09 LIG 0.23  C 
BRANCH 9 10
ATOM     10  NZ  LYS I   1       8.293 -23.361   8.452  1.00 28.14 LIG-0.08  N 
ATOM     11 HZ2  LYS I   1       8.332 -24.167   8.077  1.00 28.14 LIG 0.27  HD
ATOM     12 HZ1  LYS I   1       7.679 -22.870   8.036  1.00 28.14 LIG 0.27  HD
ATOM     13 HZ3  LYS I   1       8.074 -23.444   9.310  1.00 28.14 LIG 0.27  HD
ENDBRANCH 9 10
ENDBRANCH 8 9
ENDBRANCH 7 8
ENDBRANCH 6 7
ENDBRANCH 5 6
BRANCH 5 14
ATOM     14  N   LYS I   1      12.176 -22.694  12.722  1.00 18.10 LIG-0.07  N 
ATOM     15 H3   LYS I   1      12.072 -21.811  12.674  1.00 18.10 LIG 0.28  HD
ATOM     16 H1   LYS I   1      11.401 -23.072  12.944  1.00 18.10 LIG 0.28  HD
ATOM     17 H2   LYS I   1      12.788 -22.887  13.339  1.00 18.10 LIG 0.28  HD
ENDBRANCH 5 14
ENDBRANCH 1 5
BRANCH 3 18
ATOM     18  CA  GLY I   2      15.654 -25.318  10.390  1.00 20.06 LIG 0.23  C 
BRANCH 18 19
ATOM     19  C   GLY I   2      16.736 -24.615   9.602  1.00 20.91 LIG 0.23  C 
ATOM     20 O    GLY I   2      16.452 -23.821   8.710  1.00 20.34 LIG-0.27  OA
ATOM     21  N   GLU I   3      17.990 -24.920   9.921  1.00 23.55 LIG-0.35  N 
ATOM     22 H    GLU I   3      18.204 -25.548  10.468  1.00 23.55 LIG 0.16  HD
BRANCH 21 23
ATOM     23  CA  GLU I   3      19.129 -24.201   9.358  1.00 24.92 LIG 0.16  C 
BRANCH 23 24
ATOM     24  C   GLU I   3      20.439 -24.841   9.802  1.00 25.70 LIG 0.22  C 
ATOM     25 O    GLU I   3      20.426 -25.684  10.695  1.00 27.47 LIG-0.29  OA
ENDBRANCH 23 24
BRANCH 23 26
ATOM     26  CB  GLU I   3      19.035 -22.734   9.773  1.00 26.58 LIG 0.04  C 
BRANCH 26 27
ATOM     27  CG  GLU I   3      19.676 -22.306  11.097  1.00 29.64 LIG 0.12  C 
BRANCH 27 28
ATOM     28  CD  GLU I   3      19.201 -23.069  12.319  1.00 32.56 LIG 0.17  C 
ATOM     29 OE2  GLU I   3      20.051 -23.340  13.198  1.00 37.52 LIG-0.65  OA
ATOM     30 OE1  GLU I   3      18.007 -23.444  12.384  1.00 34.95 LIG-0.65  OA
ENDBRANCH 27 28
ENDBRANCH 26 27
ENDBRANCH 23 26
ENDBRANCH 21 23
ENDBRANCH 18 19
ENDBRANCH 3 18
TORSDOF 14
ENDMDL
MODEL 18
USER: ADFR SOLUTION from run 64
USER: SCORE 15.859166 LL:  -1.205 LR: -14.770 RR:   0.000 FEB: -10.594
USER: RMSD 4.629825
USER: SEED 63
USER: STATUS no improvement in best in 3 clusters for 5 generations
USER: GENES 16
USER: genes 0 Translation |==|  0.36869 0.38621 0.57310
USER: genes 1 Rotation |==|  0.75470 0.38683 0.52580 0.91431
USER: genes 2 Torsion [N]-C--CA-[N] |==|  0.56759
USER: genes 3 Torsion [C]-CA--CB-[CG] |==|  0.80643
USER: genes 4 Torsion [CA]-CB--CG-[CD] |==|  0.50215
USER: genes 5 Torsion [CB]-CG--CD-[CE] |==|  0.53279
USER: genes 6 Torsion [CG]-CD--CE-[NZ] |==|  0.72885
USER: genes 7 Torsion [CD]-CE--NZ-[HZ2] |==|  0.82712
USER: genes 8 Torsion [C]-CA--N-[H2] |==|  0.62319
USER: genes 9 Torsion [C]-N--CA-[C] |==|  0.28082
USER: genes 10 Torsion [N]-CA--C-[N] |==|  0.93671
USER: genes 11 Torsion [C]-N--CA-[C] |==|  0.53716
USER: genes 12 Torsion [N]-CA--C-[O] |==|  0.32973
USER: genes 13 Torsion [N]-CA--CB-[CG] |==|  0.17371
USER: genes 14 Torsion [CA]-CB--CG-[CD] |==|  0.55435
USER: genes 15 Torsion [CB]-CG--CD-[OE2] |==|  0.48356
ROOT
ATOM      1  C   LYS I   1      14.214 -23.447  12.064  1.00 18.69 LIG 0.25  C 
ATOM      2 O    LYS I   1      14.563 -24.194  12.952  1.00 17.50 LIG-0.27  OA
ATOM      3  N   GLY I   2      15.037 -22.979  11.126  1.00 19.29 LIG-0.35  N 
ATOM      4 H    GLY I   2      14.786 -22.441  10.503  1.00 19.29 LIG 0.16  HD
ENDROOT
BRANCH 1 5
ATOM      5  CA  LYS I   1      12.765 -22.993  11.981  1.00 19.30 LIG 0.27  C 
BRANCH 5 6
ATOM      6  CB  LYS I   1      12.694 -21.566  11.408  1.00 20.67 LIG 0.04  C 
BRANCH 6 7
ATOM      7  CG  LYS I   1      13.215 -20.456  12.296  1.00 22.16 LIG 0.00  C 
BRANCH 7 8
ATOM      8  CD  LYS I   1      13.045 -19.121  11.568  1.00 24.26 LIG 0.03  C 
BRANCH 8 9
ATOM      9  CE  LYS I   1      13.759 -17.942  12.184  1.00 26.09 LIG 0.23  C 
BRANCH 9 10
ATOM     10  NZ  LYS I   1      12.926 -17.066  13.058  1.00 28.14 LIG-0.08  N 
ATOM     11 HZ2  LYS I   1      12.271 -16.703  12.577  1.00 28.14 LIG 0.27  HD
ATOM     12 HZ1  LYS I   1      13.434 -16.421  13.402  1.00 28.14 LIG 0.27  HD
ATOM     13 HZ3  LYS I   1      12.576 -17.551  13.717  1.00 28.14 LIG 0.27  HD
ENDBRANCH 9 10
ENDBRANCH 8 9
ENDBRANCH 7 8
ENDBRANCH 6 7
ENDBRANCH 5 6
BRANCH 5 14
ATOM     14  N   LYS I   1      12.106 -23.069  13.322  1.00 18.10 LIG-0.07  N 
ATOM     15 H3   LYS I   1      12.599 -23.570  13.867  1.00 18.10 LIG 0.28  HD
ATOM     16 H1   LYS I   1      12.028 -22.250  13.661  1.00 18.10 LIG 0.28  HD
ATOM     17 H2   LYS I   1      11.298 -23.432  13.236  1.00 18.10 LIG 0.28  HD
ENDBRANCH 5 14
ENDBRANCH 1 5
BRANCH 3 18
ATOM     18  CA  GLY I   2      16.458 -23.339  11.061  1.00 20.06 LIG 0.23  C 
BRANCH 18 19
ATOM     19  C   GLY I   2      16.747 -24.395  10.018  1.00 20.91 LIG 0.23  C 
ATOM     20 O    GLY I   2      17.866 -24.507   9.527  1.00 20.34 LIG-0.27  OA
ATOM     21  N   GLU I   3      15.724 -25.165   9.662  1.00 23.55 LIG-0.35  N 
ATOM     22 H    GLU I   3      14.914 -25.032   9.918  1.00 23.55 LIG 0.16  HD
BRANCH 21 23
ATOM     23  CA  GLU I   3      15.895 -26.325   8.791  1.00 24.92 LIG 0.16  C 
BRANCH 23 24
ATOM     24  C   GLU I   3      14.545 -26.819   8.286  1.00 25.70 LIG 0.22  C 
ATOM     25 O    GLU I   3      14.315 -26.819   7.079  1.00 27.47 LIG-0.29  OA
ENDBRANCH 23 24
BRANCH 23 26
ATOM     26  CB  GLU I   3      16.653 -27.405   9.559  1.00 26.58 LIG 0.04  C 
BRANCH 26 27
ATOM     27  CG  GLU I   3      16.008 -27.999  10.816  1.00 29.64 LIG 0.12  C 
BRANCH 27 28
ATOM     28  CD  GLU I   3      16.967 -28.694  11.764  1.00 32.56 LIG 0.17  C 
ATOM     29 OE2  GLU I   3      16.509 -29.095  12.859  1.00 37.52 LIG-0.65  OA
ATOM     30 OE1  GLU I   3      18.176 -28.795  11.452  1.00 34.95 LIG-0.65  OA
ENDBRANCH 27 28
ENDBRANCH 26 27
ENDBRANCH 23 26
ENDBRANCH 21 23
ENDBRANCH 18 19
ENDBRANCH 3 18
TORSDOF 14
ENDMDL
MODEL 19
USER: ADFR SOLUTION from run 80
USER: SCORE 15.383695 LL:  -0.967 LR: -14.688 RR:   0.000 FEB: -10.511
USER: RMSD 3.355488
USER: SEED 79
USER: STATUS no improvement in best in 4 clusters for 5 generations
USER: GENES 16
USER: genes 0 Translation |==|  0.36098 0.39635 0.55250
USER: genes 1 Rotation |==|  0.67686 0.32340 0.57439 0.92661
USER: genes 2 Torsion [N]-C--CA-[N] |==|  0.50560
USER: genes 3 Torsion [C]-CA--CB-[CG] |==|  0.75076
USER: genes 4 Torsion [CA]-CB--CG-[CD] |==|  0.30423
USER: genes 5 Torsion [CB]-CG--CD-[CE] |==|  0.38293
USER: genes 6 Torsion [CG]-CD--CE-[NZ] |==|  0.36657
USER: genes 7 Torsion [CD]-CE--NZ-[HZ2] |==|  0.86986
USER: genes 8 Torsion [C]-CA--N-[H2] |==|  0.79709
USER: genes 9 Torsion [C]-N--CA-[C] |==|  0.43424
USER: genes 10 Torsion [N]-CA--C-[N] |==|  0.51663
USER: genes 11 Torsion [C]-N--CA-[C] |==|  0.10238
USER: genes 12 Torsion [N]-CA--C-[O] |==|  0.29676
USER: genes 13 Torsion [N]-CA--CB-[CG] |==|  0.00623
USER: genes 14 Torsion [CA]-CB--CG-[CD] |==|  0.66977
USER: genes 15 Torsion [CB]-CG--CD-[OE2] |==|  0.92640
ROOT
ATOM      1  C   LYS I   1      14.069 -23.279  11.786  1.00 18.69 LIG 0.25  C 
ATOM      2 O    LYS I   1      14.068 -23.708  12.919  1.00 17.50 LIG-0.27  OA
ATOM      3  N   GLY I   2      15.174 -23.121  11.057  1.00 19.29 LIG-0.35  N 
ATOM      4 H    GLY I   2      15.171 -22.807  10.256  1.00 19.29 LIG 0.16  HD
ENDROOT
BRANCH 1 5
ATOM      5  CA  LYS I   1      12.758 -22.888  11.122  1.00 19.30 LIG 0.27  C 
BRANCH 5 6
ATOM      6  CB  LYS I   1      12.840 -21.435  10.619  1.00 20.67 LIG 0.04  C 
BRANCH 6 7
ATOM      7  CG  LYS I   1      12.409 -20.358  11.592  1.00 22.16 LIG 0.00  C 
BRANCH 7 8
ATOM      8  CD  LYS I   1      13.646 -19.579  12.044  1.00 24.26 LIG 0.03  C 
BRANCH 8 9
ATOM      9  CE  LYS I   1      13.481 -18.080  12.127  1.00 26.09 LIG 0.23  C 
BRANCH 9 10
ATOM     10  NZ  LYS I   1      13.971 -17.445  13.385  1.00 28.14 LIG-0.08  N 
ATOM     11 HZ2  LYS I   1      13.676 -17.907  14.086  1.00 28.14 LIG 0.27  HD
ATOM     12 HZ1  LYS I   1      13.669 -16.609  13.432  1.00 28.14 LIG 0.27  HD
ATOM     13 HZ3  LYS I   1      14.861 -17.439  13.387  1.00 28.14 LIG 0.27  HD
ENDBRANCH 9 10
ENDBRANCH 8 9
ENDBRANCH 7 8
ENDBRANCH 6 7
ENDBRANCH 5 6
BRANCH 5 14
ATOM     14  N   LYS I   1      11.610 -23.069  12.063  1.00 18.10 LIG-0.07  N 
ATOM     15 H3   LYS I   1      11.815 -22.714  12.853  1.00 18.10 LIG 0.28  HD
ATOM     16 H1   LYS I   1      10.889 -22.664  11.734  1.00 18.10 LIG 0.28  HD
ATOM     17 H2   LYS I   1      11.442 -23.937  12.164  1.00 18.10 LIG 0.28  HD
ENDBRANCH 5 14
ENDBRANCH 1 5
BRANCH 3 18
ATOM     18  CA  GLY I   2      16.511 -23.469  11.552  1.00 20.06 LIG 0.23  C 
BRANCH 18 19
ATOM     19  C   GLY I   2      17.492 -23.750  10.435  1.00 20.91 LIG 0.23  C 
ATOM     20 O    GLY I   2      17.173 -23.587   9.260  1.00 20.34 LIG-0.27  OA
ATOM     21  N   GLU I   3      18.690 -24.192  10.801  1.00 23.55 LIG-0.35  N 
ATOM     22 H    GLU I   3      18.893 -24.410  11.608  1.00 23.55 LIG 0.16  HD
BRANCH 21 23
ATOM     23  CA  GLU I   3      19.783 -24.348   9.845  1.00 24.92 LIG 0.16  C 
BRANCH 23 24
ATOM     24  C   GLU I   3      19.754 -23.229   8.811  1.00 25.70 LIG 0.22  C 
ATOM     25 O    GLU I   3      20.597 -22.337   8.862  1.00 27.47 LIG-0.29  OA
ENDBRANCH 23 24
BRANCH 23 26
ATOM     26  CB  GLU I   3      19.677 -25.729   9.202  1.00 26.58 LIG 0.04  C 
BRANCH 26 27
ATOM     27  CG  GLU I   3      18.501 -26.630   9.594  1.00 29.64 LIG 0.12  C 
BRANCH 27 28
ATOM     28  CD  GLU I   3      18.887 -27.946  10.242  1.00 32.56 LIG 0.17  C 
ATOM     29 OE2  GLU I   3      20.012 -28.422   9.961  1.00 37.52 LIG-0.65  OA
ATOM     30 OE1  GLU I   3      18.063 -28.533  10.982  1.00 34.95 LIG-0.65  OA
ENDBRANCH 27 28
ENDBRANCH 26 27
ENDBRANCH 23 26
ENDBRANCH 21 23
ENDBRANCH 18 19
ENDBRANCH 3 18
TORSDOF 14
ENDMDL
