MODEL 1
USER: ADFR SOLUTION from run 50
USER: SCORE 12.717840 LL:  -2.913 LR:  -9.818 RR:   0.000 FEB:  -7.432
USER: RMSD 3.654516
USER: SEED 49
USER: STATUS no improvement in best in 33 clusters for 5 generations
USER: GENES 10
USER: genes 0 Translation |==|  0.53414 0.42948 0.46721
USER: genes 1 Rotation |==|  0.48115 0.56345 0.62018 0.98081
USER: genes 2 Torsion [C]-N--CA-[C] |==|  0.80974
USER: genes 3 Torsion [N]-CA--C-[N] |==|  0.96592
USER: genes 4 Torsion [N]-CA--C-[N] |==|  0.83232
USER: genes 5 Torsion [N]-CA--C-[O] |==|  0.94387
USER: genes 6 Torsion [N]-CA--CB-[CG2] |==|  0.28302
USER: genes 7 Torsion [O]-C--CA-[N] |==|  0.88093
USER: genes 8 Torsion [N]-C--CA-[N] |==|  0.57522
USER: genes 9 Torsion [N]-C--CA-[CB] |==|  0.85742
ROOT
ATOM      1  C   PRO C  76      16.635   8.225   5.075  0.47 42.64 LIG 0.24  C 
ATOM      2 O    PRO C  76      17.267   7.389   4.520  0.47 44.95 LIG-0.27  OA
ATOM      3  N   VAL C  77      17.182   9.251   5.678  0.47 42.25 LIG-0.35  N 
ATOM      4 H    VAL C  77      16.756   9.895   6.055  0.47 42.25 LIG 0.16  HD
ENDROOT
BRANCH 3 5
ATOM      5  CA  VAL C  77      18.611   9.329   5.729  0.47 44.36 LIG 0.17  C 
BRANCH 5 6
ATOM      6  C   VAL C  77      19.040   8.209   6.640  0.47 50.22 LIG 0.22  C 
ATOM      7 O    VAL C  77      20.208   7.952   6.748  0.47 51.68 LIG-0.28  OA
ATOM      8 N    PRO C  78      18.161   7.575   7.373  0.47 51.29 LIG-0.24  NA
ATOM      9  CD  PRO C  78      17.388   8.505   8.212  0.47 47.28 LIG 0.10  C 
ATOM     10  CA  PRO C  78      18.666   6.464   8.159  0.47 47.56 LIG 0.16  C 
ATOM     11  CG  PRO C  78      17.684   8.054   9.570  0.47 42.43 LIG 0.02  C 
ATOM     12  CB  PRO C  78      17.947   6.627   9.489  0.47 42.06 LIG 0.03  C 
BRANCH 10 13
ATOM     13  C   PRO C  78      18.385   5.202   7.386  0.47 54.03 LIG 0.24  C 
ATOM     14  N   PRO C  79      17.137   4.858   7.079  0.47 54.03 LIG-0.34  N 
ATOM     15  CD  PRO C  79      16.110   5.320   8.018  0.47 49.78 LIG 0.13  C 
ATOM     16  CA  PRO C  79      16.822   3.515   6.583  0.47 62.24 LIG 0.17  C 
ATOM     17  CG  PRO C  79      15.134   4.240   8.004  0.47 51.96 LIG 0.02  C 
ATOM     18  CB  PRO C  79      15.352   3.400   6.855  0.47 58.89 LIG 0.04  C 
ATOM     19 O    PRO C  78      19.340   4.514   7.134  0.47 60.82 LIG-0.27  OA
BRANCH 16 20
ATOM     20  C   PRO C  79      17.098   3.225   5.127  0.47 69.87 LIG 0.22  C 
ATOM     21 O    PRO C  79      17.197   4.171   4.387  0.47 73.23 LIG-0.29  OA
ENDBRANCH 16 20
ENDBRANCH 10 13
ENDBRANCH 5 6
BRANCH 5 22
ATOM     22  CB  VAL C  77      19.060  10.764   6.063  0.47 43.60 LIG 0.01  C 
ATOM     23  CG2 VAL C  77      19.446  10.781   7.542  0.47 46.41 LIG 0.01  C 
ATOM     24  CG1 VAL C  77      17.953  11.804   5.846  0.47 37.55 LIG 0.01  C 
ENDBRANCH 5 22
ENDBRANCH 3 5
BRANCH 1 25
ATOM     25  CA  PRO C  76      15.180   8.078   5.031  0.47 40.28 LIG 0.18  C 
ATOM     26  N   PRO C  76      14.828   7.693   3.682  0.47 33.79 LIG-0.34  N 
ATOM     27  CD  PRO C  76      14.115   6.415   3.673  0.47 35.40 LIG 0.13  C 
ATOM     28  C   PRO C  75      14.570   8.608   2.776  0.47 33.84 LIG 0.24  C 
ATOM     29  CG  PRO C  76      14.379   5.889   5.017  0.47 37.80 LIG 0.02  C 
ATOM     30  CB  PRO C  76      14.704   6.897   5.887  0.47 38.87 LIG 0.04  C 
ATOM     31 O    PRO C  75      14.644   9.764   3.005  0.47 33.93 LIG-0.27  OA
BRANCH 28 32
ATOM     32  CA  PRO C  75      14.086   8.147   1.423  0.47 46.85 LIG 0.18  C 
ATOM     33  CB  PRO C  75      14.817   6.874   0.979  0.47 48.68 LIG 0.04  C 
ATOM     34  CG  PRO C  75      15.310   7.139  -0.405  0.47 51.42 LIG 0.02  C 
ATOM     35  CD  PRO C  75      14.769   8.422  -0.863  0.47 56.17 LIG 0.13  C 
ATOM     36  N   PRO C  75      14.438   9.104   0.385  0.47 56.81 LIG-0.34  N 
ATOM     37  C   PRO C  74      13.751  10.220   0.148  0.47 61.55 LIG 0.26  C 
ATOM     38 O    PRO C  74      12.779  10.589   0.778  0.47 61.23 LIG-0.27  OA
BRANCH 37 39
ATOM     39  CA  PRO C  74      14.234  11.077  -1.001  0.47 57.58 LIG 0.35  C 
ATOM     40  N   PRO C  74      13.646  12.417  -0.951  0.47 57.74 LIG 0.32  N 
ATOM     41  CD  PRO C  74      14.690  13.437  -1.063  0.47 56.21 LIG 0.32  C 
ATOM     42  CG  PRO C  74      15.850  12.754  -0.445  0.47 52.80 LIG 0.04  C 
ATOM     43  CB  PRO C  74      15.731  11.353  -0.868  0.47 50.35 LIG 0.05  C 
ENDBRANCH 37 39
ENDBRANCH 28 32
ENDBRANCH 1 25
TORSDOF 8
ENDMDL
MODEL 2
USER: ADFR SOLUTION from run 194
USER: SCORE 12.800196 LL:  -3.586 LR:  -9.737 RR:   0.000 FEB:  -7.351
USER: RMSD 9.171633
USER: SEED 193
USER: STATUS no improvement in best in 22 clusters for 5 generations
USER: GENES 10
USER: genes 0 Translation |==|  0.48060 0.46551 0.49612
USER: genes 1 Rotation |==|  0.05681 0.38009 0.33222 0.60512
USER: genes 2 Torsion [C]-N--CA-[C] |==|  0.75763
USER: genes 3 Torsion [N]-CA--C-[N] |==|  0.54971
USER: genes 4 Torsion [N]-CA--C-[N] |==|  0.43190
USER: genes 5 Torsion [N]-CA--C-[O] |==|  0.11484
USER: genes 6 Torsion [N]-CA--CB-[CG2] |==|  0.94973
USER: genes 7 Torsion [O]-C--CA-[N] |==|  0.69217
USER: genes 8 Torsion [N]-C--CA-[N] |==|  0.89934
USER: genes 9 Torsion [N]-C--CA-[CB] |==|  0.72159
ROOT
ATOM      1  C   PRO C  76      15.752   8.820   5.791  0.47 42.64 LIG 0.24  C 
ATOM      2 O    PRO C  76      15.122   9.457   6.568  0.47 44.95 LIG-0.27  OA
ATOM      3  N   VAL C  77      17.039   8.979   5.615  0.47 42.25 LIG-0.35  N 
ATOM      4 H    VAL C  77      17.535   8.510   5.092  0.47 42.25 LIG 0.16  HD
ENDROOT
BRANCH 3 5
ATOM      5  CA  VAL C  77      17.703  10.018   6.344  0.47 44.36 LIG 0.17  C 
BRANCH 5 6
ATOM      6  C   VAL C  77      17.564  11.254   5.494  0.47 50.22 LIG 0.22  C 
ATOM      7 O    VAL C  77      16.681  11.315   4.683  0.47 51.68 LIG-0.28  OA
ATOM      8 N    PRO C  78      18.343  12.287   5.691  0.47 51.29 LIG-0.24  NA
ATOM      9  CD  PRO C  78      18.283  12.748   7.087  0.47 47.28 LIG 0.10  C 
ATOM     10  CA  PRO C  78      18.178  13.397   4.770  0.47 47.56 LIG 0.16  C 
ATOM     11  CG  PRO C  78      17.803  14.123   6.965  0.47 42.43 LIG 0.02  C 
ATOM     12  CB  PRO C  78      18.266  14.614   5.678  0.47 42.06 LIG 0.03  C 
BRANCH 10 13
ATOM     13  C   PRO C  78      19.242  13.263   3.711  0.47 54.03 LIG 0.24  C 
ATOM     14  N   PRO C  79      19.073  13.802   2.507  0.47 54.03 LIG-0.34  N 
ATOM     15  CD  PRO C  79      17.681  13.913   2.059  0.47 49.78 LIG 0.13  C 
ATOM     16  CA  PRO C  79      19.953  13.450   1.389  0.47 62.24 LIG 0.17  C 
ATOM     17  CG  PRO C  79      17.773  13.691   0.623  0.47 51.96 LIG 0.02  C 
ATOM     18  CB  PRO C  79      19.139  13.844   0.193  0.47 58.89 LIG 0.04  C 
ATOM     19 O    PRO C  78      20.197  12.592   4.006  0.47 60.82 LIG-0.27  OA
BRANCH 16 20
ATOM     20  C   PRO C  79      21.307  14.115   1.329  0.47 69.87 LIG 0.22  C 
ATOM     21 O    PRO C  79      21.908  14.233   2.367  0.47 73.23 LIG-0.29  OA
ENDBRANCH 16 20
ENDBRANCH 10 13
ENDBRANCH 5 6
BRANCH 5 22
ATOM     22  CB  VAL C  77      19.114   9.565   6.761  0.47 43.60 LIG 0.01  C 
ATOM     23  CG2 VAL C  77      19.146   8.040   6.656  0.47 46.41 LIG 0.01  C 
ATOM     24  CG1 VAL C  77      19.467   9.952   8.202  0.47 37.55 LIG 0.01  C 
ENDBRANCH 5 22
ENDBRANCH 3 5
BRANCH 1 25
ATOM     25  CA  PRO C  76      15.020   7.800   5.041  0.47 40.28 LIG 0.18  C 
ATOM     26  N   PRO C  76      15.479   6.510   5.507  0.47 33.79 LIG-0.34  N 
ATOM     27  CD  PRO C  76      14.367   5.719   6.035  0.47 35.40 LIG 0.13  C 
ATOM     28  C   PRO C  75      16.503   5.922   4.933  0.47 33.84 LIG 0.24  C 
ATOM     29  CG  PRO C  76      13.307   6.719   6.195  0.47 37.80 LIG 0.02  C 
ATOM     30  CB  PRO C  76      13.525   7.805   5.386  0.47 38.87 LIG 0.04  C 
ATOM     31 O    PRO C  75      17.107   6.422   4.050  0.47 33.93 LIG-0.27  OA
BRANCH 28 32
ATOM     32  CA  PRO C  75      16.859   4.524   5.379  0.47 46.85 LIG 0.18  C 
ATOM     33  CB  PRO C  75      15.910   3.489   4.763  0.47 48.68 LIG 0.04  C 
ATOM     34  CG  PRO C  75      15.425   2.644   5.894  0.47 51.42 LIG 0.02  C 
ATOM     35  CD  PRO C  75      16.160   3.011   7.108  0.47 56.17 LIG 0.13  C 
ATOM     36  N   PRO C  75      16.641   4.356   6.808  0.47 56.81 LIG-0.34  N 
ATOM     37  C   PRO C  74      17.499   4.772   7.738  0.47 61.55 LIG 0.26  C 
ATOM     38 O    PRO C  74      18.539   5.362   7.515  0.47 61.23 LIG-0.27  OA
BRANCH 37 39
ATOM     39  CA  PRO C  74      17.132   4.474   9.174  0.47 57.58 LIG 0.35  C 
ATOM     40  N   PRO C  74      18.322   4.208   9.985  0.47 57.74 LIG 0.32  N 
ATOM     41  CD  PRO C  74      18.305   5.026  11.199  0.47 56.21 LIG 0.32  C 
ATOM     42  CG  PRO C  74      17.565   6.226  10.748  0.47 52.80 LIG 0.04  C 
ATOM     43  CB  PRO C  74      16.532   5.712   9.839  0.47 50.35 LIG 0.05  C 
ENDBRANCH 37 39
ENDBRANCH 28 32
ENDBRANCH 1 25
TORSDOF 8
ENDMDL
MODEL 3
USER: ADFR SOLUTION from run 192
USER: SCORE 12.684498 LL:  -3.653 LR:  -9.148 RR:   0.000 FEB:  -6.762
USER: RMSD 8.048500
USER: SEED 191
USER: STATUS no improvement in best in 24 clusters for 5 generations
USER: GENES 10
USER: genes 0 Translation |==|  0.64090 0.58434 0.47112
USER: genes 1 Rotation |==|  0.75720 0.25099 0.33427 0.80721
USER: genes 2 Torsion [C]-N--CA-[C] |==|  0.72654
USER: genes 3 Torsion [N]-CA--C-[N] |==|  0.96076
USER: genes 4 Torsion [N]-CA--C-[N] |==|  0.37892
USER: genes 5 Torsion [N]-CA--C-[O] |==|  0.50513
USER: genes 6 Torsion [N]-CA--CB-[CG2] |==|  0.84676
USER: genes 7 Torsion [O]-C--CA-[N] |==|  0.14883
USER: genes 8 Torsion [N]-C--CA-[N] |==|  0.54078
USER: genes 9 Torsion [N]-C--CA-[CB] |==|  0.58764
ROOT
ATOM      1  C   PRO C  76      18.397  10.781   5.172  0.47 42.64 LIG 0.24  C 
ATOM      2 O    PRO C  76      19.073  10.393   4.278  0.47 44.95 LIG-0.27  OA
ATOM      3  N   VAL C  77      17.747   9.977   5.975  0.47 42.25 LIG-0.35  N 
ATOM      4 H    VAL C  77      17.282  10.219   6.656  0.47 42.25 LIG 0.16  HD
ENDROOT
BRANCH 3 5
ATOM      5  CA  VAL C  77      17.799   8.569   5.718  0.47 44.36 LIG 0.17  C 
BRANCH 5 6
ATOM      6  C   VAL C  77      16.524   8.250   4.982  0.47 50.22 LIG 0.22  C 
ATOM      7 O    VAL C  77      16.386   7.165   4.486  0.47 51.68 LIG-0.28  OA
ATOM      8 N    PRO C  78      15.540   9.112   4.953  0.47 51.29 LIG-0.24  NA
ATOM      9  CD  PRO C  78      15.134   9.511   6.310  0.47 47.28 LIG 0.10  C 
ATOM     10  CA  PRO C  78      14.386   8.738   4.155  0.47 47.56 LIG 0.16  C 
ATOM     11  CG  PRO C  78      13.733   9.099   6.375  0.47 42.43 LIG 0.02  C 
ATOM     12  CB  PRO C  78      13.213   9.173   5.019  0.47 42.06 LIG 0.03  C 
BRANCH 10 13
ATOM     13  C   PRO C  78      14.529   9.415   2.816  0.47 54.03 LIG 0.24  C 
ATOM     14  N   PRO C  79      14.273   8.754   1.691  0.47 54.03 LIG-0.34  N 
ATOM     15  CD  PRO C  79      14.504   7.307   1.746  0.47 49.78 LIG 0.13  C 
ATOM     16  CA  PRO C  79      14.671   9.294   0.388  0.47 62.24 LIG 0.17  C 
ATOM     17  CG  PRO C  79      14.980   6.992   0.407  0.47 51.96 LIG 0.02  C 
ATOM     18  CB  PRO C  79      14.669   8.077  -0.488  0.47 58.89 LIG 0.04  C 
ATOM     19 O    PRO C  78      14.947  10.544   2.838  0.47 60.82 LIG-0.27  OA
BRANCH 16 20
ATOM     20  C   PRO C  79      13.797  10.365  -0.222  0.47 69.87 LIG 0.22  C 
ATOM     21 O    PRO C  79      14.113  10.779  -1.309  0.47 73.23 LIG-0.29  OA
ENDBRANCH 16 20
ENDBRANCH 10 13
ENDBRANCH 5 6
BRANCH 5 22
ATOM     22  CB  VAL C  77      18.115   7.798   7.013  0.47 43.60 LIG 0.01  C 
ATOM     23  CG2 VAL C  77      19.412   8.379   7.577  0.47 46.41 LIG 0.01  C 
ATOM     24  CG1 VAL C  77      18.326   6.296   6.781  0.47 37.55 LIG 0.01  C 
ENDBRANCH 5 22
ENDBRANCH 3 5
BRANCH 1 25
ATOM     25  CA  PRO C  76      18.343  12.229   5.367  0.47 40.28 LIG 0.18  C 
ATOM     26  N   PRO C  76      17.961  12.820   4.103  0.47 33.79 LIG-0.34  N 
ATOM     27  CD  PRO C  76      16.731  13.601   4.241  0.47 35.40 LIG 0.13  C 
ATOM     28  C   PRO C  75      18.877  13.165   3.228  0.47 33.84 LIG 0.24  C 
ATOM     29  CG  PRO C  76      16.210  13.155   5.537  0.47 37.80 LIG 0.02  C 
ATOM     30  CB  PRO C  76      17.208  12.632   6.318  0.47 38.87 LIG 0.04  C 
ATOM     31 O    PRO C  75      20.029  12.984   3.412  0.47 33.93 LIG-0.27  OA
BRANCH 28 32
ATOM     32  CA  PRO C  75      18.428  13.890   1.982  0.47 46.85 LIG 0.18  C 
ATOM     33  CB  PRO C  75      17.286  13.139   1.287  0.47 48.68 LIG 0.04  C 
ATOM     34  CG  PRO C  75      17.685  13.010  -0.146  0.47 51.42 LIG 0.02  C 
ATOM     35  CD  PRO C  75      18.908  13.786  -0.368  0.47 56.17 LIG 0.13  C 
ATOM     36  N   PRO C  75      19.475  13.898   0.972  0.47 56.81 LIG-0.34  N 
ATOM     37  C   PRO C  74      20.503  14.745   0.983  0.47 61.55 LIG 0.26  C 
ATOM     38 O    PRO C  74      20.709  15.583   1.840  0.47 61.23 LIG-0.27  OA
BRANCH 37 39
ATOM     39  CA  PRO C  74      21.474  14.640  -0.172  0.47 57.58 LIG 0.35  C 
ATOM     40  N   PRO C  74      21.185  15.638  -1.204  0.47 57.74 LIG 0.32  N 
ATOM     41  CD  PRO C  74      22.399  16.378  -1.554  0.47 56.21 LIG 0.32  C 
ATOM     42  CG  PRO C  74      23.154  16.344  -0.280  0.47 52.80 LIG 0.04  C 
ATOM     43  CB  PRO C  74      22.884  15.014   0.282  0.47 50.35 LIG 0.05  C 
ENDBRANCH 37 39
ENDBRANCH 28 32
ENDBRANCH 1 25
TORSDOF 8
ENDMDL
MODEL 4
USER: ADFR SOLUTION from run 66
USER: SCORE 12.117510 LL:  -3.588 LR:  -9.035 RR:   0.000 FEB:  -6.648
USER: RMSD 7.132862
USER: SEED 65
USER: STATUS no improvement in best in 22 clusters for 5 generations
USER: GENES 10
USER: genes 0 Translation |==|  0.40956 0.45063 0.32547
USER: genes 1 Rotation |==|  0.73476 0.30323 0.89194 0.55051
USER: genes 2 Torsion [C]-N--CA-[C] |==|  0.68773
USER: genes 3 Torsion [N]-CA--C-[N] |==|  0.53145
USER: genes 4 Torsion [N]-CA--C-[N] |==|  0.88443
USER: genes 5 Torsion [N]-CA--C-[O] |==|  0.92698
USER: genes 6 Torsion [N]-CA--CB-[CG2] |==|  0.00464
USER: genes 7 Torsion [O]-C--CA-[N] |==|  0.64608
USER: genes 8 Torsion [N]-C--CA-[N] |==|  0.52056
USER: genes 9 Torsion [N]-C--CA-[CB] |==|  0.79447
ROOT
ATOM      1  C   PRO C  76      14.580   8.574   1.567  0.47 42.64 LIG 0.24  C 
ATOM      2 O    PRO C  76      14.627   9.559   2.228  0.47 44.95 LIG-0.27  OA
ATOM      3  N   VAL C  77      14.379   7.384   2.073  0.47 42.25 LIG-0.35  N 
ATOM      4 H    VAL C  77      14.299   6.656   1.623  0.47 42.25 LIG 0.16  HD
ENDROOT
BRANCH 3 5
ATOM      5  CA  VAL C  77      14.282   7.256   3.496  0.47 44.36 LIG 0.17  C 
BRANCH 5 6
ATOM      6  C   VAL C  77      15.506   6.482   3.913  0.47 50.22 LIG 0.22  C 
ATOM      7 O    VAL C  77      16.422   6.372   3.145  0.47 51.68 LIG-0.28  OA
ATOM      8 N    PRO C  78      15.609   6.005   5.127  0.47 51.29 LIG-0.24  NA
ATOM      9  CD  PRO C  78      15.435   7.061   6.137  0.47 47.28 LIG 0.10  C 
ATOM     10  CA  PRO C  78      16.792   5.212   5.403  0.47 47.56 LIG 0.16  C 
ATOM     11  CG  PRO C  78      16.704   7.041   6.863  0.47 42.43 LIG 0.02  C 
ATOM     12  CB  PRO C  78      17.205   5.679   6.791  0.47 42.06 LIG 0.03  C 
BRANCH 10 13
ATOM     13  C   PRO C  78      16.404   3.763   5.263  0.47 54.03 LIG 0.24  C 
ATOM     14  N   PRO C  79      15.244   3.321   5.740  0.47 54.03 LIG-0.34  N 
ATOM     15  CD  PRO C  79      14.724   4.052   6.901  0.47 49.78 LIG 0.13  C 
ATOM     16  CA  PRO C  79      14.973   1.887   5.866  0.47 62.24 LIG 0.17  C 
ATOM     17  CG  PRO C  79      14.068   3.015   7.683  0.47 51.96 LIG 0.02  C 
ATOM     18  CB  PRO C  79      13.856   1.848   6.866  0.47 58.89 LIG 0.04  C 
ATOM     19 O    PRO C  78      17.229   3.042   4.762  0.47 60.82 LIG-0.27  OA
BRANCH 16 20
ATOM     20  C   PRO C  79      14.569   1.139   4.618  0.47 69.87 LIG 0.22  C 
ATOM     21 O    PRO C  79      14.031   1.776   3.746  0.47 73.23 LIG-0.29  OA
ENDBRANCH 16 20
ENDBRANCH 10 13
ENDBRANCH 5 6
BRANCH 5 22
ATOM     22  CB  VAL C  77      12.897   6.714   3.894  0.47 43.60 LIG 0.01  C 
ATOM     23  CG2 VAL C  77      12.123   6.463   2.599  0.47 46.41 LIG 0.01  C 
ATOM     24  CG1 VAL C  77      12.089   7.699   4.749  0.47 37.55 LIG 0.01  C 
ENDBRANCH 5 22
ENDBRANCH 3 5
BRANCH 1 25
ATOM     25  CA  PRO C  76      14.727   8.753   0.123  0.47 40.28 LIG 0.18  C 
ATOM     26  N   PRO C  76      13.604   8.094  -0.508  0.47 33.79 LIG-0.34  N 
ATOM     27  CD  PRO C  76      12.832   9.037  -1.318  0.47 35.40 LIG 0.13  C 
ATOM     28  C   PRO C  75      13.684   6.829  -0.851  0.47 33.84 LIG 0.24  C 
ATOM     29  CG  PRO C  76      13.325  10.338  -0.855  0.47 37.80 LIG 0.02  C 
ATOM     30  CB  PRO C  76      14.567  10.223  -0.286  0.47 38.87 LIG 0.04  C 
ATOM     31 O    PRO C  75      14.642   6.173  -0.635  0.47 33.93 LIG-0.27  OA
BRANCH 28 32
ATOM     32  CA  PRO C  75      12.530   6.229  -1.618  0.47 46.85 LIG 0.18  C 
ATOM     33  CB  PRO C  75      11.221   6.348  -0.829  0.47 48.68 LIG 0.04  C 
ATOM     34  CG  PRO C  75      10.614   4.984  -0.822  0.47 51.42 LIG 0.02  C 
ATOM     35  CD  PRO C  75      11.400   4.112  -1.701  0.47 56.17 LIG 0.13  C 
ATOM     36  N   PRO C  75      12.690   4.791  -1.770  0.47 56.81 LIG-0.34  N 
ATOM     37  C   PRO C  74      13.473   4.229  -2.689  0.47 61.55 LIG 0.26  C 
ATOM     38 O    PRO C  74      14.165   4.838  -3.484  0.47 61.23 LIG-0.27  OA
BRANCH 37 39
ATOM     39  CA  PRO C  74      13.484   2.718  -2.732  0.47 57.58 LIG 0.35  C 
ATOM     40  N   PRO C  74      14.231   2.223  -3.891  0.47 57.74 LIG 0.32  N 
ATOM     41  CD  PRO C  74      15.214   1.221  -3.474  0.47 56.21 LIG 0.32  C 
ATOM     42  CG  PRO C  74      15.543   1.671  -2.102  0.47 52.80 LIG 0.04  C 
ATOM     43  CB  PRO C  74      14.272   2.157  -1.550  0.47 50.35 LIG 0.05  C 
ENDBRANCH 37 39
ENDBRANCH 28 32
ENDBRANCH 1 25
TORSDOF 8
ENDMDL
MODEL 5
USER: ADFR SOLUTION from run 79
USER: SCORE 12.451345 LL:  -3.575 LR:  -8.936 RR:   0.000 FEB:  -6.550
USER: RMSD 9.380418
USER: SEED 78
USER: STATUS no improvement in best in 33 clusters for 5 generations
USER: GENES 10
USER: genes 0 Translation |==|  0.52452 0.57984 0.59684
USER: genes 1 Rotation |==|  0.99558 0.54541 0.51579 0.54569
USER: genes 2 Torsion [C]-N--CA-[C] |==|  0.77283
USER: genes 3 Torsion [N]-CA--C-[N] |==|  0.37977
USER: genes 4 Torsion [N]-CA--C-[N] |==|  0.51587
USER: genes 5 Torsion [N]-CA--C-[O] |==|  0.13820
USER: genes 6 Torsion [N]-CA--CB-[CG2] |==|  0.10157
USER: genes 7 Torsion [O]-C--CA-[N] |==|  0.64807
USER: genes 8 Torsion [N]-C--CA-[N] |==|  0.54762
USER: genes 9 Torsion [N]-C--CA-[CB] |==|  0.79231
ROOT
ATOM      1  C   PRO C  76      16.477  10.706   8.284  0.47 42.64 LIG 0.24  C 
ATOM      2 O    PRO C  76      16.558  11.847   8.601  0.47 44.95 LIG-0.27  OA
ATOM      3  N   VAL C  77      17.412  10.084   7.612  0.47 42.25 LIG-0.35  N 
ATOM      4 H    VAL C  77      17.407   9.251   7.401  0.47 42.25 LIG 0.16  HD
ENDROOT
BRANCH 3 5
ATOM      5  CA  VAL C  77      18.554  10.834   7.181  0.47 44.36 LIG 0.17  C 
BRANCH 5 6
ATOM      6  C   VAL C  77      18.121  11.530   5.918  0.47 50.22 LIG 0.22  C 
ATOM      7 O    VAL C  77      17.419  10.949   5.136  0.47 51.68 LIG-0.28  OA
ATOM      8 N    PRO C  78      18.434  12.784   5.710  0.47 51.29 LIG-0.24  NA
ATOM      9  CD  PRO C  78      17.985  13.642   6.818  0.47 47.28 LIG 0.10  C 
ATOM     10  CA  PRO C  78      18.033  13.338   4.430  0.47 47.56 LIG 0.16  C 
ATOM     11  CG  PRO C  78      17.070  14.577   6.168  0.47 42.43 LIG 0.02  C 
ATOM     12  CB  PRO C  78      17.528  14.725   4.797  0.47 42.06 LIG 0.03  C 
BRANCH 10 13
ATOM     13  C   PRO C  78      19.231  13.272   3.518  0.47 54.03 LIG 0.24  C 
ATOM     14  N   PRO C  79      19.192  13.816   2.305  0.47 54.03 LIG-0.34  N 
ATOM     15  CD  PRO C  79      17.866  13.860   1.679  0.47 49.78 LIG 0.13  C 
ATOM     16  CA  PRO C  79      20.227  13.523   1.310  0.47 62.24 LIG 0.17  C 
ATOM     17  CG  PRO C  79      18.156  13.660   0.267  0.47 51.96 LIG 0.02  C 
ATOM     18  CB  PRO C  79      19.556  13.889   0.019  0.47 58.89 LIG 0.04  C 
ATOM     19 O    PRO C  78      20.174  12.648   3.931  0.47 60.82 LIG-0.27  OA
BRANCH 16 20
ATOM     20  C   PRO C  79      21.541  14.258   1.430  0.47 69.87 LIG 0.22  C 
ATOM     21 O    PRO C  79      22.072  14.260   2.512  0.47 73.23 LIG-0.29  OA
ENDBRANCH 16 20
ENDBRANCH 10 13
ENDBRANCH 5 6
BRANCH 5 22
ATOM     22  CB  VAL C  77      19.802   9.933   7.136  0.47 43.60 LIG 0.01  C 
ATOM     23  CG2 VAL C  77      19.345   8.554   6.659  0.47 46.41 LIG 0.01  C 
ATOM     24  CG1 VAL C  77      20.473   9.766   8.505  0.47 37.55 LIG 0.01  C 
ENDBRANCH 5 22
ENDBRANCH 3 5
BRANCH 1 25
ATOM     25  CA  PRO C  76      15.272   9.996   8.712  0.47 40.28 LIG 0.18  C 
ATOM     26  N   PRO C  76      15.701   8.803   9.409  0.47 33.79 LIG-0.34  N 
ATOM     27  CD  PRO C  76      15.182   8.783  10.778  0.47 35.40 LIG 0.13  C 
ATOM     28  C   PRO C  75      15.894   7.683   8.752  0.47 33.84 LIG 0.24  C 
ATOM     29  CG  PRO C  76      14.738  10.167  10.975  0.47 37.80 LIG 0.02  C 
ATOM     30  CB  PRO C  76      14.496  10.784   9.775  0.47 38.87 LIG 0.04  C 
ATOM     31 O    PRO C  75      15.764   7.605   7.581  0.47 33.93 LIG-0.27  OA
BRANCH 28 32
ATOM     32  CA  PRO C  75      16.219   6.443   9.548  0.47 46.85 LIG 0.18  C 
ATOM     33  CB  PRO C  75      17.338   6.713  10.562  0.47 48.68 LIG 0.04  C 
ATOM     34  CG  PRO C  75      18.348   5.632  10.365  0.47 51.42 LIG 0.02  C 
ATOM     35  CD  PRO C  75      17.811   4.650   9.418  0.47 56.17 LIG 0.13  C 
ATOM     36  N   PRO C  75      16.791   5.408   8.701  0.47 56.81 LIG-0.34  N 
ATOM     37  C   PRO C  74      16.064   4.607   7.923  0.47 61.55 LIG 0.26  C 
ATOM     38 O    PRO C  74      14.855   4.659   7.803  0.47 61.23 LIG-0.27  OA
BRANCH 37 39
ATOM     39  CA  PRO C  74      16.822   3.557   7.142  0.47 57.58 LIG 0.35  C 
ATOM     40  N   PRO C  74      15.909   2.617   6.488  0.47 57.74 LIG 0.32  N 
ATOM     41  CD  PRO C  74      16.247   2.481   5.070  0.47 56.21 LIG 0.32  C 
ATOM     42  CG  PRO C  74      16.809   3.815   4.762  0.47 52.80 LIG 0.04  C 
ATOM     43  CB  PRO C  74      17.558   4.196   5.966  0.47 50.35 LIG 0.05  C 
ENDBRANCH 37 39
ENDBRANCH 28 32
ENDBRANCH 1 25
TORSDOF 8
ENDMDL
MODEL 6
USER: ADFR SOLUTION from run 103
USER: SCORE 12.312708 LL:  -3.903 LR:  -8.907 RR:   0.000 FEB:  -6.521
USER: RMSD 10.180338
USER: SEED 102
USER: STATUS no improvement in best in 31 clusters for 5 generations
USER: GENES 10
USER: genes 0 Translation |==|  0.54599 0.23914 0.50115
USER: genes 1 Rotation |==|  0.47896 0.79202 0.81153 0.75929
USER: genes 2 Torsion [C]-N--CA-[C] |==|  0.59147
USER: genes 3 Torsion [N]-CA--C-[N] |==|  0.25218
USER: genes 4 Torsion [N]-CA--C-[N] |==|  0.38512
USER: genes 5 Torsion [N]-CA--C-[O] |==|  0.14461
USER: genes 6 Torsion [N]-CA--CB-[CG2] |==|  0.40448
USER: genes 7 Torsion [O]-C--CA-[N] |==|  0.47391
USER: genes 8 Torsion [N]-C--CA-[N] |==|  0.30890
USER: genes 9 Torsion [N]-C--CA-[CB] |==|  0.84943
ROOT
ATOM      1  C   PRO C  76      16.831   5.085   5.915  0.47 42.64 LIG 0.24  C 
ATOM      2 O    PRO C  76      17.127   4.651   4.851  0.47 44.95 LIG-0.27  OA
ATOM      3  N   VAL C  77      16.498   6.336   6.109  0.47 42.25 LIG-0.35  N 
ATOM      4 H    VAL C  77      16.240   6.675   6.855  0.47 42.25 LIG 0.16  HD
ENDROOT
BRANCH 3 5
ATOM      5  CA  VAL C  77      16.562   7.237   4.998  0.47 44.36 LIG 0.17  C 
BRANCH 5 6
ATOM      6  C   VAL C  77      16.948   8.569   5.587  0.47 50.22 LIG 0.22  C 
ATOM      7 O    VAL C  77      16.094   9.286   6.033  0.47 51.68 LIG-0.28  OA
ATOM      8 N    PRO C  78      18.207   8.911   5.690  0.47 51.29 LIG-0.24  NA
ATOM      9  CD  PRO C  78      18.979   7.902   6.433  0.47 47.28 LIG 0.10  C 
ATOM     10  CA  PRO C  78      18.468  10.244   6.201  0.47 47.56 LIG 0.16  C 
ATOM     11  CG  PRO C  78      19.494   8.651   7.577  0.47 42.43 LIG 0.02  C 
ATOM     12  CB  PRO C  78      19.644  10.030   7.141  0.47 42.06 LIG 0.03  C 
BRANCH 10 13
ATOM     13  C   PRO C  78      18.704  11.142   5.014  0.47 54.03 LIG 0.24  C 
ATOM     14  N   PRO C  79      18.191  12.368   4.977  0.47 54.03 LIG-0.34  N 
ATOM     15  CD  PRO C  79      16.942  12.548   5.724  0.47 49.78 LIG 0.13  C 
ATOM     16  CA  PRO C  79      18.169  13.143   3.733  0.47 62.24 LIG 0.17  C 
ATOM     17  CG  PRO C  79      16.208  13.516   4.921  0.47 51.96 LIG 0.02  C 
ATOM     18  CB  PRO C  79      17.105  14.165   4.001  0.47 58.89 LIG 0.04  C 
ATOM     19 O    PRO C  78      19.316  10.654   4.098  0.47 60.82 LIG-0.27  OA
BRANCH 16 20
ATOM     20  C   PRO C  79      19.447  13.830   3.314  0.47 69.87 LIG 0.22  C 
ATOM     21 O    PRO C  79      20.443  13.153   3.265  0.47 73.23 LIG-0.29  OA
ENDBRANCH 16 20
ENDBRANCH 10 13
ENDBRANCH 5 6
BRANCH 5 22
ATOM     22  CB  VAL C  77      15.275   7.148   4.158  0.47 43.60 LIG 0.01  C 
ATOM     23  CG2 VAL C  77      14.990   8.551   3.621  0.47 46.41 LIG 0.01  C 
ATOM     24  CG1 VAL C  77      14.057   6.692   4.972  0.47 37.55 LIG 0.01  C 
ENDBRANCH 5 22
ENDBRANCH 3 5
BRANCH 1 25
ATOM     25  CA  PRO C  76      16.821   4.132   7.026  0.47 40.28 LIG 0.18  C 
ATOM     26  N   PRO C  76      16.660   4.895   8.245  0.47 33.79 LIG-0.34  N 
ATOM     27  CD  PRO C  76      15.464   4.469   8.973  0.47 35.40 LIG 0.13  C 
ATOM     28  C   PRO C  75      17.711   5.343   8.892  0.47 33.84 LIG 0.24  C 
ATOM     29  CG  PRO C  76      14.735   3.688   7.968  0.47 37.80 LIG 0.02  C 
ATOM     30  CB  PRO C  76      15.580   3.231   6.989  0.47 38.87 LIG 0.04  C 
ATOM     31 O    PRO C  75      18.813   5.179   8.500  0.47 33.93 LIG-0.27  OA
BRANCH 28 32
ATOM     32  CA  PRO C  75      17.487   6.023  10.220  0.47 46.85 LIG 0.18  C 
ATOM     33  CB  PRO C  75      18.306   7.315  10.325  0.47 48.68 LIG 0.04  C 
ATOM     34  CG  PRO C  75      19.037   7.240  11.625  0.47 51.42 LIG 0.02  C 
ATOM     35  CD  PRO C  75      18.567   6.065  12.365  0.47 56.17 LIG 0.13  C 
ATOM     36  N   PRO C  75      18.005   5.219  11.317  0.47 56.81 LIG-0.34  N 
ATOM     37  C   PRO C  74      17.355   4.182  11.842  0.47 61.55 LIG 0.26  C 
ATOM     38 O    PRO C  74      16.279   3.765  11.458  0.47 61.23 LIG-0.27  OA
BRANCH 37 39
ATOM     39  CA  PRO C  74      18.024   3.487  13.007  0.47 57.58 LIG 0.35  C 
ATOM     40  N   PRO C  74      17.372   2.213  13.314  0.47 57.74 LIG 0.32  N 
ATOM     41  CD  PRO C  74      18.364   1.139  13.398  0.47 56.21 LIG 0.32  C 
ATOM     42  CG  PRO C  74      19.401   1.609  12.452  0.47 52.80 LIG 0.04  C 
ATOM     43  CB  PRO C  74      19.444   3.066  12.633  0.47 50.35 LIG 0.05  C 
ENDBRANCH 37 39
ENDBRANCH 28 32
ENDBRANCH 1 25
TORSDOF 8
ENDMDL
MODEL 7
USER: ADFR SOLUTION from run 125
USER: SCORE 12.318667 LL:  -3.460 LR:  -8.889 RR:   0.000 FEB:  -6.503
USER: RMSD 6.133213
USER: SEED 124
USER: STATUS no improvement in best in 26 clusters for 5 generations
USER: GENES 10
USER: genes 0 Translation |==|  0.61190 0.60467 0.54689
USER: genes 1 Rotation |==|  0.39776 0.91864 0.26939 0.60540
USER: genes 2 Torsion [C]-N--CA-[C] |==|  0.79546
USER: genes 3 Torsion [N]-CA--C-[N] |==|  0.38732
USER: genes 4 Torsion [N]-CA--C-[N] |==|  0.88940
USER: genes 5 Torsion [N]-CA--C-[O] |==|  0.98299
USER: genes 6 Torsion [N]-CA--CB-[CG2] |==|  0.78728
USER: genes 7 Torsion [O]-C--CA-[N] |==|  0.63283
USER: genes 8 Torsion [N]-C--CA-[N] |==|  0.48156
USER: genes 9 Torsion [N]-C--CA-[CB] |==|  0.55703
ROOT
ATOM      1  C   PRO C  76      17.918  11.116   7.048  0.47 42.64 LIG 0.24  C 
ATOM      2 O    PRO C  76      17.544  10.793   8.126  0.47 44.95 LIG-0.27  OA
ATOM      3  N   VAL C  77      17.641  10.438   5.963  0.47 42.25 LIG-0.35  N 
ATOM      4 H    VAL C  77      17.860  10.662   5.163  0.47 42.25 LIG 0.16  HD
ENDROOT
BRANCH 3 5
ATOM      5  CA  VAL C  77      16.911   9.212   6.094  0.47 44.36 LIG 0.17  C 
BRANCH 5 6
ATOM      6  C   VAL C  77      17.892   8.223   6.667  0.47 50.22 LIG 0.22  C 
ATOM      7 O    VAL C  77      19.042   8.270   6.328  0.47 51.68 LIG-0.28  OA
ATOM      8 N    PRO C  78      17.516   7.374   7.590  0.47 51.29 LIG-0.24  NA
ATOM      9  CD  PRO C  78      16.916   8.062   8.743  0.47 47.28 LIG 0.10  C 
ATOM     10  CA  PRO C  78      18.517   6.415   8.021  0.47 47.56 LIG 0.16  C 
ATOM     11  CG  PRO C  78      17.786   7.678   9.852  0.47 42.43 LIG 0.02  C 
ATOM     12  CB  PRO C  78      18.322   6.367   9.528  0.47 42.06 LIG 0.03  C 
BRANCH 10 13
ATOM     13  C   PRO C  78      18.268   5.136   7.264  0.47 54.03 LIG 0.24  C 
ATOM     14  N   PRO C  79      17.029   4.707   7.044  0.47 54.03 LIG-0.34  N 
ATOM     15  CD  PRO C  79      16.041   5.098   8.056  0.47 49.78 LIG 0.13  C 
ATOM     16  CA  PRO C  79      16.772   3.345   6.566  0.47 62.24 LIG 0.17  C 
ATOM     17  CG  PRO C  79      15.143   3.953   8.107  0.47 51.96 LIG 0.02  C 
ATOM     18  CB  PRO C  79      15.336   3.130   6.941  0.47 58.89 LIG 0.04  C 
ATOM     19 O    PRO C  78      19.248   4.515   6.942  0.47 60.82 LIG-0.27  OA
BRANCH 16 20
ATOM     20  C   PRO C  79      16.964   3.073   5.093  0.47 69.87 LIG 0.22  C 
ATOM     21 O    PRO C  79      17.205   4.020   4.387  0.47 73.23 LIG-0.29  OA
ENDBRANCH 16 20
ENDBRANCH 10 13
ENDBRANCH 5 6
BRANCH 5 22
ATOM     22  CB  VAL C  77      16.202   8.865   4.772  0.47 43.60 LIG 0.01  C 
ATOM     23  CG2 VAL C  77      14.975   9.772   4.668  0.47 46.41 LIG 0.01  C 
ATOM     24  CG1 VAL C  77      15.725   7.409   4.712  0.47 37.55 LIG 0.01  C 
ENDBRANCH 5 22
ENDBRANCH 3 5
BRANCH 1 25
ATOM     25  CA  PRO C  76      18.696  12.353   6.972  0.47 40.28 LIG 0.18  C 
ATOM     26  N   PRO C  76      18.144  13.143   5.893  0.47 33.79 LIG-0.34  N 
ATOM     27  CD  PRO C  76      17.692  14.447   6.378  0.47 35.40 LIG 0.13  C 
ATOM     28  C   PRO C  75      18.602  13.008   4.670  0.47 33.84 LIG 0.24  C 
ATOM     29  CG  PRO C  76      17.664  14.258   7.832  0.47 37.80 LIG 0.02  C 
ATOM     30  CB  PRO C  76      18.487  13.231   8.213  0.47 38.87 LIG 0.04  C 
ATOM     31 O    PRO C  75      19.444  12.228   4.391  0.47 33.93 LIG-0.27  OA
BRANCH 28 32
ATOM     32  CA  PRO C  75      18.077  13.945   3.610  0.47 46.85 LIG 0.18  C 
ATOM     33  CB  PRO C  75      16.631  13.600   3.234  0.47 48.68 LIG 0.04  C 
ATOM     34  CG  PRO C  75      16.598  13.510   1.744  0.47 51.42 LIG 0.02  C 
ATOM     35  CD  PRO C  75      17.893  13.948   1.215  0.47 56.17 LIG 0.13  C 
ATOM     36  N   PRO C  75      18.790  13.771   2.353  0.47 56.81 LIG-0.34  N 
ATOM     37  C   PRO C  74      19.984  14.306   2.104  0.47 61.55 LIG 0.26  C 
ATOM     38 O    PRO C  74      20.631  14.969   2.892  0.47 61.23 LIG-0.27  OA
BRANCH 37 39
ATOM     39  CA  PRO C  74      20.558  14.059   0.727  0.47 57.58 LIG 0.35  C 
ATOM     40  N   PRO C  74      20.095  15.065  -0.232  0.47 57.74 LIG 0.32  N 
ATOM     41  CD  PRO C  74      21.231  15.641  -0.955  0.47 56.21 LIG 0.32  C 
ATOM     42  CG  PRO C  74      22.314  15.538   0.048  0.47 52.80 LIG 0.04  C 
ATOM     43  CB  PRO C  74      22.072  14.264   0.736  0.47 50.35 LIG 0.05  C 
ENDBRANCH 37 39
ENDBRANCH 28 32
ENDBRANCH 1 25
TORSDOF 8
ENDMDL
MODEL 8
USER: ADFR SOLUTION from run 73
USER: SCORE 12.531127 LL:  -4.013 LR:  -8.845 RR:   0.000 FEB:  -6.459
USER: RMSD 3.909899
USER: SEED 72
USER: STATUS no improvement in best in 23 clusters for 5 generations
USER: GENES 10
USER: genes 0 Translation |==|  0.69586 0.48492 0.52914
USER: genes 1 Rotation |==|  0.60588 0.25447 0.61170 0.90746
USER: genes 2 Torsion [C]-N--CA-[C] |==|  0.67317
USER: genes 3 Torsion [N]-CA--C-[N] |==|  0.27882
USER: genes 4 Torsion [N]-CA--C-[N] |==|  0.51274
USER: genes 5 Torsion [N]-CA--C-[O] |==|  0.17422
USER: genes 6 Torsion [N]-CA--CB-[CG2] |==|  0.02165
USER: genes 7 Torsion [O]-C--CA-[N] |==|  0.41772
USER: genes 8 Torsion [N]-C--CA-[N] |==|  0.34474
USER: genes 9 Torsion [N]-C--CA-[CB] |==|  0.83541
ROOT
ATOM      1  C   PRO C  76      19.304   9.140   6.608  0.47 42.64 LIG 0.24  C 
ATOM      2 O    PRO C  76      20.377   8.639   6.537  0.47 44.95 LIG-0.27  OA
ATOM      3  N   VAL C  77      18.666   9.303   7.740  0.47 42.25 LIG-0.35  N 
ATOM      4 H    VAL C  77      17.909   9.698   7.835  0.47 42.25 LIG 0.16  HD
ENDROOT
BRANCH 3 5
ATOM      5  CA  VAL C  77      19.262   8.790   8.937  0.47 44.36 LIG 0.17  C 
BRANCH 5 6
ATOM      6  C   VAL C  77      18.298   7.752   9.449  0.47 50.22 LIG 0.22  C 
ATOM      7 O    VAL C  77      17.283   8.105   9.986  0.47 51.68 LIG-0.28  OA
ATOM      8 N    PRO C  78      18.518   6.479   9.239  0.47 51.29 LIG-0.24  NA
ATOM      9  CD  PRO C  78      18.697   6.193   7.807  0.47 47.28 LIG 0.10  C 
ATOM     10  CA  PRO C  78      17.569   5.559   9.838  0.47 47.56 LIG 0.16  C 
ATOM     11  CG  PRO C  78      17.617   5.251   7.518  0.47 42.43 LIG 0.02  C 
ATOM     12  CB  PRO C  78      17.359   4.521   8.747  0.47 42.06 LIG 0.03  C 
BRANCH 10 13
ATOM     13  C   PRO C  78      18.171   5.072  11.131  0.47 54.03 LIG 0.24  C 
ATOM     14  N   PRO C  79      17.559   4.141  11.857  0.47 54.03 LIG-0.34  N 
ATOM     15  CD  PRO C  79      16.097   4.114  11.738  0.47 49.78 LIG 0.13  C 
ATOM     16  CA  PRO C  79      17.973   3.861  13.234  0.47 62.24 LIG 0.17  C 
ATOM     17  CG  PRO C  79      15.659   3.731  13.073  0.47 51.96 LIG 0.02  C 
ATOM     18  CB  PRO C  79      16.767   3.179  13.809  0.47 58.89 LIG 0.04  C 
ATOM     19 O    PRO C  78      19.183   5.622  11.481  0.47 60.82 LIG-0.27  OA
BRANCH 16 20
ATOM     20  C   PRO C  79      19.195   2.995  13.434  0.47 69.87 LIG 0.22  C 
ATOM     21 O    PRO C  79      20.242   3.417  13.012  0.47 73.23 LIG-0.29  OA
ENDBRANCH 16 20
ENDBRANCH 10 13
ENDBRANCH 5 6
BRANCH 5 22
ATOM     22  CB  VAL C  77      19.669   9.944   9.872  0.47 43.60 LIG 0.01  C 
ATOM     23  CG2 VAL C  77      19.109  11.232   9.268  0.47 46.41 LIG 0.01  C 
ATOM     24  CG1 VAL C  77      21.189  10.100  10.006  0.47 37.55 LIG 0.01  C 
ENDBRANCH 5 22
ENDBRANCH 3 5
BRANCH 1 25
ATOM     25  CA  PRO C  76      18.720   9.610   5.352  0.47 40.28 LIG 0.18  C 
ATOM     26  N   PRO C  76      17.282   9.513   5.483  0.47 33.79 LIG-0.34  N 
ATOM     27  CD  PRO C  76      16.651  10.819   5.290  0.47 35.40 LIG 0.13  C 
ATOM     28  C   PRO C  75      16.657   8.411   5.137  0.47 33.84 LIG 0.24  C 
ATOM     29  CG  PRO C  76      17.783  11.744   5.400  0.47 37.80 LIG 0.02  C 
ATOM     30  CB  PRO C  76      18.969  11.109   5.136  0.47 38.87 LIG 0.04  C 
ATOM     31 O    PRO C  75      17.229   7.455   4.744  0.47 33.93 LIG-0.27  OA
BRANCH 28 32
ATOM     32  CA  PRO C  75      15.148   8.411   5.177  0.47 46.85 LIG 0.18  C 
ATOM     33  CB  PRO C  75      14.620   7.316   6.111  0.47 48.68 LIG 0.04  C 
ATOM     34  CG  PRO C  75      13.596   6.561   5.329  0.47 51.42 LIG 0.02  C 
ATOM     35  CD  PRO C  75      13.370   7.251   4.055  0.47 56.17 LIG 0.13  C 
ATOM     36  N   PRO C  75      14.588   8.039   3.887  0.47 56.81 LIG-0.34  N 
ATOM     37  C   PRO C  74      14.469   8.883   2.864  0.47 61.55 LIG 0.26  C 
ATOM     38 O    PRO C  74      14.836  10.042   2.869  0.47 61.23 LIG-0.27  OA
BRANCH 37 39
ATOM     39  CA  PRO C  74      13.821   8.336   1.612  0.47 57.58 LIG 0.35  C 
ATOM     40  N   PRO C  74      13.895   9.298   0.510  0.47 57.74 LIG 0.32  N 
ATOM     41  CD  PRO C  74      14.433   8.657  -0.692  0.47 56.21 LIG 0.32  C 
ATOM     42  CG  PRO C  74      15.321   7.624  -0.113  0.47 52.80 LIG 0.04  C 
ATOM     43  CB  PRO C  74      14.613   7.143   1.080  0.47 50.35 LIG 0.05  C 
ENDBRANCH 37 39
ENDBRANCH 28 32
ENDBRANCH 1 25
TORSDOF 8
ENDMDL
MODEL 9
USER: ADFR SOLUTION from run 120
USER: SCORE 11.072481 LL:  -3.205 LR:  -8.851 RR:   0.000 FEB:  -6.465
USER: RMSD 9.924881
USER: SEED 119
USER: STATUS no improvement in best in 25 clusters for 5 generations
USER: GENES 10
USER: genes 0 Translation |==|  0.56881 0.20509 0.56752
USER: genes 1 Rotation |==|  0.61333 0.92250 0.33218 0.67460
USER: genes 2 Torsion [C]-N--CA-[C] |==|  0.18812
USER: genes 3 Torsion [N]-CA--C-[N] |==|  0.24444
USER: genes 4 Torsion [N]-CA--C-[N] |==|  0.87069
USER: genes 5 Torsion [N]-CA--C-[O] |==|  0.94570
USER: genes 6 Torsion [N]-CA--CB-[CG2] |==|  0.72020
USER: genes 7 Torsion [O]-C--CA-[N] |==|  0.75070
USER: genes 8 Torsion [N]-C--CA-[N] |==|  0.31383
USER: genes 9 Torsion [N]-C--CA-[CB] |==|  0.57323
ROOT
ATOM      1  C   PRO C  76      17.207   4.523   7.558  0.47 42.64 LIG 0.24  C 
ATOM      2 O    PRO C  76      16.151   4.243   8.020  0.47 44.95 LIG-0.27  OA
ATOM      3  N   VAL C  77      17.466   4.456   6.277  0.47 42.25 LIG-0.35  N 
ATOM      4 H    VAL C  77      18.204   4.689   5.903  0.47 42.25 LIG 0.16  HD
ENDROOT
BRANCH 3 5
ATOM      5  CA  VAL C  77      16.449   3.956   5.401  0.47 44.36 LIG 0.17  C 
BRANCH 5 6
ATOM      6  C   VAL C  77      15.356   4.992   5.427  0.47 50.22 LIG 0.22  C 
ATOM      7 O    VAL C  77      14.502   4.925   6.268  0.47 51.68 LIG-0.28  OA
ATOM      8 N    PRO C  78      15.379   6.003   4.596  0.47 51.29 LIG-0.24  NA
ATOM      9  CD  PRO C  78      16.644   6.748   4.691  0.47 47.28 LIG 0.10  C 
ATOM     10  CA  PRO C  78      14.241   6.902   4.652  0.47 47.56 LIG 0.16  C 
ATOM     11  CG  PRO C  78      16.213   8.090   5.080  0.47 42.43 LIG 0.02  C 
ATOM     12  CB  PRO C  78      14.880   8.276   4.532  0.47 42.06 LIG 0.03  C 
BRANCH 10 13
ATOM     13  C   PRO C  78      13.293   6.496   3.553  0.47 54.03 LIG 0.24  C 
ATOM     14  N   PRO C  79      13.742   6.256   2.325  0.47 54.03 LIG-0.34  N 
ATOM     15  CD  PRO C  79      14.947   6.998   1.940  0.47 49.78 LIG 0.13  C 
ATOM     16  CA  PRO C  79      12.821   6.138   1.191  0.47 62.24 LIG 0.17  C 
ATOM     17  CG  PRO C  79      14.746   7.251   0.521  0.47 51.96 LIG 0.02  C 
ATOM     18  CB  PRO C  79      13.715   6.384   0.012  0.47 58.89 LIG 0.04  C 
ATOM     19 O    PRO C  78      12.126   6.473   3.846  0.47 60.82 LIG-0.27  OA
BRANCH 16 20
ATOM     20  C   PRO C  79      12.091   4.827   1.016  0.47 69.87 LIG 0.22  C 
ATOM     21 O    PRO C  79      12.556   3.862   1.568  0.47 73.23 LIG-0.29  OA
ENDBRANCH 16 20
ENDBRANCH 10 13
ENDBRANCH 5 6
BRANCH 5 22
ATOM     22  CB  VAL C  77      16.096   2.502   5.763  0.47 43.60 LIG 0.01  C 
ATOM     23  CG2 VAL C  77      16.820   1.600   4.763  0.47 46.41 LIG 0.01  C 
ATOM     24  CG1 VAL C  77      14.593   2.208   5.669  0.47 37.55 LIG 0.01  C 
ENDBRANCH 5 22
ENDBRANCH 3 5
BRANCH 1 25
ATOM     25  CA  PRO C  76      18.226   4.988   8.499  0.47 40.28 LIG 0.18  C 
ATOM     26  N   PRO C  76      18.097   6.426   8.596  0.47 33.79 LIG-0.34  N 
ATOM     27  CD  PRO C  76      17.837   6.835   9.978  0.47 35.40 LIG 0.13  C 
ATOM     28  C   PRO C  75      18.766   7.210   7.783  0.47 33.84 LIG 0.24  C 
ATOM     29  CG  PRO C  76      17.461   5.572  10.622  0.47 37.80 LIG 0.02  C 
ATOM     30  CB  PRO C  76      17.948   4.497   9.925  0.47 38.87 LIG 0.04  C 
ATOM     31 O    PRO C  75      19.464   6.788   6.929  0.47 33.93 LIG-0.27  OA
BRANCH 28 32
ATOM     32  CA  PRO C  75      18.689   8.699   8.012  0.47 46.85 LIG 0.18  C 
ATOM     33  CB  PRO C  75      18.418   9.447   6.702  0.47 48.68 LIG 0.04  C 
ATOM     34  CG  PRO C  75      19.444  10.528   6.619  0.47 51.42 LIG 0.02  C 
ATOM     35  CD  PRO C  75      20.192  10.568   7.879  0.47 56.17 LIG 0.13  C 
ATOM     36  N   PRO C  75      19.975   9.234   8.433  0.47 56.81 LIG-0.34  N 
ATOM     37  C   PRO C  74      20.433   9.159   9.681  0.47 61.55 LIG 0.26  C 
ATOM     38 O    PRO C  74      19.857   8.616  10.604  0.47 61.23 LIG-0.27  OA
BRANCH 37 39
ATOM     39  CA  PRO C  74      21.772   9.809   9.949  0.47 57.58 LIG 0.35  C 
ATOM     40  N   PRO C  74      21.611  11.192  10.403  0.47 57.74 LIG 0.32  N 
ATOM     41  CD  PRO C  74      22.381  11.419  11.628  0.47 56.21 LIG 0.32  C 
ATOM     42  CG  PRO C  74      22.359  10.078  12.254  0.47 52.80 LIG 0.04  C 
ATOM     43  CB  PRO C  74      22.464   9.136  11.133  0.47 50.35 LIG 0.05  C 
ENDBRANCH 37 39
ENDBRANCH 28 32
ENDBRANCH 1 25
TORSDOF 8
ENDMDL
MODEL 10
USER: ADFR SOLUTION from run 194
USER: SCORE 12.345219 LL:  -3.656 LR:  -8.821 RR:   0.000 FEB:  -6.435
USER: RMSD 10.671297
USER: SEED 193
USER: STATUS no improvement in best in 22 clusters for 5 generations
USER: GENES 10
USER: genes 0 Translation |==|  0.42551 0.49898 0.41037
USER: genes 1 Rotation |==|  0.83243 0.60330 0.16934 0.63958
USER: genes 2 Torsion [C]-N--CA-[C] |==|  0.55126
USER: genes 3 Torsion [N]-CA--C-[N] |==|  0.45708
USER: genes 4 Torsion [N]-CA--C-[N] |==|  0.47139
USER: genes 5 Torsion [N]-CA--C-[O] |==|  0.17313
USER: genes 6 Torsion [N]-CA--CB-[CG2] |==|  0.65739
USER: genes 7 Torsion [O]-C--CA-[N] |==|  0.59457
USER: genes 8 Torsion [N]-C--CA-[N] |==|  0.36987
USER: genes 9 Torsion [N]-C--CA-[CB] |==|  0.68423
ROOT
ATOM      1  C   PRO C  76      14.843   9.372   3.669  0.47 42.64 LIG 0.24  C 
ATOM      2 O    PRO C  76      14.578  10.450   3.248  0.47 44.95 LIG-0.27  OA
ATOM      3  N   VAL C  77      14.642   8.272   2.989  0.47 42.25 LIG-0.35  N 
ATOM      4 H    VAL C  77      14.858   7.480   3.244  0.47 42.25 LIG 0.16  HD
ENDROOT
BRANCH 3 5
ATOM      5  CA  VAL C  77      14.009   8.368   1.708  0.47 44.36 LIG 0.17  C 
BRANCH 5 6
ATOM      6  C   VAL C  77      13.510   6.980   1.403  0.47 50.22 LIG 0.22  C 
ATOM      7 O    VAL C  77      13.867   6.062   2.090  0.47 51.68 LIG-0.28  OA
ATOM      8 N    PRO C  78      12.630   6.784   0.455  0.47 51.29 LIG-0.24  NA
ATOM      9  CD  PRO C  78      11.429   7.611   0.655  0.47 47.28 LIG 0.10  C 
ATOM     10  CA  PRO C  78      12.271   5.402   0.192  0.47 47.56 LIG 0.16  C 
ATOM     11  CG  PRO C  78      10.359   6.622   0.774  0.47 42.43 LIG 0.02  C 
ATOM     12  CB  PRO C  78      10.766   5.469  -0.011  0.47 42.06 LIG 0.03  C 
BRANCH 10 13
ATOM     13  C   PRO C  78      13.094   4.941  -0.983  0.47 54.03 LIG 0.24  C 
ATOM     14  N   PRO C  79      13.129   3.656  -1.325  0.47 54.03 LIG-0.34  N 
ATOM     15  CD  PRO C  79      12.931   2.708  -0.223  0.47 49.78 LIG 0.13  C 
ATOM     16  CA  PRO C  79      14.127   3.151  -2.271  0.47 62.24 LIG 0.17  C 
ATOM     17  CG  PRO C  79      13.787   1.588  -0.587  0.47 51.96 LIG 0.02  C 
ATOM     18  CB  PRO C  79      14.145   1.680  -1.979  0.47 58.89 LIG 0.04  C 
ATOM     19 O    PRO C  78      13.752   5.788  -1.531  0.47 60.82 LIG-0.27  OA
BRANCH 16 20
ATOM     20  C   PRO C  79      13.873   3.377  -3.743  0.47 69.87 LIG 0.22  C 
ATOM     21 O    PRO C  79      13.818   4.521  -4.121  0.47 73.23 LIG-0.29  OA
ENDBRANCH 16 20
ENDBRANCH 10 13
ENDBRANCH 5 6
BRANCH 5 22
ATOM     22  CB  VAL C  77      14.946   9.053   0.696  0.47 43.60 LIG 0.01  C 
ATOM     23  CG2 VAL C  77      14.199  10.265   0.139  0.47 46.41 LIG 0.01  C 
ATOM     24  CG1 VAL C  77      15.326   8.145  -0.481  0.47 37.55 LIG 0.01  C 
ENDBRANCH 5 22
ENDBRANCH 3 5
BRANCH 1 25
ATOM     25  CA  PRO C  76      15.449   9.324   4.999  0.47 40.28 LIG 0.18  C 
ATOM     26  N   PRO C  76      16.379   8.216   5.008  0.47 33.79 LIG-0.34  N 
ATOM     27  CD  PRO C  76      17.732   8.674   5.330  0.47 35.40 LIG 0.13  C 
ATOM     28  C   PRO C  75      15.980   7.016   5.358  0.47 33.84 LIG 0.24  C 
ATOM     29  CG  PRO C  76      17.632  10.126   5.154  0.47 37.80 LIG 0.02  C 
ATOM     30  CB  PRO C  76      16.333  10.549   5.265  0.47 38.87 LIG 0.04  C 
ATOM     31 O    PRO C  75      14.858   6.779   5.643  0.47 33.93 LIG-0.27  OA
BRANCH 28 32
ATOM     32  CA  PRO C  75      17.020   5.928   5.469  0.47 46.85 LIG 0.18  C 
ATOM     33  CB  PRO C  75      16.822   4.860   4.387  0.47 48.68 LIG 0.04  C 
ATOM     34  CG  PRO C  75      16.825   3.545   5.094  0.47 51.42 LIG 0.02  C 
ATOM     35  CD  PRO C  75      17.183   3.764   6.498  0.47 56.17 LIG 0.13  C 
ATOM     36  N   PRO C  75      16.863   5.174   6.704  0.47 56.81 LIG-0.34  N 
ATOM     37  C   PRO C  74      17.309   5.594   7.886  0.47 61.55 LIG 0.26  C 
ATOM     38 O    PRO C  74      17.867   6.656   8.085  0.47 61.23 LIG-0.27  OA
BRANCH 37 39
ATOM     39  CA  PRO C  74      17.098   4.660   9.057  0.47 57.58 LIG 0.35  C 
ATOM     40  N   PRO C  74      18.322   4.509   9.846  0.47 57.74 LIG 0.32  N 
ATOM     41  CD  PRO C  74      18.045   4.737  11.265  0.47 56.21 LIG 0.32  C 
ATOM     42  CG  PRO C  74      16.923   5.702  11.205  0.47 52.80 LIG 0.04  C 
ATOM     43  CB  PRO C  74      16.117   5.271  10.056  0.47 50.35 LIG 0.05  C 
ENDBRANCH 37 39
ENDBRANCH 28 32
ENDBRANCH 1 25
TORSDOF 8
ENDMDL
MODEL 11
USER: ADFR SOLUTION from run 7
USER: SCORE 12.665062 LL:  -3.962 LR:  -8.810 RR:   0.000 FEB:  -6.424
USER: RMSD 6.540474
USER: SEED 448476
USER: STATUS no improvement in best in 25 clusters for 5 generations
USER: GENES 10
USER: genes 0 Translation |==|  0.40908 0.46570 0.32098
USER: genes 1 Rotation |==|  0.71211 0.31906 0.90990 0.56521
USER: genes 2 Torsion [C]-N--CA-[C] |==|  0.73413
USER: genes 3 Torsion [N]-CA--C-[N] |==|  0.38711
USER: genes 4 Torsion [N]-CA--C-[N] |==|  0.31021
USER: genes 5 Torsion [N]-CA--C-[O] |==|  0.94179
USER: genes 6 Torsion [N]-CA--CB-[CG2] |==|  0.30742
USER: genes 7 Torsion [O]-C--CA-[N] |==|  0.65258
USER: genes 8 Torsion [N]-C--CA-[N] |==|  0.49852
USER: genes 9 Torsion [N]-C--CA-[CB] |==|  0.78769
ROOT
ATOM      1  C   PRO C  76      14.572   8.823   1.456  0.47 42.64 LIG 0.24  C 
ATOM      2 O    PRO C  76      14.619   9.874   2.004  0.47 44.95 LIG-0.27  OA
ATOM      3  N   VAL C  77      14.277   7.708   2.076  0.47 42.25 LIG-0.35  N 
ATOM      4 H    VAL C  77      14.194   6.937   1.706  0.47 42.25 LIG 0.16  HD
ENDROOT
BRANCH 3 5
ATOM      5  CA  VAL C  77      14.071   7.751   3.492  0.47 44.36 LIG 0.17  C 
BRANCH 5 6
ATOM      6  C   VAL C  77      15.394   7.366   4.100  0.47 50.22 LIG 0.22  C 
ATOM      7 O    VAL C  77      16.072   6.535   3.560  0.47 51.68 LIG-0.28  OA
ATOM      8 N    PRO C  78      15.845   7.990   5.160  0.47 51.29 LIG-0.24  NA
ATOM      9  CD  PRO C  78      15.906   9.444   4.944  0.47 47.28 LIG 0.10  C 
ATOM     10  CA  PRO C  78      17.093   7.493   5.711  0.47 47.56 LIG 0.16  C 
ATOM     11  CG  PRO C  78      17.323   9.749   5.127  0.47 42.43 LIG 0.02  C 
ATOM     12  CB  PRO C  78      17.846   8.767   6.062  0.47 42.06 LIG 0.03  C 
BRANCH 10 13
ATOM     13  C   PRO C  78      16.745   6.574   6.853  0.47 54.03 LIG 0.24  C 
ATOM     14  N   PRO C  79      16.968   5.266   6.764  0.47 54.03 LIG-0.34  N 
ATOM     15  CD  PRO C  79      16.913   4.711   5.408  0.47 49.78 LIG 0.13  C 
ATOM     16  CA  PRO C  79      16.388   4.331   7.732  0.47 62.24 LIG 0.17  C 
ATOM     17  CG  PRO C  79      16.351   3.383   5.612  0.47 51.96 LIG 0.02  C 
ATOM     18  CB  PRO C  79      16.447   3.022   7.003  0.47 58.89 LIG 0.04  C 
ATOM     19 O    PRO C  78      16.203   7.089   7.797  0.47 60.82 LIG-0.27  OA
BRANCH 16 20
ATOM     20  C   PRO C  79      17.069   4.201   9.074  0.47 69.87 LIG 0.22  C 
ATOM     21 O    PRO C  79      18.221   4.549   9.141  0.47 73.23 LIG-0.29  OA
ENDBRANCH 16 20
ENDBRANCH 10 13
ENDBRANCH 5 6
BRANCH 5 22
ATOM     22  CB  VAL C  77      12.820   6.940   3.878  0.47 43.60 LIG 0.01  C 
ATOM     23  CG2 VAL C  77      13.302   5.700   4.633  0.47 46.41 LIG 0.01  C 
ATOM     24  CG1 VAL C  77      12.009   6.473   2.662  0.47 37.55 LIG 0.01  C 
ENDBRANCH 5 22
ENDBRANCH 3 5
BRANCH 1 25
ATOM     25  CA  PRO C  76      14.831   8.827   0.016  0.47 40.28 LIG 0.18  C 
ATOM     26  N   PRO C  76      13.700   8.194  -0.626  0.47 33.79 LIG-0.34  N 
ATOM     27  CD  PRO C  76      13.072   9.100  -1.588  0.47 35.40 LIG 0.13  C 
ATOM     28  C   PRO C  75      13.691   6.897  -0.827  0.47 33.84 LIG 0.24  C 
ATOM     29  CG  PRO C  76      13.645  10.401  -1.228  0.47 37.80 LIG 0.02  C 
ATOM     30  CB  PRO C  76      14.831  10.250  -0.556  0.47 38.87 LIG 0.04  C 
ATOM     31 O    PRO C  75      14.570   6.194  -0.469  0.47 33.93 LIG-0.27  OA
BRANCH 28 32
ATOM     32  CA  PRO C  75      12.543   6.310  -1.612  0.47 46.85 LIG 0.18  C 
ATOM     33  CB  PRO C  75      11.221   6.450  -0.848  0.47 48.68 LIG 0.04  C 
ATOM     34  CG  PRO C  75      10.595   5.095  -0.848  0.47 51.42 LIG 0.02  C 
ATOM     35  CD  PRO C  75      11.384   4.209  -1.709  0.47 56.17 LIG 0.13  C 
ATOM     36  N   PRO C  75      12.685   4.870  -1.757  0.47 56.81 LIG-0.34  N 
ATOM     37  C   PRO C  74      13.477   4.294  -2.659  0.47 61.55 LIG 0.26  C 
ATOM     38 O    PRO C  74      14.191   4.889  -3.443  0.47 61.23 LIG-0.27  OA
BRANCH 37 39
ATOM     39  CA  PRO C  74      13.467   2.782  -2.697  0.47 57.58 LIG 0.35  C 
ATOM     40  N   PRO C  74      14.179   2.273  -3.872  0.47 57.74 LIG 0.32  N 
ATOM     41  CD  PRO C  74      15.160   1.261  -3.475  0.47 56.21 LIG 0.32  C 
ATOM     42  CG  PRO C  74      15.527   1.710  -2.113  0.47 52.80 LIG 0.04  C 
ATOM     43  CB  PRO C  74      14.277   2.215  -1.532  0.47 50.35 LIG 0.05  C 
ENDBRANCH 37 39
ENDBRANCH 28 32
ENDBRANCH 1 25
TORSDOF 8
ENDMDL
MODEL 12
USER: ADFR SOLUTION from run 179
USER: SCORE 12.239748 LL:  -3.921 LR:  -8.812 RR:   0.000 FEB:  -6.425
USER: RMSD 9.098032
USER: SEED 178
USER: STATUS no improvement in best in 24 clusters for 5 generations
USER: GENES 10
USER: genes 0 Translation |==|  0.54539 0.23003 0.45523
USER: genes 1 Rotation |==|  0.47329 0.74004 0.87958 0.71813
USER: genes 2 Torsion [C]-N--CA-[C] |==|  0.63338
USER: genes 3 Torsion [N]-CA--C-[N] |==|  0.20696
USER: genes 4 Torsion [N]-CA--C-[N] |==|  0.35916
USER: genes 5 Torsion [N]-CA--C-[O] |==|  0.23107
USER: genes 6 Torsion [N]-CA--CB-[CG2] |==|  0.99676
USER: genes 7 Torsion [O]-C--CA-[N] |==|  0.52977
USER: genes 8 Torsion [N]-C--CA-[N] |==|  0.55417
USER: genes 9 Torsion [N]-C--CA-[CB] |==|  0.85286
ROOT
ATOM      1  C   PRO C  76      16.821   4.934   4.779  0.47 42.64 LIG 0.24  C 
ATOM      2 O    PRO C  76      17.197   4.893   3.654  0.47 44.95 LIG-0.27  OA
ATOM      3  N   VAL C  77      16.176   5.958   5.278  0.47 42.25 LIG-0.35  N 
ATOM      4 H    VAL C  77      15.853   6.007   6.073  0.47 42.25 LIG 0.16  HD
ENDROOT
BRANCH 3 5
ATOM      5  CA  VAL C  77      15.976   7.108   4.448  0.47 44.36 LIG 0.17  C 
BRANCH 5 6
ATOM      6  C   VAL C  77      16.381   8.286   5.294  0.47 50.22 LIG 0.22  C 
ATOM      7 O    VAL C  77      15.532   8.955   5.818  0.47 51.68 LIG-0.28  OA
ATOM      8 N    PRO C  78      17.645   8.533   5.529  0.47 51.29 LIG-0.24  NA
ATOM      9  CD  PRO C  78      18.322   7.364   6.113  0.47 47.28 LIG 0.10  C 
ATOM     10  CA  PRO C  78      17.931   9.734   6.293  0.47 47.56 LIG 0.16  C 
ATOM     11  CG  PRO C  78      18.794   7.862   7.404  0.47 42.43 LIG 0.02  C 
ATOM     12  CB  PRO C  78      19.032   9.286   7.241  0.47 42.06 LIG 0.03  C 
BRANCH 10 13
ATOM     13  C   PRO C  78      18.283  10.819   5.308  0.47 54.03 LIG 0.24  C 
ATOM     14  N   PRO C  79      17.686  12.005   5.363  0.47 54.03 LIG-0.34  N 
ATOM     15  CD  PRO C  79      16.321  11.997   5.903  0.47 49.78 LIG 0.13  C 
ATOM     16  CA  PRO C  79      17.803  12.964   4.261  0.47 62.24 LIG 0.17  C 
ATOM     17  CG  PRO C  79      15.652  13.038   5.136  0.47 51.96 LIG 0.02  C 
ATOM     18  CB  PRO C  79      16.631  13.872   4.488  0.47 58.89 LIG 0.04  C 
ATOM     19 O    PRO C  78      19.072  10.516   4.451  0.47 60.82 LIG-0.27  OA
BRANCH 16 20
ATOM     20  C   PRO C  79      19.072  13.778   4.174  0.47 69.87 LIG 0.22  C 
ATOM     21 O    PRO C  79      20.020  13.261   3.637  0.47 73.23 LIG-0.29  OA
ENDBRANCH 16 20
ENDBRANCH 10 13
ENDBRANCH 5 6
BRANCH 5 22
ATOM     22  CB  VAL C  77      14.563   7.091   3.836  0.47 43.60 LIG 0.01  C 
ATOM     23  CG2 VAL C  77      13.878   5.813   4.321  0.47 46.41 LIG 0.01  C 
ATOM     24  CG1 VAL C  77      14.573   7.074   2.302  0.47 37.55 LIG 0.01  C 
ENDBRANCH 5 22
ENDBRANCH 3 5
BRANCH 1 25
ATOM     25  CA  PRO C  76      17.086   3.752   5.598  0.47 40.28 LIG 0.18  C 
ATOM     26  N   PRO C  76      16.336   3.902   6.826  0.47 33.79 LIG-0.34  N 
ATOM     27  CD  PRO C  76      15.407   2.786   7.011  0.47 35.40 LIG 0.13  C 
ATOM     28  C   PRO C  75      16.873   4.502   7.863  0.47 33.84 LIG 0.24  C 
ATOM     29  CG  PRO C  76      15.378   2.167   5.681  0.47 37.80 LIG 0.02  C 
ATOM     30  CB  PRO C  76      16.504   2.481   4.965  0.47 38.87 LIG 0.04  C 
ATOM     31 O    PRO C  75      17.957   4.969   7.833  0.47 33.93 LIG-0.27  OA
BRANCH 28 32
ATOM     32  CA  PRO C  75      16.091   4.519   9.154  0.47 46.85 LIG 0.18  C 
ATOM     33  CB  PRO C  75      14.629   4.911   8.910  0.47 48.68 LIG 0.04  C 
ATOM     34  CG  PRO C  75      14.323   6.001   9.883  0.47 51.42 LIG 0.02  C 
ATOM     35  CD  PRO C  75      15.461   6.156  10.794  0.47 56.17 LIG 0.13  C 
ATOM     36  N   PRO C  75      16.566   5.568  10.043  0.47 56.81 LIG-0.34  N 
ATOM     37  C   PRO C  74      17.650   5.453  10.808  0.47 61.55 LIG 0.26  C 
ATOM     38 O    PRO C  74      18.384   4.483  10.836  0.47 61.23 LIG-0.27  OA
BRANCH 37 39
ATOM     39  CA  PRO C  74      17.971   6.627  11.705  0.47 57.58 LIG 0.35  C 
ATOM     40  N   PRO C  74      19.325   6.525  12.253  0.47 57.74 LIG 0.32  N 
ATOM     41  CD  PRO C  74      20.059   7.773  12.036  0.47 56.21 LIG 0.32  C 
ATOM     42  CG  PRO C  74      19.447   8.271  10.783  0.47 52.80 LIG 0.04  C 
ATOM     43  CB  PRO C  74      18.026   7.919  10.891  0.47 50.35 LIG 0.05  C 
ENDBRANCH 37 39
ENDBRANCH 28 32
ENDBRANCH 1 25
TORSDOF 8
ENDMDL
MODEL 13
USER: ADFR SOLUTION from run 64
USER: SCORE 12.177383 LL:  -3.512 LR:  -8.778 RR:   0.000 FEB:  -6.391
USER: RMSD 6.208096
USER: SEED 63
USER: STATUS no improvement in best in 13 clusters for 5 generations
USER: GENES 10
USER: genes 0 Translation |==|  0.69581 0.71059 0.41110
USER: genes 1 Rotation |==|  0.66177 0.27579 0.90891 0.57969
USER: genes 2 Torsion [C]-N--CA-[C] |==|  0.63332
USER: genes 3 Torsion [N]-CA--C-[N] |==|  0.46606
USER: genes 4 Torsion [N]-CA--C-[N] |==|  0.45231
USER: genes 5 Torsion [N]-CA--C-[O] |==|  0.97336
USER: genes 6 Torsion [N]-CA--CB-[CG2] |==|  0.25157
USER: genes 7 Torsion [O]-C--CA-[N] |==|  0.85880
USER: genes 8 Torsion [N]-C--CA-[N] |==|  0.36881
USER: genes 9 Torsion [N]-C--CA-[CB] |==|  0.69942
ROOT
ATOM      1  C   PRO C  76      19.303  12.864   3.687  0.47 42.64 LIG 0.24  C 
ATOM      2 O    PRO C  76      19.448  13.840   4.345  0.47 44.95 LIG-0.27  OA
ATOM      3  N   VAL C  77      18.705  11.787   4.130  0.47 42.25 LIG-0.35  N 
ATOM      4 H    VAL C  77      18.546  11.078   3.671  0.47 42.25 LIG 0.16  HD
ENDROOT
BRANCH 3 5
ATOM      5  CA  VAL C  77      18.269  11.762   5.494  0.47 44.36 LIG 0.17  C 
BRANCH 5 6
ATOM      6  C   VAL C  77      18.757  10.448   6.045  0.47 50.22 LIG 0.22  C 
ATOM      7 O    VAL C  77      19.244   9.642   5.301  0.47 51.68 LIG-0.28  OA
ATOM      8 N    PRO C  78      18.730  10.217   7.334  0.47 51.29 LIG-0.24  NA
ATOM      9  CD  PRO C  78      19.446  11.261   8.083  0.47 47.28 LIG 0.10  C 
ATOM     10  CA  PRO C  78      19.151   8.894   7.754  0.47 47.56 LIG 0.16  C 
ATOM     11  CG  PRO C  78      20.503  10.517   8.765  0.47 42.43 LIG 0.02  C 
ATOM     12  CB  PRO C  78      19.991   9.176   8.991  0.47 42.06 LIG 0.03  C 
BRANCH 10 13
ATOM     13  C   PRO C  78      17.907   8.068   7.954  0.47 54.03 LIG 0.24  C 
ATOM     14  N   PRO C  79      17.973   6.741   8.007  0.47 54.03 LIG-0.34  N 
ATOM     15  CD  PRO C  79      19.072   6.137   7.246  0.47 49.78 LIG 0.13  C 
ATOM     16  CA  PRO C  79      16.764   5.918   7.918  0.47 62.24 LIG 0.17  C 
ATOM     17  CG  PRO C  79      18.499   4.888   6.765  0.47 51.96 LIG 0.02  C 
ATOM     18  CB  PRO C  79      17.306   4.580   7.512  0.47 58.89 LIG 0.04  C 
ATOM     19 O    PRO C  78      16.870   8.679   7.991  0.47 60.82 LIG-0.27  OA
BRANCH 16 20
ATOM     20  C   PRO C  79      15.923   5.773   9.163  0.47 69.87 LIG 0.22  C 
ATOM     21 O    PRO C  79      16.388   6.194  10.192  0.47 73.23 LIG-0.29  OA
ENDBRANCH 16 20
ENDBRANCH 10 13
ENDBRANCH 5 6
BRANCH 5 22
ATOM     22  CB  VAL C  77      16.766  12.087   5.584  0.47 43.60 LIG 0.01  C 
ATOM     23  CG2 VAL C  77      16.013  10.759   5.498  0.47 46.41 LIG 0.01  C 
ATOM     24  CG1 VAL C  77      16.278  12.988   4.442  0.47 37.55 LIG 0.01  C 
ENDBRANCH 5 22
ENDBRANCH 3 5
BRANCH 1 25
ATOM     25  CA  PRO C  76      19.803  12.924   2.313  0.47 40.28 LIG 0.18  C 
ATOM     26  N   PRO C  76      19.266  14.126   1.713  0.47 33.79 LIG-0.34  N 
ATOM     27  CD  PRO C  76      20.342  15.005   1.251  0.47 35.40 LIG 0.13  C 
ATOM     28  C   PRO C  75      18.113  14.097   1.087  0.47 33.84 LIG 0.24  C 
ATOM     29  CG  PRO C  76      21.522  14.449   1.922  0.47 37.80 LIG 0.02  C 
ATOM     30  CB  PRO C  76      21.322  13.139   2.272  0.47 38.87 LIG 0.04  C 
ATOM     31 O    PRO C  75      17.455  13.119   1.015  0.47 33.93 LIG-0.27  OA
BRANCH 28 32
ATOM     32  CA  PRO C  75      17.663  15.349   0.373  0.47 46.85 LIG 0.18  C 
ATOM     33  CB  PRO C  75      16.424  15.953   1.044  0.47 48.68 LIG 0.04  C 
ATOM     34  CG  PRO C  75      15.431  16.183  -0.047  0.47 51.42 LIG 0.02  C 
ATOM     35  CD  PRO C  75      16.073  15.911  -1.336  0.47 56.17 LIG 0.13  C 
ATOM     36  N   PRO C  75      17.193  15.049  -0.971  0.47 56.81 LIG-0.34  N 
ATOM     37  C   PRO C  74      18.004  14.859  -2.010  0.47 61.55 LIG 0.26  C 
ATOM     38 O    PRO C  74      19.219  14.881  -1.961  0.47 61.23 LIG-0.27  OA
BRANCH 37 39
ATOM     39  CA  PRO C  74      17.340  14.601  -3.344  0.47 57.58 LIG 0.35  C 
ATOM     40  N   PRO C  74      18.010  15.330  -4.423  0.47 57.74 LIG 0.32  N 
ATOM     41  CD  PRO C  74      18.322  14.427  -5.532  0.47 56.21 LIG 0.32  C 
ATOM     42  CG  PRO C  74      18.518  13.139  -4.830  0.47 52.80 LIG 0.04  C 
ATOM     43  CB  PRO C  74      17.519  13.140  -3.754  0.47 50.35 LIG 0.05  C 
ENDBRANCH 37 39
ENDBRANCH 28 32
ENDBRANCH 1 25
TORSDOF 8
ENDMDL
MODEL 14
USER: ADFR SOLUTION from run 165
USER: SCORE 11.399103 LL:  -3.472 LR:  -8.627 RR:   0.000 FEB:  -6.241
USER: RMSD 7.554599
USER: SEED 164
USER: STATUS no improvement in best in 23 clusters for 5 generations
USER: GENES 10
USER: genes 0 Translation |==|  0.70807 0.52484 0.55824
USER: genes 1 Rotation |==|  0.76027 0.51143 0.87793 0.69825
USER: genes 2 Torsion [C]-N--CA-[C] |==|  0.67778
USER: genes 3 Torsion [N]-CA--C-[N] |==|  0.62036
USER: genes 4 Torsion [N]-CA--C-[N] |==|  0.89586
USER: genes 5 Torsion [N]-CA--C-[O] |==|  0.80819
USER: genes 6 Torsion [N]-CA--CB-[CG2] |==|  0.14916
USER: genes 7 Torsion [O]-C--CA-[N] |==|  0.64742
USER: genes 8 Torsion [N]-C--CA-[N] |==|  0.34424
USER: genes 9 Torsion [N]-C--CA-[CB] |==|  0.58044
ROOT
ATOM      1  C   PRO C  76      19.505   9.799   7.329  0.47 42.64 LIG 0.24  C 
ATOM      2 O    PRO C  76      19.647  10.885   6.873  0.47 44.95 LIG-0.27  OA
ATOM      3  N   VAL C  77      19.704   9.524   8.593  0.47 42.25 LIG-0.35  N 
ATOM      4 H    VAL C  77      19.573   8.761   8.966  0.47 42.25 LIG 0.16  HD
ENDROOT
BRANCH 3 5
ATOM      5  CA  VAL C  77      20.182  10.567   9.449  0.47 44.36 LIG 0.17  C 
BRANCH 5 6
ATOM      6  C   VAL C  77      21.541  10.112   9.913  0.47 50.22 LIG 0.22  C 
ATOM      7 O    VAL C  77      22.328   9.693   9.109  0.47 51.68 LIG-0.28  OA
ATOM      8 N    PRO C  78      21.896  10.248  11.166  0.47 51.29 LIG-0.24  NA
ATOM      9  CD  PRO C  78      21.762  11.643  11.614  0.47 47.28 LIG 0.10  C 
ATOM     10  CA  PRO C  78      23.196   9.710  11.524  0.47 47.56 LIG 0.16  C 
ATOM     11  CG  PRO C  78      23.124  12.000  12.006  0.47 42.43 LIG 0.02  C 
ATOM     12  CB  PRO C  78      23.768  10.774  12.447  0.47 42.06 LIG 0.03  C 
BRANCH 10 13
ATOM     13  C   PRO C  78      22.967   8.345  12.121  0.47 54.03 LIG 0.24  C 
ATOM     14  N   PRO C  79      21.915   8.113  12.900  0.47 54.03 LIG-0.34  N 
ATOM     15  CD  PRO C  79      21.422   9.272  13.651  0.47 49.78 LIG 0.13  C 
ATOM     16  CA  PRO C  79      21.825   6.894  13.708  0.47 62.24 LIG 0.17  C 
ATOM     17  CG  PRO C  79      20.965   8.689  14.904  0.47 51.96 LIG 0.02  C 
ATOM     18  CB  PRO C  79      20.816   7.264  14.754  0.47 58.89 LIG 0.04  C 
ATOM     19 O    PRO C  78      23.821   7.525  11.902  0.47 60.82 LIG-0.27  OA
BRANCH 16 20
ATOM     20  C   PRO C  79      21.398   5.623  13.012  0.47 69.87 LIG 0.22  C 
ATOM     21 O    PRO C  79      20.255   5.561  12.636  0.47 73.23 LIG-0.29  OA
ENDBRANCH 16 20
ENDBRANCH 10 13
ENDBRANCH 5 6
BRANCH 5 22
ATOM     22  CB  VAL C  77      19.122  10.921  10.509  0.47 43.60 LIG 0.01  C 
ATOM     23  CG2 VAL C  77      18.740   9.619  11.215  0.47 46.41 LIG 0.01  C 
ATOM     24  CG1 VAL C  77      17.850  11.528   9.906  0.47 37.55 LIG 0.01  C 
ENDBRANCH 5 22
ENDBRANCH 3 5
BRANCH 1 25
ATOM     25  CA  PRO C  76      19.056   8.758   6.403  0.47 40.28 LIG 0.18  C 
ATOM     26  N   PRO C  76      17.889   8.136   6.990  0.47 33.79 LIG-0.34  N 
ATOM     27  CD  PRO C  76      16.733   8.249   6.099  0.47 35.40 LIG 0.13  C 
ATOM     28  C   PRO C  75      18.018   7.101   7.787  0.47 33.84 LIG 0.24  C 
ATOM     29  CG  PRO C  76      17.166   9.268   5.137  0.47 37.80 LIG 0.02  C 
ATOM     30  CB  PRO C  76      18.534   9.354   5.090  0.47 38.87 LIG 0.04  C 
ATOM     31 O    PRO C  75      19.072   6.659   8.085  0.47 33.93 LIG-0.27  OA
BRANCH 28 32
ATOM     32  CA  PRO C  75      16.762   6.417   8.269  0.47 46.85 LIG 0.18  C 
ATOM     33  CB  PRO C  75      16.689   6.409   9.800  0.47 48.68 LIG 0.04  C 
ATOM     34  CG  PRO C  75      16.405   4.998  10.196  0.47 51.42 LIG 0.02  C 
ATOM     35  CD  PRO C  75      16.139   4.212   8.988  0.47 56.17 LIG 0.13  C 
ATOM     36  N   PRO C  75      16.773   5.001   7.936  0.47 56.81 LIG-0.34  N 
ATOM     37  C   PRO C  74      16.462   4.524   6.732  0.47 61.55 LIG 0.26  C 
ATOM     38 O    PRO C  74      16.163   5.202   5.768  0.47 61.23 LIG-0.27  OA
BRANCH 37 39
ATOM     39  CA  PRO C  74      16.483   3.020   6.577  0.47 57.58 LIG 0.35  C 
ATOM     40  N   PRO C  74      15.149   2.445   6.766  0.47 57.74 LIG 0.32  N 
ATOM     41  CD  PRO C  74      14.816   1.554   5.653  0.47 56.21 LIG 0.32  C 
ATOM     42  CG  PRO C  74      15.568   2.168   4.535  0.47 52.80 LIG 0.04  C 
ATOM     43  CB  PRO C  74      16.822   2.637   5.137  0.47 50.35 LIG 0.05  C 
ENDBRANCH 37 39
ENDBRANCH 28 32
ENDBRANCH 1 25
TORSDOF 8
ENDMDL
MODEL 15
USER: ADFR SOLUTION from run 145
USER: SCORE 11.951119 LL:  -3.339 LR:  -8.619 RR:   0.000 FEB:  -6.232
USER: RMSD 9.967200
USER: SEED 144
USER: STATUS no improvement in best in 28 clusters for 5 generations
USER: GENES 10
USER: genes 0 Translation |==|  0.53758 0.56580 0.50240
USER: genes 1 Rotation |==|  0.41118 0.82946 0.85270 0.59573
USER: genes 2 Torsion [C]-N--CA-[C] |==|  0.76483
USER: genes 3 Torsion [N]-CA--C-[N] |==|  0.98333
USER: genes 4 Torsion [N]-CA--C-[N] |==|  0.32407
USER: genes 5 Torsion [N]-CA--C-[O] |==|  0.18812
USER: genes 6 Torsion [N]-CA--CB-[CG2] |==|  0.25704
USER: genes 7 Torsion [O]-C--CA-[N] |==|  0.91283
USER: genes 8 Torsion [N]-C--CA-[N] |==|  0.41731
USER: genes 9 Torsion [N]-C--CA-[CB] |==|  0.75769
ROOT
ATOM      1  C   PRO C  76      16.692  10.475   5.946  0.47 42.64 LIG 0.24  C 
ATOM      2 O    PRO C  76      16.946  10.042   4.871  0.47 44.95 LIG-0.27  OA
ATOM      3  N   VAL C  77      15.705  11.305   6.166  0.47 42.25 LIG-0.35  N 
ATOM      4 H    VAL C  77      15.466  11.607   6.935  0.47 42.25 LIG 0.16  HD
ENDROOT
BRANCH 3 5
ATOM      5  CA  VAL C  77      14.940  11.766   5.047  0.47 44.36 LIG 0.17  C 
BRANCH 5 6
ATOM      6  C   VAL C  77      15.708  12.938   4.494  0.47 50.22 LIG 0.22  C 
ATOM      7 O    VAL C  77      15.298  13.503   3.517  0.47 51.68 LIG-0.28  OA
ATOM      8 N    PRO C  78      16.765  13.393   5.117  0.47 51.29 LIG-0.24  NA
ATOM      9  CD  PRO C  78      16.461  13.733   6.516  0.47 47.28 LIG 0.10  C 
ATOM     10  CA  PRO C  78      17.476  14.476   4.462  0.47 47.56 LIG 0.16  C 
ATOM     11  CG  PRO C  78      16.772  15.159   6.588  0.47 42.43 LIG 0.02  C 
ATOM     12  CB  PRO C  78      17.820  15.409   5.613  0.47 42.06 LIG 0.03  C 
BRANCH 10 13
ATOM     13  C   PRO C  78      18.634  13.866   3.715  0.47 54.03 LIG 0.24  C 
ATOM     14  N   PRO C  79      18.704  13.946   2.389  0.47 54.03 LIG-0.34  N 
ATOM     15  CD  PRO C  79      17.414  14.019   1.696  0.47 49.78 LIG 0.13  C 
ATOM     16  CA  PRO C  79      19.656  13.130   1.631  0.47 62.24 LIG 0.17  C 
ATOM     17  CG  PRO C  79      17.654  13.284   0.463  0.47 51.96 LIG 0.02  C 
ATOM     18  CB  PRO C  79      19.071  13.139   0.250  0.47 58.89 LIG 0.04  C 
ATOM     19 O    PRO C  78      19.431  13.260   4.383  0.47 60.82 LIG-0.27  OA
BRANCH 16 20
ATOM     20  C   PRO C  79      21.092  13.595   1.582  0.47 69.87 LIG 0.22  C 
ATOM     21 O    PRO C  79      21.717  13.557   2.612  0.47 73.23 LIG-0.29  OA
ENDBRANCH 16 20
ENDBRANCH 10 13
ENDBRANCH 5 6
BRANCH 5 22
ATOM     22  CB  VAL C  77      13.468  11.974   5.450  0.47 43.60 LIG 0.01  C 
ATOM     23  CG2 VAL C  77      13.320  13.435   5.875  0.47 46.41 LIG 0.01  C 
ATOM     24  CG1 VAL C  77      13.038  11.089   6.626  0.47 37.55 LIG 0.01  C 
ENDBRANCH 5 22
ENDBRANCH 3 5
BRANCH 1 25
ATOM     25  CA  PRO C  76      17.529  10.006   7.051  0.47 40.28 LIG 0.18  C 
ATOM     26  N   PRO C  76      17.937   8.654   6.737  0.47 33.79 LIG-0.34  N 
ATOM     27  CD  PRO C  76      19.396   8.545   6.695  0.47 35.40 LIG 0.13  C 
ATOM     28  C   PRO C  75      17.202   7.633   7.115  0.47 33.84 LIG 0.24  C 
ATOM     29  CG  PRO C  76      19.822   9.947   6.637  0.47 37.80 LIG 0.02  C 
ATOM     30  CB  PRO C  76      18.851  10.780   7.129  0.47 38.87 LIG 0.04  C 
ATOM     31 O    PRO C  75      16.177   7.768   7.687  0.47 33.93 LIG-0.27  OA
BRANCH 28 32
ATOM     32  CA  PRO C  75      17.739   6.245   6.870  0.47 46.85 LIG 0.18  C 
ATOM     33  CB  PRO C  75      17.189   5.661   5.563  0.47 48.68 LIG 0.04  C 
ATOM     34  CG  PRO C  75      16.660   4.307   5.902  0.47 51.42 LIG 0.02  C 
ATOM     35  CD  PRO C  75      17.018   3.992   7.288  0.47 56.17 LIG 0.13  C 
ATOM     36  N   PRO C  75      17.256   5.308   7.873  0.47 56.81 LIG-0.34  N 
ATOM     37  C   PRO C  74      17.782   5.197   9.092  0.47 61.55 LIG 0.26  C 
ATOM     38 O    PRO C  74      18.697   5.874   9.522  0.47 61.23 LIG-0.27  OA
BRANCH 37 39
ATOM     39  CA  PRO C  74      17.183   4.139   9.991  0.47 57.58 LIG 0.35  C 
ATOM     40  N   PRO C  74      18.107   3.764  11.063  0.47 57.74 LIG 0.32  N 
ATOM     41  CD  PRO C  74      17.433   3.826  12.362  0.47 56.21 LIG 0.32  C 
ATOM     42  CG  PRO C  74      16.434   4.894  12.136  0.47 52.80 LIG 0.04  C 
ATOM     43  CB  PRO C  74      15.984   4.703  10.751  0.47 50.35 LIG 0.05  C 
ENDBRANCH 37 39
ENDBRANCH 28 32
ENDBRANCH 1 25
TORSDOF 8
ENDMDL
MODEL 16
USER: ADFR SOLUTION from run 147
USER: SCORE 12.095122 LL:  -3.801 LR:  -8.571 RR:   0.000 FEB:  -6.185
USER: RMSD 10.225052
USER: SEED 146
USER: STATUS no improvement in best in 18 clusters for 5 generations
USER: GENES 10
USER: genes 0 Translation |==|  0.59314 0.24862 0.57963
USER: genes 1 Rotation |==|  0.29745 0.75406 0.76879 0.76867
USER: genes 2 Torsion [C]-N--CA-[C] |==|  0.63568
USER: genes 3 Torsion [N]-CA--C-[N] |==|  0.30595
USER: genes 4 Torsion [N]-CA--C-[N] |==|  0.50176
USER: genes 5 Torsion [N]-CA--C-[O] |==|  0.74640
USER: genes 6 Torsion [N]-CA--CB-[CG2] |==|  0.16197
USER: genes 7 Torsion [O]-C--CA-[N] |==|  0.36215
USER: genes 8 Torsion [N]-C--CA-[N] |==|  0.57147
USER: genes 9 Torsion [N]-C--CA-[CB] |==|  0.84110
ROOT
ATOM      1  C   PRO C  76      17.609   5.241   7.858  0.47 42.64 LIG 0.24  C 
ATOM      2 O    PRO C  76      18.542   4.700   7.365  0.47 44.95 LIG-0.27  OA
ATOM      3  N   VAL C  77      16.997   6.256   7.302  0.47 42.25 LIG-0.35  N 
ATOM      4 H    VAL C  77      16.295   6.646   7.608  0.47 42.25 LIG 0.16  HD
ENDROOT
BRANCH 3 5
ATOM      5  CA  VAL C  77      17.522   6.780   6.077  0.47 44.36 LIG 0.17  C 
BRANCH 5 6
ATOM      6  C   VAL C  77      17.602   8.270   6.282  0.47 50.22 LIG 0.22  C 
ATOM      7 O    VAL C  77      16.590   8.900   6.423  0.47 51.68 LIG-0.28  OA
ATOM      8 N    PRO C  78      18.763   8.864   6.390  0.47 51.29 LIG-0.24  NA
ATOM      9  CD  PRO C  78      19.577   8.265   7.458  0.47 47.28 LIG 0.10  C 
ATOM     10  CA  PRO C  78      18.732  10.311   6.509  0.47 47.56 LIG 0.16  C 
ATOM     11  CG  PRO C  78      19.801   9.382   8.374  0.47 42.43 LIG 0.02  C 
ATOM     12  CB  PRO C  78      19.785  10.592   7.569  0.47 42.06 LIG 0.03  C 
BRANCH 10 13
ATOM     13  C   PRO C  78      18.982  10.880   5.137  0.47 54.03 LIG 0.24  C 
ATOM     14  N   PRO C  79      19.022  12.195   4.944  0.47 54.03 LIG-0.34  N 
ATOM     15  CD  PRO C  79      18.206  12.990   5.868  0.47 49.78 LIG 0.13  C 
ATOM     16  CA  PRO C  79      18.982  12.765   3.594  0.47 62.24 LIG 0.17  C 
ATOM     17  CG  PRO C  79      17.742  14.094   5.041  0.47 51.96 LIG 0.02  C 
ATOM     18  CB  PRO C  79      18.541  14.176   3.845  0.47 58.89 LIG 0.04  C 
ATOM     19 O    PRO C  78      19.072  10.079   4.242  0.47 60.82 LIG-0.27  OA
BRANCH 16 20
ATOM     20  C   PRO C  79      20.264  12.763   2.796  0.47 69.87 LIG 0.22  C 
ATOM     21 O    PRO C  79      20.969  13.737   2.887  0.47 73.23 LIG-0.29  OA
ENDBRANCH 16 20
ENDBRANCH 10 13
ENDBRANCH 5 6
BRANCH 5 22
ATOM     22  CB  VAL C  77      16.721   6.243   4.876  0.47 43.60 LIG 0.01  C 
ATOM     23  CG2 VAL C  77      15.264   6.656   5.086  0.47 46.41 LIG 0.01  C 
ATOM     24  CG1 VAL C  77      16.771   4.715   4.756  0.47 37.55 LIG 0.01  C 
ENDBRANCH 5 22
ENDBRANCH 3 5
BRANCH 1 25
ATOM     25  CA  PRO C  76      17.137   4.695   9.130  0.47 40.28 LIG 0.18  C 
ATOM     26  N   PRO C  76      17.004   5.802  10.051  0.47 33.79 LIG-0.34  N 
ATOM     27  CD  PRO C  76      15.632   5.906  10.550  0.47 35.40 LIG 0.13  C 
ATOM     28  C   PRO C  75      18.017   6.165  10.804  0.47 33.84 LIG 0.24  C 
ATOM     29  CG  PRO C  76      14.886   5.052   9.619  0.47 37.80 LIG 0.02  C 
ATOM     30  CB  PRO C  76      15.711   4.140   9.015  0.47 38.87 LIG 0.04  C 
ATOM     31 O    PRO C  75      19.072   5.639  10.742  0.47 33.93 LIG-0.27  OA
BRANCH 28 32
ATOM     32  CA  PRO C  75      17.783   7.244  11.833  0.47 46.85 LIG 0.18  C 
ATOM     33  CB  PRO C  75      16.884   8.354  11.277  0.47 48.68 LIG 0.04  C 
ATOM     34  CG  PRO C  75      17.589   9.640  11.559  0.47 51.42 LIG 0.02  C 
ATOM     35  CD  PRO C  75      18.760   9.364  12.396  0.47 56.17 LIG 0.13  C 
ATOM     36  N   PRO C  75      19.016   7.948  12.147  0.47 56.81 LIG-0.34  N 
ATOM     37  C   PRO C  74      19.941   7.480  12.983  0.47 61.55 LIG 0.26  C 
ATOM     38 O    PRO C  74      19.886   6.408  13.555  0.47 61.23 LIG-0.27  OA
BRANCH 37 39
ATOM     39  CA  PRO C  74      21.141   8.367  13.226  0.47 57.58 LIG 0.35  C 
ATOM     40  N   PRO C  74      22.179   7.665  13.984  0.47 57.74 LIG 0.32  N 
ATOM     41  CD  PRO C  74      23.475   7.794  13.315  0.47 56.21 LIG 0.32  C 
ATOM     42  CG  PRO C  74      23.074   7.898  11.893  0.47 52.80 LIG 0.04  C 
ATOM     43  CB  PRO C  74      21.839   8.693  11.907  0.47 50.35 LIG 0.05  C 
ENDBRANCH 37 39
ENDBRANCH 28 32
ENDBRANCH 1 25
TORSDOF 8
ENDMDL
MODEL 17
USER: ADFR SOLUTION from run 121
USER: SCORE 11.539514 LL:  -3.230 LR:  -8.556 RR:   0.000 FEB:  -6.169
USER: RMSD 6.481602
USER: SEED 120
USER: STATUS no improvement in best in 24 clusters for 5 generations
USER: GENES 10
USER: genes 0 Translation |==|  0.66542 0.65435 0.46344
USER: genes 1 Rotation |==|  0.71836 0.26521 0.33753 0.84755
USER: genes 2 Torsion [C]-N--CA-[C] |==|  0.60600
USER: genes 3 Torsion [N]-CA--C-[N] |==|  0.37696
USER: genes 4 Torsion [N]-CA--C-[N] |==|  0.90114
USER: genes 5 Torsion [N]-CA--C-[O] |==|  0.79129
USER: genes 6 Torsion [N]-CA--CB-[CG2] |==|  0.44086
USER: genes 7 Torsion [O]-C--CA-[N] |==|  0.12370
USER: genes 8 Torsion [N]-C--CA-[N] |==|  0.51764
USER: genes 9 Torsion [N]-C--CA-[CB] |==|  0.70083
ROOT
ATOM      1  C   PRO C  76      18.801  11.936   4.982  0.47 42.64 LIG 0.24  C 
ATOM      2 O    PRO C  76      19.338  11.405   4.067  0.47 44.95 LIG-0.27  OA
ATOM      3  N   VAL C  77      18.308  11.276   6.000  0.47 42.25 LIG-0.35  N 
ATOM      4 H    VAL C  77      17.950  11.628   6.697  0.47 42.25 LIG 0.16  HD
ENDROOT
BRANCH 3 5
ATOM      5  CA  VAL C  77      18.356   9.845   5.972  0.47 44.36 LIG 0.17  C 
BRANCH 5 6
ATOM      6  C   VAL C  77      17.057   9.390   6.583  0.47 50.22 LIG 0.22  C 
ATOM      7 O    VAL C  77      16.618   9.974   7.536  0.47 51.68 LIG-0.28  OA
ATOM      8 N    PRO C  78      16.368   8.422   6.035  0.47 51.29 LIG-0.24  NA
ATOM      9  CD  PRO C  78      16.072   8.706   4.622  0.47 47.28 LIG 0.10  C 
ATOM     10  CA  PRO C  78      15.170   8.009   6.743  0.47 47.56 LIG 0.16  C 
ATOM     11  CG  PRO C  78      14.611   8.713   4.581  0.47 42.43 LIG 0.02  C 
ATOM     12  CB  PRO C  78      14.159   7.809   5.625  0.47 42.06 LIG 0.03  C 
BRANCH 10 13
ATOM     13  C   PRO C  78      15.528   6.795   7.560  0.47 54.03 LIG 0.24  C 
ATOM     14  N   PRO C  79      16.395   5.898   7.099  0.47 54.03 LIG-0.34  N 
ATOM     15  CD  PRO C  79      16.451   5.772   5.639  0.47 49.78 LIG 0.13  C 
ATOM     16  CA  PRO C  79      16.542   4.588   7.739  0.47 62.24 LIG 0.17  C 
ATOM     17  CG  PRO C  79      16.713   4.355   5.434  0.47 51.96 LIG 0.02  C 
ATOM     18  CB  PRO C  79      17.182   3.764   6.661  0.47 58.89 LIG 0.04  C 
ATOM     19 O    PRO C  78      14.936   6.666   8.601  0.47 60.82 LIG-0.27  OA
BRANCH 16 20
ATOM     20  C   PRO C  79      17.370   4.514   9.000  0.47 69.87 LIG 0.22  C 
ATOM     21 O    PRO C  79      18.568   4.576   8.874  0.47 73.23 LIG-0.29  OA
ENDBRANCH 16 20
ENDBRANCH 10 13
ENDBRANCH 5 6
BRANCH 5 22
ATOM     22  CB  VAL C  77      19.676   9.340   6.584  0.47 43.60 LIG 0.01  C 
ATOM     23  CG2 VAL C  77      19.447   7.890   7.012  0.47 46.41 LIG 0.01  C 
ATOM     24  CG1 VAL C  77      20.109  10.140   7.820  0.47 37.55 LIG 0.01  C 
ENDBRANCH 5 22
ENDBRANCH 3 5
BRANCH 1 25
ATOM     25  CA  PRO C  76      18.740  13.397   4.943  0.47 40.28 LIG 0.18  C 
ATOM     26  N   PRO C  76      18.353  13.775   3.602  0.47 33.79 LIG-0.34  N 
ATOM     27  CD  PRO C  76      17.119  14.563   3.617  0.47 35.40 LIG 0.13  C 
ATOM     28  C   PRO C  75      19.265  13.981   2.680  0.47 33.84 LIG 0.24  C 
ATOM     29  CG  PRO C  76      16.604  14.328   4.970  0.47 37.80 LIG 0.02  C 
ATOM     30  CB  PRO C  76      17.606  13.941   5.821  0.47 38.87 LIG 0.04  C 
ATOM     31 O    PRO C  75      20.418  13.837   2.887  0.47 33.93 LIG-0.27  OA
BRANCH 28 32
ATOM     32  CA  PRO C  75      18.809  14.495   1.336  0.47 46.85 LIG 0.18  C 
ATOM     33  CB  PRO C  75      17.819  13.526   0.680  0.47 48.68 LIG 0.04  C 
ATOM     34  CG  PRO C  75      18.322  13.290  -0.706  0.47 51.42 LIG 0.02  C 
ATOM     35  CD  PRO C  75      19.449  14.192  -0.959  0.47 56.17 LIG 0.13  C 
ATOM     36  N   PRO C  75      19.910  14.529   0.385  0.47 56.81 LIG-0.34  N 
ATOM     37  C   PRO C  74      20.820  15.500   0.344  0.47 61.55 LIG 0.26  C 
ATOM     38 O    PRO C  74      20.863  16.449   1.104  0.47 61.23 LIG-0.27  OA
BRANCH 37 39
ATOM     39  CA  PRO C  74      21.869  15.396  -0.740  0.47 57.58 LIG 0.35  C 
ATOM     40  N   PRO C  74      22.136  16.700  -1.350  0.47 57.74 LIG 0.32  N 
ATOM     41  CD  PRO C  74      23.575  16.968  -1.373  0.47 56.21 LIG 0.32  C 
ATOM     42  CG  PRO C  74      24.040  16.232  -0.175  0.47 52.80 LIG 0.04  C 
ATOM     43  CB  PRO C  74      23.220  15.014  -0.140  0.47 50.35 LIG 0.05  C 
ENDBRANCH 37 39
ENDBRANCH 28 32
ENDBRANCH 1 25
TORSDOF 8
ENDMDL
MODEL 18
USER: ADFR SOLUTION from run 71
USER: SCORE 11.880388 LL:  -3.373 LR:  -8.564 RR:   0.000 FEB:  -6.178
USER: RMSD 1.268055
USER: SEED 70
USER: STATUS no improvement in best in 18 clusters for 5 generations
USER: GENES 10
USER: genes 0 Translation |==|  0.47646 0.46809 0.49492
USER: genes 1 Rotation |==|  0.54484 0.48262 0.52974 0.99679
USER: genes 2 Torsion [C]-N--CA-[C] |==|  0.78056
USER: genes 3 Torsion [N]-CA--C-[N] |==|  0.46104
USER: genes 4 Torsion [N]-CA--C-[N] |==|  0.51579
USER: genes 5 Torsion [N]-CA--C-[O] |==|  0.88577
USER: genes 6 Torsion [N]-CA--CB-[CG2] |==|  0.81828
USER: genes 7 Torsion [O]-C--CA-[N] |==|  0.97490
USER: genes 8 Torsion [N]-C--CA-[N] |==|  0.53344
USER: genes 9 Torsion [N]-C--CA-[CB] |==|  0.81355
ROOT
ATOM      1  C   PRO C  76      15.684   8.862   5.761  0.47 42.64 LIG 0.24  C 
ATOM      2 O    PRO C  76      16.144   7.984   5.111  0.47 44.95 LIG-0.27  OA
ATOM      3  N   VAL C  77      16.320   9.420   6.761  0.47 42.25 LIG-0.35  N 
ATOM      4 H    VAL C  77      16.035  10.083   7.227  0.47 42.25 LIG 0.16  HD
ENDROOT
BRANCH 3 5
ATOM      5  CA  VAL C  77      17.601   8.897   7.129  0.47 44.36 LIG 0.17  C 
BRANCH 5 6
ATOM      6  C   VAL C  77      17.310   7.658   7.934  0.47 50.22 LIG 0.22  C 
ATOM      7 O    VAL C  77      16.182   7.427   8.274  0.47 51.68 LIG-0.28  OA
ATOM      8 N    PRO C  78      18.260   6.795   8.192  0.47 51.29 LIG-0.24  NA
ATOM      9  CD  PRO C  78      18.915   6.331   6.959  0.47 47.28 LIG 0.10  C 
ATOM     10  CA  PRO C  78      17.893   5.674   9.038  0.47 47.56 LIG 0.16  C 
ATOM     11  CG  PRO C  78      18.677   4.889   6.976  0.47 42.43 LIG 0.02  C 
ATOM     12  CB  PRO C  78      18.588   4.497   8.372  0.47 42.06 LIG 0.03  C 
BRANCH 10 13
ATOM     13  C   PRO C  78      18.325   6.011  10.442  0.47 54.03 LIG 0.24  C 
ATOM     14  N   PRO C  79      18.217   5.115  11.419  0.47 54.03 LIG-0.34  N 
ATOM     15  CD  PRO C  79      17.132   4.141  11.260  0.47 49.78 LIG 0.13  C 
ATOM     16  CA  PRO C  79      18.362   5.506  12.824  0.47 62.24 LIG 0.17  C 
ATOM     17  CG  PRO C  79      16.689   3.907  12.626  0.47 51.96 LIG 0.02  C 
ATOM     18  CB  PRO C  79      17.687   4.381  13.550  0.47 58.89 LIG 0.04  C 
ATOM     19 O    PRO C  78      18.699   7.141  10.621  0.47 60.82 LIG-0.27  OA
BRANCH 16 20
ATOM     20  C   PRO C  79      19.763   5.692  13.357  0.47 69.87 LIG 0.22  C 
ATOM     21 O    PRO C  79      20.593   4.888  13.012  0.47 73.23 LIG-0.29  OA
ENDBRANCH 16 20
ENDBRANCH 10 13
ENDBRANCH 5 6
BRANCH 5 22
ATOM     22  CB  VAL C  77      18.470  10.000   7.761  0.47 43.60 LIG 0.01  C 
ATOM     23  CG2 VAL C  77      18.745  11.036   6.671  0.47 46.41 LIG 0.01  C 
ATOM     24  CG1 VAL C  77      19.818   9.480   8.276  0.47 37.55 LIG 0.01  C 
ENDBRANCH 5 22
ENDBRANCH 3 5
BRANCH 1 25
ATOM     25  CA  PRO C  76      14.354   9.333   5.371  0.47 40.28 LIG 0.18  C 
ATOM     26  N   PRO C  76      14.030   8.706   4.108  0.47 33.79 LIG-0.34  N 
ATOM     27  CD  PRO C  76      12.799   7.922   4.215  0.47 35.40 LIG 0.13  C 
ATOM     28  C   PRO C  75      14.356   9.286   2.976  0.47 33.84 LIG 0.24  C 
ATOM     29  CG  PRO C  76      12.610   7.815   5.665  0.47 37.80 LIG 0.02  C 
ATOM     30  CB  PRO C  76      13.268   8.820   6.326  0.47 38.87 LIG 0.04  C 
ATOM     31 O    PRO C  75      14.947  10.308   2.935  0.47 33.93 LIG-0.27  OA
BRANCH 28 32
ATOM     32  CA  PRO C  75      13.882   8.649   1.693  0.47 46.85 LIG 0.18  C 
ATOM     33  CB  PRO C  75      14.299   7.175   1.620  0.47 48.68 LIG 0.04  C 
ATOM     34  CG  PRO C  75      14.953   6.993   0.291  0.47 51.42 LIG 0.02  C 
ATOM     35  CD  PRO C  75      14.794   8.224  -0.488  0.47 56.17 LIG 0.13  C 
ATOM     36  N   PRO C  75      14.548   9.233   0.538  0.47 56.81 LIG-0.34  N 
ATOM     37  C   PRO C  74      14.188  10.392  -0.012  0.47 61.55 LIG 0.26  C 
ATOM     38 O    PRO C  74      13.294  11.109   0.393  0.47 61.23 LIG-0.27  OA
BRANCH 37 39
ATOM     39  CA  PRO C  74      14.964  10.825  -1.236  0.47 57.58 LIG 0.35  C 
ATOM     40  N   PRO C  74      14.465  12.098  -1.760  0.47 57.74 LIG 0.32  N 
ATOM     41  CD  PRO C  74      15.570  13.038  -1.957  0.47 56.21 LIG 0.32  C 
ATOM     42  CG  PRO C  74      16.521  12.614  -0.905  0.47 52.80 LIG 0.04  C 
ATOM     43  CB  PRO C  74      16.409  11.150  -0.863  0.47 50.35 LIG 0.05  C 
ENDBRANCH 37 39
ENDBRANCH 28 32
ENDBRANCH 1 25
TORSDOF 8
ENDMDL
MODEL 19
USER: ADFR SOLUTION from run 132
USER: SCORE 12.984554 LL:  -4.444 LR:  -8.542 RR:   0.000 FEB:  -6.156
USER: RMSD 5.056052
USER: SEED 131
USER: STATUS no improvement in best in 23 clusters for 5 generations
USER: GENES 10
USER: genes 0 Translation |==|  0.69128 0.47239 0.53333
USER: genes 1 Rotation |==|  0.49061 0.28762 0.49811 0.95255
USER: genes 2 Torsion [C]-N--CA-[C] |==|  0.81484
USER: genes 3 Torsion [N]-CA--C-[N] |==|  0.94417
USER: genes 4 Torsion [N]-CA--C-[N] |==|  0.60983
USER: genes 5 Torsion [N]-CA--C-[O] |==|  0.34789
USER: genes 6 Torsion [N]-CA--CB-[CG2] |==|  0.75561
USER: genes 7 Torsion [O]-C--CA-[N] |==|  0.31559
USER: genes 8 Torsion [N]-C--CA-[N] |==|  0.35405
USER: genes 9 Torsion [N]-C--CA-[CB] |==|  0.83171
ROOT
ATOM      1  C   PRO C  76      19.228   8.933   6.712  0.47 42.64 LIG 0.24  C 
ATOM      2 O    PRO C  76      19.788   7.889   6.656  0.47 44.95 LIG-0.27  OA
ATOM      3  N   VAL C  77      19.089   9.610   7.823  0.47 42.25 LIG-0.35  N 
ATOM      4 H    VAL C  77      18.726  10.386   7.895  0.47 42.25 LIG 0.16  HD
ENDROOT
BRANCH 3 5
ATOM      5  CA  VAL C  77      19.574   9.030   9.040  0.47 44.36 LIG 0.17  C 
BRANCH 5 6
ATOM      6  C   VAL C  77      18.697   7.831   9.288  0.47 50.22 LIG 0.22  C 
ATOM      7 O    VAL C  77      19.049   6.997  10.076  0.47 51.68 LIG-0.28  OA
ATOM      8 N    PRO C  78      17.523   7.736   8.715  0.47 51.29 LIG-0.24  NA
ATOM      9  CD  PRO C  78      16.689   8.913   9.001  0.47 47.28 LIG 0.10  C 
ATOM     10  CA  PRO C  78      16.791   6.507   8.961  0.47 47.56 LIG 0.16  C 
ATOM     11  CG  PRO C  78      15.530   8.343   9.685  0.47 42.43 LIG 0.02  C 
ATOM     12  CB  PRO C  78      15.365   6.993   9.174  0.47 42.06 LIG 0.03  C 
BRANCH 10 13
ATOM     13  C   PRO C  78      17.029   5.599   7.782  0.47 54.03 LIG 0.24  C 
ATOM     14  N   PRO C  79      16.044   4.855   7.289  0.47 54.03 LIG-0.34  N 
ATOM     15  CD  PRO C  79      15.015   4.454   8.255  0.47 49.78 LIG 0.13  C 
ATOM     16  CA  PRO C  79      16.316   3.771   6.340  0.47 62.24 LIG 0.17  C 
ATOM     17  CG  PRO C  79      14.630   3.126   7.802  0.47 51.96 LIG 0.02  C 
ATOM     18  CB  PRO C  79      15.087   2.919   6.452  0.47 58.89 LIG 0.04  C 
ATOM     19 O    PRO C  78      18.162   5.549   7.377  0.47 60.82 LIG-0.27  OA
BRANCH 16 20
ATOM     20  C   PRO C  79      16.549   4.148   4.896  0.47 69.87 LIG 0.22  C 
ATOM     21 O    PRO C  79      17.572   3.764   4.387  0.47 73.23 LIG-0.29  OA
ENDBRANCH 16 20
ENDBRANCH 10 13
ENDBRANCH 5 6
BRANCH 5 22
ATOM     22  CB  VAL C  77      19.685  10.102  10.140  0.47 43.60 LIG 0.01  C 
ATOM     23  CG2 VAL C  77      21.073  10.733  10.015  0.47 46.41 LIG 0.01  C 
ATOM     24  CG1 VAL C  77      19.548   9.526  11.555  0.47 37.55 LIG 0.01  C 
ENDBRANCH 5 22
ENDBRANCH 3 5
BRANCH 1 25
ATOM     25  CA  PRO C  76      18.714   9.464   5.449  0.47 40.28 LIG 0.18  C 
ATOM     26  N   PRO C  76      17.270   9.464   5.539  0.47 33.79 LIG-0.34  N 
ATOM     27  CD  PRO C  76      16.736  10.814   5.353  0.47 35.40 LIG 0.13  C 
ATOM     28  C   PRO C  75      16.580   8.415   5.157  0.47 33.84 LIG 0.24  C 
ATOM     29  CG  PRO C  76      17.925  11.657   5.511  0.47 37.80 LIG 0.02  C 
ATOM     30  CB  PRO C  76      19.071  10.944   5.268  0.47 38.87 LIG 0.04  C 
ATOM     31 O    PRO C  75      17.095   7.428   4.762  0.47 33.93 LIG-0.27  OA
BRANCH 28 32
ATOM     32  CA  PRO C  75      15.074   8.519   5.156  0.47 46.85 LIG 0.18  C 
ATOM     33  CB  PRO C  75      14.449   7.502   6.118  0.47 48.68 LIG 0.04  C 
ATOM     34  CG  PRO C  75      13.395   6.787   5.340  0.47 51.42 LIG 0.02  C 
ATOM     35  CD  PRO C  75      13.248   7.437   4.034  0.47 56.17 LIG 0.13  C 
ATOM     36  N   PRO C  75      14.520   8.133   3.868  0.47 56.81 LIG-0.34  N 
ATOM     37  C   PRO C  74      14.485   8.939   2.808  0.47 61.55 LIG 0.26  C 
ATOM     38 O    PRO C  74      14.931  10.070   2.777  0.47 61.23 LIG-0.27  OA
BRANCH 37 39
ATOM     39  CA  PRO C  74      13.831   8.386   1.562  0.47 57.58 LIG 0.35  C 
ATOM     40  N   PRO C  74      13.970   9.308   0.433  0.47 57.74 LIG 0.32  N 
ATOM     41  CD  PRO C  74      14.496   8.604  -0.739  0.47 56.21 LIG 0.32  C 
ATOM     42  CG  PRO C  74      15.322   7.547  -0.113  0.47 52.80 LIG 0.04  C 
ATOM     43  CB  PRO C  74      14.571   7.139   1.081  0.47 50.35 LIG 0.05  C 
ENDBRANCH 37 39
ENDBRANCH 28 32
ENDBRANCH 1 25
TORSDOF 8
ENDMDL
MODEL 20
USER: ADFR SOLUTION from run 146
USER: SCORE 12.374644 LL:  -3.936 LR:  -8.545 RR:   0.000 FEB:  -6.158
USER: RMSD 10.558194
USER: SEED 145
USER: STATUS no improvement in best in 25 clusters for 5 generations
USER: GENES 10
USER: genes 0 Translation |==|  0.61126 0.47728 0.49789
USER: genes 1 Rotation |==|  0.45313 0.85749 0.84390 0.54168
USER: genes 2 Torsion [C]-N--CA-[C] |==|  0.71668
USER: genes 3 Torsion [N]-CA--C-[N] |==|  0.96900
USER: genes 4 Torsion [N]-CA--C-[N] |==|  0.35863
USER: genes 5 Torsion [N]-CA--C-[O] |==|  0.17462
USER: genes 6 Torsion [N]-CA--CB-[CG2] |==|  0.03094
USER: genes 7 Torsion [O]-C--CA-[N] |==|  0.52528
USER: genes 8 Torsion [N]-C--CA-[N] |==|  0.35229
USER: genes 9 Torsion [N]-C--CA-[CB] |==|  0.59031
ROOT
ATOM      1  C   PRO C  76      17.908   9.014   5.835  0.47 42.64 LIG 0.24  C 
ATOM      2 O    PRO C  76      17.872   8.466   4.783  0.47 44.95 LIG-0.27  OA
ATOM      3  N   VAL C  77      16.993   9.864   6.228  0.47 42.25 LIG-0.35  N 
ATOM      4 H    VAL C  77      16.964  10.247   6.997  0.47 42.25 LIG 0.16  HD
ENDROOT
BRANCH 3 5
ATOM      5  CA  VAL C  77      15.939  10.199   5.319  0.47 44.36 LIG 0.17  C 
BRANCH 5 6
ATOM      6  C   VAL C  77      16.305  11.551   4.765  0.47 50.22 LIG 0.22  C 
ATOM      7 O    VAL C  77      15.648  12.021   3.876  0.47 51.68 LIG-0.28  OA
ATOM      8 N    PRO C  78      17.275  12.248   5.300  0.47 51.29 LIG-0.24  NA
ATOM      9  CD  PRO C  78      17.064  12.446   6.742  0.47 47.28 LIG 0.10  C 
ATOM     10  CA  PRO C  78      17.596  13.503   4.645  0.47 47.56 LIG 0.16  C 
ATOM     11  CG  PRO C  78      17.000  13.900   6.875  0.47 42.43 LIG 0.02  C 
ATOM     12  CB  PRO C  78      17.822  14.453   5.811  0.47 42.06 LIG 0.03  C 
BRANCH 10 13
ATOM     13  C   PRO C  78      18.774  13.248   3.740  0.47 54.03 LIG 0.24  C 
ATOM     14  N   PRO C  79      18.743  13.621   2.464  0.47 54.03 LIG-0.34  N 
ATOM     15  CD  PRO C  79      17.410  13.647   1.850  0.47 49.78 LIG 0.13  C 
ATOM     16  CA  PRO C  79      19.745  13.139   1.509  0.47 62.24 LIG 0.17  C 
ATOM     17  CG  PRO C  79      17.666  13.239   0.477  0.47 51.96 LIG 0.02  C 
ATOM     18  CB  PRO C  79      19.072  13.357   0.187  0.47 58.89 LIG 0.04  C 
ATOM     19 O    PRO C  78      19.691  12.639   4.228  0.47 60.82 LIG-0.27  OA
BRANCH 16 20
ATOM     20  C   PRO C  79      21.096  13.813   1.514  0.47 69.87 LIG 0.22  C 
ATOM     21 O    PRO C  79      21.751  13.724   2.522  0.47 73.23 LIG-0.29  OA
ENDBRANCH 16 20
ENDBRANCH 10 13
ENDBRANCH 5 6
BRANCH 5 22
ATOM     22  CB  VAL C  77      14.568  10.027   5.998  0.47 43.60 LIG 0.01  C 
ATOM     23  CG2 VAL C  77      14.827   9.827   7.492  0.47 46.41 LIG 0.01  C 
ATOM     24  CG1 VAL C  77      13.790   8.810   5.481  0.47 37.55 LIG 0.01  C 
ENDBRANCH 5 22
ENDBRANCH 3 5
BRANCH 1 25
ATOM     25  CA  PRO C  76      19.027   8.669   6.711  0.47 40.28 LIG 0.18  C 
ATOM     26  N   PRO C  76      18.765   9.269   8.001  0.47 33.79 LIG-0.34  N 
ATOM     27  CD  PRO C  76      18.723   8.252   9.052  0.47 35.40 LIG 0.13  C 
ATOM     28  C   PRO C  75      19.185  10.485   8.265  0.47 33.84 LIG 0.24  C 
ATOM     29  CG  PRO C  76      18.610   7.004   8.289  0.47 37.80 LIG 0.02  C 
ATOM     30  CB  PRO C  76      19.072   7.164   7.008  0.47 38.87 LIG 0.04  C 
ATOM     31 O    PRO C  75      19.753  11.146   7.468  0.47 33.93 LIG-0.27  OA
BRANCH 28 32
ATOM     32  CA  PRO C  75      18.992  11.011   9.666  0.47 46.85 LIG 0.18  C 
ATOM     33  CB  PRO C  75      18.104  12.260   9.671  0.47 48.68 LIG 0.04  C 
ATOM     34  CG  PRO C  75      18.837  13.290  10.464  0.47 51.42 LIG 0.02  C 
ATOM     35  CD  PRO C  75      20.020  12.669  11.067  0.47 56.17 LIG 0.13  C 
ATOM     36  N   PRO C  75      20.245  11.500  10.222  0.47 56.81 LIG-0.34  N 
ATOM     37  C   PRO C  74      21.178  10.708  10.746  0.47 61.55 LIG 0.26  C 
ATOM     38 O    PRO C  74      21.115   9.494  10.798  0.47 61.23 LIG-0.27  OA
BRANCH 37 39
ATOM     39  CA  PRO C  74      22.399  11.393  11.318  0.47 57.58 LIG 0.35  C 
ATOM     40  N   PRO C  74      22.302  11.529  12.773  0.47 57.74 LIG 0.32  N 
ATOM     41  CD  PRO C  74      23.517  11.025  13.416  0.47 56.21 LIG 0.32  C 
ATOM     42  CG  PRO C  74      23.949   9.974  12.467  0.47 52.80 LIG 0.04  C 
ATOM     43  CB  PRO C  74      23.636  10.514  11.137  0.47 50.35 LIG 0.05  C 
ENDBRANCH 37 39
ENDBRANCH 28 32
ENDBRANCH 1 25
TORSDOF 8
ENDMDL
MODEL 21
USER: ADFR SOLUTION from run 15
USER: SCORE 10.976761 LL:  -3.563 LR:  -8.495 RR:   0.000 FEB:  -6.109
USER: RMSD 10.661480
USER: SEED 2139
USER: STATUS no improvement in best in 22 clusters for 5 generations
USER: GENES 10
USER: genes 0 Translation |==|  0.44481 0.54879 0.45785
USER: genes 1 Rotation |==|  0.76303 0.55309 0.08636 0.58304
USER: genes 2 Torsion [C]-N--CA-[C] |==|  0.20842
USER: genes 3 Torsion [N]-CA--C-[N] |==|  0.33511
USER: genes 4 Torsion [N]-CA--C-[N] |==|  0.38288
USER: genes 5 Torsion [N]-CA--C-[O] |==|  0.11869
USER: genes 6 Torsion [N]-CA--CB-[CG2] |==|  0.68420
USER: genes 7 Torsion [O]-C--CA-[N] |==|  0.62581
USER: genes 8 Torsion [N]-C--CA-[N] |==|  0.41749
USER: genes 9 Torsion [N]-C--CA-[CB] |==|  0.83148
ROOT
ATOM      1  C   PRO C  76      15.161  10.194   4.844  0.47 42.64 LIG 0.24  C 
ATOM      2 O    PRO C  76      15.066  11.270   4.354  0.47 44.95 LIG-0.27  OA
ATOM      3  N   VAL C  77      14.403   9.184   4.501  0.47 42.25 LIG-0.35  N 
ATOM      4 H    VAL C  77      14.470   8.382   4.804  0.47 42.25 LIG 0.16  HD
ENDROOT
BRANCH 3 5
ATOM      5  CA  VAL C  77      13.364   9.407   3.541  0.47 44.36 LIG 0.17  C 
BRANCH 5 6
ATOM      6  C   VAL C  77      14.065   9.513   2.212  0.47 50.22 LIG 0.22  C 
ATOM      7 O    VAL C  77      14.947  10.316   2.073  0.47 51.68 LIG-0.28  OA
ATOM      8 N    PRO C  78      13.778   8.683   1.241  0.47 51.29 LIG-0.24  NA
ATOM      9  CD  PRO C  78      13.929   7.283   1.667  0.47 47.28 LIG 0.10  C 
ATOM     10  CA  PRO C  78      14.455   8.918  -0.021  0.47 47.56 LIG 0.16  C 
ATOM     11  CG  PRO C  78      14.947   6.764   0.756  0.47 42.43 LIG 0.02  C 
ATOM     12  CB  PRO C  78      14.822   7.516  -0.482  0.47 42.06 LIG 0.03  C 
BRANCH 10 13
ATOM     13  C   PRO C  78      13.509   9.694  -0.901  0.47 54.03 LIG 0.24  C 
ATOM     14  N   PRO C  79      13.948  10.709  -1.639  0.47 54.03 LIG-0.34  N 
ATOM     15  CD  PRO C  79      15.110  11.423  -1.099  0.47 49.78 LIG 0.13  C 
ATOM     16  CA  PRO C  79      13.013  11.643  -2.274  0.47 62.24 LIG 0.17  C 
ATOM     17  CG  PRO C  79      14.873  12.802  -1.502  0.47 51.96 LIG 0.02  C 
ATOM     18  CB  PRO C  79      13.875  12.842  -2.539  0.47 58.89 LIG 0.04  C 
ATOM     19 O    PRO C  78      12.349   9.380  -0.833  0.47 60.82 LIG-0.27  OA
BRANCH 16 20
ATOM     20  C   PRO C  79      12.343  11.201  -3.553  0.47 69.87 LIG 0.22  C 
ATOM     21 O    PRO C  79      11.936  10.068  -3.596  0.47 73.23 LIG-0.29  OA
ENDBRANCH 16 20
ENDBRANCH 10 13
ENDBRANCH 5 6
BRANCH 5 22
ATOM     22  CB  VAL C  77      12.457  10.567   3.990  0.47 43.60 LIG 0.01  C 
ATOM     23  CG2 VAL C  77      11.080   9.972   4.286  0.47 46.41 LIG 0.01  C 
ATOM     24  CG1 VAL C  77      12.288  11.648   2.914  0.47 37.55 LIG 0.01  C 
ENDBRANCH 5 22
ENDBRANCH 3 5
BRANCH 1 25
ATOM     25  CA  PRO C  76      16.210  10.029   5.850  0.47 40.28 LIG 0.18  C 
ATOM     26  N   PRO C  76      16.893   8.787   5.560  0.47 33.79 LIG-0.34  N 
ATOM     27  CD  PRO C  76      18.319   9.017   5.329  0.47 35.40 LIG 0.13  C 
ATOM     28  C   PRO C  75      16.475   7.660   6.089  0.47 33.84 LIG 0.24  C 
ATOM     29  CG  PRO C  76      18.385  10.469   5.137  0.47 37.80 LIG 0.02  C 
ATOM     30  CB  PRO C  76      17.306  11.092   5.708  0.47 38.87 LIG 0.04  C 
ATOM     31 O    PRO C  75      15.523   7.601   6.784  0.47 33.93 LIG-0.27  OA
BRANCH 28 32
ATOM     32  CA  PRO C  75      17.300   6.418   5.851  0.47 46.85 LIG 0.18  C 
ATOM     33  CB  PRO C  75      16.758   5.614   4.663  0.47 48.68 LIG 0.04  C 
ATOM     34  CG  PRO C  75      16.614   4.208   5.144  0.47 51.42 LIG 0.02  C 
ATOM     35  CD  PRO C  75      17.196   4.104   6.485  0.47 56.17 LIG 0.13  C 
ATOM     36  N   PRO C  75      17.176   5.484   6.960  0.47 56.81 LIG-0.34  N 
ATOM     37  C   PRO C  74      17.851   5.602   8.102  0.47 61.55 LIG 0.26  C 
ATOM     38 O    PRO C  74      18.619   6.507   8.369  0.47 61.23 LIG-0.27  OA
BRANCH 37 39
ATOM     39  CA  PRO C  74      17.633   4.514   9.129  0.47 57.58 LIG 0.35  C 
ATOM     40  N   PRO C  74      18.322   4.820  10.385  0.47 57.74 LIG 0.32  N 
ATOM     41  CD  PRO C  74      17.403   4.689  11.517  0.47 56.21 LIG 0.32  C 
ATOM     42  CG  PRO C  74      16.105   5.039  10.896  0.47 52.80 LIG 0.04  C 
ATOM     43  CB  PRO C  74      16.164   4.463   9.547  0.47 50.35 LIG 0.05  C 
ENDBRANCH 37 39
ENDBRANCH 28 32
ENDBRANCH 1 25
TORSDOF 8
ENDMDL
MODEL 22
USER: ADFR SOLUTION from run 77
USER: SCORE 12.255140 LL:  -3.810 LR:  -8.477 RR:   0.000 FEB:  -6.091
USER: RMSD 7.735572
USER: SEED 76
USER: STATUS no improvement in best in 25 clusters for 5 generations
USER: GENES 10
USER: genes 0 Translation |==|  0.62020 0.46316 0.49679
USER: genes 1 Rotation |==|  0.79335 0.29067 0.24975 0.73980
USER: genes 2 Torsion [C]-N--CA-[C] |==|  0.74755
USER: genes 3 Torsion [N]-CA--C-[N] |==|  0.98185
USER: genes 4 Torsion [N]-CA--C-[N] |==|  0.34978
USER: genes 5 Torsion [N]-CA--C-[O] |==|  0.05942
USER: genes 6 Torsion [N]-CA--CB-[CG2] |==|  0.84993
USER: genes 7 Torsion [O]-C--CA-[N] |==|  0.19178
USER: genes 8 Torsion [N]-C--CA-[N] |==|  0.56853
USER: genes 9 Torsion [N]-C--CA-[CB] |==|  0.69928
ROOT
ATOM      1  C   PRO C  76      18.055   8.781   5.807  0.47 42.64 LIG 0.24  C 
ATOM      2 O    PRO C  76      18.612   8.751   4.760  0.47 44.95 LIG-0.27  OA
ATOM      3  N   VAL C  77      17.330   7.789   6.259  0.47 42.25 LIG-0.35  N 
ATOM      4 H    VAL C  77      16.947   7.759   7.028  0.47 42.25 LIG 0.16  HD
ENDROOT
BRANCH 3 5
ATOM      5  CA  VAL C  77      17.143   6.645   5.419  0.47 44.36 LIG 0.17  C 
BRANCH 5 6
ATOM      6  C   VAL C  77      15.890   6.927   4.632  0.47 50.22 LIG 0.22  C 
ATOM      7 O    VAL C  77      15.520   6.134   3.810  0.47 51.68 LIG-0.28  OA
ATOM      8 N    PRO C  78      15.162   7.982   4.898  0.47 51.29 LIG-0.24  NA
ATOM      9  CD  PRO C  78      14.768   8.021   6.315  0.47 47.28 LIG 0.10  C 
ATOM     10  CA  PRO C  78      14.017   8.202   4.034  0.47 47.56 LIG 0.16  C 
ATOM     11  CG  PRO C  78      13.308   7.997   6.256  0.47 42.43 LIG 0.02  C 
ATOM     12  CB  PRO C  78      12.929   8.633   5.005  0.47 42.06 LIG 0.03  C 
BRANCH 10 13
ATOM     13  C   PRO C  78      14.430   9.206   2.989  0.47 54.03 LIG 0.24  C 
ATOM     14  N   PRO C  79      14.286   8.936   1.695  0.47 54.03 LIG-0.34  N 
ATOM     15  CD  PRO C  79      14.364   7.516   1.337  0.47 49.78 LIG 0.13  C 
ATOM     16  CA  PRO C  79      14.931   9.765   0.672  0.47 62.24 LIG 0.17  C 
ATOM     17  CG  PRO C  79      15.008   7.534   0.031  0.47 51.96 LIG 0.02  C 
ATOM     18  CB  PRO C  79      14.946   8.861  -0.524  0.47 58.89 LIG 0.04  C 
ATOM     19 O    PRO C  78      14.947  10.212   3.400  0.47 60.82 LIG-0.27  OA
BRANCH 16 20
ATOM     20  C   PRO C  79      14.270  11.076   0.316  0.47 69.87 LIG 0.22  C 
ATOM     21 O    PRO C  79      13.514  11.548   1.127  0.47 73.23 LIG-0.29  OA
ENDBRANCH 16 20
ENDBRANCH 10 13
ENDBRANCH 5 6
BRANCH 5 22
ATOM     22  CB  VAL C  77      17.216   5.350   6.249  0.47 43.60 LIG 0.01  C 
ATOM     23  CG2 VAL C  77      18.539   5.382   7.016  0.47 46.41 LIG 0.01  C 
ATOM     24  CG1 VAL C  77      17.195   4.082   5.387  0.47 37.55 LIG 0.01  C 
ENDBRANCH 5 22
ENDBRANCH 3 5
BRANCH 1 25
ATOM     25  CA  PRO C  76      18.244   9.990   6.610  0.47 40.28 LIG 0.18  C 
ATOM     26  N   PRO C  76      17.558  11.068   5.931  0.47 33.79 LIG-0.34  N 
ATOM     27  CD  PRO C  76      16.540  11.666   6.795  0.47 35.40 LIG 0.13  C 
ATOM     28  C   PRO C  75      18.187  11.796   5.038  0.47 33.84 LIG 0.24  C 
ATOM     29  CG  PRO C  76      16.403  10.674   7.867  0.47 37.80 LIG 0.02  C 
ATOM     30  CB  PRO C  76      17.525   9.891   7.962  0.47 38.87 LIG 0.04  C 
ATOM     31 O    PRO C  75      19.308  11.589   4.727  0.47 33.93 LIG-0.27  OA
BRANCH 28 32
ATOM     32  CA  PRO C  75      17.461  12.984   4.454  0.47 46.85 LIG 0.18  C 
ATOM     33  CB  PRO C  75      15.995  12.646   4.161  0.47 48.68 LIG 0.04  C 
ATOM     34  CG  PRO C  75      15.743  13.074   2.753  0.47 51.42 LIG 0.02  C 
ATOM     35  CD  PRO C  75      16.920  13.796   2.260  0.47 56.17 LIG 0.13  C 
ATOM     36  N   PRO C  75      17.986  13.328   3.142  0.47 56.81 LIG-0.34  N 
ATOM     37  C   PRO C  74      19.100  14.034   2.954  0.47 61.55 LIG 0.26  C 
ATOM     38 O    PRO C  74      19.823  14.445   3.841  0.47 61.23 LIG-0.27  OA
BRANCH 37 39
ATOM     39  CA  PRO C  74      19.472  14.338   1.520  0.47 57.58 LIG 0.35  C 
ATOM     40  N   PRO C  74      19.942  15.717   1.372  0.47 57.74 LIG 0.32  N 
ATOM     41  CD  PRO C  74      21.221  15.746   0.660  0.47 56.21 LIG 0.32  C 
ATOM     42  CG  PRO C  74      21.817  14.449   1.052  0.47 52.80 LIG 0.04  C 
ATOM     43  CB  PRO C  74      20.687  13.513   1.099  0.47 50.35 LIG 0.05  C 
ENDBRANCH 37 39
ENDBRANCH 28 32
ENDBRANCH 1 25
TORSDOF 8
ENDMDL
MODEL 23
USER: ADFR SOLUTION from run 181
USER: SCORE 12.188967 LL:  -3.750 LR:  -8.476 RR:   0.000 FEB:  -6.089
USER: RMSD 5.654514
USER: SEED 180
USER: STATUS no improvement in best in 34 clusters for 5 generations
USER: GENES 10
USER: genes 0 Translation |==|  0.38713 0.54283 0.35430
USER: genes 1 Rotation |==|  0.72806 0.28657 0.83564 0.69945
USER: genes 2 Torsion [C]-N--CA-[C] |==|  0.78572
USER: genes 3 Torsion [N]-CA--C-[N] |==|  0.40940
USER: genes 4 Torsion [N]-CA--C-[N] |==|  0.32026
USER: genes 5 Torsion [N]-CA--C-[O] |==|  0.90690
USER: genes 6 Torsion [N]-CA--CB-[CG2] |==|  0.52154
USER: genes 7 Torsion [O]-C--CA-[N] |==|  0.02796
USER: genes 8 Torsion [N]-C--CA-[N] |==|  0.89490
USER: genes 9 Torsion [N]-C--CA-[CB] |==|  0.57262
ROOT
ATOM      1  C   PRO C  76      14.210  10.096   2.281  0.47 42.64 LIG 0.24  C 
ATOM      2 O    PRO C  76      14.943  10.940   2.677  0.47 44.95 LIG-0.27  OA
ATOM      3  N   VAL C  77      13.642   9.217   3.068  0.47 42.25 LIG-0.35  N 
ATOM      4 H    VAL C  77      13.076   8.618   2.823  0.47 42.25 LIG 0.16  HD
ENDROOT
BRANCH 3 5
ATOM      5  CA  VAL C  77      13.977   9.232   4.460  0.47 44.36 LIG 0.17  C 
BRANCH 5 6
ATOM      6  C   VAL C  77      15.332   8.581   4.552  0.47 50.22 LIG 0.22  C 
ATOM      7 O    VAL C  77      15.650   7.763   3.732  0.47 51.68 LIG-0.28  OA
ATOM      8 N    PRO C  78      16.191   8.960   5.465  0.47 51.29 LIG-0.24  NA
ATOM      9  CD  PRO C  78      16.442  10.408   5.400  0.47 47.28 LIG 0.10  C 
ATOM     10  CA  PRO C  78      17.437   8.218   5.516  0.47 47.56 LIG 0.16  C 
ATOM     11  CG  PRO C  78      17.878  10.486   5.137  0.47 42.43 LIG 0.02  C 
ATOM     12  CB  PRO C  78      18.477   9.305   5.735  0.47 42.06 LIG 0.03  C 
BRANCH 10 13
ATOM     13  C   PRO C  78      17.299   7.183   6.603  0.47 54.03 LIG 0.24  C 
ATOM     14  N   PRO C  79      17.318   5.886   6.311  0.47 54.03 LIG-0.34  N 
ATOM     15  CD  PRO C  79      16.822   5.536   4.975  0.47 49.78 LIG 0.13  C 
ATOM     16  CA  PRO C  79      16.908   4.881   7.297  0.47 62.24 LIG 0.17  C 
ATOM     17  CG  PRO C  79      16.170   4.251   5.186  0.47 51.96 LIG 0.02  C 
ATOM     18  CB  PRO C  79      16.595   3.689   6.442  0.47 58.89 LIG 0.04  C 
ATOM     19 O    PRO C  78      17.108   7.607   7.713  0.47 60.82 LIG-0.27  OA
BRANCH 16 20
ATOM     20  C   PRO C  79      17.908   4.500   8.363  0.47 69.87 LIG 0.22  C 
ATOM     21 O    PRO C  79      19.072   4.505   8.051  0.47 73.23 LIG-0.29  OA
ENDBRANCH 16 20
ENDBRANCH 10 13
ENDBRANCH 5 6
BRANCH 5 22
ATOM     22  CB  VAL C  77      12.822   8.653   5.297  0.47 43.60 LIG 0.01  C 
ATOM     23  CG2 VAL C  77      13.173   8.884   6.768  0.47 46.41 LIG 0.01  C 
ATOM     24  CG1 VAL C  77      12.624   7.146   5.085  0.47 37.55 LIG 0.01  C 
ENDBRANCH 5 22
ENDBRANCH 3 5
BRANCH 1 25
ATOM     25  CA  PRO C  76      13.932  10.096   0.845  0.47 40.28 LIG 0.18  C 
ATOM     26  N   PRO C  76      14.849  11.031   0.230  0.47 33.79 LIG-0.34  N 
ATOM     27  CD  PRO C  76      15.672  10.366  -0.782  0.47 35.40 LIG 0.13  C 
ATOM     28  C   PRO C  75      14.520  12.295   0.098  0.47 33.84 LIG 0.24  C 
ATOM     29  CG  PRO C  76      15.460   8.945  -0.488  0.47 37.80 LIG 0.02  C 
ATOM     30  CB  PRO C  76      14.289   8.751   0.198  0.47 38.87 LIG 0.04  C 
ATOM     31 O    PRO C  75      13.497  12.728   0.497  0.47 33.93 LIG-0.27  OA
BRANCH 28 32
ATOM     32  CA  PRO C  75      15.463  13.196  -0.662  0.47 46.85 LIG 0.18  C 
ATOM     33  CB  PRO C  75      15.349  12.966  -2.174  0.47 48.68 LIG 0.04  C 
ATOM     34  CG  PRO C  75      16.743  12.768  -2.671  0.47 51.42 LIG 0.02  C 
ATOM     35  CD  PRO C  75      17.678  13.036  -1.575  0.47 56.17 LIG 0.13  C 
ATOM     36  N   PRO C  75      16.851  12.860  -0.385  0.47 56.81 LIG-0.34  N 
ATOM     37  C   PRO C  74      17.501  13.256   0.708  0.47 61.55 LIG 0.26  C 
ATOM     38 O    PRO C  74      17.016  13.911   1.610  0.47 61.23 LIG-0.27  OA
BRANCH 37 39
ATOM     39  CA  PRO C  74      18.955  12.851   0.811  0.47 57.58 LIG 0.35  C 
ATOM     40  N   PRO C  74      19.836  13.885   0.263  0.47 57.74 LIG 0.32  N 
ATOM     41  CD  PRO C  74      20.895  14.211   1.220  0.47 56.21 LIG 0.32  C 
ATOM     42  CG  PRO C  74      20.226  13.953   2.515  0.47 52.80 LIG 0.04  C 
ATOM     43  CB  PRO C  74      19.384  12.774   2.275  0.47 50.35 LIG 0.05  C 
ENDBRANCH 37 39
ENDBRANCH 28 32
ENDBRANCH 1 25
TORSDOF 8
ENDMDL
MODEL 24
USER: ADFR SOLUTION from run 120
USER: SCORE 12.397524 LL:  -4.125 LR:  -8.435 RR:   0.000 FEB:  -6.048
USER: RMSD 8.425333
USER: SEED 119
USER: STATUS no improvement in best in 25 clusters for 5 generations
USER: GENES 10
USER: genes 0 Translation |==|  0.43224 0.51331 0.55103
USER: genes 1 Rotation |==|  0.01802 0.47323 0.43899 0.61515
USER: genes 2 Torsion [C]-N--CA-[C] |==|  0.72226
USER: genes 3 Torsion [N]-CA--C-[N] |==|  0.46294
USER: genes 4 Torsion [N]-CA--C-[N] |==|  0.43545
USER: genes 5 Torsion [N]-CA--C-[O] |==|  0.12781
USER: genes 6 Torsion [N]-CA--CB-[CG2] |==|  0.21109
USER: genes 7 Torsion [O]-C--CA-[N] |==|  0.58789
USER: genes 8 Torsion [N]-C--CA-[N] |==|  0.91763
USER: genes 9 Torsion [N]-C--CA-[CB] |==|  0.85940
ROOT
ATOM      1  C   PRO C  76      14.954   9.609   7.150  0.47 42.64 LIG 0.24  C 
ATOM      2 O    PRO C  76      14.979  10.306   8.109  0.47 44.95 LIG-0.27  OA
ATOM      3  N   VAL C  77      15.978   9.462   6.348  0.47 42.25 LIG-0.35  N 
ATOM      4 H    VAL C  77      16.010   8.936   5.669  0.47 42.25 LIG 0.16  HD
ENDROOT
BRANCH 3 5
ATOM      5  CA  VAL C  77      17.157  10.233   6.601  0.47 44.36 LIG 0.17  C 
BRANCH 5 6
ATOM      6  C   VAL C  77      17.094  11.389   5.638  0.47 50.22 LIG 0.22  C 
ATOM      7 O    VAL C  77      16.256  11.394   4.778  0.47 51.68 LIG-0.28  OA
ATOM      8 N    PRO C  78      17.887  12.421   5.784  0.47 51.29 LIG-0.24  NA
ATOM      9  CD  PRO C  78      17.764  13.007   7.127  0.47 47.28 LIG 0.10  C 
ATOM     10  CA  PRO C  78      17.797  13.445   4.760  0.47 47.56 LIG 0.16  C 
ATOM     11  CG  PRO C  78      17.325  14.375   6.857  0.47 42.43 LIG 0.02  C 
ATOM     12  CB  PRO C  78      17.867  14.738   5.558  0.47 42.06 LIG 0.03  C 
BRANCH 10 13
ATOM     13  C   PRO C  78      18.911  13.195   3.776  0.47 54.03 LIG 0.24  C 
ATOM     14  N   PRO C  79      18.830  13.648   2.528  0.47 54.03 LIG-0.34  N 
ATOM     15  CD  PRO C  79      17.469  13.773   1.994  0.47 49.78 LIG 0.13  C 
ATOM     16  CA  PRO C  79      19.755  13.182   1.491  0.47 62.24 LIG 0.17  C 
ATOM     17  CG  PRO C  79      17.631  13.441   0.586  0.47 51.96 LIG 0.02  C 
ATOM     18  CB  PRO C  79      19.024  13.513   0.224  0.47 58.89 LIG 0.04  C 
ATOM     19 O    PRO C  78      19.822  12.515   4.173  0.47 60.82 LIG-0.27  OA
BRANCH 16 20
ATOM     20  C   PRO C  79      21.136  13.793   1.461  0.47 69.87 LIG 0.22  C 
ATOM     21 O    PRO C  79      21.718  13.887   2.512  0.47 73.23 LIG-0.29  OA
ENDBRANCH 16 20
ENDBRANCH 10 13
ENDBRANCH 5 6
BRANCH 5 22
ATOM     22  CB  VAL C  77      18.404   9.329   6.586  0.47 43.60 LIG 0.01  C 
ATOM     23  CG2 VAL C  77      18.713   9.013   5.122  0.47 46.41 LIG 0.01  C 
ATOM     24  CG1 VAL C  77      18.192   8.002   7.326  0.47 37.55 LIG 0.01  C 
ENDBRANCH 5 22
ENDBRANCH 3 5
BRANCH 1 25
ATOM     25  CA  PRO C  76      13.711   8.874   6.911  0.47 40.28 LIG 0.18  C 
ATOM     26  N   PRO C  76      14.066   7.627   6.270  0.47 33.79 LIG-0.34  N 
ATOM     27  CD  PRO C  76      13.603   6.484   7.059  0.47 35.40 LIG 0.13  C 
ATOM     28  C   PRO C  75      14.137   7.549   4.962  0.47 33.84 LIG 0.24  C 
ATOM     29  CG  PRO C  76      13.287   7.094   8.355  0.47 37.80 LIG 0.02  C 
ATOM     30  CB  PRO C  76      13.049   8.438   8.224  0.47 38.87 LIG 0.04  C 
ATOM     31 O    PRO C  75      13.953   8.482   4.261  0.47 33.93 LIG-0.27  OA
BRANCH 28 32
ATOM     32  CA  PRO C  75      14.387   6.194   4.345  0.47 46.85 LIG 0.18  C 
ATOM     33  CB  PRO C  75      13.080   5.410   4.184  0.47 48.68 LIG 0.04  C 
ATOM     34  CG  PRO C  75      13.324   4.065   4.785  0.47 51.42 LIG 0.02  C 
ATOM     35  CD  PRO C  75      14.743   3.954   5.134  0.47 56.17 LIG 0.13  C 
ATOM     36  N   PRO C  75      15.168   5.348   5.235  0.47 56.81 LIG-0.34  N 
ATOM     37  C   PRO C  74      16.491   5.433   5.361  0.47 61.55 LIG 0.26  C 
ATOM     38 O    PRO C  74      17.197   6.235   4.781  0.47 61.23 LIG-0.27  OA
BRANCH 37 39
ATOM     39  CA  PRO C  74      17.143   4.442   6.299  0.47 57.58 LIG 0.35  C 
ATOM     40  N   PRO C  74      18.507   4.850   6.641  0.47 57.74 LIG 0.32  N 
ATOM     41  CD  PRO C  74      18.697   4.830   8.093  0.47 56.21 LIG 0.32  C 
ATOM     42  CG  PRO C  74      17.334   5.137   8.582  0.47 52.80 LIG 0.04  C 
ATOM     43  CB  PRO C  74      16.434   4.444   7.652  0.47 50.35 LIG 0.05  C 
ENDBRANCH 37 39
ENDBRANCH 28 32
ENDBRANCH 1 25
TORSDOF 8
ENDMDL
MODEL 25
USER: ADFR SOLUTION from run 77
USER: SCORE 11.791695 LL:  -3.843 LR:  -8.422 RR:   0.000 FEB:  -6.036
USER: RMSD 7.107552
USER: SEED 76
USER: STATUS no improvement in best in 25 clusters for 5 generations
USER: GENES 10
USER: genes 0 Translation |==|  0.42585 0.48923 0.46748
USER: genes 1 Rotation |==|  0.05510 0.44862 0.31220 0.61897
USER: genes 2 Torsion [C]-N--CA-[C] |==|  0.76373
USER: genes 3 Torsion [N]-CA--C-[N] |==|  0.54443
USER: genes 4 Torsion [N]-CA--C-[N] |==|  0.39110
USER: genes 5 Torsion [N]-CA--C-[O] |==|  0.12196
USER: genes 6 Torsion [N]-CA--CB-[CG2] |==|  0.92508
USER: genes 7 Torsion [O]-C--CA-[N] |==|  0.39753
USER: genes 8 Torsion [N]-C--CA-[N] |==|  0.31568
USER: genes 9 Torsion [N]-C--CA-[CB] |==|  0.76224
ROOT
ATOM      1  C   PRO C  76      14.848   9.211   5.082  0.47 42.64 LIG 0.24  C 
ATOM      2 O    PRO C  76      14.377   9.850   5.963  0.47 44.95 LIG-0.27  OA
ATOM      3  N   VAL C  77      16.139   9.083   4.905  0.47 42.25 LIG-0.35  N 
ATOM      4 H    VAL C  77      16.516   8.597   4.305  0.47 42.25 LIG 0.16  HD
ENDROOT
BRANCH 3 5
ATOM      5  CA  VAL C  77      17.021   9.804   5.774  0.47 44.36 LIG 0.17  C 
BRANCH 5 6
ATOM      6  C   VAL C  77      17.154  11.173   5.160  0.47 50.22 LIG 0.22  C 
ATOM      7 O    VAL C  77      16.319  11.556   4.387  0.47 51.68 LIG-0.28  OA
ATOM      8 N    PRO C  78      18.122  11.974   5.527  0.47 51.29 LIG-0.24  NA
ATOM      9  CD  PRO C  78      18.127  12.181   6.984  0.47 47.28 LIG 0.10  C 
ATOM     10  CA  PRO C  78      18.206  13.240   4.822  0.47 47.56 LIG 0.16  C 
ATOM     11  CG  PRO C  78      17.939  13.624   7.116  0.47 42.43 LIG 0.02  C 
ATOM     12  CB  PRO C  78      18.519  14.232   5.931  0.47 42.06 LIG 0.03  C 
BRANCH 10 13
ATOM     13  C   PRO C  78      19.242  13.083   3.739  0.47 54.03 LIG 0.24  C 
ATOM     14  N   PRO C  79      19.060  13.629   2.541  0.47 54.03 LIG-0.34  N 
ATOM     15  CD  PRO C  79      17.661  13.773   2.123  0.47 49.78 LIG 0.13  C 
ATOM     16  CA  PRO C  79      19.906  13.258   1.403  0.47 62.24 LIG 0.17  C 
ATOM     17  CG  PRO C  79      17.717  13.552   0.685  0.47 51.96 LIG 0.02  C 
ATOM     18  CB  PRO C  79      19.076  13.674   0.225  0.47 58.89 LIG 0.04  C 
ATOM     19 O    PRO C  78      20.188  12.389   4.012  0.47 60.82 LIG-0.27  OA
BRANCH 16 20
ATOM     20  C   PRO C  79      21.275  13.891   1.314  0.47 69.87 LIG 0.22  C 
ATOM     21 O    PRO C  79      21.920  13.949   2.330  0.47 73.23 LIG-0.29  OA
ENDBRANCH 16 20
ENDBRANCH 10 13
ENDBRANCH 5 6
BRANCH 5 22
ATOM     22  CB  VAL C  77      18.299   8.988   6.040  0.47 43.60 LIG 0.01  C 
ATOM     23  CG2 VAL C  77      17.931   7.512   5.885  0.47 46.41 LIG 0.01  C 
ATOM     24  CG1 VAL C  77      18.860   9.194   7.453  0.47 37.55 LIG 0.01  C 
ENDBRANCH 5 22
ENDBRANCH 3 5
BRANCH 1 25
ATOM     25  CA  PRO C  76      13.905   8.528   4.197  0.47 40.28 LIG 0.18  C 
ATOM     26  N   PRO C  76      14.453   8.585   2.859  0.47 33.79 LIG-0.34  N 
ATOM     27  CD  PRO C  76      14.640   7.240   2.314  0.47 35.40 LIG 0.13  C 
ATOM     28  C   PRO C  75      14.168   9.592   2.067  0.47 33.84 LIG 0.24  C 
ATOM     29  CG  PRO C  76      14.525   6.390   3.504  0.47 37.80 LIG 0.02  C 
ATOM     30  CB  PRO C  76      13.829   7.026   4.499  0.47 38.87 LIG 0.04  C 
ATOM     31 O    PRO C  75      13.494  10.499   2.412  0.47 33.93 LIG-0.27  OA
BRANCH 28 32
ATOM     32  CA  PRO C  75      14.665   9.536   0.643  0.47 46.85 LIG 0.18  C 
ATOM     33  CB  PRO C  75      15.337  10.853   0.239  0.47 48.68 LIG 0.04  C 
ATOM     34  CG  PRO C  75      14.715  11.258  -1.057  0.47 51.42 LIG 0.02  C 
ATOM     35  CD  PRO C  75      13.844  10.175  -1.521  0.47 56.17 LIG 0.13  C 
ATOM     36  N   PRO C  75      13.559   9.433  -0.297  0.47 56.81 LIG-0.34  N 
ATOM     37  C   PRO C  74      12.927   8.292  -0.569  0.47 61.55 LIG 0.26  C 
ATOM     38 O    PRO C  74      13.171   7.218  -0.053  0.47 61.23 LIG-0.27  OA
BRANCH 37 39
ATOM     39  CA  PRO C  74      11.829   8.362  -1.607  0.47 57.58 LIG 0.35  C 
ATOM     40  N   PRO C  74      11.526   7.037  -2.152  0.47 57.74 LIG 0.32  N 
ATOM     41  CD  PRO C  74      10.086   6.779  -2.097  0.47 56.21 LIG 0.32  C 
ATOM     42  CG  PRO C  74       9.683   7.564  -0.908  0.47 52.80 LIG 0.04  C 
ATOM     43  CB  PRO C  74      10.510   8.776  -0.958  0.47 50.35 LIG 0.05  C 
ENDBRANCH 37 39
ENDBRANCH 28 32
ENDBRANCH 1 25
TORSDOF 8
ENDMDL
MODEL 26
USER: ADFR SOLUTION from run 200
USER: SCORE 10.989572 LL:  -3.496 LR:  -8.400 RR:   0.000 FEB:  -6.013
USER: RMSD 10.575490
USER: SEED 199
USER: STATUS no improvement in best in 29 clusters for 5 generations
USER: GENES 10
USER: genes 0 Translation |==|  0.57181 0.31255 0.49736
USER: genes 1 Rotation |==|  0.51819 0.69006 0.91192 0.70944
USER: genes 2 Torsion [C]-N--CA-[C] |==|  0.20145
USER: genes 3 Torsion [N]-CA--C-[N] |==|  0.45559
USER: genes 4 Torsion [N]-CA--C-[N] |==|  0.36958
USER: genes 5 Torsion [N]-CA--C-[O] |==|  0.34689
USER: genes 6 Torsion [N]-CA--CB-[CG2] |==|  0.86006
USER: genes 7 Torsion [O]-C--CA-[N] |==|  0.54731
USER: genes 8 Torsion [N]-C--CA-[N] |==|  0.51225
USER: genes 9 Torsion [N]-C--CA-[CB] |==|  0.80069
ROOT
ATOM      1  C   PRO C  76      17.257   6.296   5.822  0.47 42.64 LIG 0.24  C 
ATOM      2 O    PRO C  76      17.550   6.585   4.709  0.47 44.95 LIG-0.27  OA
ATOM      3  N   VAL C  77      16.653   7.122   6.638  0.47 42.25 LIG-0.35  N 
ATOM      4 H    VAL C  77      16.390   6.935   7.435  0.47 42.25 LIG 0.16  HD
ENDROOT
BRANCH 3 5
ATOM      5  CA  VAL C  77      16.397   8.458   6.190  0.47 44.36 LIG 0.17  C 
BRANCH 5 6
ATOM      6  C   VAL C  77      15.286   8.335   5.182  0.47 50.22 LIG 0.22  C 
ATOM      7 O    VAL C  77      14.975   7.248   4.776  0.47 51.68 LIG-0.28  OA
ATOM      8 N    PRO C  78      14.605   9.390   4.811  0.47 51.29 LIG-0.24  NA
ATOM      9  CD  PRO C  78      14.026  10.091   5.968  0.47 47.28 LIG 0.10  C 
ATOM     10  CA  PRO C  78      13.606   9.176   3.780  0.47 47.56 LIG 0.16  C 
ATOM     11  CG  PRO C  78      12.589  10.041   5.705  0.47 42.43 LIG 0.02  C 
ATOM     12  CB  PRO C  78      12.430  10.013   4.260  0.47 42.06 LIG 0.03  C 
BRANCH 10 13
ATOM     13  C   PRO C  78      14.227   9.571   2.465  0.47 54.03 LIG 0.24  C 
ATOM     14  N   PRO C  79      14.119   8.783   1.400  0.47 54.03 LIG-0.34  N 
ATOM     15  CD  PRO C  79      13.999   7.350   1.689  0.47 49.78 LIG 0.13  C 
ATOM     16  CA  PRO C  79      14.941   9.005   0.207  0.47 62.24 LIG 0.17  C 
ATOM     17  CG  PRO C  79      14.712   6.724   0.584  0.47 51.96 LIG 0.02  C 
ATOM     18  CB  PRO C  79      14.886   7.675  -0.484  0.47 58.89 LIG 0.04  C 
ATOM     19 O    PRO C  78      14.867  10.591   2.470  0.47 60.82 LIG-0.27  OA
BRANCH 16 20
ATOM     20  C   PRO C  79      14.510  10.095  -0.746  0.47 69.87 LIG 0.22  C 
ATOM     21 O    PRO C  79      15.321  10.946  -1.009  0.47 73.23 LIG-0.29  OA
ENDBRANCH 16 20
ENDBRANCH 10 13
ENDBRANCH 5 6
BRANCH 5 22
ATOM     22  CB  VAL C  77      17.709   9.141   5.762  0.47 43.60 LIG 0.01  C 
ATOM     23  CG2 VAL C  77      18.711   8.947   6.901  0.47 46.41 LIG 0.01  C 
ATOM     24  CG1 VAL C  77      17.550  10.647   5.518  0.47 37.55 LIG 0.01  C 
ENDBRANCH 5 22
ENDBRANCH 3 5
BRANCH 1 25
ATOM     25  CA  PRO C  76      17.577   4.933   6.245  0.47 40.28 LIG 0.18  C 
ATOM     26  N   PRO C  76      16.801   4.659   7.435  0.47 33.79 LIG-0.34  N 
ATOM     27  CD  PRO C  76      15.935   3.495   7.237  0.47 35.40 LIG 0.13  C 
ATOM     28  C   PRO C  75      17.286   4.936   8.623  0.47 33.84 LIG 0.24  C 
ATOM     29  CG  PRO C  76      15.962   3.317   5.782  0.47 37.80 LIG 0.02  C 
ATOM     30  CB  PRO C  76      17.079   3.893   5.234  0.47 38.87 LIG 0.04  C 
ATOM     31 O    PRO C  75      18.342   5.443   8.774  0.47 33.93 LIG-0.27  OA
BRANCH 28 32
ATOM     32  CA  PRO C  75      16.485   4.513   9.831  0.47 46.85 LIG 0.18  C 
ATOM     33  CB  PRO C  75      15.114   5.199   9.852  0.47 48.68 LIG 0.04  C 
ATOM     34  CG  PRO C  75      14.966   5.792  11.214  0.47 51.42 LIG 0.02  C 
ATOM     35  CD  PRO C  75      16.090   5.352  12.046  0.47 56.17 LIG 0.13  C 
ATOM     36  N   PRO C  75      17.103   4.982  11.062  0.47 56.81 LIG-0.34  N 
ATOM     37  C   PRO C  74      18.133   4.374  11.647  0.47 61.55 LIG 0.26  C 
ATOM     38 O    PRO C  74      18.697   3.386  11.218  0.47 61.23 LIG-0.27  OA
BRANCH 37 39
ATOM     39  CA  PRO C  74      18.619   4.974  12.948  0.47 57.58 LIG 0.35  C 
ATOM     40  N   PRO C  74      19.663   4.149  13.558  0.47 57.74 LIG 0.32  N 
ATOM     41  CD  PRO C  74      20.826   4.970  13.903  0.47 56.21 LIG 0.32  C 
ATOM     42  CG  PRO C  74      20.767   6.029  12.871  0.47 52.80 LIG 0.04  C 
ATOM     43  CB  PRO C  74      19.335   6.299  12.688  0.47 50.35 LIG 0.05  C 
ENDBRANCH 37 39
ENDBRANCH 28 32
ENDBRANCH 1 25
TORSDOF 8
ENDMDL
MODEL 27
USER: ADFR SOLUTION from run 196
USER: SCORE 11.167335 LL:  -3.668 LR:  -8.397 RR:   0.000 FEB:  -6.011
USER: RMSD 4.420623
USER: SEED 195
USER: STATUS no improvement in best in 19 clusters for 5 generations
USER: GENES 10
USER: genes 0 Translation |==|  0.62813 0.40874 0.53716
USER: genes 1 Rotation |==|  0.68179 0.17861 0.68381 0.78263
USER: genes 2 Torsion [C]-N--CA-[C] |==|  0.19442
USER: genes 3 Torsion [N]-CA--C-[N] |==|  0.50908
USER: genes 4 Torsion [N]-CA--C-[N] |==|  0.30934
USER: genes 5 Torsion [N]-CA--C-[O] |==|  0.68952
USER: genes 6 Torsion [N]-CA--CB-[CG2] |==|  0.87525
USER: genes 7 Torsion [O]-C--CA-[N] |==|  0.52597
USER: genes 8 Torsion [N]-C--CA-[N] |==|  0.32724
USER: genes 9 Torsion [N]-C--CA-[CB] |==|  0.70741
ROOT
ATOM      1  C   PRO C  76      18.186   7.883   6.807  0.47 42.64 LIG 0.24  C 
ATOM      2 O    PRO C  76      19.297   7.835   7.220  0.47 44.95 LIG-0.27  OA
ATOM      3  N   VAL C  77      17.160   7.397   7.458  0.47 42.25 LIG-0.35  N 
ATOM      4 H    VAL C  77      16.339   7.449   7.210  0.47 42.25 LIG 0.16  HD
ENDROOT
BRANCH 3 5
ATOM      5  CA  VAL C  77      17.400   6.713   8.693  0.47 44.36 LIG 0.17  C 
BRANCH 5 6
ATOM      6  C   VAL C  77      17.826   7.782   9.666  0.47 50.22 LIG 0.22  C 
ATOM      7 O    VAL C  77      17.762   8.935   9.338  0.47 51.68 LIG-0.28  OA
ATOM      8 N    PRO C  78      18.183   7.467  10.885  0.47 51.29 LIG-0.24  NA
ATOM      9  CD  PRO C  78      17.137   6.691  11.569  0.47 47.28 LIG 0.10  C 
ATOM     10  CA  PRO C  78      18.647   8.561  11.717  0.47 47.56 LIG 0.16  C 
ATOM     11  CG  PRO C  78      16.802   7.526  12.722  0.47 42.43 LIG 0.02  C 
ATOM     12  CB  PRO C  78      18.005   8.267  13.064  0.47 42.06 LIG 0.03  C 
BRANCH 10 13
ATOM     13  C   PRO C  78      20.154   8.555  11.669  0.47 54.03 LIG 0.24  C 
ATOM     14  N   PRO C  79      20.817   9.533  11.059  0.47 54.03 LIG-0.34  N 
ATOM     15  CD  PRO C  79      20.107  10.176   9.949  0.47 49.78 LIG 0.13  C 
ATOM     16  CA  PRO C  79      22.246   9.405  10.758  0.47 62.24 LIG 0.17  C 
ATOM     17  CG  PRO C  79      21.173  10.496   9.010  0.47 51.96 LIG 0.02  C 
ATOM     18  CB  PRO C  79      22.447  10.425   9.677  0.47 58.89 LIG 0.04  C 
ATOM     19 O    PRO C  78      20.692   7.591  12.150  0.47 60.82 LIG-0.27  OA
BRANCH 16 20
ATOM     20  C   PRO C  79      23.223   9.651  11.883  0.47 69.87 LIG 0.22  C 
ATOM     21 O    PRO C  79      23.917  10.633  11.803  0.47 73.23 LIG-0.29  OA
ENDBRANCH 16 20
ENDBRANCH 10 13
ENDBRANCH 5 6
BRANCH 5 22
ATOM     22  CB  VAL C  77      18.332   5.507   8.469  0.47 43.60 LIG 0.01  C 
ATOM     23  CG2 VAL C  77      17.832   4.779   7.220  0.47 46.41 LIG 0.01  C 
ATOM     24  CG1 VAL C  77      18.321   4.514   9.637  0.47 37.55 LIG 0.01  C 
ENDBRANCH 5 22
ENDBRANCH 3 5
BRANCH 1 25
ATOM     25  CA  PRO C  76      17.999   8.555   5.521  0.47 40.28 LIG 0.18  C 
ATOM     26  N   PRO C  76      16.574   8.699   5.314  0.47 33.79 LIG-0.34  N 
ATOM     27  CD  PRO C  76      16.210  10.107   5.149  0.47 35.40 LIG 0.13  C 
ATOM     28  C   PRO C  75      15.893   7.757   4.702  0.47 33.84 LIG 0.24  C 
ATOM     29  CG  PRO C  76      17.407  10.807   5.625  0.47 37.80 LIG 0.02  C 
ATOM     30  CB  PRO C  76      18.513  10.000   5.555  0.47 38.87 LIG 0.04  C 
ATOM     31 O    PRO C  75      16.393   6.754   4.331  0.47 33.93 LIG-0.27  OA
BRANCH 28 32
ATOM     32  CA  PRO C  75      14.437   8.017   4.404  0.47 46.85 LIG 0.18  C 
ATOM     33  CB  PRO C  75      13.555   6.873   4.917  0.47 48.68 LIG 0.04  C 
ATOM     34  CG  PRO C  75      12.680   6.478   3.774  0.47 51.42 LIG 0.02  C 
ATOM     35  CD  PRO C  75      12.875   7.430   2.677  0.47 56.17 LIG 0.13  C 
ATOM     36  N   PRO C  75      14.183   8.008   2.972  0.47 56.81 LIG-0.34  N 
ATOM     37  C   PRO C  74      14.437   9.041   2.171  0.47 61.55 LIG 0.26  C 
ATOM     38 O    PRO C  74      14.932  10.094   2.525  0.47 61.23 LIG-0.27  OA
BRANCH 37 39
ATOM     39  CA  PRO C  74      14.068   8.871   0.714  0.47 57.58 LIG 0.35  C 
ATOM     40  N   PRO C  74      13.508  10.104   0.158  0.47 57.74 LIG 0.32  N 
ATOM     41  CD  PRO C  74      14.189  10.457  -1.089  0.47 56.21 LIG 0.32  C 
ATOM     42  CG  PRO C  74      15.543   9.905  -0.863  0.47 52.80 LIG 0.04  C 
ATOM     43  CB  PRO C  74      15.322   8.651  -0.131  0.47 50.35 LIG 0.05  C 
ENDBRANCH 37 39
ENDBRANCH 28 32
ENDBRANCH 1 25
TORSDOF 8
ENDMDL
MODEL 28
USER: ADFR SOLUTION from run 12
USER: SCORE 12.136160 LL:  -3.814 LR:  -8.366 RR:   0.000 FEB:  -5.980
USER: RMSD 5.467782
USER: SEED 275881
USER: STATUS no improvement in best in 28 clusters for 5 generations
USER: GENES 10
USER: genes 0 Translation |==|  0.57130 0.43182 0.51609
USER: genes 1 Rotation |==|  0.56304 0.91636 0.23619 0.55547
USER: genes 2 Torsion [C]-N--CA-[C] |==|  0.82268
USER: genes 3 Torsion [N]-CA--C-[N] |==|  0.88962
USER: genes 4 Torsion [N]-CA--C-[N] |==|  0.33221
USER: genes 5 Torsion [N]-CA--C-[O] |==|  0.45954
USER: genes 6 Torsion [N]-CA--CB-[CG2] |==|  0.78027
USER: genes 7 Torsion [O]-C--CA-[N] |==|  0.80502
USER: genes 8 Torsion [N]-C--CA-[N] |==|  0.53373
USER: genes 9 Torsion [N]-C--CA-[CB] |==|  0.82809
ROOT
ATOM      1  C   PRO C  76      17.248   8.264   6.285  0.47 42.64 LIG 0.24  C 
ATOM      2 O    PRO C  76      16.597   8.327   7.275  0.47 44.95 LIG-0.27  OA
ATOM      3  N   VAL C  77      16.773   7.835   5.144  0.47 42.25 LIG-0.35  N 
ATOM      4 H    VAL C  77      17.201   7.814   4.399  0.47 42.25 LIG 0.16  HD
ENDROOT
BRANCH 3 5
ATOM      5  CA  VAL C  77      15.424   7.355   5.105  0.47 44.36 LIG 0.17  C 
BRANCH 5 6
ATOM      6  C   VAL C  77      15.407   6.141   5.997  0.47 50.22 LIG 0.22  C 
ATOM      7 O    VAL C  77      14.432   5.909   6.658  0.47 51.68 LIG-0.28  OA
ATOM      8 N    PRO C  78      16.408   5.298   5.990  0.47 51.29 LIG-0.24  NA
ATOM      9  CD  PRO C  78      16.684   4.800   4.634  0.47 47.28 LIG 0.10  C 
ATOM     10  CA  PRO C  78      16.327   4.203   6.939  0.47 47.56 LIG 0.16  C 
ATOM     11  CG  PRO C  78      16.491   3.356   4.762  0.47 42.43 LIG 0.02  C 
ATOM     12  CB  PRO C  78      16.822   3.011   6.134  0.47 42.06 LIG 0.03  C 
BRANCH 10 13
ATOM     13  C   PRO C  78      17.143   4.592   8.145  0.47 54.03 LIG 0.24  C 
ATOM     14  N   PRO C  79      16.577   4.691   9.344  0.47 54.03 LIG-0.34  N 
ATOM     15  CD  PRO C  79      15.157   5.059   9.340  0.47 49.78 LIG 0.13  C 
ATOM     16  CA  PRO C  79      17.277   5.332  10.461  0.47 62.24 LIG 0.17  C 
ATOM     17  CG  PRO C  79      15.020   5.878  10.536  0.47 51.96 LIG 0.02  C 
ATOM     18  CB  PRO C  79      16.157   5.677  11.397  0.47 58.89 LIG 0.04  C 
ATOM     19 O    PRO C  78      18.297   4.866   7.935  0.47 60.82 LIG-0.27  OA
BRANCH 16 20
ATOM     20  C   PRO C  79      18.322   4.522  11.190  0.47 69.87 LIG 0.22  C 
ATOM     21 O    PRO C  79      19.075   5.122  11.916  0.47 73.23 LIG-0.29  OA
ENDBRANCH 16 20
ENDBRANCH 10 13
ENDBRANCH 5 6
BRANCH 5 22
ATOM     22  CB  VAL C  77      14.948   7.206   3.649  0.47 43.60 LIG 0.01  C 
ATOM     23  CG2 VAL C  77      14.572   8.604   3.153  0.47 46.41 LIG 0.01  C 
ATOM     24  CG1 VAL C  77      13.715   6.304   3.509  0.47 37.55 LIG 0.01  C 
ENDBRANCH 5 22
ENDBRANCH 3 5
BRANCH 1 25
ATOM     25  CA  PRO C  76      18.632   8.727   6.387  0.47 40.28 LIG 0.18  C 
ATOM     26  N   PRO C  76      18.594  10.165   6.543  0.47 33.79 LIG-0.34  N 
ATOM     27  CD  PRO C  76      19.252  10.573   7.785  0.47 35.40 LIG 0.13  C 
ATOM     28  C   PRO C  75      18.612  10.949   5.490  0.47 33.84 LIG 0.24  C 
ATOM     29  CG  PRO C  76      19.357   9.310   8.524  0.47 37.80 LIG 0.02  C 
ATOM     30  CB  PRO C  76      19.303   8.235   7.676  0.47 38.87 LIG 0.04  C 
ATOM     31 O    PRO C  75      18.625  10.527   4.387  0.47 33.93 LIG-0.27  OA
BRANCH 28 32
ATOM     32  CA  PRO C  75      18.697  12.438   5.717  0.47 46.85 LIG 0.18  C 
ATOM     33  CB  PRO C  75      17.588  12.918   6.662  0.47 48.68 LIG 0.04  C 
ATOM     34  CG  PRO C  75      16.934  14.074   5.982  0.47 51.42 LIG 0.02  C 
ATOM     35  CD  PRO C  75      17.698  14.409   4.777  0.47 56.17 LIG 0.13  C 
ATOM     36  N   PRO C  75      18.423  13.174   4.493  0.47 56.81 LIG-0.34  N 
ATOM     37  C   PRO C  74      19.322  13.363   3.529  0.47 61.55 LIG 0.26  C 
ATOM     38 O    PRO C  74      20.457  12.925   3.537  0.47 61.23 LIG-0.27  OA
BRANCH 37 39
ATOM     39  CA  PRO C  74      18.877  14.192   2.345  0.47 57.58 LIG 0.35  C 
ATOM     40  N   PRO C  74      19.912  14.243   1.310  0.47 57.74 LIG 0.32  N 
ATOM     41  CD  PRO C  74      19.348  13.893   0.005  0.47 56.21 LIG 0.32  C 
ATOM     42  CG  PRO C  74      18.260  12.963   0.385  0.47 52.80 LIG 0.04  C 
ATOM     43  CB  PRO C  74      17.709  13.514   1.629  0.47 50.35 LIG 0.05  C 
ENDBRANCH 37 39
ENDBRANCH 28 32
ENDBRANCH 1 25
TORSDOF 8
ENDMDL
MODEL 29
USER: ADFR SOLUTION from run 146
USER: SCORE 12.017585 LL:  -3.657 LR:  -8.372 RR:   0.000 FEB:  -5.986
USER: RMSD 9.425194
USER: SEED 145
USER: STATUS no improvement in best in 25 clusters for 5 generations
USER: GENES 10
USER: genes 0 Translation |==|  0.55995 0.51091 0.50054
USER: genes 1 Rotation |==|  0.30876 0.79250 0.85746 0.50966
USER: genes 2 Torsion [C]-N--CA-[C] |==|  0.79515
USER: genes 3 Torsion [N]-CA--C-[N] |==|  0.95201
USER: genes 4 Torsion [N]-CA--C-[N] |==|  0.39926
USER: genes 5 Torsion [N]-CA--C-[O] |==|  0.42753
USER: genes 6 Torsion [N]-CA--CB-[CG2] |==|  0.86620
USER: genes 7 Torsion [O]-C--CA-[N] |==|  0.70977
USER: genes 8 Torsion [N]-C--CA-[N] |==|  0.91945
USER: genes 9 Torsion [N]-C--CA-[CB] |==|  0.72868
ROOT
ATOM      1  C   PRO C  76      17.061   9.569   5.900  0.47 42.64 LIG 0.24  C 
ATOM      2 O    PRO C  76      17.599   9.335   4.869  0.47 44.95 LIG-0.27  OA
ATOM      3  N   VAL C  77      15.771   9.760   6.005  0.47 42.25 LIG-0.35  N 
ATOM      4 H    VAL C  77      15.342   9.891   6.739  0.47 42.25 LIG 0.16  HD
ENDROOT
BRANCH 3 5
ATOM      5  CA  VAL C  77      14.982   9.756   4.810  0.47 44.36 LIG 0.17  C 
BRANCH 5 6
ATOM      6  C   VAL C  77      15.290  11.060   4.123  0.47 50.22 LIG 0.22  C 
ATOM      7 O    VAL C  77      14.947  11.222   2.984  0.47 51.68 LIG-0.28  OA
ATOM      8 N    PRO C  78      15.849  12.043   4.783  0.47 51.29 LIG-0.24  NA
ATOM      9  CD  PRO C  78      15.078  12.391   5.986  0.47 47.28 LIG 0.10  C 
ATOM     10  CA  PRO C  78      16.172  13.229   4.011  0.47 47.56 LIG 0.16  C 
ATOM     11  CG  PRO C  78      14.718  13.790   5.759  0.47 42.43 LIG 0.02  C 
ATOM     12  CB  PRO C  78      15.772  14.365   4.940  0.47 42.06 LIG 0.03  C 
BRANCH 10 13
ATOM     13  C   PRO C  78      17.629  13.139   3.637  0.47 54.03 LIG 0.24  C 
ATOM     14  N   PRO C  79      18.056  13.579   2.458  0.47 54.03 LIG-0.34  N 
ATOM     15  CD  PRO C  79      17.073  13.515   1.370  0.47 49.78 LIG 0.13  C 
ATOM     16  CA  PRO C  79      19.397  13.250   1.966  0.47 62.24 LIG 0.17  C 
ATOM     17  CG  PRO C  79      17.886  13.211   0.202  0.47 51.96 LIG 0.02  C 
ATOM     18  CB  PRO C  79      19.272  13.479   0.489  0.47 58.89 LIG 0.04  C 
ATOM     19 O    PRO C  78      18.345  12.592   4.437  0.47 60.82 LIG-0.27  OA
BRANCH 16 20
ATOM     20  C   PRO C  79      20.557  14.048   2.512  0.47 69.87 LIG 0.22  C 
ATOM     21 O    PRO C  79      21.638  13.514   2.513  0.47 73.23 LIG-0.29  OA
ENDBRANCH 16 20
ENDBRANCH 10 13
ENDBRANCH 5 6
BRANCH 5 22
ATOM     22  CB  VAL C  77      13.514   9.422   5.135  0.47 43.60 LIG 0.01  C 
ATOM     23  CG2 VAL C  77      13.523   8.190   6.041  0.47 46.41 LIG 0.01  C 
ATOM     24  CG1 VAL C  77      12.683   9.093   3.889  0.47 37.55 LIG 0.01  C 
ENDBRANCH 5 22
ENDBRANCH 3 5
BRANCH 1 25
ATOM     25  CA  PRO C  76      17.917   9.605   7.087  0.47 40.28 LIG 0.18  C 
ATOM     26  N   PRO C  76      17.685   8.379   7.820  0.47 33.79 LIG-0.34  N 
ATOM     27  CD  PRO C  76      18.929   7.623   7.980  0.47 35.40 LIG 0.13  C 
ATOM     28  C   PRO C  75      16.747   8.321   8.736  0.47 33.84 LIG 0.24  C 
ATOM     29  CG  PRO C  76      19.822   8.264   7.009  0.47 37.80 LIG 0.02  C 
ATOM     30  CB  PRO C  76      19.404   9.536   6.716  0.47 38.87 LIG 0.04  C 
ATOM     31 O    PRO C  75      16.038   9.235   8.976  0.47 33.93 LIG-0.27  OA
BRANCH 28 32
ATOM     32  CA  PRO C  75      16.635   7.058   9.555  0.47 46.85 LIG 0.18  C 
ATOM     33  CB  PRO C  75      17.591   7.090  10.754  0.47 48.68 LIG 0.04  C 
ATOM     34  CG  PRO C  75      18.345   5.802  10.718  0.47 51.42 LIG 0.02  C 
ATOM     35  CD  PRO C  75      17.771   4.946   9.675  0.47 56.17 LIG 0.13  C 
ATOM     36  N   PRO C  75      17.093   5.900   8.803  0.47 56.81 LIG-0.34  N 
ATOM     37  C   PRO C  74      16.349   5.269   7.896  0.47 61.55 LIG 0.26  C 
ATOM     38 O    PRO C  74      15.224   5.593   7.567  0.47 61.23 LIG-0.27  OA
BRANCH 37 39
ATOM     39  CA  PRO C  74      16.971   4.055   7.243  0.47 57.58 LIG 0.35  C 
ATOM     40  N   PRO C  74      15.955   3.061   6.889  0.47 57.74 LIG 0.32  N 
ATOM     41  CD  PRO C  74      16.107   2.651   5.492  0.47 56.21 LIG 0.32  C 
ATOM     42  CG  PRO C  74      16.666   3.875   4.875  0.47 52.80 LIG 0.04  C 
ATOM     43  CB  PRO C  74      17.572   4.428   5.889  0.47 50.35 LIG 0.05  C 
ENDBRANCH 37 39
ENDBRANCH 28 32
ENDBRANCH 1 25
TORSDOF 8
ENDMDL
MODEL 30
USER: ADFR SOLUTION from run 100
USER: SCORE 11.872627 LL:  -3.650 LR:  -8.336 RR:   0.000 FEB:  -5.949
USER: RMSD 7.333160
USER: SEED 99
USER: STATUS no improvement in best in 23 clusters for 5 generations
USER: GENES 10
USER: genes 0 Translation |==|  0.68774 0.84058 0.44355
USER: genes 1 Rotation |==|  0.43397 0.87547 0.17842 0.53529
USER: genes 2 Torsion [C]-N--CA-[C] |==|  0.73664
USER: genes 3 Torsion [N]-CA--C-[N] |==|  0.40350
USER: genes 4 Torsion [N]-CA--C-[N] |==|  0.58221
USER: genes 5 Torsion [N]-CA--C-[O] |==|  0.90446
USER: genes 6 Torsion [N]-CA--CB-[CG2] |==|  0.85146
USER: genes 7 Torsion [O]-C--CA-[N] |==|  0.52160
USER: genes 8 Torsion [N]-C--CA-[N] |==|  0.90986
USER: genes 9 Torsion [N]-C--CA-[CB] |==|  0.57782
ROOT
ATOM      1  C   PRO C  76      19.170  15.009   4.490  0.47 42.64 LIG 0.24  C 
ATOM      2 O    PRO C  76      18.849  15.257   5.605  0.47 44.95 LIG-0.27  OA
ATOM      3  N   VAL C  77      18.596  14.076   3.773  0.47 42.25 LIG-0.35  N 
ATOM      4 H    VAL C  77      18.773  13.896   2.951  0.47 42.25 LIG 0.16  HD
ENDROOT
BRANCH 3 5
ATOM      5  CA  VAL C  77      17.582  13.272   4.387  0.47 44.36 LIG 0.17  C 
BRANCH 5 6
ATOM      6  C   VAL C  77      18.293  12.039   4.879  0.47 50.22 LIG 0.22  C 
ATOM      7 O    VAL C  77      19.259  11.640   4.287  0.47 51.68 LIG-0.28  OA
ATOM      8 N    PRO C  78      17.918  11.453   5.988  0.47 51.29 LIG-0.24  NA
ATOM      9  CD  PRO C  78      17.911  12.395   7.118  0.47 47.28 LIG 0.10  C 
ATOM     10  CA  PRO C  78      18.620  10.231   6.334  0.47 47.56 LIG 0.16  C 
ATOM     11  CG  PRO C  78      18.867  11.803   8.052  0.47 42.43 LIG 0.02  C 
ATOM     12  CB  PRO C  78      18.830  10.366   7.834  0.47 42.06 LIG 0.03  C 
BRANCH 10 13
ATOM     13  C   PRO C  78      17.768   9.077   5.870  0.47 54.03 LIG 0.24  C 
ATOM     14  N   PRO C  79      17.802   7.910   6.505  0.47 54.03 LIG-0.34  N 
ATOM     15  CD  PRO C  79      19.073   7.591   7.165  0.47 49.78 LIG 0.13  C 
ATOM     16  CA  PRO C  79      17.207   6.708   5.914  0.47 62.24 LIG 0.17  C 
ATOM     17  CG  PRO C  79      19.175   6.147   7.012  0.47 51.96 LIG 0.02  C 
ATOM     18  CB  PRO C  79      17.890   5.601   6.660  0.47 58.89 LIG 0.04  C 
ATOM     19 O    PRO C  78      17.125   9.266   4.869  0.47 60.82 LIG-0.27  OA
BRANCH 16 20
ATOM     20  C   PRO C  79      15.709   6.546   6.015  0.47 69.87 LIG 0.22  C 
ATOM     21 O    PRO C  79      15.178   6.965   7.013  0.47 73.23 LIG-0.29  OA
ENDBRANCH 16 20
ENDBRANCH 10 13
ENDBRANCH 5 6
BRANCH 5 22
ATOM     22  CB  VAL C  77      16.383  13.101   3.436  0.47 43.60 LIG 0.01  C 
ATOM     23  CG2 VAL C  77      15.943  14.502   3.009  0.47 46.41 LIG 0.01  C 
ATOM     24  CG1 VAL C  77      15.186  12.406   4.098  0.47 37.55 LIG 0.01  C 
ENDBRANCH 5 22
ENDBRANCH 3 5
BRANCH 1 25
ATOM     25  CA  PRO C  76      20.239  15.830   3.922  0.47 40.28 LIG 0.18  C 
ATOM     26  N   PRO C  76      20.343  15.492   2.520  0.47 33.79 LIG-0.34  N 
ATOM     27  CD  PRO C  76      20.136  16.673   1.681  0.47 35.40 LIG 0.13  C 
ATOM     28  C   PRO C  75      21.140  14.525   2.127  0.47 33.84 LIG 0.24  C 
ATOM     29  CG  PRO C  76      19.552  17.637   2.619  0.47 37.80 LIG 0.02  C 
ATOM     30  CB  PRO C  76      19.867  17.319   3.915  0.47 38.87 LIG 0.04  C 
ATOM     31 O    PRO C  75      21.771  13.877   2.886  0.47 33.93 LIG-0.27  OA
BRANCH 28 32
ATOM     32  CA  PRO C  75      21.302  14.301   0.643  0.47 46.85 LIG 0.18  C 
ATOM     33  CB  PRO C  75      22.318  15.280   0.043  0.47 48.68 LIG 0.04  C 
ATOM     34  CG  PRO C  75      21.652  15.896  -1.143  0.47 51.42 LIG 0.02  C 
ATOM     35  CD  PRO C  75      20.375  15.215  -1.375  0.47 56.17 LIG 0.13  C 
ATOM     36  N   PRO C  75      20.078  14.620  -0.075  0.47 56.81 LIG-0.34  N 
ATOM     37  C   PRO C  74      19.034  13.796  -0.157  0.47 61.55 LIG 0.26  C 
ATOM     38 O    PRO C  74      18.964  12.704   0.373  0.47 61.23 LIG-0.27  OA
BRANCH 37 39
ATOM     39  CA  PRO C  74      17.861  14.275  -0.983  0.47 57.58 LIG 0.35  C 
ATOM     40  N   PRO C  74      17.942  13.781  -2.360  0.47 57.74 LIG 0.32  N 
ATOM     41  CD  PRO C  74      16.678  13.154  -2.751  0.47 56.21 LIG 0.32  C 
ATOM     42  CG  PRO C  74      16.181  12.636  -1.457  0.47 52.80 LIG 0.04  C 
ATOM     43  CB  PRO C  74      16.562  13.656  -0.471  0.47 50.35 LIG 0.05  C 
ENDBRANCH 37 39
ENDBRANCH 28 32
ENDBRANCH 1 25
TORSDOF 8
ENDMDL
MODEL 31
USER: ADFR SOLUTION from run 50
USER: SCORE 11.607048 LL:  -3.516 LR:  -8.336 RR:   0.000 FEB:  -5.950
USER: RMSD 11.175001
USER: SEED 49
USER: STATUS no improvement in best in 33 clusters for 5 generations
USER: GENES 10
USER: genes 0 Translation |==|  0.57026 0.25172 0.58349
USER: genes 1 Rotation |==|  0.26336 0.72926 0.74852 0.78228
USER: genes 2 Torsion [C]-N--CA-[C] |==|  0.64660
USER: genes 3 Torsion [N]-CA--C-[N] |==|  0.32778
USER: genes 4 Torsion [N]-CA--C-[N] |==|  0.49581
USER: genes 5 Torsion [N]-CA--C-[O] |==|  0.72173
USER: genes 6 Torsion [N]-CA--CB-[CG2] |==|  0.16692
USER: genes 7 Torsion [O]-C--CA-[N] |==|  0.24224
USER: genes 8 Torsion [N]-C--CA-[N] |==|  0.51935
USER: genes 9 Torsion [N]-C--CA-[CB] |==|  0.65437
ROOT
ATOM      1  C   PRO C  76      17.231   5.292   7.953  0.47 42.64 LIG 0.24  C 
ATOM      2 O    PRO C  76      18.258   4.772   7.665  0.47 44.95 LIG-0.27  OA
ATOM      3  N   VAL C  77      16.701   6.261   7.251  0.47 42.25 LIG-0.35  N 
ATOM      4 H    VAL C  77      15.942   6.634   7.405  0.47 42.25 LIG 0.16  HD
ENDROOT
BRANCH 3 5
ATOM      5  CA  VAL C  77      17.428   6.762   6.124  0.47 44.36 LIG 0.17  C 
BRANCH 5 6
ATOM      6  C   VAL C  77      17.505   8.253   6.328  0.47 50.22 LIG 0.22  C 
ATOM      7 O    VAL C  77      16.490   8.884   6.440  0.47 51.68 LIG-0.28  OA
ATOM      8 N    PRO C  78      18.663   8.846   6.466  0.47 51.29 LIG-0.24  NA
ATOM      9  CD  PRO C  78      19.447   8.247   7.558  0.47 47.28 LIG 0.10  C 
ATOM     10  CA  PRO C  78      18.631  10.292   6.582  0.47 47.56 LIG 0.16  C 
ATOM     11  CG  PRO C  78      19.648   9.366   8.477  0.47 42.43 LIG 0.02  C 
ATOM     12  CB  PRO C  78      19.655  10.574   7.670  0.47 42.06 LIG 0.03  C 
BRANCH 10 13
ATOM     13  C   PRO C  78      18.919  10.859   5.216  0.47 54.03 LIG 0.24  C 
ATOM     14  N   PRO C  79      18.925  12.173   5.013  0.47 54.03 LIG-0.34  N 
ATOM     15  CD  PRO C  79      18.045  12.947   5.895  0.47 49.78 LIG 0.13  C 
ATOM     16  CA  PRO C  79      18.922  12.730   3.657  0.47 62.24 LIG 0.17  C 
ATOM     17  CG  PRO C  79      17.581  14.029   5.039  0.47 51.96 LIG 0.02  C 
ATOM     18  CB  PRO C  79      18.425  14.128   3.876  0.47 58.89 LIG 0.04  C 
ATOM     19 O    PRO C  78      19.072  10.054   4.333  0.47 60.82 LIG-0.27  OA
BRANCH 16 20
ATOM     20  C   PRO C  79      20.235  12.764   2.913  0.47 69.87 LIG 0.22  C 
ATOM     21 O    PRO C  79      20.825  13.815   2.887  0.47 73.23 LIG-0.29  OA
ENDBRANCH 16 20
ENDBRANCH 10 13
ENDBRANCH 5 6
BRANCH 5 22
ATOM     22  CB  VAL C  77      16.822   6.228   4.813  0.47 43.60 LIG 0.01  C 
ATOM     23  CG2 VAL C  77      15.372   6.709   4.759  0.47 46.41 LIG 0.01  C 
ATOM     24  CG1 VAL C  77      16.820   4.696   4.733  0.47 37.55 LIG 0.01  C 
ENDBRANCH 5 22
ENDBRANCH 3 5
BRANCH 1 25
ATOM     25  CA  PRO C  76      16.548   4.773   9.138  0.47 40.28 LIG 0.18  C 
ATOM     26  N   PRO C  76      17.077   5.480  10.284  0.47 33.79 LIG-0.34  N 
ATOM     27  CD  PRO C  76      16.010   6.173  11.008  0.47 35.40 LIG 0.13  C 
ATOM     28  C   PRO C  75      18.126   5.017  10.924  0.47 33.84 LIG 0.24  C 
ATOM     29  CG  PRO C  76      14.901   6.148  10.049  0.47 37.80 LIG 0.02  C 
ATOM     30  CB  PRO C  76      15.057   5.136   9.138  0.47 38.87 LIG 0.04  C 
ATOM     31 O    PRO C  75      18.697   4.042  10.581  0.47 33.93 LIG-0.27  OA
BRANCH 28 32
ATOM     32  CA  PRO C  75      18.556   5.726  12.185  0.47 46.85 LIG 0.18  C 
ATOM     33  CB  PRO C  75      18.884   7.198  11.906  0.47 48.68 LIG 0.04  C 
ATOM     34  CG  PRO C  75      20.228   7.446  12.509  0.47 51.42 LIG 0.02  C 
ATOM     35  CD  PRO C  75      20.631   6.259  13.269  0.47 56.17 LIG 0.13  C 
ATOM     36  N   PRO C  75      19.817   5.199  12.681  0.47 56.81 LIG-0.34  N 
ATOM     37  C   PRO C  74      19.920   4.075  13.389  0.47 61.55 LIG 0.26  C 
ATOM     38 O    PRO C  74      18.991   3.345  13.677  0.47 61.23 LIG-0.27  OA
BRANCH 37 39
ATOM     39  CA  PRO C  74      21.306   3.701  13.862  0.47 57.58 LIG 0.35  C 
ATOM     40  N   PRO C  74      21.357   3.579  15.320  0.47 57.74 LIG 0.32  N 
ATOM     41  CD  PRO C  74      21.968   2.306  15.705  0.47 56.21 LIG 0.32  C 
ATOM     42  CG  PRO C  74      21.588   1.432  14.572  0.47 52.80 LIG 0.04  C 
ATOM     43  CB  PRO C  74      21.669   2.295  13.387  0.47 50.35 LIG 0.05  C 
ENDBRANCH 37 39
ENDBRANCH 28 32
ENDBRANCH 1 25
TORSDOF 8
ENDMDL
MODEL 32
USER: ADFR SOLUTION from run 131
USER: SCORE 12.000321 LL:  -3.725 LR:  -8.307 RR:   0.000 FEB:  -5.920
USER: RMSD 10.747778
USER: SEED 130
USER: STATUS no improvement in best in 21 clusters for 5 generations
USER: GENES 10
USER: genes 0 Translation |==|  0.62726 0.29016 0.68740
USER: genes 1 Rotation |==|  0.91888 0.39696 0.24751 0.51317
USER: genes 2 Torsion [C]-N--CA-[C] |==|  0.80954
USER: genes 3 Torsion [N]-CA--C-[N] |==|  0.43616
USER: genes 4 Torsion [N]-CA--C-[N] |==|  0.41980
USER: genes 5 Torsion [N]-CA--C-[O] |==|  0.87061
USER: genes 6 Torsion [N]-CA--CB-[CG2] |==|  0.46296
USER: genes 7 Torsion [O]-C--CA-[N] |==|  0.94557
USER: genes 8 Torsion [N]-C--CA-[N] |==|  0.90493
USER: genes 9 Torsion [N]-C--CA-[CB] |==|  0.73736
ROOT
ATOM      1  C   PRO C  76      18.172   5.927  10.525  0.47 42.64 LIG 0.24  C 
ATOM      2 O    PRO C  76      19.056   6.670  10.257  0.47 44.95 LIG-0.27  OA
ATOM      3  N   VAL C  77      17.559   5.194   9.630  0.47 42.25 LIG-0.35  N 
ATOM      4 H    VAL C  77      16.944   4.616   9.793  0.47 42.25 LIG 0.16  HD
ENDROOT
BRANCH 3 5
ATOM      5  CA  VAL C  77      17.927   5.349   8.255  0.47 44.36 LIG 0.17  C 
BRANCH 5 6
ATOM      6  C   VAL C  77      17.446   6.722   7.865  0.47 50.22 LIG 0.22  C 
ATOM      7 O    VAL C  77      16.612   7.266   8.536  0.47 51.68 LIG-0.28  OA
ATOM      8 N    PRO C  78      17.988   7.355   6.856  0.47 51.29 LIG-0.24  NA
ATOM      9  CD  PRO C  78      19.447   7.467   7.012  0.47 47.28 LIG 0.10  C 
ATOM     10  CA  PRO C  78      17.402   8.638   6.516  0.47 47.56 LIG 0.16  C 
ATOM     11  CG  PRO C  78      19.672   8.911   7.025  0.47 42.43 LIG 0.02  C 
ATOM     12  CB  PRO C  78      18.616   9.505   6.222  0.47 42.06 LIG 0.03  C 
BRANCH 10 13
ATOM     13  C   PRO C  78      16.442   8.406   5.378  0.47 54.03 LIG 0.24  C 
ATOM     14  N   PRO C  79      15.377   9.187   5.218  0.47 54.03 LIG-0.34  N 
ATOM     15  CD  PRO C  79      14.838   9.774   6.450  0.47 49.78 LIG 0.13  C 
ATOM     16  CA  PRO C  79      14.295   8.814   4.304  0.47 62.24 LIG 0.17  C 
ATOM     17  CG  PRO C  79      13.404   9.807   6.205  0.47 51.96 LIG 0.02  C 
ATOM     18  CB  PRO C  79      13.146   9.641   4.798  0.47 58.89 LIG 0.04  C 
ATOM     19 O    PRO C  78      16.667   7.447   4.686  0.47 60.82 LIG-0.27  OA
BRANCH 16 20
ATOM     20  C   PRO C  79      14.508   9.062   2.829  0.47 69.87 LIG 0.22  C 
ATOM     21 O    PRO C  79      14.946  10.139   2.512  0.47 73.23 LIG-0.29  OA
ENDBRANCH 16 20
ENDBRANCH 10 13
ENDBRANCH 5 6
BRANCH 5 22
ATOM     22  CB  VAL C  77      17.450   4.139   7.431  0.47 43.60 LIG 0.01  C 
ATOM     23  CG2 VAL C  77      17.572   4.523   5.956  0.47 46.41 LIG 0.01  C 
ATOM     24  CG1 VAL C  77      15.988   3.764   7.706  0.47 37.55 LIG 0.01  C 
ENDBRANCH 5 22
ENDBRANCH 3 5
BRANCH 1 25
ATOM     25  CA  PRO C  76      17.805   5.835  11.938  0.47 40.28 LIG 0.18  C 
ATOM     26  N   PRO C  76      18.924   6.335  12.706  0.47 33.79 LIG-0.34  N 
ATOM     27  CD  PRO C  76      18.520   7.467  13.542  0.47 35.40 LIG 0.13  C 
ATOM     28  C   PRO C  75      19.876   5.521  13.100  0.47 33.84 LIG 0.24  C 
ATOM     29  CG  PRO C  76      17.222   7.842  12.971  0.47 37.80 LIG 0.02  C 
ATOM     30  CB  PRO C  76      16.660   6.794  12.290  0.47 38.87 LIG 0.04  C 
ATOM     31 O    PRO C  75      19.883   4.373  12.823  0.47 33.93 LIG-0.27  OA
BRANCH 28 32
ATOM     32  CA  PRO C  75      20.952   6.074  14.003  0.47 46.85 LIG 0.18  C 
ATOM     33  CB  PRO C  75      20.468   6.152  15.456  0.47 48.68 LIG 0.04  C 
ATOM     34  CG  PRO C  75      20.771   7.538  15.922  0.47 51.42 LIG 0.02  C 
ATOM     35  CD  PRO C  75      21.555   8.223  14.890  0.47 56.17 LIG 0.13  C 
ATOM     36  N   PRO C  75      21.246   7.463  13.683  0.47 56.81 LIG-0.34  N 
ATOM     37  C   PRO C  74      22.030   7.836  12.673  0.47 61.55 LIG 0.26  C 
ATOM     38 O    PRO C  74      22.565   7.078  11.887  0.47 61.23 LIG-0.27  OA
BRANCH 37 39
ATOM     39  CA  PRO C  74      22.261   9.322  12.514  0.47 57.58 LIG 0.35  C 
ATOM     40  N   PRO C  74      23.558   9.596  11.892  0.47 57.74 LIG 0.32  N 
ATOM     41  CD  PRO C  74      23.398  10.514  10.762  0.47 56.21 LIG 0.32  C 
ATOM     42  CG  PRO C  74      22.035  10.182  10.291  0.47 52.80 LIG 0.04  C 
ATOM     43  CB  PRO C  74      21.268   9.912  11.514  0.47 50.35 LIG 0.05  C 
ENDBRANCH 37 39
ENDBRANCH 28 32
ENDBRANCH 1 25
TORSDOF 8
ENDMDL
MODEL 33
USER: ADFR SOLUTION from run 198
USER: SCORE 12.120881 LL:  -4.039 LR:  -8.299 RR:   0.000 FEB:  -5.912
USER: RMSD 9.169703
USER: SEED 197
USER: STATUS no improvement in best in 27 clusters for 5 generations
USER: GENES 10
USER: genes 0 Translation |==|  0.56313 0.19289 0.49145
USER: genes 1 Rotation |==|  0.68506 0.15311 0.20957 0.60521
USER: genes 2 Torsion [C]-N--CA-[C] |==|  0.68300
USER: genes 3 Torsion [N]-CA--C-[N] |==|  0.97778
USER: genes 4 Torsion [N]-CA--C-[N] |==|  0.35232
USER: genes 5 Torsion [N]-CA--C-[O] |==|  0.10017
USER: genes 6 Torsion [N]-CA--CB-[CG2] |==|  0.08480
USER: genes 7 Torsion [O]-C--CA-[N] |==|  0.41106
USER: genes 8 Torsion [N]-C--CA-[N] |==|  0.30594
USER: genes 9 Torsion [N]-C--CA-[CB] |==|  0.67660
ROOT
ATOM      1  C   PRO C  76      17.114   4.322   5.675  0.47 42.64 LIG 0.24  C 
ATOM      2 O    PRO C  76      17.560   3.709   4.763  0.47 44.95 LIG-0.27  OA
ATOM      3  N   VAL C  77      15.842   4.317   5.984  0.47 42.25 LIG-0.35  N 
ATOM      4 H    VAL C  77      15.489   4.714   6.660  0.47 42.25 LIG 0.16  HD
ENDROOT
BRANCH 3 5
ATOM      5  CA  VAL C  77      14.939   3.594   5.140  0.47 44.36 LIG 0.17  C 
BRANCH 5 6
ATOM      6  C   VAL C  77      14.051   4.639   4.517  0.47 50.22 LIG 0.22  C 
ATOM      7 O    VAL C  77      13.233   4.309   3.703  0.47 51.68 LIG-0.28  OA
ATOM      8 N    PRO C  78      14.108   5.884   4.918  0.47 51.29 LIG-0.24  NA
ATOM      9  CD  PRO C  78      13.902   5.992   6.371  0.47 47.28 LIG 0.10  C 
ATOM     10  CA  PRO C  78      13.265   6.825   4.203  0.47 47.56 LIG 0.16  C 
ATOM     11  CG  PRO C  78      12.712   6.833   6.479  0.47 42.43 LIG 0.02  C 
ATOM     12  CB  PRO C  78      12.707   7.702   5.314  0.47 42.06 LIG 0.03  C 
BRANCH 10 13
ATOM     13  C   PRO C  78      14.127   7.505   3.171  0.47 54.03 LIG 0.24  C 
ATOM     14  N   PRO C  79      13.764   7.528   1.892  0.47 54.03 LIG-0.34  N 
ATOM     15  CD  PRO C  79      12.947   6.393   1.451  0.47 49.78 LIG 0.13  C 
ATOM     16  CA  PRO C  79      14.706   7.928   0.844  0.47 62.24 LIG 0.17  C 
ATOM     17  CG  PRO C  79      13.382   6.181   0.078  0.47 51.96 LIG 0.02  C 
ATOM     18  CB  PRO C  79      14.094   7.341  -0.393  0.47 58.89 LIG 0.04  C 
ATOM     19 O    PRO C  78      15.172   7.951   3.569  0.47 60.82 LIG-0.27  OA
BRANCH 16 20
ATOM     20  C   PRO C  79      14.945   9.406   0.645  0.47 69.87 LIG 0.22  C 
ATOM     21 O    PRO C  79      14.947  10.100   1.631  0.47 73.23 LIG-0.29  OA
ENDBRANCH 16 20
ENDBRANCH 10 13
ENDBRANCH 5 6
BRANCH 5 22
ATOM     22  CB  VAL C  77      14.283   2.439   5.918  0.47 43.60 LIG 0.01  C 
ATOM     23  CG2 VAL C  77      14.186   2.879   7.380  0.47 46.41 LIG 0.01  C 
ATOM     24  CG1 VAL C  77      15.097   1.140   5.864  0.47 37.55 LIG 0.01  C 
ENDBRANCH 5 22
ENDBRANCH 3 5
BRANCH 1 25
ATOM     25  CA  PRO C  76      18.072   5.078   6.482  0.47 40.28 LIG 0.18  C 
ATOM     26  N   PRO C  76      17.388   6.256   6.969  0.47 33.79 LIG-0.34  N 
ATOM     27  CD  PRO C  76      17.400   6.301   8.432  0.47 35.40 LIG 0.13  C 
ATOM     28  C   PRO C  75      17.397   7.366   6.267  0.47 33.84 LIG 0.24  C 
ATOM     29  CG  PRO C  76      17.794   4.935   8.792  0.47 37.80 LIG 0.02  C 
ATOM     30  CB  PRO C  76      18.457   4.322   7.761  0.47 38.87 LIG 0.04  C 
ATOM     31 O    PRO C  75      17.922   7.444   5.212  0.47 33.93 LIG-0.27  OA
BRANCH 28 32
ATOM     32  CA  PRO C  75      16.776   8.597   6.881  0.47 46.85 LIG 0.18  C 
ATOM     33  CB  PRO C  75      15.900   9.340   5.866  0.47 48.68 LIG 0.04  C 
ATOM     34  CG  PRO C  75      16.334  10.767   5.907  0.47 51.42 LIG 0.02  C 
ATOM     35  CD  PRO C  75      17.291  10.939   7.004  0.47 56.17 LIG 0.13  C 
ATOM     36  N   PRO C  75      17.789   9.584   7.222  0.47 56.81 LIG-0.34  N 
ATOM     37  C   PRO C  74      18.536   9.524   8.322  0.47 61.55 LIG 0.26  C 
ATOM     38 O    PRO C  74      18.488   8.636   9.152  0.47 61.23 LIG-0.27  OA
BRANCH 37 39
ATOM     39  CA  PRO C  74      19.510  10.661   8.538  0.47 57.58 LIG 0.35  C 
ATOM     40  N   PRO C  74      19.386  11.221   9.886  0.47 57.74 LIG 0.32  N 
ATOM     41  CD  PRO C  74      20.699  11.299  10.529  0.47 56.21 LIG 0.32  C 
ATOM     42  CG  PRO C  74      21.411  10.161   9.905  0.47 52.80 LIG 0.04  C 
ATOM     43  CB  PRO C  74      20.947  10.144   8.512  0.47 50.35 LIG 0.05  C 
ENDBRANCH 37 39
ENDBRANCH 28 32
ENDBRANCH 1 25
TORSDOF 8
ENDMDL
MODEL 34
USER: ADFR SOLUTION from run 62
USER: SCORE 12.594728 LL:  -4.374 LR:  -8.290 RR:   0.000 FEB:  -5.904
USER: RMSD 8.932963
USER: SEED 61
USER: STATUS no improvement in best in 32 clusters for 5 generations
USER: GENES 10
USER: genes 0 Translation |==|  0.60208 0.22817 0.51788
USER: genes 1 Rotation |==|  0.74692 0.50175 0.10606 0.68395
USER: genes 2 Torsion [C]-N--CA-[C] |==|  0.83591
USER: genes 3 Torsion [N]-CA--C-[N] |==|  0.94625
USER: genes 4 Torsion [N]-CA--C-[N] |==|  0.31533
USER: genes 5 Torsion [N]-CA--C-[O] |==|  0.52441
USER: genes 6 Torsion [N]-CA--CB-[CG2] |==|  0.62178
USER: genes 7 Torsion [O]-C--CA-[N] |==|  0.14046
USER: genes 8 Torsion [N]-C--CA-[N] |==|  0.33539
USER: genes 9 Torsion [N]-C--CA-[CB] |==|  0.66221
ROOT
ATOM      1  C   PRO C  76      17.756   4.904   6.330  0.47 42.64 LIG 0.24  C 
ATOM      2 O    PRO C  76      17.474   5.664   5.464  0.47 44.95 LIG-0.27  OA
ATOM      3  N   VAL C  77      17.289   3.682   6.387  0.47 42.25 LIG-0.35  N 
ATOM      4 H    VAL C  77      17.503   3.092   6.974  0.47 42.25 LIG 0.16  HD
ENDROOT
BRANCH 3 5
ATOM      5  CA  VAL C  77      16.340   3.269   5.398  0.47 44.36 LIG 0.17  C 
BRANCH 5 6
ATOM      6  C   VAL C  77      15.180   4.219   5.536  0.47 50.22 LIG 0.22  C 
ATOM      7 O    VAL C  77      14.361   4.279   4.660  0.47 51.68 LIG-0.28  OA
ATOM      8 N    PRO C  78      15.015   4.911   6.634  0.47 51.29 LIG-0.24  NA
ATOM      9  CD  PRO C  78      14.967   4.039   7.818  0.47 47.28 LIG 0.10  C 
ATOM     10  CA  PRO C  78      13.910   5.852   6.637  0.47 47.56 LIG 0.16  C 
ATOM     11  CG  PRO C  78      13.645   4.311   8.380  0.47 42.43 LIG 0.02  C 
ATOM     12  CB  PRO C  78      13.314   5.681   8.025  0.47 42.06 LIG 0.03  C 
BRANCH 10 13
ATOM     13  C   PRO C  78      14.474   7.209   6.304  0.47 54.03 LIG 0.24  C 
ATOM     14  N   PRO C  79      14.152   7.818   5.166  0.47 54.03 LIG-0.34  N 
ATOM     15  CD  PRO C  79      13.828   6.926   4.047  0.47 49.78 LIG 0.13  C 
ATOM     16  CA  PRO C  79      14.897   8.990   4.698  0.47 62.24 LIG 0.17  C 
ATOM     17  CG  PRO C  79      14.336   7.645   2.888  0.47 51.96 LIG 0.02  C 
ATOM     18  CB  PRO C  79      14.571   9.023   3.234  0.47 58.89 LIG 0.04  C 
ATOM     19 O    PRO C  78      15.269   7.656   7.090  0.47 60.82 LIG-0.27  OA
BRANCH 16 20
ATOM     20  C   PRO C  79      14.569  10.323   5.326  0.47 69.87 LIG 0.22  C 
ATOM     21 O    PRO C  79      15.064  11.302   4.826  0.47 73.23 LIG-0.29  OA
ENDBRANCH 16 20
ENDBRANCH 10 13
ENDBRANCH 5 6
BRANCH 5 22
ATOM     22  CB  VAL C  77      16.072   1.756   5.509  0.47 43.60 LIG 0.01  C 
ATOM     23  CG2 VAL C  77      16.072   1.194   4.087  0.47 46.41 LIG 0.01  C 
ATOM     24  CG1 VAL C  77      14.717   1.433   6.150  0.47 37.55 LIG 0.01  C 
ENDBRANCH 5 22
ENDBRANCH 3 5
BRANCH 1 25
ATOM     25  CA  PRO C  76      18.697   5.388   7.340  0.47 40.28 LIG 0.18  C 
ATOM     26  N   PRO C  76      18.206   6.666   7.807  0.47 33.79 LIG-0.34  N 
ATOM     27  CD  PRO C  76      17.972   6.638   9.252  0.47 35.40 LIG 0.13  C 
ATOM     28  C   PRO C  75      18.573   7.777   7.212  0.47 33.84 LIG 0.24  C 
ATOM     29  CG  PRO C  76      17.997   5.204   9.556  0.47 37.80 LIG 0.02  C 
ATOM     30  CB  PRO C  76      18.684   4.507   8.596  0.47 38.87 LIG 0.04  C 
ATOM     31 O    PRO C  75      19.278   7.785   6.265  0.47 33.93 LIG-0.27  OA
BRANCH 28 32
ATOM     32  CA  PRO C  75      18.130   9.085   7.819  0.47 46.85 LIG 0.18  C 
ATOM     33  CB  PRO C  75      17.385   9.948   6.793  0.47 48.68 LIG 0.04  C 
ATOM     34  CG  PRO C  75      18.023  11.297   6.842  0.47 51.42 LIG 0.02  C 
ATOM     35  CD  PRO C  75      18.980  11.327   7.952  0.47 56.17 LIG 0.13  C 
ATOM     36  N   PRO C  75      19.272   9.914   8.174  0.47 56.81 LIG-0.34  N 
ATOM     37  C   PRO C  74      19.988   9.747   9.285  0.47 61.55 LIG 0.26  C 
ATOM     38 O    PRO C  74      19.799   8.876  10.112  0.47 61.23 LIG-0.27  OA
BRANCH 37 39
ATOM     39  CA  PRO C  74      21.114  10.730   9.515  0.47 57.58 LIG 0.35  C 
ATOM     40  N   PRO C  74      20.986  11.393  10.814  0.47 57.74 LIG 0.32  N 
ATOM     41  CD  PRO C  74      22.245  11.308  11.556  0.47 56.21 LIG 0.32  C 
ATOM     42  CG  PRO C  74      22.807  10.033  11.057  0.47 52.80 LIG 0.04  C 
ATOM     43  CB  PRO C  74      22.447   9.994   9.634  0.47 50.35 LIG 0.05  C 
ENDBRANCH 37 39
ENDBRANCH 28 32
ENDBRANCH 1 25
TORSDOF 8
ENDMDL
MODEL 35
USER: ADFR SOLUTION from run 174
USER: SCORE 10.966799 LL:  -3.354 LR:  -8.273 RR:   0.000 FEB:  -5.886
USER: RMSD 10.466524
USER: SEED 173
USER: STATUS no improvement in best in 26 clusters for 5 generations
USER: GENES 10
USER: genes 0 Translation |==|  0.46258 0.60018 0.49091
USER: genes 1 Rotation |==|  0.71130 0.93345 0.39866 0.58490
USER: genes 2 Torsion [C]-N--CA-[C] |==|  0.67309
USER: genes 3 Torsion [N]-CA--C-[N] |==|  0.58873
USER: genes 4 Torsion [N]-CA--C-[N] |==|  0.86760
USER: genes 5 Torsion [N]-CA--C-[O] |==|  0.54849
USER: genes 6 Torsion [N]-CA--CB-[CG2] |==|  0.17782
USER: genes 7 Torsion [O]-C--CA-[N] |==|  0.30305
USER: genes 8 Torsion [N]-C--CA-[N] |==|  0.43934
USER: genes 9 Torsion [N]-C--CA-[CB] |==|  0.83595
ROOT
ATOM      1  C   PRO C  76      15.455  11.042   5.662  0.47 42.64 LIG 0.24  C 
ATOM      2 O    PRO C  76      14.389  10.918   6.168  0.47 44.95 LIG-0.27  OA
ATOM      3  N   VAL C  77      15.619  11.496   4.445  0.47 42.25 LIG-0.35  N 
ATOM      4 H    VAL C  77      16.375  11.637   4.062  0.47 42.25 LIG 0.16  HD
ENDROOT
BRANCH 3 5
ATOM      5  CA  VAL C  77      14.454  11.790   3.665  0.47 44.36 LIG 0.17  C 
BRANCH 5 6
ATOM      6  C   VAL C  77      14.519  10.859   2.483  0.47 50.22 LIG 0.22  C 
ATOM      7 O    VAL C  77      14.947   9.747   2.633  0.47 51.68 LIG-0.28  OA
ATOM      8 N    PRO C  78      14.038  11.224   1.322  0.47 51.29 LIG-0.24  NA
ATOM      9  CD  PRO C  78      12.632  11.643   1.430  0.47 47.28 LIG 0.10  C 
ATOM     10  CA  PRO C  78      14.218  10.284   0.232  0.47 47.56 LIG 0.16  C 
ATOM     11  CG  PRO C  78      11.937  10.711   0.544  0.47 42.43 LIG 0.02  C 
ATOM     12  CB  PRO C  78      12.882  10.337  -0.494  0.47 42.06 LIG 0.03  C 
BRANCH 10 13
ATOM     13  C   PRO C  78      15.430  10.725  -0.547  0.47 54.03 LIG 0.24  C 
ATOM     14  N   PRO C  79      15.579  11.995  -0.909  0.47 54.03 LIG-0.34  N 
ATOM     15  CD  PRO C  79      14.332  12.738  -1.121  0.47 49.78 LIG 0.13  C 
ATOM     16  CA  PRO C  79      16.591  12.389  -1.893  0.47 62.24 LIG 0.17  C 
ATOM     17  CG  PRO C  79      14.661  13.641  -2.214  0.47 51.96 LIG 0.02  C 
ATOM     18  CB  PRO C  79      16.091  13.721  -2.366  0.47 58.89 LIG 0.04  C 
ATOM     19 O    PRO C  78      16.198   9.853  -0.865  0.47 60.82 LIG-0.27  OA
BRANCH 16 20
ATOM     20  C   PRO C  79      18.018  12.518  -1.415  0.47 69.87 LIG 0.22  C 
ATOM     21 O    PRO C  79      18.778  13.139  -2.116  0.47 73.23 LIG-0.29  OA
ENDBRANCH 16 20
ENDBRANCH 10 13
ENDBRANCH 5 6
BRANCH 5 22
ATOM     22  CB  VAL C  77      14.350  13.305   3.405  0.47 43.60 LIG 0.01  C 
ATOM     23  CG2 VAL C  77      15.562  13.701   2.560  0.47 46.41 LIG 0.01  C 
ATOM     24  CG1 VAL C  77      14.374  14.138   4.693  0.47 37.55 LIG 0.01  C 
ENDBRANCH 5 22
ENDBRANCH 3 5
BRANCH 1 25
ATOM     25  CA  PRO C  76      16.611  10.688   6.486  0.47 40.28 LIG 0.18  C 
ATOM     26  N   PRO C  76      17.162   9.463   5.949  0.47 33.79 LIG-0.34  N 
ATOM     27  CD  PRO C  76      18.559   9.647   5.555  0.47 35.40 LIG 0.13  C 
ATOM     28  C   PRO C  75      16.739   8.298   6.383  0.47 33.84 LIG 0.24  C 
ATOM     29  CG  PRO C  76      18.700  11.107   5.541  0.47 37.80 LIG 0.02  C 
ATOM     30  CB  PRO C  76      17.750  11.703   6.330  0.47 38.87 LIG 0.04  C 
ATOM     31 O    PRO C  75      15.883   8.196   7.190  0.47 33.93 LIG-0.27  OA
BRANCH 28 32
ATOM     32  CA  PRO C  75      17.437   7.059   5.880  0.47 46.85 LIG 0.18  C 
ATOM     33  CB  PRO C  75      16.808   6.562   4.572  0.47 48.68 LIG 0.04  C 
ATOM     34  CG  PRO C  75      16.534   5.108   4.768  0.47 51.42 LIG 0.02  C 
ATOM     35  CD  PRO C  75      17.119   4.684   6.044  0.47 56.17 LIG 0.13  C 
ATOM     36  N   PRO C  75      17.237   5.937   6.784  0.47 56.81 LIG-0.34  N 
ATOM     37  C   PRO C  74      17.933   5.761   7.906  0.47 61.55 LIG 0.26  C 
ATOM     38 O    PRO C  74      18.787   6.519   8.324  0.47 61.23 LIG-0.27  OA
BRANCH 37 39
ATOM     39  CA  PRO C  74      17.622   4.514   8.703  0.47 57.58 LIG 0.35  C 
ATOM     40  N   PRO C  74      18.322   4.515   9.989  0.47 57.74 LIG 0.32  N 
ATOM     41  CD  PRO C  74      17.385   4.238  11.080  0.47 56.21 LIG 0.32  C 
ATOM     42  CG  PRO C  74      16.124   4.801  10.548  0.47 52.80 LIG 0.04  C 
ATOM     43  CB  PRO C  74      16.150   4.496   9.112  0.47 50.35 LIG 0.05  C 
ENDBRANCH 37 39
ENDBRANCH 28 32
ENDBRANCH 1 25
TORSDOF 8
ENDMDL
MODEL 36
USER: ADFR SOLUTION from run 119
USER: SCORE 12.162897 LL:  -3.892 LR:  -8.272 RR:   0.000 FEB:  -5.886
USER: RMSD 4.178393
USER: SEED 118
USER: STATUS no improvement in best in 37 clusters for 5 generations
USER: GENES 10
USER: genes 0 Translation |==|  0.50040 0.40534 0.46863
USER: genes 1 Rotation |==|  0.47453 0.58145 0.66825 0.96304
USER: genes 2 Torsion [C]-N--CA-[C] |==|  0.81969
USER: genes 3 Torsion [N]-CA--C-[N] |==|  0.94024
USER: genes 4 Torsion [N]-CA--C-[N] |==|  0.87982
USER: genes 5 Torsion [N]-CA--C-[O] |==|  0.97611
USER: genes 6 Torsion [N]-CA--CB-[CG2] |==|  0.66096
USER: genes 7 Torsion [O]-C--CA-[N] |==|  0.69137
USER: genes 8 Torsion [N]-C--CA-[N] |==|  0.93633
USER: genes 9 Torsion [N]-C--CA-[CB] |==|  0.83924
ROOT
ATOM      1  C   PRO C  76      16.079   7.827   5.111  0.47 42.64 LIG 0.24  C 
ATOM      2 O    PRO C  76      16.822   7.119   4.517  0.47 44.95 LIG-0.27  OA
ATOM      3  N   VAL C  77      16.451   8.958   5.654  0.47 42.25 LIG-0.35  N 
ATOM      4 H    VAL C  77      15.933   9.515   6.055  0.47 42.25 LIG 0.16  HD
ENDROOT
BRANCH 3 5
ATOM      5  CA  VAL C  77      17.834   9.323   5.588  0.47 44.36 LIG 0.17  C 
BRANCH 5 6
ATOM      6  C   VAL C  77      18.560   8.285   6.403  0.47 50.22 LIG 0.22  C 
ATOM      7 O    VAL C  77      19.747   8.158   6.272  0.47 51.68 LIG-0.28  OA
ATOM      8 N    PRO C  78      17.923   7.585   7.308  0.47 51.29 LIG-0.24  NA
ATOM      9  CD  PRO C  78      17.238   8.455   8.277  0.47 47.28 LIG 0.10  C 
ATOM     10  CA  PRO C  78      18.697   6.561   7.985  0.47 47.56 LIG 0.16  C 
ATOM     11  CG  PRO C  78      17.850   8.082   9.551  0.47 42.43 LIG 0.02  C 
ATOM     12  CB  PRO C  78      18.248   6.689   9.432  0.47 42.06 LIG 0.03  C 
BRANCH 10 13
ATOM     13  C   PRO C  78      18.406   5.251   7.298  0.47 54.03 LIG 0.24  C 
ATOM     14  N   PRO C  79      17.163   4.926   6.956  0.47 54.03 LIG-0.34  N 
ATOM     15  CD  PRO C  79      16.109   5.495   7.803  0.47 49.78 LIG 0.13  C 
ATOM     16  CA  PRO C  79      16.822   3.559   6.550  0.47 62.24 LIG 0.17  C 
ATOM     17  CG  PRO C  79      15.096   4.450   7.824  0.47 51.96 LIG 0.02  C 
ATOM     18  CB  PRO C  79      15.337   3.515   6.755  0.47 58.89 LIG 0.04  C 
ATOM     19 O    PRO C  78      19.346   4.514   7.149  0.47 60.82 LIG-0.27  OA
BRANCH 16 20
ATOM     20  C   PRO C  79      17.157   3.145   5.137  0.47 69.87 LIG 0.22  C 
ATOM     21 O    PRO C  79      17.535   4.009   4.387  0.47 73.23 LIG-0.29  OA
ENDBRANCH 16 20
ENDBRANCH 10 13
ENDBRANCH 5 6
BRANCH 5 22
ATOM     22  CB  VAL C  77      18.017  10.808   5.953  0.47 43.60 LIG 0.01  C 
ATOM     23  CG2 VAL C  77      18.697  11.484   4.762  0.47 46.41 LIG 0.01  C 
ATOM     24  CG1 VAL C  77      18.901  11.017   7.189  0.47 37.55 LIG 0.01  C 
ENDBRANCH 5 22
ENDBRANCH 3 5
BRANCH 1 25
ATOM     25  CA  PRO C  76      14.685   7.390   5.186  0.47 40.28 LIG 0.18  C 
ATOM     26  N   PRO C  76      13.902   8.306   4.386  0.47 33.79 LIG-0.34  N 
ATOM     27  CD  PRO C  76      13.189   7.595   3.324  0.47 35.40 LIG 0.13  C 
ATOM     28  C   PRO C  75      13.390   9.388   4.925  0.47 33.84 LIG 0.24  C 
ATOM     29  CG  PRO C  76      13.859   6.291   3.303  0.47 37.80 LIG 0.02  C 
ATOM     30  CB  PRO C  76      14.478   6.034   4.499  0.47 38.87 LIG 0.04  C 
ATOM     31 O    PRO C  75      13.568   9.677   6.056  0.47 33.93 LIG-0.27  OA
BRANCH 28 32
ATOM     32  CA  PRO C  75      12.481  10.241   4.074  0.47 46.85 LIG 0.18  C 
ATOM     33  CB  PRO C  75      11.016   9.815   4.232  0.47 48.68 LIG 0.04  C 
ATOM     34  CG  PRO C  75      10.483   9.640   2.848  0.47 51.42 LIG 0.02  C 
ATOM     35  CD  PRO C  75      11.492  10.100   1.890  0.47 56.17 LIG 0.13  C 
ATOM     36  N   PRO C  75      12.732  10.027   2.657  0.47 56.81 LIG-0.34  N 
ATOM     37  C   PRO C  74      13.736  10.596   1.992  0.47 61.55 LIG 0.26  C 
ATOM     38 O    PRO C  74      14.572  11.330   2.484  0.47 61.23 LIG-0.27  OA
BRANCH 37 39
ATOM     39  CA  PRO C  74      13.819  10.296   0.512  0.47 57.58 LIG 0.35  C 
ATOM     40  N   PRO C  74      15.062  10.811  -0.067  0.47 57.74 LIG 0.32  N 
ATOM     41  CD  PRO C  74      15.739   9.764  -0.834  0.47 56.21 LIG 0.32  C 
ATOM     42  CG  PRO C  74      15.322   8.540  -0.113  0.47 52.80 LIG 0.04  C 
ATOM     43  CB  PRO C  74      13.929   8.790   0.280  0.47 50.35 LIG 0.05  C 
ENDBRANCH 37 39
ENDBRANCH 28 32
ENDBRANCH 1 25
TORSDOF 8
ENDMDL
MODEL 37
USER: ADFR SOLUTION from run 115
USER: SCORE 11.108524 LL:  -3.296 LR:  -8.245 RR:   0.000 FEB:  -5.859
USER: RMSD 8.998076
USER: SEED 114
USER: STATUS no improvement in best in 20 clusters for 5 generations
USER: GENES 10
USER: genes 0 Translation |==|  0.51765 0.50349 0.49743
USER: genes 1 Rotation |==|  0.06292 0.38495 0.43724 0.70441
USER: genes 2 Torsion [C]-N--CA-[C] |==|  0.59713
USER: genes 3 Torsion [N]-CA--C-[N] |==|  0.27780
USER: genes 4 Torsion [N]-CA--C-[N] |==|  0.87972
USER: genes 5 Torsion [N]-CA--C-[O] |==|  0.24693
USER: genes 6 Torsion [N]-CA--CB-[CG2] |==|  0.04478
USER: genes 7 Torsion [O]-C--CA-[N] |==|  0.79784
USER: genes 8 Torsion [N]-C--CA-[N] |==|  0.90230
USER: genes 9 Torsion [N]-C--CA-[CB] |==|  0.67851
ROOT
ATOM      1  C   PRO C  76      16.363   9.447   5.823  0.47 42.64 LIG 0.24  C 
ATOM      2 O    PRO C  76      16.092   9.724   6.944  0.47 44.95 LIG-0.27  OA
ATOM      3  N   VAL C  77      17.378   9.971   5.184  0.47 42.25 LIG-0.35  N 
ATOM      4 H    VAL C  77      17.629   9.764   4.388  0.47 42.25 LIG 0.16  HD
ENDROOT
BRANCH 3 5
ATOM      5  CA  VAL C  77      18.154  10.977   5.845  0.47 44.36 LIG 0.17  C 
BRANCH 5 6
ATOM      6  C   VAL C  77      18.571  11.936   4.762  0.47 50.22 LIG 0.22  C 
ATOM      7 O    VAL C  77      19.449  11.624   4.005  0.47 51.68 LIG-0.28  OA
ATOM      8 N    PRO C  78      17.930  13.064   4.589  0.47 51.29 LIG-0.24  NA
ATOM      9  CD  PRO C  78      16.488  12.839   4.398  0.47 47.28 LIG 0.10  C 
ATOM     10  CA  PRO C  78      18.458  13.950   3.568  0.47 47.56 LIG 0.16  C 
ATOM     11  CG  PRO C  78      16.236  13.400   3.072  0.47 42.43 LIG 0.02  C 
ATOM     12  CB  PRO C  78      17.205  14.466   2.877  0.47 42.06 LIG 0.03  C 
BRANCH 10 13
ATOM     13  C   PRO C  78      19.319  14.972   4.263  0.47 54.03 LIG 0.24  C 
ATOM     14  N   PRO C  79      18.915  15.545   5.393  0.47 54.03 LIG-0.34  N 
ATOM     15  CD  PRO C  79      17.462  15.664   5.551  0.47 49.78 LIG 0.13  C 
ATOM     16  CA  PRO C  79      19.595  16.729   5.927  0.47 62.24 LIG 0.17  C 
ATOM     17  CG  PRO C  79      17.305  16.923   6.267  0.47 51.96 LIG 0.02  C 
ATOM     18  CB  PRO C  79      18.564  17.314   6.846  0.47 58.89 LIG 0.04  C 
ATOM     19 O    PRO C  78      20.340  15.272   3.699  0.47 60.82 LIG-0.27  OA
BRANCH 16 20
ATOM     20  C   PRO C  79      20.887  16.514   6.678  0.47 69.87 LIG 0.22  C 
ATOM     21 O    PRO C  79      21.905  16.514   6.031  0.47 73.23 LIG-0.29  OA
ENDBRANCH 16 20
ENDBRANCH 10 13
ENDBRANCH 5 6
BRANCH 5 22
ATOM     22  CB  VAL C  77      19.246  10.328   6.716  0.47 43.60 LIG 0.01  C 
ATOM     23  CG2 VAL C  77      19.380   8.874   6.260  0.47 46.41 LIG 0.01  C 
ATOM     24  CG1 VAL C  77      18.901  10.328   8.211  0.47 37.55 LIG 0.01  C 
ENDBRANCH 5 22
ENDBRANCH 3 5
BRANCH 1 25
ATOM     25  CA  PRO C  76      15.515   8.445   5.178  0.47 40.28 LIG 0.18  C 
ATOM     26  N   PRO C  76      15.845   7.162   5.760  0.47 33.79 LIG-0.34  N 
ATOM     27  CD  PRO C  76      14.665   6.546   6.368  0.47 35.40 LIG 0.13  C 
ATOM     28  C   PRO C  75      16.791   6.418   5.236  0.47 33.84 LIG 0.24  C 
ATOM     29  CG  PRO C  76      13.718   7.664   6.441  0.47 37.80 LIG 0.02  C 
ATOM     30  CB  PRO C  76      14.036   8.640   5.532  0.47 38.87 LIG 0.04  C 
ATOM     31 O    PRO C  75      17.429   6.767   4.306  0.47 33.93 LIG-0.27  OA
BRANCH 28 32
ATOM     32  CA  PRO C  75      17.006   5.038   5.809  0.47 46.85 LIG 0.18  C 
ATOM     33  CB  PRO C  75      15.959   4.051   5.280  0.47 48.68 LIG 0.04  C 
ATOM     34  CG  PRO C  75      15.392   3.364   6.478  0.47 51.42 LIG 0.02  C 
ATOM     35  CD  PRO C  75      16.160   3.764   7.660  0.47 56.17 LIG 0.13  C 
ATOM     36  N   PRO C  75      16.772   5.022   7.245  0.47 56.81 LIG-0.34  N 
ATOM     37  C   PRO C  74      17.666   5.433   8.142  0.47 61.55 LIG 0.26  C 
ATOM     38 O    PRO C  74      18.760   5.894   7.877  0.47 61.23 LIG-0.27  OA
BRANCH 37 39
ATOM     39  CA  PRO C  74      17.271   5.303   9.596  0.47 57.58 LIG 0.35  C 
ATOM     40  N   PRO C  74      18.322   4.649  10.378  0.47 57.74 LIG 0.32  N 
ATOM     41  CD  PRO C  74      18.638   5.438  11.570  0.47 56.21 LIG 0.32  C 
ATOM     42  CG  PRO C  74      18.348   6.814  11.109  0.47 52.80 LIG 0.04  C 
ATOM     43  CB  PRO C  74      17.168   6.682  10.245  0.47 50.35 LIG 0.05  C 
ENDBRANCH 37 39
ENDBRANCH 28 32
ENDBRANCH 1 25
TORSDOF 8
ENDMDL
MODEL 38
USER: ADFR SOLUTION from run 173
USER: SCORE 11.688112 LL:  -4.172 LR:  -8.247 RR:   0.000 FEB:  -5.861
USER: RMSD 5.068725
USER: SEED 172
USER: STATUS no improvement in best in 20 clusters for 5 generations
USER: GENES 10
USER: genes 0 Translation |==|  0.67565 0.47727 0.53061
USER: genes 1 Rotation |==|  0.68610 0.23165 0.69026 0.82735
USER: genes 2 Torsion [C]-N--CA-[C] |==|  0.69974
USER: genes 3 Torsion [N]-CA--C-[N] |==|  0.67779
USER: genes 4 Torsion [N]-CA--C-[N] |==|  0.31911
USER: genes 5 Torsion [N]-CA--C-[O] |==|  0.72639
USER: genes 6 Torsion [N]-CA--CB-[CG2] |==|  0.07581
USER: genes 7 Torsion [O]-C--CA-[N] |==|  0.50748
USER: genes 8 Torsion [N]-C--CA-[N] |==|  0.33367
USER: genes 9 Torsion [N]-C--CA-[CB] |==|  0.82804
ROOT
ATOM      1  C   PRO C  76      18.970   9.014   6.645  0.47 42.64 LIG 0.24  C 
ATOM      2 O    PRO C  76      20.147   9.051   6.791  0.47 44.95 LIG-0.27  OA
ATOM      3  N   VAL C  77      18.147   8.613   7.580  0.47 42.25 LIG-0.35  N 
ATOM      4 H    VAL C  77      17.289   8.611   7.524  0.47 42.25 LIG 0.16  HD
ENDROOT
BRANCH 3 5
ATOM      5  CA  VAL C  77      18.697   8.131   8.811  0.47 44.36 LIG 0.17  C 
BRANCH 5 6
ATOM      6  C   VAL C  77      18.470   6.642   8.794  0.47 50.22 LIG 0.22  C 
ATOM      7 O    VAL C  77      19.072   5.963   8.007  0.47 51.68 LIG-0.28  OA
ATOM      8 N    PRO C  78      17.690   6.078   9.681  0.47 51.29 LIG-0.24  NA
ATOM      9  CD  PRO C  78      18.109   6.407  11.052  0.47 47.28 LIG 0.10  C 
ATOM     10  CA  PRO C  78      17.480   4.650   9.531  0.47 47.56 LIG 0.16  C 
ATOM     11  CG  PRO C  78      18.405   5.100  11.635  0.47 42.43 LIG 0.02  C 
ATOM     12  CB  PRO C  78      17.547   4.139  10.962  0.47 42.06 LIG 0.03  C 
BRANCH 10 13
ATOM     13  C   PRO C  78      16.172   4.463   8.805  0.47 54.03 LIG 0.24  C 
ATOM     14  N   PRO C  79      16.141   3.923   7.591  0.47 54.03 LIG-0.34  N 
ATOM     15  CD  PRO C  79      17.343   4.139   6.777  0.47 49.78 LIG 0.13  C 
ATOM     16  CA  PRO C  79      14.934   3.990   6.762  0.47 62.24 LIG 0.17  C 
ATOM     17  CG  PRO C  79      16.814   4.259   5.426  0.47 51.96 LIG 0.02  C 
ATOM     18  CB  PRO C  79      15.468   3.751   5.381  0.47 58.89 LIG 0.04  C 
ATOM     19 O    PRO C  78      15.194   4.890   9.363  0.47 60.82 LIG-0.27  OA
BRANCH 16 20
ATOM     20  C   PRO C  79      13.826   3.007   7.061  0.47 69.87 LIG 0.22  C 
ATOM     21 O    PRO C  79      13.766   2.021   6.370  0.47 73.23 LIG-0.29  OA
ENDBRANCH 16 20
ENDBRANCH 10 13
ENDBRANCH 5 6
BRANCH 5 22
ATOM     22  CB  VAL C  77      18.153   8.945   9.999  0.47 43.60 LIG 0.01  C 
ATOM     23  CG2 VAL C  77      16.779   9.477   9.588  0.47 46.41 LIG 0.01  C 
ATOM     24  CG1 VAL C  77      19.040  10.144  10.361  0.47 37.55 LIG 0.01  C 
ENDBRANCH 5 22
ENDBRANCH 3 5
BRANCH 1 25
ATOM     25  CA  PRO C  76      18.460   9.478   5.354  0.47 40.28 LIG 0.18  C 
ATOM     26  N   PRO C  76      17.016   9.409   5.413  0.47 33.79 LIG-0.34  N 
ATOM     27  CD  PRO C  76      16.421  10.725   5.171  0.47 35.40 LIG 0.13  C 
ATOM     28  C   PRO C  75      16.388   8.315   5.050  0.47 33.84 LIG 0.24  C 
ATOM     29  CG  PRO C  76      17.564  11.630   5.327  0.47 37.80 LIG 0.02  C 
ATOM     30  CB  PRO C  76      18.749  10.968   5.132  0.47 38.87 LIG 0.04  C 
ATOM     31 O    PRO C  75      16.959   7.343   4.699  0.47 33.93 LIG-0.27  OA
BRANCH 28 32
ATOM     32  CA  PRO C  75      14.879   8.345   5.013  0.47 46.85 LIG 0.18  C 
ATOM     33  CB  PRO C  75      14.283   7.210   5.854  0.47 48.68 LIG 0.04  C 
ATOM     34  CG  PRO C  75      13.289   6.522   4.980  0.47 51.42 LIG 0.02  C 
ATOM     35  CD  PRO C  75      13.142   7.286   3.738  0.47 56.17 LIG 0.13  C 
ATOM     36  N   PRO C  75      14.380   8.057   3.677  0.47 56.81 LIG-0.34  N 
ATOM     37  C   PRO C  74      14.330   8.959   2.698  0.47 61.55 LIG 0.26  C 
ATOM     38 O    PRO C  74      14.717  10.108   2.788  0.47 61.23 LIG-0.27  OA
BRANCH 37 39
ATOM     39  CA  PRO C  74      13.738   8.496   1.386  0.47 57.58 LIG 0.35  C 
ATOM     40  N   PRO C  74      13.830   9.540   0.362  0.47 57.74 LIG 0.32  N 
ATOM     41  CD  PRO C  74      14.424   9.002  -0.863  0.47 56.21 LIG 0.32  C 
ATOM     42  CG  PRO C  74      15.313   7.944  -0.331  0.47 52.80 LIG 0.04  C 
ATOM     43  CB  PRO C  74      14.573   7.361   0.796  0.47 50.35 LIG 0.05  C 
ENDBRANCH 37 39
ENDBRANCH 28 32
ENDBRANCH 1 25
TORSDOF 8
ENDMDL
MODEL 39
USER: ADFR SOLUTION from run 79
USER: SCORE 12.031348 LL:  -3.875 LR:  -8.250 RR:   0.000 FEB:  -5.864
USER: RMSD 6.528859
USER: SEED 78
USER: STATUS no improvement in best in 33 clusters for 5 generations
USER: GENES 10
USER: genes 0 Translation |==|  0.39611 0.50873 0.49458
USER: genes 1 Rotation |==|  0.03072 0.52694 0.38226 0.62324
USER: genes 2 Torsion [C]-N--CA-[C] |==|  0.77307
USER: genes 3 Torsion [N]-CA--C-[N] |==|  0.47495
USER: genes 4 Torsion [N]-CA--C-[N] |==|  0.37668
USER: genes 5 Torsion [N]-CA--C-[O] |==|  0.13579
USER: genes 6 Torsion [N]-CA--CB-[CG2] |==|  0.89437
USER: genes 7 Torsion [O]-C--CA-[N] |==|  0.51077
USER: genes 8 Torsion [N]-C--CA-[N] |==|  0.56569
USER: genes 9 Torsion [N]-C--CA-[CB] |==|  0.83714
ROOT
ATOM      1  C   PRO C  76      14.358   9.533   5.753  0.47 42.64 LIG 0.24  C 
ATOM      2 O    PRO C  76      14.376  10.144   6.770  0.47 44.95 LIG-0.27  OA
ATOM      3  N   VAL C  77      15.444   9.176   5.115  0.47 42.25 LIG-0.35  N 
ATOM      4 H    VAL C  77      15.471   8.700   4.400  0.47 42.25 LIG 0.16  HD
ENDROOT
BRANCH 3 5
ATOM      5  CA  VAL C  77      16.709   9.602   5.633  0.47 44.36 LIG 0.17  C 
BRANCH 5 6
ATOM      6  C   VAL C  77      16.889  11.013   5.137  0.47 50.22 LIG 0.22  C 
ATOM      7 O    VAL C  77      16.077  11.482   4.387  0.47 51.68 LIG-0.28  OA
ATOM      8 N    PRO C  78      17.872  11.754   5.582  0.47 51.29 LIG-0.24  NA
ATOM      9  CD  PRO C  78      17.859  11.840   7.051  0.47 47.28 LIG 0.10  C 
ATOM     10  CA  PRO C  78      18.000  13.071   4.985  0.47 47.56 LIG 0.16  C 
ATOM     11  CG  PRO C  78      17.707  13.273   7.300  0.47 42.43 LIG 0.02  C 
ATOM     12  CB  PRO C  78      18.322  13.960   6.176  0.47 42.06 LIG 0.03  C 
BRANCH 10 13
ATOM     13  C   PRO C  78      19.049  12.975   3.908  0.47 54.03 LIG 0.24  C 
ATOM     14  N   PRO C  79      18.854  13.538   2.719  0.47 54.03 LIG-0.34  N 
ATOM     15  CD  PRO C  79      17.454  13.638   2.293  0.47 49.78 LIG 0.13  C 
ATOM     16  CA  PRO C  79      19.722  13.222   1.580  0.47 62.24 LIG 0.17  C 
ATOM     17  CG  PRO C  79      17.528  13.448   0.852  0.47 51.96 LIG 0.02  C 
ATOM     18  CB  PRO C  79      18.884  13.630   0.405  0.47 58.89 LIG 0.04  C 
ATOM     19 O    PRO C  78      20.018  12.312   4.173  0.47 60.82 LIG-0.27  OA
BRANCH 16 20
ATOM     20  C   PRO C  79      21.066  13.908   1.514  0.47 69.87 LIG 0.22  C 
ATOM     21 O    PRO C  79      21.742  13.889   2.512  0.47 73.23 LIG-0.29  OA
ENDBRANCH 16 20
ENDBRANCH 10 13
ENDBRANCH 5 6
BRANCH 5 22
ATOM     22  CB  VAL C  77      17.799   8.564   5.311  0.47 43.60 LIG 0.01  C 
ATOM     23  CG2 VAL C  77      17.162   7.182   5.458  0.47 46.41 LIG 0.01  C 
ATOM     24  CG1 VAL C  77      19.000   8.639   6.263  0.47 37.55 LIG 0.01  C 
ENDBRANCH 5 22
ENDBRANCH 3 5
BRANCH 1 25
ATOM     25  CA  PRO C  76      13.039   9.157   5.243  0.47 40.28 LIG 0.18  C 
ATOM     26  N   PRO C  76      13.249   8.350   4.061  0.47 33.79 LIG-0.34  N 
ATOM     27  CD  PRO C  76      12.637   7.030   4.214  0.47 35.40 LIG 0.13  C 
ATOM     28  C   PRO C  75      13.332   8.914   2.878  0.47 33.84 LIG 0.24  C 
ATOM     29  CG  PRO C  76      12.376   6.961   5.655  0.47 37.80 LIG 0.02  C 
ATOM     30  CB  PRO C  76      12.306   8.214   6.206  0.47 38.87 LIG 0.04  C 
ATOM     31 O    PRO C  75      13.276  10.085   2.729  0.47 33.93 LIG-0.27  OA
BRANCH 28 32
ATOM     32  CA  PRO C  75      13.426   8.015   1.670  0.47 46.85 LIG 0.18  C 
ATOM     33  CB  PRO C  75      14.378   6.841   1.926  0.47 48.68 LIG 0.04  C 
ATOM     34  CG  PRO C  75      15.322   6.811   0.770  0.47 51.42 LIG 0.02  C 
ATOM     35  CD  PRO C  75      14.876   7.785  -0.230  0.47 56.17 LIG 0.13  C 
ATOM     36  N   PRO C  75      14.049   8.702   0.549  0.47 56.81 LIG-0.34  N 
ATOM     37  C   PRO C  74      13.402   9.551  -0.248  0.47 61.55 LIG 0.26  C 
ATOM     38 O    PRO C  74      12.237   9.876  -0.122  0.47 61.23 LIG-0.27  OA
BRANCH 37 39
ATOM     39  CA  PRO C  74      14.197  10.139  -1.392  0.47 57.58 LIG 0.35  C 
ATOM     40  N   PRO C  74      13.441  11.184  -2.084  0.47 57.74 LIG 0.32  N 
ATOM     41  CD  PRO C  74      14.250  12.398  -2.215  0.47 56.21 LIG 0.32  C 
ATOM     42  CG  PRO C  74      15.112  12.319  -1.014  0.47 52.80 LIG 0.04  C 
ATOM     43  CB  PRO C  74      15.417  10.891  -0.862  0.47 50.35 LIG 0.05  C 
ENDBRANCH 37 39
ENDBRANCH 28 32
ENDBRANCH 1 25
TORSDOF 8
ENDMDL
MODEL 40
USER: ADFR SOLUTION from run 159
USER: SCORE 12.211272 LL:  -4.140 LR:  -8.222 RR:   0.000 FEB:  -5.836
USER: RMSD 9.150260
USER: SEED 158
USER: STATUS no improvement in best in 22 clusters for 5 generations
USER: GENES 10
USER: genes 0 Translation |==|  0.37228 0.17010 0.45422
USER: genes 1 Rotation |==|  0.63311 0.91828 0.70665 0.62090
USER: genes 2 Torsion [C]-N--CA-[C] |==|  0.66111
USER: genes 3 Torsion [N]-CA--C-[N] |==|  0.46526
USER: genes 4 Torsion [N]-CA--C-[N] |==|  0.59158
USER: genes 5 Torsion [N]-CA--C-[O] |==|  0.13635
USER: genes 6 Torsion [N]-CA--CB-[CG2] |==|  0.33382
USER: genes 7 Torsion [O]-C--CA-[N] |==|  0.48423
USER: genes 8 Torsion [N]-C--CA-[N] |==|  0.86379
USER: genes 9 Torsion [N]-C--CA-[CB] |==|  0.71641
ROOT
ATOM      1  C   PRO C  76      13.965   3.946   4.754  0.47 42.64 LIG 0.24  C 
ATOM      2 O    PRO C  76      13.170   3.327   4.127  0.47 44.95 LIG-0.27  OA
ATOM      3  N   VAL C  77      14.075   5.248   4.680  0.47 42.25 LIG-0.35  N 
ATOM      4 H    VAL C  77      14.610   5.732   5.148  0.47 42.25 LIG 0.16  HD
ENDROOT
BRANCH 3 5
ATOM      5  CA  VAL C  77      13.246   5.950   3.747  0.47 44.36 LIG 0.17  C 
BRANCH 5 6
ATOM      6  C   VAL C  77      14.198   6.689   2.844  0.47 50.22 LIG 0.22  C 
ATOM      7 O    VAL C  77      15.368   6.709   3.111  0.47 51.68 LIG-0.28  OA
ATOM      8 N    PRO C  78      13.771   7.234   1.733  0.47 51.29 LIG-0.24  NA
ATOM      9  CD  PRO C  78      13.085   6.251   0.880  0.47 47.28 LIG 0.10  C 
ATOM     10  CA  PRO C  78      14.752   7.986   0.973  0.47 47.56 LIG 0.16  C 
ATOM     11  CG  PRO C  78      13.883   6.256  -0.345  0.47 42.43 LIG 0.02  C 
ATOM     12  CB  PRO C  78      14.456   7.587  -0.464  0.47 42.06 LIG 0.03  C 
BRANCH 10 13
ATOM     13  C   PRO C  78      14.572   9.441   1.323  0.47 54.03 LIG 0.24  C 
ATOM     14  N   PRO C  79      14.798  10.390   0.419  0.47 54.03 LIG-0.34  N 
ATOM     15  CD  PRO C  79      15.797  10.058  -0.603  0.47 49.78 LIG 0.13  C 
ATOM     16  CA  PRO C  79      14.903  11.799   0.809  0.47 62.24 LIG 0.17  C 
ATOM     17  CG  PRO C  79      16.447  11.335  -0.863  0.47 51.96 LIG 0.02  C 
ATOM     18  CB  PRO C  79      15.637  12.408  -0.348  0.47 58.89 LIG 0.04  C 
ATOM     19 O    PRO C  78      14.283   9.675   2.468  0.47 60.82 LIG-0.27  OA
BRANCH 16 20
ATOM     20  C   PRO C  79      13.618  12.553   1.056  0.47 69.87 LIG 0.22  C 
ATOM     21 O    PRO C  79      12.804  12.031   1.775  0.47 73.23 LIG-0.29  OA
ENDBRANCH 16 20
ENDBRANCH 10 13
ENDBRANCH 5 6
BRANCH 5 22
ATOM     22  CB  VAL C  77      12.161   6.752   4.490  0.47 43.60 LIG 0.01  C 
ATOM     23  CG2 VAL C  77      12.360   8.223   4.123  0.47 46.41 LIG 0.01  C 
ATOM     24  CG1 VAL C  77      12.259   6.624   6.016  0.47 37.55 LIG 0.01  C 
ENDBRANCH 5 22
ENDBRANCH 3 5
BRANCH 1 25
ATOM     25  CA  PRO C  76      14.817   3.178   5.662  0.47 40.28 LIG 0.18  C 
ATOM     26  N   PRO C  76      15.790   4.094   6.216  0.47 33.79 LIG-0.34  N 
ATOM     27  CD  PRO C  76      15.703   4.127   7.677  0.47 35.40 LIG 0.13  C 
ATOM     28  C   PRO C  75      16.939   4.289   5.611  0.47 33.84 LIG 0.24  C 
ATOM     29  CG  PRO C  76      14.413   3.479   7.938  0.47 37.80 LIG 0.02  C 
ATOM     30  CB  PRO C  76      14.039   2.681   6.887  0.47 38.87 LIG 0.04  C 
ATOM     31 O    PRO C  75      17.214   3.764   4.590  0.47 33.93 LIG-0.27  OA
BRANCH 28 32
ATOM     32  CA  PRO C  75      17.963   5.157   6.300  0.47 46.85 LIG 0.18  C 
ATOM     33  CB  PRO C  75      18.446   4.514   7.605  0.47 48.68 LIG 0.04  C 
ATOM     34  CG  PRO C  75      18.323   5.566   8.658  0.47 51.42 LIG 0.02  C 
ATOM     35  CD  PRO C  75      17.960   6.834   8.020  0.47 56.17 LIG 0.13  C 
ATOM     36  N   PRO C  75      17.373   6.409   6.752  0.47 56.81 LIG-0.34  N 
ATOM     37  C   PRO C  74      17.159   7.453   5.954  0.47 61.55 LIG 0.26  C 
ATOM     38 O    PRO C  74      17.396   7.481   4.762  0.47 61.23 LIG-0.27  OA
BRANCH 37 39
ATOM     39  CA  PRO C  74      16.578   8.689   6.604  0.47 57.58 LIG 0.35  C 
ATOM     40  N   PRO C  74      17.124   9.911   6.009  0.47 57.74 LIG 0.32  N 
ATOM     41  CD  PRO C  74      16.041  10.821   5.629  0.47 56.21 LIG 0.32  C 
ATOM     42  CG  PRO C  74      14.945   9.876   5.317  0.47 52.80 LIG 0.04  C 
ATOM     43  CB  PRO C  74      15.084   8.797   6.304  0.47 50.35 LIG 0.05  C 
ENDBRANCH 37 39
ENDBRANCH 28 32
ENDBRANCH 1 25
TORSDOF 8
ENDMDL
MODEL 41
USER: ADFR SOLUTION from run 145
USER: SCORE 11.670884 LL:  -3.738 LR:  -8.222 RR:   0.000 FEB:  -5.836
USER: RMSD 8.979352
USER: SEED 144
USER: STATUS no improvement in best in 28 clusters for 5 generations
USER: GENES 10
USER: genes 0 Translation |==|  0.57609 0.50325 0.61415
USER: genes 1 Rotation |==|  0.08840 0.66825 0.64042 0.68043
USER: genes 2 Torsion [C]-N--CA-[C] |==|  0.63720
USER: genes 3 Torsion [N]-CA--C-[N] |==|  0.30000
USER: genes 4 Torsion [N]-CA--C-[N] |==|  0.45634
USER: genes 5 Torsion [N]-CA--C-[O] |==|  0.15058
USER: genes 6 Torsion [N]-CA--CB-[CG2] |==|  0.16791
USER: genes 7 Torsion [O]-C--CA-[N] |==|  0.65952
USER: genes 8 Torsion [N]-C--CA-[N] |==|  0.89060
USER: genes 9 Torsion [N]-C--CA-[CB] |==|  0.59330
ROOT
ATOM      1  C   PRO C  76      17.327   9.443   8.712  0.47 42.64 LIG 0.24  C 
ATOM      2 O    PRO C  76      18.405   9.467   9.207  0.47 44.95 LIG-0.27  OA
ATOM      3  N   VAL C  77      17.134   9.503   7.419  0.47 42.25 LIG-0.35  N 
ATOM      4 H    VAL C  77      16.373   9.447   7.024  0.47 42.25 LIG 0.16  HD
ENDROOT
BRANCH 3 5
ATOM      5  CA  VAL C  77      18.273   9.677   6.568  0.47 44.36 LIG 0.17  C 
BRANCH 5 6
ATOM      6  C   VAL C  77      17.909  10.807   5.641  0.47 50.22 LIG 0.22  C 
ATOM      7 O    VAL C  77      17.041  10.646   4.828  0.47 51.68 LIG-0.28  OA
ATOM      8 N    PRO C  78      18.472  11.982   5.772  0.47 51.29 LIG-0.24  NA
ATOM      9  CD  PRO C  78      18.307  12.508   7.136  0.47 47.28 LIG 0.10  C 
ATOM     10  CA  PRO C  78      18.107  12.979   4.783  0.47 47.56 LIG 0.16  C 
ATOM     11  CG  PRO C  78      17.572  13.755   6.927  0.47 42.43 LIG 0.02  C 
ATOM     12  CB  PRO C  78      17.947  14.245   5.611  0.47 42.06 LIG 0.03  C 
BRANCH 10 13
ATOM     13  C   PRO C  78      19.190  12.988   3.734  0.47 54.03 LIG 0.24  C 
ATOM     14  N   PRO C  79      18.987  13.566   2.554  0.47 54.03 LIG-0.34  N 
ATOM     15  CD  PRO C  79      17.595  13.576   2.091  0.47 49.78 LIG 0.13  C 
ATOM     16  CA  PRO C  79      19.906  13.344   1.434  0.47 62.24 LIG 0.17  C 
ATOM     17  CG  PRO C  79      17.722  13.431   0.648  0.47 51.96 LIG 0.02  C 
ATOM     18  CB  PRO C  79      19.074  13.721   0.245  0.47 58.89 LIG 0.04  C 
ATOM     19 O    PRO C  78      20.197  12.389   4.012  0.47 60.82 LIG-0.27  OA
BRANCH 16 20
ATOM     20  C   PRO C  79      21.198  14.126   1.424  0.47 69.87 LIG 0.22  C 
ATOM     21 O    PRO C  79      21.894  14.049   2.405  0.47 73.23 LIG-0.29  OA
ENDBRANCH 16 20
ENDBRANCH 10 13
ENDBRANCH 5 6
BRANCH 5 22
ATOM     22  CB  VAL C  77      18.698   8.330   5.955  0.47 43.60 LIG 0.01  C 
ATOM     23  CG2 VAL C  77      17.513   7.814   5.138  0.47 46.41 LIG 0.01  C 
ATOM     24  CG1 VAL C  77      19.045   7.273   7.012  0.47 37.55 LIG 0.01  C 
ENDBRANCH 5 22
ENDBRANCH 3 5
BRANCH 1 25
ATOM     25  CA  PRO C  76      16.194   9.306   9.627  0.47 40.28 LIG 0.18  C 
ATOM     26  N   PRO C  76      15.461   8.124   9.230  0.47 33.79 LIG-0.34  N 
ATOM     27  CD  PRO C  76      15.384   7.162  10.330  0.47 35.40 LIG 0.13  C 
ATOM     28  C   PRO C  75      14.491   8.209   8.349  0.47 33.84 LIG 0.24  C 
ATOM     29  CG  PRO C  76      16.400   7.658  11.264  0.47 37.80 LIG 0.02  C 
ATOM     30  CB  PRO C  76      16.654   8.989  11.056  0.47 38.87 LIG 0.04  C 
ATOM     31 O    PRO C  75      14.200   9.226   7.824  0.47 33.93 LIG-0.27  OA
BRANCH 28 32
ATOM     32  CA  PRO C  75      13.680   6.968   8.067  0.47 46.85 LIG 0.18  C 
ATOM     33  CB  PRO C  75      12.710   6.668   9.216  0.47 48.68 LIG 0.04  C 
ATOM     34  CG  PRO C  75      12.918   5.233   9.571  0.47 51.42 LIG 0.02  C 
ATOM     35  CD  PRO C  75      13.825   4.629   8.590  0.47 56.17 LIG 0.13  C 
ATOM     36  N   PRO C  75      14.524   5.783   8.034  0.47 56.81 LIG-0.34  N 
ATOM     37  C   PRO C  74      15.260   5.431   6.982  0.47 61.55 LIG 0.26  C 
ATOM     38 O    PRO C  74      15.340   6.060   5.944  0.47 61.23 LIG-0.27  OA
BRANCH 37 39
ATOM     39  CA  PRO C  74      16.043   4.143   7.108  0.47 57.58 LIG 0.35  C 
ATOM     40  N   PRO C  74      15.359   3.035   6.438  0.47 57.74 LIG 0.32  N 
ATOM     41  CD  PRO C  74      16.279   2.337   5.538  0.47 56.21 LIG 0.32  C 
ATOM     42  CG  PRO C  74      17.197   3.427   5.136  0.47 52.80 LIG 0.04  C 
ATOM     43  CB  PRO C  74      17.362   4.245   6.344  0.47 50.35 LIG 0.05  C 
ENDBRANCH 37 39
ENDBRANCH 28 32
ENDBRANCH 1 25
TORSDOF 8
ENDMDL
MODEL 42
USER: ADFR SOLUTION from run 108
USER: SCORE 11.542115 LL:  -3.466 LR:  -8.196 RR:   0.000 FEB:  -5.809
USER: RMSD 11.312377
USER: SEED 107
USER: STATUS no improvement in best in 17 clusters for 5 generations
USER: GENES 10
USER: genes 0 Translation |==|  0.61570 0.39664 0.57399
USER: genes 1 Rotation |==|  0.15153 0.17307 0.64517 0.52481
USER: genes 2 Torsion [C]-N--CA-[C] |==|  0.70583
USER: genes 3 Torsion [N]-CA--C-[N] |==|  0.43824
USER: genes 4 Torsion [N]-CA--C-[N] |==|  0.41404
USER: genes 5 Torsion [N]-CA--C-[O] |==|  0.65260
USER: genes 6 Torsion [N]-CA--CB-[CG2] |==|  0.86103
USER: genes 7 Torsion [O]-C--CA-[N] |==|  0.09574
USER: genes 8 Torsion [N]-C--CA-[N] |==|  0.34466
USER: genes 9 Torsion [N]-C--CA-[CB] |==|  0.69186
ROOT
ATOM      1  C   PRO C  76      17.981   7.684   7.718  0.47 42.64 LIG 0.24  C 
ATOM      2 O    PRO C  76      17.303   8.272   8.494  0.47 44.95 LIG-0.27  OA
ATOM      3  N   VAL C  77      18.131   8.058   6.473  0.47 42.25 LIG-0.35  N 
ATOM      4 H    VAL C  77      18.645   7.682   5.896  0.47 42.25 LIG 0.16  HD
ENDROOT
BRANCH 3 5
ATOM      5  CA  VAL C  77      17.388   9.191   6.008  0.47 44.36 LIG 0.17  C 
BRANCH 5 6
ATOM      6  C   VAL C  77      16.298   8.622   5.138  0.47 50.22 LIG 0.22  C 
ATOM      7 O    VAL C  77      16.403   7.503   4.718  0.47 51.68 LIG-0.28  OA
ATOM      8 N    PRO C  78      15.206   9.307   4.908  0.47 51.29 LIG-0.24  NA
ATOM      9  CD  PRO C  78      14.552   9.714   6.161  0.47 47.28 LIG 0.10  C 
ATOM     10  CA  PRO C  78      14.252   8.702   3.997  0.47 47.56 LIG 0.16  C 
ATOM     11  CG  PRO C  78      13.237   9.082   6.073  0.47 42.43 LIG 0.02  C 
ATOM     12  CB  PRO C  78      12.913   8.987   4.659  0.47 42.06 LIG 0.03  C 
BRANCH 10 13
ATOM     13  C   PRO C  78      14.480   9.312   2.638  0.47 54.03 LIG 0.24  C 
ATOM     14  N   PRO C  79      14.250   8.611   1.532  0.47 54.03 LIG-0.34  N 
ATOM     15  CD  PRO C  79      14.424   7.160   1.660  0.47 49.78 LIG 0.13  C 
ATOM     16  CA  PRO C  79      14.726   9.077   0.226  0.47 62.24 LIG 0.17  C 
ATOM     17  CG  PRO C  79      14.947   6.769   0.359  0.47 51.96 LIG 0.02  C 
ATOM     18  CB  PRO C  79      14.718   7.823  -0.595  0.47 58.89 LIG 0.04  C 
ATOM     19 O    PRO C  78      14.939  10.425   2.630  0.47 60.82 LIG-0.27  OA
BRANCH 16 20
ATOM     20  C   PRO C  79      13.921  10.150  -0.469  0.47 69.87 LIG 0.22  C 
ATOM     21 O    PRO C  79      13.545   9.914  -1.590  0.47 73.23 LIG-0.29  OA
ENDBRANCH 16 20
ENDBRANCH 10 13
ENDBRANCH 5 6
BRANCH 5 22
ATOM     22  CB  VAL C  77      18.335  10.246   5.408  0.47 43.60 LIG 0.01  C 
ATOM     23  CG2 VAL C  77      19.449  10.483   6.429  0.47 46.41 LIG 0.01  C 
ATOM     24  CG1 VAL C  77      17.643  11.588   5.137  0.47 37.55 LIG 0.01  C 
ENDBRANCH 5 22
ENDBRANCH 3 5
BRANCH 1 25
ATOM     25  CA  PRO C  76      18.687   6.509   8.231  0.47 40.28 LIG 0.18  C 
ATOM     26  N   PRO C  76      17.831   5.891   9.220  0.47 33.79 LIG-0.34  N 
ATOM     27  CD  PRO C  76      17.528   4.506   8.856  0.47 35.40 LIG 0.13  C 
ATOM     28  C   PRO C  75      17.906   6.248  10.481  0.47 33.84 LIG 0.24  C 
ATOM     29  CG  PRO C  76      17.935   4.446   7.448  0.47 37.80 LIG 0.02  C 
ATOM     30  CB  PRO C  76      18.846   5.428   7.155  0.47 38.87 LIG 0.04  C 
ATOM     31 O    PRO C  75      18.636   7.097  10.856  0.47 33.93 LIG-0.27  OA
BRANCH 28 32
ATOM     32  CA  PRO C  75      17.079   5.482  11.485  0.47 46.85 LIG 0.18  C 
ATOM     33  CB  PRO C  75      16.126   6.414  12.242  0.47 48.68 LIG 0.04  C 
ATOM     34  CG  PRO C  75      16.326   6.124  13.693  0.47 51.42 LIG 0.02  C 
ATOM     35  CD  PRO C  75      17.211   4.964  13.826  0.47 56.17 LIG 0.13  C 
ATOM     36  N   PRO C  75      17.912   4.936  12.545  0.47 56.81 LIG-0.34  N 
ATOM     37  C   PRO C  74      18.627   3.819  12.420  0.47 61.55 LIG 0.26  C 
ATOM     38 O    PRO C  74      18.697   3.144  11.411  0.47 61.23 LIG-0.27  OA
BRANCH 37 39
ATOM     39  CA  PRO C  74      19.400   3.374  13.641  0.47 57.58 LIG 0.35  C 
ATOM     40  N   PRO C  74      19.252   1.935  13.871  0.47 57.74 LIG 0.32  N 
ATOM     41  CD  PRO C  74      20.564   1.309  14.045  0.47 56.21 LIG 0.32  C 
ATOM     42  CG  PRO C  74      21.428   2.176  13.212  0.47 52.80 LIG 0.04  C 
ATOM     43  CB  PRO C  74      20.902   3.532  13.408  0.47 50.35 LIG 0.05  C 
ENDBRANCH 37 39
ENDBRANCH 28 32
ENDBRANCH 1 25
TORSDOF 8
ENDMDL
MODEL 43
USER: ADFR SOLUTION from run 78
USER: SCORE 11.875616 LL:  -3.856 LR:  -8.190 RR:   0.000 FEB:  -5.803
USER: RMSD 10.186728
USER: SEED 77
USER: STATUS no improvement in best in 25 clusters for 5 generations
USER: GENES 10
USER: genes 0 Translation |==|  0.58469 0.60577 0.58849
USER: genes 1 Rotation |==|  0.83248 0.77112 0.26011 0.59169
USER: genes 2 Torsion [C]-N--CA-[C] |==|  0.63890
USER: genes 3 Torsion [N]-CA--C-[N] |==|  0.35972
USER: genes 4 Torsion [N]-CA--C-[N] |==|  0.47936
USER: genes 5 Torsion [N]-CA--C-[O] |==|  0.54386
USER: genes 6 Torsion [N]-CA--CB-[CG2] |==|  0.12516
USER: genes 7 Torsion [O]-C--CA-[N] |==|  0.46141
USER: genes 8 Torsion [N]-C--CA-[N] |==|  0.43975
USER: genes 9 Torsion [N]-C--CA-[CB] |==|  0.72495
ROOT
ATOM      1  C   PRO C  76      17.469  11.134   8.077  0.47 42.64 LIG 0.24  C 
ATOM      2 O    PRO C  76      16.753  12.042   8.344  0.47 44.95 LIG-0.27  OA
ATOM      3  N   VAL C  77      17.635  10.691   6.857  0.47 42.25 LIG-0.35  N 
ATOM      4 H    VAL C  77      18.175  10.065   6.621  0.47 42.25 LIG 0.16  HD
ENDROOT
BRANCH 3 5
ATOM      5  CA  VAL C  77      16.864  11.284   5.806  0.47 44.36 LIG 0.17  C 
BRANCH 5 6
ATOM      6  C   VAL C  77      16.253  10.129   5.058  0.47 50.22 LIG 0.22  C 
ATOM      7 O    VAL C  77      16.940   9.189   4.762  0.47 51.68 LIG-0.28  OA
ATOM      8 N    PRO C  78      14.969  10.105   4.805  0.47 51.29 LIG-0.24  NA
ATOM      9  CD  PRO C  78      14.175  10.256   6.034  0.47 47.28 LIG 0.10  C 
ATOM     10  CA  PRO C  78      14.494   8.985   4.014  0.47 47.56 LIG 0.16  C 
ATOM     11  CG  PRO C  78      13.392   9.023   6.080  0.47 42.43 LIG 0.02  C 
ATOM     12  CB  PRO C  78      13.193   8.603   4.702  0.47 42.06 LIG 0.03  C 
BRANCH 10 13
ATOM     13  C   PRO C  78      14.393   9.455   2.585  0.47 54.03 LIG 0.24  C 
ATOM     14  N   PRO C  79      14.122   8.597   1.606  0.47 54.03 LIG-0.34  N 
ATOM     15  CD  PRO C  79      14.572   7.220   1.836  0.47 49.78 LIG 0.13  C 
ATOM     16  CA  PRO C  79      14.295   8.973   0.200  0.47 62.24 LIG 0.17  C 
ATOM     17  CG  PRO C  79      14.947   6.764   0.505  0.47 51.96 LIG 0.02  C 
ATOM     18  CB  PRO C  79      14.385   7.643  -0.488  0.47 58.89 LIG 0.04  C 
ATOM     19 O    PRO C  78      14.636  10.619   2.395  0.47 60.82 LIG-0.27  OA
BRANCH 16 20
ATOM     20  C   PRO C  79      13.212   9.808  -0.439  0.47 69.87 LIG 0.22  C 
ATOM     21 O    PRO C  79      13.204   9.869  -1.643  0.47 73.23 LIG-0.29  OA
ENDBRANCH 16 20
ENDBRANCH 10 13
ENDBRANCH 5 6
BRANCH 5 22
ATOM     22  CB  VAL C  77      17.714  12.302   5.023  0.47 43.60 LIG 0.01  C 
ATOM     23  CG2 VAL C  77      19.072  11.648   4.762  0.47 46.41 LIG 0.01  C 
ATOM     24  CG1 VAL C  77      17.954  13.605   5.796  0.47 37.55 LIG 0.01  C 
ENDBRANCH 5 22
ENDBRANCH 3 5
BRANCH 1 25
ATOM     25  CA  PRO C  76      18.204  10.535   9.192  0.47 40.28 LIG 0.18  C 
ATOM     26  N   PRO C  76      18.739   9.274   8.726  0.47 33.79 LIG-0.34  N 
ATOM     27  CD  PRO C  76      20.197   9.248   8.851  0.47 35.40 LIG 0.13  C 
ATOM     28  C   PRO C  75      18.039   8.170   8.846  0.47 33.84 LIG 0.24  C 
ATOM     29  CG  PRO C  76      20.528  10.661   9.065  0.47 37.80 LIG 0.02  C 
ATOM     30  CB  PRO C  76      19.450  11.352   9.555  0.47 38.87 LIG 0.04  C 
ATOM     31 O    PRO C  75      16.948   8.158   9.298  0.47 33.93 LIG-0.27  OA
BRANCH 28 32
ATOM     32  CA  PRO C  75      18.697   6.869   8.458  0.47 46.85 LIG 0.18  C 
ATOM     33  CB  PRO C  75      18.511   6.579   6.964  0.47 48.68 LIG 0.04  C 
ATOM     34  CG  PRO C  75      17.992   5.181   6.873  0.47 51.42 LIG 0.02  C 
ATOM     35  CD  PRO C  75      18.025   4.577   8.208  0.47 56.17 LIG 0.13  C 
ATOM     36  N   PRO C  75      18.041   5.737   9.094  0.47 56.81 LIG-0.34  N 
ATOM     37  C   PRO C  74      18.264   5.368  10.354  0.47 61.55 LIG 0.26  C 
ATOM     38 O    PRO C  74      19.009   5.940  11.127  0.47 61.23 LIG-0.27  OA
BRANCH 37 39
ATOM     39  CA  PRO C  74      17.528   4.139  10.837  0.47 57.58 LIG 0.35  C 
ATOM     40  N   PRO C  74      18.322   3.390  11.813  0.47 57.74 LIG 0.32  N 
ATOM     41  CD  PRO C  74      17.528   3.111  13.012  0.47 56.21 LIG 0.32  C 
ATOM     42  CG  PRO C  74      16.611   4.273  13.045  0.47 52.80 LIG 0.04  C 
ATOM     43  CB  PRO C  74      16.290   4.540  11.637  0.47 50.35 LIG 0.05  C 
ENDBRANCH 37 39
ENDBRANCH 28 32
ENDBRANCH 1 25
TORSDOF 8
ENDMDL
MODEL 44
USER: ADFR SOLUTION from run 148
USER: SCORE 12.559090 LL:  -4.898 LR:  -8.186 RR:   0.000 FEB:  -5.800
USER: RMSD 8.498298
USER: SEED 147
USER: STATUS no improvement in best in 17 clusters for 5 generations
USER: GENES 10
USER: genes 0 Translation |==|  0.55263 0.24285 0.47161
USER: genes 1 Rotation |==|  0.49372 0.76879 0.85844 0.72188
USER: genes 2 Torsion [C]-N--CA-[C] |==|  0.61240
USER: genes 3 Torsion [N]-CA--C-[N] |==|  0.21995
USER: genes 4 Torsion [N]-CA--C-[N] |==|  0.35206
USER: genes 5 Torsion [N]-CA--C-[O] |==|  0.19124
USER: genes 6 Torsion [N]-CA--CB-[CG2] |==|  0.04516
USER: genes 7 Torsion [O]-C--CA-[N] |==|  0.47315
USER: genes 8 Torsion [N]-C--CA-[N] |==|  0.90313
USER: genes 9 Torsion [N]-C--CA-[CB] |==|  0.80935
ROOT
ATOM      1  C   PRO C  76      16.940   5.146   5.184  0.47 42.64 LIG 0.24  C 
ATOM      2 O    PRO C  76      17.192   4.971   4.038  0.47 44.95 LIG-0.27  OA
ATOM      3  N   VAL C  77      16.444   6.267   5.643  0.47 42.25 LIG-0.35  N 
ATOM      4 H    VAL C  77      16.212   6.416   6.457  0.47 42.25 LIG 0.16  HD
ENDROOT
BRANCH 3 5
ATOM      5  CA  VAL C  77      16.262   7.355   4.729  0.47 44.36 LIG 0.17  C 
BRANCH 5 6
ATOM      6  C   VAL C  77      16.681   8.587   5.487  0.47 50.22 LIG 0.22  C 
ATOM      7 O    VAL C  77      15.846   9.258   6.029  0.47 51.68 LIG-0.28  OA
ATOM      8 N    PRO C  78      17.949   8.882   5.629  0.47 51.29 LIG-0.24  NA
ATOM      9  CD  PRO C  78      18.697   7.765   6.227  0.47 47.28 LIG 0.10  C 
ATOM     10  CA  PRO C  78      18.243  10.128   6.311  0.47 47.56 LIG 0.16  C 
ATOM     11  CG  PRO C  78      19.232   8.343   7.458  0.47 42.43 LIG 0.02  C 
ATOM     12  CB  PRO C  78      19.415   9.763   7.208  0.47 42.06 LIG 0.03  C 
BRANCH 10 13
ATOM     13  C   PRO C  78      18.499  11.170   5.252  0.47 54.03 LIG 0.24  C 
ATOM     14  N   PRO C  79      17.832  12.320   5.256  0.47 54.03 LIG-0.34  N 
ATOM     15  CD  PRO C  79      16.487  12.264   5.839  0.47 49.78 LIG 0.13  C 
ATOM     16  CA  PRO C  79      17.858  13.215   4.095  0.47 62.24 LIG 0.17  C 
ATOM     17  CG  PRO C  79      15.733  13.214   5.035  0.47 51.96 LIG 0.02  C 
ATOM     18  CB  PRO C  79      16.640  14.064   4.306  0.47 58.89 LIG 0.04  C 
ATOM     19 O    PRO C  78      19.280  10.862   4.388  0.47 60.82 LIG-0.27  OA
BRANCH 16 20
ATOM     20  C   PRO C  79      19.072  14.095   3.917  0.47 69.87 LIG 0.22  C 
ATOM     21 O    PRO C  79      20.109  13.550   3.632  0.47 73.23 LIG-0.29  OA
ENDBRANCH 16 20
ENDBRANCH 10 13
ENDBRANCH 5 6
BRANCH 5 22
ATOM     22  CB  VAL C  77      14.850   7.312   4.116  0.47 43.60 LIG 0.01  C 
ATOM     23  CG2 VAL C  77      14.009   6.380   4.989  0.47 46.41 LIG 0.01  C 
ATOM     24  CG1 VAL C  77      14.835   6.765   2.683  0.47 37.55 LIG 0.01  C 
ENDBRANCH 5 22
ENDBRANCH 3 5
BRANCH 1 25
ATOM     25  CA  PRO C  76      17.183   4.018   6.084  0.47 40.28 LIG 0.18  C 
ATOM     26  N   PRO C  76      17.037   4.508   7.437  0.47 33.79 LIG-0.34  N 
ATOM     27  CD  PRO C  76      15.996   3.767   8.151  0.47 35.40 LIG 0.13  C 
ATOM     28  C   PRO C  75      18.071   4.996   8.083  0.47 33.84 LIG 0.24  C 
ATOM     29  CG  PRO C  76      15.293   3.074   7.067  0.47 37.80 LIG 0.02  C 
ATOM     30  CB  PRO C  76      16.091   2.948   5.960  0.47 38.87 LIG 0.04  C 
ATOM     31 O    PRO C  75      19.139   5.089   7.589  0.47 33.93 LIG-0.27  OA
BRANCH 28 32
ATOM     32  CA  PRO C  75      17.886   5.375   9.532  0.47 46.85 LIG 0.18  C 
ATOM     33  CB  PRO C  75      17.933   4.139  10.437  0.47 48.68 LIG 0.04  C 
ATOM     34  CG  PRO C  75      16.722   4.214  11.307  0.47 51.42 LIG 0.02  C 
ATOM     35  CD  PRO C  75      16.060   5.502  11.086  0.47 56.17 LIG 0.13  C 
ATOM     36  N   PRO C  75      16.552   5.904   9.771  0.47 56.81 LIG-0.34  N 
ATOM     37  C   PRO C  74      16.194   7.157   9.494  0.47 61.55 LIG 0.26  C 
ATOM     38 O    PRO C  74      16.917   7.993   8.985  0.47 61.23 LIG-0.27  OA
BRANCH 37 39
ATOM     39  CA  PRO C  74      14.778   7.548   9.851  0.47 57.58 LIG 0.35  C 
ATOM     40  N   PRO C  74      14.523   8.959   9.551  0.47 57.74 LIG 0.32  N 
ATOM     41  CD  PRO C  74      13.299   9.099   8.760  0.47 56.21 LIG 0.32  C 
ATOM     42  CG  PRO C  74      13.276   7.824   8.007  0.47 52.80 LIG 0.04  C 
ATOM     43  CB  PRO C  74      13.781   6.820   8.951  0.47 50.35 LIG 0.05  C 
ENDBRANCH 37 39
ENDBRANCH 28 32
ENDBRANCH 1 25
TORSDOF 8
ENDMDL
MODEL 45
USER: ADFR SOLUTION from run 111
USER: SCORE 11.373211 LL:  -3.294 LR:  -8.166 RR:   0.000 FEB:  -5.779
USER: RMSD 3.716591
USER: SEED 110
USER: STATUS no improvement in best in 17 clusters for 5 generations
USER: GENES 10
USER: genes 0 Translation |==|  0.54315 0.36007 0.51763
USER: genes 1 Rotation |==|  0.35195 0.45151 0.19914 0.86771
USER: genes 2 Torsion [C]-N--CA-[C] |==|  0.62239
USER: genes 3 Torsion [N]-CA--C-[N] |==|  0.44717
USER: genes 4 Torsion [N]-CA--C-[N] |==|  0.39701
USER: genes 5 Torsion [N]-CA--C-[O] |==|  0.25342
USER: genes 6 Torsion [N]-CA--CB-[CG2] |==|  0.08659
USER: genes 7 Torsion [O]-C--CA-[N] |==|  0.03573
USER: genes 8 Torsion [N]-C--CA-[N] |==|  0.31513
USER: genes 9 Torsion [N]-C--CA-[CB] |==|  0.62332
ROOT
ATOM      1  C   PRO C  76      16.784   7.080   6.323  0.47 42.64 LIG 0.24  C 
ATOM      2 O    PRO C  76      15.785   6.445   6.397  0.47 44.95 LIG-0.27  OA
ATOM      3  N   VAL C  77      17.765   6.970   7.183  0.47 42.25 LIG-0.35  N 
ATOM      4 H    VAL C  77      18.517   7.383   7.139  0.47 42.25 LIG 0.16  HD
ENDROOT
BRANCH 3 5
ATOM      5  CA  VAL C  77      17.594   6.094   8.303  0.47 44.36 LIG 0.17  C 
BRANCH 5 6
ATOM      6  C   VAL C  77      18.116   6.858   9.492  0.47 50.22 LIG 0.22  C 
ATOM      7 O    VAL C  77      18.784   7.840   9.314  0.47 51.68 LIG-0.28  OA
ATOM      8 N    PRO C  78      17.778   6.509  10.707  0.47 51.29 LIG-0.24  NA
ATOM      9  CD  PRO C  78      16.316   6.463  10.867  0.47 47.28 LIG 0.10  C 
ATOM     10  CA  PRO C  78      18.394   7.263  11.783  0.47 47.56 LIG 0.16  C 
ATOM     11  CG  PRO C  78      16.063   7.444  11.920  0.47 42.43 LIG 0.02  C 
ATOM     12  CB  PRO C  78      17.248   7.468  12.761  0.47 42.06 LIG 0.03  C 
BRANCH 10 13
ATOM     13  C   PRO C  78      19.571   6.461  12.276  0.47 54.03 LIG 0.24  C 
ATOM     14  N   PRO C  79      20.692   7.065  12.658  0.47 54.03 LIG-0.34  N 
ATOM     15  CD  PRO C  79      20.974   8.343  11.994  0.47 49.78 LIG 0.13  C 
ATOM     16  CA  PRO C  79      21.928   6.306  12.868  0.47 62.24 LIG 0.17  C 
ATOM     17  CG  PRO C  79      22.426   8.351  11.887  0.47 51.96 LIG 0.02  C 
ATOM     18  CB  PRO C  79      22.986   7.364  12.774  0.47 58.89 LIG 0.04  C 
ATOM     19 O    PRO C  78      19.447   5.264  12.235  0.47 60.82 LIG-0.27  OA
BRANCH 16 20
ATOM     20  C   PRO C  79      22.072   5.552  14.169  0.47 69.87 LIG 0.22  C 
ATOM     21 O    PRO C  79      21.692   4.408  14.186  0.47 73.23 LIG-0.29  OA
ENDBRANCH 16 20
ENDBRANCH 10 13
ENDBRANCH 5 6
BRANCH 5 22
ATOM     22  CB  VAL C  77      18.192   4.708   7.997  0.47 43.60 LIG 0.01  C 
ATOM     23  CG2 VAL C  77      19.372   4.927   7.050  0.47 46.41 LIG 0.01  C 
ATOM     24  CG1 VAL C  77      17.197   3.764   7.310  0.47 37.55 LIG 0.01  C 
ENDBRANCH 5 22
ENDBRANCH 3 5
BRANCH 1 25
ATOM     25  CA  PRO C  76      16.893   7.992   5.185  0.47 40.28 LIG 0.18  C 
ATOM     26  N   PRO C  76      15.578   8.095   4.589  0.47 33.79 LIG-0.34  N 
ATOM     27  CD  PRO C  76      15.116   9.484   4.581  0.47 35.40 LIG 0.13  C 
ATOM     28  C   PRO C  75      15.211   7.264   3.642  0.47 33.84 LIG 0.24  C 
ATOM     29  CG  PRO C  76      16.041  10.137   5.513  0.47 37.80 LIG 0.02  C 
ATOM     30  CB  PRO C  76      17.206   9.425   5.633  0.47 38.87 LIG 0.04  C 
ATOM     31 O    PRO C  75      15.908   6.389   3.262  0.47 33.93 LIG-0.27  OA
BRANCH 28 32
ATOM     32  CA  PRO C  75      13.879   7.497   2.972  0.47 46.85 LIG 0.18  C 
ATOM     33  CB  PRO C  75      13.069   6.198   2.884  0.47 48.68 LIG 0.04  C 
ATOM     34  CG  PRO C  75      12.627   6.079   1.463  0.47 51.42 LIG 0.02  C 
ATOM     35  CD  PRO C  75      12.982   7.310   0.752  0.47 56.17 LIG 0.13  C 
ATOM     36  N   PRO C  75      14.049   7.870   1.576  0.47 56.81 LIG-0.34  N 
ATOM     37  C   PRO C  74      14.363   9.101   1.175  0.47 61.55 LIG 0.26  C 
ATOM     38 O    PRO C  74      14.572  10.044   1.914  0.47 61.23 LIG-0.27  OA
BRANCH 37 39
ATOM     39  CA  PRO C  74      14.456   9.319  -0.319  0.47 57.58 LIG 0.35  C 
ATOM     40  N   PRO C  74      13.361  10.162  -0.803  0.47 57.74 LIG 0.32  N 
ATOM     41  CD  PRO C  74      13.884  11.260  -1.619  0.47 56.21 LIG 0.32  C 
ATOM     42  CG  PRO C  74      15.216  11.481  -1.011  0.47 52.80 LIG 0.04  C 
ATOM     43  CB  PRO C  74      15.698  10.139  -0.661  0.47 50.35 LIG 0.05  C 
ENDBRANCH 37 39
ENDBRANCH 28 32
ENDBRANCH 1 25
TORSDOF 8
ENDMDL
MODEL 46
USER: ADFR SOLUTION from run 135
USER: SCORE 10.907182 LL:  -3.688 LR:  -8.141 RR:   0.000 FEB:  -5.754
USER: RMSD 5.414033
USER: SEED 134
USER: STATUS no improvement in best in 32 clusters for 5 generations
USER: GENES 10
USER: genes 0 Translation |==|  0.36365 0.46424 0.48348
USER: genes 1 Rotation |==|  0.13268 0.61339 0.31880 0.76341
USER: genes 2 Torsion [C]-N--CA-[C] |==|  0.73330
USER: genes 3 Torsion [N]-CA--C-[N] |==|  0.64318
USER: genes 4 Torsion [N]-CA--C-[N] |==|  0.35886
USER: genes 5 Torsion [N]-CA--C-[O] |==|  0.07523
USER: genes 6 Torsion [N]-CA--CB-[CG2] |==|  0.96462
USER: genes 7 Torsion [O]-C--CA-[N] |==|  0.58589
USER: genes 8 Torsion [N]-C--CA-[N] |==|  0.52920
USER: genes 9 Torsion [N]-C--CA-[CB] |==|  0.77177
ROOT
ATOM      1  C   PRO C  76      13.822   8.799   5.478  0.47 42.64 LIG 0.24  C 
ATOM      2 O    PRO C  76      13.577   8.624   6.626  0.47 44.95 LIG-0.27  OA
ATOM      3  N   VAL C  77      14.993   8.542   4.952  0.47 42.25 LIG-0.35  N 
ATOM      4 H    VAL C  77      15.194   8.617   4.119  0.47 42.25 LIG 0.16  HD
ENDROOT
BRANCH 3 5
ATOM      5  CA  VAL C  77      16.045   8.095   5.815  0.47 44.36 LIG 0.17  C 
BRANCH 5 6
ATOM      6  C   VAL C  77      16.833   9.332   6.157  0.47 50.22 LIG 0.22  C 
ATOM      7 O    VAL C  77      16.270  10.272   6.649  0.47 51.68 LIG-0.28  OA
ATOM      8 N    PRO C  78      18.132   9.357   6.000  0.47 51.29 LIG-0.24  NA
ATOM      9  CD  PRO C  78      18.782   8.251   6.721  0.47 47.28 LIG 0.10  C 
ATOM     10  CA  PRO C  78      18.786  10.620   6.288  0.47 47.56 LIG 0.16  C 
ATOM     11  CG  PRO C  78      19.669   8.938   7.658  0.47 42.43 LIG 0.02  C 
ATOM     12  CB  PRO C  78      20.042  10.196   7.033  0.47 42.06 LIG 0.03  C 
BRANCH 10 13
ATOM     13  C   PRO C  78      18.985  11.332   4.975  0.47 54.03 LIG 0.24  C 
ATOM     14  N   PRO C  79      18.595  12.594   4.821  0.47 54.03 LIG-0.34  N 
ATOM     15  CD  PRO C  79      17.454  13.003   5.647  0.47 49.78 LIG 0.13  C 
ATOM     16  CA  PRO C  79      18.520  13.207   3.492  0.47 62.24 LIG 0.17  C 
ATOM     17  CG  PRO C  79      16.740  13.941   4.792  0.47 51.96 LIG 0.02  C 
ATOM     18  CB  PRO C  79      17.596  14.367   3.715  0.47 58.89 LIG 0.04  C 
ATOM     19 O    PRO C  78      19.447  10.670   4.081  0.47 60.82 LIG-0.27  OA
BRANCH 16 20
ATOM     20  C   PRO C  79      19.809  13.690   2.871  0.47 69.87 LIG 0.22  C 
ATOM     21 O    PRO C  79      20.824  13.137   3.212  0.47 73.23 LIG-0.29  OA
ENDBRANCH 16 20
ENDBRANCH 10 13
ENDBRANCH 5 6
BRANCH 5 22
ATOM     22  CB  VAL C  77      16.785   6.900   5.186  0.47 43.60 LIG 0.01  C 
ATOM     23  CG2 VAL C  77      15.935   6.411   4.013  0.47 46.41 LIG 0.01  C 
ATOM     24  CG1 VAL C  77      16.973   5.730   6.160  0.47 37.55 LIG 0.01  C 
ENDBRANCH 5 22
ENDBRANCH 3 5
BRANCH 1 25
ATOM     25  CA  PRO C  76      12.726   9.296   4.647  0.47 40.28 LIG 0.18  C 
ATOM     26  N   PRO C  76      12.925   8.769   3.314  0.47 33.79 LIG-0.34  N 
ATOM     27  CD  PRO C  76      11.770   7.977   2.888  0.47 35.40 LIG 0.13  C 
ATOM     28  C   PRO C  75      13.637   9.436   2.435  0.47 33.84 LIG 0.24  C 
ATOM     29  CG  PRO C  76      11.049   7.757   4.146  0.47 37.80 LIG 0.02  C 
ATOM     30  CB  PRO C  76      11.376   8.708   5.077  0.47 38.87 LIG 0.04  C 
ATOM     31 O    PRO C  75      14.167  10.459   2.695  0.47 33.93 LIG-0.27  OA
BRANCH 28 32
ATOM     32  CA  PRO C  75      13.705   8.901   1.026  0.47 46.85 LIG 0.18  C 
ATOM     33  CB  PRO C  75      14.200   7.450   1.009  0.47 48.68 LIG 0.04  C 
ATOM     34  CG  PRO C  75      15.307   7.399   0.009  0.47 51.42 LIG 0.02  C 
ATOM     35  CD  PRO C  75      15.378   8.689  -0.684  0.47 56.17 LIG 0.13  C 
ATOM     36  N   PRO C  75      14.715   9.599   0.246  0.47 56.81 LIG-0.34  N 
ATOM     37  C   PRO C  74      14.521  10.791  -0.315  0.47 61.55 LIG 0.26  C 
ATOM     38 O    PRO C  74      13.501  11.448  -0.221  0.47 61.23 LIG-0.27  OA
BRANCH 37 39
ATOM     39  CA  PRO C  74      15.667  11.348  -1.129  0.47 57.58 LIG 0.35  C 
ATOM     40  N   PRO C  74      15.225  12.449  -1.988  0.47 57.74 LIG 0.32  N 
ATOM     41  CD  PRO C  74      16.097  13.613  -1.815  0.47 56.21 LIG 0.32  C 
ATOM     42  CG  PRO C  74      16.529  13.462  -0.407  0.47 52.80 LIG 0.04  C 
ATOM     43  CB  PRO C  74      16.694  12.015  -0.216  0.47 50.35 LIG 0.05  C 
ENDBRANCH 37 39
ENDBRANCH 28 32
ENDBRANCH 1 25
TORSDOF 8
ENDMDL
MODEL 47
USER: ADFR SOLUTION from run 183
USER: SCORE 11.561323 LL:  -3.497 LR:  -8.113 RR:   0.000 FEB:  -5.726
USER: RMSD 6.651750
USER: SEED 182
USER: STATUS no improvement in best in 22 clusters for 5 generations
USER: GENES 10
USER: genes 0 Translation |==|  0.65653 0.43018 0.51535
USER: genes 1 Rotation |==|  0.67963 0.40296 0.15818 0.80245
USER: genes 2 Torsion [C]-N--CA-[C] |==|  0.78100
USER: genes 3 Torsion [N]-CA--C-[N] |==|  0.40110
USER: genes 4 Torsion [N]-CA--C-[N] |==|  0.88805
USER: genes 5 Torsion [N]-CA--C-[O] |==|  0.56600
USER: genes 6 Torsion [N]-CA--CB-[CG2] |==|  0.45735
USER: genes 7 Torsion [O]-C--CA-[N] |==|  0.15228
USER: genes 8 Torsion [N]-C--CA-[N] |==|  0.51188
USER: genes 9 Torsion [N]-C--CA-[CB] |==|  0.70615
ROOT
ATOM      1  C   PRO C  76      18.655   8.237   6.267  0.47 42.64 LIG 0.24  C 
ATOM      2 O    PRO C  76      18.311   8.225   5.132  0.47 44.95 LIG-0.27  OA
ATOM      3  N   VAL C  77      18.475   7.225   7.077  0.47 42.25 LIG-0.35  N 
ATOM      4 H    VAL C  77      18.747   7.182   7.892  0.47 42.25 LIG 0.16  HD
ENDROOT
BRANCH 3 5
ATOM      5  CA  VAL C  77      17.769   6.079   6.590  0.47 44.36 LIG 0.17  C 
BRANCH 5 6
ATOM      6  C   VAL C  77      16.311   6.455   6.644  0.47 50.22 LIG 0.22  C 
ATOM      7 O    VAL C  77      15.929   7.210   7.496  0.47 51.68 LIG-0.28  OA
ATOM      8 N    PRO C  78      15.481   6.033   5.724  0.47 51.29 LIG-0.24  NA
ATOM      9  CD  PRO C  78      15.943   6.397   4.375  0.47 47.28 LIG 0.10  C 
ATOM     10  CA  PRO C  78      14.087   6.390   5.909  0.47 47.56 LIG 0.16  C 
ATOM     11  CG  PRO C  78      14.856   7.229   3.863  0.47 42.43 LIG 0.02  C 
ATOM     12  CB  PRO C  78      13.637   6.767   4.506  0.47 42.06 LIG 0.03  C 
BRANCH 10 13
ATOM     13  C   PRO C  78      13.402   5.208   6.546  0.47 54.03 LIG 0.24  C 
ATOM     14  N   PRO C  79      13.690   3.968   6.160  0.47 54.03 LIG-0.34  N 
ATOM     15  CD  PRO C  79      14.124   3.829   4.766  0.47 49.78 LIG 0.13  C 
ATOM     16  CA  PRO C  79      12.847   2.836   6.557  0.47 62.24 LIG 0.17  C 
ATOM     17  CG  PRO C  79      13.575   2.540   4.371  0.47 51.96 LIG 0.02  C 
ATOM     18  CB  PRO C  79      13.201   1.790   5.543  0.47 58.89 LIG 0.04  C 
ATOM     19 O    PRO C  78      12.551   5.466   7.357  0.47 60.82 LIG-0.27  OA
BRANCH 16 20
ATOM     20  C   PRO C  79      13.031   2.283   7.950  0.47 69.87 LIG 0.22  C 
ATOM     21 O    PRO C  79      12.697   1.139   8.135  0.47 73.23 LIG-0.29  OA
ENDBRANCH 16 20
ENDBRANCH 10 13
ENDBRANCH 5 6
BRANCH 5 22
ATOM     22  CB  VAL C  77      18.230   4.809   7.328  0.47 43.60 LIG 0.01  C 
ATOM     23  CG2 VAL C  77      17.191   3.722   7.047  0.47 46.41 LIG 0.01  C 
ATOM     24  CG1 VAL C  77      18.323   4.998   8.848  0.47 37.55 LIG 0.01  C 
ENDBRANCH 5 22
ENDBRANCH 3 5
BRANCH 1 25
ATOM     25  CA  PRO C  76      19.335   9.447   6.728  0.47 40.28 LIG 0.18  C 
ATOM     26  N   PRO C  76      18.466  10.567   6.435  0.47 33.79 LIG-0.34  N 
ATOM     27  CD  PRO C  76      18.132  11.302   7.655  0.47 35.40 LIG 0.13  C 
ATOM     28  C   PRO C  75      18.553  11.190   5.282  0.47 33.84 LIG 0.24  C 
ATOM     29  CG  PRO C  76      18.535  10.371   8.714  0.47 37.80 LIG 0.02  C 
ATOM     30  CB  PRO C  76      19.468   9.476   8.256  0.47 38.87 LIG 0.04  C 
ATOM     31 O    PRO C  75      19.303  10.853   4.435  0.47 33.93 LIG-0.27  OA
BRANCH 28 32
ATOM     32  CA  PRO C  75      17.710  12.426   5.081  0.47 46.85 LIG 0.18  C 
ATOM     33  CB  PRO C  75      16.216  12.099   5.180  0.47 48.68 LIG 0.04  C 
ATOM     34  CG  PRO C  75      15.579  12.691   3.967  0.47 51.42 LIG 0.02  C 
ATOM     35  CD  PRO C  75      16.578  13.490   3.251  0.47 56.17 LIG 0.13  C 
ATOM     36  N   PRO C  75      17.843  12.939   3.726  0.47 56.81 LIG-0.34  N 
ATOM     37  C   PRO C  74      18.869  13.683   3.316  0.47 61.55 LIG 0.26  C 
ATOM     38 O    PRO C  74      19.822  13.996   4.003  0.47 61.23 LIG-0.27  OA
BRANCH 37 39
ATOM     39  CA  PRO C  74      18.820  14.167   1.884  0.47 57.58 LIG 0.35  C 
ATOM     40  N   PRO C  74      19.306  15.544   1.770  0.47 57.74 LIG 0.32  N 
ATOM     41  CD  PRO C  74      20.319  15.641   0.717  0.47 56.21 LIG 0.32  C 
ATOM     42  CG  PRO C  74      20.927  14.292   0.753  0.47 52.80 LIG 0.04  C 
ATOM     43  CB  PRO C  74      19.807  13.381   1.023  0.47 50.35 LIG 0.05  C 
ENDBRANCH 37 39
ENDBRANCH 28 32
ENDBRANCH 1 25
TORSDOF 8
ENDMDL
MODEL 48
USER: ADFR SOLUTION from run 61
USER: SCORE 11.740467 LL:  -3.675 LR:  -8.093 RR:   0.000 FEB:  -5.706
USER: RMSD 10.486515
USER: SEED 60
USER: STATUS no improvement in best in 20 clusters for 5 generations
USER: GENES 10
USER: genes 0 Translation |==|  0.45765 0.46525 0.46451
USER: genes 1 Rotation |==|  0.37122 0.92940 0.72092 0.51514
USER: genes 2 Torsion [C]-N--CA-[C] |==|  0.79920
USER: genes 3 Torsion [N]-CA--C-[N] |==|  0.43238
USER: genes 4 Torsion [N]-CA--C-[N] |==|  0.43466
USER: genes 5 Torsion [N]-CA--C-[O] |==|  0.04439
USER: genes 6 Torsion [N]-CA--CB-[CG2] |==|  0.79419
USER: genes 7 Torsion [O]-C--CA-[N] |==|  0.85304
USER: genes 8 Torsion [N]-C--CA-[N] |==|  0.90433
USER: genes 9 Torsion [N]-C--CA-[CB] |==|  0.79733
ROOT
ATOM      1  C   PRO C  76      15.373   8.816   5.009  0.47 42.64 LIG 0.24  C 
ATOM      2 O    PRO C  76      15.680   7.807   4.465  0.47 44.95 LIG-0.27  OA
ATOM      3  N   VAL C  77      14.257   9.452   4.756  0.47 42.25 LIG-0.35  N 
ATOM      4 H    VAL C  77      13.984  10.160   5.158  0.47 42.25 LIG 0.16  HD
ENDROOT
BRANCH 3 5
ATOM      5  CA  VAL C  77      13.401   8.943   3.727  0.47 44.36 LIG 0.17  C 
BRANCH 5 6
ATOM      6  C   VAL C  77      14.105   9.255   2.432  0.47 50.22 LIG 0.22  C 
ATOM      7 O    VAL C  77      14.947  10.110   2.410  0.47 51.68 LIG-0.28  OA
ATOM      8 N    PRO C  78      13.865   8.545   1.358  0.47 51.29 LIG-0.24  NA
ATOM      9  CD  PRO C  78      14.082   7.111   1.601  0.47 47.28 LIG 0.10  C 
ATOM     10  CA  PRO C  78      14.538   8.974   0.146  0.47 47.56 LIG 0.16  C 
ATOM     11  CG  PRO C  78      15.130   6.764   0.643  0.47 42.43 LIG 0.02  C 
ATOM     12  CB  PRO C  78      14.977   7.663  -0.488  0.47 42.06 LIG 0.03  C 
BRANCH 10 13
ATOM     13  C   PRO C  78      13.561   9.813  -0.638  0.47 54.03 LIG 0.24  C 
ATOM     14  N   PRO C  79      13.991  10.707  -1.523  0.47 54.03 LIG-0.34  N 
ATOM     15  CD  PRO C  79      15.306  11.290  -1.238  0.47 49.78 LIG 0.13  C 
ATOM     16  CA  PRO C  79      13.086  11.716  -2.081  0.47 62.24 LIG 0.17  C 
ATOM     17  CG  PRO C  79      15.177  12.658  -1.717  0.47 51.96 LIG 0.02  C 
ATOM     18  CB  PRO C  79      14.031  12.766  -2.583  0.47 58.89 LIG 0.04  C 
ATOM     19 O    PRO C  78      12.399   9.664  -0.360  0.47 60.82 LIG-0.27  OA
BRANCH 16 20
ATOM     20  C   PRO C  79      12.160  11.285  -3.194  0.47 69.87 LIG 0.22  C 
ATOM     21 O    PRO C  79      12.007  10.100  -3.353  0.47 73.23 LIG-0.29  OA
ENDBRANCH 16 20
ENDBRANCH 10 13
ENDBRANCH 5 6
BRANCH 5 22
ATOM     22  CB  VAL C  77      11.962   9.453   3.924  0.47 43.60 LIG 0.01  C 
ATOM     23  CG2 VAL C  77      11.369   8.680   5.103  0.47 46.41 LIG 0.01  C 
ATOM     24  CG1 VAL C  77      11.068   9.216   2.700  0.47 37.55 LIG 0.01  C 
ENDBRANCH 5 22
ENDBRANCH 3 5
BRANCH 1 25
ATOM     25  CA  PRO C  76      16.301   9.317   6.022  0.47 40.28 LIG 0.18  C 
ATOM     26  N   PRO C  76      16.545   8.237   6.953  0.47 33.79 LIG-0.34  N 
ATOM     27  CD  PRO C  76      17.971   7.913   7.016  0.47 35.40 LIG 0.13  C 
ATOM     28  C   PRO C  75      15.779   8.083   8.008  0.47 33.84 LIG 0.24  C 
ATOM     29  CG  PRO C  76      18.508   8.589   5.831  0.47 37.80 LIG 0.02  C 
ATOM     30  CB  PRO C  76      17.685   9.610   5.429  0.47 38.87 LIG 0.04  C 
ATOM     31 O    PRO C  75      14.852   8.783   8.225  0.47 33.93 LIG-0.27  OA
BRANCH 28 32
ATOM     32  CA  PRO C  75      16.156   7.018   9.009  0.47 46.85 LIG 0.18  C 
ATOM     33  CB  PRO C  75      17.279   7.502   9.934  0.47 48.68 LIG 0.04  C 
ATOM     34  CG  PRO C  75      18.322   6.434   9.916  0.47 51.42 LIG 0.02  C 
ATOM     35  CD  PRO C  75      17.806   5.281   9.173  0.47 56.17 LIG 0.13  C 
ATOM     36  N   PRO C  75      16.750   5.865   8.351  0.47 56.81 LIG-0.34  N 
ATOM     37  C   PRO C  74      16.040   4.914   7.745  0.47 61.55 LIG 0.26  C 
ATOM     38 O    PRO C  74      14.828   4.907   7.642  0.47 61.23 LIG-0.27  OA
BRANCH 37 39
ATOM     39  CA  PRO C  74      16.822   3.764   7.152  0.47 57.58 LIG 0.35  C 
ATOM     40  N   PRO C  74      15.931   2.712   6.658  0.47 57.74 LIG 0.32  N 
ATOM     41  CD  PRO C  74      16.282   2.350   5.283  0.47 56.21 LIG 0.32  C 
ATOM     42  CG  PRO C  74      16.824   3.626   4.762  0.47 52.80 LIG 0.04  C 
ATOM     43  CB  PRO C  74      17.557   4.213   5.890  0.47 50.35 LIG 0.05  C 
ENDBRANCH 37 39
ENDBRANCH 28 32
ENDBRANCH 1 25
TORSDOF 8
ENDMDL
MODEL 49
USER: ADFR SOLUTION from run 108
USER: SCORE 10.855537 LL:  -3.559 LR:  -8.087 RR:   0.000 FEB:  -5.701
USER: RMSD 5.272365
USER: SEED 107
USER: STATUS no improvement in best in 17 clusters for 5 generations
USER: GENES 10
USER: genes 0 Translation |==|  0.67879 0.43442 0.56045
USER: genes 1 Rotation |==|  0.63849 0.02984 0.56916 0.57059
USER: genes 2 Torsion [C]-N--CA-[C] |==|  0.16556
USER: genes 3 Torsion [N]-CA--C-[N] |==|  0.57222
USER: genes 4 Torsion [N]-CA--C-[N] |==|  0.33067
USER: genes 5 Torsion [N]-CA--C-[O] |==|  0.22292
USER: genes 6 Torsion [N]-CA--CB-[CG2] |==|  0.61459
USER: genes 7 Torsion [O]-C--CA-[N] |==|  0.58920
USER: genes 8 Torsion [N]-C--CA-[N] |==|  0.44015
USER: genes 9 Torsion [N]-C--CA-[CB] |==|  0.68469
ROOT
ATOM      1  C   PRO C  76      19.022   8.307   7.383  0.47 42.64 LIG 0.24  C 
ATOM      2 O    PRO C  76      19.447   7.499   8.141  0.47 44.95 LIG-0.27  OA
ATOM      3  N   VAL C  77      17.882   8.167   6.755  0.47 42.25 LIG-0.35  N 
ATOM      4 H    VAL C  77      17.525   8.747   6.232  0.47 42.25 LIG 0.16  HD
ENDROOT
BRANCH 3 5
ATOM      5  CA  VAL C  77      17.149   6.950   6.937  0.47 44.36 LIG 0.17  C 
BRANCH 5 6
ATOM      6  C   VAL C  77      16.869   6.870   8.415  0.47 50.22 LIG 0.22  C 
ATOM      7 O    VAL C  77      16.739   7.884   9.045  0.47 51.68 LIG-0.28  OA
ATOM      8 N    PRO C  78      16.682   5.712   8.994  0.47 51.29 LIG-0.24  NA
ATOM      9  CD  PRO C  78      15.611   4.947   8.338  0.47 47.28 LIG 0.10  C 
ATOM     10  CA  PRO C  78      16.493   5.740  10.433  0.47 47.56 LIG 0.16  C 
ATOM     11  CG  PRO C  78      14.633   4.756   9.407  0.47 42.43 LIG 0.02  C 
ATOM     12  CB  PRO C  78      15.377   4.731  10.655  0.47 42.06 LIG 0.03  C 
BRANCH 10 13
ATOM     13  C   PRO C  78      17.825   5.428  11.067  0.47 54.03 LIG 0.24  C 
ATOM     14  N   PRO C  79      18.419   6.309  11.866  0.47 54.03 LIG-0.34  N 
ATOM     15  CD  PRO C  79      18.117   7.716  11.584  0.47 49.78 LIG 0.13  C 
ATOM     16  CA  PRO C  79      19.821   6.148  12.261  0.47 62.24 LIG 0.17  C 
ATOM     17  CG  PRO C  79      19.365   8.396  11.899  0.47 51.96 LIG 0.02  C 
ATOM     18  CB  PRO C  79      20.205   7.533  12.688  0.47 58.89 LIG 0.04  C 
ATOM     19 O    PRO C  78      18.326   4.380  10.750  0.47 60.82 LIG-0.27  OA
BRANCH 16 20
ATOM     20  C   PRO C  79      20.128   5.167  13.368  0.47 69.87 LIG 0.22  C 
ATOM     21 O    PRO C  79      20.175   4.000  13.070  0.47 73.23 LIG-0.29  OA
ENDBRANCH 16 20
ENDBRANCH 10 13
ENDBRANCH 5 6
BRANCH 5 22
ATOM     22  CB  VAL C  77      17.881   5.775   6.262  0.47 43.60 LIG 0.01  C 
ATOM     23  CG2 VAL C  77      16.817   4.917   5.577  0.47 46.41 LIG 0.01  C 
ATOM     24  CG1 VAL C  77      18.640   4.889   7.257  0.47 37.55 LIG 0.01  C 
ENDBRANCH 5 22
ENDBRANCH 3 5
BRANCH 1 25
ATOM     25  CA  PRO C  76      19.829   9.513   7.199  0.47 40.28 LIG 0.18  C 
ATOM     26  N   PRO C  76      18.916  10.604   6.934  0.47 33.79 LIG-0.34  N 
ATOM     27  CD  PRO C  76      19.071  11.668   7.928  0.47 35.40 LIG 0.13  C 
ATOM     28  C   PRO C  75      18.560  10.888   5.703  0.47 33.84 LIG 0.24  C 
ATOM     29  CG  PRO C  76      19.844  11.010   8.986  0.47 37.80 LIG 0.02  C 
ATOM     30  CB  PRO C  76      20.532   9.929   8.498  0.47 38.87 LIG 0.04  C 
ATOM     31 O    PRO C  75      18.931  10.259   4.775  0.47 33.93 LIG-0.27  OA
BRANCH 28 32
ATOM     32  CA  PRO C  75      17.707  12.112   5.477  0.47 46.85 LIG 0.18  C 
ATOM     33  CB  PRO C  75      16.216  11.781   5.615  0.47 48.68 LIG 0.04  C 
ATOM     34  CG  PRO C  75      15.554  12.330   4.395  0.47 51.42 LIG 0.02  C 
ATOM     35  CD  PRO C  75      16.534  13.110   3.634  0.47 56.17 LIG 0.13  C 
ATOM     36  N   PRO C  75      17.811  12.581   4.103  0.47 56.81 LIG-0.34  N 
ATOM     37  C   PRO C  74      18.825  13.316   3.650  0.47 61.55 LIG 0.26  C 
ATOM     38 O    PRO C  74      19.789  13.657   4.308  0.47 61.23 LIG-0.27  OA
BRANCH 37 39
ATOM     39  CA  PRO C  74      18.747  13.752   2.204  0.47 57.58 LIG 0.35  C 
ATOM     40  N   PRO C  74      19.048  15.178   2.060  0.47 57.74 LIG 0.32  N 
ATOM     41  CD  PRO C  74      20.064  15.383   1.026  0.47 56.21 LIG 0.32  C 
ATOM     42  CG  PRO C  74      20.845  14.129   1.113  0.47 52.80 LIG 0.04  C 
ATOM     43  CB  PRO C  74      19.850  13.083   1.386  0.47 50.35 LIG 0.05  C 
ENDBRANCH 37 39
ENDBRANCH 28 32
ENDBRANCH 1 25
TORSDOF 8
ENDMDL
MODEL 50
USER: ADFR SOLUTION from run 58
USER: SCORE 11.683666 LL:  -3.692 LR:  -8.076 RR:   0.000 FEB:  -5.690
USER: RMSD 4.643307
USER: SEED 57
USER: STATUS no improvement in best in 23 clusters for 5 generations
USER: GENES 10
USER: genes 0 Translation |==|  0.39172 0.50306 0.36899
USER: genes 1 Rotation |==|  0.74503 0.36128 0.84940 0.72053
USER: genes 2 Torsion [C]-N--CA-[C] |==|  0.75139
USER: genes 3 Torsion [N]-CA--C-[N] |==|  0.44664
USER: genes 4 Torsion [N]-CA--C-[N] |==|  0.31440
USER: genes 5 Torsion [N]-CA--C-[O] |==|  0.23616
USER: genes 6 Torsion [N]-CA--CB-[CG2] |==|  0.55983
USER: genes 7 Torsion [O]-C--CA-[N] |==|  0.07472
USER: genes 8 Torsion [N]-C--CA-[N] |==|  0.47340
USER: genes 9 Torsion [N]-C--CA-[CB] |==|  0.80695
ROOT
ATOM      1  C   PRO C  76      14.285   9.440   2.644  0.47 42.64 LIG 0.24  C 
ATOM      2 O    PRO C  76      14.937  10.429   2.698  0.47 44.95 LIG-0.27  OA
ATOM      3  N   VAL C  77      13.988   8.723   3.699  0.47 42.25 LIG-0.35  N 
ATOM      4 H    VAL C  77      13.486   8.025   3.704  0.47 42.25 LIG 0.16  HD
ENDROOT
BRANCH 3 5
ATOM      5  CA  VAL C  77      14.532   9.114   4.964  0.47 44.36 LIG 0.17  C 
BRANCH 5 6
ATOM      6  C   VAL C  77      15.851   8.395   5.070  0.47 50.22 LIG 0.22  C 
ATOM      7 O    VAL C  77      16.089   7.487   4.322  0.47 51.68 LIG-0.28  OA
ATOM      8 N    PRO C  78      16.767   8.807   5.911  0.47 51.29 LIG-0.24  NA
ATOM      9  CD  PRO C  78      17.095  10.225   5.697  0.47 47.28 LIG 0.10  C 
ATOM     10  CA  PRO C  78      17.971   8.001   5.989  0.47 47.56 LIG 0.16  C 
ATOM     11  CG  PRO C  78      18.521  10.193   5.377  0.47 42.43 LIG 0.02  C 
ATOM     12  CB  PRO C  78      19.078   9.041   6.065  0.47 42.06 LIG 0.03  C 
BRANCH 10 13
ATOM     13  C   PRO C  78      17.821   7.083   7.175  0.47 54.03 LIG 0.24  C 
ATOM     14  N   PRO C  79      17.714   5.768   7.006  0.47 54.03 LIG-0.34  N 
ATOM     15  CD  PRO C  79      17.104   5.345   5.741  0.47 49.78 LIG 0.13  C 
ATOM     16  CA  PRO C  79      17.289   4.896   8.105  0.47 62.24 LIG 0.17  C 
ATOM     17  CG  PRO C  79      16.364   4.147   6.110  0.47 51.96 LIG 0.02  C 
ATOM     18  CB  PRO C  79      16.823   3.664   7.387  0.47 58.89 LIG 0.04  C 
ATOM     19 O    PRO C  78      17.739   7.620   8.249  0.47 60.82 LIG-0.27  OA
BRANCH 16 20
ATOM     20  C   PRO C  79      18.322   4.524   9.142  0.47 69.87 LIG 0.22  C 
ATOM     21 O    PRO C  79      18.491   5.298  10.051  0.47 73.23 LIG-0.29  OA
ENDBRANCH 16 20
ENDBRANCH 10 13
ENDBRANCH 5 6
BRANCH 5 22
ATOM     22  CB  VAL C  77      13.492   8.914   6.082  0.47 43.60 LIG 0.01  C 
ATOM     23  CG2 VAL C  77      13.903   9.817   7.245  0.47 46.41 LIG 0.01  C 
ATOM     24  CG1 VAL C  77      13.433   7.470   6.596  0.47 37.55 LIG 0.01  C 
ENDBRANCH 5 22
ENDBRANCH 3 5
BRANCH 1 25
ATOM     25  CA  PRO C  76      13.788   9.059   1.322  0.47 40.28 LIG 0.18  C 
ATOM     26  N   PRO C  76      14.707   9.601   0.345  0.47 33.79 LIG-0.34  N 
ATOM     27  CD  PRO C  76      15.269   8.537  -0.488  0.47 35.40 LIG 0.13  C 
ATOM     28  C   PRO C  75      14.523  10.805  -0.145  0.47 33.84 LIG 0.24  C 
ATOM     29  CG  PRO C  76      14.930   7.324   0.264  0.47 37.80 LIG 0.02  C 
ATOM     30  CB  PRO C  76      13.866   7.544   1.101  0.47 38.87 LIG 0.04  C 
ATOM     31 O    PRO C  75      13.637  11.503   0.207  0.47 33.93 LIG-0.27  OA
BRANCH 28 32
ATOM     32  CA  PRO C  75      15.439  11.267  -1.251  0.47 46.85 LIG 0.18  C 
ATOM     33  CB  PRO C  75      16.823  11.639  -0.704  0.47 48.68 LIG 0.04  C 
ATOM     34  CG  PRO C  75      17.134  12.994  -1.247  0.47 51.42 LIG 0.02  C 
ATOM     35  CD  PRO C  75      16.097  13.367  -2.213  0.47 56.17 LIG 0.13  C 
ATOM     36  N   PRO C  75      14.973  12.516  -1.834  0.47 56.81 LIG-0.34  N 
ATOM     37  C   PRO C  74      13.997  12.588  -2.737  0.47 61.55 LIG 0.26  C 
ATOM     38 O    PRO C  74      13.363  11.639  -3.159  0.47 61.23 LIG-0.27  OA
BRANCH 37 39
ATOM     39  CA  PRO C  74      13.672  13.966  -3.269  0.47 57.58 LIG 0.35  C 
ATOM     40  N   PRO C  74      12.641  13.908  -4.307  0.47 57.74 LIG 0.32  N 
ATOM     41  CD  PRO C  74      11.568  14.861  -4.015  0.47 56.21 LIG 0.32  C 
ATOM     42  CG  PRO C  74      11.595  14.905  -2.535  0.47 52.80 LIG 0.04  C 
ATOM     43  CB  PRO C  74      13.018  14.816  -2.181  0.47 50.35 LIG 0.05  C 
ENDBRANCH 37 39
ENDBRANCH 28 32
ENDBRANCH 1 25
TORSDOF 8
ENDMDL
MODEL 51
USER: ADFR SOLUTION from run 79
USER: SCORE 11.673076 LL:  -3.671 LR:  -8.070 RR:   0.000 FEB:  -5.683
USER: RMSD 8.581621
USER: SEED 78
USER: STATUS no improvement in best in 33 clusters for 5 generations
USER: GENES 10
USER: genes 0 Translation |==|  0.46894 0.47399 0.53830
USER: genes 1 Rotation |==|  0.01740 0.43413 0.40324 0.55824
USER: genes 2 Torsion [C]-N--CA-[C] |==|  0.77399
USER: genes 3 Torsion [N]-CA--C-[N] |==|  0.46543
USER: genes 4 Torsion [N]-CA--C-[N] |==|  0.44869
USER: genes 5 Torsion [N]-CA--C-[O] |==|  0.13803
USER: genes 6 Torsion [N]-CA--CB-[CG2] |==|  0.90982
USER: genes 7 Torsion [O]-C--CA-[N] |==|  0.65409
USER: genes 8 Torsion [N]-C--CA-[N] |==|  0.32234
USER: genes 9 Torsion [N]-C--CA-[CB] |==|  0.77990
ROOT
ATOM      1  C   PRO C  76      15.559   8.960   6.835  0.47 42.64 LIG 0.24  C 
ATOM      2 O    PRO C  76      15.351   9.850   7.591  0.47 44.95 LIG-0.27  OA
ATOM      3  N   VAL C  77      16.727   8.754   6.280  0.47 42.25 LIG-0.35  N 
ATOM      4 H    VAL C  77      16.926   8.098   5.761  0.47 42.25 LIG 0.16  HD
ENDROOT
BRANCH 3 5
ATOM      5  CA  VAL C  77      17.780   9.687   6.543  0.47 44.36 LIG 0.17  C 
BRANCH 5 6
ATOM      6  C   VAL C  77      17.536  10.841   5.606  0.47 50.22 LIG 0.22  C 
ATOM      7 O    VAL C  77      16.688  10.745   4.762  0.47 51.68 LIG-0.28  OA
ATOM      8 N    PRO C  78      18.180  11.970   5.760  0.47 51.29 LIG-0.24  NA
ATOM      9  CD  PRO C  78      18.006  12.509   7.118  0.47 47.28 LIG 0.10  C 
ATOM     10  CA  PRO C  78      17.927  12.991   4.760  0.47 47.56 LIG 0.16  C 
ATOM     11  CG  PRO C  78      17.374  13.806   6.885  0.47 42.43 LIG 0.02  C 
ATOM     12  CB  PRO C  78      17.832  14.266   5.585  0.47 42.06 LIG 0.03  C 
BRANCH 10 13
ATOM     13  C   PRO C  78      19.044  12.918   3.751  0.47 54.03 LIG 0.24  C 
ATOM     14  N   PRO C  79      18.908  13.462   2.546  0.47 54.03 LIG-0.34  N 
ATOM     15  CD  PRO C  79      17.534  13.514   2.033  0.47 49.78 LIG 0.13  C 
ATOM     16  CA  PRO C  79      19.854  13.163   1.468  0.47 62.24 LIG 0.17  C 
ATOM     17  CG  PRO C  79      17.704  13.312   0.601  0.47 51.96 LIG 0.02  C 
ATOM     18  CB  PRO C  79      19.080  13.533   0.238  0.47 58.89 LIG 0.04  C 
ATOM     19 O    PRO C  78      20.015  12.288   4.085  0.47 60.82 LIG-0.27  OA
BRANCH 16 20
ATOM     20  C   PRO C  79      21.178  13.890   1.478  0.47 69.87 LIG 0.22  C 
ATOM     21 O    PRO C  79      21.797  13.889   2.512  0.47 73.23 LIG-0.29  OA
ENDBRANCH 16 20
ENDBRANCH 10 13
ENDBRANCH 5 6
BRANCH 5 22
ATOM     22  CB  VAL C  77      19.148   8.981   6.501  0.47 43.60 LIG 0.01  C 
ATOM     23  CG2 VAL C  77      18.931   7.552   7.001  0.47 46.41 LIG 0.01  C 
ATOM     24  CG1 VAL C  77      20.196   9.647   7.401  0.47 37.55 LIG 0.01  C 
ENDBRANCH 5 22
ENDBRANCH 3 5
BRANCH 1 25
ATOM     25  CA  PRO C  76      14.439   8.058   6.566  0.47 40.28 LIG 0.18  C 
ATOM     26  N   PRO C  76      14.885   6.716   6.869  0.47 33.79 LIG-0.34  N 
ATOM     27  CD  PRO C  76      14.038   6.103   7.893  0.47 35.40 LIG 0.13  C 
ATOM     28  C   PRO C  75      15.450   5.978   5.941  0.47 33.84 LIG 0.24  C 
ATOM     29  CG  PRO C  76      13.308   7.252   8.438  0.47 37.80 LIG 0.02  C 
ATOM     30  CB  PRO C  76      13.278   8.289   7.541  0.47 38.87 LIG 0.04  C 
ATOM     31 O    PRO C  75      15.649   6.378   4.848  0.47 33.93 LIG-0.27  OA
BRANCH 28 32
ATOM     32  CA  PRO C  75      15.780   4.545   6.280  0.47 46.85 LIG 0.18  C 
ATOM     33  CB  PRO C  75      17.232   4.211   5.916  0.47 48.68 LIG 0.04  C 
ATOM     34  CG  PRO C  75      17.181   2.954   5.113  0.47 51.42 LIG 0.02  C 
ATOM     35  CD  PRO C  75      15.809   2.439   5.127  0.47 56.17 LIG 0.13  C 
ATOM     36  N   PRO C  75      15.017   3.620   5.456  0.47 56.81 LIG-0.34  N 
ATOM     37  C   PRO C  74      13.750   3.289   5.699  0.47 61.55 LIG 0.26  C 
ATOM     38 O    PRO C  74      13.074   3.734   6.607  0.47 61.23 LIG-0.27  OA
BRANCH 37 39
ATOM     39  CA  PRO C  74      13.126   2.278   4.764  0.47 57.58 LIG 0.35  C 
ATOM     40  N   PRO C  74      11.862   1.767   5.298  0.47 57.74 LIG 0.32  N 
ATOM     41  CD  PRO C  74      10.806   1.863   4.288  0.47 56.21 LIG 0.32  C 
ATOM     42  CG  PRO C  74      11.238   3.044   3.507  0.47 52.80 LIG 0.04  C 
ATOM     43  CB  PRO C  74      12.703   2.949   3.459  0.47 50.35 LIG 0.05  C 
ENDBRANCH 37 39
ENDBRANCH 28 32
ENDBRANCH 1 25
TORSDOF 8
ENDMDL
MODEL 52
USER: ADFR SOLUTION from run 197
USER: SCORE 11.718602 LL:  -3.870 LR:  -8.051 RR:   0.000 FEB:  -5.665
USER: RMSD 10.203169
USER: SEED 196
USER: STATUS no improvement in best in 26 clusters for 5 generations
USER: GENES 10
USER: genes 0 Translation |==|  0.37752 0.38398 0.37132
USER: genes 1 Rotation |==|  0.14528 0.80086 0.66086 0.58822
USER: genes 2 Torsion [C]-N--CA-[C] |==|  0.76198
USER: genes 3 Torsion [N]-CA--C-[N] |==|  0.88457
USER: genes 4 Torsion [N]-CA--C-[N] |==|  0.49548
USER: genes 5 Torsion [N]-CA--C-[O] |==|  0.12314
USER: genes 6 Torsion [N]-CA--CB-[CG2] |==|  0.84753
USER: genes 7 Torsion [O]-C--CA-[N] |==|  0.09197
USER: genes 8 Torsion [N]-C--CA-[N] |==|  0.53439
USER: genes 9 Torsion [N]-C--CA-[CB] |==|  0.84719
ROOT
ATOM      1  C   PRO C  76      14.051   7.475   2.702  0.47 42.64 LIG 0.24  C 
ATOM      2 O    PRO C  76      15.191   7.146   2.726  0.47 44.95 LIG-0.27  OA
ATOM      3  N   VAL C  77      13.280   7.303   1.658  0.47 42.25 LIG-0.35  N 
ATOM      4 H    VAL C  77      12.443   7.491   1.619  0.47 42.25 LIG 0.16  HD
ENDROOT
BRANCH 3 5
ATOM      5  CA  VAL C  77      13.859   6.759   0.467  0.47 44.36 LIG 0.17  C 
BRANCH 5 6
ATOM      6  C   VAL C  77      14.438   7.937  -0.271  0.47 50.22 LIG 0.22  C 
ATOM      7 O    VAL C  77      15.475   7.810  -0.863  0.47 51.68 LIG-0.28  OA
ATOM      8 N    PRO C  78      13.779   9.066  -0.341  0.47 51.29 LIG-0.24  NA
ATOM      9  CD  PRO C  78      12.429   8.868  -0.891  0.47 47.28 LIG 0.10  C 
ATOM     10  CA  PRO C  78      14.457  10.161  -1.011  0.47 47.56 LIG 0.16  C 
ATOM     11  CG  PRO C  78      12.431   9.701  -2.092  0.47 42.43 LIG 0.02  C 
ATOM     12  CB  PRO C  78      13.352  10.797  -1.838  0.47 42.06 LIG 0.03  C 
BRANCH 10 13
ATOM     13  C   PRO C  78      15.086  11.019   0.057  0.47 54.03 LIG 0.24  C 
ATOM     14  N   PRO C  79      15.807  12.088  -0.269  0.47 54.03 LIG-0.34  N 
ATOM     15  CD  PRO C  79      16.487  12.015  -1.567  0.47 49.78 LIG 0.13  C 
ATOM     16  CA  PRO C  79      16.649  12.764   0.721  0.47 62.24 LIG 0.17  C 
ATOM     17  CG  PRO C  79      17.729  12.738  -1.335  0.47 51.96 LIG 0.02  C 
ATOM     18  CB  PRO C  79      17.618  13.524  -0.134  0.47 58.89 LIG 0.04  C 
ATOM     19 O    PRO C  78      14.947  10.637   1.190  0.47 60.82 LIG-0.27  OA
BRANCH 16 20
ATOM     20  C   PRO C  79      15.972  13.705   1.689  0.47 69.87 LIG 0.22  C 
ATOM     21 O    PRO C  79      14.942  13.330   2.191  0.47 73.23 LIG-0.29  OA
ENDBRANCH 16 20
ENDBRANCH 10 13
ENDBRANCH 5 6
BRANCH 5 22
ATOM     22  CB  VAL C  77      12.843   5.860  -0.262  0.47 43.60 LIG 0.01  C 
ATOM     23  CG2 VAL C  77      12.367   4.811   0.745  0.47 46.41 LIG 0.01  C 
ATOM     24  CG1 VAL C  77      13.445   5.125  -1.466  0.47 37.55 LIG 0.01  C 
ENDBRANCH 5 22
ENDBRANCH 3 5
BRANCH 1 25
ATOM     25  CA  PRO C  76      13.519   8.065   3.930  0.47 40.28 LIG 0.18  C 
ATOM     26  N   PRO C  76      14.597   8.798   4.558  0.47 33.79 LIG-0.34  N 
ATOM     27  CD  PRO C  76      14.242  10.208   4.724  0.47 35.40 LIG 0.13  C 
ATOM     28  C   PRO C  75      15.392   8.204   5.417  0.47 33.84 LIG 0.24  C 
ATOM     29  CG  PRO C  76      13.072  10.352   3.851  0.47 37.80 LIG 0.02  C 
ATOM     30  CB  PRO C  76      12.467   9.141   3.633  0.47 38.87 LIG 0.04  C 
ATOM     31 O    PRO C  75      15.290   7.059   5.688  0.47 33.93 LIG-0.27  OA
BRANCH 28 32
ATOM     32  CA  PRO C  75      16.418   9.048   6.132  0.47 46.85 LIG 0.18  C 
ATOM     33  CB  PRO C  75      17.274   9.840   5.137  0.47 48.68 LIG 0.04  C 
ATOM     34  CG  PRO C  75      18.696   9.583   5.515  0.47 51.42 LIG 0.02  C 
ATOM     35  CD  PRO C  75      18.722   8.830   6.772  0.47 56.17 LIG 0.13  C 
ATOM     36  N   PRO C  75      17.397   8.219   6.818  0.47 56.81 LIG-0.34  N 
ATOM     37  C   PRO C  74      17.180   7.645   8.000  0.47 61.55 LIG 0.26  C 
ATOM     38 O    PRO C  74      16.142   7.716   8.630  0.47 61.23 LIG-0.27  OA
BRANCH 37 39
ATOM     39  CA  PRO C  74      18.327   6.853   8.585  0.47 57.58 LIG 0.35  C 
ATOM     40  N   PRO C  74      17.894   6.060   9.738  0.47 57.74 LIG 0.32  N 
ATOM     41  CD  PRO C  74      18.321   4.667   9.589  0.47 56.21 LIG 0.32  C 
ATOM     42  CG  PRO C  74      18.319   4.504   8.118  0.47 52.80 LIG 0.04  C 
ATOM     43  CB  PRO C  74      18.800   5.789   7.595  0.47 50.35 LIG 0.05  C 
ENDBRANCH 37 39
ENDBRANCH 28 32
ENDBRANCH 1 25
TORSDOF 8
ENDMDL
MODEL 53
USER: ADFR SOLUTION from run 47
USER: SCORE 11.525168 LL:  -3.571 LR:  -8.049 RR:   0.000 FEB:  -5.663
USER: RMSD 10.897778
USER: SEED 46
USER: STATUS no improvement in best in 27 clusters for 5 generations
USER: GENES 10
USER: genes 0 Translation |==|  0.61351 0.32541 0.65947
USER: genes 1 Rotation |==|  0.09474 0.63497 0.72330 0.63301
USER: genes 2 Torsion [C]-N--CA-[C] |==|  0.75834
USER: genes 3 Torsion [N]-CA--C-[N] |==|  0.35093
USER: genes 4 Torsion [N]-CA--C-[N] |==|  0.54202
USER: genes 5 Torsion [N]-CA--C-[O] |==|  0.81169
USER: genes 6 Torsion [N]-CA--CB-[CG2] |==|  0.26175
USER: genes 7 Torsion [O]-C--CA-[N] |==|  0.98084
USER: genes 8 Torsion [N]-C--CA-[N] |==|  0.88242
USER: genes 9 Torsion [N]-C--CA-[CB] |==|  0.81615
ROOT
ATOM      1  C   PRO C  76      17.945   6.508   9.834  0.47 42.64 LIG 0.24  C 
ATOM      2 O    PRO C  76      19.072   6.841   9.996  0.47 44.95 LIG-0.27  OA
ATOM      3  N   VAL C  77      17.376   6.465   8.656  0.47 42.25 LIG-0.35  N 
ATOM      4 H    VAL C  77      16.578   6.191   8.495  0.47 42.25 LIG 0.16  HD
ENDROOT
BRANCH 3 5
ATOM      5  CA  VAL C  77      18.128   6.905   7.520  0.47 44.36 LIG 0.17  C 
BRANCH 5 6
ATOM      6  C   VAL C  77      17.897   8.391   7.439  0.47 50.22 LIG 0.22  C 
ATOM      7 O    VAL C  77      16.775   8.817   7.493  0.47 51.68 LIG-0.28  OA
ATOM      8 N    PRO C  78      18.909   9.220   7.397  0.47 51.29 LIG-0.24  NA
ATOM      9  CD  PRO C  78      19.822   9.014   8.532  0.47 47.28 LIG 0.10  C 
ATOM     10  CA  PRO C  78      18.578  10.625   7.245  0.47 47.56 LIG 0.16  C 
ATOM     11  CG  PRO C  78      19.803  10.306   9.215  0.47 42.43 LIG 0.02  C 
ATOM     12  CB  PRO C  78      19.543  11.312   8.199  0.47 42.06 LIG 0.03  C 
BRANCH 10 13
ATOM     13  C   PRO C  78      18.715  10.963   5.782  0.47 54.03 LIG 0.24  C 
ATOM     14  N   PRO C  79      18.769  12.229   5.380  0.47 54.03 LIG-0.34  N 
ATOM     15  CD  PRO C  79      18.059  13.189   6.233  0.47 49.78 LIG 0.13  C 
ATOM     16  CA  PRO C  79      18.619  12.582   3.966  0.47 62.24 LIG 0.17  C 
ATOM     17  CG  PRO C  79      17.548  14.167   5.284  0.47 51.96 LIG 0.02  C 
ATOM     18  CB  PRO C  79      18.235  14.030   4.026  0.47 58.89 LIG 0.04  C 
ATOM     19 O    PRO C  78      18.704  10.029   5.023  0.47 60.82 LIG-0.27  OA
BRANCH 16 20
ATOM     20  C   PRO C  79      19.822  12.407   3.070  0.47 69.87 LIG 0.22  C 
ATOM     21 O    PRO C  79      20.760  13.139   3.262  0.47 73.23 LIG-0.29  OA
ENDBRANCH 16 20
ENDBRANCH 10 13
ENDBRANCH 5 6
BRANCH 5 22
ATOM     22  CB  VAL C  77      17.799   6.041   6.289  0.47 43.60 LIG 0.01  C 
ATOM     23  CG2 VAL C  77      16.697   6.763   5.513  0.47 46.41 LIG 0.01  C 
ATOM     24  CG1 VAL C  77      17.287   4.642   6.657  0.47 37.55 LIG 0.01  C 
ENDBRANCH 5 22
ENDBRANCH 3 5
BRANCH 1 25
ATOM     25  CA  PRO C  76      17.206   6.107  11.031  0.47 40.28 LIG 0.18  C 
ATOM     26  N   PRO C  76      18.149   6.075  12.128  0.47 33.79 LIG-0.34  N 
ATOM     27  CD  PRO C  76      17.735   6.982  13.199  0.47 35.40 LIG 0.13  C 
ATOM     28  C   PRO C  75      18.811   4.976  12.403  0.47 33.84 LIG 0.24  C 
ATOM     29  CG  PRO C  76      16.718   7.812  12.545  0.47 37.80 LIG 0.02  C 
ATOM     30  CB  PRO C  76      16.187   7.174  11.453  0.47 38.87 LIG 0.04  C 
ATOM     31 O    PRO C  75      18.697   3.991  11.761  0.47 33.93 LIG-0.27  OA
BRANCH 28 32
ATOM     32  CA  PRO C  75      19.685   4.965  13.633  0.47 46.85 LIG 0.18  C 
ATOM     33  CB  PRO C  75      18.841   4.939  14.912  0.47 48.68 LIG 0.04  C 
ATOM     34  CG  PRO C  75      19.365   6.035  15.779  0.47 51.42 LIG 0.02  C 
ATOM     35  CD  PRO C  75      20.572   6.591  15.161  0.47 56.17 LIG 0.13  C 
ATOM     36  N   PRO C  75      20.431   6.207  13.760  0.47 56.81 LIG-0.34  N 
ATOM     37  C   PRO C  74      21.547   6.471  13.081  0.47 61.55 LIG 0.26  C 
ATOM     38 O    PRO C  74      22.057   5.730  12.262  0.47 61.23 LIG-0.27  OA
BRANCH 37 39
ATOM     39  CA  PRO C  74      22.215   7.796  13.372  0.47 57.58 LIG 0.35  C 
ATOM     40  N   PRO C  74      23.426   7.970  12.568  0.47 57.74 LIG 0.32  N 
ATOM     41  CD  PRO C  74      23.405   9.266  11.887  0.47 56.21 LIG 0.32  C 
ATOM     42  CG  PRO C  74      21.954   9.485  11.696  0.47 52.80 LIG 0.04  C 
ATOM     43  CB  PRO C  74      21.328   8.952  12.912  0.47 50.35 LIG 0.05  C 
ENDBRANCH 37 39
ENDBRANCH 28 32
ENDBRANCH 1 25
TORSDOF 8
ENDMDL
MODEL 54
USER: ADFR SOLUTION from run 172
USER: SCORE 11.117500 LL:  -3.164 LR:  -8.040 RR:   0.000 FEB:  -5.653
USER: RMSD 8.722013
USER: SEED 171
USER: STATUS no improvement in best in 31 clusters for 5 generations
USER: GENES 10
USER: genes 0 Translation |==|  0.69467 0.45744 0.58512
USER: genes 1 Rotation |==|  0.16023 0.33853 0.29987 0.76159
USER: genes 2 Torsion [C]-N--CA-[C] |==|  0.75711
USER: genes 3 Torsion [N]-CA--C-[N] |==|  0.46667
USER: genes 4 Torsion [N]-CA--C-[N] |==|  0.88993
USER: genes 5 Torsion [N]-CA--C-[O] |==|  0.18124
USER: genes 6 Torsion [N]-CA--CB-[CG2] |==|  0.69747
USER: genes 7 Torsion [O]-C--CA-[N] |==|  0.91494
USER: genes 8 Torsion [N]-C--CA-[N] |==|  0.88250
USER: genes 9 Torsion [N]-C--CA-[CB] |==|  0.59845
ROOT
ATOM      1  C   PRO C  76      19.284   8.687   7.994  0.47 42.64 LIG 0.24  C 
ATOM      2 O    PRO C  76      18.441   8.454   8.796  0.47 44.95 LIG-0.27  OA
ATOM      3  N   VAL C  77      20.369   9.363   8.274  0.47 42.25 LIG-0.35  N 
ATOM      4 H    VAL C  77      21.018   9.515   7.731  0.47 42.25 LIG 0.16  HD
ENDROOT
BRANCH 3 5
ATOM      5  CA  VAL C  77      20.512   9.906   9.591  0.47 44.36 LIG 0.17  C 
BRANCH 5 6
ATOM      6  C   VAL C  77      19.845  11.255   9.542  0.47 50.22 LIG 0.22  C 
ATOM      7 O    VAL C  77      19.472  11.689   8.486  0.47 51.68 LIG-0.28  OA
ATOM      8 N    PRO C  78      19.596  11.914  10.645  0.47 51.29 LIG-0.24  NA
ATOM      9  CD  PRO C  78      18.806  11.107  11.588  0.47 47.28 LIG 0.10  C 
ATOM     10  CA  PRO C  78      19.019  13.236  10.483  0.47 47.56 LIG 0.16  C 
ATOM     11  CG  PRO C  78      17.590  11.898  11.768  0.47 42.43 LIG 0.02  C 
ATOM     12  CB  PRO C  78      17.964  13.289  11.577  0.47 42.06 LIG 0.03  C 
BRANCH 10 13
ATOM     13  C   PRO C  78      20.146  14.233  10.578  0.47 54.03 LIG 0.24  C 
ATOM     14  N   PRO C  79      21.125  14.067  11.462  0.47 54.03 LIG-0.34  N 
ATOM     15  CD  PRO C  79      20.752  13.348  12.685  0.47 49.78 LIG 0.13  C 
ATOM     16  CA  PRO C  79      22.065  15.151  11.763  0.47 62.24 LIG 0.17  C 
ATOM     17  CG  PRO C  79      21.560  13.991  13.711  0.47 51.96 LIG 0.02  C 
ATOM     18  CB  PRO C  79      22.621  14.744  13.095  0.47 58.89 LIG 0.04  C 
ATOM     19 O    PRO C  78      20.059  15.196   9.862  0.47 60.82 LIG-0.27  OA
BRANCH 16 20
ATOM     20  C   PRO C  79      23.193  15.389  10.788  0.47 69.87 LIG 0.22  C 
ATOM     21 O    PRO C  79      22.892  15.762   9.682  0.47 73.23 LIG-0.29  OA
ENDBRANCH 16 20
ENDBRANCH 10 13
ENDBRANCH 5 6
BRANCH 5 22
ATOM     22  CB  VAL C  77      21.980   9.826  10.049  0.47 43.60 LIG 0.01  C 
ATOM     23  CG2 VAL C  77      22.055   8.754  11.137  0.47 46.41 LIG 0.01  C 
ATOM     24  CG1 VAL C  77      22.497  11.143  10.642  0.47 37.55 LIG 0.01  C 
ENDBRANCH 5 22
ENDBRANCH 3 5
BRANCH 1 25
ATOM     25  CA  PRO C  76      19.071   8.146   6.651  0.47 40.28 LIG 0.18  C 
ATOM     26  N   PRO C  76      18.318   6.919   6.796  0.47 33.79 LIG-0.34  N 
ATOM     27  CD  PRO C  76      17.058   6.989   6.055  0.47 35.40 LIG 0.13  C 
ATOM     28  C   PRO C  75      18.939   5.773   6.951  0.47 33.84 LIG 0.24  C 
ATOM     29  CG  PRO C  76      16.931   8.422   5.769  0.47 37.80 LIG 0.02  C 
ATOM     30  CB  PRO C  76      18.151   9.046   5.816  0.47 38.87 LIG 0.04  C 
ATOM     31 O    PRO C  75      20.116   5.693   7.012  0.47 33.93 LIG-0.27  OA
BRANCH 28 32
ATOM     32  CA  PRO C  75      18.106   4.514   6.971  0.47 46.85 LIG 0.18  C 
ATOM     33  CB  PRO C  75      17.563   4.188   5.575  0.47 48.68 LIG 0.04  C 
ATOM     34  CG  PRO C  75      16.097   3.958   5.742  0.47 51.42 LIG 0.02  C 
ATOM     35  CD  PRO C  75      15.778   3.962   7.172  0.47 56.17 LIG 0.13  C 
ATOM     36  N   PRO C  75      16.896   4.696   7.757  0.47 56.81 LIG-0.34  N 
ATOM     37  C   PRO C  74      16.863   4.629   9.087  0.47 61.55 LIG 0.26  C 
ATOM     38 O    PRO C  74      17.830   4.441   9.801  0.47 61.23 LIG-0.27  OA
BRANCH 37 39
ATOM     39  CA  PRO C  74      15.509   4.799   9.737  0.47 57.58 LIG 0.35  C 
ATOM     40  N   PRO C  74      14.947   3.509  10.144  0.47 57.74 LIG 0.32  N 
ATOM     41  CD  PRO C  74      14.512   3.559  11.541  0.47 56.21 LIG 0.32  C 
ATOM     42  CG  PRO C  74      15.455   4.545  12.118  0.47 52.80 LIG 0.04  C 
ATOM     43  CB  PRO C  74      15.644   5.548  11.062  0.47 50.35 LIG 0.05  C 
ENDBRANCH 37 39
ENDBRANCH 28 32
ENDBRANCH 1 25
TORSDOF 8
ENDMDL
MODEL 55
USER: ADFR SOLUTION from run 43
USER: SCORE 11.501046 LL:  -3.925 LR:  -7.979 RR:   0.000 FEB:  -5.593
USER: RMSD 7.305346
USER: SEED 42
USER: STATUS no improvement in best in 27 clusters for 5 generations
USER: GENES 10
USER: genes 0 Translation |==|  0.59420 0.70504 0.24897
USER: genes 1 Rotation |==|  0.52666 0.46973 0.60009 0.98822
USER: genes 2 Torsion [C]-N--CA-[C] |==|  0.64742
USER: genes 3 Torsion [N]-CA--C-[N] |==|  0.92532
USER: genes 4 Torsion [N]-CA--C-[N] |==|  0.35535
USER: genes 5 Torsion [N]-CA--C-[O] |==|  0.46269
USER: genes 6 Torsion [N]-CA--CB-[CG2] |==|  0.85332
USER: genes 7 Torsion [O]-C--CA-[N] |==|  0.28508
USER: genes 8 Torsion [N]-C--CA-[N] |==|  0.53631
USER: genes 9 Torsion [N]-C--CA-[CB] |==|  0.56053
ROOT
ATOM      1  C   PRO C  76      17.626  12.772  -0.326  0.47 42.64 LIG 0.24  C 
ATOM      2 O    PRO C  76      18.363  12.014  -0.864  0.47 44.95 LIG-0.27  OA
ATOM      3  N   VAL C  77      17.995  13.545   0.664  0.47 42.25 LIG-0.35  N 
ATOM      4 H    VAL C  77      17.502  14.134   1.050  0.47 42.25 LIG 0.16  HD
ENDROOT
BRANCH 3 5
ATOM      5  CA  VAL C  77      19.331  13.419   1.166  0.47 44.36 LIG 0.17  C 
BRANCH 5 6
ATOM      6  C   VAL C  77      19.182  13.211   2.650  0.47 50.22 LIG 0.22  C 
ATOM      7 O    VAL C  77      20.068  12.680   3.262  0.47 51.68 LIG-0.28  OA
ATOM      8 N    PRO C  78      18.136  13.677   3.285  0.47 51.29 LIG-0.24  NA
ATOM      9  CD  PRO C  78      17.970  15.121   3.060  0.47 47.28 LIG 0.10  C 
ATOM     10  CA  PRO C  78      18.052  13.358   4.698  0.47 47.56 LIG 0.16  C 
ATOM     11  CG  PRO C  78      18.060  15.681   4.407  0.47 42.43 LIG 0.02  C 
ATOM     12  CB  PRO C  78      17.570  14.660   5.318  0.47 42.06 LIG 0.03  C 
BRANCH 10 13
ATOM     13  C   PRO C  78      17.143  12.164   4.835  0.47 54.03 LIG 0.24  C 
ATOM     14  N   PRO C  79      17.533  11.088   5.512  0.47 54.03 LIG-0.34  N 
ATOM     15  CD  PRO C  79      18.979  10.842   5.521  0.47 49.78 LIG 0.13  C 
ATOM     16  CA  PRO C  79      16.792   9.826   5.421  0.47 62.24 LIG 0.17  C 
ATOM     17  CG  PRO C  79      19.072   9.389   5.511  0.47 51.96 LIG 0.02  C 
ATOM     18  CB  PRO C  79      17.803   8.817   5.879  0.47 58.89 LIG 0.04  C 
ATOM     19 O    PRO C  78      16.095  12.229   4.246  0.47 60.82 LIG-0.27  OA
BRANCH 16 20
ATOM     20  C   PRO C  79      15.530   9.696   6.241  0.47 69.87 LIG 0.22  C 
ATOM     21 O    PRO C  79      14.799   8.773   5.980  0.47 73.23 LIG-0.29  OA
ENDBRANCH 16 20
ENDBRANCH 10 13
ENDBRANCH 5 6
BRANCH 5 22
ATOM     22  CB  VAL C  77      20.204  14.586   0.669  0.47 43.60 LIG 0.01  C 
ATOM     23  CG2 VAL C  77      20.061  14.639  -0.853  0.47 46.41 LIG 0.01  C 
ATOM     24  CG1 VAL C  77      21.691  14.407   1.003  0.47 37.55 LIG 0.01  C 
ENDBRANCH 5 22
ENDBRANCH 3 5
BRANCH 1 25
ATOM     25  CA  PRO C  76      16.261  12.834  -0.848  0.47 40.28 LIG 0.18  C 
ATOM     26  N   PRO C  76      15.418  12.091   0.063  0.47 33.79 LIG-0.34  N 
ATOM     27  CD  PRO C  76      14.354  12.939   0.600  0.47 35.40 LIG 0.13  C 
ATOM     28  C   PRO C  75      15.222  10.804  -0.113  0.47 33.84 LIG 0.24  C 
ATOM     29  CG  PRO C  76      14.813  14.289   0.256  0.47 37.80 LIG 0.02  C 
ATOM     30  CB  PRO C  76      15.696  14.259  -0.792  0.47 38.87 LIG 0.04  C 
ATOM     31 O    PRO C  75      15.739  10.198  -0.984  0.47 33.93 LIG-0.27  OA
BRANCH 28 32
ATOM     32  CA  PRO C  75      14.235  10.108   0.793  0.47 46.85 LIG 0.18  C 
ATOM     33  CB  PRO C  75      14.560  10.370   2.268  0.47 48.68 LIG 0.04  C 
ATOM     34  CG  PRO C  75      14.580   9.034   2.933  0.47 51.42 LIG 0.02  C 
ATOM     35  CD  PRO C  75      14.121   8.022   1.977  0.47 56.17 LIG 0.13  C 
ATOM     36  N   PRO C  75      14.352   8.662   0.685  0.47 56.81 LIG-0.34  N 
ATOM     37  C   PRO C  74      13.809   7.950  -0.301  0.47 61.55 LIG 0.26  C 
ATOM     38 O    PRO C  74      13.184   8.414  -1.235  0.47 61.23 LIG-0.27  OA
BRANCH 37 39
ATOM     39  CA  PRO C  74      13.992   6.451  -0.229  0.47 57.58 LIG 0.35  C 
ATOM     40  N   PRO C  74      12.926   5.819   0.551  0.47 57.74 LIG 0.32  N 
ATOM     41  CD  PRO C  74      12.337   4.707  -0.197  0.47 56.21 LIG 0.32  C 
ATOM     42  CG  PRO C  74      12.517   5.152  -1.597  0.47 52.80 LIG 0.04  C 
ATOM     43  CB  PRO C  74      13.822   5.827  -1.613  0.47 50.35 LIG 0.05  C 
ENDBRANCH 37 39
ENDBRANCH 28 32
ENDBRANCH 1 25
TORSDOF 8
ENDMDL
MODEL 56
USER: ADFR SOLUTION from run 20
USER: SCORE 11.729622 LL:  -3.854 LR:  -7.961 RR:   0.000 FEB:  -5.574
USER: RMSD 8.743731
USER: SEED 19
USER: STATUS no improvement in best in 19 clusters for 5 generations
USER: GENES 10
USER: genes 0 Translation |==|  0.62143 0.34859 0.68266
USER: genes 1 Rotation |==|  0.06042 0.59043 0.67955 0.62789
USER: genes 2 Torsion [C]-N--CA-[C] |==|  0.75053
USER: genes 3 Torsion [N]-CA--C-[N] |==|  0.38714
USER: genes 4 Torsion [N]-CA--C-[N] |==|  0.54409
USER: genes 5 Torsion [N]-CA--C-[O] |==|  0.78591
USER: genes 6 Torsion [N]-CA--CB-[CG2] |==|  0.20462
USER: genes 7 Torsion [O]-C--CA-[N] |==|  0.53013
USER: genes 8 Torsion [N]-C--CA-[N] |==|  0.90129
USER: genes 9 Torsion [N]-C--CA-[CB] |==|  0.58775
ROOT
ATOM      1  C   PRO C  76      18.076   6.891  10.408  0.47 42.64 LIG 0.24  C 
ATOM      2 O    PRO C  76      19.071   7.384  10.824  0.47 44.95 LIG-0.27  OA
ATOM      3  N   VAL C  77      17.824   6.761   9.130  0.47 42.25 LIG-0.35  N 
ATOM      4 H    VAL C  77      17.135   6.374   8.793  0.47 42.25 LIG 0.16  HD
ENDROOT
BRANCH 3 5
ATOM      5  CA  VAL C  77      18.761   7.303   8.193  0.47 44.36 LIG 0.17  C 
BRANCH 5 6
ATOM      6  C   VAL C  77      18.308   8.719   7.948  0.47 50.22 LIG 0.22  C 
ATOM      7 O    VAL C  77      17.134   8.965   7.919  0.47 51.68 LIG-0.28  OA
ATOM      8 N    PRO C  78      19.182   9.689   7.853  0.47 51.29 LIG-0.24  NA
ATOM      9  CD  PRO C  78      20.058   9.742   9.034  0.47 47.28 LIG 0.10  C 
ATOM     10  CA  PRO C  78      18.648  11.002   7.542  0.47 47.56 LIG 0.16  C 
ATOM     11  CG  PRO C  78      19.807  11.076   9.576  0.47 42.43 LIG 0.02  C 
ATOM     12  CB  PRO C  78      19.447  11.923   8.451  0.47 42.06 LIG 0.03  C 
BRANCH 10 13
ATOM     13  C   PRO C  78      18.804  11.211   6.058  0.47 54.03 LIG 0.24  C 
ATOM     14  N   PRO C  79      18.697  12.426   5.529  0.47 54.03 LIG-0.34  N 
ATOM     15  CD  PRO C  79      17.820  13.352   6.254  0.47 49.78 LIG 0.13  C 
ATOM     16  CA  PRO C  79      18.565  12.613   4.081  0.47 62.24 LIG 0.17  C 
ATOM     17  CG  PRO C  79      17.221  14.147   5.192  0.47 51.96 LIG 0.02  C 
ATOM     18  CB  PRO C  79      17.979  13.989   3.978  0.47 58.89 LIG 0.04  C 
ATOM     19 O    PRO C  78      18.961  10.215   5.400  0.47 60.82 LIG-0.27  OA
BRANCH 16 20
ATOM     20  C   PRO C  79      19.822  12.527   3.248  0.47 69.87 LIG 0.22  C 
ATOM     21 O    PRO C  79      20.556  13.483   3.262  0.47 73.23 LIG-0.29  OA
ENDBRANCH 16 20
ENDBRANCH 10 13
ENDBRANCH 5 6
BRANCH 5 22
ATOM     22  CB  VAL C  77      18.919   6.361   6.985  0.47 43.60 LIG 0.01  C 
ATOM     23  CG2 VAL C  77      17.650   6.494   6.141  0.47 46.41 LIG 0.01  C 
ATOM     24  CG1 VAL C  77      19.072   4.889   7.387  0.47 37.55 LIG 0.01  C 
ENDBRANCH 5 22
ENDBRANCH 3 5
BRANCH 1 25
ATOM     25  CA  PRO C  76      17.130   6.390  11.406  0.47 40.28 LIG 0.18  C 
ATOM     26  N   PRO C  76      16.134   5.612  10.703  0.47 33.79 LIG-0.34  N 
ATOM     27  CD  PRO C  76      16.095   4.238  11.205  0.47 35.40 LIG 0.13  C 
ATOM     28  C   PRO C  75      15.047   6.185  10.243  0.47 33.84 LIG 0.24  C 
ATOM     29  CG  PRO C  76      17.342   4.138  11.970  0.47 37.80 LIG 0.02  C 
ATOM     30  CB  PRO C  76      17.788   5.377  12.352  0.47 38.87 LIG 0.04  C 
ATOM     31 O    PRO C  75      14.849   7.345  10.347  0.47 33.93 LIG-0.27  OA
BRANCH 28 32
ATOM     32  CA  PRO C  75      13.987   5.303   9.629  0.47 46.85 LIG 0.18  C 
ATOM     33  CB  PRO C  75      13.152   4.608  10.711  0.47 48.68 LIG 0.04  C 
ATOM     34  CG  PRO C  75      13.137   3.158  10.357  0.47 51.42 LIG 0.02  C 
ATOM     35  CD  PRO C  75      13.766   2.985   9.044  0.47 56.17 LIG 0.13  C 
ATOM     36  N   PRO C  75      14.582   4.188   8.909  0.47 56.81 LIG-0.34  N 
ATOM     37  C   PRO C  74      15.081   4.287   7.679  0.47 61.55 LIG 0.26  C 
ATOM     38 O    PRO C  74      15.129   5.311   7.025  0.47 61.23 LIG-0.27  OA
BRANCH 37 39
ATOM     39  CA  PRO C  74      15.620   3.014   7.066  0.47 57.58 LIG 0.35  C 
ATOM     40  N   PRO C  74      14.635   2.390   6.180  0.47 57.74 LIG 0.32  N 
ATOM     41  CD  PRO C  74      15.238   2.088   4.880  0.47 56.21 LIG 0.32  C 
ATOM     42  CG  PRO C  74      16.258   3.154   4.762  0.47 52.80 LIG 0.04  C 
ATOM     43  CB  PRO C  74      16.781   3.326   6.124  0.47 50.35 LIG 0.05  C 
ENDBRANCH 37 39
ENDBRANCH 28 32
ENDBRANCH 1 25
TORSDOF 8
ENDMDL
MODEL 57
USER: ADFR SOLUTION from run 141
USER: SCORE 11.913209 LL:  -4.302 LR:  -7.940 RR:   0.000 FEB:  -5.553
USER: RMSD 9.806392
USER: SEED 140
USER: STATUS no improvement in best in 27 clusters for 5 generations
USER: GENES 10
USER: genes 0 Translation |==|  0.58583 0.47038 0.49430
USER: genes 1 Rotation |==|  0.57673 0.89330 0.79750 0.53033
USER: genes 2 Torsion [C]-N--CA-[C] |==|  0.66667
USER: genes 3 Torsion [N]-CA--C-[N] |==|  0.93093
USER: genes 4 Torsion [N]-CA--C-[N] |==|  0.36336
USER: genes 5 Torsion [N]-CA--C-[O] |==|  0.11755
USER: genes 6 Torsion [N]-CA--CB-[CG2] |==|  0.35777
USER: genes 7 Torsion [O]-C--CA-[N] |==|  0.55898
USER: genes 8 Torsion [N]-C--CA-[N] |==|  0.93543
USER: genes 9 Torsion [N]-C--CA-[CB] |==|  0.84522
ROOT
ATOM      1  C   PRO C  76      17.488   8.900   5.746  0.47 42.64 LIG 0.24  C 
ATOM      2 O    PRO C  76      16.884   8.281   4.934  0.47 44.95 LIG-0.27  OA
ATOM      3  N   VAL C  77      17.100  10.071   6.184  0.47 42.25 LIG-0.35  N 
ATOM      4 H    VAL C  77      17.489  10.529   6.799  0.47 42.25 LIG 0.16  HD
ENDROOT
BRANCH 3 5
ATOM      5  CA  VAL C  77      15.932  10.662   5.605  0.47 44.36 LIG 0.17  C 
BRANCH 5 6
ATOM      6  C   VAL C  77      16.396  11.965   5.009  0.47 50.22 LIG 0.22  C 
ATOM      7 O    VAL C  77      15.737  12.490   4.154  0.47 51.68 LIG-0.28  OA
ATOM      8 N    PRO C  78      17.462  12.566   5.473  0.47 51.29 LIG-0.24  NA
ATOM      9  CD  PRO C  78      17.361  12.797   6.923  0.47 47.28 LIG 0.10  C 
ATOM     10  CA  PRO C  78      17.867  13.775   4.781  0.47 47.56 LIG 0.16  C 
ATOM     11  CG  PRO C  78      17.452  14.252   7.036  0.47 42.43 LIG 0.02  C 
ATOM     12  CB  PRO C  78      18.258  14.709   5.916  0.47 42.06 LIG 0.03  C 
BRANCH 10 13
ATOM     13  C   PRO C  78      18.956  13.394   3.811  0.47 54.03 LIG 0.24  C 
ATOM     14  N   PRO C  79      18.900  13.784   2.541  0.47 54.03 LIG-0.34  N 
ATOM     15  CD  PRO C  79      17.549  13.977   2.002  0.47 49.78 LIG 0.13  C 
ATOM     16  CA  PRO C  79      19.785  13.199   1.529  0.47 62.24 LIG 0.17  C 
ATOM     17  CG  PRO C  79      17.681  13.558   0.613  0.47 51.96 LIG 0.02  C 
ATOM     18  CB  PRO C  79      19.073  13.513   0.247  0.47 58.89 LIG 0.04  C 
ATOM     19 O    PRO C  78      19.818  12.674   4.243  0.47 60.82 LIG-0.27  OA
BRANCH 16 20
ATOM     20  C   PRO C  79      21.205  13.709   1.464  0.47 69.87 LIG 0.22  C 
ATOM     21 O    PRO C  79      21.775  13.883   2.512  0.47 73.23 LIG-0.29  OA
ENDBRANCH 16 20
ENDBRANCH 10 13
ENDBRANCH 5 6
BRANCH 5 22
ATOM     22  CB  VAL C  77      14.780  10.688   6.626  0.47 43.60 LIG 0.01  C 
ATOM     23  CG2 VAL C  77      14.242  12.120   6.662  0.47 46.41 LIG 0.01  C 
ATOM     24  CG1 VAL C  77      15.227  10.312   8.045  0.47 37.55 LIG 0.01  C 
ENDBRANCH 5 22
ENDBRANCH 3 5
BRANCH 1 25
ATOM     25  CA  PRO C  76      18.698   8.272   6.276  0.47 40.28 LIG 0.18  C 
ATOM     26  N   PRO C  76      18.987   8.899   7.547  0.47 33.79 LIG-0.34  N 
ATOM     27  CD  PRO C  76      19.013   7.908   8.624  0.47 35.40 LIG 0.13  C 
ATOM     28  C   PRO C  75      19.749   9.966   7.603  0.47 33.84 LIG 0.24  C 
ATOM     29  CG  PRO C  76      18.377   6.741   8.005  0.47 37.80 LIG 0.02  C 
ATOM     30  CB  PRO C  76      18.461   6.800   6.638  0.47 38.87 LIG 0.04  C 
ATOM     31 O    PRO C  75      20.198  10.476   6.637  0.47 33.93 LIG-0.27  OA
BRANCH 28 32
ATOM     32  CA  PRO C  75      20.117  10.502   8.965  0.47 46.85 LIG 0.18  C 
ATOM     33  CB  PRO C  75      21.427   9.883   9.468  0.47 48.68 LIG 0.04  C 
ATOM     34  CG  PRO C  75      21.149   9.387  10.849  0.47 51.42 LIG 0.02  C 
ATOM     35  CD  PRO C  75      19.810   9.829  11.250  0.47 56.17 LIG 0.13  C 
ATOM     36  N   PRO C  75      19.153  10.088   9.973  0.47 56.81 LIG-0.34  N 
ATOM     37  C   PRO C  74      17.977  10.686  10.157  0.47 61.55 LIG 0.26  C 
ATOM     38 O    PRO C  74      17.556  11.617   9.498  0.47 61.23 LIG-0.27  OA
BRANCH 37 39
ATOM     39  CA  PRO C  74      17.118  10.151  11.281  0.47 57.58 LIG 0.35  C 
ATOM     40  N   PRO C  74      15.766  10.710  11.231  0.47 57.74 LIG 0.32  N 
ATOM     41  CD  PRO C  74      14.768   9.640  11.300  0.47 56.21 LIG 0.32  C 
ATOM     42  CG  PRO C  74      15.485   8.515  10.657  0.47 52.80 LIG 0.04  C 
ATOM     43  CB  PRO C  74      16.878   8.653  11.101  0.47 50.35 LIG 0.05  C 
ENDBRANCH 37 39
ENDBRANCH 28 32
ENDBRANCH 1 25
TORSDOF 8
ENDMDL
MODEL 58
USER: ADFR SOLUTION from run 21
USER: SCORE 11.386766 LL:  -3.530 LR:  -7.896 RR:   0.000 FEB:  -5.510
USER: RMSD 10.218014
USER: SEED 20
USER: STATUS no improvement in best in 26 clusters for 5 generations
USER: GENES 10
USER: genes 0 Translation |==|  0.57929 0.43187 0.51493
USER: genes 1 Rotation |==|  0.81920 0.31853 0.32611 0.79145
USER: genes 2 Torsion [C]-N--CA-[C] |==|  0.80571
USER: genes 3 Torsion [N]-CA--C-[N] |==|  0.91150
USER: genes 4 Torsion [N]-CA--C-[N] |==|  0.46464
USER: genes 5 Torsion [N]-CA--C-[O] |==|  0.23866
USER: genes 6 Torsion [N]-CA--CB-[CG2] |==|  0.74746
USER: genes 7 Torsion [O]-C--CA-[N] |==|  0.79280
USER: genes 8 Torsion [N]-C--CA-[N] |==|  0.55372
USER: genes 9 Torsion [N]-C--CA-[CB] |==|  0.84450
ROOT
ATOM      1  C   PRO C  76      17.380   8.265   6.256  0.47 42.64 LIG 0.24  C 
ATOM      2 O    PRO C  76      18.029   8.306   5.264  0.47 44.95 LIG-0.27  OA
ATOM      3  N   VAL C  77      16.995   7.144   6.811  0.47 42.25 LIG-0.35  N 
ATOM      4 H    VAL C  77      16.560   7.074   7.549  0.47 42.25 LIG 0.16  HD
ENDROOT
BRANCH 3 5
ATOM      5  CA  VAL C  77      17.312   5.913   6.151  0.47 44.36 LIG 0.17  C 
BRANCH 5 6
ATOM      6  C   VAL C  77      16.450   5.888   4.916  0.47 50.22 LIG 0.22  C 
ATOM      7 O    VAL C  77      16.822   5.279   3.950  0.47 51.68 LIG-0.28  OA
ATOM      8 N    PRO C  78      15.268   6.451   4.919  0.47 51.29 LIG-0.24  NA
ATOM      9  CD  PRO C  78      14.428   5.933   6.010  0.47 47.28 LIG 0.10  C 
ATOM     10  CA  PRO C  78      14.551   6.437   3.658  0.47 47.56 LIG 0.16  C 
ATOM     11  CG  PRO C  78      13.285   5.356   5.305  0.47 42.43 LIG 0.02  C 
ATOM     12  CB  PRO C  78      13.124   6.115   4.076  0.47 42.06 LIG 0.03  C 
BRANCH 10 13
ATOM     13  C   PRO C  78      14.778   7.771   2.996  0.47 54.03 LIG 0.24  C 
ATOM     14  N   PRO C  79      14.455   7.960   1.720  0.47 54.03 LIG-0.34  N 
ATOM     15  CD  PRO C  79      14.518   6.765   0.873  0.47 49.78 LIG 0.13  C 
ATOM     16  CA  PRO C  79      14.920   9.142   0.988  0.47 62.24 LIG 0.17  C 
ATOM     17  CG  PRO C  79      14.963   7.288  -0.411  0.47 51.96 LIG 0.02  C 
ATOM     18  CB  PRO C  79      14.784   8.717  -0.444  0.47 58.89 LIG 0.04  C 
ATOM     19 O    PRO C  78      15.322   8.607   3.670  0.47 60.82 LIG-0.27  OA
BRANCH 16 20
ATOM     20  C   PRO C  79      14.178  10.439   1.210  0.47 69.87 LIG 0.22  C 
ATOM     21 O    PRO C  79      14.523  11.115   2.146  0.47 73.23 LIG-0.29  OA
ENDBRANCH 16 20
ENDBRANCH 10 13
ENDBRANCH 5 6
BRANCH 5 22
ATOM     22  CB  VAL C  77      17.220   4.734   7.138  0.47 43.60 LIG 0.01  C 
ATOM     23  CG2 VAL C  77      18.608   4.554   7.754  0.47 46.41 LIG 0.01  C 
ATOM     24  CG1 VAL C  77      16.823   3.416   6.463  0.47 37.55 LIG 0.01  C 
ENDBRANCH 5 22
ENDBRANCH 3 5
BRANCH 1 25
ATOM     25  CA  PRO C  76      17.046   9.551   6.869  0.47 40.28 LIG 0.18  C 
ATOM     26  N   PRO C  76      18.245  10.046   7.510  0.47 33.79 LIG-0.34  N 
ATOM     27  CD  PRO C  76      18.623  11.354   6.971  0.47 35.40 LIG 0.13  C 
ATOM     28  C   PRO C  75      18.507   9.737   8.759  0.47 33.84 LIG 0.24  C 
ATOM     29  CG  PRO C  76      17.818  11.444   5.749  0.47 37.80 LIG 0.02  C 
ATOM     30  CB  PRO C  76      16.726  10.616   5.814  0.47 38.87 LIG 0.04  C 
ATOM     31 O    PRO C  75      17.810   9.028   9.395  0.47 33.93 LIG-0.27  OA
BRANCH 28 32
ATOM     32  CA  PRO C  75      19.705  10.383   9.411  0.47 46.85 LIG 0.18  C 
ATOM     33  CB  PRO C  75      20.935  10.318   8.497  0.47 48.68 LIG 0.04  C 
ATOM     34  CG  PRO C  75      22.043   9.764   9.330  0.47 51.42 LIG 0.02  C 
ATOM     35  CD  PRO C  75      21.585   9.660  10.719  0.47 56.17 LIG 0.13  C 
ATOM     36  N   PRO C  75      20.132   9.637  10.585  0.47 56.81 LIG-0.34  N 
ATOM     37  C   PRO C  74      19.544   9.737  11.776  0.47 61.55 LIG 0.26  C 
ATOM     38 O    PRO C  74      18.575  10.430  12.020  0.47 61.23 LIG-0.27  OA
BRANCH 37 39
ATOM     39  CA  PRO C  74      20.149   8.920  12.896  0.47 57.58 LIG 0.35  C 
ATOM     40  N   PRO C  74      19.288   8.921  14.081  0.47 57.74 LIG 0.32  N 
ATOM     41  CD  PRO C  74      19.063   7.552  14.549  0.47 56.21 LIG 0.32  C 
ATOM     42  CG  PRO C  74      19.145   6.782  13.287  0.47 52.80 LIG 0.04  C 
ATOM     43  CB  PRO C  74      20.201   7.443  12.510  0.47 50.35 LIG 0.05  C 
ENDBRANCH 37 39
ENDBRANCH 28 32
ENDBRANCH 1 25
TORSDOF 8
ENDMDL
MODEL 59
USER: ADFR SOLUTION from run 171
USER: SCORE 11.033674 LL:  -4.070 LR:  -7.870 RR:   0.000 FEB:  -5.484
USER: RMSD 8.518623
USER: SEED 170
USER: STATUS no improvement in best in 11 clusters for 5 generations
USER: GENES 10
USER: genes 0 Translation |==|  0.53790 0.16200 0.47086
USER: genes 1 Rotation |==|  0.44237 0.63159 0.83486 0.84239
USER: genes 2 Torsion [C]-N--CA-[C] |==|  0.73333
USER: genes 3 Torsion [N]-CA--C-[N] |==|  0.63170
USER: genes 4 Torsion [N]-CA--C-[N] |==|  0.28924
USER: genes 5 Torsion [N]-CA--C-[O] |==|  0.95245
USER: genes 6 Torsion [N]-CA--CB-[CG2] |==|  0.15379
USER: genes 7 Torsion [O]-C--CA-[N] |==|  0.56913
USER: genes 8 Torsion [N]-C--CA-[N] |==|  0.46419
USER: genes 9 Torsion [N]-C--CA-[CB] |==|  0.85363
ROOT
ATOM      1  C   PRO C  76      16.697   3.812   5.166  0.47 42.64 LIG 0.24  C 
ATOM      2 O    PRO C  76      17.589   3.738   4.386  0.47 44.95 LIG-0.27  OA
ATOM      3  N   VAL C  77      16.219   4.952   5.596  0.47 42.25 LIG-0.35  N 
ATOM      4 H    VAL C  77      15.549   5.045   6.127  0.47 42.25 LIG 0.16  HD
ENDROOT
BRANCH 3 5
ATOM      5  CA  VAL C  77      16.846   6.163   5.158  0.47 44.36 LIG 0.17  C 
BRANCH 5 6
ATOM      6  C   VAL C  77      17.814   6.528   6.252  0.47 50.22 LIG 0.22  C 
ATOM      7 O    VAL C  77      18.600   5.708   6.642  0.47 51.68 LIG-0.28  OA
ATOM      8 N    PRO C  78      17.861   7.751   6.717  0.47 51.29 LIG-0.24  NA
ATOM      9  CD  PRO C  78      18.079   8.729   5.640  0.47 47.28 LIG 0.10  C 
ATOM     10  CA  PRO C  78      18.775   7.981   7.820  0.47 47.56 LIG 0.16  C 
ATOM     11  CG  PRO C  78      19.335   9.372   6.022  0.47 42.43 LIG 0.02  C 
ATOM     12  CB  PRO C  78      19.406   9.320   7.473  0.47 42.06 LIG 0.03  C 
BRANCH 10 13
ATOM     13  C   PRO C  78      17.969   7.921   9.092  0.47 54.03 LIG 0.24  C 
ATOM     14  N   PRO C  79      18.026   6.854   9.883  0.47 54.03 LIG-0.34  N 
ATOM     15  CD  PRO C  79      18.317   5.586   9.206  0.47 49.78 LIG 0.13  C 
ATOM     16  CA  PRO C  79      17.052   6.656  10.960  0.47 62.24 LIG 0.17  C 
ATOM     17  CG  PRO C  79      17.542   4.615   9.966  0.47 51.96 LIG 0.02  C 
ATOM     18  CB  PRO C  79      17.153   5.184  11.230  0.47 58.89 LIG 0.04  C 
ATOM     19 O    PRO C  78      17.238   8.856   9.296  0.47 60.82 LIG-0.27  OA
BRANCH 16 20
ATOM     20  C   PRO C  79      17.260   7.427  12.242  0.47 69.87 LIG 0.22  C 
ATOM     21 O    PRO C  79      18.354   7.900  12.426  0.47 73.23 LIG-0.29  OA
ENDBRANCH 16 20
ENDBRANCH 10 13
ENDBRANCH 5 6
BRANCH 5 22
ATOM     22  CB  VAL C  77      15.785   7.196   4.738  0.47 43.60 LIG 0.01  C 
ATOM     23  CG2 VAL C  77      14.840   7.380   5.926  0.47 46.41 LIG 0.01  C 
ATOM     24  CG1 VAL C  77      14.952   6.744   3.531  0.47 37.55 LIG 0.01  C 
ENDBRANCH 5 22
ENDBRANCH 3 5
BRANCH 1 25
ATOM     25  CA  PRO C  76      16.118   2.546   5.614  0.47 40.28 LIG 0.18  C 
ATOM     26  N   PRO C  76      14.762   2.819   6.037  0.47 33.79 LIG-0.34  N 
ATOM     27  CD  PRO C  76      13.805   2.018   5.272  0.47 35.40 LIG 0.13  C 
ATOM     28  C   PRO C  75      14.508   3.154   7.280  0.47 33.84 LIG 0.24  C 
ATOM     29  CG  PRO C  76      14.614   1.537   4.147  0.47 37.80 LIG 0.02  C 
ATOM     30  CB  PRO C  76      15.950   1.556   4.454  0.47 38.87 LIG 0.04  C 
ATOM     31 O    PRO C  75      15.360   3.279   8.089  0.47 33.93 LIG-0.27  OA
BRANCH 28 32
ATOM     32  CA  PRO C  75      13.064   3.304   7.692  0.47 46.85 LIG 0.18  C 
ATOM     33  CB  PRO C  75      12.494   4.650   7.229  0.47 48.68 LIG 0.04  C 
ATOM     34  CG  PRO C  75      11.853   5.265   8.429  0.47 51.42 LIG 0.02  C 
ATOM     35  CD  PRO C  75      11.862   4.290   9.523  0.47 56.17 LIG 0.13  C 
ATOM     36  N   PRO C  75      12.934   3.376   9.140  0.47 56.81 LIG-0.34  N 
ATOM     37  C   PRO C  74      12.954   2.308   9.936  0.47 61.55 LIG 0.26  C 
ATOM     38 O    PRO C  74      13.111   1.162   9.562  0.47 61.23 LIG-0.27  OA
BRANCH 37 39
ATOM     39  CA  PRO C  74      12.760   2.565  11.413  0.47 57.58 LIG 0.35  C 
ATOM     40  N   PRO C  74      13.114   1.389  12.210  0.47 57.74 LIG 0.32  N 
ATOM     41  CD  PRO C  74      14.036   1.760  13.286  0.47 56.21 LIG 0.32  C 
ATOM     42  CG  PRO C  74      14.761   2.902  12.685  0.47 52.80 LIG 0.04  C 
ATOM     43  CB  PRO C  74      13.748   3.623  11.904  0.47 50.35 LIG 0.05  C 
ENDBRANCH 37 39
ENDBRANCH 28 32
ENDBRANCH 1 25
TORSDOF 8
ENDMDL
MODEL 60
USER: ADFR SOLUTION from run 153
USER: SCORE 11.571650 LL:  -3.780 LR:  -7.847 RR:   0.000 FEB:  -5.460
USER: RMSD 9.689862
USER: SEED 152
USER: STATUS no improvement in best in 15 clusters for 5 generations
USER: GENES 10
USER: genes 0 Translation |==|  0.58699 0.43431 0.51050
USER: genes 1 Rotation |==|  0.81204 0.30921 0.32323 0.79152
USER: genes 2 Torsion [C]-N--CA-[C] |==|  0.80265
USER: genes 3 Torsion [N]-CA--C-[N] |==|  0.90599
USER: genes 4 Torsion [N]-CA--C-[N] |==|  0.46302
USER: genes 5 Torsion [N]-CA--C-[O] |==|  0.24379
USER: genes 6 Torsion [N]-CA--CB-[CG2] |==|  0.75260
USER: genes 7 Torsion [O]-C--CA-[N] |==|  0.82659
USER: genes 8 Torsion [N]-C--CA-[N] |==|  0.35159
USER: genes 9 Torsion [N]-C--CA-[CB] |==|  0.80975
ROOT
ATOM      1  C   PRO C  76      17.507   8.305   6.147  0.47 42.64 LIG 0.24  C 
ATOM      2 O    PRO C  76      18.161   8.294   5.157  0.47 44.95 LIG-0.27  OA
ATOM      3  N   VAL C  77      17.074   7.215   6.728  0.47 42.25 LIG-0.35  N 
ATOM      4 H    VAL C  77      16.635   7.182   7.466  0.47 42.25 LIG 0.16  HD
ENDROOT
BRANCH 3 5
ATOM      5  CA  VAL C  77      17.344   5.956   6.101  0.47 44.36 LIG 0.17  C 
BRANCH 5 6
ATOM      6  C   VAL C  77      16.465   5.923   4.878  0.47 50.22 LIG 0.22  C 
ATOM      7 O    VAL C  77      16.822   5.303   3.914  0.47 51.68 LIG-0.28  OA
ATOM      8 N    PRO C  78      15.286   6.491   4.891  0.47 51.29 LIG-0.24  NA
ATOM      9  CD  PRO C  78      14.458   5.987   5.998  0.47 47.28 LIG 0.10  C 
ATOM     10  CA  PRO C  78      14.552   6.467   3.640  0.47 47.56 LIG 0.16  C 
ATOM     11  CG  PRO C  78      13.303   5.407   5.314  0.47 42.43 LIG 0.02  C 
ATOM     12  CB  PRO C  78      13.130   6.155   4.080  0.47 42.06 LIG 0.03  C 
BRANCH 10 13
ATOM     13  C   PRO C  78      14.776   7.794   2.962  0.47 54.03 LIG 0.24  C 
ATOM     14  N   PRO C  79      14.447   7.969   1.686  0.47 54.03 LIG-0.34  N 
ATOM     15  CD  PRO C  79      14.508   6.764   0.851  0.47 49.78 LIG 0.13  C 
ATOM     16  CA  PRO C  79      14.908   9.142   0.938  0.47 62.24 LIG 0.17  C 
ATOM     17  CG  PRO C  79      14.947   7.273  -0.440  0.47 51.96 LIG 0.02  C 
ATOM     18  CB  PRO C  79      14.767   8.701  -0.488  0.47 58.89 LIG 0.04  C 
ATOM     19 O    PRO C  78      15.322   8.638   3.625  0.47 60.82 LIG-0.27  OA
BRANCH 16 20
ATOM     20  C   PRO C  79      14.167  10.441   1.148  0.47 69.87 LIG 0.22  C 
ATOM     21 O    PRO C  79      14.537  11.144   2.055  0.47 73.23 LIG-0.29  OA
ENDBRANCH 16 20
ENDBRANCH 10 13
ENDBRANCH 5 6
BRANCH 5 22
ATOM     22  CB  VAL C  77      17.227   4.810   7.124  0.47 43.60 LIG 0.01  C 
ATOM     23  CG2 VAL C  77      18.605   4.634   7.762  0.47 46.41 LIG 0.01  C 
ATOM     24  CG1 VAL C  77      16.822   3.475   6.486  0.47 37.55 LIG 0.01  C 
ENDBRANCH 5 22
ENDBRANCH 3 5
BRANCH 1 25
ATOM     25  CA  PRO C  76      17.224   9.619   6.725  0.47 40.28 LIG 0.18  C 
ATOM     26  N   PRO C  76      18.492  10.206   7.099  0.47 33.79 LIG-0.34  N 
ATOM     27  CD  PRO C  76      18.697  11.484   6.416  0.47 35.40 LIG 0.13  C 
ATOM     28  C   PRO C  75      18.992  10.001   8.296  0.47 33.84 LIG 0.24  C 
ATOM     29  CG  PRO C  76      17.680  11.452   5.360  0.47 37.80 LIG 0.02  C 
ATOM     30  CB  PRO C  76      16.663  10.590   5.679  0.47 38.87 LIG 0.04  C 
ATOM     31 O    PRO C  75      18.460   9.314   9.095  0.47 33.93 LIG-0.27  OA
BRANCH 28 32
ATOM     32  CA  PRO C  75      20.253  10.740   8.672  0.47 46.85 LIG 0.18  C 
ATOM     33  CB  PRO C  75      21.391   9.764   8.994  0.47 48.68 LIG 0.04  C 
ATOM     34  CG  PRO C  75      21.946  10.192  10.312  0.47 51.42 LIG 0.02  C 
ATOM     35  CD  PRO C  75      21.319  11.458  10.701  0.47 56.17 LIG 0.13  C 
ATOM     36  N   PRO C  75      20.085  11.467   9.921  0.47 56.81 LIG-0.34  N 
ATOM     37  C   PRO C  74      19.476  12.648  10.010  0.47 61.55 LIG 0.26  C 
ATOM     38 O    PRO C  74      18.966  13.243   9.080  0.47 61.23 LIG-0.27  OA
BRANCH 37 39
ATOM     39  CA  PRO C  74      19.431  13.281  11.383  0.47 57.58 LIG 0.35  C 
ATOM     40  N   PRO C  74      18.786  14.595  11.344  0.47 57.74 LIG 0.32  N 
ATOM     41  CD  PRO C  74      17.742  14.682  12.367  0.47 56.21 LIG 0.32  C 
ATOM     42  CG  PRO C  74      17.295  13.274  12.465  0.47 52.80 LIG 0.04  C 
ATOM     43  CB  PRO C  74      18.519  12.478  12.310  0.47 50.35 LIG 0.05  C 
ENDBRANCH 37 39
ENDBRANCH 28 32
ENDBRANCH 1 25
TORSDOF 8
ENDMDL
MODEL 61
USER: ADFR SOLUTION from run 58
USER: SCORE 11.400823 LL:  -3.665 LR:  -7.836 RR:   0.000 FEB:  -5.449
USER: RMSD 4.605791
USER: SEED 57
USER: STATUS no improvement in best in 23 clusters for 5 generations
USER: GENES 10
USER: genes 0 Translation |==|  0.38652 0.49067 0.36495
USER: genes 1 Rotation |==|  0.72861 0.38877 0.83972 0.76448
USER: genes 2 Torsion [C]-N--CA-[C] |==|  0.76100
USER: genes 3 Torsion [N]-CA--C-[N] |==|  0.47004
USER: genes 4 Torsion [N]-CA--C-[N] |==|  0.32635
USER: genes 5 Torsion [N]-CA--C-[O] |==|  0.30202
USER: genes 6 Torsion [N]-CA--CB-[CG2] |==|  0.23643
USER: genes 7 Torsion [O]-C--CA-[N] |==|  0.92466
USER: genes 8 Torsion [N]-C--CA-[N] |==|  0.92154
USER: genes 9 Torsion [N]-C--CA-[CB] |==|  0.76733
ROOT
ATOM      1  C   PRO C  76      14.200   9.235   2.545  0.47 42.64 LIG 0.24  C 
ATOM      2 O    PRO C  76      14.947  10.141   2.376  0.47 44.95 LIG-0.27  OA
ATOM      3  N   VAL C  77      13.918   8.753   3.729  0.47 42.25 LIG-0.35  N 
ATOM      4 H    VAL C  77      13.353   8.127   3.892  0.47 42.25 LIG 0.16  HD
ENDROOT
BRANCH 3 5
ATOM      5  CA  VAL C  77      14.597   9.299   4.865  0.47 44.36 LIG 0.17  C 
BRANCH 5 6
ATOM      6  C   VAL C  77      15.886   8.526   4.970  0.47 50.22 LIG 0.22  C 
ATOM      7 O    VAL C  77      16.070   7.588   4.244  0.47 51.68 LIG-0.28  OA
ATOM      8 N    PRO C  78      16.833   8.921   5.782  0.47 51.29 LIG-0.24  NA
ATOM      9  CD  PRO C  78      17.218  10.317   5.522  0.47 47.28 LIG 0.10  C 
ATOM     10  CA  PRO C  78      18.003   8.066   5.863  0.47 47.56 LIG 0.16  C 
ATOM     11  CG  PRO C  78      18.635  10.215   5.179  0.47 42.43 LIG 0.02  C 
ATOM     12  CB  PRO C  78      19.155   9.059   5.890  0.47 42.06 LIG 0.03  C 
BRANCH 10 13
ATOM     13  C   PRO C  78      17.835   7.189   7.077  0.47 54.03 LIG 0.24  C 
ATOM     14  N   PRO C  79      17.753   5.868   6.954  0.47 54.03 LIG-0.34  N 
ATOM     15  CD  PRO C  79      17.185   5.389   5.689  0.47 49.78 LIG 0.13  C 
ATOM     16  CA  PRO C  79      17.313   5.029   8.072  0.47 62.24 LIG 0.17  C 
ATOM     17  CG  PRO C  79      16.455   4.192   6.082  0.47 51.96 LIG 0.02  C 
ATOM     18  CB  PRO C  79      16.887   3.764   7.387  0.47 58.89 LIG 0.04  C 
ATOM     19 O    PRO C  78      17.715   7.763   8.129  0.47 60.82 LIG-0.27  OA
BRANCH 16 20
ATOM     20  C   PRO C  79      18.323   4.712   9.149  0.47 69.87 LIG 0.22  C 
ATOM     21 O    PRO C  79      18.168   5.243  10.221  0.47 73.23 LIG-0.29  OA
ENDBRANCH 16 20
ENDBRANCH 10 13
ENDBRANCH 5 6
BRANCH 5 22
ATOM     22  CB  VAL C  77      13.658   9.335   6.086  0.47 43.60 LIG 0.01  C 
ATOM     23  CG2 VAL C  77      13.733   7.960   6.752  0.47 46.41 LIG 0.01  C 
ATOM     24  CG1 VAL C  77      12.195   9.604   5.710  0.47 37.55 LIG 0.01  C 
ENDBRANCH 5 22
ENDBRANCH 3 5
BRANCH 1 25
ATOM     25  CA  PRO C  76      13.564   8.685   1.347  0.47 40.28 LIG 0.18  C 
ATOM     26  N   PRO C  76      13.499   9.747   0.368  0.47 33.79 LIG-0.34  N 
ATOM     27  CD  PRO C  76      14.205   9.371  -0.858  0.47 35.40 LIG 0.13  C 
ATOM     28  C   PRO C  75      12.457  10.544   0.320  0.47 33.84 LIG 0.24  C 
ATOM     29  CG  PRO C  76      14.989   8.207  -0.434  0.47 37.80 LIG 0.02  C 
ATOM     30  CB  PRO C  76      14.442   7.620   0.678  0.47 38.87 LIG 0.04  C 
ATOM     31 O    PRO C  75      11.557  10.457   1.080  0.47 33.93 LIG-0.27  OA
BRANCH 28 32
ATOM     32  CA  PRO C  75      12.388  11.553  -0.801  0.47 46.85 LIG 0.18  C 
ATOM     33  CB  PRO C  75      11.765  10.938  -2.060  0.47 48.68 LIG 0.04  C 
ATOM     34  CG  PRO C  75      12.697  11.255  -3.182  0.47 51.42 LIG 0.02  C 
ATOM     35  CD  PRO C  75      13.739  12.161  -2.690  0.47 56.17 LIG 0.13  C 
ATOM     36  N   PRO C  75      13.719  11.935  -1.248  0.47 56.81 LIG-0.34  N 
ATOM     37  C   PRO C  74      14.482  12.825  -0.617  0.47 61.55 LIG 0.26  C 
ATOM     38 O    PRO C  74      14.179  13.399   0.411  0.47 61.23 LIG-0.27  OA
BRANCH 37 39
ATOM     39  CA  PRO C  74      15.820  13.134  -1.250  0.47 57.58 LIG 0.35  C 
ATOM     40  N   PRO C  74      16.379  14.385  -0.732  0.47 57.74 LIG 0.32  N 
ATOM     41  CD  PRO C  74      17.760  14.182  -0.289  0.47 56.21 LIG 0.32  C 
ATOM     42  CG  PRO C  74      17.738  12.764   0.135  0.47 52.80 LIG 0.04  C 
ATOM     43  CB  PRO C  74      16.859  12.095  -0.832  0.47 50.35 LIG 0.05  C 
ENDBRANCH 37 39
ENDBRANCH 28 32
ENDBRANCH 1 25
TORSDOF 8
ENDMDL
