MODEL 1
USER: ADFR SOLUTION from run 103
USER: SCORE 15.641851 LL:  -3.880 LR: -12.163 RR:   0.000 FEB:  -8.584
USER: RMSD 2.074527
USER: SEED 102
USER: STATUS no improvement in best in 11 clusters for 5 generations
USER: GENES 14
USER: genes 0 Translation |==|  0.48015 0.43046 0.49987
USER: genes 1 Rotation |==|  0.44938 0.52937 0.53710 0.99518
USER: genes 2 Torsion [N]-CA--C-[O] |==|  0.55334
USER: genes 3 Torsion [C]-N--CA-[CB] |==|  0.30356
USER: genes 4 Torsion [N]-CA--CB-[CG] |==|  0.03548
USER: genes 5 Torsion [CA]-CB--CG-[CD2] |==|  0.28768
USER: genes 6 Torsion [N]-CA--C-[O] |==|  0.55260
USER: genes 7 Torsion [N]-C--CA-[N] |==|  0.30629
USER: genes 8 Torsion [C]-CA--N-[C] |==|  0.83244
USER: genes 9 Torsion [N]-C--CA-[N] |==|  0.13500
USER: genes 10 Torsion [C]-CA--CB-[CG] |==|  0.84961
USER: genes 11 Torsion [CA]-CB--CG-[OD2] |==|  0.84064
USER: genes 12 Torsion [C]-CA--CB-[CG1] |==|  0.60139
USER: genes 13 Torsion [CA]-CB--CG1-[CD1] |==|  0.51535
ROOT
ATOM      1  C   ILE B 176      -0.738 -31.494  14.037  1.00 22.90 LIG 0.24  C 
ATOM      2 O    ILE B 176       0.375 -31.108  14.438  1.00 27.22 LIG-0.27  OA
ATOM      3  N   PRO B 177      -1.704 -31.883  14.884  1.00 22.83 LIG-0.34  N 
ATOM      4  CA  PRO B 177      -1.565 -31.766  16.347  1.00 24.67 LIG 0.18  C 
ATOM      5  CB  PRO B 177      -3.019 -31.723  16.827  1.00 26.20 LIG 0.04  C 
ATOM      6  CG  PRO B 177      -3.712 -32.618  15.844  1.00 24.14 LIG 0.02  C 
ATOM      7  CD  PRO B 177      -3.065 -32.328  14.508  1.00 21.80 LIG 0.13  C 
ENDROOT
BRANCH 4 8
ATOM      8  C   PRO B 177      -0.827 -32.941  16.993  1.00 25.32 LIG 0.24  C 
ATOM      9 O    PRO B 177      -0.947 -33.152  18.200  1.00 32.00 LIG-0.27  OA
ATOM     10  N   PHE B 178      -0.055 -33.678  16.207  1.00 24.88 LIG-0.34  N 
ATOM     11 H    PHE B 178       0.005 -33.561  15.358  1.00 24.88 LIG 0.16  HD
BRANCH 10 12
ATOM     12  CA  PHE B 178       0.774 -34.770  16.713  1.00 25.09 LIG 0.19  C 
BRANCH 12 13
ATOM     13  CB  PHE B 178       0.243 -36.158  16.288  1.00 24.80 LIG 0.07  C 
BRANCH 13 14
ATOM     14  CG  PHE B 178      -0.821 -36.111  15.203  1.00 21.99 LIG-0.06  A 
ATOM     15  CD2 PHE B 178      -0.539 -36.433  13.862  1.00 23.17 LIG 0.01  A 
ATOM     16  CE2 PHE B 178      -1.543 -36.382  12.877  1.00 21.52 LIG 0.00  A 
ATOM     17  CZ  PHE B 178      -2.814 -36.034  13.251  1.00 22.39 LIG 0.00  A 
ATOM     18  CE1 PHE B 178      -3.126 -35.735  14.564  1.00 21.58 LIG 0.00  A 
ATOM     19  CD1 PHE B 178      -2.134 -35.790  15.539  1.00 21.72 LIG 0.01  A 
ENDBRANCH 13 14
ENDBRANCH 12 13
BRANCH 12 20
ATOM     20  C   PHE B 178       2.216 -34.542  16.293  1.00 24.87 LIG 0.20  C 
ATOM     21 OXT  PHE B 178       2.551 -33.414  15.914  1.00 27.82 LIG-0.65  OA
ATOM     22 O    PHE B 178       3.038 -35.458  16.289  1.00 30.25 LIG-0.65  OA
ENDBRANCH 12 20
ENDBRANCH 10 12
ENDBRANCH 4 8
BRANCH 1 23
ATOM     23  CA  ILE B 176      -1.031 -31.533  12.538  1.00 23.71 LIG 0.18  C 
BRANCH 23 24
ATOM     24  N   ILE B 176      -1.115 -30.155  12.075  1.00 24.90 LIG-0.34  N 
ATOM     25  C   ASP B 175      -2.023 -29.317  12.571  1.00 27.89 LIG 0.26  C 
ATOM     26 O    ASP B 175      -2.824 -29.651  13.443  1.00 29.58 LIG-0.27  OA
ATOM     27 H    ILE B 176      -0.539 -29.943  11.471  1.00 24.90 LIG 0.16  HD
BRANCH 25 28
ATOM     28  CA  ASP B 175      -2.051 -27.894  11.998  1.00 34.92 LIG 0.41  C 
ATOM     29  N   ASP B 175      -2.045 -27.853  10.502  1.00 43.46 LIG 0.61  N 
BRANCH 28 30
ATOM     30  CB  ASP B 175      -3.269 -27.124  12.539  1.00 38.90 LIG 0.16  C 
BRANCH 30 31
ATOM     31  CG  ASP B 175      -4.597 -27.857  12.301  1.00 38.28 LIG 0.17  C 
ATOM     32 OD2  ASP B 175      -4.911 -28.157  11.117  1.00 42.70 LIG-0.65  OA
ATOM     33 OD1  ASP B 175      -5.315 -28.159  13.289  1.00 44.78 LIG-0.65  OA
ENDBRANCH 30 31
ENDBRANCH 28 30
ENDBRANCH 25 28
ENDBRANCH 23 24
BRANCH 23 34
ATOM     34  CB  ILE B 176       0.035 -32.345  11.787  1.00 23.83 LIG 0.01  C 
ATOM     35  CG2 ILE B 176      -0.432 -33.775  11.627  1.00 26.43 LIG 0.01  C 
BRANCH 34 36
ATOM     36  CG1 ILE B 176       0.310 -31.697  10.420  1.00 26.50 LIG 0.00  C 
ATOM     37  CD1 ILE B 176       1.247 -32.488   9.541  1.00 30.68 LIG 0.01  C 
ENDBRANCH 34 36
ENDBRANCH 23 34
ENDBRANCH 1 23
TORSDOF 12
ENDMDL
MODEL 2
USER: ADFR SOLUTION from run 25
USER: SCORE 14.724662 LL:  -3.085 LR: -11.775 RR:   0.000 FEB:  -8.195
USER: RMSD 8.391373
USER: SEED 24
USER: STATUS no improvement in best in 11 clusters for 5 generations
USER: GENES 14
USER: genes 0 Translation |==|  0.53371 0.36568 0.43917
USER: genes 1 Rotation |==|  0.23753 0.25342 0.19088 0.65731
USER: genes 2 Torsion [N]-CA--C-[O] |==|  0.04942
USER: genes 3 Torsion [C]-N--CA-[CB] |==|  0.80596
USER: genes 4 Torsion [N]-CA--CB-[CG] |==|  0.85610
USER: genes 5 Torsion [CA]-CB--CG-[CD2] |==|  0.49225
USER: genes 6 Torsion [N]-CA--C-[O] |==|  0.16047
USER: genes 7 Torsion [N]-C--CA-[N] |==|  0.45961
USER: genes 8 Torsion [C]-CA--N-[C] |==|  0.56635
USER: genes 9 Torsion [N]-C--CA-[N] |==|  0.57638
USER: genes 10 Torsion [C]-CA--CB-[CG] |==|  0.84577
USER: genes 11 Torsion [CA]-CB--CG-[OD2] |==|  0.29778
USER: genes 12 Torsion [C]-CA--CB-[CG1] |==|  0.74309
USER: genes 13 Torsion [CA]-CB--CG1-[CD1] |==|  0.62658
ROOT
ATOM      1  C   ILE B 176       0.066 -32.855  13.035  1.00 22.90 LIG 0.24  C 
ATOM      2 O    ILE B 176       0.099 -32.203  14.095  1.00 27.22 LIG-0.27  OA
ATOM      3  N   PRO B 177       0.214 -32.270  11.836  1.00 22.83 LIG-0.34  N 
ATOM      4  CA  PRO B 177       0.547 -30.842  11.689  1.00 24.67 LIG 0.18  C 
ATOM      5  CB  PRO B 177       1.195 -30.781  10.303  1.00 26.20 LIG 0.04  C 
ATOM      6  CG  PRO B 177       0.437 -31.829   9.545  1.00 24.14 LIG 0.02  C 
ATOM      7  CD  PRO B 177       0.220 -32.960  10.526  1.00 21.80 LIG 0.13  C 
ENDROOT
BRANCH 4 8
ATOM      8  C   PRO B 177      -0.670 -29.915  11.749  1.00 25.32 LIG 0.24  C 
ATOM      9 O    PRO B 177      -1.730 -30.324  12.225  1.00 32.00 LIG-0.27  OA
ATOM     10  N   PHE B 178      -0.528 -28.695  11.252  1.00 24.88 LIG-0.34  N 
ATOM     11 H    PHE B 178       0.218 -28.390  10.953  1.00 24.88 LIG 0.16  HD
BRANCH 10 12
ATOM     12  CA  PHE B 178      -1.635 -27.744  11.164  1.00 25.09 LIG 0.19  C 
BRANCH 12 13
ATOM     13  CB  PHE B 178      -2.683 -28.159  10.106  1.00 24.80 LIG 0.07  C 
BRANCH 13 14
ATOM     14  CG  PHE B 178      -2.098 -28.461   8.736  1.00 21.99 LIG-0.06  A 
ATOM     15  CD2 PHE B 178      -2.893 -28.909   7.664  1.00 23.17 LIG 0.01  A 
ATOM     16  CE2 PHE B 178      -2.325 -29.181   6.405  1.00 21.52 LIG 0.00  A 
ATOM     17  CZ  PHE B 178      -0.982 -28.978   6.231  1.00 22.39 LIG 0.00  A 
ATOM     18  CE1 PHE B 178      -0.181 -28.517   7.258  1.00 21.58 LIG 0.00  A 
ATOM     19  CD1 PHE B 178      -0.742 -28.243   8.502  1.00 21.72 LIG 0.01  A 
ENDBRANCH 13 14
ENDBRANCH 12 13
BRANCH 12 20
ATOM     20  C   PHE B 178      -2.241 -27.551  12.543  1.00 24.87 LIG 0.20  C 
ATOM     21 OXT  PHE B 178      -3.450 -27.758  12.693  1.00 27.82 LIG-0.65  OA
ATOM     22 O    PHE B 178      -1.565 -27.160  13.494  1.00 30.25 LIG-0.65  OA
ENDBRANCH 12 20
ENDBRANCH 10 12
ENDBRANCH 4 8
BRANCH 1 23
ATOM     23  CA  ILE B 176      -0.147 -34.366  13.082  1.00 23.71 LIG 0.18  C 
BRANCH 23 24
ATOM     24  N   ILE B 176       0.069 -34.794  14.457  1.00 24.90 LIG-0.34  N 
ATOM     25  C   ASP B 175       0.418 -36.048  14.740  1.00 27.89 LIG 0.26  C 
ATOM     26 O    ASP B 175       0.586 -36.900  13.868  1.00 29.58 LIG-0.27  OA
ATOM     27 H    ILE B 176      -0.047 -34.179  15.047  1.00 24.90 LIG 0.16  HD
BRANCH 25 28
ATOM     28  CA  ASP B 175       0.594 -36.410  16.221  1.00 34.92 LIG 0.41  C 
ATOM     29  N   ASP B 175       1.561 -37.529  16.449  1.00 43.46 LIG 0.61  N 
BRANCH 28 30
ATOM     30  CB  ASP B 175       1.027 -35.170  17.025  1.00 38.90 LIG 0.16  C 
BRANCH 30 31
ATOM     31  CG  ASP B 175       2.298 -34.509  16.473  1.00 38.28 LIG 0.17  C 
ATOM     32 OD2  ASP B 175       2.185 -33.410  15.866  1.00 42.70 LIG-0.65  OA
ATOM     33 OD1  ASP B 175       3.409 -35.067  16.664  1.00 44.78 LIG-0.65  OA
ENDBRANCH 30 31
ENDBRANCH 28 30
ENDBRANCH 25 28
ENDBRANCH 23 24
BRANCH 23 34
ATOM     34  CB  ILE B 176      -1.541 -34.746  12.557  1.00 23.83 LIG 0.01  C 
ATOM     35  CG2 ILE B 176      -1.468 -36.067  11.824  1.00 26.43 LIG 0.01  C 
BRANCH 34 36
ATOM     36  CG1 ILE B 176      -2.533 -34.817  13.729  1.00 26.50 LIG 0.00  C 
ATOM     37  CD1 ILE B 176      -3.424 -36.034  13.709  1.00 30.68 LIG 0.01  C 
ENDBRANCH 34 36
ENDBRANCH 23 34
ENDBRANCH 1 23
TORSDOF 12
ENDMDL
MODEL 3
USER: ADFR SOLUTION from run 78
USER: SCORE 15.013302 LL:  -3.757 LR: -11.527 RR:   0.000 FEB:  -7.948
USER: RMSD 8.072552
USER: SEED 77
USER: STATUS no improvement in best in 19 clusters for 5 generations
USER: GENES 14
USER: genes 0 Translation |==|  0.43945 0.41890 0.54729
USER: genes 1 Rotation |==|  0.22626 0.28001 0.15270 0.57782
USER: genes 2 Torsion [N]-CA--C-[O] |==|  0.33234
USER: genes 3 Torsion [C]-N--CA-[CB] |==|  0.33292
USER: genes 4 Torsion [N]-CA--CB-[CG] |==|  0.07106
USER: genes 5 Torsion [CA]-CB--CG-[CD2] |==|  0.25247
USER: genes 6 Torsion [N]-CA--C-[O] |==|  0.19116
USER: genes 7 Torsion [N]-C--CA-[N] |==|  0.30010
USER: genes 8 Torsion [C]-CA--N-[C] |==|  0.67290
USER: genes 9 Torsion [N]-C--CA-[N] |==|  0.56157
USER: genes 10 Torsion [C]-CA--CB-[CG] |==|  0.79072
USER: genes 11 Torsion [CA]-CB--CG-[OD2] |==|  0.17729
USER: genes 12 Torsion [C]-CA--CB-[CG1] |==|  0.08278
USER: genes 13 Torsion [CA]-CB--CG1-[CD1] |==|  0.68821
ROOT
ATOM      1  C   ILE B 176      -1.348 -31.737  14.819  1.00 22.90 LIG 0.24  C 
ATOM      2 O    ILE B 176      -1.284 -31.059  15.861  1.00 27.22 LIG-0.27  OA
ATOM      3  N   PRO B 177      -0.823 -31.311  13.659  1.00 22.83 LIG-0.34  N 
ATOM      4  CA  PRO B 177      -0.030 -30.073  13.559  1.00 24.67 LIG 0.18  C 
ATOM      5  CB  PRO B 177       0.824 -30.312  12.311  1.00 26.20 LIG 0.04  C 
ATOM      6  CG  PRO B 177      -0.093 -31.119  11.441  1.00 24.14 LIG 0.02  C 
ATOM      7  CD  PRO B 177      -0.821 -32.055  12.379  1.00 21.80 LIG 0.13  C 
ENDROOT
BRANCH 4 8
ATOM      8  C   PRO B 177      -0.878 -28.809  13.390  1.00 25.32 LIG 0.24  C 
ATOM      9 O    PRO B 177      -0.815 -27.911  14.231  1.00 32.00 LIG-0.27  OA
ATOM     10  N   PHE B 178      -1.676 -28.751  12.334  1.00 24.88 LIG-0.34  N 
ATOM     11 H    PHE B 178      -1.698 -29.356  11.724  1.00 24.88 LIG 0.16  HD
BRANCH 10 12
ATOM     12  CA  PHE B 178      -2.602 -27.644  12.105  1.00 25.09 LIG 0.19  C 
BRANCH 12 13
ATOM     13  CB  PHE B 178      -2.315 -26.903  10.778  1.00 24.80 LIG 0.07  C 
BRANCH 13 14
ATOM     14  CG  PHE B 178      -1.618 -27.753   9.729  1.00 21.99 LIG-0.06  A 
ATOM     15  CD2 PHE B 178      -2.334 -28.503   8.777  1.00 23.17 LIG 0.01  A 
ATOM     16  CE2 PHE B 178      -1.663 -29.282   7.815  1.00 21.52 LIG 0.00  A 
ATOM     17  CZ  PHE B 178      -0.293 -29.279   7.805  1.00 22.39 LIG 0.00  A 
ATOM     18  CE1 PHE B 178       0.436 -28.534   8.712  1.00 21.58 LIG 0.00  A 
ATOM     19  CD1 PHE B 178      -0.227 -27.760   9.661  1.00 21.72 LIG 0.01  A 
ENDBRANCH 13 14
ENDBRANCH 12 13
BRANCH 12 20
ATOM     20  C   PHE B 178      -4.030 -28.158  12.190  1.00 24.87 LIG 0.20  C 
ATOM     21 OXT  PHE B 178      -4.721 -28.159  11.166  1.00 27.82 LIG-0.65  OA
ATOM     22 O    PHE B 178      -4.515 -28.534  13.257  1.00 30.25 LIG-0.65  OA
ENDBRANCH 12 20
ENDBRANCH 10 12
ENDBRANCH 4 8
BRANCH 1 23
ATOM     23  CA  ILE B 176      -2.039 -33.099  14.844  1.00 23.71 LIG 0.18  C 
BRANCH 23 24
ATOM     24  N   ILE B 176      -1.175 -34.013  15.577  1.00 24.90 LIG-0.34  N 
ATOM     25  C   ASP B 175      -0.654 -35.088  14.988  1.00 27.89 LIG 0.26  C 
ATOM     26 O    ASP B 175      -0.861 -35.359  13.806  1.00 29.58 LIG-0.27  OA
ATOM     27 H    ILE B 176      -1.040 -33.798  16.399  1.00 24.90 LIG 0.16  HD
BRANCH 25 28
ATOM     28  CA  ASP B 175       0.221 -36.005  15.852  1.00 34.92 LIG 0.41  C 
ATOM     29  N   ASP B 175       1.166 -36.849  15.056  1.00 43.46 LIG 0.61  N 
BRANCH 28 30
ATOM     30  CB  ASP B 175       1.002 -35.178  16.889  1.00 38.90 LIG 0.16  C 
BRANCH 30 31
ATOM     31  CG  ASP B 175       2.185 -34.412  16.279  1.00 38.28 LIG 0.17  C 
ATOM     32 OD2  ASP B 175       1.942 -33.516  15.425  1.00 42.70 LIG-0.65  OA
ATOM     33 OD1  ASP B 175       3.352 -34.682  16.664  1.00 44.78 LIG-0.65  OA
ENDBRANCH 30 31
ENDBRANCH 28 30
ENDBRANCH 25 28
ENDBRANCH 23 24
BRANCH 23 34
ATOM     34  CB  ILE B 176      -3.445 -32.995  15.456  1.00 23.83 LIG 0.01  C 
ATOM     35  CG2 ILE B 176      -3.378 -33.273  16.941  1.00 26.43 LIG 0.01  C 
BRANCH 34 36
ATOM     36  CG1 ILE B 176      -4.027 -31.599  15.180  1.00 26.50 LIG 0.00  C 
ATOM     37  CD1 ILE B 176      -4.190 -30.746  16.414  1.00 30.68 LIG 0.01  C 
ENDBRANCH 34 36
ENDBRANCH 23 34
ENDBRANCH 1 23
TORSDOF 12
ENDMDL
MODEL 4
USER: ADFR SOLUTION from run 155
USER: SCORE 15.384181 LL:  -4.044 LR: -11.510 RR:   0.000 FEB:  -7.931
USER: RMSD 2.886329
USER: SEED 154
USER: STATUS no improvement in best in 8 clusters for 5 generations
USER: GENES 14
USER: genes 0 Translation |==|  0.41987 0.40686 0.60884
USER: genes 1 Rotation |==|  0.48084 0.60143 0.62126 0.97396
USER: genes 2 Torsion [N]-CA--C-[O] |==|  0.60434
USER: genes 3 Torsion [C]-N--CA-[CB] |==|  0.25816
USER: genes 4 Torsion [N]-CA--CB-[CG] |==|  0.08249
USER: genes 5 Torsion [CA]-CB--CG-[CD2] |==|  0.28663
USER: genes 6 Torsion [N]-CA--C-[O] |==|  0.41919
USER: genes 7 Torsion [N]-C--CA-[N] |==|  0.46110
USER: genes 8 Torsion [C]-CA--N-[C] |==|  0.70887
USER: genes 9 Torsion [N]-C--CA-[N] |==|  0.14770
USER: genes 10 Torsion [C]-CA--CB-[CG] |==|  0.84133
USER: genes 11 Torsion [CA]-CB--CG-[OD2] |==|  0.27731
USER: genes 12 Torsion [C]-CA--CB-[CG1] |==|  0.67205
USER: genes 13 Torsion [CA]-CB--CG1-[CD1] |==|  0.24222
ROOT
ATOM      1  C   ILE B 176      -1.642 -31.990  15.835  1.00 22.90 LIG 0.24  C 
ATOM      2 O    ILE B 176      -0.612 -31.298  15.932  1.00 27.22 LIG-0.27  OA
ATOM      3  N   PRO B 177      -2.113 -32.713  16.864  1.00 22.83 LIG-0.34  N 
ATOM      4  CA  PRO B 177      -1.520 -32.648  18.211  1.00 24.67 LIG 0.18  C 
ATOM      5  CB  PRO B 177      -2.674 -33.092  19.116  1.00 26.20 LIG 0.04  C 
ATOM      6  CG  PRO B 177      -3.386 -34.097  18.262  1.00 24.14 LIG 0.02  C 
ATOM      7  CD  PRO B 177      -3.342 -33.539  16.857  1.00 21.80 LIG 0.13  C 
ENDROOT
BRANCH 4 8
ATOM      8  C   PRO B 177      -0.312 -33.568  18.400  1.00 25.32 LIG 0.24  C 
ATOM      9 O    PRO B 177      -0.145 -34.150  19.473  1.00 32.00 LIG-0.27  OA
ATOM     10  N   PHE B 178       0.531 -33.678  17.384  1.00 24.88 LIG-0.34  N 
ATOM     11 H    PHE B 178       0.402 -33.305  16.620  1.00 24.88 LIG 0.16  HD
BRANCH 10 12
ATOM     12  CA  PHE B 178       1.770 -34.450  17.464  1.00 25.09 LIG 0.19  C 
BRANCH 12 13
ATOM     13  CB  PHE B 178       1.587 -35.905  16.977  1.00 24.80 LIG 0.07  C 
BRANCH 13 14
ATOM     14  CG  PHE B 178       0.515 -36.076  15.914  1.00 21.99 LIG-0.06  A 
ATOM     15  CD2 PHE B 178       0.830 -36.249  14.553  1.00 23.17 LIG 0.01  A 
ATOM     16  CE2 PHE B 178      -0.184 -36.405  13.589  1.00 21.52 LIG 0.00  A 
ATOM     17  CZ  PHE B 178      -1.490 -36.411  14.001  1.00 22.39 LIG 0.00  A 
ATOM     18  CE1 PHE B 178      -1.828 -36.267  15.334  1.00 21.58 LIG 0.00  A 
ATOM     19  CD1 PHE B 178      -0.826 -36.117  16.288  1.00 21.72 LIG 0.01  A 
ENDBRANCH 13 14
ENDBRANCH 12 13
BRANCH 12 20
ATOM     20  C   PHE B 178       2.869 -33.715  16.716  1.00 24.87 LIG 0.20  C 
ATOM     21 OXT  PHE B 178       2.560 -33.023  15.740  1.00 27.82 LIG-0.65  OA
ATOM     22 O    PHE B 178       4.051 -33.825  17.039  1.00 30.25 LIG-0.65  OA
ENDBRANCH 12 20
ENDBRANCH 10 12
ENDBRANCH 4 8
BRANCH 1 23
ATOM     23  CA  ILE B 176      -2.407 -32.027  14.514  1.00 23.71 LIG 0.18  C 
BRANCH 23 24
ATOM     24  N   ILE B 176      -1.910 -30.934  13.691  1.00 24.90 LIG-0.34  N 
ATOM     25  C   ASP B 175      -2.626 -29.825  13.515  1.00 27.89 LIG 0.26  C 
ATOM     26 O    ASP B 175      -3.727 -29.659  14.039  1.00 29.58 LIG-0.27  OA
ATOM     27 H    ILE B 176      -1.135 -31.070  13.342  1.00 24.90 LIG 0.16  HD
BRANCH 25 28
ATOM     28  CA  ASP B 175      -2.029 -28.741  12.607  1.00 34.92 LIG 0.41  C 
ATOM     29  N   ASP B 175      -1.628 -29.249  11.258  1.00 43.46 LIG 0.61  N 
BRANCH 28 30
ATOM     30  CB  ASP B 175      -3.015 -27.569  12.455  1.00 38.90 LIG 0.16  C 
BRANCH 30 31
ATOM     31  CG  ASP B 175      -4.381 -28.001  11.904  1.00 38.28 LIG 0.17  C 
ATOM     32 OD2  ASP B 175      -5.332 -28.158  12.718  1.00 42.70 LIG-0.65  OA
ATOM     33 OD1  ASP B 175      -4.518 -28.159  10.664  1.00 44.78 LIG-0.65  OA
ENDBRANCH 30 31
ENDBRANCH 28 30
ENDBRANCH 25 28
ENDBRANCH 23 24
BRANCH 23 34
ATOM     34  CB  ILE B 176      -2.263 -33.395  13.829  1.00 23.83 LIG 0.01  C 
ATOM     35  CG2 ILE B 176      -3.626 -34.030  13.664  1.00 26.43 LIG 0.01  C 
BRANCH 34 36
ATOM     36  CG1 ILE B 176      -1.565 -33.222  12.470  1.00 26.50 LIG 0.00  C 
ATOM     37  CD1 ILE B 176      -0.059 -33.261  12.542  1.00 30.68 LIG 0.01  C 
ENDBRANCH 34 36
ENDBRANCH 23 34
ENDBRANCH 1 23
TORSDOF 12
ENDMDL
MODEL 5
USER: ADFR SOLUTION from run 70
USER: SCORE 14.840136 LL:  -3.627 LR: -11.264 RR:   0.000 FEB:  -7.684
USER: RMSD 5.901393
USER: SEED 69
USER: STATUS no improvement in best in 14 clusters for 5 generations
USER: GENES 14
USER: genes 0 Translation |==|  0.41181 0.43504 0.78130
USER: genes 1 Rotation |==|  0.66353 0.67714 0.68221 0.89835
USER: genes 2 Torsion [N]-CA--C-[O] |==|  0.38047
USER: genes 3 Torsion [C]-N--CA-[CB] |==|  0.41668
USER: genes 4 Torsion [N]-CA--CB-[CG] |==|  0.17891
USER: genes 5 Torsion [CA]-CB--CG-[CD2] |==|  0.30830
USER: genes 6 Torsion [N]-CA--C-[O] |==|  0.82360
USER: genes 7 Torsion [N]-C--CA-[N] |==|  0.35695
USER: genes 8 Torsion [C]-CA--N-[C] |==|  0.80470
USER: genes 9 Torsion [N]-C--CA-[N] |==|  0.39480
USER: genes 10 Torsion [C]-CA--CB-[CG] |==|  0.10835
USER: genes 11 Torsion [CA]-CB--CG-[OD2] |==|  0.69346
USER: genes 12 Torsion [C]-CA--CB-[CG1] |==|  0.35770
USER: genes 13 Torsion [CA]-CB--CG1-[CD1] |==|  0.68553
ROOT
ATOM      1  C   ILE B 176      -1.763 -31.398  18.681  1.00 22.90 LIG 0.24  C 
ATOM      2 O    ILE B 176      -0.808 -30.602  18.731  1.00 27.22 LIG-0.27  OA
ATOM      3  N   PRO B 177      -1.649 -32.672  19.089  1.00 22.83 LIG-0.34  N 
ATOM      4  CA  PRO B 177      -0.429 -33.188  19.735  1.00 24.67 LIG 0.18  C 
ATOM      5  CB  PRO B 177      -0.945 -34.387  20.537  1.00 26.20 LIG 0.04  C 
ATOM      6  CG  PRO B 177      -2.047 -34.909  19.663  1.00 24.14 LIG 0.02  C 
ATOM      7  CD  PRO B 177      -2.729 -33.684  19.097  1.00 21.80 LIG 0.13  C 
ENDROOT
BRANCH 4 8
ATOM      8  C   PRO B 177       0.652 -33.634  18.748  1.00 25.32 LIG 0.24  C 
ATOM      9 O    PRO B 177       1.831 -33.339  18.953  1.00 32.00 LIG-0.27  OA
ATOM     10  N   PHE B 178       0.257 -34.312  17.681  1.00 24.88 LIG-0.34  N 
ATOM     11 H    PHE B 178      -0.558 -34.554  17.549  1.00 24.88 LIG 0.16  HD
BRANCH 10 12
ATOM     12  CA  PHE B 178       1.174 -34.717  16.617  1.00 25.09 LIG 0.19  C 
BRANCH 12 13
ATOM     13  CB  PHE B 178       0.730 -36.026  15.926  1.00 24.80 LIG 0.07  C 
BRANCH 13 14
ATOM     14  CG  PHE B 178      -0.591 -35.922  15.183  1.00 21.99 LIG-0.06  A 
ATOM     15  CD2 PHE B 178      -0.668 -35.977  13.779  1.00 23.17 LIG 0.01  A 
ATOM     16  CE2 PHE B 178      -1.907 -35.878  13.116  1.00 21.52 LIG 0.00  A 
ATOM     17  CZ  PHE B 178      -3.046 -35.750  13.865  1.00 22.39 LIG 0.00  A 
ATOM     18  CE1 PHE B 178      -3.003 -35.717  15.247  1.00 21.58 LIG 0.00  A 
ATOM     19  CD1 PHE B 178      -1.780 -35.820  15.903  1.00 21.72 LIG 0.01  A 
ENDBRANCH 13 14
ENDBRANCH 12 13
BRANCH 12 20
ATOM     20  C   PHE B 178       1.345 -33.568  15.637  1.00 24.87 LIG 0.20  C 
ATOM     21 OXT  PHE B 178       2.455 -33.034  15.539  1.00 27.82 LIG-0.65  OA
ATOM     22 O    PHE B 178       0.399 -33.141  14.975  1.00 30.25 LIG-0.65  OA
ENDBRANCH 12 20
ENDBRANCH 10 12
ENDBRANCH 4 8
BRANCH 1 23
ATOM     23  CA  ILE B 176      -3.113 -30.929  18.143  1.00 23.71 LIG 0.18  C 
BRANCH 23 24
ATOM     24  N   ILE B 176      -3.467 -29.711  18.859  1.00 24.90 LIG-0.34  N 
ATOM     25  C   ASP B 175      -3.809 -29.744  20.146  1.00 27.89 LIG 0.26  C 
ATOM     26 O    ASP B 175      -3.833 -30.789  20.796  1.00 29.58 LIG-0.27  OA
ATOM     27 H    ILE B 176      -3.435 -28.993  18.385  1.00 24.90 LIG 0.16  HD
BRANCH 25 28
ATOM     28  CA  ASP B 175      -4.193 -28.412  20.804  1.00 34.92 LIG 0.41  C 
ATOM     29  N   ASP B 175      -5.320 -28.534  21.781  1.00 43.46 LIG 0.61  N 
BRANCH 28 30
ATOM     30  CB  ASP B 175      -2.968 -27.784  21.492  1.00 38.90 LIG 0.16  C 
BRANCH 30 31
ATOM     31  CG  ASP B 175      -1.671 -27.959  20.688  1.00 38.28 LIG 0.17  C 
ATOM     32 OD2  ASP B 175      -0.787 -28.735  21.141  1.00 42.70 LIG-0.65  OA
ATOM     33 OD1  ASP B 175      -1.541 -27.348  19.596  1.00 44.78 LIG-0.65  OA
ENDBRANCH 30 31
ENDBRANCH 28 30
ENDBRANCH 25 28
ENDBRANCH 23 24
BRANCH 23 34
ATOM     34  CB  ILE B 176      -3.063 -30.726  16.621  1.00 23.83 LIG 0.01  C 
ATOM     35  CG2 ILE B 176      -1.733 -31.207  16.085  1.00 26.43 LIG 0.01  C 
BRANCH 34 36
ATOM     36  CG1 ILE B 176      -4.230 -31.480  15.961  1.00 26.50 LIG 0.00  C 
ATOM     37  CD1 ILE B 176      -3.803 -32.639  15.096  1.00 30.68 LIG 0.01  C 
ENDBRANCH 34 36
ENDBRANCH 23 34
ENDBRANCH 1 23
TORSDOF 12
ENDMDL
MODEL 6
USER: ADFR SOLUTION from run 116
USER: SCORE 14.471061 LL:  -3.424 LR: -11.215 RR:   0.000 FEB:  -7.635
USER: RMSD 3.927270
USER: SEED 115
USER: STATUS no improvement in best in 13 clusters for 5 generations
USER: GENES 14
USER: genes 0 Translation |==|  0.44607 0.38937 0.43490
USER: genes 1 Rotation |==|  0.51394 0.27067 0.77264 0.85054
USER: genes 2 Torsion [N]-CA--C-[O] |==|  0.59803
USER: genes 3 Torsion [C]-N--CA-[CB] |==|  0.87915
USER: genes 4 Torsion [N]-CA--CB-[CG] |==|  0.81638
USER: genes 5 Torsion [CA]-CB--CG-[CD2] |==|  0.73914
USER: genes 6 Torsion [N]-CA--C-[O] |==|  0.73526
USER: genes 7 Torsion [N]-C--CA-[N] |==|  0.44243
USER: genes 8 Torsion [C]-CA--N-[C] |==|  0.57540
USER: genes 9 Torsion [N]-C--CA-[N] |==|  0.57950
USER: genes 10 Torsion [C]-CA--CB-[CG] |==|  0.76803
USER: genes 11 Torsion [CA]-CB--CG-[OD2] |==|  0.01363
USER: genes 12 Torsion [C]-CA--CB-[CG1] |==|  0.29981
USER: genes 13 Torsion [CA]-CB--CG1-[CD1] |==|  0.08982
ROOT
ATOM      1  C   ILE B 176      -1.249 -32.357  12.965  1.00 22.90 LIG 0.24  C 
ATOM      2 O    ILE B 176      -1.719 -31.816  13.982  1.00 27.22 LIG-0.27  OA
ATOM      3  N   PRO B 177      -1.323 -33.683  12.765  1.00 22.83 LIG-0.34  N 
ATOM      4  CA  PRO B 177      -2.067 -34.577  13.670  1.00 24.67 LIG 0.18  C 
ATOM      5  CB  PRO B 177      -2.389 -35.779  12.776  1.00 26.20 LIG 0.04  C 
ATOM      6  CG  PRO B 177      -1.186 -35.850  11.884  1.00 24.14 LIG 0.02  C 
ATOM      7  CD  PRO B 177      -0.823 -34.414  11.579  1.00 21.80 LIG 0.13  C 
ENDROOT
BRANCH 4 8
ATOM      8  C   PRO B 177      -1.265 -35.024  14.895  1.00 25.32 LIG 0.24  C 
ATOM      9 O    PRO B 177      -1.420 -36.159  15.349  1.00 32.00 LIG-0.27  OA
ATOM     10  N   PHE B 178      -0.440 -34.140  15.436  1.00 24.88 LIG-0.34  N 
ATOM     11 H    PHE B 178      -0.299 -33.360  15.103  1.00 24.88 LIG 0.16  HD
BRANCH 10 12
ATOM     12  CA  PHE B 178       0.313 -34.407  16.659  1.00 25.09 LIG 0.19  C 
BRANCH 12 13
ATOM     13  CB  PHE B 178      -0.549 -35.097  17.741  1.00 24.80 LIG 0.07  C 
BRANCH 13 14
ATOM     14  CG  PHE B 178      -1.673 -34.233  18.285  1.00 21.99 LIG-0.06  A 
ATOM     15  CD2 PHE B 178      -1.524 -33.452  19.447  1.00 23.17 LIG 0.01  A 
ATOM     16  CE2 PHE B 178      -2.583 -32.659  19.929  1.00 21.52 LIG 0.00  A 
ATOM     17  CZ  PHE B 178      -3.761 -32.641  19.232  1.00 22.39 LIG 0.00  A 
ATOM     18  CE1 PHE B 178      -3.930 -33.379  18.076  1.00 21.58 LIG 0.00  A 
ATOM     19  CD1 PHE B 178      -2.882 -34.159  17.596  1.00 21.72 LIG 0.01  A 
ENDBRANCH 13 14
ENDBRANCH 12 13
BRANCH 12 20
ATOM     20  C   PHE B 178       1.564 -35.199  16.315  1.00 24.87 LIG 0.20  C 
ATOM     21 OXT  PHE B 178       2.560 -34.587  15.914  1.00 27.82 LIG-0.65  OA
ATOM     22 O    PHE B 178       1.590 -36.426  16.394  1.00 30.25 LIG-0.65  OA
ENDBRANCH 12 20
ENDBRANCH 10 12
ENDBRANCH 4 8
BRANCH 1 23
ATOM     23  CA  ILE B 176      -0.566 -31.502  11.900  1.00 23.71 LIG 0.18  C 
BRANCH 23 24
ATOM     24  N   ILE B 176      -1.034 -30.134  12.073  1.00 24.90 LIG-0.34  N 
ATOM     25  C   ASP B 175      -1.070 -29.285  11.048  1.00 27.89 LIG 0.26  C 
ATOM     26 O    ASP B 175      -0.727 -29.606   9.911  1.00 29.58 LIG-0.27  OA
ATOM     27 H    ILE B 176      -1.275 -29.936  12.875  1.00 24.90 LIG 0.16  HD
BRANCH 25 28
ATOM     28  CA  ASP B 175      -1.552 -27.857  11.338  1.00 34.92 LIG 0.41  C 
ATOM     29  N   ASP B 175      -2.200 -27.197  10.161  1.00 43.46 LIG 0.61  N 
BRANCH 28 30
ATOM     30  CB  ASP B 175      -2.514 -27.851  12.539  1.00 38.90 LIG 0.16  C 
BRANCH 30 31
ATOM     31  CG  ASP B 175      -3.960 -28.197  12.153  1.00 38.28 LIG 0.17  C 
ATOM     32 OD2  ASP B 175      -4.196 -28.534  10.961  1.00 42.70 LIG-0.65  OA
ATOM     33 OD1  ASP B 175      -4.854 -28.159  13.036  1.00 44.78 LIG-0.65  OA
ENDBRANCH 30 31
ENDBRANCH 28 30
ENDBRANCH 25 28
ENDBRANCH 23 24
BRANCH 23 34
ATOM     34  CB  ILE B 176       0.963 -31.620  11.991  1.00 23.83 LIG 0.01  C 
ATOM     35  CG2 ILE B 176       1.348 -32.256  13.308  1.00 26.43 LIG 0.01  C 
BRANCH 34 36
ATOM     36  CG1 ILE B 176       1.490 -32.444  10.804  1.00 26.50 LIG 0.00  C 
ATOM     37  CD1 ILE B 176       0.685 -32.284   9.539  1.00 30.68 LIG 0.01  C 
ENDBRANCH 34 36
ENDBRANCH 23 34
ENDBRANCH 1 23
TORSDOF 12
ENDMDL
MODEL 7
USER: ADFR SOLUTION from run 173
USER: SCORE 13.607838 LL:  -3.649 LR: -11.211 RR:   0.000 FEB:  -7.632
USER: RMSD 6.851139
USER: SEED 172
USER: STATUS no improvement in best in 16 clusters for 5 generations
USER: GENES 14
USER: genes 0 Translation |==|  0.44979 0.32182 0.44521
USER: genes 1 Rotation |==|  0.12424 0.57269 0.74818 0.70476
USER: genes 2 Torsion [N]-CA--C-[O] |==|  0.45595
USER: genes 3 Torsion [C]-N--CA-[CB] |==|  0.80780
USER: genes 4 Torsion [N]-CA--CB-[CG] |==|  0.91094
USER: genes 5 Torsion [CA]-CB--CG-[CD2] |==|  0.84906
USER: genes 6 Torsion [N]-CA--C-[O] |==|  0.62866
USER: genes 7 Torsion [N]-C--CA-[N] |==|  0.88767
USER: genes 8 Torsion [C]-CA--N-[C] |==|  0.50024
USER: genes 9 Torsion [N]-C--CA-[N] |==|  0.61705
USER: genes 10 Torsion [C]-CA--CB-[CG] |==|  0.78355
USER: genes 11 Torsion [CA]-CB--CG-[OD2] |==|  0.26112
USER: genes 12 Torsion [C]-CA--CB-[CG1] |==|  0.29295
USER: genes 13 Torsion [CA]-CB--CG1-[CD1] |==|  0.23180
ROOT
ATOM      1  C   ILE B 176      -1.193 -33.776  13.135  1.00 22.90 LIG 0.24  C 
ATOM      2 O    ILE B 176      -1.127 -33.202  12.033  1.00 27.22 LIG-0.27  OA
ATOM      3  N   PRO B 177      -1.874 -33.255  14.168  1.00 22.83 LIG-0.34  N 
ATOM      4  CA  PRO B 177      -2.690 -32.034  14.041  1.00 24.67 LIG 0.18  C 
ATOM      5  CB  PRO B 177      -3.700 -32.176  15.184  1.00 26.20 LIG 0.04  C 
ATOM      6  CG  PRO B 177      -2.896 -32.872  16.242  1.00 24.14 LIG 0.02  C 
ATOM      7  CD  PRO B 177      -2.037 -33.873  15.504  1.00 21.80 LIG 0.13  C 
ENDROOT
BRANCH 4 8
ATOM      8  C   PRO B 177      -1.891 -30.738  14.196  1.00 25.32 LIG 0.24  C 
ATOM      9 O    PRO B 177      -2.379 -29.669  13.828  1.00 32.00 LIG-0.27  OA
ATOM     10  N   PHE B 178      -0.673 -30.834  14.708  1.00 24.88 LIG-0.34  N 
ATOM     11 H    PHE B 178      -0.339 -31.571  15.001  1.00 24.88 LIG 0.16  HD
BRANCH 10 12
ATOM     12  CA  PHE B 178       0.228 -29.689  14.823  1.00 25.09 LIG 0.19  C 
BRANCH 12 13
ATOM     13  CB  PHE B 178       0.726 -29.192  13.447  1.00 24.80 LIG 0.07  C 
BRANCH 13 14
ATOM     14  CG  PHE B 178       0.875 -30.289  12.406  1.00 21.99 LIG-0.06  A 
ATOM     15  CD2 PHE B 178       1.649 -31.442  12.636  1.00 23.17 LIG 0.01  A 
ATOM     16  CE2 PHE B 178       1.769 -32.443  11.654  1.00 21.52 LIG 0.00  A 
ATOM     17  CZ  PHE B 178       1.096 -32.288  10.471  1.00 22.39 LIG 0.00  A 
ATOM     18  CE1 PHE B 178       0.310 -31.178  10.225  1.00 21.58 LIG 0.00  A 
ATOM     19  CD1 PHE B 178       0.188 -30.190  11.198  1.00 21.72 LIG 0.01  A 
ENDBRANCH 13 14
ENDBRANCH 12 13
BRANCH 12 20
ATOM     20  C   PHE B 178      -0.451 -28.595  15.629  1.00 24.87 LIG 0.20  C 
ATOM     21 OXT  PHE B 178      -1.056 -28.908  16.660  1.00 27.82 LIG-0.65  OA
ATOM     22 O    PHE B 178      -0.440 -27.422  15.258  1.00 30.25 LIG-0.65  OA
ENDBRANCH 12 20
ENDBRANCH 10 12
ENDBRANCH 4 8
BRANCH 1 23
ATOM     23  CA  ILE B 176      -0.486 -35.115  13.335  1.00 23.71 LIG 0.18  C 
BRANCH 23 24
ATOM     24  N   ILE B 176       0.112 -35.098  14.662  1.00 24.90 LIG-0.34  N 
ATOM     25  C   ASP B 175       0.803 -36.141  15.119  1.00 27.89 LIG 0.26  C 
ATOM     26 O    ASP B 175       0.981 -37.159  14.450  1.00 29.58 LIG-0.27  OA
ATOM     27 H    ILE B 176      -0.019 -34.373  15.106  1.00 24.90 LIG 0.16  HD
BRANCH 25 28
ATOM     28  CA  ASP B 175       1.370 -36.039  16.540  1.00 34.92 LIG 0.41  C 
ATOM     29  N   ASP B 175       2.766 -36.564  16.664  1.00 43.46 LIG 0.61  N 
BRANCH 28 30
ATOM     30  CB  ASP B 175       1.313 -34.582  17.035  1.00 38.90 LIG 0.16  C 
BRANCH 30 31
ATOM     31  CG  ASP B 175       2.430 -33.705  16.451  1.00 38.28 LIG 0.17  C 
ATOM     32 OD2  ASP B 175       2.185 -33.038  15.409  1.00 42.70 LIG-0.65  OA
ATOM     33 OD1  ASP B 175       3.541 -33.657  17.039  1.00 44.78 LIG-0.65  OA
ENDBRANCH 30 31
ENDBRANCH 28 30
ENDBRANCH 25 28
ENDBRANCH 23 24
BRANCH 23 34
ATOM     34  CB  ILE B 176      -1.458 -36.288  13.140  1.00 23.83 LIG 0.01  C 
ATOM     35  CG2 ILE B 176      -2.884 -35.790  13.218  1.00 26.43 LIG 0.01  C 
BRANCH 34 36
ATOM     36  CG1 ILE B 176      -1.183 -36.968  11.788  1.00 26.50 LIG 0.00  C 
ATOM     37  CD1 ILE B 176      -0.063 -37.978  11.824  1.00 30.68 LIG 0.01  C 
ENDBRANCH 34 36
ENDBRANCH 23 34
ENDBRANCH 1 23
TORSDOF 12
ENDMDL
MODEL 8
USER: ADFR SOLUTION from run 172
USER: SCORE 13.857808 LL:  -3.142 LR: -11.170 RR:   0.000 FEB:  -7.591
USER: RMSD 8.760397
USER: SEED 171
USER: STATUS no improvement in best in 7 clusters for 5 generations
USER: GENES 14
USER: genes 0 Translation |==|  0.42455 0.42866 0.54983
USER: genes 1 Rotation |==|  0.20912 0.20146 0.22402 0.50990
USER: genes 2 Torsion [N]-CA--C-[O] |==|  0.69118
USER: genes 3 Torsion [C]-N--CA-[CB] |==|  0.91015
USER: genes 4 Torsion [N]-CA--CB-[CG] |==|  0.65929
USER: genes 5 Torsion [CA]-CB--CG-[CD2] |==|  0.01349
USER: genes 6 Torsion [N]-CA--C-[O] |==|  0.16862
USER: genes 7 Torsion [N]-C--CA-[N] |==|  0.23465
USER: genes 8 Torsion [C]-CA--N-[C] |==|  0.67219
USER: genes 9 Torsion [N]-C--CA-[N] |==|  0.60129
USER: genes 10 Torsion [C]-CA--CB-[CG] |==|  0.77087
USER: genes 11 Torsion [CA]-CB--CG-[OD2] |==|  0.10204
USER: genes 12 Torsion [C]-CA--CB-[CG1] |==|  0.52367
USER: genes 13 Torsion [CA]-CB--CG1-[CD1] |==|  0.29315
ROOT
ATOM      1  C   ILE B 176      -1.572 -31.532  14.861  1.00 22.90 LIG 0.24  C 
ATOM      2 O    ILE B 176      -1.476 -30.434  15.438  1.00 27.22 LIG-0.27  OA
ATOM      3  N   PRO B 177      -1.090 -31.731  13.624  1.00 22.83 LIG-0.34  N 
ATOM      4  CA  PRO B 177      -0.309 -30.707  12.907  1.00 24.67 LIG 0.18  C 
ATOM      5  CB  PRO B 177       0.502 -31.533  11.905  1.00 26.20 LIG 0.04  C 
ATOM      6  CG  PRO B 177      -0.439 -32.651  11.569  1.00 24.14 LIG 0.02  C 
ATOM      7  CD  PRO B 177      -1.127 -33.004  12.869  1.00 21.80 LIG 0.13  C 
ENDROOT
BRANCH 4 8
ATOM      8  C   PRO B 177      -1.170 -29.676  12.172  1.00 25.32 LIG 0.24  C 
ATOM      9 O    PRO B 177      -1.190 -29.659  10.940  1.00 32.00 LIG-0.27  OA
ATOM     10  N   PHE B 178      -1.850 -28.815  12.914  1.00 24.88 LIG-0.34  N 
ATOM     11 H    PHE B 178      -1.871 -28.843  13.773  1.00 24.88 LIG 0.16  HD
BRANCH 10 12
ATOM     12  CA  PHE B 178      -2.636 -27.724  12.339  1.00 25.09 LIG 0.19  C 
BRANCH 12 13
ATOM     13  CB  PHE B 178      -2.019 -27.184  11.028  1.00 24.80 LIG 0.07  C 
BRANCH 13 14
ATOM     14  CG  PHE B 178      -1.704 -25.698  11.056  1.00 21.99 LIG-0.06  A 
ATOM     15  CD2 PHE B 178      -1.865 -24.919  12.217  1.00 23.17 LIG 0.01  A 
ATOM     16  CE2 PHE B 178      -1.565 -23.543  12.214  1.00 21.52 LIG 0.00  A 
ATOM     17  CZ  PHE B 178      -1.088 -22.976  11.063  1.00 22.39 LIG 0.00  A 
ATOM     18  CE1 PHE B 178      -0.898 -23.720   9.914  1.00 21.58 LIG 0.00  A 
ATOM     19  CD1 PHE B 178      -1.190 -25.081   9.917  1.00 21.72 LIG 0.01  A 
ENDBRANCH 13 14
ENDBRANCH 12 13
BRANCH 12 20
ATOM     20  C   PHE B 178      -4.075 -28.180  12.164  1.00 24.87 LIG 0.20  C 
ATOM     21 OXT  PHE B 178      -4.569 -28.159  11.032  1.00 27.82 LIG-0.65  OA
ATOM     22 O    PHE B 178      -4.759 -28.532  13.124  1.00 30.25 LIG-0.65  OA
ENDBRANCH 12 20
ENDBRANCH 10 12
ENDBRANCH 4 8
BRANCH 1 23
ATOM     23  CA  ILE B 176      -2.253 -32.702  15.569  1.00 23.71 LIG 0.18  C 
BRANCH 23 24
ATOM     24  N   ILE B 176      -1.209 -33.497  16.200  1.00 24.90 LIG-0.34  N 
ATOM     25  C   ASP B 175      -1.004 -34.765  15.848  1.00 27.89 LIG 0.26  C 
ATOM     26 O    ASP B 175      -1.668 -35.325  14.976  1.00 29.58 LIG-0.27  OA
ATOM     27 H    ILE B 176      -0.754 -33.082  16.800  1.00 24.90 LIG 0.16  HD
BRANCH 25 28
ATOM     28  CA  ASP B 175       0.101 -35.529  16.591  1.00 34.92 LIG 0.41  C 
ATOM     29  N   ASP B 175       0.855 -36.483  15.718  1.00 43.46 LIG 0.61  N 
BRANCH 28 30
ATOM     30  CB  ASP B 175       1.077 -34.542  17.256  1.00 38.90 LIG 0.16  C 
BRANCH 30 31
ATOM     31  CG  ASP B 175       2.144 -34.008  16.289  1.00 38.28 LIG 0.17  C 
ATOM     32 OD2  ASP B 175       1.810 -33.784  15.094  1.00 42.70 LIG-0.65  OA
ATOM     33 OD1  ASP B 175       3.305 -33.788  16.721  1.00 44.78 LIG-0.65  OA
ENDBRANCH 30 31
ENDBRANCH 28 30
ENDBRANCH 25 28
ENDBRANCH 23 24
BRANCH 23 34
ATOM     34  CB  ILE B 176      -3.305 -32.205  16.573  1.00 23.83 LIG 0.01  C 
ATOM     35  CG2 ILE B 176      -4.440 -31.533  15.832  1.00 26.43 LIG 0.01  C 
BRANCH 34 36
ATOM     36  CG1 ILE B 176      -3.815 -33.386  17.415  1.00 26.50 LIG 0.00  C 
ATOM     37  CD1 ILE B 176      -3.287 -33.408  18.827  1.00 30.68 LIG 0.01  C 
ENDBRANCH 34 36
ENDBRANCH 23 34
ENDBRANCH 1 23
TORSDOF 12
ENDMDL
MODEL 9
USER: ADFR SOLUTION from run 150
USER: SCORE 15.538785 LL:  -4.519 LR: -11.131 RR:   0.000 FEB:  -7.552
USER: RMSD 1.548995
USER: SEED 149
USER: STATUS no improvement in best in 9 clusters for 5 generations
USER: GENES 14
USER: genes 0 Translation |==|  0.44570 0.46728 0.52161
USER: genes 1 Rotation |==|  0.47396 0.53504 0.59142 0.98963
USER: genes 2 Torsion [N]-CA--C-[O] |==|  0.46133
USER: genes 3 Torsion [C]-N--CA-[CB] |==|  0.35983
USER: genes 4 Torsion [N]-CA--CB-[CG] |==|  0.07243
USER: genes 5 Torsion [CA]-CB--CG-[CD2] |==|  0.29394
USER: genes 6 Torsion [N]-CA--C-[O] |==|  0.94896
USER: genes 7 Torsion [N]-C--CA-[N] |==|  0.36035
USER: genes 8 Torsion [C]-CA--N-[C] |==|  0.74184
USER: genes 9 Torsion [N]-C--CA-[N] |==|  0.84582
USER: genes 10 Torsion [C]-CA--CB-[CG] |==|  0.63370
USER: genes 11 Torsion [CA]-CB--CG-[OD2] |==|  0.33316
USER: genes 12 Torsion [C]-CA--CB-[CG1] |==|  0.16760
USER: genes 13 Torsion [CA]-CB--CG1-[CD1] |==|  0.49668
ROOT
ATOM      1  C   ILE B 176      -1.255 -30.721  14.396  1.00 22.90 LIG 0.24  C 
ATOM      2 O    ILE B 176      -0.221 -30.151  14.791  1.00 27.22 LIG-0.27  OA
ATOM      3  N   PRO B 177      -2.065 -31.386  15.234  1.00 22.83 LIG-0.34  N 
ATOM      4  CA  PRO B 177      -1.860 -31.390  16.694  1.00 24.67 LIG 0.18  C 
ATOM      5  CB  PRO B 177      -3.258 -31.701  17.236  1.00 26.20 LIG 0.04  C 
ATOM      6  CG  PRO B 177      -3.815 -32.619  16.189  1.00 24.14 LIG 0.02  C 
ATOM      7  CD  PRO B 177      -3.327 -32.068  14.868  1.00 21.80 LIG 0.13  C 
ENDROOT
BRANCH 4 8
ATOM      8  C   PRO B 177      -0.857 -32.442  17.174  1.00 25.32 LIG 0.24  C 
ATOM      9 O    PRO B 177      -0.406 -32.382  18.319  1.00 32.00 LIG-0.27  OA
ATOM     10  N   PHE B 178      -0.494 -33.375  16.306  1.00 24.88 LIG-0.34  N 
ATOM     11 H    PHE B 178      -0.832 -33.446  15.518  1.00 24.88 LIG 0.16  HD
BRANCH 10 12
ATOM     12  CA  PHE B 178       0.522 -34.381  16.606  1.00 25.09 LIG 0.19  C 
BRANCH 12 13
ATOM     13  CB  PHE B 178       0.039 -35.816  16.293  1.00 24.80 LIG 0.07  C 
BRANCH 13 14
ATOM     14  CG  PHE B 178      -1.034 -35.891  15.219  1.00 21.99 LIG-0.06  A 
ATOM     15  CD2 PHE B 178      -0.760 -36.348  13.917  1.00 23.17 LIG 0.01  A 
ATOM     16  CE2 PHE B 178      -1.774 -36.408  12.941  1.00 21.52 LIG 0.00  A 
ATOM     17  CZ  PHE B 178      -3.044 -36.034  13.289  1.00 22.39 LIG 0.00  A 
ATOM     18  CE1 PHE B 178      -3.348 -35.603  14.566  1.00 21.58 LIG 0.00  A 
ATOM     19  CD1 PHE B 178      -2.347 -35.548  15.533  1.00 21.72 LIG 0.01  A 
ENDBRANCH 13 14
ENDBRANCH 12 13
BRANCH 12 20
ATOM     20  C   PHE B 178       1.810 -34.026  15.882  1.00 24.87 LIG 0.20  C 
ATOM     21 OXT  PHE B 178       2.871 -34.511  16.289  1.00 27.82 LIG-0.65  OA
ATOM     22 O    PHE B 178       1.818 -33.245  14.931  1.00 30.25 LIG-0.65  OA
ENDBRANCH 12 20
ENDBRANCH 10 12
ENDBRANCH 4 8
BRANCH 1 23
ATOM     23  CA  ILE B 176      -1.628 -30.670  12.916  1.00 23.71 LIG 0.18  C 
BRANCH 23 24
ATOM     24  N   ILE B 176      -1.567 -29.276  12.498  1.00 24.90 LIG-0.34  N 
ATOM     25  C   ASP B 175      -2.649 -28.501  12.528  1.00 27.89 LIG 0.26  C 
ATOM     26 O    ASP B 175      -3.743 -28.909  12.916  1.00 29.58 LIG-0.27  OA
ATOM     27 H    ILE B 176      -0.789 -29.013  12.240  1.00 24.90 LIG 0.16  HD
BRANCH 25 28
ATOM     28  CA  ASP B 175      -2.489 -27.055  12.042  1.00 34.92 LIG 0.41  C 
ATOM     29  N   ASP B 175      -1.413 -26.301  12.758  1.00 43.46 LIG 0.61  N 
BRANCH 28 30
ATOM     30  CB  ASP B 175      -2.228 -27.028  10.525  1.00 38.90 LIG 0.16  C 
BRANCH 30 31
ATOM     31  CG  ASP B 175      -1.044 -26.130  10.135  1.00 38.28 LIG 0.17  C 
ATOM     32 OD2  ASP B 175      -0.065 -26.656   9.539  1.00 42.70 LIG-0.65  OA
ATOM     33 OD1  ASP B 175      -1.097 -24.901  10.396  1.00 44.78 LIG-0.65  OA
ENDBRANCH 30 31
ENDBRANCH 28 30
ENDBRANCH 25 28
ENDBRANCH 23 24
BRANCH 23 34
ATOM     34  CB  ILE B 176      -0.712 -31.578  12.082  1.00 23.83 LIG 0.01  C 
ATOM     35  CG2 ILE B 176       0.719 -31.099  12.191  1.00 26.43 LIG 0.01  C 
BRANCH 34 36
ATOM     36  CG1 ILE B 176      -0.847 -33.032  12.563  1.00 26.50 LIG 0.00  C 
ATOM     37  CD1 ILE B 176      -0.007 -34.017  11.790  1.00 30.68 LIG 0.01  C 
ENDBRANCH 34 36
ENDBRANCH 23 34
ENDBRANCH 1 23
TORSDOF 12
ENDMDL
MODEL 10
USER: ADFR SOLUTION from run 50
USER: SCORE 13.833655 LL:  -3.170 LR: -11.105 RR:   0.000 FEB:  -7.525
USER: RMSD 8.628361
USER: SEED 49
USER: STATUS no improvement in best in 9 clusters for 5 generations
USER: GENES 14
USER: genes 0 Translation |==|  0.52006 0.36026 0.36939
USER: genes 1 Rotation |==|  0.41322 0.12854 0.17754 0.52237
USER: genes 2 Torsion [N]-CA--C-[O] |==|  0.86315
USER: genes 3 Torsion [C]-N--CA-[CB] |==|  0.38789
USER: genes 4 Torsion [N]-CA--CB-[CG] |==|  0.09809
USER: genes 5 Torsion [CA]-CB--CG-[CD2] |==|  0.64836
USER: genes 6 Torsion [N]-CA--C-[O] |==|  0.40233
USER: genes 7 Torsion [N]-C--CA-[N] |==|  0.32307
USER: genes 8 Torsion [C]-CA--N-[C] |==|  0.55556
USER: genes 9 Torsion [N]-C--CA-[N] |==|  0.57917
USER: genes 10 Torsion [C]-CA--CB-[CG] |==|  0.81490
USER: genes 11 Torsion [CA]-CB--CG-[OD2] |==|  0.79175
USER: genes 12 Torsion [C]-CA--CB-[CG1] |==|  0.76162
USER: genes 13 Torsion [CA]-CB--CG1-[CD1] |==|  0.68288
ROOT
ATOM      1  C   ILE B 176      -0.139 -32.968  11.884  1.00 22.90 LIG 0.24  C 
ATOM      2 O    ILE B 176      -1.031 -32.168  12.219  1.00 27.22 LIG-0.27  OA
ATOM      3  N   PRO B 177       0.882 -32.605  11.092  1.00 22.83 LIG-0.34  N 
ATOM      4  CA  PRO B 177       1.090 -31.211  10.661  1.00 24.67 LIG 0.18  C 
ATOM      5  CB  PRO B 177       2.588 -31.168  10.347  1.00 26.20 LIG 0.04  C 
ATOM      6  CG  PRO B 177       2.847 -32.546   9.816  1.00 24.14 LIG 0.02  C 
ATOM      7  CD  PRO B 177       2.004 -33.471  10.664  1.00 21.80 LIG 0.13  C 
ENDROOT
BRANCH 4 8
ATOM      8  C   PRO B 177       0.276 -30.818   9.426  1.00 25.32 LIG 0.24  C 
ATOM      9 O    PRO B 177       0.287 -31.540   8.428  1.00 32.00 LIG-0.27  OA
ATOM     10  N   PHE B 178      -0.400 -29.680   9.482  1.00 24.88 LIG-0.34  N 
ATOM     11 H    PHE B 178      -0.443 -29.189  10.187  1.00 24.88 LIG 0.16  HD
BRANCH 10 12
ATOM     12  CA  PHE B 178      -1.142 -29.144   8.342  1.00 25.09 LIG 0.19  C 
BRANCH 12 13
ATOM     13  CB  PHE B 178      -2.499 -28.534   8.759  1.00 24.80 LIG 0.07  C 
BRANCH 13 14
ATOM     14  CG  PHE B 178      -2.481 -27.841  10.110  1.00 21.99 LIG-0.06  A 
ATOM     15  CD2 PHE B 178      -3.399 -28.159  11.129  1.00 23.17 LIG 0.01  A 
ATOM     16  CE2 PHE B 178      -3.359 -27.501  12.373  1.00 21.52 LIG 0.00  A 
ATOM     17  CZ  PHE B 178      -2.392 -26.556  12.587  1.00 22.39 LIG 0.00  A 
ATOM     18  CE1 PHE B 178      -1.463 -26.239  11.614  1.00 21.58 LIG 0.00  A 
ATOM     19  CD1 PHE B 178      -1.498 -26.893  10.385  1.00 21.72 LIG 0.01  A 
ENDBRANCH 13 14
ENDBRANCH 12 13
BRANCH 12 20
ATOM     20  C   PHE B 178      -0.264 -28.159   7.589  1.00 24.87 LIG 0.20  C 
ATOM     21 OXT  PHE B 178       0.493 -27.427   8.235  1.00 27.82 LIG-0.65  OA
ATOM     22 O    PHE B 178      -0.319 -28.054   6.364  1.00 30.25 LIG-0.65  OA
ENDBRANCH 12 20
ENDBRANCH 10 12
ENDBRANCH 4 8
BRANCH 1 23
ATOM     23  CA  ILE B 176      -0.191 -34.412  12.381  1.00 23.71 LIG 0.18  C 
BRANCH 23 24
ATOM     24  N   ILE B 176      -0.063 -34.378  13.832  1.00 24.90 LIG-0.34  N 
ATOM     25  C   ASP B 175       0.318 -35.456  14.513  1.00 27.89 LIG 0.26  C 
ATOM     26 O    ASP B 175       0.590 -36.523  13.964  1.00 29.58 LIG-0.27  OA
ATOM     27 H    ILE B 176      -0.251 -33.619  14.191  1.00 24.90 LIG 0.16  HD
BRANCH 25 28
ATOM     28  CA  ASP B 175       0.395 -35.329  16.040  1.00 34.92 LIG 0.41  C 
ATOM     29  N   ASP B 175       1.407 -36.239  16.664  1.00 43.46 LIG 0.61  N 
BRANCH 28 30
ATOM     30  CB  ASP B 175       0.685 -33.871  16.441  1.00 38.90 LIG 0.16  C 
BRANCH 30 31
ATOM     31  CG  ASP B 175       2.081 -33.396  16.012  1.00 38.28 LIG 0.17  C 
ATOM     32 OD2  ASP B 175       3.079 -33.806  16.664  1.00 42.70 LIG-0.65  OA
ATOM     33 OD1  ASP B 175       2.189 -32.638  15.014  1.00 44.78 LIG-0.65  OA
ENDBRANCH 30 31
ENDBRANCH 28 30
ENDBRANCH 25 28
ENDBRANCH 23 24
BRANCH 23 34
ATOM     34  CB  ILE B 176      -1.478 -35.111  11.918  1.00 23.83 LIG 0.01  C 
ATOM     35  CG2 ILE B 176      -1.233 -36.598  11.791  1.00 26.43 LIG 0.01  C 
BRANCH 34 36
ATOM     36  CG1 ILE B 176      -2.612 -34.820  12.914  1.00 26.50 LIG 0.00  C 
ATOM     37  CD1 ILE B 176      -3.102 -36.035  13.661  1.00 30.68 LIG 0.01  C 
ENDBRANCH 34 36
ENDBRANCH 23 34
ENDBRANCH 1 23
TORSDOF 12
ENDMDL
MODEL 11
USER: ADFR SOLUTION from run 189
USER: SCORE 14.585303 LL:  -3.722 LR: -11.022 RR:   0.000 FEB:  -7.443
USER: RMSD 6.654045
USER: SEED 188
USER: STATUS no improvement in best in 11 clusters for 5 generations
USER: GENES 14
USER: genes 0 Translation |==|  0.40588 0.32018 0.80330
USER: genes 1 Rotation |==|  0.80960 0.19635 0.57291 0.73797
USER: genes 2 Torsion [N]-CA--C-[O] |==|  0.43001
USER: genes 3 Torsion [C]-N--CA-[CB] |==|  0.14502
USER: genes 4 Torsion [N]-CA--CB-[CG] |==|  0.08810
USER: genes 5 Torsion [CA]-CB--CG-[CD2] |==|  0.11997
USER: genes 6 Torsion [N]-CA--C-[O] |==|  0.43888
USER: genes 7 Torsion [N]-C--CA-[N] |==|  0.30124
USER: genes 8 Torsion [C]-CA--N-[C] |==|  0.75121
USER: genes 9 Torsion [N]-C--CA-[N] |==|  0.97922
USER: genes 10 Torsion [C]-CA--CB-[CG] |==|  0.95169
USER: genes 11 Torsion [CA]-CB--CG-[OD2] |==|  0.29337
USER: genes 12 Torsion [C]-CA--CB-[CG1] |==|  0.12775
USER: genes 13 Torsion [CA]-CB--CG1-[CD1] |==|  0.17220
ROOT
ATOM      1  C   ILE B 176      -1.852 -33.810  19.044  1.00 22.90 LIG 0.24  C 
ATOM      2 O    ILE B 176      -1.952 -34.904  19.627  1.00 27.22 LIG-0.27  OA
ATOM      3  N   PRO B 177      -2.010 -33.695  17.715  1.00 22.83 LIG-0.34  N 
ATOM      4  CA  PRO B 177      -2.430 -34.827  16.869  1.00 24.67 LIG 0.18  C 
ATOM      5  CB  PRO B 177      -3.049 -34.134  15.651  1.00 26.20 LIG 0.04  C 
ATOM      6  CG  PRO B 177      -2.208 -32.900  15.520  1.00 24.14 LIG 0.02  C 
ATOM      7  CD  PRO B 177      -1.941 -32.439  16.935  1.00 21.80 LIG 0.13  C 
ENDROOT
BRANCH 4 8
ATOM      8  C   PRO B 177      -1.277 -35.736  16.436  1.00 25.32 LIG 0.24  C 
ATOM      9 O    PRO B 177      -1.499 -36.913  16.148  1.00 32.00 LIG-0.27  OA
ATOM     10  N   PHE B 178      -0.063 -35.207  16.414  1.00 24.88 LIG-0.34  N 
ATOM     11 H    PHE B 178       0.095 -34.377  16.577  1.00 24.88 LIG 0.16  HD
BRANCH 10 12
ATOM     12  CA  PHE B 178       1.134 -35.988  16.108  1.00 25.09 LIG 0.19  C 
BRANCH 12 13
ATOM     13  CB  PHE B 178       0.997 -36.780  14.788  1.00 24.80 LIG 0.07  C 
BRANCH 13 14
ATOM     14  CG  PHE B 178       0.131 -36.099  13.741  1.00 21.99 LIG-0.06  A 
ATOM     15  CD2 PHE B 178       0.222 -34.721  13.473  1.00 23.17 LIG 0.01  A 
ATOM     16  CE2 PHE B 178      -0.593 -34.116  12.497  1.00 21.52 LIG 0.00  A 
ATOM     17  CZ  PHE B 178      -1.465 -34.900  11.791  1.00 22.39 LIG 0.00  A 
ATOM     18  CE1 PHE B 178      -1.561 -36.260  12.016  1.00 21.58 LIG 0.00  A 
ATOM     19  CD1 PHE B 178      -0.752 -36.860  12.977  1.00 21.72 LIG 0.01  A 
ENDBRANCH 13 14
ENDBRANCH 12 13
BRANCH 12 20
ATOM     20  C   PHE B 178       2.347 -35.073  16.119  1.00 24.87 LIG 0.20  C 
ATOM     21 OXT  PHE B 178       2.180 -33.866  15.916  1.00 27.82 LIG-0.65  OA
ATOM     22 O    PHE B 178       3.483 -35.514  16.289  1.00 30.25 LIG-0.65  OA
ENDBRANCH 12 20
ENDBRANCH 10 12
ENDBRANCH 4 8
BRANCH 1 23
ATOM     23  CA  ILE B 176      -1.543 -32.549  19.847  1.00 23.71 LIG 0.18  C 
BRANCH 23 24
ATOM     24  N   ILE B 176      -2.734 -32.220  20.618  1.00 24.90 LIG-0.34  N 
ATOM     25  C   ASP B 175      -3.681 -31.430  20.116  1.00 27.89 LIG 0.26  C 
ATOM     26 O    ASP B 175      -3.610 -30.948  18.985  1.00 29.58 LIG-0.27  OA
ATOM     27 H    ILE B 176      -2.765 -32.575  21.401  1.00 24.90 LIG 0.16  HD
BRANCH 25 28
ATOM     28  CA  ASP B 175      -4.885 -31.119  21.015  1.00 34.92 LIG 0.41  C 
ATOM     29  N   ASP B 175      -4.898 -31.909  22.287  1.00 43.46 LIG 0.61  N 
BRANCH 28 30
ATOM     30  CB  ASP B 175      -4.940 -29.614  21.333  1.00 38.90 LIG 0.16  C 
BRANCH 30 31
ATOM     31  CG  ASP B 175      -3.612 -28.893  21.058  1.00 38.28 LIG 0.17  C 
ATOM     32 OD2  ASP B 175      -3.532 -28.154  20.039  1.00 42.70 LIG-0.65  OA
ATOM     33 OD1  ASP B 175      -2.660 -29.038  21.866  1.00 44.78 LIG-0.65  OA
ENDBRANCH 30 31
ENDBRANCH 28 30
ENDBRANCH 25 28
ENDBRANCH 23 24
BRANCH 23 34
ATOM     34  CB  ILE B 176      -0.303 -32.746  20.732  1.00 23.83 LIG 0.01  C 
ATOM     35  CG2 ILE B 176      -0.664 -33.584  21.938  1.00 26.43 LIG 0.01  C 
BRANCH 34 36
ATOM     36  CG1 ILE B 176       0.817 -33.408  19.913  1.00 26.50 LIG 0.00  C 
ATOM     37  CD1 ILE B 176       1.288 -32.588  18.738  1.00 30.68 LIG 0.01  C 
ENDBRANCH 34 36
ENDBRANCH 23 34
ENDBRANCH 1 23
TORSDOF 12
ENDMDL
MODEL 12
USER: ADFR SOLUTION from run 149
USER: SCORE 13.965527 LL:  -3.617 LR: -11.000 RR:   0.000 FEB:  -7.420
USER: RMSD 7.256375
USER: SEED 148
USER: STATUS no improvement in best in 9 clusters for 5 generations
USER: GENES 14
USER: genes 0 Translation |==|  0.57846 0.32435 0.57717
USER: genes 1 Rotation |==|  0.24991 0.15986 0.42510 0.75719
USER: genes 2 Torsion [N]-CA--C-[O] |==|  0.73883
USER: genes 3 Torsion [C]-N--CA-[CB] |==|  0.29153
USER: genes 4 Torsion [N]-CA--CB-[CG] |==|  0.08095
USER: genes 5 Torsion [CA]-CB--CG-[CD2] |==|  0.11775
USER: genes 6 Torsion [N]-CA--C-[O] |==|  0.24133
USER: genes 7 Torsion [N]-C--CA-[N] |==|  0.50842
USER: genes 8 Torsion [C]-CA--N-[C] |==|  0.82778
USER: genes 9 Torsion [N]-C--CA-[N] |==|  0.93741
USER: genes 10 Torsion [C]-CA--CB-[CG] |==|  0.03334
USER: genes 11 Torsion [CA]-CB--CG-[OD2] |==|  0.22445
USER: genes 12 Torsion [C]-CA--CB-[CG1] |==|  0.86744
USER: genes 13 Torsion [CA]-CB--CG1-[CD1] |==|  0.30537
ROOT
ATOM      1  C   ILE B 176       0.737 -33.723  15.312  1.00 22.90 LIG 0.24  C 
ATOM      2 O    ILE B 176       0.549 -32.673  15.954  1.00 27.22 LIG-0.27  OA
ATOM      3  N   PRO B 177       0.028 -34.020  14.212  1.00 22.83 LIG-0.34  N 
ATOM      4  CA  PRO B 177      -0.935 -33.078  13.614  1.00 24.67 LIG 0.18  C 
ATOM      5  CB  PRO B 177      -1.009 -33.541  12.156  1.00 26.20 LIG 0.04  C 
ATOM      6  CG  PRO B 177      -0.835 -35.026  12.279  1.00 24.14 LIG 0.02  C 
ATOM      7  CD  PRO B 177       0.197 -35.223  13.366  1.00 21.80 LIG 0.13  C 
ENDROOT
BRANCH 4 8
ATOM      8  C   PRO B 177      -2.323 -33.123  14.258  1.00 25.32 LIG 0.24  C 
ATOM      9 O    PRO B 177      -3.203 -33.836  13.771  1.00 32.00 LIG-0.27  OA
ATOM     10  N   PHE B 178      -2.526 -32.356  15.319  1.00 24.88 LIG-0.34  N 
ATOM     11 H    PHE B 178      -1.908 -31.885  15.686  1.00 24.88 LIG 0.16  HD
BRANCH 10 12
ATOM     12  CA  PHE B 178      -3.828 -32.236  15.971  1.00 25.09 LIG 0.19  C 
BRANCH 12 13
ATOM     13  CB  PHE B 178      -3.891 -33.014  17.305  1.00 24.80 LIG 0.07  C 
BRANCH 13 14
ATOM     14  CG  PHE B 178      -2.554 -33.136  18.018  1.00 21.99 LIG-0.06  A 
ATOM     15  CD2 PHE B 178      -1.655 -32.058  18.114  1.00 23.17 LIG 0.01  A 
ATOM     16  CE2 PHE B 178      -0.423 -32.199  18.781  1.00 21.52 LIG 0.00  A 
ATOM     17  CZ  PHE B 178      -0.121 -33.403  19.358  1.00 22.39 LIG 0.00  A 
ATOM     18  CE1 PHE B 178      -0.994 -34.473  19.300  1.00 21.58 LIG 0.00  A 
ATOM     19  CD1 PHE B 178      -2.215 -34.333  18.645  1.00 21.72 LIG 0.01  A 
ENDBRANCH 13 14
ENDBRANCH 12 13
BRANCH 12 20
ATOM     20  C   PHE B 178      -4.175 -30.766  16.133  1.00 24.87 LIG 0.20  C 
ATOM     21 OXT  PHE B 178      -3.909 -30.210  17.205  1.00 27.82 LIG-0.65  OA
ATOM     22 O    PHE B 178      -4.742 -30.136  15.241  1.00 30.25 LIG-0.65  OA
ENDBRANCH 12 20
ENDBRANCH 10 12
ENDBRANCH 4 8
BRANCH 1 23
ATOM     23  CA  ILE B 176       1.804 -34.712  15.775  1.00 23.71 LIG 0.18  C 
BRANCH 23 24
ATOM     24  N   ILE B 176       2.369 -34.196  17.014  1.00 24.90 LIG-0.34  N 
ATOM     25  C   ASP B 175       3.004 -33.026  17.045  1.00 27.89 LIG 0.26  C 
ATOM     26 O    ASP B 175       3.137 -32.320  16.046  1.00 29.58 LIG-0.27  OA
ATOM     27 H    ILE B 176       2.256 -34.704  17.699  1.00 24.90 LIG 0.16  HD
BRANCH 25 28
ATOM     28  CA  ASP B 175       3.589 -32.582  18.392  1.00 34.92 LIG 0.41  C 
ATOM     29  N   ASP B 175       2.933 -33.231  19.570  1.00 43.46 LIG 0.61  N 
BRANCH 28 30
ATOM     30  CB  ASP B 175       5.106 -32.842  18.428  1.00 38.90 LIG 0.16  C 
BRANCH 30 31
ATOM     31  CG  ASP B 175       5.689 -33.189  17.050  1.00 38.28 LIG 0.17  C 
ATOM     32 OD2  ASP B 175       5.941 -32.245  16.252  1.00 42.70 LIG-0.65  OA
ATOM     33 OD1  ASP B 175       5.919 -34.393  16.769  1.00 44.78 LIG-0.65  OA
ENDBRANCH 30 31
ENDBRANCH 28 30
ENDBRANCH 25 28
ENDBRANCH 23 24
BRANCH 23 34
ATOM     34  CB  ILE B 176       1.218 -36.124  15.935  1.00 23.83 LIG 0.01  C 
ATOM     35  CG2 ILE B 176       2.225 -37.019  16.623  1.00 26.43 LIG 0.01  C 
BRANCH 34 36
ATOM     36  CG1 ILE B 176      -0.094 -36.051  16.733  1.00 26.50 LIG 0.00  C 
ATOM     37  CD1 ILE B 176      -1.328 -36.338  15.915  1.00 30.68 LIG 0.01  C 
ENDBRANCH 34 36
ENDBRANCH 23 34
ENDBRANCH 1 23
TORSDOF 12
ENDMDL
MODEL 13
USER: ADFR SOLUTION from run 125
USER: SCORE 14.051923 LL:  -3.222 LR: -10.969 RR:   0.000 FEB:  -7.390
USER: RMSD 7.598832
USER: SEED 124
USER: STATUS no improvement in best in 11 clusters for 5 generations
USER: GENES 14
USER: genes 0 Translation |==|  0.42357 0.27181 0.43771
USER: genes 1 Rotation |==|  0.20080 0.85791 0.61295 0.64008
USER: genes 2 Torsion [N]-CA--C-[O] |==|  0.16092
USER: genes 3 Torsion [C]-N--CA-[CB] |==|  0.29634
USER: genes 4 Torsion [N]-CA--CB-[CG] |==|  0.01350
USER: genes 5 Torsion [CA]-CB--CG-[CD2] |==|  0.29326
USER: genes 6 Torsion [N]-CA--C-[O] |==|  0.95775
USER: genes 7 Torsion [N]-C--CA-[N] |==|  0.87355
USER: genes 8 Torsion [C]-CA--N-[C] |==|  0.79816
USER: genes 9 Torsion [N]-C--CA-[N] |==|  0.56570
USER: genes 10 Torsion [C]-CA--CB-[CG] |==|  0.72671
USER: genes 11 Torsion [CA]-CB--CG-[OD2] |==|  0.69501
USER: genes 12 Torsion [C]-CA--CB-[CG1] |==|  0.99165
USER: genes 13 Torsion [CA]-CB--CG1-[CD1] |==|  0.67380
ROOT
ATOM      1  C   ILE B 176      -1.586 -34.826  13.011  1.00 22.90 LIG 0.24  C 
ATOM      2 O    ILE B 176      -1.768 -35.217  11.844  1.00 27.22 LIG-0.27  OA
ATOM      3  N   PRO B 177      -0.982 -33.658  13.285  1.00 22.83 LIG-0.34  N 
ATOM      4  CA  PRO B 177      -0.600 -32.701  12.232  1.00 24.67 LIG 0.18  C 
ATOM      5  CB  PRO B 177      -0.546 -31.368  12.983  1.00 26.20 LIG 0.04  C 
ATOM      6  CG  PRO B 177      -0.061 -31.780  14.340  1.00 24.14 LIG 0.02  C 
ATOM      7  CD  PRO B 177      -0.749 -33.094  14.634  1.00 21.80 LIG 0.13  C 
ENDROOT
BRANCH 4 8
ATOM      8  C   PRO B 177       0.755 -33.003  11.586  1.00 25.32 LIG 0.24  C 
ATOM      9 O    PRO B 177       0.948 -34.093  11.045  1.00 32.00 LIG-0.27  OA
ATOM     10  N   PHE B 178       1.686 -32.064  11.662  1.00 24.88 LIG-0.34  N 
ATOM     11 H    PHE B 178       1.548 -31.287  12.005  1.00 24.88 LIG 0.16  HD
BRANCH 10 12
ATOM     12  CA  PHE B 178       3.048 -32.259  11.169  1.00 25.09 LIG 0.19  C 
BRANCH 12 13
ATOM     13  CB  PHE B 178       3.315 -31.482   9.859  1.00 24.80 LIG 0.07  C 
BRANCH 13 14
ATOM     14  CG  PHE B 178       2.166 -30.592   9.418  1.00 21.99 LIG-0.06  A 
ATOM     15  CD2 PHE B 178       2.209 -29.192   9.551  1.00 23.17 LIG 0.01  A 
ATOM     16  CE2 PHE B 178       1.129 -28.390   9.133  1.00 21.52 LIG 0.00  A 
ATOM     17  CZ  PHE B 178       0.038 -28.997   8.570  1.00 22.39 LIG 0.00  A 
ATOM     18  CE1 PHE B 178      -0.022 -30.368   8.405  1.00 21.58 LIG 0.00  A 
ATOM     19  CD1 PHE B 178       1.047 -31.160   8.814  1.00 21.72 LIG 0.01  A 
ENDBRANCH 13 14
ENDBRANCH 12 13
BRANCH 12 20
ATOM     20  C   PHE B 178       4.036 -31.909  12.269  1.00 24.87 LIG 0.20  C 
ATOM     21 OXT  PHE B 178       5.201 -32.307  12.166  1.00 27.82 LIG-0.65  OA
ATOM     22 O    PHE B 178       3.691 -31.275  13.265  1.00 30.25 LIG-0.65  OA
ENDBRANCH 12 20
ENDBRANCH 10 12
ENDBRANCH 4 8
BRANCH 1 23
ATOM     23  CA  ILE B 176      -2.062 -35.687  14.180  1.00 23.71 LIG 0.18  C 
BRANCH 23 24
ATOM     24  N   ILE B 176      -0.985 -35.725  15.159  1.00 24.90 LIG-0.34  N 
ATOM     25  C   ASP B 175       0.123 -36.430  14.935  1.00 27.89 LIG 0.26  C 
ATOM     26 O    ASP B 175       0.301 -37.070  13.899  1.00 29.58 LIG-0.27  OA
ATOM     27 H    ILE B 176      -1.130 -35.264  15.871  1.00 24.90 LIG 0.16  HD
BRANCH 25 28
ATOM     28  CA  ASP B 175       1.188 -36.432  16.040  1.00 34.92 LIG 0.41  C 
ATOM     29  N   ASP B 175       2.565 -36.737  15.539  1.00 43.46 LIG 0.61  N 
BRANCH 28 30
ATOM     30  CB  ASP B 175       1.188 -35.084  16.784  1.00 38.90 LIG 0.16  C 
BRANCH 30 31
ATOM     31  CG  ASP B 175       2.280 -34.124  16.289  1.00 38.28 LIG 0.17  C 
ATOM     32 OD2  ASP B 175       3.254 -33.883  17.052  1.00 42.70 LIG-0.65  OA
ATOM     33 OD1  ASP B 175       2.185 -33.631  15.136  1.00 44.78 LIG-0.65  OA
ENDBRANCH 30 31
ENDBRANCH 28 30
ENDBRANCH 25 28
ENDBRANCH 23 24
BRANCH 23 34
ATOM     34  CB  ILE B 176      -3.375 -35.147  14.767  1.00 23.83 LIG 0.01  C 
ATOM     35  CG2 ILE B 176      -3.212 -34.909  16.251  1.00 26.43 LIG 0.01  C 
BRANCH 34 36
ATOM     36  CG1 ILE B 176      -3.773 -33.851  14.039  1.00 26.50 LIG 0.00  C 
ATOM     37  CD1 ILE B 176      -3.816 -32.635  14.929  1.00 30.68 LIG 0.01  C 
ENDBRANCH 34 36
ENDBRANCH 23 34
ENDBRANCH 1 23
TORSDOF 12
ENDMDL
MODEL 14
USER: ADFR SOLUTION from run 163
USER: SCORE 14.455602 LL:  -3.756 LR: -10.898 RR:   0.000 FEB:  -7.319
USER: RMSD 7.539190
USER: SEED 162
USER: STATUS no improvement in best in 10 clusters for 5 generations
USER: GENES 14
USER: genes 0 Translation |==|  0.56754 0.35112 0.42970
USER: genes 1 Rotation |==|  0.19461 0.27420 0.21325 0.65339
USER: genes 2 Torsion [N]-CA--C-[O] |==|  0.70864
USER: genes 3 Torsion [C]-N--CA-[CB] |==|  0.24779
USER: genes 4 Torsion [N]-CA--CB-[CG] |==|  0.16854
USER: genes 5 Torsion [CA]-CB--CG-[CD2] |==|  0.39410
USER: genes 6 Torsion [N]-CA--C-[O] |==|  0.37418
USER: genes 7 Torsion [N]-C--CA-[N] |==|  0.48333
USER: genes 8 Torsion [C]-CA--N-[C] |==|  0.56817
USER: genes 9 Torsion [N]-C--CA-[N] |==|  0.59811
USER: genes 10 Torsion [C]-CA--CB-[CG] |==|  0.82992
USER: genes 11 Torsion [CA]-CB--CG-[OD2] |==|  0.83509
USER: genes 12 Torsion [C]-CA--CB-[CG1] |==|  0.72199
USER: genes 13 Torsion [CA]-CB--CG1-[CD1] |==|  0.55752
ROOT
ATOM      1  C   ILE B 176       0.573 -33.160  12.879  1.00 22.90 LIG 0.24  C 
ATOM      2 O    ILE B 176       0.858 -32.470  13.874  1.00 27.22 LIG-0.27  OA
ATOM      3  N   PRO B 177       0.572 -32.651  11.636  1.00 22.83 LIG-0.34  N 
ATOM      4  CA  PRO B 177       1.021 -31.278  11.345  1.00 24.67 LIG 0.18  C 
ATOM      5  CB  PRO B 177       1.422 -31.354   9.869  1.00 26.20 LIG 0.04  C 
ATOM      6  CG  PRO B 177       0.438 -32.343   9.317  1.00 24.14 LIG 0.02  C 
ATOM      7  CD  PRO B 177       0.278 -33.396  10.391  1.00 21.80 LIG 0.13  C 
ENDROOT
BRANCH 4 8
ATOM      8  C   PRO B 177      -0.063 -30.217  11.549  1.00 25.32 LIG 0.24  C 
ATOM      9 O    PRO B 177      -0.615 -29.708  10.571  1.00 32.00 LIG-0.27  OA
ATOM     10  N   PHE B 178      -0.346 -29.870  12.795  1.00 24.88 LIG-0.34  N 
ATOM     11 H    PHE B 178       0.007 -30.246  13.483  1.00 24.88 LIG 0.16  HD
BRANCH 10 12
ATOM     12  CA  PHE B 178      -1.293 -28.806  13.124  1.00 25.09 LIG 0.19  C 
BRANCH 12 13
ATOM     13  CB  PHE B 178      -2.741 -29.330  13.261  1.00 24.80 LIG 0.07  C 
BRANCH 13 14
ATOM     14  CG  PHE B 178      -2.925 -30.370  14.353  1.00 21.99 LIG-0.06  A 
ATOM     15  CD2 PHE B 178      -4.075 -30.409  15.164  1.00 23.17 LIG 0.01  A 
ATOM     16  CE2 PHE B 178      -4.221 -31.384  16.169  1.00 21.52 LIG 0.00  A 
ATOM     17  CZ  PHE B 178      -3.231 -32.316  16.331  1.00 22.39 LIG 0.00  A 
ATOM     18  CE1 PHE B 178      -2.101 -32.317  15.534  1.00 21.58 LIG 0.00  A 
ATOM     19  CD1 PHE B 178      -1.958 -31.355  14.537  1.00 21.72 LIG 0.01  A 
ENDBRANCH 13 14
ENDBRANCH 12 13
BRANCH 12 20
ATOM     20  C   PHE B 178      -0.815 -28.075  14.367  1.00 24.87 LIG 0.20  C 
ATOM     21 OXT  PHE B 178      -0.454 -28.741  15.344  1.00 27.82 LIG-0.65  OA
ATOM     22 O    PHE B 178      -0.816 -26.846  14.431  1.00 30.25 LIG-0.65  OA
ENDBRANCH 12 20
ENDBRANCH 10 12
ENDBRANCH 4 8
BRANCH 1 23
ATOM     23  CA  ILE B 176       0.215 -34.634  13.058  1.00 23.71 LIG 0.18  C 
BRANCH 23 24
ATOM     24  N   ILE B 176       0.429 -34.968  14.459  1.00 24.90 LIG-0.34  N 
ATOM     25  C   ASP B 175       0.674 -36.221  14.837  1.00 27.89 LIG 0.26  C 
ATOM     26 O    ASP B 175       0.745 -37.152  14.035  1.00 29.58 LIG-0.27  OA
ATOM     27 H    ILE B 176       0.383 -34.299  14.999  1.00 24.90 LIG 0.16  HD
BRANCH 25 28
ATOM     28  CA  ASP B 175       0.858 -36.476  16.339  1.00 34.92 LIG 0.41  C 
ATOM     29  N   ASP B 175       1.872 -37.534  16.644  1.00 43.46 LIG 0.61  N 
BRANCH 28 30
ATOM     30  CB  ASP B 175       1.230 -35.169  17.062  1.00 38.90 LIG 0.16  C 
BRANCH 30 31
ATOM     31  CG  ASP B 175       2.550 -34.563  16.565  1.00 38.28 LIG 0.17  C 
ATOM     32 OD2  ASP B 175       3.601 -35.254  16.664  1.00 42.70 LIG-0.65  OA
ATOM     33 OD1  ASP B 175       2.541 -33.413  16.054  1.00 44.78 LIG-0.65  OA
ENDBRANCH 30 31
ENDBRANCH 28 30
ENDBRANCH 25 28
ENDBRANCH 23 24
BRANCH 23 34
ATOM     34  CB  ILE B 176      -1.224 -34.914  12.597  1.00 23.83 LIG 0.01  C 
ATOM     35  CG2 ILE B 176      -1.267 -36.206  11.812  1.00 26.43 LIG 0.01  C 
BRANCH 34 36
ATOM     36  CG1 ILE B 176      -2.156 -34.977  13.818  1.00 26.50 LIG 0.00  C 
ATOM     37  CD1 ILE B 176      -3.449 -35.711  13.568  1.00 30.68 LIG 0.01  C 
ENDBRANCH 34 36
ENDBRANCH 23 34
ENDBRANCH 1 23
TORSDOF 12
ENDMDL
MODEL 15
USER: ADFR SOLUTION from run 111
USER: SCORE 13.695014 LL:  -3.109 LR: -10.875 RR:   0.000 FEB:  -7.295
USER: RMSD 3.942419
USER: SEED 110
USER: STATUS no improvement in best in 17 clusters for 5 generations
USER: GENES 14
USER: genes 0 Translation |==|  0.40053 0.48761 0.43831
USER: genes 1 Rotation |==|  0.66755 0.15737 0.78997 0.64299
USER: genes 2 Torsion [N]-CA--C-[O] |==|  0.62700
USER: genes 3 Torsion [C]-N--CA-[CB] |==|  0.79102
USER: genes 4 Torsion [N]-CA--CB-[CG] |==|  0.00678
USER: genes 5 Torsion [CA]-CB--CG-[CD2] |==|  0.79126
USER: genes 6 Torsion [N]-CA--C-[O] |==|  0.60339
USER: genes 7 Torsion [N]-C--CA-[N] |==|  0.85036
USER: genes 8 Torsion [C]-CA--N-[C] |==|  0.81898
USER: genes 9 Torsion [N]-C--CA-[N] |==|  0.01900
USER: genes 10 Torsion [C]-CA--CB-[CG] |==|  0.92482
USER: genes 11 Torsion [CA]-CB--CG-[OD2] |==|  0.37416
USER: genes 12 Torsion [C]-CA--CB-[CG1] |==|  0.60258
USER: genes 13 Torsion [CA]-CB--CG1-[CD1] |==|  0.35157
ROOT
ATOM      1  C   ILE B 176      -1.932 -30.294  13.021  1.00 22.90 LIG 0.24  C 
ATOM      2 O    ILE B 176      -2.698 -30.997  13.705  1.00 27.22 LIG-0.27  OA
ATOM      3  N   PRO B 177      -0.949 -30.828  12.279  1.00 22.83 LIG-0.34  N 
ATOM      4  CA  PRO B 177      -0.779 -32.284  12.123  1.00 24.67 LIG 0.18  C 
ATOM      5  CB  PRO B 177      -0.014 -32.400  10.801  1.00 26.20 LIG 0.04  C 
ATOM      6  CG  PRO B 177       0.850 -31.175  10.817  1.00 24.14 LIG 0.02  C 
ATOM      7  CD  PRO B 177      -0.010 -30.082  11.411  1.00 21.80 LIG 0.13  C 
ENDROOT
BRANCH 4 8
ATOM      8  C   PRO B 177       0.016 -32.938  13.256  1.00 25.32 LIG 0.24  C 
ATOM      9 O    PRO B 177       0.906 -33.747  12.993  1.00 32.00 LIG-0.27  OA
ATOM     10  N   PHE B 178      -0.317 -32.613  14.496  1.00 24.88 LIG-0.34  N 
ATOM     11 H    PHE B 178      -0.912 -32.021  14.687  1.00 24.88 LIG 0.16  HD
BRANCH 10 12
ATOM     12  CA  PHE B 178       0.298 -33.233  15.668  1.00 25.09 LIG 0.19  C 
BRANCH 12 13
ATOM     13  CB  PHE B 178      -0.223 -34.667  15.916  1.00 24.80 LIG 0.07  C 
BRANCH 13 14
ATOM     14  CG  PHE B 178      -1.212 -35.159  14.872  1.00 21.99 LIG-0.06  A 
ATOM     15  CD2 PHE B 178      -2.546 -34.711  14.834  1.00 23.17 LIG 0.01  A 
ATOM     16  CE2 PHE B 178      -3.441 -35.183  13.855  1.00 21.52 LIG 0.00  A 
ATOM     17  CZ  PHE B 178      -2.985 -36.072  12.920  1.00 22.39 LIG 0.00  A 
ATOM     18  CE1 PHE B 178      -1.674 -36.512  12.918  1.00 21.58 LIG 0.00  A 
ATOM     19  CD1 PHE B 178      -0.787 -36.042  13.882  1.00 21.72 LIG 0.01  A 
ENDBRANCH 13 14
ENDBRANCH 12 13
BRANCH 12 20
ATOM     20  C   PHE B 178       1.810 -33.175  15.531  1.00 24.87 LIG 0.20  C 
ATOM     21 OXT  PHE B 178       2.318 -32.189  14.987  1.00 27.82 LIG-0.65  OA
ATOM     22 O    PHE B 178       2.527 -34.100  15.914  1.00 30.25 LIG-0.65  OA
ENDBRANCH 12 20
ENDBRANCH 10 12
ENDBRANCH 4 8
BRANCH 1 23
ATOM     23  CA  ILE B 176      -2.103 -28.777  13.012  1.00 23.71 LIG 0.18  C 
BRANCH 23 24
ATOM     24  N   ILE B 176      -0.817 -28.190  13.363  1.00 24.90 LIG-0.34  N 
ATOM     25  C   ASP B 175      -0.284 -28.376  14.569  1.00 27.89 LIG 0.26  C 
ATOM     26 O    ASP B 175      -0.833 -29.052  15.438  1.00 29.58 LIG-0.27  OA
ATOM     27 H    ILE B 176      -0.450 -27.729  12.736  1.00 24.90 LIG 0.16  HD
BRANCH 25 28
ATOM     28  CA  ASP B 175       1.061 -27.694  14.852  1.00 34.92 LIG 0.41  C 
ATOM     29  N   ASP B 175       1.504 -26.772  13.759  1.00 43.46 LIG 0.61  N 
BRANCH 28 30
ATOM     30  CB  ASP B 175       1.002 -26.932  16.189  1.00 38.90 LIG 0.16  C 
BRANCH 30 31
ATOM     31  CG  ASP B 175      -0.417 -26.474  16.557  1.00 38.28 LIG 0.17  C 
ATOM     32 OD2  ASP B 175      -0.815 -26.654  17.740  1.00 42.70 LIG-0.65  OA
ATOM     33 OD1  ASP B 175      -1.125 -25.913  15.682  1.00 44.78 LIG-0.65  OA
ENDBRANCH 30 31
ENDBRANCH 28 30
ENDBRANCH 25 28
ENDBRANCH 23 24
BRANCH 23 34
ATOM     34  CB  ILE B 176      -2.625 -28.287  11.652  1.00 23.83 LIG 0.01  C 
ATOM     35  CG2 ILE B 176      -4.132 -28.163  11.697  1.00 26.43 LIG 0.01  C 
BRANCH 34 36
ATOM     36  CG1 ILE B 176      -1.970 -26.940  11.301  1.00 26.50 LIG 0.00  C 
ATOM     37  CD1 ILE B 176      -1.304 -26.914   9.949  1.00 30.68 LIG 0.01  C 
ENDBRANCH 34 36
ENDBRANCH 23 34
ENDBRANCH 1 23
TORSDOF 12
ENDMDL
MODEL 16
USER: ADFR SOLUTION from run 20
USER: SCORE 15.331378 LL:  -4.623 LR: -10.869 RR:   0.000 FEB:  -7.290
USER: RMSD 5.467329
USER: SEED 19
USER: STATUS no improvement in best in 9 clusters for 5 generations
USER: GENES 14
USER: genes 0 Translation |==|  0.36942 0.33589 0.77961
USER: genes 1 Rotation |==|  0.82546 0.24071 0.62709 0.74637
USER: genes 2 Torsion [N]-CA--C-[O] |==|  0.42771
USER: genes 3 Torsion [C]-N--CA-[CB] |==|  0.14857
USER: genes 4 Torsion [N]-CA--CB-[CG] |==|  0.08453
USER: genes 5 Torsion [CA]-CB--CG-[CD2] |==|  0.11322
USER: genes 6 Torsion [N]-CA--C-[O] |==|  0.85879
USER: genes 7 Torsion [N]-C--CA-[N] |==|  0.86111
USER: genes 8 Torsion [C]-CA--N-[C] |==|  0.83153
USER: genes 9 Torsion [N]-C--CA-[N] |==|  0.56105
USER: genes 10 Torsion [C]-CA--CB-[CG] |==|  0.27716
USER: genes 11 Torsion [CA]-CB--CG-[OD2] |==|  0.43420
USER: genes 12 Torsion [C]-CA--CB-[CG1] |==|  0.58811
USER: genes 13 Torsion [CA]-CB--CG1-[CD1] |==|  0.75415
ROOT
ATOM      1  C   ILE B 176      -2.399 -33.480  18.653  1.00 22.90 LIG 0.24  C 
ATOM      2 O    ILE B 176      -2.252 -34.470  19.393  1.00 27.22 LIG-0.27  OA
ATOM      3  N   PRO B 177      -2.529 -33.600  17.322  1.00 22.83 LIG-0.34  N 
ATOM      4  CA  PRO B 177      -2.630 -34.910  16.653  1.00 24.67 LIG 0.18  C 
ATOM      5  CB  PRO B 177      -3.351 -34.573  15.345  1.00 26.20 LIG 0.04  C 
ATOM      6  CG  PRO B 177      -2.830 -33.202  15.032  1.00 24.14 LIG 0.02  C 
ATOM      7  CD  PRO B 177      -2.738 -32.492  16.363  1.00 21.80 LIG 0.13  C 
ENDROOT
BRANCH 4 8
ATOM      8  C   PRO B 177      -1.275 -35.561  16.362  1.00 25.32 LIG 0.24  C 
ATOM      9 O    PRO B 177      -1.191 -36.786  16.268  1.00 32.00 LIG-0.27  OA
ATOM     10  N   PHE B 178      -0.228 -34.757  16.247  1.00 24.88 LIG-0.34  N 
ATOM     11 H    PHE B 178      -0.285 -33.900  16.274  1.00 24.88 LIG 0.16  HD
BRANCH 10 12
ATOM     12  CA  PHE B 178       1.133 -35.255  16.061  1.00 25.09 LIG 0.19  C 
BRANCH 12 13
ATOM     13  CB  PHE B 178       1.245 -36.228  14.865  1.00 24.80 LIG 0.07  C 
BRANCH 13 14
ATOM     14  CG  PHE B 178       0.260 -35.949  13.742  1.00 21.99 LIG-0.06  A 
ATOM     15  CD2 PHE B 178      -0.041 -34.641  13.317  1.00 23.17 LIG 0.01  A 
ATOM     16  CE2 PHE B 178      -0.957 -34.411  12.272  1.00 21.52 LIG 0.00  A 
ATOM     17  CZ  PHE B 178      -1.536 -35.488  11.656  1.00 22.39 LIG 0.00  A 
ATOM     18  CE1 PHE B 178      -1.242 -36.784  12.036  1.00 21.58 LIG 0.00  A 
ATOM     19  CD1 PHE B 178      -0.333 -37.012  13.065  1.00 21.72 LIG 0.01  A 
ENDBRANCH 13 14
ENDBRANCH 12 13
BRANCH 12 20
ATOM     20  C   PHE B 178       2.087 -34.078  15.948  1.00 24.87 LIG 0.20  C 
ATOM     21 OXT  PHE B 178       3.075 -34.043  16.689  1.00 27.82 LIG-0.65  OA
ATOM     22 O    PHE B 178       1.876 -33.151  15.166  1.00 30.25 LIG-0.65  OA
ENDBRANCH 12 20
ENDBRANCH 10 12
ENDBRANCH 4 8
BRANCH 1 23
ATOM     23  CA  ILE B 176      -2.436 -32.079  19.260  1.00 23.71 LIG 0.18  C 
BRANCH 23 24
ATOM     24  N   ILE B 176      -1.501 -31.253  18.509  1.00 24.90 LIG-0.34  N 
ATOM     25  C   ASP B 175      -0.205 -31.554  18.459  1.00 27.89 LIG 0.26  C 
ATOM     26 O    ASP B 175       0.267 -32.538  19.026  1.00 29.58 LIG-0.27  OA
ATOM     27 H    ILE B 176      -1.857 -30.576  18.115  1.00 24.90 LIG 0.16  HD
BRANCH 25 28
ATOM     28  CA  ASP B 175       0.704 -30.607  17.665  1.00 34.92 LIG 0.41  C 
ATOM     29  N   ASP B 175       1.982 -31.244  17.217  1.00 43.46 LIG 0.61  N 
BRANCH 28 30
ATOM     30  CB  ASP B 175      -0.051 -30.034  16.451  1.00 38.90 LIG 0.16  C 
BRANCH 30 31
ATOM     31  CG  ASP B 175      -0.587 -28.616  16.692  1.00 38.28 LIG 0.17  C 
ATOM     32 OD2  ASP B 175      -0.806 -27.881  15.690  1.00 42.70 LIG-0.65  OA
ATOM     33 OD1  ASP B 175      -0.816 -28.240  17.870  1.00 44.78 LIG-0.65  OA
ENDBRANCH 30 31
ENDBRANCH 28 30
ENDBRANCH 25 28
ENDBRANCH 23 24
BRANCH 23 34
ATOM     34  CB  ILE B 176      -3.864 -31.511  19.254  1.00 23.83 LIG 0.01  C 
ATOM     35  CG2 ILE B 176      -4.573 -31.898  20.532  1.00 26.43 LIG 0.01  C 
BRANCH 34 36
ATOM     36  CG1 ILE B 176      -3.812 -29.983  19.090  1.00 26.50 LIG 0.00  C 
ATOM     37  CD1 ILE B 176      -3.703 -29.229  20.392  1.00 30.68 LIG 0.01  C 
ENDBRANCH 34 36
ENDBRANCH 23 34
ENDBRANCH 1 23
TORSDOF 12
ENDMDL
MODEL 17
USER: ADFR SOLUTION from run 192
USER: SCORE 14.576224 LL:  -3.830 LR: -10.821 RR:   0.000 FEB:  -7.241
USER: RMSD 6.409154
USER: SEED 191
USER: STATUS no improvement in best in 10 clusters for 5 generations
USER: GENES 14
USER: genes 0 Translation |==|  0.40393 0.26671 0.50892
USER: genes 1 Rotation |==|  0.64368 0.55535 0.02552 0.53404
USER: genes 2 Torsion [N]-CA--C-[O] |==|  0.41291
USER: genes 3 Torsion [C]-N--CA-[CB] |==|  0.29247
USER: genes 4 Torsion [N]-CA--CB-[CG] |==|  0.72790
USER: genes 5 Torsion [CA]-CB--CG-[CD2] |==|  0.09384
USER: genes 6 Torsion [N]-CA--C-[O] |==|  0.37925
USER: genes 7 Torsion [N]-C--CA-[N] |==|  0.87778
USER: genes 8 Torsion [C]-CA--N-[C] |==|  0.81822
USER: genes 9 Torsion [N]-C--CA-[N] |==|  0.74404
USER: genes 10 Torsion [C]-CA--CB-[CG] |==|  0.73268
USER: genes 11 Torsion [CA]-CB--CG-[OD2] |==|  0.59905
USER: genes 12 Torsion [C]-CA--CB-[CG1] |==|  0.28123
USER: genes 13 Torsion [CA]-CB--CG1-[CD1] |==|  0.49510
ROOT
ATOM      1  C   ILE B 176      -1.881 -34.933  14.186  1.00 22.90 LIG 0.24  C 
ATOM      2 O    ILE B 176      -3.069 -35.267  14.027  1.00 27.22 LIG-0.27  OA
ATOM      3  N   PRO B 177      -1.379 -34.649  15.398  1.00 22.83 LIG-0.34  N 
ATOM      4  CA  PRO B 177      -2.157 -34.827  16.637  1.00 24.67 LIG 0.18  C 
ATOM      5  CB  PRO B 177      -1.070 -34.986  17.705  1.00 26.20 LIG 0.04  C 
ATOM      6  CG  PRO B 177       0.019 -34.091  17.195  1.00 24.14 LIG 0.02  C 
ATOM      7  CD  PRO B 177       0.023 -34.274  15.694  1.00 21.80 LIG 0.13  C 
ENDROOT
BRANCH 4 8
ATOM      8  C   PRO B 177      -3.063 -33.640  16.973  1.00 25.32 LIG 0.24  C 
ATOM      9 O    PRO B 177      -4.127 -33.828  17.566  1.00 32.00 LIG-0.27  OA
ATOM     10  N   PHE B 178      -2.662 -32.440  16.580  1.00 24.88 LIG-0.34  N 
ATOM     11 H    PHE B 178      -1.905 -32.295  16.199  1.00 24.88 LIG 0.16  HD
BRANCH 10 12
ATOM     12  CA  PHE B 178      -3.475 -31.238  16.755  1.00 25.09 LIG 0.19  C 
BRANCH 12 13
ATOM     13  CB  PHE B 178      -2.952 -30.337  17.898  1.00 24.80 LIG 0.07  C 
BRANCH 13 14
ATOM     14  CG  PHE B 178      -3.681 -30.520  19.218  1.00 21.99 LIG-0.06  A 
ATOM     15  CD2 PHE B 178      -4.189 -31.767  19.627  1.00 23.17 LIG 0.01  A 
ATOM     16  CE2 PHE B 178      -4.861 -31.909  20.857  1.00 21.52 LIG 0.00  A 
ATOM     17  CZ  PHE B 178      -4.992 -30.812  21.665  1.00 22.39 LIG 0.00  A 
ATOM     18  CE1 PHE B 178      -4.483 -29.579  21.300  1.00 21.58 LIG 0.00  A 
ATOM     19  CD1 PHE B 178      -3.815 -29.440  20.087  1.00 21.72 LIG 0.01  A 
ENDBRANCH 13 14
ENDBRANCH 12 13
BRANCH 12 20
ATOM     20  C   PHE B 178      -3.577 -30.502  15.430  1.00 24.87 LIG 0.20  C 
ATOM     21 OXT  PHE B 178      -2.551 -30.346  14.759  1.00 27.82 LIG-0.65  OA
ATOM     22 O    PHE B 178      -4.645 -30.034  15.035  1.00 30.25 LIG-0.65  OA
ENDBRANCH 12 20
ENDBRANCH 10 12
ENDBRANCH 4 8
BRANCH 1 23
ATOM     23  CA  ILE B 176      -0.952 -34.841  12.978  1.00 23.71 LIG 0.18  C 
BRANCH 23 24
ATOM     24  N   ILE B 176      -0.178 -33.616  13.115  1.00 24.90 LIG-0.34  N 
ATOM     25  C   ASP B 175      -0.765 -32.422  13.065  1.00 27.89 LIG 0.26  C 
ATOM     26 O    ASP B 175      -1.979 -32.289  12.914  1.00 29.58 LIG-0.27  OA
ATOM     27 H    ILE B 176       0.667 -33.735  13.228  1.00 24.90 LIG 0.16  HD
BRANCH 25 28
ATOM     28  CA  ASP B 175       0.139 -31.189  13.192  1.00 34.92 LIG 0.41  C 
ATOM     29  N   ASP B 175       0.289 -30.702  14.599  1.00 43.46 LIG 0.61  N 
BRANCH 28 30
ATOM     30  CB  ASP B 175       1.525 -31.479  12.587  1.00 38.90 LIG 0.16  C 
BRANCH 30 31
ATOM     31  CG  ASP B 175       2.561 -31.908  13.636  1.00 38.28 LIG 0.17  C 
ATOM     32 OD2  ASP B 175       3.756 -31.534  13.485  1.00 42.70 LIG-0.65  OA
ATOM     33 OD1  ASP B 175       2.185 -32.594  14.622  1.00 44.78 LIG-0.65  OA
ENDBRANCH 30 31
ENDBRANCH 28 30
ENDBRANCH 25 28
ENDBRANCH 23 24
BRANCH 23 34
ATOM     34  CB  ILE B 176      -0.065 -36.091  12.865  1.00 23.83 LIG 0.01  C 
ATOM     35  CG2 ILE B 176       0.014 -36.784  14.207  1.00 26.43 LIG 0.01  C 
BRANCH 34 36
ATOM     36  CG1 ILE B 176      -0.632 -37.032  11.789  1.00 26.50 LIG 0.00  C 
ATOM     37  CD1 ILE B 176       0.189 -38.277  11.566  1.00 30.68 LIG 0.01  C 
ENDBRANCH 34 36
ENDBRANCH 23 34
ENDBRANCH 1 23
TORSDOF 12
ENDMDL
MODEL 18
USER: ADFR SOLUTION from run 36
USER: SCORE 13.610219 LL:  -3.015 LR: -10.782 RR:   0.000 FEB:  -7.202
USER: RMSD 7.713819
USER: SEED 35
USER: STATUS no improvement in best in 15 clusters for 5 generations
USER: GENES 14
USER: genes 0 Translation |==|  0.42124 0.28295 0.45181
USER: genes 1 Rotation |==|  0.20530 0.86211 0.60643 0.64386
USER: genes 2 Torsion [N]-CA--C-[O] |==|  0.18112
USER: genes 3 Torsion [C]-N--CA-[CB] |==|  0.20665
USER: genes 4 Torsion [N]-CA--CB-[CG] |==|  0.53999
USER: genes 5 Torsion [CA]-CB--CG-[CD2] |==|  0.14964
USER: genes 6 Torsion [N]-CA--C-[O] |==|  0.36793
USER: genes 7 Torsion [N]-C--CA-[N] |==|  0.86337
USER: genes 8 Torsion [C]-CA--N-[C] |==|  0.81580
USER: genes 9 Torsion [N]-C--CA-[N] |==|  0.54837
USER: genes 10 Torsion [C]-CA--CB-[CG] |==|  0.74384
USER: genes 11 Torsion [CA]-CB--CG-[OD2] |==|  0.17723
USER: genes 12 Torsion [C]-CA--CB-[CG1] |==|  0.00038
USER: genes 13 Torsion [CA]-CB--CG1-[CD1] |==|  0.64216
ROOT
ATOM      1  C   ILE B 176      -1.621 -34.592  13.244  1.00 22.90 LIG 0.24  C 
ATOM      2 O    ILE B 176      -1.795 -34.986  12.077  1.00 27.22 LIG-0.27  OA
ATOM      3  N   PRO B 177      -0.983 -33.443  13.519  1.00 22.83 LIG-0.34  N 
ATOM      4  CA  PRO B 177      -0.550 -32.509  12.465  1.00 24.67 LIG 0.18  C 
ATOM      5  CB  PRO B 177      -0.465 -31.171  13.206  1.00 26.20 LIG 0.04  C 
ATOM      6  CG  PRO B 177      -0.018 -31.587  14.575  1.00 24.14 LIG 0.02  C 
ATOM      7  CD  PRO B 177      -0.755 -32.875  14.867  1.00 21.80 LIG 0.13  C 
ENDROOT
BRANCH 4 8
ATOM      8  C   PRO B 177       0.805 -32.861  11.846  1.00 25.32 LIG 0.24  C 
ATOM      9 O    PRO B 177       0.932 -33.903  11.201  1.00 32.00 LIG-0.27  OA
ATOM     10  N   PHE B 178       1.806 -32.020  12.058  1.00 24.88 LIG-0.34  N 
ATOM     11 H    PHE B 178       1.717 -31.273  12.475  1.00 24.88 LIG 0.16  HD
BRANCH 10 12
ATOM     12  CA  PHE B 178       3.170 -32.284  11.602  1.00 25.09 LIG 0.19  C 
BRANCH 12 13
ATOM     13  CB  PHE B 178       3.325 -32.093  10.076  1.00 24.80 LIG 0.07  C 
BRANCH 13 14
ATOM     14  CG  PHE B 178       4.606 -32.677   9.503  1.00 21.99 LIG-0.06  A 
ATOM     15  CD2 PHE B 178       4.976 -34.019   9.711  1.00 23.17 LIG 0.01  A 
ATOM     16  CE2 PHE B 178       6.168 -34.534   9.168  1.00 21.52 LIG 0.00  A 
ATOM     17  CZ  PHE B 178       6.956 -33.711   8.408  1.00 22.39 LIG 0.00  A 
ATOM     18  CE1 PHE B 178       6.606 -32.395   8.168  1.00 21.58 LIG 0.00  A 
ATOM     19  CD1 PHE B 178       5.425 -31.886   8.701  1.00 21.72 LIG 0.01  A 
ENDBRANCH 13 14
ENDBRANCH 12 13
BRANCH 12 20
ATOM     20  C   PHE B 178       4.140 -31.430  12.401  1.00 24.87 LIG 0.20  C 
ATOM     21 OXT  PHE B 178       3.909 -30.221  12.515  1.00 27.82 LIG-0.65  OA
ATOM     22 O    PHE B 178       5.159 -31.909  12.898  1.00 30.25 LIG-0.65  OA
ENDBRANCH 12 20
ENDBRANCH 10 12
ENDBRANCH 4 8
BRANCH 1 23
ATOM     23  CA  ILE B 176      -2.146 -35.426  14.411  1.00 23.71 LIG 0.18  C 
BRANCH 23 24
ATOM     24  N   ILE B 176      -1.059 -35.566  15.370  1.00 24.90 LIG-0.34  N 
ATOM     25  C   ASP B 175       0.039 -36.256  15.068  1.00 27.89 LIG 0.26  C 
ATOM     26 O    ASP B 175       0.201 -36.796  13.973  1.00 29.58 LIG-0.27  OA
ATOM     27 H    ILE B 176      -1.192 -35.174  16.123  1.00 24.90 LIG 0.16  HD
BRANCH 25 28
ATOM     28  CA  ASP B 175       1.116 -36.371  16.155  1.00 34.92 LIG 0.41  C 
ATOM     29  N   ASP B 175       2.454 -36.784  15.626  1.00 43.46 LIG 0.61  N 
BRANCH 28 30
ATOM     30  CB  ASP B 175       1.243 -35.043  16.923  1.00 38.90 LIG 0.16  C 
BRANCH 30 31
ATOM     31  CG  ASP B 175       2.308 -34.107  16.333  1.00 38.28 LIG 0.17  C 
ATOM     32 OD2  ASP B 175       2.136 -33.666  15.164  1.00 42.70 LIG-0.65  OA
ATOM     33 OD1  ASP B 175       3.301 -33.790  17.037  1.00 44.78 LIG-0.65  OA
ENDBRANCH 30 31
ENDBRANCH 28 30
ENDBRANCH 25 28
ENDBRANCH 23 24
BRANCH 23 34
ATOM     34  CB  ILE B 176      -3.400 -34.788  15.028  1.00 23.83 LIG 0.01  C 
ATOM     35  CG2 ILE B 176      -3.163 -34.513  16.496  1.00 26.43 LIG 0.01  C 
BRANCH 34 36
ATOM     36  CG1 ILE B 176      -3.747 -33.494  14.272  1.00 26.50 LIG 0.00  C 
ATOM     37  CD1 ILE B 176      -3.947 -32.295  15.164  1.00 30.68 LIG 0.01  C 
ENDBRANCH 34 36
ENDBRANCH 23 34
ENDBRANCH 1 23
TORSDOF 12
ENDMDL
MODEL 19
USER: ADFR SOLUTION from run 114
USER: SCORE 13.001683 LL:  -2.498 LR: -10.769 RR:   0.000 FEB:  -7.190
USER: RMSD 7.887339
USER: SEED 113
USER: STATUS no improvement in best in 20 clusters for 5 generations
USER: GENES 14
USER: genes 0 Translation |==|  0.49225 0.33210 0.51977
USER: genes 1 Rotation |==|  0.07780 0.51206 0.74764 0.60134
USER: genes 2 Torsion [N]-CA--C-[O] |==|  0.82045
USER: genes 3 Torsion [C]-N--CA-[CB] |==|  0.34633
USER: genes 4 Torsion [N]-CA--CB-[CG] |==|  0.49232
USER: genes 5 Torsion [CA]-CB--CG-[CD2] |==|  0.66706
USER: genes 6 Torsion [N]-CA--C-[O] |==|  0.25423
USER: genes 7 Torsion [N]-C--CA-[N] |==|  0.86468
USER: genes 8 Torsion [C]-CA--N-[C] |==|  0.77222
USER: genes 9 Torsion [N]-C--CA-[N] |==|  0.89156
USER: genes 10 Torsion [C]-CA--CB-[CG] |==|  0.15851
USER: genes 11 Torsion [CA]-CB--CG-[OD2] |==|  0.63375
USER: genes 12 Torsion [C]-CA--CB-[CG1] |==|  0.42473
USER: genes 13 Torsion [CA]-CB--CG1-[CD1] |==|  0.21687
ROOT
ATOM      1  C   ILE B 176      -0.556 -33.560  14.365  1.00 22.90 LIG 0.24  C 
ATOM      2 O    ILE B 176      -0.513 -33.282  13.153  1.00 27.22 LIG-0.27  OA
ATOM      3  N   PRO B 177      -1.562 -33.149  15.154  1.00 22.83 LIG-0.34  N 
ATOM      4  CA  PRO B 177      -2.744 -32.446  14.624  1.00 24.67 LIG 0.18  C 
ATOM      5  CB  PRO B 177      -3.815 -32.729  15.683  1.00 26.20 LIG 0.04  C 
ATOM      6  CG  PRO B 177      -3.015 -32.761  16.951  1.00 24.14 LIG 0.02  C 
ATOM      7  CD  PRO B 177      -1.719 -33.452  16.595  1.00 21.80 LIG 0.13  C 
ENDROOT
BRANCH 4 8
ATOM      8  C   PRO B 177      -2.544 -30.938  14.460  1.00 25.32 LIG 0.24  C 
ATOM      9 O    PRO B 177      -2.356 -30.232  15.453  1.00 32.00 LIG-0.27  OA
ATOM     10  N   PHE B 178      -2.609 -30.447  13.231  1.00 24.88 LIG-0.34  N 
ATOM     11 H    PHE B 178      -2.702 -30.937  12.531  1.00 24.88 LIG 0.16  HD
BRANCH 10 12
ATOM     12  CA  PHE B 178      -2.527 -29.016  12.946  1.00 25.09 LIG 0.19  C 
BRANCH 12 13
ATOM     13  CB  PHE B 178      -1.401 -28.681  11.941  1.00 24.80 LIG 0.07  C 
BRANCH 13 14
ATOM     14  CG  PHE B 178      -1.321 -27.211  11.563  1.00 21.99 LIG-0.06  A 
ATOM     15  CD2 PHE B 178      -1.474 -26.769  10.236  1.00 23.17 LIG 0.01  A 
ATOM     16  CE2 PHE B 178      -1.395 -25.401   9.914  1.00 21.52 LIG 0.00  A 
ATOM     17  CZ  PHE B 178      -1.190 -24.498  10.923  1.00 22.39 LIG 0.00  A 
ATOM     18  CE1 PHE B 178      -1.060 -24.901  12.239  1.00 21.58 LIG 0.00  A 
ATOM     19  CD1 PHE B 178      -1.142 -26.253  12.558  1.00 21.72 LIG 0.01  A 
ENDBRANCH 13 14
ENDBRANCH 12 13
BRANCH 12 20
ATOM     20  C   PHE B 178      -3.887 -28.516  12.490  1.00 24.87 LIG 0.20  C 
ATOM     21 OXT  PHE B 178      -4.149 -28.533  11.283  1.00 27.82 LIG-0.65  OA
ATOM     22 O    PHE B 178      -4.708 -28.066  13.289  1.00 30.25 LIG-0.65  OA
ENDBRANCH 12 20
ENDBRANCH 10 12
ENDBRANCH 4 8
BRANCH 1 23
ATOM     23  CA  ILE B 176       0.559 -34.395  14.991  1.00 23.71 LIG 0.18  C 
BRANCH 23 24
ATOM     24  N   ILE B 176       0.987 -33.712  16.203  1.00 24.90 LIG-0.34  N 
ATOM     25  C   ASP B 175       1.849 -32.698  16.153  1.00 27.89 LIG 0.26  C 
ATOM     26 O    ASP B 175       2.316 -32.279  15.095  1.00 29.58 LIG-0.27  OA
ATOM     27 H    ILE B 176       0.641 -34.018  16.929  1.00 24.90 LIG 0.16  HD
BRANCH 25 28
ATOM     28  CA  ASP B 175       2.261 -32.062  17.487  1.00 34.92 LIG 0.41  C 
ATOM     29  N   ASP B 175       1.134 -31.944  18.465  1.00 43.46 LIG 0.61  N 
BRANCH 28 30
ATOM     30  CB  ASP B 175       3.423 -32.851  18.119  1.00 38.90 LIG 0.16  C 
BRANCH 30 31
ATOM     31  CG  ASP B 175       4.649 -32.954  17.200  1.00 38.28 LIG 0.17  C 
ATOM     32 OD2  ASP B 175       5.182 -34.086  17.039  1.00 42.70 LIG-0.65  OA
ATOM     33 OD1  ASP B 175       5.067 -31.920  16.620  1.00 44.78 LIG-0.65  OA
ENDBRANCH 30 31
ENDBRANCH 28 30
ENDBRANCH 25 28
ENDBRANCH 23 24
BRANCH 23 34
ATOM     34  CB  ILE B 176       0.091 -35.834  15.256  1.00 23.83 LIG 0.01  C 
ATOM     35  CG2 ILE B 176      -0.944 -36.233  14.228  1.00 26.43 LIG 0.01  C 
BRANCH 34 36
ATOM     36  CG1 ILE B 176       1.298 -36.785  15.224  1.00 26.50 LIG 0.00  C 
ATOM     37  CD1 ILE B 176       2.135 -36.760  16.479  1.00 30.68 LIG 0.01  C 
ENDBRANCH 34 36
ENDBRANCH 23 34
ENDBRANCH 1 23
TORSDOF 12
ENDMDL
MODEL 20
USER: ADFR SOLUTION from run 89
USER: SCORE 14.262674 LL:  -3.810 LR: -10.620 RR:   0.000 FEB:  -7.040
USER: RMSD 6.745737
USER: SEED 88
USER: STATUS no improvement in best in 10 clusters for 5 generations
USER: GENES 14
USER: genes 0 Translation |==|  0.38742 0.32787 0.59213
USER: genes 1 Rotation |==|  0.88704 0.55954 0.72237 0.71727
USER: genes 2 Torsion [N]-CA--C-[O] |==|  0.63046
USER: genes 3 Torsion [C]-N--CA-[CB] |==|  0.34825
USER: genes 4 Torsion [N]-CA--CB-[CG] |==|  0.68542
USER: genes 5 Torsion [CA]-CB--CG-[CD2] |==|  0.97315
USER: genes 6 Torsion [N]-CA--C-[O] |==|  0.94054
USER: genes 7 Torsion [N]-C--CA-[N] |==|  0.45314
USER: genes 8 Torsion [C]-CA--N-[C] |==|  0.68889
USER: genes 9 Torsion [N]-C--CA-[N] |==|  0.81415
USER: genes 10 Torsion [C]-CA--CB-[CG] |==|  0.78198
USER: genes 11 Torsion [CA]-CB--CG-[OD2] |==|  0.80978
USER: genes 12 Torsion [C]-CA--CB-[CG1] |==|  0.93465
USER: genes 13 Torsion [CA]-CB--CG1-[CD1] |==|  0.78514
ROOT
ATOM      1  C   ILE B 176      -2.129 -33.649  15.559  1.00 22.90 LIG 0.24  C 
ATOM      2 O    ILE B 176      -1.062 -33.428  16.160  1.00 27.22 LIG-0.27  OA
ATOM      3  N   PRO B 177      -2.181 -34.421  14.462  1.00 22.83 LIG-0.34  N 
ATOM      4  CA  PRO B 177      -1.009 -35.159  13.959  1.00 24.67 LIG 0.18  C 
ATOM      5  CB  PRO B 177      -1.640 -36.301  13.157  1.00 26.20 LIG 0.04  C 
ATOM      6  CG  PRO B 177      -2.874 -35.659  12.597  1.00 24.14 LIG 0.02  C 
ATOM      7  CD  PRO B 177      -3.401 -34.767  13.698  1.00 21.80 LIG 0.13  C 
ENDROOT
BRANCH 4 8
ATOM      8  C   PRO B 177      -0.090 -34.324  13.064  1.00 25.32 LIG 0.24  C 
ATOM      9 O    PRO B 177       0.310 -34.786  11.994  1.00 32.00 LIG-0.27  OA
ATOM     10  N   PHE B 178       0.259 -33.124  13.504  1.00 24.88 LIG-0.34  N 
ATOM     11 H    PHE B 178      -0.045 -32.780  14.231  1.00 24.88 LIG 0.16  HD
BRANCH 10 12
ATOM     12  CA  PHE B 178       1.202 -32.264  12.791  1.00 25.09 LIG 0.19  C 
BRANCH 12 13
ATOM     13  CB  PHE B 178       0.614 -30.866  12.496  1.00 24.80 LIG 0.07  C 
BRANCH 13 14
ATOM     14  CG  PHE B 178       0.391 -30.583  11.020  1.00 21.99 LIG-0.06  A 
ATOM     15  CD2 PHE B 178       0.879 -31.435  10.012  1.00 23.17 LIG 0.01  A 
ATOM     16  CE2 PHE B 178       0.657 -31.149   8.651  1.00 21.52 LIG 0.00  A 
ATOM     17  CZ  PHE B 178      -0.065 -30.034   8.322  1.00 22.39 LIG 0.00  A 
ATOM     18  CE1 PHE B 178      -0.576 -29.191   9.290  1.00 21.58 LIG 0.00  A 
ATOM     19  CD1 PHE B 178      -0.362 -29.475  10.636  1.00 21.72 LIG 0.01  A 
ENDBRANCH 13 14
ENDBRANCH 12 13
BRANCH 12 20
ATOM     20  C   PHE B 178       2.507 -32.199  13.567  1.00 24.87 LIG 0.20  C 
ATOM     21 OXT  PHE B 178       3.543 -31.909  12.959  1.00 27.82 LIG-0.65  OA
ATOM     22 O    PHE B 178       2.555 -32.461  14.768  1.00 30.25 LIG-0.65  OA
ENDBRANCH 12 20
ENDBRANCH 10 12
ENDBRANCH 4 8
BRANCH 1 23
ATOM     23  CA  ILE B 176      -3.428 -33.032  16.073  1.00 23.71 LIG 0.18  C 
BRANCH 23 24
ATOM     24  N   ILE B 176      -3.194 -32.601  17.444  1.00 24.90 LIG-0.34  N 
ATOM     25  C   ASP B 175      -3.796 -33.204  18.467  1.00 27.89 LIG 0.26  C 
ATOM     26 O    ASP B 175      -4.564 -34.154  18.315  1.00 29.58 LIG-0.27  OA
ATOM     27 H    ILE B 176      -2.647 -31.942  17.525  1.00 24.90 LIG 0.16  HD
BRANCH 25 28
ATOM     28  CA  ASP B 175      -3.507 -32.659  19.872  1.00 34.92 LIG 0.41  C 
ATOM     29  N   ASP B 175      -2.092 -32.868  20.312  1.00 43.46 LIG 0.61  N 
BRANCH 28 30
ATOM     30  CB  ASP B 175      -3.864 -31.163  19.948  1.00 38.90 LIG 0.16  C 
BRANCH 30 31
ATOM     31  CG  ASP B 175      -2.797 -30.258  19.315  1.00 38.28 LIG 0.17  C 
ATOM     32 OD2  ASP B 175      -1.677 -30.164  19.886  1.00 42.70 LIG-0.65  OA
ATOM     33 OD1  ASP B 175      -3.062 -29.661  18.240  1.00 44.78 LIG-0.65  OA
ENDBRANCH 30 31
ENDBRANCH 28 30
ENDBRANCH 25 28
ENDBRANCH 23 24
BRANCH 23 34
ATOM     34  CB  ILE B 176      -3.894 -31.885  15.164  1.00 23.83 LIG 0.01  C 
ATOM     35  CG2 ILE B 176      -4.565 -30.814  15.996  1.00 26.43 LIG 0.01  C 
BRANCH 34 36
ATOM     36  CG1 ILE B 176      -2.692 -31.315  14.393  1.00 26.50 LIG 0.00  C 
ATOM     37  CD1 ILE B 176      -1.809 -30.409  15.214  1.00 30.68 LIG 0.01  C 
ENDBRANCH 34 36
ENDBRANCH 23 34
ENDBRANCH 1 23
TORSDOF 12
ENDMDL
MODEL 21
USER: ADFR SOLUTION from run 25
USER: SCORE 14.529403 LL:  -4.073 LR: -10.580 RR:   0.000 FEB:  -7.000
USER: RMSD 6.179740
USER: SEED 24
USER: STATUS no improvement in best in 11 clusters for 5 generations
USER: GENES 14
USER: genes 0 Translation |==|  0.41662 0.38096 0.67301
USER: genes 1 Rotation |==|  0.72487 0.72379 0.76651 0.77987
USER: genes 2 Torsion [N]-CA--C-[O] |==|  0.45051
USER: genes 3 Torsion [C]-N--CA-[CB] |==|  0.41466
USER: genes 4 Torsion [N]-CA--CB-[CG] |==|  0.99361
USER: genes 5 Torsion [CA]-CB--CG-[CD2] |==|  0.72196
USER: genes 6 Torsion [N]-CA--C-[O] |==|  0.70970
USER: genes 7 Torsion [N]-C--CA-[N] |==|  0.37601
USER: genes 8 Torsion [C]-CA--N-[C] |==|  0.71862
USER: genes 9 Torsion [N]-C--CA-[N] |==|  0.47230
USER: genes 10 Torsion [C]-CA--CB-[CG] |==|  0.20067
USER: genes 11 Torsion [CA]-CB--CG-[OD2] |==|  0.03337
USER: genes 12 Torsion [C]-CA--CB-[CG1] |==|  0.02158
USER: genes 13 Torsion [CA]-CB--CG1-[CD1] |==|  0.68635
ROOT
ATOM      1  C   ILE B 176      -1.691 -32.534  16.894  1.00 22.90 LIG 0.24  C 
ATOM      2 O    ILE B 176      -1.108 -31.455  17.102  1.00 27.22 LIG-0.27  OA
ATOM      3  N   PRO B 177      -1.018 -33.673  16.666  1.00 22.83 LIG-0.34  N 
ATOM      4  CA  PRO B 177       0.450 -33.757  16.765  1.00 24.67 LIG 0.18  C 
ATOM      5  CB  PRO B 177       0.691 -35.245  17.039  1.00 26.20 LIG 0.04  C 
ATOM      6  CG  PRO B 177      -0.410 -35.900  16.260  1.00 24.14 LIG 0.02  C 
ATOM      7  CD  PRO B 177      -1.618 -35.008  16.438  1.00 21.80 LIG 0.13  C 
ENDROOT
BRANCH 4 8
ATOM      8  C   PRO B 177       1.181 -33.325  15.491  1.00 25.32 LIG 0.24  C 
ATOM      9 O    PRO B 177       2.377 -33.034  15.539  1.00 32.00 LIG-0.27  OA
ATOM     10  N   PHE B 178       0.469 -33.259  14.376  1.00 24.88 LIG-0.34  N 
ATOM     11 H    PHE B 178      -0.356 -33.496  14.327  1.00 24.88 LIG 0.16  HD
BRANCH 10 12
ATOM     12  CA  PHE B 178       1.022 -32.774  13.113  1.00 25.09 LIG 0.19  C 
BRANCH 12 13
ATOM     13  CB  PHE B 178       0.365 -33.449  11.887  1.00 24.80 LIG 0.07  C 
BRANCH 13 14
ATOM     14  CG  PHE B 178      -0.669 -34.506  12.237  1.00 21.99 LIG-0.06  A 
ATOM     15  CD2 PHE B 178      -0.373 -35.882  12.209  1.00 23.17 LIG 0.01  A 
ATOM     16  CE2 PHE B 178      -1.351 -36.840  12.539  1.00 21.52 LIG 0.00  A 
ATOM     17  CZ  PHE B 178      -2.595 -36.409  12.914  1.00 22.39 LIG 0.00  A 
ATOM     18  CE1 PHE B 178      -2.907 -35.064  12.974  1.00 21.58 LIG 0.00  A 
ATOM     19  CD1 PHE B 178      -1.940 -34.116  12.652  1.00 21.72 LIG 0.01  A 
ENDBRANCH 13 14
ENDBRANCH 12 13
BRANCH 12 20
ATOM     20  C   PHE B 178       0.922 -31.259  13.070  1.00 24.87 LIG 0.20  C 
ATOM     21 OXT  PHE B 178       1.692 -30.595  13.772  1.00 27.82 LIG-0.65  OA
ATOM     22 O    PHE B 178       0.073 -30.690  12.384  1.00 30.25 LIG-0.65  OA
ENDBRANCH 12 20
ENDBRANCH 10 12
ENDBRANCH 4 8
BRANCH 1 23
ATOM     23  CA  ILE B 176      -3.217 -32.582  16.896  1.00 23.71 LIG 0.18  C 
BRANCH 23 24
ATOM     24  N   ILE B 176      -3.676 -31.814  18.044  1.00 24.90 LIG-0.34  N 
ATOM     25  C   ASP B 175      -4.075 -32.419  19.161  1.00 27.89 LIG 0.26  C 
ATOM     26 O    ASP B 175      -4.067 -33.643  19.289  1.00 29.58 LIG-0.27  OA
ATOM     27 H    ILE B 176      -3.665 -30.960  17.933  1.00 24.90 LIG 0.16  HD
BRANCH 25 28
ATOM     28  CA  ASP B 175      -4.568 -31.523  20.306  1.00 34.92 LIG 0.41  C 
ATOM     29  N   ASP B 175      -5.212 -32.284  21.422  1.00 43.46 LIG 0.61  N 
BRANCH 28 30
ATOM     30  CB  ASP B 175      -3.409 -30.670  20.853  1.00 38.90 LIG 0.16  C 
BRANCH 30 31
ATOM     31  CG  ASP B 175      -2.985 -29.547  19.895  1.00 38.28 LIG 0.17  C 
ATOM     32 OD2  ASP B 175      -3.733 -29.284  18.914  1.00 42.70 LIG-0.65  OA
ATOM     33 OD1  ASP B 175      -1.926 -28.911  20.130  1.00 44.78 LIG-0.65  OA
ENDBRANCH 30 31
ENDBRANCH 28 30
ENDBRANCH 25 28
ENDBRANCH 23 24
BRANCH 23 34
ATOM     34  CB  ILE B 176      -3.789 -32.061  15.568  1.00 23.83 LIG 0.01  C 
ATOM     35  CG2 ILE B 176      -4.565 -30.786  15.812  1.00 26.43 LIG 0.01  C 
BRANCH 34 36
ATOM     36  CG1 ILE B 176      -2.645 -31.830  14.567  1.00 26.50 LIG 0.00  C 
ATOM     37  CD1 ILE B 176      -2.419 -30.381  14.215  1.00 30.68 LIG 0.01  C 
ENDBRANCH 34 36
ENDBRANCH 23 34
ENDBRANCH 1 23
TORSDOF 12
ENDMDL
MODEL 22
USER: ADFR SOLUTION from run 156
USER: SCORE 14.394323 LL:  -3.925 LR: -10.572 RR:   0.000 FEB:  -6.992
USER: RMSD 3.416713
USER: SEED 155
USER: STATUS no improvement in best in 8 clusters for 5 generations
USER: GENES 14
USER: genes 0 Translation |==|  0.47590 0.44229 0.62733
USER: genes 1 Rotation |==|  0.50934 0.77532 0.45030 0.91430
USER: genes 2 Torsion [N]-CA--C-[O] |==|  0.53366
USER: genes 3 Torsion [C]-N--CA-[CB] |==|  0.47675
USER: genes 4 Torsion [N]-CA--CB-[CG] |==|  0.19861
USER: genes 5 Torsion [CA]-CB--CG-[CD2] |==|  0.41563
USER: genes 6 Torsion [N]-CA--C-[O] |==|  0.99155
USER: genes 7 Torsion [N]-C--CA-[N] |==|  0.47611
USER: genes 8 Torsion [C]-CA--N-[C] |==|  0.79444
USER: genes 9 Torsion [N]-C--CA-[N] |==|  0.92854
USER: genes 10 Torsion [C]-CA--CB-[CG] |==|  0.81134
USER: genes 11 Torsion [CA]-CB--CG-[OD2] |==|  0.20799
USER: genes 12 Torsion [C]-CA--CB-[CG1] |==|  0.77393
USER: genes 13 Torsion [CA]-CB--CG1-[CD1] |==|  0.40013
ROOT
ATOM      1  C   ILE B 176      -0.801 -31.246  16.140  1.00 22.90 LIG 0.24  C 
ATOM      2 O    ILE B 176       0.160 -31.367  15.359  1.00 27.22 LIG-0.27  OA
ATOM      3  N   PRO B 177      -0.703 -31.553  17.443  1.00 22.83 LIG-0.34  N 
ATOM      4  CA  PRO B 177       0.575 -31.939  18.069  1.00 24.67 LIG 0.18  C 
ATOM      5  CB  PRO B 177       0.352 -31.594  19.545  1.00 26.20 LIG 0.04  C 
ATOM      6  CG  PRO B 177      -1.107 -31.883  19.728  1.00 24.14 LIG 0.02  C 
ATOM      7  CD  PRO B 177      -1.775 -31.415  18.454  1.00 21.80 LIG 0.13  C 
ENDROOT
BRANCH 4 8
ATOM      8  C   PRO B 177       0.915 -33.423  17.915  1.00 25.32 LIG 0.24  C 
ATOM      9 O    PRO B 177       1.831 -33.915  18.576  1.00 32.00 LIG-0.27  OA
ATOM     10  N   PHE B 178       0.207 -34.120  17.039  1.00 24.88 LIG-0.34  N 
ATOM     11 H    PHE B 178      -0.458 -33.794  16.602  1.00 24.88 LIG 0.16  HD
BRANCH 10 12
ATOM     12  CA  PHE B 178       0.489 -35.520  16.730  1.00 25.09 LIG 0.19  C 
BRANCH 12 13
ATOM     13  CB  PHE B 178      -0.602 -36.156  15.838  1.00 24.80 LIG 0.07  C 
BRANCH 13 14
ATOM     14  CG  PHE B 178      -0.598 -35.661  14.401  1.00 21.99 LIG-0.06  A 
ATOM     15  CD2 PHE B 178      -1.011 -36.471  13.328  1.00 23.17 LIG 0.01  A 
ATOM     16  CE2 PHE B 178      -0.998 -35.986  12.006  1.00 21.52 LIG 0.00  A 
ATOM     17  CZ  PHE B 178      -0.598 -34.696  11.782  1.00 22.39 LIG 0.00  A 
ATOM     18  CE1 PHE B 178      -0.209 -33.869  12.819  1.00 21.58 LIG 0.00  A 
ATOM     19  CD1 PHE B 178      -0.226 -34.347  14.127  1.00 21.72 LIG 0.01  A 
ENDBRANCH 13 14
ENDBRANCH 12 13
BRANCH 12 20
ATOM     20  C   PHE B 178       1.878 -35.631  16.124  1.00 24.87 LIG 0.20  C 
ATOM     21 OXT  PHE B 178       2.332 -36.755  15.883  1.00 27.82 LIG-0.65  OA
ATOM     22 O    PHE B 178       2.565 -34.633  15.905  1.00 30.25 LIG-0.65  OA
ENDBRANCH 12 20
ENDBRANCH 10 12
ENDBRANCH 4 8
BRANCH 1 23
ATOM     23  CA  ILE B 176      -2.141 -30.731  15.617  1.00 23.71 LIG 0.18  C 
BRANCH 23 24
ATOM     24  N   ILE B 176      -1.931 -30.282  14.248  1.00 24.90 LIG-0.34  N 
ATOM     25  C   ASP B 175      -1.286 -29.146  13.989  1.00 27.89 LIG 0.26  C 
ATOM     26 O    ASP B 175      -0.828 -28.428  14.878  1.00 29.58 LIG-0.27  OA
ATOM     27 H    ILE B 176      -2.253 -30.804  13.645  1.00 24.90 LIG 0.16  HD
BRANCH 25 28
ATOM     28  CA  ASP B 175      -1.141 -28.743  12.516  1.00 34.92 LIG 0.41  C 
ATOM     29  N   ASP B 175      -1.182 -29.905  11.573  1.00 43.46 LIG 0.61  N 
BRANCH 28 30
ATOM     30  CB  ASP B 175      -2.223 -27.718  12.133  1.00 38.90 LIG 0.16  C 
BRANCH 30 31
ATOM     31  CG  ASP B 175      -3.640 -28.312  12.132  1.00 38.28 LIG 0.17  C 
ATOM     32 OD2  ASP B 175      -4.196 -28.533  13.242  1.00 42.70 LIG-0.65  OA
ATOM     33 OD1  ASP B 175      -4.209 -28.534  11.033  1.00 44.78 LIG-0.65  OA
ENDBRANCH 30 31
ENDBRANCH 28 30
ENDBRANCH 25 28
ENDBRANCH 23 24
BRANCH 23 34
ATOM     34  CB  ILE B 176      -3.229 -31.811  15.725  1.00 23.83 LIG 0.01  C 
ATOM     35  CG2 ILE B 176      -4.593 -31.159  15.770  1.00 26.43 LIG 0.01  C 
BRANCH 34 36
ATOM     36  CG1 ILE B 176      -3.117 -32.778  14.534  1.00 26.50 LIG 0.00  C 
ATOM     37  CD1 ILE B 176      -3.435 -34.212  14.874  1.00 30.68 LIG 0.01  C 
ENDBRANCH 34 36
ENDBRANCH 23 34
ENDBRANCH 1 23
TORSDOF 12
ENDMDL
MODEL 23
USER: ADFR SOLUTION from run 42
USER: SCORE 13.200905 LL:  -2.753 LR: -10.547 RR:   0.000 FEB:  -6.968
USER: RMSD 4.467751
USER: SEED 41
USER: STATUS no improvement in best in 10 clusters for 5 generations
USER: GENES 14
USER: genes 0 Translation |==|  0.48621 0.50199 0.46709
USER: genes 1 Rotation |==|  0.62016 0.22306 0.74415 0.81505
USER: genes 2 Torsion [N]-CA--C-[O] |==|  0.78410
USER: genes 3 Torsion [C]-N--CA-[CB] |==|  0.78236
USER: genes 4 Torsion [N]-CA--CB-[CG] |==|  0.06031
USER: genes 5 Torsion [CA]-CB--CG-[CD2] |==|  0.29076
USER: genes 6 Torsion [N]-CA--C-[O] |==|  0.58407
USER: genes 7 Torsion [N]-C--CA-[N] |==|  0.87419
USER: genes 8 Torsion [C]-CA--N-[C] |==|  0.81272
USER: genes 9 Torsion [N]-C--CA-[N] |==|  0.40181
USER: genes 10 Torsion [C]-CA--CB-[CG] |==|  0.70175
USER: genes 11 Torsion [CA]-CB--CG-[OD2] |==|  0.10463
USER: genes 12 Torsion [C]-CA--CB-[CG1] |==|  0.04943
USER: genes 13 Torsion [CA]-CB--CG1-[CD1] |==|  0.47028
ROOT
ATOM      1  C   ILE B 176      -0.647 -29.992  13.496  1.00 22.90 LIG 0.24  C 
ATOM      2 O    ILE B 176      -1.123 -30.054  14.644  1.00 27.22 LIG-0.27  OA
ATOM      3  N   PRO B 177      -0.506 -31.082  12.724  1.00 22.83 LIG-0.34  N 
ATOM      4  CA  PRO B 177      -1.011 -32.406  13.128  1.00 24.67 LIG 0.18  C 
ATOM      5  CB  PRO B 177      -1.189 -33.128  11.789  1.00 26.20 LIG 0.04  C 
ATOM      6  CG  PRO B 177      -0.065 -32.570  10.969  1.00 24.14 LIG 0.02  C 
ATOM      7  CD  PRO B 177       0.019 -31.107  11.340  1.00 21.80 LIG 0.13  C 
ENDROOT
BRANCH 4 8
ATOM      8  C   PRO B 177      -0.051 -33.185  14.030  1.00 25.32 LIG 0.24  C 
ATOM      9 O    PRO B 177       0.927 -33.753  13.540  1.00 32.00 LIG-0.27  OA
ATOM     10  N   PHE B 178      -0.337 -33.235  15.322  1.00 24.88 LIG-0.34  N 
ATOM     11 H    PHE B 178      -0.996 -32.811  15.677  1.00 24.88 LIG 0.16  HD
BRANCH 10 12
ATOM     12  CA  PHE B 178       0.444 -34.020  16.275  1.00 25.09 LIG 0.19  C 
BRANCH 12 13
ATOM     13  CB  PHE B 178       0.100 -35.526  16.218  1.00 24.80 LIG 0.07  C 
BRANCH 13 14
ATOM     14  CG  PHE B 178      -0.537 -35.969  14.912  1.00 21.99 LIG-0.06  A 
ATOM     15  CD2 PHE B 178       0.176 -36.693  13.938  1.00 23.17 LIG 0.01  A 
ATOM     16  CE2 PHE B 178      -0.440 -37.092  12.736  1.00 21.52 LIG 0.00  A 
ATOM     17  CZ  PHE B 178      -1.760 -36.784  12.539  1.00 22.39 LIG 0.00  A 
ATOM     18  CE1 PHE B 178      -2.491 -36.095  13.488  1.00 21.58 LIG 0.00  A 
ATOM     19  CD1 PHE B 178      -1.884 -35.704  14.678  1.00 21.72 LIG 0.01  A 
ENDBRANCH 13 14
ENDBRANCH 12 13
BRANCH 12 20
ATOM     20  C   PHE B 178       1.923 -33.749  16.056  1.00 24.87 LIG 0.20  C 
ATOM     21 OXT  PHE B 178       2.263 -32.652  15.599  1.00 27.82 LIG-0.65  OA
ATOM     22 O    PHE B 178       2.775 -34.605  16.289  1.00 30.25 LIG-0.65  OA
ENDBRANCH 12 20
ENDBRANCH 10 12
ENDBRANCH 4 8
BRANCH 1 23
ATOM     23  CA  ILE B 176      -0.207 -28.643  12.931  1.00 23.71 LIG 0.18  C 
BRANCH 23 24
ATOM     24  N   ILE B 176       1.092 -28.836  12.303  1.00 24.90 LIG-0.34  N 
ATOM     25  C   ASP B 175       2.171 -29.123  13.029  1.00 27.89 LIG 0.26  C 
ATOM     26 O    ASP B 175       2.129 -29.251  14.252  1.00 29.58 LIG-0.27  OA
ATOM     27 H    ILE B 176       1.094 -28.749  11.447  1.00 24.90 LIG 0.16  HD
BRANCH 25 28
ATOM     28  CA  ASP B 175       3.500 -29.279  12.279  1.00 34.92 LIG 0.41  C 
ATOM     29  N   ASP B 175       4.681 -28.777  13.048  1.00 43.46 LIG 0.61  N 
BRANCH 28 30
ATOM     30  CB  ASP B 175       3.719 -30.751  11.882  1.00 38.90 LIG 0.16  C 
BRANCH 30 31
ATOM     31  CG  ASP B 175       4.807 -31.442  12.717  1.00 38.28 LIG 0.17  C 
ATOM     32 OD2  ASP B 175       4.890 -31.159  13.943  1.00 42.70 LIG-0.65  OA
ATOM     33 OD1  ASP B 175       5.560 -32.284  12.164  1.00 44.78 LIG-0.65  OA
ENDBRANCH 30 31
ENDBRANCH 28 30
ENDBRANCH 25 28
ENDBRANCH 23 24
BRANCH 23 34
ATOM     34  CB  ILE B 176      -1.256 -28.082  11.958  1.00 23.83 LIG 0.01  C 
ATOM     35  CG2 ILE B 176      -0.775 -28.251  10.534  1.00 26.43 LIG 0.01  C 
BRANCH 34 36
ATOM     36  CG1 ILE B 176      -2.599 -28.798  12.177  1.00 26.50 LIG 0.00  C 
ATOM     37  CD1 ILE B 176      -3.762 -28.159  11.459  1.00 30.68 LIG 0.01  C 
ENDBRANCH 34 36
ENDBRANCH 23 34
ENDBRANCH 1 23
TORSDOF 12
ENDMDL
MODEL 24
USER: ADFR SOLUTION from run 184
USER: SCORE 14.563630 LL:  -4.070 LR: -10.507 RR:   0.000 FEB:  -6.927
USER: RMSD 3.881265
USER: SEED 183
USER: STATUS no improvement in best in 13 clusters for 5 generations
USER: GENES 14
USER: genes 0 Translation |==|  0.59964 0.40056 0.49798
USER: genes 1 Rotation |==|  0.49276 0.50977 0.42179 0.99370
USER: genes 2 Torsion [N]-CA--C-[O] |==|  0.62145
USER: genes 3 Torsion [C]-N--CA-[CB] |==|  0.18002
USER: genes 4 Torsion [N]-CA--CB-[CG] |==|  0.08620
USER: genes 5 Torsion [CA]-CB--CG-[CD2] |==|  0.20169
USER: genes 6 Torsion [N]-CA--C-[O] |==|  0.23049
USER: genes 7 Torsion [N]-C--CA-[N] |==|  0.41932
USER: genes 8 Torsion [C]-CA--N-[C] |==|  0.80273
USER: genes 9 Torsion [N]-C--CA-[N] |==|  0.61914
USER: genes 10 Torsion [C]-CA--CB-[CG] |==|  0.81793
USER: genes 11 Torsion [CA]-CB--CG-[OD2] |==|  0.43811
USER: genes 12 Torsion [C]-CA--CB-[CG1] |==|  0.58829
USER: genes 13 Torsion [CA]-CB--CG1-[CD1] |==|  0.78782
ROOT
ATOM      1  C   ILE B 176       1.055 -32.122  14.006  1.00 22.90 LIG 0.24  C 
ATOM      2 O    ILE B 176       2.155 -32.332  14.548  1.00 27.22 LIG-0.27  OA
ATOM      3  N   PRO B 177      -0.094 -32.129  14.701  1.00 22.83 LIG-0.34  N 
ATOM      4  CA  PRO B 177      -0.128 -32.265  16.168  1.00 24.67 LIG 0.18  C 
ATOM      5  CB  PRO B 177      -1.469 -31.626  16.541  1.00 26.20 LIG 0.04  C 
ATOM      6  CG  PRO B 177      -2.335 -31.985  15.371  1.00 24.14 LIG 0.02  C 
ATOM      7  CD  PRO B 177      -1.444 -31.862  14.156  1.00 21.80 LIG 0.13  C 
ENDROOT
BRANCH 4 8
ATOM      8  C   PRO B 177      -0.075 -33.715  16.656  1.00 25.32 LIG 0.24  C 
ATOM      9 O    PRO B 177      -0.822 -34.084  17.563  1.00 32.00 LIG-0.27  OA
ATOM     10  N   PHE B 178       0.810 -34.516  16.083  1.00 24.88 LIG-0.34  N 
ATOM     11 H    PHE B 178       1.309 -34.276  15.425  1.00 24.88 LIG 0.16  HD
BRANCH 10 12
ATOM     12  CA  PHE B 178       1.026 -35.895  16.517  1.00 25.09 LIG 0.19  C 
BRANCH 12 13
ATOM     13  CB  PHE B 178      -0.218 -36.784  16.289  1.00 24.80 LIG 0.07  C 
BRANCH 13 14
ATOM     14  CG  PHE B 178      -1.061 -36.379  15.092  1.00 21.99 LIG-0.06  A 
ATOM     15  CD2 PHE B 178      -0.638 -36.601  13.768  1.00 23.17 LIG 0.01  A 
ATOM     16  CE2 PHE B 178      -1.439 -36.216  12.676  1.00 21.52 LIG 0.00  A 
ATOM     17  CZ  PHE B 178      -2.657 -35.640  12.924  1.00 22.39 LIG 0.00  A 
ATOM     18  CE1 PHE B 178      -3.109 -35.432  14.214  1.00 21.58 LIG 0.00  A 
ATOM     19  CD1 PHE B 178      -2.319 -35.816  15.294  1.00 21.72 LIG 0.01  A 
ENDBRANCH 13 14
ENDBRANCH 12 13
BRANCH 12 20
ATOM     20  C   PHE B 178       2.271 -36.445  15.842  1.00 24.87 LIG 0.20  C 
ATOM     21 OXT  PHE B 178       2.135 -37.159  14.842  1.00 27.82 LIG-0.65  OA
ATOM     22 O    PHE B 178       3.396 -36.225  16.289  1.00 30.25 LIG-0.65  OA
ENDBRANCH 12 20
ENDBRANCH 10 12
ENDBRANCH 4 8
BRANCH 1 23
ATOM     23  CA  ILE B 176       0.991 -31.844  12.505  1.00 23.71 LIG 0.18  C 
BRANCH 23 24
ATOM     24  N   ILE B 176       2.248 -31.216  12.124  1.00 24.90 LIG-0.34  N 
ATOM     25  C   ASP B 175       2.533 -29.969  12.494  1.00 27.89 LIG 0.26  C 
ATOM     26 O    ASP B 175       1.768 -29.291  13.178  1.00 29.58 LIG-0.27  OA
ATOM     27 H    ILE B 176       2.769 -31.713  11.654  1.00 24.90 LIG 0.16  HD
BRANCH 25 28
ATOM     28  CA  ASP B 175       3.871 -29.386  12.019  1.00 34.92 LIG 0.41  C 
ATOM     29  N   ASP B 175       4.598 -28.621  13.081  1.00 43.46 LIG 0.61  N 
BRANCH 28 30
ATOM     30  CB  ASP B 175       4.774 -30.503  11.466  1.00 38.90 LIG 0.16  C 
BRANCH 30 31
ATOM     31  CG  ASP B 175       5.206 -31.514  12.539  1.00 38.28 LIG 0.17  C 
ATOM     32 OD2  ASP B 175       5.566 -32.664  12.167  1.00 42.70 LIG-0.65  OA
ATOM     33 OD1  ASP B 175       5.211 -31.159  13.746  1.00 44.78 LIG-0.65  OA
ENDBRANCH 30 31
ENDBRANCH 28 30
ENDBRANCH 25 28
ENDBRANCH 23 24
BRANCH 23 34
ATOM     34  CB  ILE B 176       0.709 -33.131  11.715  1.00 23.83 LIG 0.01  C 
ATOM     35  CG2 ILE B 176      -0.784 -33.324  11.568  1.00 26.43 LIG 0.01  C 
BRANCH 34 36
ATOM     36  CG1 ILE B 176       1.396 -33.055  10.341  1.00 26.50 LIG 0.00  C 
ATOM     37  CD1 ILE B 176       0.685 -32.171   9.347  1.00 30.68 LIG 0.01  C 
ENDBRANCH 34 36
ENDBRANCH 23 34
ENDBRANCH 1 23
TORSDOF 12
ENDMDL
MODEL 25
USER: ADFR SOLUTION from run 161
USER: SCORE 13.463498 LL:  -3.171 LR: -10.474 RR:   0.000 FEB:  -6.894
USER: RMSD 7.044616
USER: SEED 160
USER: STATUS no improvement in best in 14 clusters for 5 generations
USER: GENES 14
USER: genes 0 Translation |==|  0.50902 0.32240 0.50240
USER: genes 1 Rotation |==|  0.07079 0.49761 0.72875 0.61595
USER: genes 2 Torsion [N]-CA--C-[O] |==|  0.82630
USER: genes 3 Torsion [C]-N--CA-[CB] |==|  0.35833
USER: genes 4 Torsion [N]-CA--CB-[CG] |==|  0.95529
USER: genes 5 Torsion [CA]-CB--CG-[CD2] |==|  0.30384
USER: genes 6 Torsion [N]-CA--C-[O] |==|  0.25944
USER: genes 7 Torsion [N]-C--CA-[N] |==|  0.86737
USER: genes 8 Torsion [C]-CA--N-[C] |==|  0.79637
USER: genes 9 Torsion [N]-C--CA-[N] |==|  0.90136
USER: genes 10 Torsion [C]-CA--CB-[CG] |==|  0.14016
USER: genes 11 Torsion [CA]-CB--CG-[OD2] |==|  0.60933
USER: genes 12 Torsion [C]-CA--CB-[CG1] |==|  0.03610
USER: genes 13 Torsion [CA]-CB--CG1-[CD1] |==|  0.26377
ROOT
ATOM      1  C   ILE B 176      -0.305 -33.764  14.079  1.00 22.90 LIG 0.24  C 
ATOM      2 O    ILE B 176      -0.155 -33.401  12.898  1.00 27.22 LIG-0.27  OA
ATOM      3  N   PRO B 177      -1.381 -33.411  14.800  1.00 22.83 LIG-0.34  N 
ATOM      4  CA  PRO B 177      -2.516 -32.675  14.215  1.00 24.67 LIG 0.18  C 
ATOM      5  CB  PRO B 177      -3.676 -33.035  15.150  1.00 26.20 LIG 0.04  C 
ATOM      6  CG  PRO B 177      -2.994 -33.154  16.480  1.00 24.14 LIG 0.02  C 
ATOM      7  CD  PRO B 177      -1.665 -33.816  16.195  1.00 21.80 LIG 0.13  C 
ENDROOT
BRANCH 4 8
ATOM      8  C   PRO B 177      -2.315 -31.159  14.176  1.00 25.32 LIG 0.24  C 
ATOM      9 O    PRO B 177      -2.185 -30.530  15.228  1.00 32.00 LIG-0.27  OA
ATOM     10  N   PHE B 178      -2.315 -30.577  12.986  1.00 24.88 LIG-0.34  N 
ATOM     11 H    PHE B 178      -2.368 -31.012  12.247  1.00 24.88 LIG 0.16  HD
BRANCH 10 12
ATOM     12  CA  PHE B 178      -2.225 -29.128  12.814  1.00 25.09 LIG 0.19  C 
BRANCH 12 13
ATOM     13  CB  PHE B 178      -1.116 -28.723  11.816  1.00 24.80 LIG 0.07  C 
BRANCH 13 14
ATOM     14  CG  PHE B 178      -0.113 -29.825  11.519  1.00 21.99 LIG-0.06  A 
ATOM     15  CD2 PHE B 178      -0.065 -30.479  10.273  1.00 23.17 LIG 0.01  A 
ATOM     16  CE2 PHE B 178       0.875 -31.497  10.024  1.00 21.52 LIG 0.00  A 
ATOM     17  CZ  PHE B 178       1.764 -31.828  11.012  1.00 22.39 LIG 0.00  A 
ATOM     18  CE1 PHE B 178       1.756 -31.188  12.237  1.00 21.58 LIG 0.00  A 
ATOM     19  CD1 PHE B 178       0.830 -30.177  12.482  1.00 21.72 LIG 0.01  A 
ENDBRANCH 13 14
ENDBRANCH 12 13
BRANCH 12 20
ATOM     20  C   PHE B 178      -3.588 -28.582  12.427  1.00 24.87 LIG 0.20  C 
ATOM     21 OXT  PHE B 178      -3.888 -28.533  11.229  1.00 27.82 LIG-0.65  OA
ATOM     22 O    PHE B 178      -4.376 -28.159  13.273  1.00 30.25 LIG-0.65  OA
ENDBRANCH 12 20
ENDBRANCH 10 12
ENDBRANCH 4 8
BRANCH 1 23
ATOM     23  CA  ILE B 176       0.757 -34.638  14.743  1.00 23.71 LIG 0.18  C 
BRANCH 23 24
ATOM     24  N   ILE B 176       1.051 -34.055  16.044  1.00 24.90 LIG-0.34  N 
ATOM     25  C   ASP B 175       1.757 -32.931  16.150  1.00 27.89 LIG 0.26  C 
ATOM     26 O    ASP B 175       2.186 -32.325  15.168  1.00 29.58 LIG-0.27  OA
ATOM     27 H    ILE B 176       0.734 -34.493  16.714  1.00 24.90 LIG 0.16  HD
BRANCH 25 28
ATOM     28  CA  ASP B 175       2.039 -32.411  17.565  1.00 34.92 LIG 0.41  C 
ATOM     29  N   ASP B 175       0.913 -32.649  18.523  1.00 43.46 LIG 0.61  N 
BRANCH 28 30
ATOM     30  CB  ASP B 175       3.335 -33.034  18.115  1.00 38.90 LIG 0.16  C 
BRANCH 30 31
ATOM     31  CG  ASP B 175       4.520 -32.910  17.145  1.00 38.28 LIG 0.17  C 
ATOM     32 OD2  ASP B 175       5.311 -33.887  17.041  1.00 42.70 LIG-0.65  OA
ATOM     33 OD1  ASP B 175       4.650 -31.858  16.470  1.00 44.78 LIG-0.65  OA
ENDBRANCH 30 31
ENDBRANCH 28 30
ENDBRANCH 25 28
ENDBRANCH 23 24
BRANCH 23 34
ATOM     34  CB  ILE B 176       0.288 -36.098  14.842  1.00 23.83 LIG 0.01  C 
ATOM     35  CG2 ILE B 176      -0.004 -36.444  16.285  1.00 26.43 LIG 0.01  C 
BRANCH 34 36
ATOM     36  CG1 ILE B 176      -0.956 -36.303  13.961  1.00 26.50 LIG 0.00  C 
ATOM     37  CD1 ILE B 176      -0.653 -36.830  12.581  1.00 30.68 LIG 0.01  C 
ENDBRANCH 34 36
ENDBRANCH 23 34
ENDBRANCH 1 23
TORSDOF 12
ENDMDL
MODEL 26
USER: ADFR SOLUTION from run 4
USER: SCORE 14.197458 LL:  -3.937 LR: -10.450 RR:   0.000 FEB:  -6.870
USER: RMSD 2.153226
USER: SEED 225549
USER: STATUS no improvement in best in 9 clusters for 5 generations
USER: GENES 14
USER: genes 0 Translation |==|  0.54742 0.45153 0.42120
USER: genes 1 Rotation |==|  0.52128 0.57847 0.54923 0.99088
USER: genes 2 Torsion [N]-CA--C-[O] |==|  0.15184
USER: genes 3 Torsion [C]-N--CA-[CB] |==|  0.79473
USER: genes 4 Torsion [N]-CA--CB-[CG] |==|  0.92975
USER: genes 5 Torsion [CA]-CB--CG-[CD2] |==|  0.84863
USER: genes 6 Torsion [N]-CA--C-[O] |==|  0.04155
USER: genes 7 Torsion [N]-C--CA-[N] |==|  0.30556
USER: genes 8 Torsion [C]-CA--N-[C] |==|  0.78056
USER: genes 9 Torsion [N]-C--CA-[N] |==|  0.83418
USER: genes 10 Torsion [C]-CA--CB-[CG] |==|  0.76793
USER: genes 11 Torsion [CA]-CB--CG-[OD2] |==|  0.83665
USER: genes 12 Torsion [C]-CA--CB-[CG1] |==|  0.55055
USER: genes 13 Torsion [CA]-CB--CG1-[CD1] |==|  0.36758
ROOT
ATOM      1  C   ILE B 176       0.271 -31.052  12.739  1.00 22.90 LIG 0.24  C 
ATOM      2 O    ILE B 176       1.451 -30.739  12.978  1.00 27.22 LIG-0.27  OA
ATOM      3  N   PRO B 177      -0.492 -31.692  13.639  1.00 22.83 LIG-0.34  N 
ATOM      4  CA  PRO B 177      -0.032 -31.963  15.013  1.00 24.67 LIG 0.18  C 
ATOM      5  CB  PRO B 177      -1.344 -32.110  15.791  1.00 26.20 LIG 0.04  C 
ATOM      6  CG  PRO B 177      -2.252 -32.740  14.777  1.00 24.14 LIG 0.02  C 
ATOM      7  CD  PRO B 177      -1.910 -32.079  13.461  1.00 21.80 LIG 0.13  C 
ENDROOT
BRANCH 4 8
ATOM      8  C   PRO B 177       0.809 -33.235  15.144  1.00 25.32 LIG 0.24  C 
ATOM      9 O    PRO B 177       1.809 -33.384  14.439  1.00 32.00 LIG-0.27  OA
ATOM     10  N   PHE B 178       0.399 -34.147  16.012  1.00 24.88 LIG-0.34  N 
ATOM     11 H    PHE B 178      -0.276 -34.035  16.533  1.00 24.88 LIG 0.16  HD
BRANCH 10 12
ATOM     12  CA  PHE B 178       1.058 -35.443  16.167  1.00 25.09 LIG 0.19  C 
BRANCH 12 13
ATOM     13  CB  PHE B 178       0.755 -36.401  14.992  1.00 24.80 LIG 0.07  C 
BRANCH 13 14
ATOM     14  CG  PHE B 178      -0.551 -36.110  14.273  1.00 21.99 LIG-0.06  A 
ATOM     15  CD2 PHE B 178      -1.781 -36.035  14.954  1.00 23.17 LIG 0.01  A 
ATOM     16  CE2 PHE B 178      -2.977 -35.764  14.263  1.00 21.52 LIG 0.00  A 
ATOM     17  CZ  PHE B 178      -2.923 -35.550  12.912  1.00 22.39 LIG 0.00  A 
ATOM     18  CE1 PHE B 178      -1.727 -35.595  12.220  1.00 21.58 LIG 0.00  A 
ATOM     19  CD1 PHE B 178      -0.543 -35.858  12.903  1.00 21.72 LIG 0.01  A 
ENDBRANCH 13 14
ENDBRANCH 12 13
BRANCH 12 20
ATOM     20  C   PHE B 178       2.547 -35.227  16.377  1.00 24.87 LIG 0.20  C 
ATOM     21 OXT  PHE B 178       3.305 -36.198  16.286  1.00 27.82 LIG-0.65  OA
ATOM     22 O    PHE B 178       3.001 -34.121  16.669  1.00 30.25 LIG-0.65  OA
ENDBRANCH 12 20
ENDBRANCH 10 12
ENDBRANCH 4 8
BRANCH 1 23
ATOM     23  CA  ILE B 176      -0.345 -30.703  11.386  1.00 23.71 LIG 0.18  C 
BRANCH 23 24
ATOM     24  N   ILE B 176      -0.510 -29.257  11.342  1.00 24.90 LIG-0.34  N 
ATOM     25  C   ASP B 175      -1.528 -28.662  11.961  1.00 27.89 LIG 0.26  C 
ATOM     26 O    ASP B 175      -2.368 -29.290  12.605  1.00 29.58 LIG-0.27  OA
ATOM     27 H    ILE B 176       0.094 -28.840  10.892  1.00 24.90 LIG 0.16  HD
BRANCH 25 28
ATOM     28  CA  ASP B 175      -1.632 -27.137  11.832  1.00 34.92 LIG 0.41  C 
ATOM     29  N   ASP B 175      -0.435 -26.411  12.363  1.00 43.46 LIG 0.61  N 
BRANCH 28 30
ATOM     30  CB  ASP B 175      -1.877 -26.740  10.365  1.00 38.90 LIG 0.16  C 
BRANCH 30 31
ATOM     31  CG  ASP B 175      -0.585 -26.662   9.539  1.00 38.28 LIG 0.17  C 
ATOM     32 OD2  ASP B 175       0.317 -25.864   9.914  1.00 42.70 LIG-0.65  OA
ATOM     33 OD1  ASP B 175      -0.454 -27.409   8.536  1.00 44.78 LIG-0.65  OA
ENDBRANCH 30 31
ENDBRANCH 28 30
ENDBRANCH 25 28
ENDBRANCH 23 24
BRANCH 23 34
ATOM     34  CB  ILE B 176       0.518 -31.235  10.231  1.00 23.83 LIG 0.01  C 
ATOM     35  CG2 ILE B 176       0.322 -32.728  10.092  1.00 26.43 LIG 0.01  C 
BRANCH 34 36
ATOM     36  CG1 ILE B 176       0.147 -30.505   8.929  1.00 26.50 LIG 0.00  C 
ATOM     37  CD1 ILE B 176       1.334 -30.001   8.147  1.00 30.68 LIG 0.01  C 
ENDBRANCH 34 36
ENDBRANCH 23 34
ENDBRANCH 1 23
TORSDOF 12
ENDMDL
MODEL 27
USER: ADFR SOLUTION from run 53
USER: SCORE 14.294327 LL:  -4.127 LR: -10.429 RR:   0.000 FEB:  -6.850
USER: RMSD 6.752166
USER: SEED 52
USER: STATUS no improvement in best in 6 clusters for 5 generations
USER: GENES 14
USER: genes 0 Translation |==|  0.33911 0.35391 0.59124
USER: genes 1 Rotation |==|  0.28645 0.89791 0.69147 0.59695
USER: genes 2 Torsion [N]-CA--C-[O] |==|  0.39522
USER: genes 3 Torsion [C]-N--CA-[CB] |==|  0.85244
USER: genes 4 Torsion [N]-CA--CB-[CG] |==|  0.83383
USER: genes 5 Torsion [CA]-CB--CG-[CD2] |==|  0.75414
USER: genes 6 Torsion [N]-CA--C-[O] |==|  0.78400
USER: genes 7 Torsion [N]-C--CA-[N] |==|  0.87222
USER: genes 8 Torsion [C]-CA--N-[C] |==|  0.74461
USER: genes 9 Torsion [N]-C--CA-[N] |==|  0.56070
USER: genes 10 Torsion [C]-CA--CB-[CG] |==|  0.70347
USER: genes 11 Torsion [CA]-CB--CG-[OD2] |==|  0.80099
USER: genes 12 Torsion [C]-CA--CB-[CG1] |==|  0.99970
USER: genes 13 Torsion [CA]-CB--CG1-[CD1] |==|  0.64033
ROOT
ATOM      1  C   ILE B 176      -2.853 -33.102  15.545  1.00 22.90 LIG 0.24  C 
ATOM      2 O    ILE B 176      -3.576 -33.188  14.535  1.00 27.22 LIG-0.27  OA
ATOM      3  N   PRO B 177      -1.923 -32.142  15.674  1.00 22.83 LIG-0.34  N 
ATOM      4  CA  PRO B 177      -1.770 -31.053  14.692  1.00 24.67 LIG 0.18  C 
ATOM      5  CB  PRO B 177      -1.095 -29.948  15.509  1.00 26.20 LIG 0.04  C 
ATOM      6  CG  PRO B 177      -0.226 -30.726  16.451  1.00 24.14 LIG 0.02  C 
ATOM      7  CD  PRO B 177      -1.039 -31.938  16.844  1.00 21.80 LIG 0.13  C 
ENDROOT
BRANCH 4 8
ATOM      8  C   PRO B 177      -0.907 -31.427  13.485  1.00 25.32 LIG 0.24  C 
ATOM      9 O    PRO B 177      -1.207 -31.013  12.364  1.00 32.00 LIG-0.27  OA
ATOM     10  N   PHE B 178       0.134 -32.216  13.705  1.00 24.88 LIG-0.34  N 
ATOM     11 H    PHE B 178       0.372 -32.478  14.489  1.00 24.88 LIG 0.16  HD
BRANCH 10 12
ATOM     12  CA  PHE B 178       0.985 -32.721  12.629  1.00 25.09 LIG 0.19  C 
BRANCH 12 13
ATOM     13  CB  PHE B 178       0.171 -33.424  11.518  1.00 24.80 LIG 0.07  C 
BRANCH 13 14
ATOM     14  CG  PHE B 178      -0.633 -34.621  11.999  1.00 21.99 LIG-0.06  A 
ATOM     15  CD2 PHE B 178      -0.092 -35.920  12.038  1.00 23.17 LIG 0.01  A 
ATOM     16  CE2 PHE B 178      -0.859 -37.011  12.488  1.00 21.52 LIG 0.00  A 
ATOM     17  CZ  PHE B 178      -2.141 -36.784  12.914  1.00 22.39 LIG 0.00  A 
ATOM     18  CE1 PHE B 178      -2.691 -35.516  12.909  1.00 21.58 LIG 0.00  A 
ATOM     19  CD1 PHE B 178      -1.931 -34.436  12.468  1.00 21.72 LIG 0.01  A 
ENDBRANCH 13 14
ENDBRANCH 12 13
BRANCH 12 20
ATOM     20  C   PHE B 178       1.845 -31.588  12.095  1.00 24.87 LIG 0.20  C 
ATOM     21 OXT  PHE B 178       3.019 -31.508  12.471  1.00 27.82 LIG-0.65  OA
ATOM     22 O    PHE B 178       1.387 -30.738  11.331  1.00 30.25 LIG-0.65  OA
ENDBRANCH 12 20
ENDBRANCH 10 12
ENDBRANCH 4 8
BRANCH 1 23
ATOM     23  CA  ILE B 176      -3.018 -34.108  16.682  1.00 23.71 LIG 0.18  C 
BRANCH 23 24
ATOM     24  N   ILE B 176      -1.686 -34.552  17.068  1.00 24.90 LIG-0.34  N 
ATOM     25  C   ASP B 175      -1.134 -35.632  16.518  1.00 27.89 LIG 0.26  C 
ATOM     26 O    ASP B 175      -1.706 -36.300  15.656  1.00 29.58 LIG-0.27  OA
ATOM     27 H    ILE B 176      -1.304 -34.064  17.665  1.00 24.90 LIG 0.16  HD
BRANCH 25 28
ATOM     28  CA  ASP B 175       0.261 -36.035  17.011  1.00 34.92 LIG 0.41  C 
ATOM     29  N   ASP B 175       1.014 -36.889  16.039  1.00 43.46 LIG 0.61  N 
BRANCH 28 30
ATOM     30  CB  ASP B 175       1.087 -34.782  17.358  1.00 38.90 LIG 0.16  C 
BRANCH 30 31
ATOM     31  CG  ASP B 175       2.187 -34.484  16.328  1.00 38.28 LIG 0.17  C 
ATOM     32 OD2  ASP B 175       3.192 -35.244  16.289  1.00 42.70 LIG-0.65  OA
ATOM     33 OD1  ASP B 175       2.041 -33.513  15.542  1.00 44.78 LIG-0.65  OA
ENDBRANCH 30 31
ENDBRANCH 28 30
ENDBRANCH 25 28
ENDBRANCH 23 24
BRANCH 23 34
ATOM     34  CB  ILE B 176      -3.800 -33.496  17.854  1.00 23.83 LIG 0.01  C 
ATOM     35  CG2 ILE B 176      -2.969 -33.566  19.115  1.00 26.43 LIG 0.01  C 
BRANCH 34 36
ATOM     36  CG1 ILE B 176      -4.179 -32.043  17.520  1.00 26.50 LIG 0.00  C 
ATOM     37  CD1 ILE B 176      -3.815 -31.051  18.596  1.00 30.68 LIG 0.01  C 
ENDBRANCH 34 36
ENDBRANCH 23 34
ENDBRANCH 1 23
TORSDOF 12
ENDMDL
MODEL 28
USER: ADFR SOLUTION from run 103
USER: SCORE 13.983834 LL:  -3.789 LR: -10.412 RR:   0.000 FEB:  -6.833
USER: RMSD 7.940044
USER: SEED 102
USER: STATUS no improvement in best in 11 clusters for 5 generations
USER: GENES 14
USER: genes 0 Translation |==|  0.43590 0.45628 0.58916
USER: genes 1 Rotation |==|  0.22206 0.24819 0.17351 0.55243
USER: genes 2 Torsion [N]-CA--C-[O] |==|  0.34546
USER: genes 3 Torsion [C]-N--CA-[CB] |==|  0.29473
USER: genes 4 Torsion [N]-CA--CB-[CG] |==|  0.09201
USER: genes 5 Torsion [CA]-CB--CG-[CD2] |==|  0.26866
USER: genes 6 Torsion [N]-CA--C-[O] |==|  0.17794
USER: genes 7 Torsion [N]-C--CA-[N] |==|  0.48782
USER: genes 8 Torsion [C]-CA--N-[C] |==|  0.56150
USER: genes 9 Torsion [N]-C--CA-[N] |==|  0.77522
USER: genes 10 Torsion [C]-CA--CB-[CG] |==|  0.77974
USER: genes 11 Torsion [CA]-CB--CG-[OD2] |==|  0.81676
USER: genes 12 Torsion [C]-CA--CB-[CG1] |==|  0.75169
USER: genes 13 Torsion [CA]-CB--CG1-[CD1] |==|  0.19303
ROOT
ATOM      1  C   ILE B 176      -1.402 -30.952  15.510  1.00 22.90 LIG 0.24  C 
ATOM      2 O    ILE B 176      -1.348 -30.095  16.411  1.00 27.22 LIG-0.27  OA
ATOM      3  N   PRO B 177      -0.869 -30.742  14.296  1.00 22.83 LIG-0.34  N 
ATOM      4  CA  PRO B 177      -0.081 -29.538  13.976  1.00 24.67 LIG 0.18  C 
ATOM      5  CB  PRO B 177       0.784 -29.997  12.798  1.00 26.20 LIG 0.04  C 
ATOM      6  CG  PRO B 177      -0.123 -30.954  12.084  1.00 24.14 LIG 0.02  C 
ATOM      7  CD  PRO B 177      -0.854 -31.707  13.173  1.00 21.80 LIG 0.13  C 
ENDROOT
BRANCH 4 8
ATOM      8  C   PRO B 177      -0.932 -28.332  13.574  1.00 25.32 LIG 0.24  C 
ATOM      9 O    PRO B 177      -0.815 -27.268  14.184  1.00 32.00 LIG-0.27  OA
ATOM     10  N   PHE B 178      -1.792 -28.500  12.580  1.00 24.88 LIG-0.34  N 
ATOM     11 H    PHE B 178      -1.853 -29.227  12.126  1.00 24.88 LIG 0.16  HD
BRANCH 10 12
ATOM     12  CA  PHE B 178      -2.726 -27.458  12.159  1.00 25.09 LIG 0.19  C 
BRANCH 12 13
ATOM     13  CB  PHE B 178      -2.312 -26.804  10.821  1.00 24.80 LIG 0.07  C 
BRANCH 13 14
ATOM     14  CG  PHE B 178      -1.620 -27.750   9.854  1.00 21.99 LIG-0.06  A 
ATOM     15  CD2 PHE B 178      -2.315 -28.402   8.818  1.00 23.17 LIG 0.01  A 
ATOM     16  CE2 PHE B 178      -1.649 -29.273   7.935  1.00 21.52 LIG 0.00  A 
ATOM     17  CZ  PHE B 178      -0.301 -29.459   8.085  1.00 22.39 LIG 0.00  A 
ATOM     18  CE1 PHE B 178       0.412 -28.814   9.079  1.00 21.58 LIG 0.00  A 
ATOM     19  CD1 PHE B 178      -0.245 -27.948   9.949  1.00 21.72 LIG 0.01  A 
ENDBRANCH 13 14
ENDBRANCH 12 13
BRANCH 12 20
ATOM     20  C   PHE B 178      -4.133 -28.031  12.119  1.00 24.87 LIG 0.20  C 
ATOM     21 OXT  PHE B 178      -4.731 -28.058  11.038  1.00 27.82 LIG-0.65  OA
ATOM     22 O    PHE B 178      -4.693 -28.431  13.139  1.00 30.25 LIG-0.65  OA
ENDBRANCH 12 20
ENDBRANCH 10 12
ENDBRANCH 4 8
BRANCH 1 23
ATOM     23  CA  ILE B 176      -2.087 -32.290  15.778  1.00 23.71 LIG 0.18  C 
BRANCH 23 24
ATOM     24  N   ILE B 176      -2.480 -32.306  17.180  1.00 24.90 LIG-0.34  N 
ATOM     25  C   ASP B 175      -2.694 -33.453  17.822  1.00 27.89 LIG 0.26  C 
ATOM     26 O    ASP B 175      -2.563 -34.549  17.277  1.00 29.58 LIG-0.27  OA
ATOM     27 H    ILE B 176      -2.557 -31.528  17.540  1.00 24.90 LIG 0.16  HD
BRANCH 25 28
ATOM     28  CA  ASP B 175      -3.132 -33.364  19.289  1.00 34.92 LIG 0.41  C 
ATOM     29  N   ASP B 175      -1.996 -33.138  20.238  1.00 43.46 LIG 0.61  N 
BRANCH 28 30
ATOM     30  CB  ASP B 175      -4.190 -32.259  19.466  1.00 38.90 LIG 0.16  C 
BRANCH 30 31
ATOM     31  CG  ASP B 175      -3.583 -30.850  19.522  1.00 38.28 LIG 0.17  C 
ATOM     32 OD2  ASP B 175      -2.846 -30.555  20.502  1.00 42.70 LIG-0.65  OA
ATOM     33 OD1  ASP B 175      -3.815 -30.046  18.583  1.00 44.78 LIG-0.65  OA
ENDBRANCH 30 31
ENDBRANCH 28 30
ENDBRANCH 25 28
ENDBRANCH 23 24
BRANCH 23 34
ATOM     34  CB  ILE B 176      -3.277 -32.503  14.829  1.00 23.83 LIG 0.01  C 
ATOM     35  CG2 ILE B 176      -3.440 -33.977  14.537  1.00 26.43 LIG 0.01  C 
BRANCH 34 36
ATOM     36  CG1 ILE B 176      -4.552 -31.919  15.459  1.00 26.50 LIG 0.00  C 
ATOM     37  CD1 ILE B 176      -4.565 -30.413  15.539  1.00 30.68 LIG 0.01  C 
ENDBRANCH 34 36
ENDBRANCH 23 34
ENDBRANCH 1 23
TORSDOF 12
ENDMDL
MODEL 29
USER: ADFR SOLUTION from run 85
USER: SCORE 14.320584 LL:  -4.013 LR: -10.408 RR:   0.000 FEB:  -6.829
USER: RMSD 4.329038
USER: SEED 84
USER: STATUS no improvement in best in 12 clusters for 5 generations
USER: GENES 14
USER: genes 0 Translation |==|  0.48370 0.37868 0.46439
USER: genes 1 Rotation |==|  0.28469 0.52627 0.51871 0.95011
USER: genes 2 Torsion [N]-CA--C-[O] |==|  0.68290
USER: genes 3 Torsion [C]-N--CA-[CB] |==|  0.17292
USER: genes 4 Torsion [N]-CA--CB-[CG] |==|  0.10785
USER: genes 5 Torsion [CA]-CB--CG-[CD2] |==|  0.72768
USER: genes 6 Torsion [N]-CA--C-[O] |==|  0.95122
USER: genes 7 Torsion [N]-C--CA-[N] |==|  0.46667
USER: genes 8 Torsion [C]-CA--N-[C] |==|  0.80919
USER: genes 9 Torsion [N]-C--CA-[N] |==|  0.53706
USER: genes 10 Torsion [C]-CA--CB-[CG] |==|  0.78253
USER: genes 11 Torsion [CA]-CB--CG-[OD2] |==|  0.98082
USER: genes 12 Torsion [C]-CA--CB-[CG1] |==|  0.65125
USER: genes 13 Torsion [CA]-CB--CG1-[CD1] |==|  0.55928
ROOT
ATOM      1  C   ILE B 176      -0.685 -32.582  13.451  1.00 22.90 LIG 0.24  C 
ATOM      2 O    ILE B 176       0.421 -32.027  13.584  1.00 27.22 LIG-0.27  OA
ATOM      3  N   PRO B 177      -1.705 -32.345  14.292  1.00 22.83 LIG-0.34  N 
ATOM      4  CA  PRO B 177      -1.632 -31.326  15.354  1.00 24.67 LIG 0.18  C 
ATOM      5  CB  PRO B 177      -3.104 -30.989  15.608  1.00 26.20 LIG 0.04  C 
ATOM      6  CG  PRO B 177      -3.783 -32.306  15.375  1.00 24.14 LIG 0.02  C 
ATOM      7  CD  PRO B 177      -3.062 -32.929  14.201  1.00 21.80 LIG 0.13  C 
ENDROOT
BRANCH 4 8
ATOM      8  C   PRO B 177      -0.970 -31.823  16.642  1.00 25.32 LIG 0.24  C 
ATOM      9 O    PRO B 177      -1.633 -31.917  17.676  1.00 32.00 LIG-0.27  OA
ATOM     10  N   PHE B 178       0.322 -32.112  16.588  1.00 24.88 LIG-0.34  N 
ATOM     11 H    PHE B 178       0.783 -32.085  15.863  1.00 24.88 LIG 0.16  HD
BRANCH 10 12
ATOM     12  CA  PHE B 178       1.093 -32.507  17.765  1.00 25.09 LIG 0.19  C 
BRANCH 12 13
ATOM     13  CB  PHE B 178       0.576 -33.823  18.390  1.00 24.80 LIG 0.07  C 
BRANCH 13 14
ATOM     14  CG  PHE B 178       0.145 -34.868  17.375  1.00 21.99 LIG-0.06  A 
ATOM     15  CD2 PHE B 178      -1.203 -35.050  17.013  1.00 23.17 LIG 0.01  A 
ATOM     16  CE2 PHE B 178      -1.575 -36.026  16.069  1.00 21.52 LIG 0.00  A 
ATOM     17  CZ  PHE B 178      -0.595 -36.784  15.486  1.00 22.39 LIG 0.00  A 
ATOM     18  CE1 PHE B 178       0.739 -36.612  15.804  1.00 21.58 LIG 0.00  A 
ATOM     19  CD1 PHE B 178       1.108 -35.644  16.734  1.00 21.72 LIG 0.01  A 
ENDBRANCH 13 14
ENDBRANCH 12 13
BRANCH 12 20
ATOM     20  C   PHE B 178       2.567 -32.572  17.401  1.00 24.87 LIG 0.20  C 
ATOM     21 OXT  PHE B 178       3.403 -32.526  18.309  1.00 27.82 LIG-0.65  OA
ATOM     22 O    PHE B 178       2.938 -32.631  16.229  1.00 30.25 LIG-0.65  OA
ENDBRANCH 12 20
ENDBRANCH 10 12
ENDBRANCH 4 8
BRANCH 1 23
ATOM     23  CA  ILE B 176      -0.906 -33.563  12.302  1.00 23.71 LIG 0.18  C 
BRANCH 23 24
ATOM     24  N   ILE B 176       0.221 -33.428  11.390  1.00 24.90 LIG-0.34  N 
ATOM     25  C   ASP B 175       0.391 -32.323  10.666  1.00 27.89 LIG 0.26  C 
ATOM     26 O    ASP B 175      -0.377 -31.364  10.734  1.00 29.58 LIG-0.27  OA
ATOM     27 H    ILE B 176       0.747 -34.108  11.366  1.00 24.90 LIG 0.16  HD
BRANCH 25 28
ATOM     28  CA  ASP B 175       1.592 -32.288   9.713  1.00 34.92 LIG 0.41  C 
ATOM     29  N   ASP B 175       1.893 -30.921   9.183  1.00 43.46 LIG 0.61  N 
BRANCH 28 30
ATOM     30  CB  ASP B 175       2.840 -32.868  10.404  1.00 38.90 LIG 0.16  C 
BRANCH 30 31
ATOM     31  CG  ASP B 175       3.503 -31.880  11.375  1.00 38.28 LIG 0.17  C 
ATOM     32 OD2  ASP B 175       3.070 -30.696  11.412  1.00 42.70 LIG-0.65  OA
ATOM     33 OD1  ASP B 175       4.435 -32.284  12.117  1.00 44.78 LIG-0.65  OA
ENDBRANCH 30 31
ENDBRANCH 28 30
ENDBRANCH 25 28
ENDBRANCH 23 24
BRANCH 23 34
ATOM     34  CB  ILE B 176      -1.076 -34.998  12.824  1.00 23.83 LIG 0.01  C 
ATOM     35  CG2 ILE B 176      -2.495 -35.464  12.586  1.00 26.43 LIG 0.01  C 
BRANCH 34 36
ATOM     36  CG1 ILE B 176      -0.065 -35.924  12.129  1.00 26.50 LIG 0.00  C 
ATOM     37  CD1 ILE B 176      -0.446 -37.383  12.158  1.00 30.68 LIG 0.01  C 
ENDBRANCH 34 36
ENDBRANCH 23 34
ENDBRANCH 1 23
TORSDOF 12
ENDMDL
MODEL 30
USER: ADFR SOLUTION from run 15
USER: SCORE 13.601105 LL:  -3.705 LR: -10.394 RR:   0.000 FEB:  -6.814
USER: RMSD 4.366539
USER: SEED 669844
USER: STATUS no improvement in best in 17 clusters for 5 generations
USER: GENES 14
USER: genes 0 Translation |==|  0.40610 0.40528 0.52262
USER: genes 1 Rotation |==|  0.65302 0.10237 0.74797 0.58361
USER: genes 2 Torsion [N]-CA--C-[O] |==|  0.44285
USER: genes 3 Torsion [C]-N--CA-[CB] |==|  0.84878
USER: genes 4 Torsion [N]-CA--CB-[CG] |==|  0.83555
USER: genes 5 Torsion [CA]-CB--CG-[CD2] |==|  0.75896
USER: genes 6 Torsion [N]-CA--C-[O] |==|  0.29173
USER: genes 7 Torsion [N]-C--CA-[N] |==|  0.18931
USER: genes 8 Torsion [C]-CA--N-[C] |==|  0.62225
USER: genes 9 Torsion [N]-C--CA-[N] |==|  0.89140
USER: genes 10 Torsion [C]-CA--CB-[CG] |==|  0.78580
USER: genes 11 Torsion [CA]-CB--CG-[OD2] |==|  0.78010
USER: genes 12 Torsion [C]-CA--CB-[CG1] |==|  0.17618
USER: genes 13 Torsion [CA]-CB--CG1-[CD1] |==|  0.41732
ROOT
ATOM      1  C   ILE B 176      -1.849 -32.023  14.412  1.00 22.90 LIG 0.24  C 
ATOM      2 O    ILE B 176      -2.732 -32.855  14.687  1.00 27.22 LIG-0.27  OA
ATOM      3  N   PRO B 177      -0.731 -32.364  13.751  1.00 22.83 LIG-0.34  N 
ATOM      4  CA  PRO B 177      -0.522 -33.714  13.198  1.00 24.67 LIG 0.18  C 
ATOM      5  CB  PRO B 177       0.496 -33.473  12.079  1.00 26.20 LIG 0.04  C 
ATOM      6  CG  PRO B 177       1.330 -32.358  12.635  1.00 24.14 LIG 0.02  C 
ATOM      7  CD  PRO B 177       0.359 -31.446  13.352  1.00 21.80 LIG 0.13  C 
ENDROOT
BRANCH 4 8
ATOM      8  C   PRO B 177       0.031 -34.719  14.213  1.00 25.32 LIG 0.24  C 
ATOM      9 O    PRO B 177      -0.102 -35.927  14.014  1.00 32.00 LIG-0.27  OA
ATOM     10  N   PHE B 178       0.618 -34.228  15.294  1.00 24.88 LIG-0.34  N 
ATOM     11 H    PHE B 178       0.747 -33.388  15.422  1.00 24.88 LIG 0.16  HD
BRANCH 10 12
ATOM     12  CA  PHE B 178       1.105 -35.074  16.382  1.00 25.09 LIG 0.19  C 
BRANCH 12 13
ATOM     13  CB  PHE B 178       0.006 -36.010  16.935  1.00 24.80 LIG 0.07  C 
BRANCH 13 14
ATOM     14  CG  PHE B 178      -1.213 -35.285  17.480  1.00 21.99 LIG-0.06  A 
ATOM     15  CD2 PHE B 178      -1.280 -34.827  18.809  1.00 23.17 LIG 0.01  A 
ATOM     16  CE2 PHE B 178      -2.422 -34.157  19.289  1.00 21.52 LIG 0.00  A 
ATOM     17  CZ  PHE B 178      -3.464 -33.935  18.429  1.00 22.39 LIG 0.00  A 
ATOM     18  CE1 PHE B 178      -3.417 -34.353  17.112  1.00 21.58 LIG 0.00  A 
ATOM     19  CD1 PHE B 178      -2.287 -35.011  16.636  1.00 21.72 LIG 0.01  A 
ENDBRANCH 13 14
ENDBRANCH 12 13
BRANCH 12 20
ATOM     20  C   PHE B 178       2.338 -35.831  15.916  1.00 24.87 LIG 0.20  C 
ATOM     21 OXT  PHE B 178       2.188 -36.808  15.175  1.00 27.82 LIG-0.65  OA
ATOM     22 O    PHE B 178       3.466 -35.512  16.289  1.00 30.25 LIG-0.65  OA
ENDBRANCH 12 20
ENDBRANCH 10 12
ENDBRANCH 4 8
BRANCH 1 23
ATOM     23  CA  ILE B 176      -2.026 -30.565  14.830  1.00 23.71 LIG 0.18  C 
BRANCH 23 24
ATOM     24  N   ILE B 176      -2.207 -29.783  13.615  1.00 24.90 LIG-0.34  N 
ATOM     25  C   ASP B 175      -1.577 -28.622  13.445  1.00 27.89 LIG 0.26  C 
ATOM     26 O    ASP B 175      -0.809 -28.157  14.286  1.00 29.58 LIG-0.27  OA
ATOM     27 H    ILE B 176      -2.742 -30.132  13.039  1.00 24.90 LIG 0.16  HD
BRANCH 25 28
ATOM     28  CA  ASP B 175      -1.855 -27.858  12.143  1.00 34.92 LIG 0.41  C 
ATOM     29  N   ASP B 175      -1.971 -28.746  10.944  1.00 43.46 LIG 0.61  N 
BRANCH 28 30
ATOM     30  CB  ASP B 175      -3.126 -27.002  12.287  1.00 38.90 LIG 0.16  C 
BRANCH 30 31
ATOM     31  CG  ASP B 175      -4.419 -27.825  12.184  1.00 38.28 LIG 0.17  C 
ATOM     32 OD2  ASP B 175      -4.825 -28.159  11.037  1.00 42.70 LIG-0.65  OA
ATOM     33 OD1  ASP B 175      -5.017 -28.160  13.238  1.00 44.78 LIG-0.65  OA
ENDBRANCH 30 31
ENDBRANCH 28 30
ENDBRANCH 25 28
ENDBRANCH 23 24
BRANCH 23 34
ATOM     34  CB  ILE B 176      -3.196 -30.409  15.813  1.00 23.83 LIG 0.01  C 
ATOM     35  CG2 ILE B 176      -4.472 -30.907  15.172  1.00 26.43 LIG 0.01  C 
BRANCH 34 36
ATOM     36  CG1 ILE B 176      -2.890 -31.180  17.108  1.00 26.50 LIG 0.00  C 
ATOM     37  CD1 ILE B 176      -3.524 -30.588  18.341  1.00 30.68 LIG 0.01  C 
ENDBRANCH 34 36
ENDBRANCH 23 34
ENDBRANCH 1 23
TORSDOF 12
ENDMDL
MODEL 31
USER: ADFR SOLUTION from run 162
USER: SCORE 13.474768 LL:  -3.380 LR: -10.357 RR:   0.000 FEB:  -6.778
USER: RMSD 3.520171
USER: SEED 161
USER: STATUS no improvement in best in 9 clusters for 5 generations
USER: GENES 14
USER: genes 0 Translation |==|  0.40476 0.48605 0.43181
USER: genes 1 Rotation |==|  0.66433 0.17539 0.80079 0.66476
USER: genes 2 Torsion [N]-CA--C-[O] |==|  0.66677
USER: genes 3 Torsion [C]-N--CA-[CB] |==|  0.77356
USER: genes 4 Torsion [N]-CA--CB-[CG] |==|  0.06854
USER: genes 5 Torsion [CA]-CB--CG-[CD2] |==|  0.27564
USER: genes 6 Torsion [N]-CA--C-[O] |==|  0.60694
USER: genes 7 Torsion [N]-C--CA-[N] |==|  0.89207
USER: genes 8 Torsion [C]-CA--N-[C] |==|  0.73396
USER: genes 9 Torsion [N]-C--CA-[N] |==|  0.79676
USER: genes 10 Torsion [C]-CA--CB-[CG] |==|  0.78425
USER: genes 11 Torsion [CA]-CB--CG-[OD2] |==|  0.91788
USER: genes 12 Torsion [C]-CA--CB-[CG1] |==|  0.65534
USER: genes 13 Torsion [CA]-CB--CG1-[CD1] |==|  0.31992
ROOT
ATOM      1  C   ILE B 176      -1.869 -30.327  12.914  1.00 22.90 LIG 0.24  C 
ATOM      2 O    ILE B 176      -2.606 -30.935  13.710  1.00 27.22 LIG-0.27  OA
ATOM      3  N   PRO B 177      -0.942 -30.960  12.177  1.00 22.83 LIG-0.34  N 
ATOM      4  CA  PRO B 177      -0.810 -32.428  12.165  1.00 24.67 LIG 0.18  C 
ATOM      5  CB  PRO B 177      -0.128 -32.700  10.821  1.00 26.20 LIG 0.04  C 
ATOM      6  CG  PRO B 177       0.760 -31.503  10.660  1.00 24.14 LIG 0.02  C 
ATOM      7  CD  PRO B 177      -0.041 -30.332  11.184  1.00 21.80 LIG 0.13  C 
ENDROOT
BRANCH 4 8
ATOM      8  C   PRO B 177       0.037 -32.981  13.313  1.00 25.32 LIG 0.24  C 
ATOM      9 O    PRO B 177       1.057 -33.627  13.067  1.00 32.00 LIG-0.27  OA
ATOM     10  N   PHE B 178      -0.391 -32.756  14.546  1.00 24.88 LIG-0.34  N 
ATOM     11 H    PHE B 178      -1.081 -32.275  14.728  1.00 24.88 LIG 0.16  HD
BRANCH 10 12
ATOM     12  CA  PHE B 178       0.273 -33.306  15.727  1.00 25.09 LIG 0.19  C 
BRANCH 12 13
ATOM     13  CB  PHE B 178      -0.138 -34.771  16.002  1.00 24.80 LIG 0.07  C 
BRANCH 13 14
ATOM     14  CG  PHE B 178      -0.623 -35.523  14.774  1.00 21.99 LIG-0.06  A 
ATOM     15  CD2 PHE B 178       0.210 -36.400  14.055  1.00 23.17 LIG 0.01  A 
ATOM     16  CE2 PHE B 178      -0.266 -37.085  12.920  1.00 21.52 LIG 0.00  A 
ATOM     17  CZ  PHE B 178      -1.568 -36.901  12.539  1.00 22.39 LIG 0.00  A 
ATOM     18  CE1 PHE B 178      -2.416 -36.064  13.239  1.00 21.58 LIG 0.00  A 
ATOM     19  CD1 PHE B 178      -1.948 -35.390  14.364  1.00 21.72 LIG 0.01  A 
ENDBRANCH 13 14
ENDBRANCH 12 13
BRANCH 12 20
ATOM     20  C   PHE B 178       1.776 -33.138  15.581  1.00 24.87 LIG 0.20  C 
ATOM     21 OXT  PHE B 178       2.208 -32.115  15.039  1.00 27.82 LIG-0.65  OA
ATOM     22 O    PHE B 178       2.560 -34.009  15.957  1.00 30.25 LIG-0.65  OA
ENDBRANCH 12 20
ENDBRANCH 10 12
ENDBRANCH 4 8
BRANCH 1 23
ATOM     23  CA  ILE B 176      -2.010 -28.814  12.755  1.00 23.71 LIG 0.18  C 
BRANCH 23 24
ATOM     24  N   ILE B 176      -0.670 -28.264  12.609  1.00 24.90 LIG-0.34  N 
ATOM     25  C   ASP B 175      -0.010 -27.774  13.656  1.00 27.89 LIG 0.26  C 
ATOM     26 O    ASP B 175      -0.483 -27.769  14.792  1.00 29.58 LIG-0.27  OA
ATOM     27 H    ILE B 176      -0.359 -28.286  11.807  1.00 24.90 LIG 0.16  HD
BRANCH 25 28
ATOM     28  CA  ASP B 175       1.385 -27.191  13.395  1.00 34.92 LIG 0.41  C 
ATOM     29  N   ASP B 175       2.425 -28.232  13.122  1.00 43.46 LIG 0.61  N 
BRANCH 28 30
ATOM     30  CB  ASP B 175       1.333 -26.184  12.231  1.00 38.90 LIG 0.16  C 
BRANCH 30 31
ATOM     31  CG  ASP B 175       1.276 -26.860  10.854  1.00 38.28 LIG 0.17  C 
ATOM     32 OD2  ASP B 175       1.821 -27.989  10.719  1.00 42.70 LIG-0.65  OA
ATOM     33 OD1  ASP B 175       0.670 -26.284   9.914  1.00 44.78 LIG-0.65  OA
ENDBRANCH 30 31
ENDBRANCH 28 30
ENDBRANCH 25 28
ENDBRANCH 23 24
BRANCH 23 34
ATOM     34  CB  ILE B 176      -2.926 -28.465  11.572  1.00 23.83 LIG 0.01  C 
ATOM     35  CG2 ILE B 176      -4.189 -27.807  12.080  1.00 26.43 LIG 0.01  C 
BRANCH 34 36
ATOM     36  CG1 ILE B 176      -2.177 -27.545  10.593  1.00 26.50 LIG 0.00  C 
ATOM     37  CD1 ILE B 176      -1.931 -28.159   9.238  1.00 30.68 LIG 0.01  C 
ENDBRANCH 34 36
ENDBRANCH 23 34
ENDBRANCH 1 23
TORSDOF 12
ENDMDL
MODEL 32
USER: ADFR SOLUTION from run 87
USER: SCORE 13.461972 LL:  -3.613 LR: -10.363 RR:   0.000 FEB:  -6.783
USER: RMSD 5.447038
USER: SEED 86
USER: STATUS no improvement in best in 16 clusters for 5 generations
USER: GENES 14
USER: genes 0 Translation |==|  0.51332 0.26199 0.52360
USER: genes 1 Rotation |==|  0.42558 0.63094 0.11525 0.78158
USER: genes 2 Torsion [N]-CA--C-[O] |==|  0.21749
USER: genes 3 Torsion [C]-N--CA-[CB] |==|  0.84485
USER: genes 4 Torsion [N]-CA--CB-[CG] |==|  0.87584
USER: genes 5 Torsion [CA]-CB--CG-[CD2] |==|  0.77284
USER: genes 6 Torsion [N]-CA--C-[O] |==|  0.19923
USER: genes 7 Torsion [N]-C--CA-[N] |==|  0.19171
USER: genes 8 Torsion [C]-CA--N-[C] |==|  0.65322
USER: genes 9 Torsion [N]-C--CA-[N] |==|  0.34884
USER: genes 10 Torsion [C]-CA--CB-[CG] |==|  0.22614
USER: genes 11 Torsion [CA]-CB--CG-[OD2] |==|  0.79374
USER: genes 12 Torsion [C]-CA--CB-[CG1] |==|  0.15097
USER: genes 13 Torsion [CA]-CB--CG1-[CD1] |==|  0.21660
ROOT
ATOM      1  C   ILE B 176      -0.240 -35.032  14.428  1.00 22.90 LIG 0.24  C 
ATOM      2 O    ILE B 176      -0.190 -36.229  14.765  1.00 27.22 LIG-0.27  OA
ATOM      3  N   PRO B 177       0.152 -34.045  15.249  1.00 22.83 LIG-0.34  N 
ATOM      4  CA  PRO B 177       0.780 -34.307  16.556  1.00 24.67 LIG 0.18  C 
ATOM      5  CB  PRO B 177       1.573 -33.023  16.820  1.00 26.20 LIG 0.04  C 
ATOM      6  CG  PRO B 177       0.705 -31.973  16.195  1.00 24.14 LIG 0.02  C 
ATOM      7  CD  PRO B 177       0.159 -32.599  14.931  1.00 21.80 LIG 0.13  C 
ENDROOT
BRANCH 4 8
ATOM      8  C   PRO B 177      -0.223 -34.555  17.686  1.00 25.32 LIG 0.24  C 
ATOM      9 O    PRO B 177      -0.775 -35.652  17.786  1.00 32.00 LIG-0.27  OA
ATOM     10  N   PHE B 178      -0.474 -33.546  18.506  1.00 24.88 LIG-0.34  N 
ATOM     11 H    PHE B 178      -0.066 -32.790  18.465  1.00 24.88 LIG 0.16  HD
BRANCH 10 12
ATOM     12  CA  PHE B 178      -1.477 -33.621  19.567  1.00 25.09 LIG 0.19  C 
BRANCH 12 13
ATOM     13  CB  PHE B 178      -2.875 -34.000  19.028  1.00 24.80 LIG 0.07  C 
BRANCH 13 14
ATOM     14  CG  PHE B 178      -3.280 -33.254  17.768  1.00 21.99 LIG-0.06  A 
ATOM     15  CD2 PHE B 178      -3.816 -31.953  17.807  1.00 23.17 LIG 0.01  A 
ATOM     16  CE2 PHE B 178      -4.182 -31.284  16.623  1.00 21.52 LIG 0.00  A 
ATOM     17  CZ  PHE B 178      -3.985 -31.913  15.424  1.00 22.39 LIG 0.00  A 
ATOM     18  CE1 PHE B 178      -3.440 -33.181  15.353  1.00 21.58 LIG 0.00  A 
ATOM     19  CD1 PHE B 178      -3.073 -33.842  16.522  1.00 21.72 LIG 0.01  A 
ENDBRANCH 13 14
ENDBRANCH 12 13
BRANCH 12 20
ATOM     20  C   PHE B 178      -0.991 -34.568  20.651  1.00 24.87 LIG 0.20  C 
ATOM     21 OXT  PHE B 178      -1.565 -35.653  20.790  1.00 27.82 LIG-0.65  OA
ATOM     22 O    PHE B 178      -0.070 -34.261  21.408  1.00 30.25 LIG-0.65  OA
ENDBRANCH 12 20
ENDBRANCH 10 12
ENDBRANCH 4 8
BRANCH 1 23
ATOM     23  CA  ILE B 176      -0.758 -34.657  13.041  1.00 23.71 LIG 0.18  C 
BRANCH 23 24
ATOM     24  N   ILE B 176       0.373 -34.154  12.275  1.00 24.90 LIG-0.34  N 
ATOM     25  C   ASP B 175       0.335 -32.952  11.702  1.00 27.89 LIG 0.26  C 
ATOM     26 O    ASP B 175      -0.639 -32.206  11.797  1.00 29.58 LIG-0.27  OA
ATOM     27 H    ILE B 176       1.043 -34.691  12.230  1.00 24.90 LIG 0.16  HD
BRANCH 25 28
ATOM     28  CA  ASP B 175       1.565 -32.523  10.891  1.00 34.92 LIG 0.41  C 
ATOM     29  N   ASP B 175       1.240 -32.112   9.489  1.00 43.46 LIG 0.61  N 
BRANCH 28 30
ATOM     30  CB  ASP B 175       2.309 -31.385  11.613  1.00 38.90 LIG 0.16  C 
BRANCH 30 31
ATOM     31  CG  ASP B 175       3.234 -31.886  12.731  1.00 38.28 LIG 0.17  C 
ATOM     32 OD2  ASP B 175       2.711 -32.284  13.807  1.00 42.70 LIG-0.65  OA
ATOM     33 OD1  ASP B 175       4.476 -31.909  12.533  1.00 44.78 LIG-0.65  OA
ENDBRANCH 30 31
ENDBRANCH 28 30
ENDBRANCH 25 28
ENDBRANCH 23 24
BRANCH 23 34
ATOM     34  CB  ILE B 176      -1.446 -35.854  12.365  1.00 23.83 LIG 0.01  C 
ATOM     35  CG2 ILE B 176      -0.419 -36.916  12.041  1.00 26.43 LIG 0.01  C 
BRANCH 34 36
ATOM     36  CG1 ILE B 176      -2.544 -36.409  13.288  1.00 26.50 LIG 0.00  C 
ATOM     37  CD1 ILE B 176      -3.815 -35.597  13.288  1.00 30.68 LIG 0.01  C 
ENDBRANCH 34 36
ENDBRANCH 23 34
ENDBRANCH 1 23
TORSDOF 12
ENDMDL
MODEL 33
USER: ADFR SOLUTION from run 142
USER: SCORE 14.818195 LL:  -4.470 LR: -10.353 RR:   0.000 FEB:  -6.774
USER: RMSD 2.366900
USER: SEED 141
USER: STATUS no improvement in best in 11 clusters for 5 generations
USER: GENES 14
USER: genes 0 Translation |==|  0.51007 0.43486 0.55852
USER: genes 1 Rotation |==|  0.54941 0.44078 0.52650 0.99330
USER: genes 2 Torsion [N]-CA--C-[O] |==|  0.58621
USER: genes 3 Torsion [C]-N--CA-[CB] |==|  0.20728
USER: genes 4 Torsion [N]-CA--CB-[CG] |==|  0.09221
USER: genes 5 Torsion [CA]-CB--CG-[CD2] |==|  0.25552
USER: genes 6 Torsion [N]-CA--C-[O] |==|  0.52059
USER: genes 7 Torsion [N]-C--CA-[N] |==|  0.39179
USER: genes 8 Torsion [C]-CA--N-[C] |==|  0.81116
USER: genes 9 Torsion [N]-C--CA-[N] |==|  0.31677
USER: genes 10 Torsion [C]-CA--CB-[CG] |==|  0.82365
USER: genes 11 Torsion [CA]-CB--CG-[OD2] |==|  0.91023
USER: genes 12 Torsion [C]-CA--CB-[CG1] |==|  0.37307
USER: genes 13 Torsion [CA]-CB--CG1-[CD1] |==|  0.54191
ROOT
ATOM      1  C   ILE B 176      -0.289 -31.402  15.005  1.00 22.90 LIG 0.24  C 
ATOM      2 O    ILE B 176       0.620 -31.317  15.850  1.00 27.22 LIG-0.27  OA
ATOM      3  N   PRO B 177      -1.459 -32.001  15.277  1.00 22.83 LIG-0.34  N 
ATOM      4  CA  PRO B 177      -1.800 -32.493  16.624  1.00 24.67 LIG 0.18  C 
ATOM      5  CB  PRO B 177      -3.331 -32.506  16.608  1.00 26.20 LIG 0.04  C 
ATOM      6  CG  PRO B 177      -3.637 -32.862  15.184  1.00 24.14 LIG 0.02  C 
ATOM      7  CD  PRO B 177      -2.609 -32.126  14.353  1.00 21.80 LIG 0.13  C 
ENDROOT
BRANCH 4 8
ATOM      8  C   PRO B 177      -1.260 -33.893  16.925  1.00 25.32 LIG 0.24  C 
ATOM      9 O    PRO B 177      -1.880 -34.641  17.683  1.00 32.00 LIG-0.27  OA
ATOM     10  N   PHE B 178      -0.110 -34.234  16.363  1.00 24.88 LIG-0.34  N 
ATOM     11 H    PHE B 178       0.311 -33.733  15.804  1.00 24.88 LIG 0.16  HD
BRANCH 10 12
ATOM     12  CA  PHE B 178       0.560 -35.503  16.640  1.00 25.09 LIG 0.19  C 
BRANCH 12 13
ATOM     13  CB  PHE B 178      -0.134 -36.697  15.946  1.00 24.80 LIG 0.07  C 
BRANCH 13 14
ATOM     14  CG  PHE B 178      -0.763 -36.359  14.605  1.00 21.99 LIG-0.06  A 
ATOM     15  CD2 PHE B 178      -0.065 -36.506  13.392  1.00 23.17 LIG 0.01  A 
ATOM     16  CE2 PHE B 178      -0.672 -36.185  12.163  1.00 21.52 LIG 0.00  A 
ATOM     17  CZ  PHE B 178      -1.970 -35.747  12.164  1.00 22.39 LIG 0.00  A 
ATOM     18  CE1 PHE B 178      -2.687 -35.614  13.338  1.00 21.58 LIG 0.00  A 
ATOM     19  CD1 PHE B 178      -2.089 -35.936  14.553  1.00 21.72 LIG 0.01  A 
ENDBRANCH 13 14
ENDBRANCH 12 13
BRANCH 12 20
ATOM     20  C   PHE B 178       2.030 -35.386  16.271  1.00 24.87 LIG 0.20  C 
ATOM     21 OXT  PHE B 178       2.465 -34.286  15.914  1.00 27.82 LIG-0.65  OA
ATOM     22 O    PHE B 178       2.776 -36.365  16.287  1.00 30.25 LIG-0.65  OA
ENDBRANCH 12 20
ENDBRANCH 10 12
ENDBRANCH 4 8
BRANCH 1 23
ATOM     23  CA  ILE B 176      -0.086 -30.810  13.611  1.00 23.71 LIG 0.18  C 
BRANCH 23 24
ATOM     24  N   ILE B 176       0.638 -29.557  13.772  1.00 24.90 LIG-0.34  N 
ATOM     25  C   ASP B 175       0.070 -28.505  14.357  1.00 27.89 LIG 0.26  C 
ATOM     26 O    ASP B 175      -1.078 -28.535  14.800  1.00 29.58 LIG-0.27  OA
ATOM     27 H    ILE B 176       1.440 -29.563  13.461  1.00 24.90 LIG 0.16  HD
BRANCH 25 28
ATOM     28  CA  ASP B 175       0.904 -27.220  14.453  1.00 34.92 LIG 0.41  C 
ATOM     29  N   ASP B 175       0.354 -26.091  13.640  1.00 43.46 LIG 0.61  N 
BRANCH 28 30
ATOM     30  CB  ASP B 175       1.049 -26.786  15.923  1.00 38.90 LIG 0.16  C 
BRANCH 30 31
ATOM     31  CG  ASP B 175      -0.292 -26.422  16.578  1.00 38.28 LIG 0.17  C 
ATOM     32 OD2  ASP B 175      -1.190 -25.910  15.856  1.00 42.70 LIG-0.65  OA
ATOM     33 OD1  ASP B 175      -0.463 -26.668  17.799  1.00 44.78 LIG-0.65  OA
ENDBRANCH 30 31
ENDBRANCH 28 30
ENDBRANCH 25 28
ENDBRANCH 23 24
BRANCH 23 34
ATOM     34  CB  ILE B 176       0.643 -31.800  12.690  1.00 23.83 LIG 0.01  C 
ATOM     35  CG2 ILE B 176       0.681 -33.167  13.337  1.00 26.43 LIG 0.01  C 
BRANCH 34 36
ATOM     36  CG1 ILE B 176      -0.064 -31.853  11.326  1.00 26.50 LIG 0.00  C 
ATOM     37  CD1 ILE B 176       0.331 -33.033  10.473  1.00 30.68 LIG 0.01  C 
ENDBRANCH 34 36
ENDBRANCH 23 34
ENDBRANCH 1 23
TORSDOF 12
ENDMDL
MODEL 34
USER: ADFR SOLUTION from run 58
USER: SCORE 13.336041 LL:  -3.151 LR: -10.352 RR:   0.000 FEB:  -6.772
USER: RMSD 7.592218
USER: SEED 57
USER: STATUS no improvement in best in 9 clusters for 5 generations
USER: GENES 14
USER: genes 0 Translation |==|  0.35158 0.32702 0.53478
USER: genes 1 Rotation |==|  0.28872 0.91588 0.66470 0.57267
USER: genes 2 Torsion [N]-CA--C-[O] |==|  0.08429
USER: genes 3 Torsion [C]-N--CA-[CB] |==|  0.44797
USER: genes 4 Torsion [N]-CA--CB-[CG] |==|  0.86804
USER: genes 5 Torsion [CA]-CB--CG-[CD2] |==|  0.19274
USER: genes 6 Torsion [N]-CA--C-[O] |==|  0.92307
USER: genes 7 Torsion [N]-C--CA-[N] |==|  0.86684
USER: genes 8 Torsion [C]-CA--N-[C] |==|  0.80091
USER: genes 9 Torsion [N]-C--CA-[N] |==|  0.60384
USER: genes 10 Torsion [C]-CA--CB-[CG] |==|  0.71950
USER: genes 11 Torsion [CA]-CB--CG-[OD2] |==|  0.14343
USER: genes 12 Torsion [C]-CA--CB-[CG1] |==|  0.01260
USER: genes 13 Torsion [CA]-CB--CG1-[CD1] |==|  0.60401
ROOT
ATOM      1  C   ILE B 176      -2.666 -33.667  14.613  1.00 22.90 LIG 0.24  C 
ATOM      2 O    ILE B 176      -3.440 -33.886  13.664  1.00 27.22 LIG-0.27  OA
ATOM      3  N   PRO B 177      -1.714 -32.722  14.550  1.00 22.83 LIG-0.34  N 
ATOM      4  CA  PRO B 177      -1.592 -31.799  13.408  1.00 24.67 LIG 0.18  C 
ATOM      5  CB  PRO B 177      -0.856 -30.599  14.014  1.00 26.20 LIG 0.04  C 
ATOM      6  CG  PRO B 177       0.045 -31.247  15.021  1.00 24.14 LIG 0.02  C 
ATOM      7  CD  PRO B 177      -0.769 -32.366  15.632  1.00 21.80 LIG 0.13  C 
ENDROOT
BRANCH 4 8
ATOM      8  C   PRO B 177      -0.796 -32.372  12.233  1.00 25.32 LIG 0.24  C 
ATOM      9 O    PRO B 177      -0.805 -33.586  12.020  1.00 32.00 LIG-0.27  OA
ATOM     10  N   PHE B 178      -0.100 -31.518  11.497  1.00 24.88 LIG-0.34  N 
ATOM     11 H    PHE B 178      -0.118 -30.667  11.616  1.00 24.88 LIG 0.16  HD
BRANCH 10 12
ATOM     12  CA  PHE B 178       0.773 -31.945  10.405  1.00 25.09 LIG 0.19  C 
BRANCH 12 13
ATOM     13  CB  PHE B 178       1.099 -30.791   9.429  1.00 24.80 LIG 0.07  C 
BRANCH 13 14
ATOM     14  CG  PHE B 178      -0.113 -29.986   8.990  1.00 21.99 LIG-0.06  A 
ATOM     15  CD2 PHE B 178      -0.813 -29.143   9.872  1.00 23.17 LIG 0.01  A 
ATOM     16  CE2 PHE B 178      -1.933 -28.408   9.438  1.00 21.52 LIG 0.00  A 
ATOM     17  CZ  PHE B 178      -2.319 -28.509   8.128  1.00 22.39 LIG 0.00  A 
ATOM     18  CE1 PHE B 178      -1.637 -29.311   7.233  1.00 21.58 LIG 0.00  A 
ATOM     19  CD1 PHE B 178      -0.526 -30.034   7.660  1.00 21.72 LIG 0.01  A 
ENDBRANCH 13 14
ENDBRANCH 12 13
BRANCH 12 20
ATOM     20  C   PHE B 178       2.020 -32.592  10.982  1.00 24.87 LIG 0.20  C 
ATOM     21 OXT  PHE B 178       2.587 -33.473  10.327  1.00 27.82 LIG-0.65  OA
ATOM     22 O    PHE B 178       2.449 -32.284  12.094  1.00 30.25 LIG-0.65  OA
ENDBRANCH 12 20
ENDBRANCH 10 12
ENDBRANCH 4 8
BRANCH 1 23
ATOM     23  CA  ILE B 176      -2.791 -34.485  15.896  1.00 23.71 LIG 0.18  C 
BRANCH 23 24
ATOM     24  N   ILE B 176      -1.455 -34.937  16.257  1.00 24.90 LIG-0.34  N 
ATOM     25  C   ASP B 175      -0.835 -35.882  15.553  1.00 27.89 LIG 0.26  C 
ATOM     26 O    ASP B 175      -1.345 -36.411  14.565  1.00 29.58 LIG-0.27  OA
ATOM     27 H    ILE B 176      -1.117 -34.546  16.946  1.00 24.90 LIG 0.16  HD
BRANCH 25 28
ATOM     28  CA  ASP B 175       0.559 -36.311  16.029  1.00 34.92 LIG 0.41  C 
ATOM     29  N   ASP B 175       1.506 -36.606  14.908  1.00 43.46 LIG 0.61  N 
BRANCH 28 30
ATOM     30  CB  ASP B 175       1.160 -35.238  16.955  1.00 38.90 LIG 0.16  C 
BRANCH 30 31
ATOM     31  CG  ASP B 175       2.185 -34.340  16.248  1.00 38.28 LIG 0.17  C 
ATOM     32 OD2  ASP B 175       1.851 -33.789  15.164  1.00 42.70 LIG-0.65  OA
ATOM     33 OD1  ASP B 175       3.310 -34.159  16.781  1.00 44.78 LIG-0.65  OA
ENDBRANCH 30 31
ENDBRANCH 28 30
ENDBRANCH 25 28
ENDBRANCH 23 24
BRANCH 23 34
ATOM     34  CB  ILE B 176      -3.459 -33.666  17.012  1.00 23.83 LIG 0.01  C 
ATOM     35  CG2 ILE B 176      -2.498 -33.497  18.168  1.00 26.43 LIG 0.01  C 
BRANCH 34 36
ATOM     36  CG1 ILE B 176      -3.903 -32.302  16.457  1.00 26.50 LIG 0.00  C 
ATOM     37  CD1 ILE B 176      -3.729 -31.158  17.425  1.00 30.68 LIG 0.01  C 
ENDBRANCH 34 36
ENDBRANCH 23 34
ENDBRANCH 1 23
TORSDOF 12
ENDMDL
MODEL 35
USER: ADFR SOLUTION from run 111
USER: SCORE 12.811917 LL:  -2.947 LR: -10.353 RR:   0.000 FEB:  -6.774
USER: RMSD 7.066645
USER: SEED 110
USER: STATUS no improvement in best in 17 clusters for 5 generations
USER: GENES 14
USER: genes 0 Translation |==|  0.41533 0.33660 0.47849
USER: genes 1 Rotation |==|  0.16792 0.82149 0.66148 0.60144
USER: genes 2 Torsion [N]-CA--C-[O] |==|  0.72525
USER: genes 3 Torsion [C]-N--CA-[CB] |==|  0.86272
USER: genes 4 Torsion [N]-CA--CB-[CG] |==|  0.85688
USER: genes 5 Torsion [CA]-CB--CG-[CD2] |==|  0.77252
USER: genes 6 Torsion [N]-CA--C-[O] |==|  0.40844
USER: genes 7 Torsion [N]-C--CA-[N] |==|  0.17647
USER: genes 8 Torsion [C]-CA--N-[C] |==|  0.62274
USER: genes 9 Torsion [N]-C--CA-[N] |==|  0.41476
USER: genes 10 Torsion [C]-CA--CB-[CG] |==|  0.17569
USER: genes 11 Torsion [CA]-CB--CG-[OD2] |==|  0.56582
USER: genes 12 Torsion [C]-CA--CB-[CG1] |==|  0.17001
USER: genes 13 Torsion [CA]-CB--CG1-[CD1] |==|  0.65224
ROOT
ATOM      1  C   ILE B 176      -1.710 -33.465  13.684  1.00 22.90 LIG 0.24  C 
ATOM      2 O    ILE B 176      -1.966 -33.866  12.534  1.00 27.22 LIG-0.27  OA
ATOM      3  N   PRO B 177      -1.400 -32.184  13.938  1.00 22.83 LIG-0.34  N 
ATOM      4  CA  PRO B 177      -1.457 -31.137  12.902  1.00 24.67 LIG 0.18  C 
ATOM      5  CB  PRO B 177      -1.638 -29.855  13.720  1.00 26.20 LIG 0.04  C 
ATOM      6  CG  PRO B 177      -0.850 -30.149  14.962  1.00 24.14 LIG 0.02  C 
ATOM      7  CD  PRO B 177      -1.111 -31.606  15.270  1.00 21.80 LIG 0.13  C 
ENDROOT
BRANCH 4 8
ATOM      8  C   PRO B 177      -0.192 -31.048  12.045  1.00 25.32 LIG 0.24  C 
ATOM      9 O    PRO B 177       0.659 -30.192  12.294  1.00 32.00 LIG-0.27  OA
ATOM     10  N   PHE B 178      -0.082 -31.898  11.035  1.00 24.88 LIG-0.34  N 
ATOM     11 H    PHE B 178      -0.653 -32.522  10.877  1.00 24.88 LIG 0.16  HD
BRANCH 10 12
ATOM     12  CA  PHE B 178       1.029 -31.859  10.086  1.00 25.09 LIG 0.19  C 
BRANCH 12 13
ATOM     13  CB  PHE B 178       1.272 -30.439   9.526  1.00 24.80 LIG 0.07  C 
BRANCH 13 14
ATOM     14  CG  PHE B 178       0.030 -29.770   8.964  1.00 21.99 LIG-0.06  A 
ATOM     15  CD2 PHE B 178      -0.441 -30.034   7.664  1.00 23.17 LIG 0.01  A 
ATOM     16  CE2 PHE B 178      -1.596 -29.400   7.168  1.00 21.52 LIG 0.00  A 
ATOM     17  CZ  PHE B 178      -2.273 -28.534   7.984  1.00 22.39 LIG 0.00  A 
ATOM     18  CE1 PHE B 178      -1.848 -28.272   9.273  1.00 21.58 LIG 0.00  A 
ATOM     19  CD1 PHE B 178      -0.709 -28.903   9.766  1.00 21.72 LIG 0.01  A 
ENDBRANCH 13 14
ENDBRANCH 12 13
BRANCH 12 20
ATOM     20  C   PHE B 178       2.267 -32.452  10.737  1.00 24.87 LIG 0.20  C 
ATOM     21 OXT  PHE B 178       2.446 -32.267  11.946  1.00 27.82 LIG-0.65  OA
ATOM     22 O    PHE B 178       3.102 -33.074  10.082  1.00 30.25 LIG-0.65  OA
ENDBRANCH 12 20
ENDBRANCH 10 12
ENDBRANCH 4 8
BRANCH 1 23
ATOM     23  CA  ILE B 176      -1.748 -34.447  14.854  1.00 23.71 LIG 0.18  C 
BRANCH 23 24
ATOM     24  N   ILE B 176      -2.809 -34.013  15.752  1.00 24.90 LIG-0.34  N 
ATOM     25  C   ASP B 175      -2.623 -33.984  17.071  1.00 27.89 LIG 0.26  C 
ATOM     26 O    ASP B 175      -1.558 -34.305  17.596  1.00 29.58 LIG-0.27  OA
ATOM     27 H    ILE B 176      -3.540 -33.786  15.361  1.00 24.90 LIG 0.16  HD
BRANCH 25 28
ATOM     28  CA  ASP B 175      -3.810 -33.540  17.936  1.00 34.92 LIG 0.41  C 
ATOM     29  N   ASP B 175      -3.833 -34.178  19.289  1.00 43.46 LIG 0.61  N 
BRANCH 28 30
ATOM     30  CB  ASP B 175      -3.822 -32.007  18.079  1.00 38.90 LIG 0.16  C 
BRANCH 30 31
ATOM     31  CG  ASP B 175      -4.023 -31.280  16.741  1.00 38.28 LIG 0.17  C 
ATOM     32 OD2  ASP B 175      -3.612 -30.092  16.638  1.00 42.70 LIG-0.65  OA
ATOM     33 OD1  ASP B 175      -4.565 -31.894  15.787  1.00 44.78 LIG-0.65  OA
ENDBRANCH 30 31
ENDBRANCH 28 30
ENDBRANCH 25 28
ENDBRANCH 23 24
BRANCH 23 34
ATOM     34  CB  ILE B 176      -1.944 -35.889  14.360  1.00 23.83 LIG 0.01  C 
ATOM     35  CG2 ILE B 176      -3.260 -36.003  13.624  1.00 26.43 LIG 0.01  C 
BRANCH 34 36
ATOM     36  CG1 ILE B 176      -0.767 -36.290  13.456  1.00 26.50 LIG 0.00  C 
ATOM     37  CD1 ILE B 176      -1.180 -36.784  12.092  1.00 30.68 LIG 0.01  C 
ENDBRANCH 34 36
ENDBRANCH 23 34
ENDBRANCH 1 23
TORSDOF 12
ENDMDL
MODEL 36
USER: ADFR SOLUTION from run 177
USER: SCORE 14.424874 LL:  -4.233 LR: -10.312 RR:   0.000 FEB:  -6.732
USER: RMSD 2.868686
USER: SEED 176
USER: STATUS no improvement in best in 7 clusters for 5 generations
USER: GENES 14
USER: genes 0 Translation |==|  0.41191 0.46842 0.58319
USER: genes 1 Rotation |==|  0.42389 0.62098 0.58932 0.97074
USER: genes 2 Torsion [N]-CA--C-[O] |==|  0.63296
USER: genes 3 Torsion [C]-N--CA-[CB] |==|  0.17084
USER: genes 4 Torsion [N]-CA--CB-[CG] |==|  0.16609
USER: genes 5 Torsion [CA]-CB--CG-[CD2] |==|  0.24875
USER: genes 6 Torsion [N]-CA--C-[O] |==|  0.90091
USER: genes 7 Torsion [N]-C--CA-[N] |==|  0.43050
USER: genes 8 Torsion [C]-CA--N-[C] |==|  0.70165
USER: genes 9 Torsion [N]-C--CA-[N] |==|  0.50127
USER: genes 10 Torsion [C]-CA--CB-[CG] |==|  0.82447
USER: genes 11 Torsion [CA]-CB--CG-[OD2] |==|  0.29832
USER: genes 12 Torsion [C]-CA--CB-[CG1] |==|  0.26188
USER: genes 13 Torsion [CA]-CB--CG1-[CD1] |==|  0.46552
ROOT
ATOM      1  C   ILE B 176      -1.761 -30.697  15.412  1.00 22.90 LIG 0.24  C 
ATOM      2 O    ILE B 176      -0.682 -30.085  15.319  1.00 27.22 LIG-0.27  OA
ATOM      3  N   PRO B 177      -2.256 -31.092  16.596  1.00 22.83 LIG-0.34  N 
ATOM      4  CA  PRO B 177      -1.625 -30.726  17.877  1.00 24.67 LIG 0.18  C 
ATOM      5  CB  PRO B 177      -2.784 -30.832  18.873  1.00 26.20 LIG 0.04  C 
ATOM      6  CG  PRO B 177      -3.588 -31.967  18.314  1.00 24.14 LIG 0.02  C 
ATOM      7  CD  PRO B 177      -3.541 -31.795  16.812  1.00 21.80 LIG 0.13  C 
ENDROOT
BRANCH 4 8
ATOM      8  C   PRO B 177      -0.481 -31.656  18.289  1.00 25.32 LIG 0.24  C 
ATOM      9 O    PRO B 177      -0.439 -32.105  19.436  1.00 32.00 LIG-0.27  OA
ATOM     10  N   PHE B 178       0.444 -31.921  17.379  1.00 24.88 LIG-0.34  N 
ATOM     11 H    PHE B 178       0.402 -31.642  16.566  1.00 24.88 LIG 0.16  HD
BRANCH 10 12
ATOM     12  CA  PHE B 178       1.634 -32.718  17.670  1.00 25.09 LIG 0.19  C 
BRANCH 12 13
ATOM     13  CB  PHE B 178       1.283 -34.159  18.106  1.00 24.80 LIG 0.07  C 
BRANCH 13 14
ATOM     14  CG  PHE B 178       0.505 -34.951  17.069  1.00 21.99 LIG-0.06  A 
ATOM     15  CD2 PHE B 178       1.144 -35.725  16.082  1.00 23.17 LIG 0.01  A 
ATOM     16  CE2 PHE B 178       0.397 -36.450  15.133  1.00 21.52 LIG 0.00  A 
ATOM     17  CZ  PHE B 178      -0.970 -36.409  15.201  1.00 22.39 LIG 0.00  A 
ATOM     18  CE1 PHE B 178      -1.625 -35.676  16.173  1.00 21.58 LIG 0.00  A 
ATOM     19  CD1 PHE B 178      -0.888 -34.963  17.114  1.00 21.72 LIG 0.01  A 
ENDBRANCH 13 14
ENDBRANCH 12 13
BRANCH 12 20
ATOM     20  C   PHE B 178       2.569 -32.680  16.473  1.00 24.87 LIG 0.20  C 
ATOM     21 OXT  PHE B 178       3.787 -32.632  16.675  1.00 27.82 LIG-0.65  OA
ATOM     22 O    PHE B 178       2.138 -32.659  15.321  1.00 30.25 LIG-0.65  OA
ENDBRANCH 12 20
ENDBRANCH 10 12
ENDBRANCH 4 8
BRANCH 1 23
ATOM     23  CA  ILE B 176      -2.562 -31.016  14.150  1.00 23.71 LIG 0.18  C 
BRANCH 23 24
ATOM     24  N   ILE B 176      -2.193 -30.034  13.140  1.00 24.90 LIG-0.34  N 
ATOM     25  C   ASP B 175      -3.033 -29.064  12.785  1.00 27.89 LIG 0.26  C 
ATOM     26 O    ASP B 175      -4.148 -28.938  13.291  1.00 29.58 LIG-0.27  OA
ATOM     27 H    ILE B 176      -1.406 -30.139  12.808  1.00 24.90 LIG 0.16  HD
BRANCH 25 28
ATOM     28  CA  ASP B 175      -2.564 -28.096  11.692  1.00 34.92 LIG 0.41  C 
ATOM     29  N   ASP B 175      -3.567 -27.034  11.365  1.00 43.46 LIG 0.61  N 
BRANCH 28 30
ATOM     30  CB  ASP B 175      -1.225 -27.448  12.091  1.00 38.90 LIG 0.16  C 
BRANCH 30 31
ATOM     31  CG  ASP B 175      -1.329 -26.585  13.357  1.00 38.28 LIG 0.17  C 
ATOM     32 OD2  ASP B 175      -0.815 -27.021  14.422  1.00 42.70 LIG-0.65  OA
ATOM     33 OD1  ASP B 175      -1.898 -25.465  13.288  1.00 44.78 LIG-0.65  OA
ENDBRANCH 30 31
ENDBRANCH 28 30
ENDBRANCH 25 28
ENDBRANCH 23 24
BRANCH 23 34
ATOM     34  CB  ILE B 176      -2.315 -32.460  13.689  1.00 23.83 LIG 0.01  C 
ATOM     35  CG2 ILE B 176      -0.938 -32.908  14.125  1.00 26.43 LIG 0.01  C 
BRANCH 34 36
ATOM     36  CG1 ILE B 176      -3.404 -33.380  14.265  1.00 26.50 LIG 0.00  C 
ATOM     37  CD1 ILE B 176      -3.438 -34.756  13.647  1.00 30.68 LIG 0.01  C 
ENDBRANCH 34 36
ENDBRANCH 23 34
ENDBRANCH 1 23
TORSDOF 12
ENDMDL
MODEL 37
USER: ADFR SOLUTION from run 97
USER: SCORE 13.360157 LL:  -3.126 LR: -10.289 RR:   0.000 FEB:  -6.709
USER: RMSD 7.406820
USER: SEED 96
USER: STATUS no improvement in best in 6 clusters for 5 generations
USER: GENES 14
USER: genes 0 Translation |==|  0.45708 0.37779 0.43931
USER: genes 1 Rotation |==|  0.36006 0.63137 0.96108 0.52383
USER: genes 2 Torsion [N]-CA--C-[O] |==|  0.66685
USER: genes 3 Torsion [C]-N--CA-[CB] |==|  0.27402
USER: genes 4 Torsion [N]-CA--CB-[CG] |==|  0.59642
USER: genes 5 Torsion [CA]-CB--CG-[CD2] |==|  0.54779
USER: genes 6 Torsion [N]-CA--C-[O] |==|  0.66668
USER: genes 7 Torsion [N]-C--CA-[N] |==|  0.88356
USER: genes 8 Torsion [C]-CA--N-[C] |==|  0.82475
USER: genes 9 Torsion [N]-C--CA-[N] |==|  0.68480
USER: genes 10 Torsion [C]-CA--CB-[CG] |==|  0.72040
USER: genes 11 Torsion [CA]-CB--CG-[OD2] |==|  0.57369
USER: genes 12 Torsion [C]-CA--CB-[CG1] |==|  0.33107
USER: genes 13 Torsion [CA]-CB--CG1-[CD1] |==|  0.40709
ROOT
ATOM      1  C   ILE B 176      -1.084 -32.600  13.038  1.00 22.90 LIG 0.24  C 
ATOM      2 O    ILE B 176      -2.315 -32.470  12.914  1.00 27.22 LIG-0.27  OA
ATOM      3  N   PRO B 177      -0.377 -31.875  13.919  1.00 22.83 LIG-0.34  N 
ATOM      4  CA  PRO B 177      -1.016 -30.962  14.884  1.00 24.67 LIG 0.18  C 
ATOM      5  CB  PRO B 177       0.026 -30.862  16.002  1.00 26.20 LIG 0.04  C 
ATOM      6  CG  PRO B 177       1.319 -30.955  15.250  1.00 24.14 LIG 0.02  C 
ATOM      7  CD  PRO B 177       1.080 -31.977  14.161  1.00 21.80 LIG 0.13  C 
ENDROOT
BRANCH 4 8
ATOM      8  C   PRO B 177      -1.321 -29.575  14.314  1.00 25.32 LIG 0.24  C 
ATOM      9 O    PRO B 177      -0.815 -28.576  14.827  1.00 32.00 LIG-0.27  OA
ATOM     10  N   PHE B 178      -2.153 -29.511  13.285  1.00 24.88 LIG-0.34  N 
ATOM     11 H    PHE B 178      -2.481 -30.205  12.898  1.00 24.88 LIG 0.16  HD
BRANCH 10 12
ATOM     12  CA  PHE B 178      -2.599 -28.245  12.707  1.00 25.09 LIG 0.19  C 
BRANCH 12 13
ATOM     13  CB  PHE B 178      -1.798 -27.864  11.440  1.00 24.80 LIG 0.07  C 
BRANCH 13 14
ATOM     14  CG  PHE B 178      -1.571 -26.371  11.272  1.00 21.99 LIG-0.06  A 
ATOM     15  CD2 PHE B 178      -1.190 -25.805  10.042  1.00 23.17 LIG 0.01  A 
ATOM     16  CE2 PHE B 178      -0.987 -24.417   9.914  1.00 21.52 LIG 0.00  A 
ATOM     17  CZ  PHE B 178      -1.190 -23.619  11.008  1.00 22.39 LIG 0.00  A 
ATOM     18  CE1 PHE B 178      -1.587 -24.145  12.223  1.00 21.58 LIG 0.00  A 
ATOM     19  CD1 PHE B 178      -1.793 -25.516  12.349  1.00 21.72 LIG 0.01  A 
ENDBRANCH 13 14
ENDBRANCH 12 13
BRANCH 12 20
ATOM     20  C   PHE B 178      -4.096 -28.306  12.456  1.00 24.87 LIG 0.20  C 
ATOM     21 OXT  PHE B 178      -4.847 -28.534  13.410  1.00 27.82 LIG-0.65  OA
ATOM     22 O    PHE B 178      -4.565 -28.171  11.326  1.00 30.25 LIG-0.65  OA
ENDBRANCH 12 20
ENDBRANCH 10 12
ENDBRANCH 4 8
BRANCH 1 23
ATOM     23  CA  ILE B 176      -0.339 -33.614  12.171  1.00 23.71 LIG 0.18  C 
BRANCH 23 24
ATOM     24  N   ILE B 176       0.899 -32.985  11.732  1.00 24.90 LIG-0.34  N 
ATOM     25  C   ASP B 175       0.884 -31.902  10.957  1.00 27.89 LIG 0.26  C 
ATOM     26 O    ASP B 175      -0.162 -31.373  10.584  1.00 29.58 LIG-0.27  OA
ATOM     27 H    ILE B 176       1.616 -33.369  12.013  1.00 24.90 LIG 0.16  HD
BRANCH 25 28
ATOM     28  CA  ASP B 175       2.240 -31.330  10.524  1.00 34.92 LIG 0.41  C 
ATOM     29  N   ASP B 175       2.529 -29.980  11.102  1.00 43.46 LIG 0.61  N 
BRANCH 28 30
ATOM     30  CB  ASP B 175       3.372 -32.309  10.886  1.00 38.90 LIG 0.16  C 
BRANCH 30 31
ATOM     31  CG  ASP B 175       4.125 -31.910  12.164  1.00 38.28 LIG 0.17  C 
ATOM     32 OD2  ASP B 175       5.323 -32.283  12.293  1.00 42.70 LIG-0.65  OA
ATOM     33 OD1  ASP B 175       3.538 -31.207  13.026  1.00 44.78 LIG-0.65  OA
ENDBRANCH 30 31
ENDBRANCH 28 30
ENDBRANCH 25 28
ENDBRANCH 23 24
BRANCH 23 34
ATOM     34  CB  ILE B 176      -0.098 -34.924  12.936  1.00 23.83 LIG 0.01  C 
ATOM     35  CG2 ILE B 176      -0.607 -34.790  14.353  1.00 26.43 LIG 0.01  C 
BRANCH 34 36
ATOM     36  CG1 ILE B 176      -0.793 -36.085  12.205  1.00 26.50 LIG 0.00  C 
ATOM     37  CD1 ILE B 176      -0.065 -37.402  12.308  1.00 30.68 LIG 0.01  C 
ENDBRANCH 34 36
ENDBRANCH 23 34
ENDBRANCH 1 23
TORSDOF 12
ENDMDL
MODEL 38
USER: ADFR SOLUTION from run 45
USER: SCORE 13.813874 LL:  -3.742 LR: -10.238 RR:   0.000 FEB:  -6.659
USER: RMSD 8.232833
USER: SEED 44
USER: STATUS no improvement in best in 10 clusters for 5 generations
USER: GENES 14
USER: genes 0 Translation |==|  0.43483 0.45146 0.60096
USER: genes 1 Rotation |==|  0.19488 0.25714 0.19123 0.55078
USER: genes 2 Torsion [N]-CA--C-[O] |==|  0.32619
USER: genes 3 Torsion [C]-N--CA-[CB] |==|  0.28589
USER: genes 4 Torsion [N]-CA--CB-[CG] |==|  0.09305
USER: genes 5 Torsion [CA]-CB--CG-[CD2] |==|  0.25544
USER: genes 6 Torsion [N]-CA--C-[O] |==|  0.69764
USER: genes 7 Torsion [N]-C--CA-[N] |==|  0.44028
USER: genes 8 Torsion [C]-CA--N-[C] |==|  0.54444
USER: genes 9 Torsion [N]-C--CA-[N] |==|  0.56444
USER: genes 10 Torsion [C]-CA--CB-[CG] |==|  0.80673
USER: genes 11 Torsion [CA]-CB--CG-[OD2] |==|  0.54850
USER: genes 12 Torsion [C]-CA--CB-[CG1] |==|  0.29566
USER: genes 13 Torsion [CA]-CB--CG1-[CD1] |==|  0.10968
ROOT
ATOM      1  C   ILE B 176      -1.418 -31.053  15.705  1.00 22.90 LIG 0.24  C 
ATOM      2 O    ILE B 176      -1.204 -30.182  16.567  1.00 27.22 LIG-0.27  OA
ATOM      3  N   PRO B 177      -1.011 -30.911  14.433  1.00 22.83 LIG-0.34  N 
ATOM      4  CA  PRO B 177      -0.181 -29.776  13.992  1.00 24.67 LIG 0.18  C 
ATOM      5  CB  PRO B 177       0.513 -30.324  12.741  1.00 26.20 LIG 0.04  C 
ATOM      6  CG  PRO B 177      -0.532 -31.228  12.161  1.00 24.14 LIG 0.02  C 
ATOM      7  CD  PRO B 177      -1.188 -31.900  13.346  1.00 21.80 LIG 0.13  C 
ENDROOT
BRANCH 4 8
ATOM      8  C   PRO B 177      -0.985 -28.520  13.648  1.00 25.32 LIG 0.24  C 
ATOM      9 O    PRO B 177      -0.815 -27.486  14.296  1.00 32.00 LIG-0.27  OA
ATOM     10  N   PHE B 178      -1.864 -28.614  12.661  1.00 24.88 LIG-0.34  N 
ATOM     11 H    PHE B 178      -1.961 -29.320  12.180  1.00 24.88 LIG 0.16  HD
BRANCH 10 12
ATOM     12  CA  PHE B 178      -2.759 -27.519  12.293  1.00 25.09 LIG 0.19  C 
BRANCH 12 13
ATOM     13  CB  PHE B 178      -2.290 -26.781  11.017  1.00 24.80 LIG 0.07  C 
BRANCH 13 14
ATOM     14  CG  PHE B 178      -1.604 -27.675   9.998  1.00 21.99 LIG-0.06  A 
ATOM     15  CD2 PHE B 178      -2.312 -28.304   8.957  1.00 23.17 LIG 0.01  A 
ATOM     16  CE2 PHE B 178      -1.651 -29.127   8.025  1.00 21.52 LIG 0.00  A 
ATOM     17  CZ  PHE B 178      -0.296 -29.288   8.134  1.00 22.39 LIG 0.00  A 
ATOM     18  CE1 PHE B 178       0.429 -28.664   9.132  1.00 21.58 LIG 0.00  A 
ATOM     19  CD1 PHE B 178      -0.223 -27.846  10.051  1.00 21.72 LIG 0.01  A 
ENDBRANCH 13 14
ENDBRANCH 12 13
BRANCH 12 20
ATOM     20  C   PHE B 178      -4.178 -28.048  12.174  1.00 24.87 LIG 0.20  C 
ATOM     21 OXT  PHE B 178      -4.764 -28.406  13.201  1.00 27.82 LIG-0.65  OA
ATOM     22 O    PHE B 178      -4.734 -28.159  11.082  1.00 30.25 LIG-0.65  OA
ENDBRANCH 12 20
ENDBRANCH 10 12
ENDBRANCH 4 8
BRANCH 1 23
ATOM     23  CA  ILE B 176      -2.161 -32.331  16.088  1.00 23.71 LIG 0.18  C 
BRANCH 23 24
ATOM     24  N   ILE B 176      -2.037 -32.492  17.530  1.00 24.90 LIG-0.34  N 
ATOM     25  C   ASP B 175      -2.303 -33.657  18.117  1.00 27.89 LIG 0.26  C 
ATOM     26 O    ASP B 175      -2.653 -34.652  17.483  1.00 29.58 LIG-0.27  OA
ATOM     27 H    ILE B 176      -1.783 -31.785  17.950  1.00 24.90 LIG 0.16  HD
BRANCH 25 28
ATOM     28  CA  ASP B 175      -2.171 -33.719  19.645  1.00 34.92 LIG 0.41  C 
ATOM     29  N   ASP B 175      -1.940 -35.102  20.168  1.00 43.46 LIG 0.61  N 
BRANCH 28 30
ATOM     30  CB  ASP B 175      -1.044 -32.783  20.121  1.00 38.90 LIG 0.16  C 
BRANCH 30 31
ATOM     31  CG  ASP B 175       0.355 -33.277  19.725  1.00 38.28 LIG 0.17  C 
ATOM     32 OD2  ASP B 175       1.352 -32.796  20.328  1.00 42.70 LIG-0.65  OA
ATOM     33 OD1  ASP B 175       0.462 -34.159  18.835  1.00 44.78 LIG-0.65  OA
ENDBRANCH 30 31
ENDBRANCH 28 30
ENDBRANCH 25 28
ENDBRANCH 23 24
BRANCH 23 34
ATOM     34  CB  ILE B 176      -3.625 -32.281  15.623  1.00 23.83 LIG 0.01  C 
ATOM     35  CG2 ILE B 176      -4.002 -30.858  15.278  1.00 26.43 LIG 0.01  C 
BRANCH 34 36
ATOM     36  CG1 ILE B 176      -3.815 -33.212  14.414  1.00 26.50 LIG 0.00  C 
ATOM     37  CD1 ILE B 176      -3.058 -34.513  14.514  1.00 30.68 LIG 0.01  C 
ENDBRANCH 34 36
ENDBRANCH 23 34
ENDBRANCH 1 23
TORSDOF 12
ENDMDL
MODEL 39
USER: ADFR SOLUTION from run 12
USER: SCORE 13.753699 LL:  -4.174 LR: -10.243 RR:   0.000 FEB:  -6.664
USER: RMSD 7.646856
USER: SEED 982757
USER: STATUS no improvement in best in 14 clusters for 5 generations
USER: GENES 14
USER: genes 0 Translation |==|  0.43073 0.40183 0.50958
USER: genes 1 Rotation |==|  0.41733 0.73961 0.93095 0.50623
USER: genes 2 Torsion [N]-CA--C-[O] |==|  0.61435
USER: genes 3 Torsion [C]-N--CA-[CB] |==|  0.31036
USER: genes 4 Torsion [N]-CA--CB-[CG] |==|  0.93880
USER: genes 5 Torsion [CA]-CB--CG-[CD2] |==|  0.20288
USER: genes 6 Torsion [N]-CA--C-[O] |==|  0.60036
USER: genes 7 Torsion [N]-C--CA-[N] |==|  0.20838
USER: genes 8 Torsion [C]-CA--N-[C] |==|  0.55811
USER: genes 9 Torsion [N]-C--CA-[N] |==|  0.49667
USER: genes 10 Torsion [C]-CA--CB-[CG] |==|  0.82811
USER: genes 11 Torsion [CA]-CB--CG-[OD2] |==|  0.77453
USER: genes 12 Torsion [C]-CA--CB-[CG1] |==|  0.74934
USER: genes 13 Torsion [CA]-CB--CG1-[CD1] |==|  0.59010
ROOT
ATOM      1  C   ILE B 176      -1.479 -32.096  14.197  1.00 22.90 LIG 0.24  C 
ATOM      2 O    ILE B 176      -2.692 -31.826  14.256  1.00 27.22 LIG-0.27  OA
ATOM      3  N   PRO B 177      -0.534 -31.200  14.525  1.00 22.83 LIG-0.34  N 
ATOM      4  CA  PRO B 177      -0.861 -29.879  15.090  1.00 24.67 LIG 0.18  C 
ATOM      5  CB  PRO B 177       0.420 -29.500  15.840  1.00 26.20 LIG 0.04  C 
ATOM      6  CG  PRO B 177       1.489 -30.109  14.983  1.00 24.14 LIG 0.02  C 
ATOM      7  CD  PRO B 177       0.928 -31.433  14.517  1.00 21.80 LIG 0.13  C 
ENDROOT
BRANCH 4 8
ATOM      8  C   PRO B 177      -1.193 -28.820  14.036  1.00 25.32 LIG 0.24  C 
ATOM      9 O    PRO B 177      -0.766 -27.672  14.163  1.00 32.00 LIG-0.27  OA
ATOM     10  N   PHE B 178      -1.964 -29.192  13.025  1.00 24.88 LIG-0.34  N 
ATOM     11 H    PHE B 178      -2.235 -30.000  12.908  1.00 24.88 LIG 0.16  HD
BRANCH 10 12
ATOM     12  CA  PHE B 178      -2.430 -28.258  12.001  1.00 25.09 LIG 0.19  C 
BRANCH 12 13
ATOM     13  CB  PHE B 178      -1.794 -28.536  10.620  1.00 24.80 LIG 0.07  C 
BRANCH 13 14
ATOM     14  CG  PHE B 178      -0.487 -29.307  10.680  1.00 21.99 LIG-0.06  A 
ATOM     15  CD2 PHE B 178      -0.440 -30.680  10.988  1.00 23.17 LIG 0.01  A 
ATOM     16  CE2 PHE B 178       0.786 -31.371  11.037  1.00 21.52 LIG 0.00  A 
ATOM     17  CZ  PHE B 178       1.938 -30.687  10.753  1.00 22.39 LIG 0.00  A 
ATOM     18  CE1 PHE B 178       1.921 -29.345  10.425  1.00 21.58 LIG 0.00  A 
ATOM     19  CD1 PHE B 178       0.709 -28.662  10.372  1.00 21.72 LIG 0.01  A 
ENDBRANCH 13 14
ENDBRANCH 12 13
BRANCH 12 20
ATOM     20  C   PHE B 178      -3.949 -28.275  11.960  1.00 24.87 LIG 0.20  C 
ATOM     21 OXT  PHE B 178      -4.568 -28.447  13.016  1.00 27.82 LIG-0.65  OA
ATOM     22 O    PHE B 178      -4.565 -28.158  10.901  1.00 30.25 LIG-0.65  OA
ENDBRANCH 12 20
ENDBRANCH 10 12
ENDBRANCH 4 8
BRANCH 1 23
ATOM     23  CA  ILE B 176      -1.034 -33.484  13.743  1.00 23.71 LIG 0.18  C 
BRANCH 23 24
ATOM     24  N   ILE B 176      -0.599 -34.211  14.927  1.00 24.90 LIG-0.34  N 
ATOM     25  C   ASP B 175       0.211 -35.264  14.829  1.00 27.89 LIG 0.26  C 
ATOM     26 O    ASP B 175       0.641 -35.668  13.749  1.00 29.58 LIG-0.27  OA
ATOM     27 H    ILE B 176      -0.906 -33.905  15.670  1.00 24.90 LIG 0.16  HD
BRANCH 25 28
ATOM     28  CA  ASP B 175       0.590 -35.981  16.131  1.00 34.92 LIG 0.41  C 
ATOM     29  N   ASP B 175       1.479 -37.166  15.921  1.00 43.46 LIG 0.61  N 
BRANCH 28 30
ATOM     30  CB  ASP B 175       1.253 -34.995  17.110  1.00 38.90 LIG 0.16  C 
BRANCH 30 31
ATOM     31  CG  ASP B 175       2.560 -34.397  16.568  1.00 38.28 LIG 0.17  C 
ATOM     32 OD2  ASP B 175       3.615 -35.081  16.664  1.00 42.70 LIG-0.65  OA
ATOM     33 OD1  ASP B 175       2.535 -33.263  16.026  1.00 44.78 LIG-0.65  OA
ENDBRANCH 30 31
ENDBRANCH 28 30
ENDBRANCH 25 28
ENDBRANCH 23 24
BRANCH 23 34
ATOM     34  CB  ILE B 176      -2.159 -34.206  12.986  1.00 23.83 LIG 0.01  C 
ATOM     35  CG2 ILE B 176      -1.565 -35.102  11.921  1.00 26.43 LIG 0.01  C 
BRANCH 34 36
ATOM     36  CG1 ILE B 176      -3.012 -35.015  13.976  1.00 26.50 LIG 0.00  C 
ATOM     37  CD1 ILE B 176      -3.586 -36.285  13.400  1.00 30.68 LIG 0.01  C 
ENDBRANCH 34 36
ENDBRANCH 23 34
ENDBRANCH 1 23
TORSDOF 12
ENDMDL
MODEL 40
USER: ADFR SOLUTION from run 169
USER: SCORE 13.040785 LL:  -3.354 LR: -10.237 RR:   0.000 FEB:  -6.658
USER: RMSD 7.005644
USER: SEED 168
USER: STATUS no improvement in best in 16 clusters for 5 generations
USER: GENES 14
USER: genes 0 Translation |==|  0.57719 0.33225 0.55314
USER: genes 1 Rotation |==|  0.05118 0.38005 0.32463 0.55844
USER: genes 2 Torsion [N]-CA--C-[O] |==|  0.40281
USER: genes 3 Torsion [C]-N--CA-[CB] |==|  0.33545
USER: genes 4 Torsion [N]-CA--CB-[CG] |==|  0.81611
USER: genes 5 Torsion [CA]-CB--CG-[CD2] |==|  0.47948
USER: genes 6 Torsion [N]-CA--C-[O] |==|  0.97611
USER: genes 7 Torsion [N]-C--CA-[N] |==|  0.83154
USER: genes 8 Torsion [C]-CA--N-[C] |==|  0.62778
USER: genes 9 Torsion [N]-C--CA-[N] |==|  0.48685
USER: genes 10 Torsion [C]-CA--CB-[CG] |==|  0.27796
USER: genes 11 Torsion [CA]-CB--CG-[OD2] |==|  0.42545
USER: genes 12 Torsion [C]-CA--CB-[CG1] |==|  0.59834
USER: genes 13 Torsion [CA]-CB--CG1-[CD1] |==|  0.22881
ROOT
ATOM      1  C   ILE B 176       0.718 -33.557  14.916  1.00 22.90 LIG 0.24  C 
ATOM      2 O    ILE B 176       1.812 -33.059  15.235  1.00 27.22 LIG-0.27  OA
ATOM      3  N   PRO B 177       0.179 -33.371  13.700  1.00 22.83 LIG-0.34  N 
ATOM      4  CA  PRO B 177       0.894 -32.669  12.619  1.00 24.67 LIG 0.18  C 
ATOM      5  CB  PRO B 177       0.227 -33.218  11.354  1.00 26.20 LIG 0.04  C 
ATOM      6  CG  PRO B 177      -1.190 -33.424  11.799  1.00 24.14 LIG 0.02  C 
ATOM      7  CD  PRO B 177      -1.097 -33.944  13.216  1.00 21.80 LIG 0.13  C 
ENDROOT
BRANCH 4 8
ATOM      8  C   PRO B 177       0.757 -31.146  12.675  1.00 25.32 LIG 0.24  C 
ATOM      9 O    PRO B 177       1.702 -30.432  12.333  1.00 32.00 LIG-0.27  OA
ATOM     10  N   PHE B 178      -0.389 -30.656  13.122  1.00 24.88 LIG-0.34  N 
ATOM     11 H    PHE B 178      -1.065 -31.146  13.327  1.00 24.88 LIG 0.16  HD
BRANCH 10 12
ATOM     12  CA  PHE B 178      -0.616 -29.225  13.311  1.00 25.09 LIG 0.19  C 
BRANCH 12 13
ATOM     13  CB  PHE B 178      -1.800 -28.701  12.466  1.00 24.80 LIG 0.07  C 
BRANCH 13 14
ATOM     14  CG  PHE B 178      -1.564 -28.752  10.966  1.00 21.99 LIG-0.06  A 
ATOM     15  CD2 PHE B 178      -2.581 -28.461  10.037  1.00 23.17 LIG 0.01  A 
ATOM     16  CE2 PHE B 178      -2.335 -28.516   8.652  1.00 21.52 LIG 0.00  A 
ATOM     17  CZ  PHE B 178      -1.075 -28.834   8.219  1.00 22.39 LIG 0.00  A 
ATOM     18  CE1 PHE B 178      -0.051 -29.101   9.108  1.00 21.58 LIG 0.00  A 
ATOM     19  CD1 PHE B 178      -0.292 -29.043  10.478  1.00 21.72 LIG 0.01  A 
ENDBRANCH 13 14
ENDBRANCH 12 13
BRANCH 12 20
ATOM     20  C   PHE B 178      -0.782 -28.934  14.793  1.00 24.87 LIG 0.20  C 
ATOM     21 OXT  PHE B 178      -0.786 -27.757  15.170  1.00 27.82 LIG-0.65  OA
ATOM     22 O    PHE B 178      -0.876 -29.841  15.620  1.00 30.25 LIG-0.65  OA
ENDBRANCH 12 20
ENDBRANCH 10 12
ENDBRANCH 4 8
BRANCH 1 23
ATOM     23  CA  ILE B 176      -0.049 -34.410  15.924  1.00 23.71 LIG 0.18  C 
BRANCH 23 24
ATOM     24  N   ILE B 176      -1.332 -33.763  16.157  1.00 24.90 LIG-0.34  N 
ATOM     25  C   ASP B 175      -1.806 -33.600  17.391  1.00 27.89 LIG 0.26  C 
ATOM     26 O    ASP B 175      -1.191 -33.973  18.390  1.00 29.58 LIG-0.27  OA
ATOM     27 H    ILE B 176      -1.739 -33.504  15.444  1.00 24.90 LIG 0.16  HD
BRANCH 25 28
ATOM     28  CA  ASP B 175      -3.180 -32.932  17.532  1.00 34.92 LIG 0.41  C 
ATOM     29  N   ASP B 175      -3.682 -32.893  18.941  1.00 43.46 LIG 0.61  N 
BRANCH 28 30
ATOM     30  CB  ASP B 175      -3.144 -31.508  16.948  1.00 38.90 LIG 0.16  C 
BRANCH 30 31
ATOM     31  CG  ASP B 175      -3.738 -31.422  15.535  1.00 38.28 LIG 0.17  C 
ATOM     32 OD2  ASP B 175      -4.234 -30.325  15.160  1.00 42.70 LIG-0.65  OA
ATOM     33 OD1  ASP B 175      -3.691 -32.434  14.789  1.00 44.78 LIG-0.65  OA
ENDBRANCH 30 31
ENDBRANCH 28 30
ENDBRANCH 25 28
ENDBRANCH 23 24
BRANCH 23 34
ATOM     34  CB  ILE B 176      -0.198 -35.856  15.425  1.00 23.83 LIG 0.01  C 
ATOM     35  CG2 ILE B 176       0.936 -36.701  15.961  1.00 26.43 LIG 0.01  C 
BRANCH 34 36
ATOM     36  CG1 ILE B 176      -1.561 -36.416  15.865  1.00 26.50 LIG 0.00  C 
ATOM     37  CD1 ILE B 176      -2.707 -36.024  14.965  1.00 30.68 LIG 0.01  C 
ENDBRANCH 34 36
ENDBRANCH 23 34
ENDBRANCH 1 23
TORSDOF 12
ENDMDL
MODEL 41
USER: ADFR SOLUTION from run 62
USER: SCORE 14.321757 LL:  -4.213 LR: -10.222 RR:   0.000 FEB:  -6.642
USER: RMSD 6.731122
USER: SEED 61
USER: STATUS no improvement in best in 11 clusters for 5 generations
USER: GENES 14
USER: genes 0 Translation |==|  0.62381 0.34788 0.61509
USER: genes 1 Rotation |==|  0.84206 0.76419 0.44372 0.74502
USER: genes 2 Torsion [N]-CA--C-[O] |==|  0.60915
USER: genes 3 Torsion [C]-N--CA-[CB] |==|  0.20517
USER: genes 4 Torsion [N]-CA--CB-[CG] |==|  0.02355
USER: genes 5 Torsion [CA]-CB--CG-[CD2] |==|  0.70339
USER: genes 6 Torsion [N]-CA--C-[O] |==|  0.32828
USER: genes 7 Torsion [N]-C--CA-[N] |==|  0.33238
USER: genes 8 Torsion [C]-CA--N-[C] |==|  0.78577
USER: genes 9 Torsion [N]-C--CA-[N] |==|  0.35155
USER: genes 10 Torsion [C]-CA--CB-[CG] |==|  0.14856
USER: genes 11 Torsion [CA]-CB--CG-[OD2] |==|  0.59519
USER: genes 12 Torsion [C]-CA--CB-[CG1] |==|  0.39025
USER: genes 13 Torsion [CA]-CB--CG1-[CD1] |==|  0.68133
ROOT
ATOM      1  C   ILE B 176       1.417 -33.228  15.938  1.00 22.90 LIG 0.24  C 
ATOM      2 O    ILE B 176       2.185 -33.016  14.982  1.00 27.22 LIG-0.27  OA
ATOM      3  N   PRO B 177       0.868 -34.434  16.155  1.00 22.83 LIG-0.34  N 
ATOM      4  CA  PRO B 177       1.224 -35.620  15.354  1.00 24.67 LIG 0.18  C 
ATOM      5  CB  PRO B 177       0.876 -36.782  16.289  1.00 26.20 LIG 0.04  C 
ATOM      6  CG  PRO B 177      -0.318 -36.257  17.028  1.00 24.14 LIG 0.02  C 
ATOM      7  CD  PRO B 177      -0.030 -34.794  17.276  1.00 21.80 LIG 0.13  C 
ENDROOT
BRANCH 4 8
ATOM      8  C   PRO B 177       0.442 -35.738  14.044  1.00 25.32 LIG 0.24  C 
ATOM      9 O    PRO B 177       0.056 -36.843  13.658  1.00 32.00 LIG-0.27  OA
ATOM     10  N   PHE B 178       0.234 -34.624  13.358  1.00 24.88 LIG-0.34  N 
ATOM     11 H    PHE B 178       0.468 -33.845  13.639  1.00 24.88 LIG 0.16  HD
BRANCH 10 12
ATOM     12  CA  PHE B 178      -0.416 -34.611  12.050  1.00 25.09 LIG 0.19  C 
BRANCH 12 13
ATOM     13  CB  PHE B 178      -1.940 -34.854  12.149  1.00 24.80 LIG 0.07  C 
BRANCH 13 14
ATOM     14  CG  PHE B 178      -2.479 -34.852  13.570  1.00 21.99 LIG-0.06  A 
ATOM     15  CD2 PHE B 178      -2.878 -36.034  14.221  1.00 23.17 LIG 0.01  A 
ATOM     16  CE2 PHE B 178      -3.374 -36.004  15.539  1.00 21.52 LIG 0.00  A 
ATOM     17  CZ  PHE B 178      -3.440 -34.801  16.190  1.00 22.39 LIG 0.00  A 
ATOM     18  CE1 PHE B 178      -3.034 -33.627  15.583  1.00 21.58 LIG 0.00  A 
ATOM     19  CD1 PHE B 178      -2.539 -33.657  14.282  1.00 21.72 LIG 0.01  A 
ENDBRANCH 13 14
ENDBRANCH 12 13
BRANCH 12 20
ATOM     20  C   PHE B 178      -0.076 -33.316  11.332  1.00 24.87 LIG 0.20  C 
ATOM     21 OXT  PHE B 178      -0.463 -32.249  11.821  1.00 27.82 LIG-0.65  OA
ATOM     22 O    PHE B 178       0.539 -33.314  10.266  1.00 30.25 LIG-0.65  OA
ENDBRANCH 12 20
ENDBRANCH 10 12
ENDBRANCH 4 8
BRANCH 1 23
ATOM     23  CA  ILE B 176       1.081 -32.096  16.905  1.00 23.71 LIG 0.18  C 
BRANCH 23 24
ATOM     24  N   ILE B 176       2.330 -31.652  17.509  1.00 24.90 LIG-0.34  N 
ATOM     25  C   ASP B 175       2.913 -32.356  18.478  1.00 27.89 LIG 0.26  C 
ATOM     26 O    ASP B 175       2.443 -33.410  18.903  1.00 29.58 LIG-0.27  OA
ATOM     27 H    ILE B 176       2.642 -30.917  17.189  1.00 24.90 LIG 0.16  HD
BRANCH 25 28
ATOM     28  CA  ASP B 175       4.211 -31.791  19.069  1.00 34.92 LIG 0.41  C 
ATOM     29  N   ASP B 175       4.178 -31.659  20.560  1.00 43.46 LIG 0.61  N 
BRANCH 28 30
ATOM     30  CB  ASP B 175       5.412 -32.658  18.646  1.00 38.90 LIG 0.16  C 
BRANCH 30 31
ATOM     31  CG  ASP B 175       5.504 -32.855  17.126  1.00 38.28 LIG 0.17  C 
ATOM     32 OD2  ASP B 175       5.940 -33.955  16.691  1.00 42.70 LIG-0.65  OA
ATOM     33 OD1  ASP B 175       5.122 -31.929  16.365  1.00 44.78 LIG-0.65  OA
ENDBRANCH 30 31
ENDBRANCH 28 30
ENDBRANCH 25 28
ENDBRANCH 23 24
BRANCH 23 34
ATOM     34  CB  ILE B 176       0.334 -30.960  16.189  1.00 23.83 LIG 0.01  C 
ATOM     35  CG2 ILE B 176      -0.237 -31.467  14.884  1.00 26.43 LIG 0.01  C 
BRANCH 34 36
ATOM     36  CG1 ILE B 176      -0.775 -30.413  17.103  1.00 26.50 LIG 0.00  C 
ATOM     37  CD1 ILE B 176      -2.172 -30.646  16.582  1.00 30.68 LIG 0.01  C 
ENDBRANCH 34 36
ENDBRANCH 23 34
ENDBRANCH 1 23
TORSDOF 12
ENDMDL
MODEL 42
USER: ADFR SOLUTION from run 8
USER: SCORE 13.131690 LL:  -3.346 LR: -10.201 RR:   0.000 FEB:  -6.621
USER: RMSD 6.995594
USER: SEED 92876
USER: STATUS no improvement in best in 13 clusters for 5 generations
USER: GENES 14
USER: genes 0 Translation |==|  0.44134 0.32212 0.47471
USER: genes 1 Rotation |==|  0.33410 0.89458 0.70150 0.66179
USER: genes 2 Torsion [N]-CA--C-[O] |==|  0.14598
USER: genes 3 Torsion [C]-N--CA-[CB] |==|  0.27592
USER: genes 4 Torsion [N]-CA--CB-[CG] |==|  0.91327
USER: genes 5 Torsion [CA]-CB--CG-[CD2] |==|  0.76496
USER: genes 6 Torsion [N]-CA--C-[O] |==|  0.95163
USER: genes 7 Torsion [N]-C--CA-[N] |==|  0.25446
USER: genes 8 Torsion [C]-CA--N-[C] |==|  0.67394
USER: genes 9 Torsion [N]-C--CA-[N] |==|  0.43292
USER: genes 10 Torsion [C]-CA--CB-[CG] |==|  0.21423
USER: genes 11 Torsion [CA]-CB--CG-[OD2] |==|  0.99027
USER: genes 12 Torsion [C]-CA--CB-[CG1] |==|  0.12168
USER: genes 13 Torsion [CA]-CB--CG1-[CD1] |==|  0.21527
ROOT
ATOM      1  C   ILE B 176      -1.320 -33.769  13.622  1.00 22.90 LIG 0.24  C 
ATOM      2 O    ILE B 176      -1.896 -33.505  12.551  1.00 27.22 LIG-0.27  OA
ATOM      3  N   PRO B 177      -0.226 -33.103  14.025  1.00 22.83 LIG-0.34  N 
ATOM      4  CA  PRO B 177       0.301 -31.936  13.296  1.00 24.67 LIG 0.18  C 
ATOM      5  CB  PRO B 177       1.086 -31.184  14.374  1.00 26.20 LIG 0.04  C 
ATOM      6  CG  PRO B 177       1.620 -32.298  15.223  1.00 24.14 LIG 0.02  C 
ATOM      7  CD  PRO B 177       0.509 -33.322  15.291  1.00 21.80 LIG 0.13  C 
ENDROOT
BRANCH 4 8
ATOM      8  C   PRO B 177       1.219 -32.302  12.127  1.00 25.32 LIG 0.24  C 
ATOM      9 O    PRO B 177       0.835 -33.100  11.271  1.00 32.00 LIG-0.27  OA
ATOM     10  N   PHE B 178       2.422 -31.747  12.104  1.00 24.88 LIG-0.34  N 
ATOM     11 H    PHE B 178       2.684 -31.160  12.676  1.00 24.88 LIG 0.16  HD
BRANCH 10 12
ATOM     12  CA  PHE B 178       3.427 -32.080  11.096  1.00 25.09 LIG 0.19  C 
BRANCH 12 13
ATOM     13  CB  PHE B 178       3.487 -31.035   9.958  1.00 24.80 LIG 0.07  C 
BRANCH 13 14
ATOM     14  CG  PHE B 178       2.157 -30.365   9.658  1.00 21.99 LIG-0.06  A 
ATOM     15  CD2 PHE B 178       1.204 -30.942   8.798  1.00 23.17 LIG 0.01  A 
ATOM     16  CE2 PHE B 178      -0.021 -30.300   8.537  1.00 21.52 LIG 0.00  A 
ATOM     17  CZ  PHE B 178      -0.283 -29.107   9.156  1.00 22.39 LIG 0.00  A 
ATOM     18  CE1 PHE B 178       0.623 -28.527  10.023  1.00 21.58 LIG 0.00  A 
ATOM     19  CD1 PHE B 178       1.833 -29.164  10.285  1.00 21.72 LIG 0.01  A 
ENDBRANCH 13 14
ENDBRANCH 12 13
BRANCH 12 20
ATOM     20  C   PHE B 178       4.771 -32.284  11.775  1.00 24.87 LIG 0.20  C 
ATOM     21 OXT  PHE B 178       5.648 -32.913  11.174  1.00 27.82 LIG-0.65  OA
ATOM     22 O    PHE B 178       4.985 -31.870  12.914  1.00 30.25 LIG-0.65  OA
ENDBRANCH 12 20
ENDBRANCH 10 12
ENDBRANCH 4 8
BRANCH 1 23
ATOM     23  CA  ILE B 176      -1.862 -34.881  14.518  1.00 23.71 LIG 0.18  C 
BRANCH 23 24
ATOM     24  N   ILE B 176      -2.849 -34.283  15.406  1.00 24.90 LIG-0.34  N 
ATOM     25  C   ASP B 175      -2.672 -34.276  16.725  1.00 27.89 LIG 0.26  C 
ATOM     26 O    ASP B 175      -1.674 -34.757  17.261  1.00 29.58 LIG-0.27  OA
ATOM     27 H    ILE B 176      -3.534 -33.947  15.007  1.00 24.90 LIG 0.16  HD
BRANCH 25 28
ATOM     28  CA  ASP B 175      -3.782 -33.648  17.578  1.00 34.92 LIG 0.41  C 
ATOM     29  N   ASP B 175      -3.815 -34.159  18.984  1.00 43.46 LIG 0.61  N 
BRANCH 28 30
ATOM     30  CB  ASP B 175      -3.651 -32.114  17.581  1.00 38.90 LIG 0.16  C 
BRANCH 30 31
ATOM     31  CG  ASP B 175      -4.159 -31.465  16.285  1.00 38.28 LIG 0.17  C 
ATOM     32 OD2  ASP B 175      -4.553 -32.218  15.354  1.00 42.70 LIG-0.65  OA
ATOM     33 OD1  ASP B 175      -4.190 -30.210  16.201  1.00 44.78 LIG-0.65  OA
ENDBRANCH 30 31
ENDBRANCH 28 30
ENDBRANCH 25 28
ENDBRANCH 23 24
BRANCH 23 34
ATOM     34  CB  ILE B 176      -2.440 -36.034  13.682  1.00 23.83 LIG 0.01  C 
ATOM     35  CG2 ILE B 176      -3.815 -35.659  13.177  1.00 26.43 LIG 0.01  C 
BRANCH 34 36
ATOM     36  CG1 ILE B 176      -1.490 -36.353  12.516  1.00 26.50 LIG 0.00  C 
ATOM     37  CD1 ILE B 176      -0.274 -37.153  12.914  1.00 30.68 LIG 0.01  C 
ENDBRANCH 34 36
ENDBRANCH 23 34
ENDBRANCH 1 23
TORSDOF 12
ENDMDL
MODEL 43
USER: ADFR SOLUTION from run 53
USER: SCORE 13.304985 LL:  -3.441 LR: -10.166 RR:   0.000 FEB:  -6.586
USER: RMSD 7.010911
USER: SEED 52
USER: STATUS no improvement in best in 6 clusters for 5 generations
USER: GENES 14
USER: genes 0 Translation |==|  0.44582 0.33257 0.53789
USER: genes 1 Rotation |==|  0.07621 0.60258 0.72973 0.58430
USER: genes 2 Torsion [N]-CA--C-[O] |==|  0.53133
USER: genes 3 Torsion [C]-N--CA-[CB] |==|  0.83808
USER: genes 4 Torsion [N]-CA--CB-[CG] |==|  0.81806
USER: genes 5 Torsion [CA]-CB--CG-[CD2] |==|  0.57409
USER: genes 6 Torsion [N]-CA--C-[O] |==|  0.65981
USER: genes 7 Torsion [N]-C--CA-[N] |==|  0.86111
USER: genes 8 Torsion [C]-CA--N-[C] |==|  0.74163
USER: genes 9 Torsion [N]-C--CA-[N] |==|  0.14157
USER: genes 10 Torsion [C]-CA--CB-[CG] |==|  0.71764
USER: genes 11 Torsion [CA]-CB--CG-[OD2] |==|  0.79443
USER: genes 12 Torsion [C]-CA--CB-[CG1] |==|  0.41872
USER: genes 13 Torsion [CA]-CB--CG1-[CD1] |==|  0.01213
ROOT
ATOM      1  C   ILE B 176      -1.253 -33.550  14.664  1.00 22.90 LIG 0.24  C 
ATOM      2 O    ILE B 176      -1.189 -33.588  13.422  1.00 27.22 LIG-0.27  OA
ATOM      3  N   PRO B 177      -2.066 -32.699  15.310  1.00 22.83 LIG-0.34  N 
ATOM      4  CA  PRO B 177      -3.027 -31.835  14.601  1.00 24.67 LIG 0.18  C 
ATOM      5  CB  PRO B 177      -4.085 -31.548  15.671  1.00 26.20 LIG 0.04  C 
ATOM      6  CG  PRO B 177      -3.269 -31.506  16.929  1.00 24.14 LIG 0.02  C 
ATOM      7  CD  PRO B 177      -2.236 -32.599  16.777  1.00 21.80 LIG 0.13  C 
ENDROOT
BRANCH 4 8
ATOM      8  C   PRO B 177      -2.420 -30.527  14.088  1.00 25.32 LIG 0.24  C 
ATOM      9 O    PRO B 177      -3.156 -29.632  13.667  1.00 32.00 LIG-0.27  OA
ATOM     10  N   PHE B 178      -1.100 -30.425  14.099  1.00 24.88 LIG-0.34  N 
ATOM     11 H    PHE B 178      -0.581 -31.029  14.425  1.00 24.88 LIG 0.16  HD
BRANCH 10 12
ATOM     12  CA  PHE B 178      -0.391 -29.269  13.553  1.00 25.09 LIG 0.19  C 
BRANCH 12 13
ATOM     13  CB  PHE B 178      -0.713 -29.035  12.059  1.00 24.80 LIG 0.07  C 
BRANCH 13 14
ATOM     14  CG  PHE B 178      -0.228 -30.141  11.137  1.00 21.99 LIG-0.06  A 
ATOM     15  CD2 PHE B 178       0.083 -29.907   9.784  1.00 23.17 LIG 0.01  A 
ATOM     16  CE2 PHE B 178       0.531 -30.950   8.952  1.00 21.52 LIG 0.00  A 
ATOM     17  CZ  PHE B 178       0.685 -32.200   9.489  1.00 22.39 LIG 0.00  A 
ATOM     18  CE1 PHE B 178       0.410 -32.455  10.820  1.00 21.58 LIG 0.00  A 
ATOM     19  CD1 PHE B 178      -0.029 -31.423  11.644  1.00 21.72 LIG 0.01  A 
ENDBRANCH 13 14
ENDBRANCH 12 13
BRANCH 12 20
ATOM     20  C   PHE B 178      -0.682 -28.050  14.412  1.00 24.87 LIG 0.20  C 
ATOM     21 OXT  PHE B 178      -0.444 -28.109  15.623  1.00 27.82 LIG-0.65  OA
ATOM     22 O    PHE B 178      -1.179 -27.031  13.934  1.00 30.25 LIG-0.65  OA
ENDBRANCH 12 20
ENDBRANCH 10 12
ENDBRANCH 4 8
BRANCH 1 23
ATOM     23  CA  ILE B 176      -0.388 -34.496  15.496  1.00 23.71 LIG 0.18  C 
BRANCH 23 24
ATOM     24  N   ILE B 176       0.293 -33.693  16.502  1.00 24.90 LIG-0.34  N 
ATOM     25  C   ASP B 175       1.510 -33.201  16.280  1.00 27.89 LIG 0.26  C 
ATOM     26 O    ASP B 175       2.114 -33.383  15.224  1.00 29.58 LIG-0.27  OA
ATOM     27 H    ILE B 176      -0.154 -33.573  17.228  1.00 24.90 LIG 0.16  HD
BRANCH 25 28
ATOM     28  CA  ASP B 175       2.155 -32.391  17.412  1.00 34.92 LIG 0.41  C 
ATOM     29  N   ASP B 175       2.137 -33.095  18.733  1.00 43.46 LIG 0.61  N 
BRANCH 28 30
ATOM     30  CB  ASP B 175       3.600 -32.011  17.040  1.00 38.90 LIG 0.16  C 
BRANCH 30 31
ATOM     31  CG  ASP B 175       4.650 -32.901  17.723  1.00 38.28 LIG 0.17  C 
ATOM     32 OD2  ASP B 175       4.871 -32.729  18.952  1.00 42.70 LIG-0.65  OA
ATOM     33 OD1  ASP B 175       5.236 -33.784  17.046  1.00 44.78 LIG-0.65  OA
ENDBRANCH 30 31
ENDBRANCH 28 30
ENDBRANCH 25 28
ENDBRANCH 23 24
BRANCH 23 34
ATOM     34  CB  ILE B 176      -1.234 -35.622  16.111  1.00 23.83 LIG 0.01  C 
ATOM     35  CG2 ILE B 176      -2.430 -35.902  15.229  1.00 26.43 LIG 0.01  C 
BRANCH 34 36
ATOM     36  CG1 ILE B 176      -0.369 -36.881  16.286  1.00 26.50 LIG 0.00  C 
ATOM     37  CD1 ILE B 176       1.082 -36.685  15.925  1.00 30.68 LIG 0.01  C 
ENDBRANCH 34 36
ENDBRANCH 23 34
ENDBRANCH 1 23
TORSDOF 12
ENDMDL
