MODEL 1
USER: ADFR SOLUTION from run 170
USER: SCORE 15.688816 LL:  -3.467 LR: -12.257 RR:   0.000 FEB:  -8.677
USER: RMSD 6.447137
USER: SEED 169
USER: STATUS no improvement in best in 17 clusters for 5 generations
USER: GENES 14
USER: genes 0 Translation |==|  0.54526 0.63358 0.58427
USER: genes 1 Rotation |==|  0.23223 0.74018 0.70678 0.77903
USER: genes 2 Torsion [N]-C--CA-[N] |==|  0.90150
USER: genes 3 Torsion [C]-CA--CB-[CG] |==|  0.30035
USER: genes 4 Torsion [CA]-CB--CG-[CD2] |==|  0.14833
USER: genes 5 Torsion [C]-CA--N-[C] |==|  0.84248
USER: genes 6 Torsion [N]-C--CA-[N] |==|  0.72029
USER: genes 7 Torsion [C]-CA--CB-[CG] |==|  0.44927
USER: genes 8 Torsion [CA]-CB--CG-[OD2] |==|  0.74084
USER: genes 9 Torsion [N]-CA--C-[N] |==|  0.98314
USER: genes 10 Torsion [C]-N--CA-[CB] |==|  0.91335
USER: genes 11 Torsion [N]-CA--CB-[CG] |==|  0.75612
USER: genes 12 Torsion [CA]-CB--CG-[CD2] |==|  0.62908
USER: genes 13 Torsion [N]-CA--C-[O] |==|  0.18336
ROOT
ATOM      1  C   LEU B 299     -15.556   2.973  15.079  1.00 46.80 LIG 0.24  C 
ATOM      2 O    LEU B 299     -15.306   1.980  15.777  1.00 48.15 LIG-0.27  OA
ATOM      3  N   PRO B 300     -16.321   3.993  15.523  1.00 44.47 LIG-0.34  N 
ATOM      4  CA  PRO B 300     -16.928   3.950  16.863  1.00 41.25 LIG 0.18  C 
ATOM      5  CB  PRO B 300     -16.950   5.427  17.267  1.00 41.07 LIG 0.04  C 
ATOM      6  CG  PRO B 300     -17.163   6.158  15.950  1.00 41.88 LIG 0.02  C 
ATOM      7  CD  PRO B 300     -16.586   5.286  14.848  1.00 43.19 LIG 0.13  C 
ENDROOT
BRANCH 1 8
ATOM      8  CA  LEU B 299     -14.975   3.098  13.659  1.00 51.80 LIG 0.18  C 
BRANCH 8 9
ATOM      9  CB  LEU B 299     -13.588   3.741  13.676  1.00 51.70 LIG 0.04  C 
BRANCH 9 10
ATOM     10  CG  LEU B 299     -12.383   2.836  13.380  1.00 53.57 LIG-0.02  C 
ATOM     11  CD2 LEU B 299     -12.531   2.068  12.069  1.00 54.40 LIG 0.01  C 
ATOM     12  CD1 LEU B 299     -12.153   1.872  14.529  1.00 50.77 LIG 0.01  C 
ENDBRANCH 9 10
ENDBRANCH 8 9
BRANCH 8 13
ATOM     13  N   LEU B 299     -15.871   3.776  12.703  1.00 58.35 LIG-0.35  N 
ATOM     14  C   ASP B 298     -17.107   3.323  12.475  1.00 67.04 LIG 0.26  C 
ATOM     15 O    ASP B 298     -17.580   2.348  13.087  1.00 64.28 LIG-0.27  OA
ATOM     16 H    LEU B 299     -15.530   4.466  12.320  1.00 58.35 LIG 0.16  HD
BRANCH 14 17
ATOM     17  CA  ASP B 298     -17.958   4.062  11.405  1.00 70.29 LIG 0.41  C 
ATOM     18  N   ASP B 298     -18.962   5.017  11.968  1.00 66.44 LIG 0.61  N 
BRANCH 17 19
ATOM     19  CB  ASP B 298     -17.075   4.753  10.342  1.00 75.12 LIG 0.16  C 
BRANCH 19 20
ATOM     20  CG  ASP B 298     -17.838   5.102   9.056  1.00 83.78 LIG 0.17  C 
ATOM     21 OD2  ASP B 298     -17.837   4.299   8.095  1.00 86.97 LIG-0.65  OA
ATOM     22 OD1  ASP B 298     -18.447   6.193   9.005  1.00 89.47 LIG-0.65  OA
ENDBRANCH 19 20
ENDBRANCH 17 19
ENDBRANCH 14 17
ENDBRANCH 8 13
ENDBRANCH 1 8
BRANCH 4 23
ATOM     23  C   PRO B 300     -18.355   3.322  16.841  1.00 41.91 LIG 0.24  C 
ATOM     24  N   PHE B 301     -18.846   3.047  15.635  1.00 41.99 LIG-0.34  N 
ATOM     25 H    PHE B 301     -18.416   3.231  14.914  1.00 41.99 LIG 0.16  HD
ATOM     26 O    PRO B 300     -18.962   3.097  17.896  1.00 39.52 LIG-0.27  OA
BRANCH 24 27
ATOM     27  CA  PHE B 301     -20.148   2.411  15.373  1.00 41.99 LIG 0.19  C 
BRANCH 27 28
ATOM     28  CB  PHE B 301     -20.537   1.434  16.503  1.00 39.59 LIG 0.07  C 
BRANCH 28 29
ATOM     29  CG  PHE B 301     -20.011   0.017  16.316  1.00 41.19 LIG-0.06  A 
ATOM     30  CD1 PHE B 301     -18.693  -0.195  15.935  1.00 38.91 LIG 0.01  A 
ATOM     31  CE1 PHE B 301     -18.194  -1.488  15.753  1.00 39.99 LIG 0.00  A 
ATOM     32  CZ  PHE B 301     -19.025  -2.584  15.924  1.00 37.57 LIG 0.00  A 
ATOM     33  CE2 PHE B 301     -20.351  -2.386  16.302  1.00 41.60 LIG 0.00  A 
ATOM     34  CD2 PHE B 301     -20.837  -1.094  16.503  1.00 40.14 LIG 0.01  A 
ENDBRANCH 28 29
ENDBRANCH 27 28
BRANCH 27 35
ATOM     35  C   PHE B 301     -21.203   3.510  15.197  1.00 45.15 LIG 0.20  C 
ATOM     36 O    PHE B 301     -21.211   4.322  14.253  1.00 42.31 LIG-0.65  OA
ATOM     37 OXT  PHE B 301     -22.124   3.588  16.026  1.00 47.06 LIG-0.65  OA
ENDBRANCH 27 35
ENDBRANCH 24 27
ENDBRANCH 4 23
TORSDOF 12
ENDMDL
MODEL 2
USER: ADFR SOLUTION from run 179
USER: SCORE 15.499232 LL:  -3.356 LR: -12.182 RR:   0.000 FEB:  -8.603
USER: RMSD 6.192380
USER: SEED 178
USER: STATUS no improvement in best in 5 clusters for 5 generations
USER: GENES 14
USER: genes 0 Translation |==|  0.51092 0.59993 0.44870
USER: genes 1 Rotation |==|  0.74924 0.72179 0.70593 0.81029
USER: genes 2 Torsion [N]-C--CA-[N] |==|  0.44235
USER: genes 3 Torsion [C]-CA--CB-[CG] |==|  0.23621
USER: genes 4 Torsion [CA]-CB--CG-[CD2] |==|  0.70090
USER: genes 5 Torsion [C]-CA--N-[C] |==|  0.78984
USER: genes 6 Torsion [N]-C--CA-[N] |==|  0.49487
USER: genes 7 Torsion [C]-CA--CB-[CG] |==|  0.25162
USER: genes 8 Torsion [CA]-CB--CG-[OD2] |==|  0.78231
USER: genes 9 Torsion [N]-CA--C-[N] |==|  0.20058
USER: genes 10 Torsion [C]-N--CA-[CB] |==|  0.19424
USER: genes 11 Torsion [N]-CA--CB-[CG] |==|  0.16272
USER: genes 12 Torsion [CA]-CB--CG-[CD2] |==|  0.01818
USER: genes 13 Torsion [N]-CA--C-[O] |==|  0.95940
ROOT
ATOM      1  C   LEU B 299     -16.149   2.367  13.147  1.00 46.80 LIG 0.24  C 
ATOM      2 O    LEU B 299     -17.223   1.986  12.660  1.00 48.15 LIG-0.27  OA
ATOM      3  N   PRO B 300     -15.478   1.644  14.069  1.00 44.47 LIG-0.34  N 
ATOM      4  CA  PRO B 300     -16.023   0.371  14.569  1.00 41.25 LIG 0.18  C 
ATOM      5  CB  PRO B 300     -14.758  -0.442  14.859  1.00 41.07 LIG 0.04  C 
ATOM      6  CG  PRO B 300     -13.748   0.607  15.297  1.00 41.88 LIG 0.02  C 
ATOM      7  CD  PRO B 300     -14.133   1.916  14.629  1.00 43.19 LIG 0.13  C 
ENDROOT
BRANCH 1 8
ATOM      8  CA  LEU B 299     -15.510   3.692  12.695  1.00 51.80 LIG 0.18  C 
BRANCH 8 9
ATOM      9  CB  LEU B 299     -15.627   4.769  13.775  1.00 51.70 LIG 0.04  C 
BRANCH 9 10
ATOM     10  CG  LEU B 299     -14.549   4.796  14.869  1.00 53.57 LIG-0.02  C 
ATOM     11  CD2 LEU B 299     -15.068   4.309  16.219  1.00 54.40 LIG 0.01  C 
ATOM     12  CD1 LEU B 299     -13.971   6.193  15.003  1.00 50.77 LIG 0.01  C 
ENDBRANCH 9 10
ENDBRANCH 8 9
BRANCH 8 13
ATOM     13  N   LEU B 299     -16.001   4.181  11.393  1.00 58.35 LIG-0.35  N 
ATOM     14  C   ASP B 298     -15.597   3.621  10.249  1.00 67.04 LIG 0.26  C 
ATOM     15 O    ASP B 298     -14.835   2.638  10.224  1.00 64.28 LIG-0.27  OA
ATOM     16 H    LEU B 299     -16.552   4.838  11.441  1.00 58.35 LIG 0.16  HD
BRANCH 14 17
ATOM     17  CA  ASP B 298     -16.118   4.241   8.922  1.00 70.29 LIG 0.41  C 
ATOM     18  N   ASP B 298     -15.587   3.586   7.686  1.00 66.44 LIG 0.61  N 
BRANCH 17 19
ATOM     19  CB  ASP B 298     -17.660   4.319   8.887  1.00 75.12 LIG 0.16  C 
BRANCH 19 20
ATOM     20  CG  ASP B 298     -18.212   5.641   9.441  1.00 83.78 LIG 0.17  C 
ATOM     21 OD2  ASP B 298     -18.274   5.817  10.679  1.00 86.97 LIG-0.65  OA
ATOM     22 OD1  ASP B 298     -18.587   6.513   8.628  1.00 89.47 LIG-0.65  OA
ENDBRANCH 19 20
ENDBRANCH 17 19
ENDBRANCH 14 17
ENDBRANCH 8 13
ENDBRANCH 1 8
BRANCH 4 23
ATOM     23  C   PRO B 300     -16.904   0.568  15.840  1.00 41.91 LIG 0.24  C 
ATOM     24  N   PHE B 301     -18.090   1.137  15.638  1.00 41.99 LIG-0.34  N 
ATOM     25 H    PHE B 301     -18.340   1.406  14.861  1.00 41.99 LIG 0.16  HD
ATOM     26 O    PRO B 300     -16.501   0.198  16.951  1.00 39.52 LIG-0.27  OA
BRANCH 24 27
ATOM     27  CA  PHE B 301     -19.104   1.380  16.678  1.00 41.99 LIG 0.19  C 
BRANCH 27 28
ATOM     28  CB  PHE B 301     -18.654   2.484  17.659  1.00 39.59 LIG 0.07  C 
BRANCH 28 29
ATOM     29  CG  PHE B 301     -18.362   3.826  17.002  1.00 41.19 LIG-0.06  A 
ATOM     30  CD1 PHE B 301     -17.837   4.871  17.751  1.00 38.91 LIG 0.01  A 
ATOM     31  CE1 PHE B 301     -17.568   6.112  17.167  1.00 39.99 LIG 0.00  A 
ATOM     32  CZ  PHE B 301     -17.852   6.326  15.828  1.00 37.57 LIG 0.00  A 
ATOM     33  CE2 PHE B 301     -18.383   5.289  15.065  1.00 41.60 LIG 0.00  A 
ATOM     34  CD2 PHE B 301     -18.629   4.046  15.648  1.00 40.14 LIG 0.01  A 
ENDBRANCH 28 29
ENDBRANCH 27 28
BRANCH 27 35
ATOM     35  C   PHE B 301     -20.428   1.744  15.995  1.00 45.15 LIG 0.20  C 
ATOM     36 O    PHE B 301     -20.526   2.068  14.797  1.00 42.31 LIG-0.65  OA
ATOM     37 OXT  PHE B 301     -21.474   1.693  16.662  1.00 47.06 LIG-0.65  OA
ENDBRANCH 27 35
ENDBRANCH 24 27
ENDBRANCH 4 23
TORSDOF 12
ENDMDL
MODEL 3
USER: ADFR SOLUTION from run 74
USER: SCORE 14.122449 LL:  -2.053 LR: -12.144 RR:   0.000 FEB:  -8.564
USER: RMSD 7.572703
USER: SEED 73
USER: STATUS no improvement in best in 13 clusters for 5 generations
USER: GENES 14
USER: genes 0 Translation |==|  0.43006 0.66509 0.62924
USER: genes 1 Rotation |==|  0.06416 0.50858 0.66610 0.67995
USER: genes 2 Torsion [N]-C--CA-[N] |==|  0.95557
USER: genes 3 Torsion [C]-CA--CB-[CG] |==|  0.87468
USER: genes 4 Torsion [CA]-CB--CG-[CD2] |==|  0.21818
USER: genes 5 Torsion [C]-CA--N-[C] |==|  0.74650
USER: genes 6 Torsion [N]-C--CA-[N] |==|  0.63860
USER: genes 7 Torsion [C]-CA--CB-[CG] |==|  0.50256
USER: genes 8 Torsion [CA]-CB--CG-[OD2] |==|  0.49595
USER: genes 9 Torsion [N]-CA--C-[N] |==|  0.29013
USER: genes 10 Torsion [C]-N--CA-[CB] |==|  0.90935
USER: genes 11 Torsion [N]-CA--CB-[CG] |==|  0.57234
USER: genes 12 Torsion [CA]-CB--CG-[CD2] |==|  0.52596
USER: genes 13 Torsion [N]-CA--C-[O] |==|  0.43226
ROOT
ATOM      1  C   LEU B 299     -17.544   3.540  15.720  1.00 46.80 LIG 0.24  C 
ATOM      2 O    LEU B 299     -17.310   3.132  16.867  1.00 48.15 LIG-0.27  OA
ATOM      3  N   PRO B 300     -18.768   3.449  15.157  1.00 44.47 LIG-0.34  N 
ATOM      4  CA  PRO B 300     -19.883   2.819  15.881  1.00 41.25 LIG 0.18  C 
ATOM      5  CB  PRO B 300     -21.097   3.600  15.367  1.00 41.07 LIG 0.04  C 
ATOM      6  CG  PRO B 300     -20.726   3.939  13.932  1.00 41.88 LIG 0.02  C 
ATOM      7  CD  PRO B 300     -19.211   4.011  13.859  1.00 43.19 LIG 0.13  C 
ENDROOT
BRANCH 1 8
ATOM      8  CA  LEU B 299     -16.434   4.201  14.882  1.00 51.80 LIG 0.18  C 
BRANCH 8 9
ATOM      9  CB  LEU B 299     -16.017   5.550  15.470  1.00 51.70 LIG 0.04  C 
BRANCH 9 10
ATOM     10  CG  LEU B 299     -17.134   6.507  15.911  1.00 53.57 LIG-0.02  C 
ATOM     11  CD2 LEU B 299     -17.732   6.130  17.264  1.00 54.40 LIG 0.01  C 
ATOM     12  CD1 LEU B 299     -18.223   6.568  14.856  1.00 50.77 LIG 0.01  C 
ENDBRANCH 9 10
ENDBRANCH 8 9
BRANCH 8 13
ATOM     13  N   LEU B 299     -16.753   4.314  13.447  1.00 58.35 LIG-0.35  N 
ATOM     14  C   ASP B 298     -16.411   3.353  12.585  1.00 67.04 LIG 0.26  C 
ATOM     15 O    ASP B 298     -15.855   2.301  12.951  1.00 64.28 LIG-0.27  OA
ATOM     16 H    LEU B 299     -17.168   5.035  13.228  1.00 58.35 LIG 0.16  HD
BRANCH 14 17
ATOM     17  CA  ASP B 298     -16.732   3.586  11.082  1.00 70.29 LIG 0.41  C 
ATOM     18  N   ASP B 298     -17.442   2.447  10.421  1.00 66.44 LIG 0.61  N 
BRANCH 17 19
ATOM     19  CB  ASP B 298     -17.485   4.915  10.853  1.00 75.12 LIG 0.16  C 
BRANCH 19 20
ATOM     20  CG  ASP B 298     -17.837   5.163   9.379  1.00 83.78 LIG 0.17  C 
ATOM     21 OD2  ASP B 298     -18.473   6.193   9.057  1.00 86.97 LIG-0.65  OA
ATOM     22 OD1  ASP B 298     -17.472   4.319   8.532  1.00 89.47 LIG-0.65  OA
ENDBRANCH 19 20
ENDBRANCH 17 19
ENDBRANCH 14 17
ENDBRANCH 8 13
ENDBRANCH 1 8
BRANCH 4 23
ATOM     23  C   PRO B 300     -19.992   1.293  15.580  1.00 41.91 LIG 0.24  C 
ATOM     24  N   PHE B 301     -19.561   0.483  16.545  1.00 41.99 LIG-0.34  N 
ATOM     25 H    PHE B 301     -19.218   0.783  17.274  1.00 41.99 LIG 0.16  HD
ATOM     26 O    PRO B 300     -20.462   0.892  14.508  1.00 39.52 LIG-0.27  OA
BRANCH 24 27
ATOM     27  CA  PHE B 301     -19.609  -0.988  16.503  1.00 41.99 LIG 0.19  C 
BRANCH 27 28
ATOM     28  CB  PHE B 301     -20.837  -1.491  15.715  1.00 39.59 LIG 0.07  C 
BRANCH 28 29
ATOM     29  CG  PHE B 301     -21.318  -2.877  16.119  1.00 41.19 LIG-0.06  A 
ATOM     30  CD1 PHE B 301     -20.780  -3.507  17.233  1.00 38.91 LIG 0.01  A 
ATOM     31  CE1 PHE B 301     -21.205  -4.782  17.616  1.00 39.99 LIG 0.00  A 
ATOM     32  CZ  PHE B 301     -22.158  -5.452  16.864  1.00 37.57 LIG 0.00  A 
ATOM     33  CE2 PHE B 301     -22.704  -4.834  15.742  1.00 41.60 LIG 0.00  A 
ATOM     34  CD2 PHE B 301     -22.291  -3.553  15.377  1.00 40.14 LIG 0.01  A 
ENDBRANCH 28 29
ENDBRANCH 27 28
BRANCH 27 35
ATOM     35  C   PHE B 301     -18.301  -1.503  15.889  1.00 45.15 LIG 0.20  C 
ATOM     36 O    PHE B 301     -17.835  -2.639  16.098  1.00 42.31 LIG-0.65  OA
ATOM     37 OXT  PHE B 301     -17.674  -0.760  15.117  1.00 47.06 LIG-0.65  OA
ENDBRANCH 27 35
ENDBRANCH 24 27
ENDBRANCH 4 23
TORSDOF 12
ENDMDL
MODEL 4
USER: ADFR SOLUTION from run 109
USER: SCORE 14.583059 LL:  -3.029 LR: -12.055 RR:   0.000 FEB:  -8.475
USER: RMSD 8.442368
USER: SEED 108
USER: STATUS no improvement in best in 18 clusters for 5 generations
USER: GENES 14
USER: genes 0 Translation |==|  0.30511 0.61513 0.56123
USER: genes 1 Rotation |==|  0.93994 0.68355 0.59157 0.61989
USER: genes 2 Torsion [N]-C--CA-[N] |==|  0.18443
USER: genes 3 Torsion [C]-CA--CB-[CG] |==|  0.36934
USER: genes 4 Torsion [CA]-CB--CG-[CD2] |==|  0.19506
USER: genes 5 Torsion [C]-CA--N-[C] |==|  0.63925
USER: genes 6 Torsion [N]-C--CA-[N] |==|  0.69047
USER: genes 7 Torsion [C]-CA--CB-[CG] |==|  0.54819
USER: genes 8 Torsion [CA]-CB--CG-[OD2] |==|  0.62996
USER: genes 9 Torsion [N]-CA--C-[N] |==|  0.62178
USER: genes 10 Torsion [C]-N--CA-[CB] |==|  0.32412
USER: genes 11 Torsion [N]-CA--CB-[CG] |==|  0.46266
USER: genes 12 Torsion [CA]-CB--CG-[CD2] |==|  0.68164
USER: genes 13 Torsion [N]-CA--C-[O] |==|  0.47837
ROOT
ATOM      1  C   LEU B 299     -19.699   2.640  14.751  1.00 46.80 LIG 0.24  C 
ATOM      2 O    LEU B 299     -20.839   2.786  15.214  1.00 48.15 LIG-0.27  OA
ATOM      3  N   PRO B 300     -19.245   1.447  14.311  1.00 44.47 LIG-0.34  N 
ATOM      4  CA  PRO B 300     -20.087   0.243  14.401  1.00 41.25 LIG 0.18  C 
ATOM      5  CB  PRO B 300     -19.643  -0.566  13.178  1.00 41.07 LIG 0.04  C 
ATOM      6  CG  PRO B 300     -18.169  -0.223  13.035  1.00 41.88 LIG 0.02  C 
ATOM      7  CD  PRO B 300     -17.966   1.164  13.619  1.00 43.19 LIG 0.13  C 
ENDROOT
BRANCH 1 8
ATOM      8  CA  LEU B 299     -18.743   3.841  14.631  1.00 51.80 LIG 0.18  C 
BRANCH 8 9
ATOM      9  CB  LEU B 299     -19.235   5.033  15.453  1.00 51.70 LIG 0.04  C 
BRANCH 9 10
ATOM     10  CG  LEU B 299     -18.212   5.749  16.348  1.00 53.57 LIG-0.02  C 
ATOM     11  CD2 LEU B 299     -17.177   6.535  15.547  1.00 54.40 LIG 0.01  C 
ATOM     12  CD1 LEU B 299     -17.521   4.751  17.260  1.00 50.77 LIG 0.01  C 
ENDBRANCH 9 10
ENDBRANCH 8 9
BRANCH 8 13
ATOM     13  N   LEU B 299     -18.443   4.232  13.241  1.00 58.35 LIG-0.35  N 
ATOM     14  C   ASP B 298     -17.185   4.408  12.829  1.00 67.04 LIG 0.26  C 
ATOM     15 O    ASP B 298     -16.208   4.203  13.573  1.00 64.28 LIG-0.27  OA
ATOM     16 H    LEU B 299     -19.135   4.333  12.740  1.00 58.35 LIG 0.16  HD
BRANCH 14 17
ATOM     17  CA  ASP B 298     -16.967   4.881  11.364  1.00 70.29 LIG 0.41  C 
ATOM     18  N   ASP B 298     -16.345   3.855  10.471  1.00 66.44 LIG 0.61  N 
BRANCH 17 19
ATOM     19  CB  ASP B 298     -18.264   5.443  10.741  1.00 75.12 LIG 0.16  C 
BRANCH 19 20
ATOM     20  CG  ASP B 298     -18.212   5.524   9.208  1.00 83.78 LIG 0.17  C 
ATOM     21 OD2  ASP B 298     -18.587   6.568   8.628  1.00 86.97 LIG-0.65  OA
ATOM     22 OD1  ASP B 298     -17.790   4.530   8.576  1.00 89.47 LIG-0.65  OA
ENDBRANCH 19 20
ENDBRANCH 17 19
ENDBRANCH 14 17
ENDBRANCH 8 13
ENDBRANCH 1 8
BRANCH 4 23
ATOM     23  C   PRO B 300     -19.864  -0.532  15.735  1.00 41.91 LIG 0.24  C 
ATOM     24  N   PHE B 301     -19.766  -1.855  15.623  1.00 41.99 LIG-0.34  N 
ATOM     25 H    PHE B 301     -19.850  -2.257  14.868  1.00 41.99 LIG 0.16  HD
ATOM     26 O    PRO B 300     -19.779   0.073  16.810  1.00 39.52 LIG-0.27  OA
BRANCH 24 27
ATOM     27  CA  PHE B 301     -19.509  -2.785  16.736  1.00 41.99 LIG 0.19  C 
BRANCH 27 28
ATOM     28  CB  PHE B 301     -20.695  -3.749  16.951  1.00 39.59 LIG 0.07  C 
BRANCH 28 29
ATOM     29  CG  PHE B 301     -20.385  -4.934  17.854  1.00 41.19 LIG-0.06  A 
ATOM     30  CD1 PHE B 301     -20.071  -4.732  19.191  1.00 38.91 LIG 0.01  A 
ATOM     31  CE1 PHE B 301     -19.778  -5.807  20.035  1.00 39.99 LIG 0.00  A 
ATOM     32  CZ  PHE B 301     -19.768  -7.099  19.534  1.00 37.57 LIG 0.00  A 
ATOM     33  CE2 PHE B 301     -20.078  -7.318  18.194  1.00 41.60 LIG 0.00  A 
ATOM     34  CD2 PHE B 301     -20.390  -6.242  17.363  1.00 40.14 LIG 0.01  A 
ENDBRANCH 28 29
ENDBRANCH 27 28
BRANCH 27 35
ATOM     35  C   PHE B 301     -18.212  -3.550  16.446  1.00 45.15 LIG 0.20  C 
ATOM     36 O    PHE B 301     -17.654  -4.307  17.262  1.00 42.31 LIG-0.65  OA
ATOM     37 OXT  PHE B 301     -17.692  -3.434  15.325  1.00 47.06 LIG-0.65  OA
ENDBRANCH 27 35
ENDBRANCH 24 27
ENDBRANCH 4 23
TORSDOF 12
ENDMDL
MODEL 5
USER: ADFR SOLUTION from run 185
USER: SCORE 15.596497 LL:  -3.738 LR: -12.026 RR:   0.000 FEB:  -8.446
USER: RMSD 3.932316
USER: SEED 184
USER: STATUS no improvement in best in 14 clusters for 5 generations
USER: GENES 14
USER: genes 0 Translation |==|  0.30613 0.53317 0.55178
USER: genes 1 Rotation |==|  0.44019 0.27018 0.32182 0.90231
USER: genes 2 Torsion [N]-C--CA-[N] |==|  0.45082
USER: genes 3 Torsion [C]-CA--CB-[CG] |==|  0.95745
USER: genes 4 Torsion [CA]-CB--CG-[CD2] |==|  0.66730
USER: genes 5 Torsion [C]-CA--N-[C] |==|  0.68652
USER: genes 6 Torsion [N]-C--CA-[N] |==|  0.87728
USER: genes 7 Torsion [C]-CA--CB-[CG] |==|  0.77277
USER: genes 8 Torsion [CA]-CB--CG-[OD2] |==|  0.53953
USER: genes 9 Torsion [N]-CA--C-[N] |==|  0.42594
USER: genes 10 Torsion [C]-N--CA-[CB] |==|  0.17947
USER: genes 11 Torsion [N]-CA--CB-[CG] |==|  0.76061
USER: genes 12 Torsion [CA]-CB--CG-[CD2] |==|  0.93747
USER: genes 13 Torsion [N]-CA--C-[O] |==|  0.22822
ROOT
ATOM      1  C   LEU B 299     -19.681   1.165  14.616  1.00 46.80 LIG 0.24  C 
ATOM      2 O    LEU B 299     -19.542   0.585  13.530  1.00 48.15 LIG-0.27  OA
ATOM      3  N   PRO B 300     -19.988   2.477  14.699  1.00 44.47 LIG-0.34  N 
ATOM      4  CA  PRO B 300     -20.135   3.294  13.483  1.00 41.25 LIG 0.18  C 
ATOM      5  CB  PRO B 300     -21.196   4.318  13.895  1.00 41.07 LIG 0.04  C 
ATOM      6  CG  PRO B 300     -20.934   4.532  15.378  1.00 41.88 LIG 0.02  C 
ATOM      7  CD  PRO B 300     -20.311   3.256  15.918  1.00 43.19 LIG 0.13  C 
ENDROOT
BRANCH 1 8
ATOM      8  CA  LEU B 299     -19.532   0.395  15.941  1.00 51.80 LIG 0.18  C 
BRANCH 8 9
ATOM      9  CB  LEU B 299     -18.270   0.815  16.694  1.00 51.70 LIG 0.04  C 
BRANCH 9 10
ATOM     10  CG  LEU B 299     -17.206   1.602  15.914  1.00 53.57 LIG-0.02  C 
ATOM     11  CD2 LEU B 299     -15.860   0.885  15.867  1.00 54.40 LIG 0.01  C 
ATOM     12  CD1 LEU B 299     -17.041   2.990  16.503  1.00 50.77 LIG 0.01  C 
ENDBRANCH 9 10
ENDBRANCH 8 9
BRANCH 8 13
ATOM     13  N   LEU B 299     -19.609  -1.071  15.793  1.00 58.35 LIG-0.35  N 
ATOM     14  C   ASP B 298     -20.631  -1.763  16.303  1.00 67.04 LIG 0.26  C 
ATOM     15 O    ASP B 298     -21.587  -1.210  16.878  1.00 64.28 LIG-0.27  OA
ATOM     16 H    LEU B 299     -18.954  -1.422  15.362  1.00 58.35 LIG 0.16  HD
BRANCH 14 17
ATOM     17  CA  ASP B 298     -20.598  -3.310  16.154  1.00 70.29 LIG 0.41  C 
ATOM     18  N   ASP B 298     -20.189  -3.790  14.797  1.00 66.44 LIG 0.61  N 
BRANCH 17 19
ATOM     19  CB  ASP B 298     -19.745  -3.977  17.256  1.00 75.12 LIG 0.16  C 
BRANCH 19 20
ATOM     20  CG  ASP B 298     -18.239  -3.954  16.952  1.00 83.78 LIG 0.17  C 
ATOM     21 OD2  ASP B 298     -17.462  -4.682  17.610  1.00 86.97 LIG-0.65  OA
ATOM     22 OD1  ASP B 298     -17.830  -3.201  16.042  1.00 89.47 LIG-0.65  OA
ENDBRANCH 19 20
ENDBRANCH 17 19
ENDBRANCH 14 17
ENDBRANCH 8 13
ENDBRANCH 1 8
BRANCH 4 23
ATOM     23  C   PRO B 300     -18.794   3.969  13.063  1.00 41.91 LIG 0.24  C 
ATOM     24  N   PHE B 301     -18.667   4.243  11.766  1.00 41.99 LIG-0.34  N 
ATOM     25 H    PHE B 301     -19.274   4.034  11.194  1.00 41.99 LIG 0.16  HD
ATOM     26 O    PRO B 300     -17.926   4.229  13.906  1.00 39.52 LIG-0.27  OA
BRANCH 24 27
ATOM     27  CA  PHE B 301     -17.514   4.918  11.149  1.00 41.99 LIG 0.19  C 
BRANCH 27 28
ATOM     28  CB  PHE B 301     -16.229   4.071  11.278  1.00 39.59 LIG 0.07  C 
BRANCH 28 29
ATOM     29  CG  PHE B 301     -15.470   4.277  12.581  1.00 41.19 LIG-0.06  A 
ATOM     30  CD1 PHE B 301     -14.615   3.291  13.056  1.00 38.91 LIG 0.01  A 
ATOM     31  CE1 PHE B 301     -13.914   3.459  14.252  1.00 39.99 LIG 0.00  A 
ATOM     32  CZ  PHE B 301     -14.087   4.612  15.003  1.00 37.57 LIG 0.00  A 
ATOM     33  CE2 PHE B 301     -14.943   5.608  14.542  1.00 41.60 LIG 0.00  A 
ATOM     34  CD2 PHE B 301     -15.624   5.443  13.335  1.00 40.14 LIG 0.01  A 
ENDBRANCH 28 29
ENDBRANCH 27 28
BRANCH 27 35
ATOM     35  C   PHE B 301     -17.845   5.211   9.681  1.00 45.15 LIG 0.20  C 
ATOM     36 O    PHE B 301     -18.510   6.193   9.301  1.00 42.31 LIG-0.65  OA
ATOM     37 OXT  PHE B 301     -17.409   4.443   8.809  1.00 47.06 LIG-0.65  OA
ENDBRANCH 27 35
ENDBRANCH 24 27
ENDBRANCH 4 23
TORSDOF 12
ENDMDL
MODEL 6
USER: ADFR SOLUTION from run 32
USER: SCORE 14.860772 LL:  -3.367 LR: -11.955 RR:   0.000 FEB:  -8.375
USER: RMSD 5.463408
USER: SEED 31
USER: STATUS no improvement in best in 7 clusters for 5 generations
USER: GENES 14
USER: genes 0 Translation |==|  0.44847 0.55484 0.43764
USER: genes 1 Rotation |==|  0.68418 0.70267 0.58189 0.91024
USER: genes 2 Torsion [N]-C--CA-[N] |==|  0.52222
USER: genes 3 Torsion [C]-CA--CB-[CG] |==|  0.37254
USER: genes 4 Torsion [CA]-CB--CG-[CD2] |==|  0.93230
USER: genes 5 Torsion [C]-CA--N-[C] |==|  0.54206
USER: genes 6 Torsion [N]-C--CA-[N] |==|  0.68953
USER: genes 7 Torsion [C]-CA--CB-[CG] |==|  0.20632
USER: genes 8 Torsion [CA]-CB--CG-[OD2] |==|  0.87330
USER: genes 9 Torsion [N]-CA--C-[N] |==|  0.13986
USER: genes 10 Torsion [C]-N--CA-[CB] |==|  0.34748
USER: genes 11 Torsion [N]-CA--CB-[CG] |==|  0.87452
USER: genes 12 Torsion [CA]-CB--CG-[CD2] |==|  0.36112
USER: genes 13 Torsion [N]-CA--C-[O] |==|  0.69654
ROOT
ATOM      1  C   LEU B 299     -17.226   1.555  12.989  1.00 46.80 LIG 0.24  C 
ATOM      2 O    LEU B 299     -18.377   1.376  12.566  1.00 48.15 LIG-0.27  OA
ATOM      3  N   PRO B 300     -16.868   1.256  14.257  1.00 44.47 LIG-0.34  N 
ATOM      4  CA  PRO B 300     -17.857   0.731  15.213  1.00 41.25 LIG 0.18  C 
ATOM      5  CB  PRO B 300     -17.008  -0.182  16.102  1.00 41.07 LIG 0.04  C 
ATOM      6  CG  PRO B 300     -15.653   0.509  16.138  1.00 41.88 LIG 0.02  C 
ATOM      7  CD  PRO B 300     -15.510   1.296  14.848  1.00 43.19 LIG 0.13  C 
ENDROOT
BRANCH 1 8
ATOM      8  CA  LEU B 299     -16.129   2.113  12.065  1.00 51.80 LIG 0.18  C 
BRANCH 8 9
ATOM      9  CB  LEU B 299     -15.295   3.185  12.769  1.00 51.70 LIG 0.04  C 
BRANCH 9 10
ATOM     10  CG  LEU B 299     -13.767   3.101  12.628  1.00 53.57 LIG-0.02  C 
ATOM     11  CD2 LEU B 299     -13.281   1.687  12.324  1.00 54.40 LIG 0.01  C 
ATOM     12  CD1 LEU B 299     -13.093   3.629  13.882  1.00 50.77 LIG 0.01  C 
ENDBRANCH 9 10
ENDBRANCH 8 9
BRANCH 8 13
ATOM     13  N   LEU B 299     -16.629   2.590  10.762  1.00 58.35 LIG-0.35  N 
ATOM     14  C   ASP B 298     -15.794   2.820   9.744  1.00 67.04 LIG 0.26  C 
ATOM     15 O    ASP B 298     -14.572   2.599   9.825  1.00 64.28 LIG-0.27  OA
ATOM     16 H    LEU B 299     -17.480   2.701  10.724  1.00 58.35 LIG 0.16  HD
BRANCH 14 17
ATOM     17  CA  ASP B 298     -16.402   3.380   8.428  1.00 70.29 LIG 0.41  C 
ATOM     18  N   ASP B 298     -16.367   2.424   7.278  1.00 66.44 LIG 0.61  N 
BRANCH 17 19
ATOM     19  CB  ASP B 298     -17.828   3.936   8.641  1.00 75.12 LIG 0.16  C 
BRANCH 19 20
ATOM     20  CG  ASP B 298     -17.848   5.284   9.377  1.00 83.78 LIG 0.17  C 
ATOM     21 OD2  ASP B 298     -17.139   5.445  10.397  1.00 86.97 LIG-0.65  OA
ATOM     22 OD1  ASP B 298     -18.580   6.193   8.929  1.00 89.47 LIG-0.65  OA
ENDBRANCH 19 20
ENDBRANCH 17 19
ENDBRANCH 14 17
ENDBRANCH 8 13
ENDBRANCH 1 8
BRANCH 4 23
ATOM     23  C   PRO B 300     -18.551   1.867  16.024  1.00 41.91 LIG 0.24  C 
ATOM     24  N   PHE B 301     -19.049   2.870  15.303  1.00 41.99 LIG-0.34  N 
ATOM     25 H    PHE B 301     -18.966   2.902  14.448  1.00 41.99 LIG 0.16  HD
ATOM     26 O    PRO B 300     -18.627   1.807  17.257  1.00 39.52 LIG-0.27  OA
BRANCH 24 27
ATOM     27  CA  PHE B 301     -19.785   4.023  15.846  1.00 41.99 LIG 0.19  C 
BRANCH 27 28
ATOM     28  CB  PHE B 301     -19.142   5.358  15.411  1.00 39.59 LIG 0.07  C 
BRANCH 28 29
ATOM     29  CG  PHE B 301     -17.626   5.396  15.540  1.00 41.19 LIG-0.06  A 
ATOM     30  CD1 PHE B 301     -17.015   5.027  16.731  1.00 38.91 LIG 0.01  A 
ATOM     31  CE1 PHE B 301     -15.625   5.061  16.870  1.00 39.99 LIG 0.00  A 
ATOM     32  CZ  PHE B 301     -14.833   5.497  15.819  1.00 37.57 LIG 0.00  A 
ATOM     33  CE2 PHE B 301     -15.431   5.874  14.620  1.00 41.60 LIG 0.00  A 
ATOM     34  CD2 PHE B 301     -16.818   5.817  14.480  1.00 40.14 LIG 0.01  A 
ENDBRANCH 28 29
ENDBRANCH 27 28
BRANCH 27 35
ATOM     35  C   PHE B 301     -21.246   3.931  15.390  1.00 45.15 LIG 0.20  C 
ATOM     36 O    PHE B 301     -21.762   4.693  14.550  1.00 42.31 LIG-0.65  OA
ATOM     37 OXT  PHE B 301     -21.960   3.032  15.861  1.00 47.06 LIG-0.65  OA
ENDBRANCH 27 35
ENDBRANCH 24 27
ENDBRANCH 4 23
TORSDOF 12
ENDMDL
MODEL 7
USER: ADFR SOLUTION from run 158
USER: SCORE 16.000234 LL:  -4.106 LR: -11.955 RR:   0.000 FEB:  -8.376
USER: RMSD 5.768194
USER: SEED 157
USER: STATUS no improvement in best in 2 clusters for 5 generations
USER: GENES 14
USER: genes 0 Translation |==|  0.38275 0.49391 0.46951
USER: genes 1 Rotation |==|  0.55987 0.83060 0.56372 0.86477
USER: genes 2 Torsion [N]-C--CA-[N] |==|  0.89071
USER: genes 3 Torsion [C]-CA--CB-[CG] |==|  0.48248
USER: genes 4 Torsion [CA]-CB--CG-[CD2] |==|  0.93005
USER: genes 5 Torsion [C]-CA--N-[C] |==|  0.80663
USER: genes 6 Torsion [N]-C--CA-[N] |==|  0.04502
USER: genes 7 Torsion [C]-CA--CB-[CG] |==|  0.71753
USER: genes 8 Torsion [CA]-CB--CG-[OD2] |==|  0.06693
USER: genes 9 Torsion [N]-CA--C-[N] |==|  0.00893
USER: genes 10 Torsion [C]-N--CA-[CB] |==|  0.36309
USER: genes 11 Torsion [N]-CA--CB-[CG] |==|  0.88880
USER: genes 12 Torsion [CA]-CB--CG-[CD2] |==|  0.81941
USER: genes 13 Torsion [N]-CA--C-[O] |==|  0.72827
ROOT
ATOM      1  C   LEU B 299     -18.360   0.458  13.444  1.00 46.80 LIG 0.24  C 
ATOM      2 O    LEU B 299     -19.385  -0.175  13.731  1.00 48.15 LIG-0.27  OA
ATOM      3  N   PRO B 300     -17.515   0.930  14.386  1.00 44.47 LIG-0.34  N 
ATOM      4  CA  PRO B 300     -17.803   0.741  15.817  1.00 41.25 LIG 0.18  C 
ATOM      5  CB  PRO B 300     -16.403   0.628  16.426  1.00 41.07 LIG 0.04  C 
ATOM      6  CG  PRO B 300     -15.555   1.540  15.553  1.00 41.88 LIG 0.02  C 
ATOM      7  CD  PRO B 300     -16.200   1.580  14.178  1.00 43.19 LIG 0.13  C 
ENDROOT
BRANCH 1 8
ATOM      8  CA  LEU B 299     -17.985   0.717  11.973  1.00 51.80 LIG 0.18  C 
BRANCH 8 9
ATOM      9  CB  LEU B 299     -17.083  -0.389  11.421  1.00 51.70 LIG 0.04  C 
BRANCH 9 10
ATOM     10  CG  LEU B 299     -16.746  -0.347   9.923  1.00 53.57 LIG-0.02  C 
ATOM     11  CD2 LEU B 299     -17.801   0.390   9.102  1.00 54.40 LIG 0.01  C 
ATOM     12  CD1 LEU B 299     -16.555  -1.755   9.388  1.00 50.77 LIG 0.01  C 
ENDBRANCH 9 10
ENDBRANCH 8 9
BRANCH 8 13
ATOM     13  N   LEU B 299     -17.410   2.053  11.728  1.00 58.35 LIG-0.35  N 
ATOM     14  C   ASP B 298     -18.159   3.155  11.818  1.00 67.04 LIG 0.26  C 
ATOM     15 O    ASP B 298     -19.356   3.117  12.159  1.00 64.28 LIG-0.27  OA
ATOM     16 H    LEU B 299     -16.574   2.052  11.528  1.00 58.35 LIG 0.16  HD
BRANCH 14 17
ATOM     17  CA  ASP B 298     -17.485   4.514  11.481  1.00 70.29 LIG 0.41  C 
ATOM     18  N   ASP B 298     -16.193   4.393  10.735  1.00 66.44 LIG 0.61  N 
BRANCH 17 19
ATOM     19  CB  ASP B 298     -18.453   5.475  10.756  1.00 75.12 LIG 0.16  C 
BRANCH 19 20
ATOM     20  CG  ASP B 298     -18.216   5.543   9.241  1.00 83.78 LIG 0.17  C 
ATOM     21 OD2  ASP B 298     -17.663   4.584   8.655  1.00 86.97 LIG-0.65  OA
ATOM     22 OD1  ASP B 298     -18.587   6.568   8.628  1.00 89.47 LIG-0.65  OA
ENDBRANCH 19 20
ENDBRANCH 17 19
ENDBRANCH 14 17
ENDBRANCH 8 13
ENDBRANCH 1 8
BRANCH 4 23
ATOM     23  C   PRO B 300     -18.615   1.929  16.416  1.00 41.91 LIG 0.24  C 
ATOM     24  N   PHE B 301     -18.973   2.877  15.552  1.00 41.99 LIG-0.34  N 
ATOM     25 H    PHE B 301     -18.746   2.848  14.723  1.00 41.99 LIG 0.16  HD
ATOM     26 O    PRO B 300     -18.899   1.956  17.620  1.00 39.52 LIG-0.27  OA
BRANCH 24 27
ATOM     27  CA  PHE B 301     -19.780   4.064  15.879  1.00 41.99 LIG 0.19  C 
BRANCH 27 28
ATOM     28  CB  PHE B 301     -19.127   5.356  15.343  1.00 39.59 LIG 0.07  C 
BRANCH 28 29
ATOM     29  CG  PHE B 301     -17.613   5.402  15.493  1.00 41.19 LIG-0.06  A 
ATOM     30  CD1 PHE B 301     -16.798   5.402  14.369  1.00 38.91 LIG 0.01  A 
ATOM     31  CE1 PHE B 301     -15.406   5.439  14.486  1.00 39.99 LIG 0.00  A 
ATOM     32  CZ  PHE B 301     -14.815   5.446  15.740  1.00 37.57 LIG 0.00  A 
ATOM     33  CE2 PHE B 301     -15.618   5.443  16.877  1.00 41.60 LIG 0.00  A 
ATOM     34  CD2 PHE B 301     -17.008   5.428  16.753  1.00 40.14 LIG 0.01  A 
ENDBRANCH 28 29
ENDBRANCH 27 28
BRANCH 27 35
ATOM     35  C   PHE B 301     -21.190   3.871  15.307  1.00 45.15 LIG 0.20  C 
ATOM     36 O    PHE B 301     -21.572   4.351  14.223  1.00 42.31 LIG-0.65  OA
ATOM     37 OXT  PHE B 301     -21.999   3.176  15.942  1.00 47.06 LIG-0.65  OA
ENDBRANCH 27 35
ENDBRANCH 24 27
ENDBRANCH 4 23
TORSDOF 12
ENDMDL
MODEL 8
USER: ADFR SOLUTION from run 83
USER: SCORE 14.729301 LL:  -2.996 LR: -11.871 RR:   0.000 FEB:  -8.291
USER: RMSD 5.180103
USER: SEED 82
USER: STATUS no improvement in best in 11 clusters for 5 generations
USER: GENES 14
USER: genes 0 Translation |==|  0.27417 0.40451 0.67625
USER: genes 1 Rotation |==|  0.37550 0.78534 0.31800 0.84635
USER: genes 2 Torsion [N]-C--CA-[N] |==|  0.35242
USER: genes 3 Torsion [C]-CA--CB-[CG] |==|  0.26057
USER: genes 4 Torsion [CA]-CB--CG-[CD2] |==|  0.82614
USER: genes 5 Torsion [C]-CA--N-[C] |==|  0.72158
USER: genes 6 Torsion [N]-C--CA-[N] |==|  0.32085
USER: genes 7 Torsion [C]-CA--CB-[CG] |==|  0.58727
USER: genes 8 Torsion [CA]-CB--CG-[OD2] |==|  0.21768
USER: genes 9 Torsion [N]-CA--C-[N] |==|  0.57010
USER: genes 10 Torsion [C]-N--CA-[CB] |==|  0.75965
USER: genes 11 Torsion [N]-CA--CB-[CG] |==|  0.83735
USER: genes 12 Torsion [CA]-CB--CG-[CD2] |==|  0.95749
USER: genes 13 Torsion [N]-CA--C-[O] |==|  0.21992
ROOT
ATOM      1  C   LEU B 299     -20.233  -1.151  16.390  1.00 46.80 LIG 0.24  C 
ATOM      2 O    LEU B 299     -21.345  -0.908  16.878  1.00 48.15 LIG-0.27  OA
ATOM      3  N   PRO B 300     -19.220  -0.258  16.423  1.00 44.47 LIG-0.34  N 
ATOM      4  CA  PRO B 300     -19.411   1.075  17.016  1.00 41.25 LIG 0.18  C 
ATOM      5  CB  PRO B 300     -18.024   1.389  17.585  1.00 41.07 LIG 0.04  C 
ATOM      6  CG  PRO B 300     -17.074   0.708  16.612  1.00 41.88 LIG 0.02  C 
ATOM      7  CD  PRO B 300     -17.815  -0.467  16.000  1.00 43.19 LIG 0.13  C 
ENDROOT
BRANCH 1 8
ATOM      8  CA  LEU B 299     -19.944  -2.514  15.735  1.00 51.80 LIG 0.18  C 
BRANCH 8 9
ATOM      9  CB  LEU B 299     -20.605  -2.626  14.360  1.00 51.70 LIG 0.04  C 
BRANCH 9 10
ATOM     10  CG  LEU B 299     -19.760  -2.248  13.134  1.00 53.57 LIG-0.02  C 
ATOM     11  CD2 LEU B 299     -19.329  -0.783  13.146  1.00 54.40 LIG 0.01  C 
ATOM     12  CD1 LEU B 299     -20.515  -2.562  11.856  1.00 50.77 LIG 0.01  C 
ENDBRANCH 9 10
ENDBRANCH 8 9
BRANCH 8 13
ATOM     13  N   LEU B 299     -20.277  -3.670  16.588  1.00 58.35 LIG-0.35  N 
ATOM     14  C   ASP B 298     -19.330  -4.322  17.267  1.00 67.04 LIG 0.26  C 
ATOM     15 O    ASP B 298     -18.138  -3.962  17.257  1.00 64.28 LIG-0.27  OA
ATOM     16 H    LEU B 299     -21.112  -3.875  16.604  1.00 58.35 LIG 0.16  HD
BRANCH 14 17
ATOM     17  CA  ASP B 298     -19.763  -5.568  18.091  1.00 70.29 LIG 0.41  C 
ATOM     18  N   ASP B 298     -19.173  -6.857  17.614  1.00 66.44 LIG 0.61  N 
BRANCH 17 19
ATOM     19  CB  ASP B 298     -19.517  -5.373  19.603  1.00 75.12 LIG 0.16  C 
BRANCH 19 20
ATOM     20  CG  ASP B 298     -19.184  -6.682  20.335  1.00 83.78 LIG 0.17  C 
ATOM     21 OD2  ASP B 298     -18.032  -7.164  20.253  1.00 86.97 LIG-0.65  OA
ATOM     22 OD1  ASP B 298     -20.087  -7.234  21.001  1.00 89.47 LIG-0.65  OA
ENDBRANCH 19 20
ENDBRANCH 17 19
ENDBRANCH 14 17
ENDBRANCH 8 13
ENDBRANCH 1 8
BRANCH 4 23
ATOM     23  C   PRO B 300     -19.870   2.128  15.962  1.00 41.91 LIG 0.24  C 
ATOM     24  N   PHE B 301     -19.574   3.394  16.245  1.00 41.99 LIG-0.34  N 
ATOM     25 H    PHE B 301     -19.181   3.619  16.976  1.00 41.99 LIG 0.16  HD
ATOM     26 O    PRO B 300     -20.462   1.775  14.934  1.00 39.52 LIG-0.27  OA
BRANCH 24 27
ATOM     27  CA  PHE B 301     -19.865   4.548  15.378  1.00 41.99 LIG 0.19  C 
BRANCH 27 28
ATOM     28  CB  PHE B 301     -18.737   4.781  14.350  1.00 39.59 LIG 0.07  C 
BRANCH 28 29
ATOM     29  CG  PHE B 301     -17.366   5.024  14.966  1.00 41.19 LIG-0.06  A 
ATOM     30  CD1 PHE B 301     -16.221   4.914  14.189  1.00 38.91 LIG 0.01  A 
ATOM     31  CE1 PHE B 301     -14.954   5.127  14.737  1.00 39.99 LIG 0.00  A 
ATOM     32  CZ  PHE B 301     -14.821   5.424  16.085  1.00 37.57 LIG 0.00  A 
ATOM     33  CE2 PHE B 301     -15.960   5.534  16.878  1.00 41.60 LIG 0.00  A 
ATOM     34  CD2 PHE B 301     -17.224   5.341  16.320  1.00 40.14 LIG 0.01  A 
ENDBRANCH 28 29
ENDBRANCH 27 28
BRANCH 27 35
ATOM     35  C   PHE B 301     -21.213   4.313  14.686  1.00 45.15 LIG 0.20  C 
ATOM     36 O    PHE B 301     -22.317   4.494  15.233  1.00 42.31 LIG-0.65  OA
ATOM     37 OXT  PHE B 301     -21.216   3.944  13.501  1.00 47.06 LIG-0.65  OA
ENDBRANCH 27 35
ENDBRANCH 24 27
ENDBRANCH 4 23
TORSDOF 12
ENDMDL
MODEL 9
USER: ADFR SOLUTION from run 84
USER: SCORE 14.967509 LL:  -3.406 LR: -11.829 RR:   0.000 FEB:  -8.249
USER: RMSD 8.178979
USER: SEED 83
USER: STATUS no improvement in best in 18 clusters for 5 generations
USER: GENES 14
USER: genes 0 Translation |==|  0.30497 0.59982 0.58452
USER: genes 1 Rotation |==|  0.94467 0.64986 0.62154 0.62264
USER: genes 2 Torsion [N]-C--CA-[N] |==|  0.15928
USER: genes 3 Torsion [C]-CA--CB-[CG] |==|  0.44057
USER: genes 4 Torsion [CA]-CB--CG-[CD2] |==|  0.16573
USER: genes 5 Torsion [C]-CA--N-[C] |==|  0.12975
USER: genes 6 Torsion [N]-C--CA-[N] |==|  0.31105
USER: genes 7 Torsion [C]-CA--CB-[CG] |==|  0.59717
USER: genes 8 Torsion [CA]-CB--CG-[OD2] |==|  0.91628
USER: genes 9 Torsion [N]-CA--C-[N] |==|  0.70969
USER: genes 10 Torsion [C]-N--CA-[CB] |==|  0.25036
USER: genes 11 Torsion [N]-CA--CB-[CG] |==|  0.05969
USER: genes 12 Torsion [CA]-CB--CG-[CD2] |==|  0.14909
USER: genes 13 Torsion [N]-CA--C-[O] |==|  0.97824
ROOT
ATOM      1  C   LEU B 299     -19.701   2.365  15.082  1.00 46.80 LIG 0.24  C 
ATOM      2 O    LEU B 299     -20.877   2.600  15.397  1.00 48.15 LIG-0.27  OA
ATOM      3  N   PRO B 300     -19.304   1.158  14.625  1.00 44.47 LIG-0.34  N 
ATOM      4  CA  PRO B 300     -20.260   0.044  14.516  1.00 41.25 LIG 0.18  C 
ATOM      5  CB  PRO B 300     -19.726  -0.736  13.310  1.00 41.07 LIG 0.04  C 
ATOM      6  CG  PRO B 300     -18.220  -0.539  13.392  1.00 41.88 LIG 0.02  C 
ATOM      7  CD  PRO B 300     -17.972   0.785  14.093  1.00 43.19 LIG 0.13  C 
ENDROOT
BRANCH 1 8
ATOM      8  CA  LEU B 299     -18.629   3.466  15.177  1.00 51.80 LIG 0.18  C 
BRANCH 8 9
ATOM      9  CB  LEU B 299     -19.189   4.740  15.812  1.00 51.70 LIG 0.04  C 
BRANCH 9 10
ATOM     10  CG  LEU B 299     -18.186   5.723  16.432  1.00 53.57 LIG-0.02  C 
ATOM     11  CD2 LEU B 299     -17.168   6.244  15.420  1.00 54.40 LIG 0.01  C 
ATOM     12  CD1 LEU B 299     -17.473   5.078  17.607  1.00 50.77 LIG 0.01  C 
ENDBRANCH 9 10
ENDBRANCH 8 9
BRANCH 8 13
ATOM     13  N   LEU B 299     -17.952   3.754  13.899  1.00 58.35 LIG-0.35  N 
ATOM     14  C   ASP B 298     -18.647   3.918  12.771  1.00 67.04 LIG 0.26  C 
ATOM     15 O    ASP B 298     -19.891   3.888  12.748  1.00 64.28 LIG-0.27  OA
ATOM     16 H    LEU B 299     -17.095   3.803  13.951  1.00 58.35 LIG 0.16  HD
BRANCH 14 17
ATOM     17  CA  ASP B 298     -17.846   4.156  11.460  1.00 70.29 LIG 0.41  C 
ATOM     18  N   ASP B 298     -17.929   3.033  10.475  1.00 66.44 LIG 0.61  N 
BRANCH 17 19
ATOM     19  CB  ASP B 298     -18.212   5.501  10.796  1.00 75.12 LIG 0.16  C 
BRANCH 19 20
ATOM     20  CG  ASP B 298     -18.186   5.445   9.262  1.00 83.78 LIG 0.17  C 
ATOM     21 OD2  ASP B 298     -17.400   4.662   8.682  1.00 86.97 LIG-0.65  OA
ATOM     22 OD1  ASP B 298     -18.962   6.193   8.628  1.00 89.47 LIG-0.65  OA
ENDBRANCH 19 20
ENDBRANCH 17 19
ENDBRANCH 14 17
ENDBRANCH 8 13
ENDBRANCH 1 8
BRANCH 4 23
ATOM     23  C   PRO B 300     -20.301  -0.825  15.810  1.00 41.91 LIG 0.24  C 
ATOM     24  N   PHE B 301     -19.684  -2.002  15.735  1.00 41.99 LIG-0.34  N 
ATOM     25 H    PHE B 301     -19.313  -2.277  15.010  1.00 41.99 LIG 0.16  HD
ATOM     26 O    PRO B 300     -20.871  -0.413  16.829  1.00 39.52 LIG-0.27  OA
BRANCH 24 27
ATOM     27  CA  PHE B 301     -19.554  -2.965  16.841  1.00 41.99 LIG 0.19  C 
BRANCH 27 28
ATOM     28  CB  PHE B 301     -20.736  -3.957  16.867  1.00 39.59 LIG 0.07  C 
BRANCH 28 29
ATOM     29  CG  PHE B 301     -21.470  -4.095  15.541  1.00 41.19 LIG-0.06  A 
ATOM     30  CD1 PHE B 301     -22.847  -3.932  15.483  1.00 38.91 LIG 0.01  A 
ATOM     31  CE1 PHE B 301     -23.540  -4.060  14.276  1.00 39.99 LIG 0.00  A 
ATOM     32  CZ  PHE B 301     -22.856  -4.384  13.114  1.00 37.57 LIG 0.00  A 
ATOM     33  CE2 PHE B 301     -21.474  -4.554  13.157  1.00 41.60 LIG 0.00  A 
ATOM     34  CD2 PHE B 301     -20.787  -4.403  14.361  1.00 40.14 LIG 0.01  A 
ENDBRANCH 28 29
ENDBRANCH 27 28
BRANCH 27 35
ATOM     35  C   PHE B 301     -18.213  -3.696  16.699  1.00 45.15 LIG 0.20  C 
ATOM     36 O    PHE B 301     -17.461  -3.584  15.712  1.00 42.31 LIG-0.65  OA
ATOM     37 OXT  PHE B 301     -17.834  -4.426  17.628  1.00 47.06 LIG-0.65  OA
ENDBRANCH 27 35
ENDBRANCH 24 27
ENDBRANCH 4 23
TORSDOF 12
ENDMDL
MODEL 10
USER: ADFR SOLUTION from run 78
USER: SCORE 14.929506 LL:  -3.619 LR: -11.797 RR:   0.000 FEB:  -8.217
USER: RMSD 6.728155
USER: SEED 77
USER: STATUS no improvement in best in 20 clusters for 5 generations
USER: GENES 14
USER: genes 0 Translation |==|  0.46648 0.62238 0.63804
USER: genes 1 Rotation |==|  0.19023 0.36100 0.83567 0.64848
USER: genes 2 Torsion [N]-C--CA-[N] |==|  0.84598
USER: genes 3 Torsion [C]-CA--CB-[CG] |==|  0.30351
USER: genes 4 Torsion [CA]-CB--CG-[CD2] |==|  0.08563
USER: genes 5 Torsion [C]-CA--N-[C] |==|  0.64166
USER: genes 6 Torsion [N]-C--CA-[N] |==|  0.92600
USER: genes 7 Torsion [C]-CA--CB-[CG] |==|  0.43967
USER: genes 8 Torsion [CA]-CB--CG-[OD2] |==|  0.55826
USER: genes 9 Torsion [N]-CA--C-[N] |==|  0.14768
USER: genes 10 Torsion [C]-N--CA-[CB] |==|  0.38204
USER: genes 11 Torsion [N]-CA--CB-[CG] |==|  0.14166
USER: genes 12 Torsion [CA]-CB--CG-[CD2] |==|  0.76299
USER: genes 13 Torsion [N]-CA--C-[O] |==|  0.86030
ROOT
ATOM      1  C   LEU B 299     -16.915   2.771  15.845  1.00 46.80 LIG 0.24  C 
ATOM      2 O    LEU B 299     -15.871   2.657  16.503  1.00 48.15 LIG-0.27  OA
ATOM      3  N   PRO B 300     -17.846   1.794  15.793  1.00 44.47 LIG-0.34  N 
ATOM      4  CA  PRO B 300     -17.637   0.518  16.496  1.00 41.25 LIG 0.18  C 
ATOM      5  CB  PRO B 300     -19.063   0.111  16.880  1.00 41.07 LIG 0.04  C 
ATOM      6  CG  PRO B 300     -19.910   0.649  15.737  1.00 41.88 LIG 0.02  C 
ATOM      7  CD  PRO B 300     -19.185   1.852  15.160  1.00 43.19 LIG 0.13  C 
ENDROOT
BRANCH 1 8
ATOM      8  CA  LEU B 299     -17.213   4.065  15.066  1.00 51.80 LIG 0.18  C 
BRANCH 8 9
ATOM      9  CB  LEU B 299     -18.316   4.883  15.739  1.00 51.70 LIG 0.04  C 
BRANCH 9 10
ATOM     10  CG  LEU B 299     -17.907   6.196  16.423  1.00 53.57 LIG-0.02  C 
ATOM     11  CD2 LEU B 299     -16.712   6.865  15.749  1.00 54.40 LIG 0.01  C 
ATOM     12  CD1 LEU B 299     -17.612   5.955  17.893  1.00 50.77 LIG 0.01  C 
ENDBRANCH 9 10
ENDBRANCH 8 9
BRANCH 8 13
ATOM     13  N   LEU B 299     -17.498   3.850  13.635  1.00 58.35 LIG-0.35  N 
ATOM     14  C   ASP B 298     -16.858   4.545  12.691  1.00 67.04 LIG 0.26  C 
ATOM     15 O    ASP B 298     -15.961   5.364  12.964  1.00 64.28 LIG-0.27  OA
ATOM     16 H    LEU B 299     -18.097   3.255  13.475  1.00 58.35 LIG 0.16  HD
BRANCH 14 17
ATOM     17  CA  ASP B 298     -17.268   4.298  11.212  1.00 70.29 LIG 0.41  C 
ATOM     18  N   ASP B 298     -17.839   2.940  10.950  1.00 66.44 LIG 0.61  N 
BRANCH 17 19
ATOM     19  CB  ASP B 298     -18.207   5.404  10.682  1.00 75.12 LIG 0.16  C 
BRANCH 19 20
ATOM     20  CG  ASP B 298     -18.212   5.508   9.150  1.00 83.78 LIG 0.17  C 
ATOM     21 OD2  ASP B 298     -18.592   6.568   8.601  1.00 86.97 LIG-0.65  OA
ATOM     22 OD1  ASP B 298     -17.832   4.519   8.486  1.00 89.47 LIG-0.65  OA
ENDBRANCH 19 20
ENDBRANCH 17 19
ENDBRANCH 14 17
ENDBRANCH 8 13
ENDBRANCH 1 8
BRANCH 4 23
ATOM     23  C   PRO B 300     -16.942  -0.545  15.592  1.00 41.91 LIG 0.24  C 
ATOM     24  N   PHE B 301     -15.806  -0.159  15.016  1.00 41.99 LIG-0.34  N 
ATOM     25 H    PHE B 301     -15.492   0.635  15.113  1.00 41.99 LIG 0.16  HD
ATOM     26 O    PRO B 300     -17.437  -1.670  15.446  1.00 39.52 LIG-0.27  OA
BRANCH 24 27
ATOM     27  CA  PHE B 301     -14.956  -1.005  14.161  1.00 41.99 LIG 0.19  C 
BRANCH 27 28
ATOM     28  CB  PHE B 301     -14.450  -0.231  12.925  1.00 39.59 LIG 0.07  C 
BRANCH 28 29
ATOM     29  CG  PHE B 301     -13.803   1.109  13.246  1.00 41.19 LIG-0.06  A 
ATOM     30  CD1 PHE B 301     -12.428   1.200  13.415  1.00 38.91 LIG 0.01  A 
ATOM     31  CE1 PHE B 301     -11.817   2.420  13.714  1.00 39.99 LIG 0.00  A 
ATOM     32  CZ  PHE B 301     -12.587   3.561  13.878  1.00 37.57 LIG 0.00  A 
ATOM     33  CE2 PHE B 301     -13.968   3.485  13.715  1.00 41.60 LIG 0.00  A 
ATOM     34  CD2 PHE B 301     -14.570   2.268  13.394  1.00 40.14 LIG 0.01  A 
ENDBRANCH 28 29
ENDBRANCH 27 28
BRANCH 27 35
ATOM     35  C   PHE B 301     -13.791  -1.538  15.004  1.00 45.15 LIG 0.20  C 
ATOM     36 O    PHE B 301     -13.061  -0.820  15.713  1.00 42.31 LIG-0.65  OA
ATOM     37 OXT  PHE B 301     -13.567  -2.759  15.004  1.00 47.06 LIG-0.65  OA
ENDBRANCH 27 35
ENDBRANCH 24 27
ENDBRANCH 4 23
TORSDOF 12
ENDMDL
MODEL 11
USER: ADFR SOLUTION from run 182
USER: SCORE 15.771555 LL:  -4.465 LR: -11.795 RR:   0.000 FEB:  -8.215
USER: RMSD 3.802397
USER: SEED 181
USER: STATUS no improvement in best in 16 clusters for 5 generations
USER: GENES 14
USER: genes 0 Translation |==|  0.45875 0.56041 0.44773
USER: genes 1 Rotation |==|  0.64929 0.62196 0.63405 0.94144
USER: genes 2 Torsion [N]-C--CA-[N] |==|  0.17423
USER: genes 3 Torsion [C]-CA--CB-[CG] |==|  0.23892
USER: genes 4 Torsion [CA]-CB--CG-[CD2] |==|  0.82057
USER: genes 5 Torsion [C]-CA--N-[C] |==|  0.62481
USER: genes 6 Torsion [N]-C--CA-[N] |==|  0.60400
USER: genes 7 Torsion [C]-CA--CB-[CG] |==|  0.74937
USER: genes 8 Torsion [CA]-CB--CG-[OD2] |==|  0.35443
USER: genes 9 Torsion [N]-CA--C-[N] |==|  0.98354
USER: genes 10 Torsion [C]-N--CA-[CB] |==|  0.52475
USER: genes 11 Torsion [N]-CA--CB-[CG] |==|  0.91729
USER: genes 12 Torsion [CA]-CB--CG-[CD2] |==|  0.79150
USER: genes 13 Torsion [N]-CA--C-[O] |==|  0.36171
ROOT
ATOM      1  C   LEU B 299     -17.049   1.655  13.133  1.00 46.80 LIG 0.24  C 
ATOM      2 O    LEU B 299     -17.909   1.370  12.288  1.00 48.15 LIG-0.27  OA
ATOM      3  N   PRO B 300     -17.214   1.395  14.448  1.00 44.47 LIG-0.34  N 
ATOM      4  CA  PRO B 300     -18.460   0.787  14.942  1.00 41.25 LIG 0.18  C 
ATOM      5  CB  PRO B 300     -17.975  -0.042  16.136  1.00 41.07 LIG 0.04  C 
ATOM      6  CG  PRO B 300     -16.813   0.770  16.689  1.00 41.88 LIG 0.02  C 
ATOM      7  CD  PRO B 300     -16.222   1.561  15.536  1.00 43.19 LIG 0.13  C 
ENDROOT
BRANCH 1 8
ATOM      8  CA  LEU B 299     -15.720   2.308  12.710  1.00 51.80 LIG 0.18  C 
BRANCH 8 9
ATOM      9  CB  LEU B 299     -15.761   2.767  11.251  1.00 51.70 LIG 0.04  C 
BRANCH 9 10
ATOM     10  CG  LEU B 299     -16.338   4.160  10.962  1.00 53.57 LIG-0.02  C 
ATOM     11  CD2 LEU B 299     -17.819   4.269  11.315  1.00 54.40 LIG 0.01  C 
ATOM     12  CD1 LEU B 299     -16.117   4.531   9.507  1.00 50.77 LIG 0.01  C 
ENDBRANCH 9 10
ENDBRANCH 8 9
BRANCH 8 13
ATOM     13  N   LEU B 299     -14.532   1.476  12.980  1.00 58.35 LIG-0.35  N 
ATOM     14  C   ASP B 298     -13.433   2.001  13.528  1.00 67.04 LIG 0.26  C 
ATOM     15 O    ASP B 298     -13.371   3.192  13.883  1.00 64.28 LIG-0.27  OA
ATOM     16 H    LEU B 299     -14.615   0.650  12.757  1.00 58.35 LIG 0.16  HD
BRANCH 14 17
ATOM     17  CA  ASP B 298     -12.207   1.064  13.718  1.00 70.29 LIG 0.41  C 
ATOM     18  N   ASP B 298     -11.438   1.304  14.979  1.00 66.44 LIG 0.61  N 
BRANCH 17 19
ATOM     19  CB  ASP B 298     -12.592  -0.426  13.582  1.00 75.12 LIG 0.16  C 
BRANCH 19 20
ATOM     20  CG  ASP B 298     -12.998  -1.070  14.915  1.00 83.78 LIG 0.17  C 
ATOM     21 OD2  ASP B 298     -14.087  -1.682  15.003  1.00 86.97 LIG-0.65  OA
ATOM     22 OD1  ASP B 298     -12.219  -0.963  15.887  1.00 89.47 LIG-0.65  OA
ENDBRANCH 19 20
ENDBRANCH 17 19
ENDBRANCH 14 17
ENDBRANCH 8 13
ENDBRANCH 1 8
BRANCH 4 23
ATOM     23  C   PRO B 300     -19.514   1.858  15.356  1.00 41.91 LIG 0.24  C 
ATOM     24  N   PHE B 301     -19.097   3.122  15.320  1.00 41.99 LIG-0.34  N 
ATOM     25 H    PHE B 301     -18.290   3.330  15.111  1.00 41.99 LIG 0.16  HD
ATOM     26 O    PRO B 300     -20.660   1.523  15.683  1.00 39.52 LIG-0.27  OA
BRANCH 24 27
ATOM     27  CA  PHE B 301     -19.928   4.299  15.623  1.00 41.99 LIG 0.19  C 
BRANCH 27 28
ATOM     28  CB  PHE B 301     -19.195   5.612  15.272  1.00 39.59 LIG 0.07  C 
BRANCH 28 29
ATOM     29  CG  PHE B 301     -17.679   5.536  15.392  1.00 41.19 LIG-0.06  A 
ATOM     30  CD1 PHE B 301     -16.891   5.443  14.253  1.00 38.91 LIG 0.01  A 
ATOM     31  CE1 PHE B 301     -15.499   5.367  14.343  1.00 39.99 LIG 0.00  A 
ATOM     32  CZ  PHE B 301     -14.883   5.354  15.585  1.00 37.57 LIG 0.00  A 
ATOM     33  CE2 PHE B 301     -15.661   5.443  16.737  1.00 41.60 LIG 0.00  A 
ATOM     34  CD2 PHE B 301     -17.049   5.540  16.639  1.00 40.14 LIG 0.01  A 
ENDBRANCH 28 29
ENDBRANCH 27 28
BRANCH 27 35
ATOM     35  C   PHE B 301     -21.251   4.175  14.856  1.00 45.15 LIG 0.20  C 
ATOM     36 O    PHE B 301     -22.372   4.318  15.378  1.00 42.31 LIG-0.65  OA
ATOM     37 OXT  PHE B 301     -21.212   3.943  13.637  1.00 47.06 LIG-0.65  OA
ENDBRANCH 27 35
ENDBRANCH 24 27
ENDBRANCH 4 23
TORSDOF 12
ENDMDL
MODEL 12
USER: ADFR SOLUTION from run 99
USER: SCORE 15.248209 LL:  -3.802 LR: -11.760 RR:   0.000 FEB:  -8.180
USER: RMSD 4.343719
USER: SEED 98
USER: STATUS no improvement in best in 10 clusters for 5 generations
USER: GENES 14
USER: genes 0 Translation |==|  0.61224 0.59629 0.35529
USER: genes 1 Rotation |==|  0.67937 0.28555 0.71445 0.85475
USER: genes 2 Torsion [N]-C--CA-[N] |==|  0.29054
USER: genes 3 Torsion [C]-CA--CB-[CG] |==|  0.21918
USER: genes 4 Torsion [CA]-CB--CG-[CD2] |==|  0.41343
USER: genes 5 Torsion [C]-CA--N-[C] |==|  0.64347
USER: genes 6 Torsion [N]-C--CA-[N] |==|  0.35279
USER: genes 7 Torsion [C]-CA--CB-[CG] |==|  0.80040
USER: genes 8 Torsion [CA]-CB--CG-[OD2] |==|  0.82014
USER: genes 9 Torsion [N]-CA--C-[N] |==|  0.01531
USER: genes 10 Torsion [C]-N--CA-[CB] |==|  0.47590
USER: genes 11 Torsion [N]-CA--CB-[CG] |==|  0.77622
USER: genes 12 Torsion [CA]-CB--CG-[CD2] |==|  0.04529
USER: genes 13 Torsion [N]-CA--C-[O] |==|  0.41709
ROOT
ATOM      1  C   LEU B 299     -14.401   2.301  11.816  1.00 46.80 LIG 0.24  C 
ATOM      2 O    LEU B 299     -13.828   2.818  10.846  1.00 48.15 LIG-0.27  OA
ATOM      3  N   PRO B 300     -15.530   1.573  11.683  1.00 44.47 LIG-0.34  N 
ATOM      4  CA  PRO B 300     -16.157   1.392  10.364  1.00 41.25 LIG 0.18  C 
ATOM      5  CB  PRO B 300     -16.781  -0.003  10.480  1.00 41.07 LIG 0.04  C 
ATOM      6  CG  PRO B 300     -17.176  -0.100  11.945  1.00 41.88 LIG 0.02  C 
ATOM      7  CD  PRO B 300     -16.235   0.797  12.731  1.00 43.19 LIG 0.13  C 
ENDROOT
BRANCH 1 8
ATOM      8  CA  LEU B 299     -13.825   2.449  13.236  1.00 51.80 LIG 0.18  C 
BRANCH 8 9
ATOM      9  CB  LEU B 299     -13.570   3.916  13.587  1.00 51.70 LIG 0.04  C 
BRANCH 9 10
ATOM     10  CG  LEU B 299     -14.779   4.765  14.006  1.00 53.57 LIG-0.02  C 
ATOM     11  CD2 LEU B 299     -14.412   5.861  15.004  1.00 54.40 LIG 0.01  C 
ATOM     12  CD1 LEU B 299     -15.871   3.880  14.579  1.00 50.77 LIG 0.01  C 
ENDBRANCH 9 10
ENDBRANCH 8 9
BRANCH 8 13
ATOM     13  N   LEU B 299     -12.632   1.620  13.488  1.00 58.35 LIG-0.35  N 
ATOM     14  C   ASP B 298     -12.563   0.814  14.550  1.00 67.04 LIG 0.26  C 
ATOM     15 O    ASP B 298     -13.510   0.684  15.347  1.00 64.28 LIG-0.27  OA
ATOM     16 H    LEU B 299     -12.007   1.704  12.903  1.00 58.35 LIG 0.16  HD
BRANCH 14 17
ATOM     17  CA  ASP B 298     -11.242   0.025  14.770  1.00 70.29 LIG 0.41  C 
ATOM     18  N   ASP B 298     -10.643   0.192  16.131  1.00 66.44 LIG 0.61  N 
BRANCH 17 19
ATOM     19  CB  ASP B 298     -11.398  -1.471  14.416  1.00 75.12 LIG 0.16  C 
BRANCH 19 20
ATOM     20  CG  ASP B 298     -12.246  -2.248  15.433  1.00 83.78 LIG 0.17  C 
ATOM     21 OD2  ASP B 298     -11.837  -2.381  16.609  1.00 86.97 LIG-0.65  OA
ATOM     22 OD1  ASP B 298     -13.334  -2.730  15.052  1.00 89.47 LIG-0.65  OA
ENDBRANCH 19 20
ENDBRANCH 17 19
ENDBRANCH 14 17
ENDBRANCH 8 13
ENDBRANCH 1 8
BRANCH 4 23
ATOM     23  C   PRO B 300     -17.221   2.491  10.063  1.00 41.91 LIG 0.24  C 
ATOM     24  N   PHE B 301     -17.315   3.465  10.965  1.00 41.99 LIG-0.34  N 
ATOM     25 H    PHE B 301     -16.840   3.471  11.682  1.00 41.99 LIG 0.16  HD
ATOM     26 O    PRO B 300     -17.911   2.438   9.037  1.00 39.52 LIG-0.27  OA
BRANCH 24 27
ATOM     27  CA  PHE B 301     -18.212   4.629  10.869  1.00 41.99 LIG 0.19  C 
BRANCH 27 28
ATOM     28  CB  PHE B 301     -18.222   5.444  12.180  1.00 39.59 LIG 0.07  C 
BRANCH 28 29
ATOM     29  CG  PHE B 301     -19.116   4.868  13.270  1.00 41.19 LIG-0.06  A 
ATOM     30  CD1 PHE B 301     -19.472   5.644  14.365  1.00 38.91 LIG 0.01  A 
ATOM     31  CE1 PHE B 301     -20.287   5.132  15.378  1.00 39.99 LIG 0.00  A 
ATOM     32  CZ  PHE B 301     -20.729   3.819  15.316  1.00 37.57 LIG 0.00  A 
ATOM     33  CE2 PHE B 301     -20.377   3.027  14.227  1.00 41.60 LIG 0.00  A 
ATOM     34  CD2 PHE B 301     -19.581   3.552  13.208  1.00 40.14 LIG 0.01  A 
ENDBRANCH 28 29
ENDBRANCH 27 28
BRANCH 27 35
ATOM     35  C   PHE B 301     -17.771   5.490   9.679  1.00 45.15 LIG 0.20  C 
ATOM     36 O    PHE B 301     -18.546   6.192   9.003  1.00 42.31 LIG-0.65  OA
ATOM     37 OXT  PHE B 301     -16.567   5.516   9.379  1.00 47.06 LIG-0.65  OA
ENDBRANCH 27 35
ENDBRANCH 24 27
ENDBRANCH 4 23
TORSDOF 12
ENDMDL
MODEL 13
USER: ADFR SOLUTION from run 24
USER: SCORE 15.127138 LL:  -3.647 LR: -11.727 RR:   0.000 FEB:  -8.147
USER: RMSD 4.666946
USER: SEED 23
USER: STATUS no improvement in best in 14 clusters for 5 generations
USER: GENES 14
USER: genes 0 Translation |==|  0.57525 0.62660 0.61902
USER: genes 1 Rotation |==|  0.22574 0.66173 0.61619 0.86759
USER: genes 2 Torsion [N]-C--CA-[N] |==|  0.49444
USER: genes 3 Torsion [C]-CA--CB-[CG] |==|  0.76860
USER: genes 4 Torsion [CA]-CB--CG-[CD2] |==|  0.08703
USER: genes 5 Torsion [C]-CA--N-[C] |==|  0.57270
USER: genes 6 Torsion [N]-C--CA-[N] |==|  0.68821
USER: genes 7 Torsion [C]-CA--CB-[CG] |==|  0.77108
USER: genes 8 Torsion [CA]-CB--CG-[OD2] |==|  0.42427
USER: genes 9 Torsion [N]-CA--C-[N] |==|  0.85392
USER: genes 10 Torsion [C]-N--CA-[CB] |==|  0.77731
USER: genes 11 Torsion [N]-CA--CB-[CG] |==|  0.78984
USER: genes 12 Torsion [CA]-CB--CG-[CD2] |==|  0.48894
USER: genes 13 Torsion [N]-CA--C-[O] |==|  0.76606
ROOT
ATOM      1  C   LEU B 299     -15.039   2.847  15.574  1.00 46.80 LIG 0.24  C 
ATOM      2 O    LEU B 299     -15.328   1.772  16.119  1.00 48.15 LIG-0.27  OA
ATOM      3  N   PRO B 300     -15.788   3.960  15.729  1.00 44.47 LIG-0.34  N 
ATOM      4  CA  PRO B 300     -17.019   3.931  16.534  1.00 41.25 LIG 0.18  C 
ATOM      5  CB  PRO B 300     -17.070   5.347  17.116  1.00 41.07 LIG 0.04  C 
ATOM      6  CG  PRO B 300     -16.450   6.207  16.025  1.00 41.88 LIG 0.02  C 
ATOM      7  CD  PRO B 300     -15.486   5.328  15.247  1.00 43.19 LIG 0.13  C 
ENDROOT
BRANCH 1 8
ATOM      8  CA  LEU B 299     -13.776   2.967  14.702  1.00 51.80 LIG 0.18  C 
BRANCH 8 9
ATOM      9  CB  LEU B 299     -14.105   3.516  13.312  1.00 51.70 LIG 0.04  C 
BRANCH 9 10
ATOM     10  CG  LEU B 299     -14.604   2.518  12.256  1.00 53.57 LIG-0.02  C 
ATOM     11  CD2 LEU B 299     -15.396   1.364  12.863  1.00 54.40 LIG 0.01  C 
ATOM     12  CD1 LEU B 299     -13.437   1.983  11.445  1.00 50.77 LIG 0.01  C 
ENDBRANCH 9 10
ENDBRANCH 8 9
BRANCH 8 13
ATOM     13  N   LEU B 299     -12.986   1.725  14.617  1.00 58.35 LIG-0.35  N 
ATOM     14  C   ASP B 298     -11.673   1.757  14.372  1.00 67.04 LIG 0.26  C 
ATOM     15 O    ASP B 298     -11.046   2.826  14.253  1.00 64.28 LIG-0.27  OA
ATOM     16 H    LEU B 299     -13.438   1.004  14.737  1.00 58.35 LIG 0.16  HD
BRANCH 14 17
ATOM     17  CA  ASP B 298     -10.933   0.397  14.237  1.00 70.29 LIG 0.41  C 
ATOM     18  N   ASP B 298      -9.964   0.111  15.341  1.00 66.44 LIG 0.61  N 
BRANCH 17 19
ATOM     19  CB  ASP B 298     -11.916  -0.779  14.048  1.00 75.12 LIG 0.16  C 
BRANCH 19 20
ATOM     20  CG  ASP B 298     -12.508  -1.292  15.369  1.00 83.78 LIG 0.17  C 
ATOM     21 OD2  ASP B 298     -13.634  -1.839  15.375  1.00 86.97 LIG-0.65  OA
ATOM     22 OD1  ASP B 298     -11.837  -1.147  16.414  1.00 89.47 LIG-0.65  OA
ENDBRANCH 19 20
ENDBRANCH 17 19
ENDBRANCH 14 17
ENDBRANCH 8 13
ENDBRANCH 1 8
BRANCH 4 23
ATOM     23  C   PRO B 300     -18.277   3.600  15.674  1.00 41.91 LIG 0.24  C 
ATOM     24  N   PHE B 301     -18.454   4.358  14.595  1.00 41.99 LIG-0.34  N 
ATOM     25 H    PHE B 301     -17.925   5.008  14.402  1.00 41.99 LIG 0.16  HD
ATOM     26 O    PRO B 300     -19.037   2.678  15.997  1.00 39.52 LIG-0.27  OA
BRANCH 24 27
ATOM     27  CA  PHE B 301     -19.540   4.200  13.614  1.00 41.99 LIG 0.19  C 
BRANCH 27 28
ATOM     28  CB  PHE B 301     -19.235   3.065  12.613  1.00 39.59 LIG 0.07  C 
BRANCH 28 29
ATOM     29  CG  PHE B 301     -18.207   3.426  11.550  1.00 41.19 LIG-0.06  A 
ATOM     30  CD1 PHE B 301     -17.702   4.717  11.474  1.00 38.91 LIG 0.01  A 
ATOM     31  CE1 PHE B 301     -16.761   5.068  10.503  1.00 39.99 LIG 0.00  A 
ATOM     32  CZ  PHE B 301     -16.339   4.129   9.574  1.00 37.57 LIG 0.00  A 
ATOM     33  CE2 PHE B 301     -16.839   2.832   9.635  1.00 41.60 LIG 0.00  A 
ATOM     34  CD2 PHE B 301     -17.761   2.482  10.621  1.00 40.14 LIG 0.01  A 
ENDBRANCH 28 29
ENDBRANCH 27 28
BRANCH 27 35
ATOM     35  C   PHE B 301     -20.849   3.941  14.371  1.00 45.15 LIG 0.20  C 
ATOM     36 O    PHE B 301     -21.212   2.818  14.769  1.00 42.31 LIG-0.65  OA
ATOM     37 OXT  PHE B 301     -21.587   4.905  14.628  1.00 47.06 LIG-0.65  OA
ENDBRANCH 27 35
ENDBRANCH 24 27
ENDBRANCH 4 23
TORSDOF 12
ENDMDL
MODEL 14
USER: ADFR SOLUTION from run 23
USER: SCORE 14.344725 LL:  -3.066 LR: -11.640 RR:   0.000 FEB:  -8.060
USER: RMSD 5.868660
USER: SEED 22
USER: STATUS no improvement in best in 11 clusters for 5 generations
USER: GENES 14
USER: genes 0 Translation |==|  0.53329 0.68344 0.56962
USER: genes 1 Rotation |==|  0.27050 0.71199 0.76052 0.79072
USER: genes 2 Torsion [N]-C--CA-[N] |==|  0.51278
USER: genes 3 Torsion [C]-CA--CB-[CG] |==|  0.74953
USER: genes 4 Torsion [CA]-CB--CG-[CD2] |==|  0.64909
USER: genes 5 Torsion [C]-CA--N-[C] |==|  0.78889
USER: genes 6 Torsion [N]-C--CA-[N] |==|  0.56834
USER: genes 7 Torsion [C]-CA--CB-[CG] |==|  0.24388
USER: genes 8 Torsion [CA]-CB--CG-[OD2] |==|  0.36701
USER: genes 9 Torsion [N]-CA--C-[N] |==|  0.01569
USER: genes 10 Torsion [C]-N--CA-[CB] |==|  0.91871
USER: genes 11 Torsion [N]-CA--CB-[CG] |==|  0.76587
USER: genes 12 Torsion [CA]-CB--CG-[CD2] |==|  0.63440
USER: genes 13 Torsion [N]-CA--C-[O] |==|  0.69134
ROOT
ATOM      1  C   LEU B 299     -15.763   3.870  14.870  1.00 46.80 LIG 0.24  C 
ATOM      2 O    LEU B 299     -15.368   2.762  15.262  1.00 48.15 LIG-0.27  OA
ATOM      3  N   PRO B 300     -16.551   4.664  15.626  1.00 44.47 LIG-0.34  N 
ATOM      4  CA  PRO B 300     -17.012   4.223  16.952  1.00 41.25 LIG 0.18  C 
ATOM      5  CB  PRO B 300     -17.102   5.540  17.729  1.00 41.07 LIG 0.04  C 
ATOM      6  CG  PRO B 300     -17.503   6.556  16.671  1.00 41.88 LIG 0.02  C 
ATOM      7  CD  PRO B 300     -16.980   6.053  15.337  1.00 43.19 LIG 0.13  C 
ENDROOT
BRANCH 1 8
ATOM      8  CA  LEU B 299     -15.343   4.408  13.490  1.00 51.80 LIG 0.18  C 
BRANCH 8 9
ATOM      9  CB  LEU B 299     -16.541   4.959  12.715  1.00 51.70 LIG 0.04  C 
BRANCH 9 10
ATOM     10  CG  LEU B 299     -17.307   3.985  11.808  1.00 53.57 LIG-0.02  C 
ATOM     11  CD2 LEU B 299     -17.438   4.494  10.375  1.00 54.40 LIG 0.01  C 
ATOM     12  CD1 LEU B 299     -18.679   3.694  12.387  1.00 50.77 LIG 0.01  C 
ENDBRANCH 9 10
ENDBRANCH 8 9
BRANCH 8 13
ATOM     13  N   LEU B 299     -14.574   3.445  12.680  1.00 58.35 LIG-0.35  N 
ATOM     14  C   ASP B 298     -13.289   3.193  12.942  1.00 67.04 LIG 0.26  C 
ATOM     15 O    ASP B 298     -12.693   3.713  13.904  1.00 64.28 LIG-0.27  OA
ATOM     16 H    LEU B 299     -15.020   3.075  12.045  1.00 58.35 LIG 0.16  HD
BRANCH 14 17
ATOM     17  CA  ASP B 298     -12.541   2.211  11.998  1.00 70.29 LIG 0.41  C 
ATOM     18  N   ASP B 298     -11.363   1.532  12.622  1.00 66.44 LIG 0.61  N 
BRANCH 17 19
ATOM     19  CB  ASP B 298     -13.499   1.180  11.361  1.00 75.12 LIG 0.16  C 
BRANCH 19 20
ATOM     20  CG  ASP B 298     -14.137   1.673  10.054  1.00 83.78 LIG 0.17  C 
ATOM     21 OD2  ASP B 298     -14.143   0.930   9.047  1.00 86.97 LIG-0.65  OA
ATOM     22 OD1  ASP B 298     -14.639   2.818  10.035  1.00 89.47 LIG-0.65  OA
ENDBRANCH 19 20
ENDBRANCH 17 19
ENDBRANCH 14 17
ENDBRANCH 8 13
ENDBRANCH 1 8
BRANCH 4 23
ATOM     23  C   PRO B 300     -18.382   3.483  16.882  1.00 41.91 LIG 0.24  C 
ATOM     24  N   PHE B 301     -18.857   3.263  15.658  1.00 41.99 LIG-0.34  N 
ATOM     25 H    PHE B 301     -18.448   3.537  14.954  1.00 41.99 LIG 0.16  HD
ATOM     26 O    PRO B 300     -18.962   3.129  17.917  1.00 39.52 LIG-0.27  OA
BRANCH 24 27
ATOM     27  CA  PHE B 301     -20.104   2.544  15.348  1.00 41.99 LIG 0.19  C 
BRANCH 27 28
ATOM     28  CB  PHE B 301     -20.429   1.486  16.424  1.00 39.59 LIG 0.07  C 
BRANCH 28 29
ATOM     29  CG  PHE B 301     -19.728   0.150  16.222  1.00 41.19 LIG-0.06  A 
ATOM     30  CD1 PHE B 301     -18.369   0.108  15.947  1.00 38.91 LIG 0.01  A 
ATOM     31  CE1 PHE B 301     -17.709  -1.109  15.753  1.00 39.99 LIG 0.00  A 
ATOM     32  CZ  PHE B 301     -18.418  -2.299  15.805  1.00 37.57 LIG 0.00  A 
ATOM     33  CE2 PHE B 301     -19.783  -2.273  16.077  1.00 41.60 LIG 0.00  A 
ATOM     34  CD2 PHE B 301     -20.431  -1.056  16.291  1.00 40.14 LIG 0.01  A 
ENDBRANCH 28 29
ENDBRANCH 27 28
BRANCH 27 35
ATOM     35  C   PHE B 301     -21.238   3.568  15.210  1.00 45.15 LIG 0.20  C 
ATOM     36 O    PHE B 301     -22.180   3.675  16.018  1.00 42.31 LIG-0.65  OA
ATOM     37 OXT  PHE B 301     -21.212   4.358  14.253  1.00 47.06 LIG-0.65  OA
ENDBRANCH 27 35
ENDBRANCH 24 27
ENDBRANCH 4 23
TORSDOF 12
ENDMDL
MODEL 15
USER: ADFR SOLUTION from run 169
USER: SCORE 14.545287 LL:  -2.957 LR: -11.631 RR:   0.000 FEB:  -8.051
USER: RMSD 6.321910
USER: SEED 168
USER: STATUS no improvement in best in 11 clusters for 5 generations
USER: GENES 14
USER: genes 0 Translation |==|  0.56442 0.67102 0.60914
USER: genes 1 Rotation |==|  0.16766 0.73095 0.73924 0.67024
USER: genes 2 Torsion [N]-C--CA-[N] |==|  0.99190
USER: genes 3 Torsion [C]-CA--CB-[CG] |==|  0.30017
USER: genes 4 Torsion [CA]-CB--CG-[CD2] |==|  0.19221
USER: genes 5 Torsion [C]-CA--N-[C] |==|  0.72779
USER: genes 6 Torsion [N]-C--CA-[N] |==|  0.83244
USER: genes 7 Torsion [C]-CA--CB-[CG] |==|  0.44417
USER: genes 8 Torsion [CA]-CB--CG-[OD2] |==|  0.20817
USER: genes 9 Torsion [N]-CA--C-[N] |==|  0.08459
USER: genes 10 Torsion [C]-N--CA-[CB] |==|  0.18088
USER: genes 11 Torsion [N]-CA--CB-[CG] |==|  0.09040
USER: genes 12 Torsion [CA]-CB--CG-[CD2] |==|  0.17599
USER: genes 13 Torsion [N]-CA--C-[O] |==|  0.59850
ROOT
ATOM      1  C   LEU B 299     -15.226   3.646  15.433  1.00 46.80 LIG 0.24  C 
ATOM      2 O    LEU B 299     -14.535   3.089  16.298  1.00 48.15 LIG-0.27  OA
ATOM      3  N   PRO B 300     -16.296   4.408  15.745  1.00 44.47 LIG-0.34  N 
ATOM      4  CA  PRO B 300     -16.716   4.579  17.145  1.00 41.25 LIG 0.18  C 
ATOM      5  CB  PRO B 300     -17.300   5.995  17.148  1.00 41.07 LIG 0.04  C 
ATOM      6  CG  PRO B 300     -17.903   6.138  15.759  1.00 41.88 LIG 0.02  C 
ATOM      7  CD  PRO B 300     -17.120   5.230  14.827  1.00 43.19 LIG 0.13  C 
ENDROOT
BRANCH 1 8
ATOM      8  CA  LEU B 299     -14.871   3.512  13.941  1.00 51.80 LIG 0.18  C 
BRANCH 8 9
ATOM      9  CB  LEU B 299     -13.427   3.936  13.668  1.00 51.70 LIG 0.04  C 
BRANCH 9 10
ATOM     10  CG  LEU B 299     -12.414   2.831  13.335  1.00 53.57 LIG-0.02  C 
ATOM     11  CD2 LEU B 299     -12.666   2.193  11.971  1.00 54.40 LIG 0.01  C 
ATOM     12  CD1 LEU B 299     -12.418   1.769  14.419  1.00 50.77 LIG 0.01  C 
ENDBRANCH 9 10
ENDBRANCH 8 9
BRANCH 8 13
ATOM     13  N   LEU B 299     -15.813   4.198  13.037  1.00 58.35 LIG-0.35  N 
ATOM     14  C   ASP B 298     -16.793   3.528  12.425  1.00 67.04 LIG 0.26  C 
ATOM     15 O    ASP B 298     -16.992   2.315  12.622  1.00 64.28 LIG-0.27  OA
ATOM     16 H    LEU B 299     -15.674   5.041  12.947  1.00 58.35 LIG 0.16  HD
BRANCH 14 17
ATOM     17  CA  ASP B 298     -17.700   4.320  11.442  1.00 70.29 LIG 0.41  C 
ATOM     18  N   ASP B 298     -18.442   5.458  12.068  1.00 66.44 LIG 0.61  N 
BRANCH 17 19
ATOM     19  CB  ASP B 298     -16.924   4.789  10.191  1.00 75.12 LIG 0.16  C 
BRANCH 19 20
ATOM     20  CG  ASP B 298     -17.837   5.125   9.003  1.00 83.78 LIG 0.17  C 
ATOM     21 OD2  ASP B 298     -18.498   6.188   9.009  1.00 86.97 LIG-0.65  OA
ATOM     22 OD1  ASP B 298     -17.893   4.316   8.051  1.00 89.47 LIG-0.65  OA
ENDBRANCH 19 20
ENDBRANCH 17 19
ENDBRANCH 14 17
ENDBRANCH 8 13
ENDBRANCH 1 8
BRANCH 4 23
ATOM     23  C   PRO B 300     -17.762   3.508  17.581  1.00 41.91 LIG 0.24  C 
ATOM     24  N   PHE B 301     -17.663   2.326  16.976  1.00 41.99 LIG-0.34  N 
ATOM     25 H    PHE B 301     -17.078   2.173  16.365  1.00 41.99 LIG 0.16  HD
ATOM     26 O    PRO B 300     -18.611   3.768  18.442  1.00 39.52 LIG-0.27  OA
BRANCH 24 27
ATOM     27  CA  PHE B 301     -18.508   1.154  17.259  1.00 41.99 LIG 0.19  C 
BRANCH 27 28
ATOM     28  CB  PHE B 301     -19.981   1.415  16.877  1.00 39.59 LIG 0.07  C 
BRANCH 28 29
ATOM     29  CG  PHE B 301     -20.165   2.338  15.680  1.00 41.19 LIG-0.06  A 
ATOM     30  CD1 PHE B 301     -20.819   3.554  15.829  1.00 38.91 LIG 0.01  A 
ATOM     31  CE1 PHE B 301     -21.003   4.412  14.741  1.00 39.99 LIG 0.00  A 
ATOM     32  CZ  PHE B 301     -20.555   4.043  13.482  1.00 37.57 LIG 0.00  A 
ATOM     33  CE2 PHE B 301     -19.900   2.825  13.317  1.00 41.60 LIG 0.00  A 
ATOM     34  CD2 PHE B 301     -19.701   1.983  14.411  1.00 40.14 LIG 0.01  A 
ENDBRANCH 28 29
ENDBRANCH 27 28
BRANCH 27 35
ATOM     35  C   PHE B 301     -17.940  -0.054  16.503  1.00 45.15 LIG 0.20  C 
ATOM     36 O    PHE B 301     -18.642  -0.950  15.998  1.00 42.31 LIG-0.65  OA
ATOM     37 OXT  PHE B 301     -16.710  -0.139  16.359  1.00 47.06 LIG-0.65  OA
ENDBRANCH 27 35
ENDBRANCH 24 27
ENDBRANCH 4 23
TORSDOF 12
ENDMDL
MODEL 16
USER: ADFR SOLUTION from run 193
USER: SCORE 14.829200 LL:  -3.700 LR: -11.603 RR:   0.000 FEB:  -8.024
USER: RMSD 6.894047
USER: SEED 192
USER: STATUS no improvement in best in 14 clusters for 5 generations
USER: GENES 14
USER: genes 0 Translation |==|  0.37334 0.60435 0.65281
USER: genes 1 Rotation |==|  0.81139 0.81512 0.26892 0.51835
USER: genes 2 Torsion [N]-C--CA-[N] |==|  0.87159
USER: genes 3 Torsion [C]-CA--CB-[CG] |==|  0.38468
USER: genes 4 Torsion [CA]-CB--CG-[CD2] |==|  0.98145
USER: genes 5 Torsion [C]-CA--N-[C] |==|  0.64250
USER: genes 6 Torsion [N]-C--CA-[N] |==|  0.96282
USER: genes 7 Torsion [C]-CA--CB-[CG] |==|  0.48646
USER: genes 8 Torsion [CA]-CB--CG-[OD2] |==|  0.53395
USER: genes 9 Torsion [N]-CA--C-[N] |==|  0.81918
USER: genes 10 Torsion [C]-N--CA-[CB] |==|  0.88226
USER: genes 11 Torsion [N]-CA--CB-[CG] |==|  0.85357
USER: genes 12 Torsion [CA]-CB--CG-[CD2] |==|  0.28899
USER: genes 13 Torsion [N]-CA--C-[O] |==|  0.65229
ROOT
ATOM      1  C   LEU B 299     -18.522   2.446  16.056  1.00 46.80 LIG 0.24  C 
ATOM      2 O    LEU B 299     -18.253   2.726  17.233  1.00 48.15 LIG-0.27  OA
ATOM      3  N   PRO B 300     -18.264   1.232  15.524  1.00 44.47 LIG-0.34  N 
ATOM      4  CA  PRO B 300     -17.606   0.186  16.325  1.00 41.25 LIG 0.18  C 
ATOM      5  CB  PRO B 300     -18.217  -1.100  15.758  1.00 41.07 LIG 0.04  C 
ATOM      6  CG  PRO B 300     -18.447  -0.773  14.291  1.00 41.88 LIG 0.02  C 
ATOM      7  CD  PRO B 300     -18.652   0.728  14.186  1.00 43.19 LIG 0.13  C 
ENDROOT
BRANCH 1 8
ATOM      8  CA  LEU B 299     -19.198   3.483  15.139  1.00 51.80 LIG 0.18  C 
BRANCH 8 9
ATOM      9  CB  LEU B 299     -20.709   3.259  15.059  1.00 51.70 LIG 0.04  C 
BRANCH 9 10
ATOM     10  CG  LEU B 299     -21.613   4.500  15.098  1.00 53.57 LIG-0.02  C 
ATOM     11  CD2 LEU B 299     -20.837   5.785  15.378  1.00 54.40 LIG 0.01  C 
ATOM     12  CD1 LEU B 299     -22.713   4.318  16.128  1.00 50.77 LIG 0.01  C 
ENDBRANCH 9 10
ENDBRANCH 8 9
BRANCH 8 13
ATOM     13  N   LEU B 299     -18.596   3.578  13.797  1.00 58.35 LIG-0.35  N 
ATOM     14  C   ASP B 298     -18.226   4.757  13.288  1.00 67.04 LIG 0.26  C 
ATOM     15 O    ASP B 298     -18.322   5.817  13.933  1.00 64.28 LIG-0.27  OA
ATOM     16 H    LEU B 299     -18.509   2.827  13.388  1.00 58.35 LIG 0.16  HD
BRANCH 14 17
ATOM     17  CA  ASP B 298     -17.658   4.770  11.841  1.00 70.29 LIG 0.41  C 
ATOM     18  N   ASP B 298     -17.303   3.418  11.306  1.00 66.44 LIG 0.61  N 
BRANCH 17 19
ATOM     19  CB  ASP B 298     -18.587   5.524  10.864  1.00 75.12 LIG 0.16  C 
BRANCH 19 20
ATOM     20  CG  ASP B 298     -17.999   5.657   9.452  1.00 83.78 LIG 0.17  C 
ATOM     21 OD2  ASP B 298     -18.532   6.435   8.628  1.00 86.97 LIG-0.65  OA
ATOM     22 OD1  ASP B 298     -16.990   4.977   9.163  1.00 89.47 LIG-0.65  OA
ENDBRANCH 19 20
ENDBRANCH 17 19
ENDBRANCH 14 17
ENDBRANCH 8 13
ENDBRANCH 1 8
BRANCH 4 23
ATOM     23  C   PRO B 300     -16.055   0.219  16.175  1.00 41.91 LIG 0.24  C 
ATOM     24  N   PHE B 301     -15.586  -0.062  14.961  1.00 41.99 LIG-0.34  N 
ATOM     25 H    PHE B 301     -16.105  -0.277  14.311  1.00 41.99 LIG 0.16  HD
ATOM     26 O    PRO B 300     -15.334   0.502  17.140  1.00 39.52 LIG-0.27  OA
BRANCH 24 27
ATOM     27  CA  PHE B 301     -14.165  -0.047  14.575  1.00 41.99 LIG 0.19  C 
BRANCH 27 28
ATOM     28  CB  PHE B 301     -13.433   1.176  15.168  1.00 39.59 LIG 0.07  C 
BRANCH 28 29
ATOM     29  CG  PHE B 301     -14.100   2.512  14.874  1.00 41.19 LIG-0.06  A 
ATOM     30  CD1 PHE B 301     -13.975   3.096  13.620  1.00 38.91 LIG 0.01  A 
ATOM     31  CE1 PHE B 301     -14.576   4.324  13.333  1.00 39.99 LIG 0.00  A 
ATOM     32  CZ  PHE B 301     -15.287   4.996  14.315  1.00 37.57 LIG 0.00  A 
ATOM     33  CE2 PHE B 301     -15.419   4.425  15.578  1.00 41.60 LIG 0.00  A 
ATOM     34  CD2 PHE B 301     -14.834   3.188  15.852  1.00 40.14 LIG 0.01  A 
ENDBRANCH 28 29
ENDBRANCH 27 28
BRANCH 27 35
ATOM     35  C   PHE B 301     -13.519  -1.361  15.030  1.00 45.15 LIG 0.20  C 
ATOM     36 O    PHE B 301     -12.507  -1.424  15.753  1.00 42.31 LIG-0.65  OA
ATOM     37 OXT  PHE B 301     -14.042  -2.431  14.683  1.00 47.06 LIG-0.65  OA
ENDBRANCH 27 35
ENDBRANCH 24 27
ENDBRANCH 4 23
TORSDOF 12
ENDMDL
MODEL 17
USER: ADFR SOLUTION from run 108
USER: SCORE 14.790263 LL:  -3.460 LR: -11.584 RR:   0.000 FEB:  -8.004
USER: RMSD 7.024599
USER: SEED 107
USER: STATUS no improvement in best in 12 clusters for 5 generations
USER: GENES 14
USER: genes 0 Translation |==|  0.50353 0.66395 0.63399
USER: genes 1 Rotation |==|  0.19969 0.38363 0.85064 0.65273
USER: genes 2 Torsion [N]-C--CA-[N] |==|  0.88337
USER: genes 3 Torsion [C]-CA--CB-[CG] |==|  0.05155
USER: genes 4 Torsion [CA]-CB--CG-[CD2] |==|  0.77602
USER: genes 5 Torsion [C]-CA--N-[C] |==|  0.74209
USER: genes 6 Torsion [N]-C--CA-[N] |==|  0.86658
USER: genes 7 Torsion [C]-CA--CB-[CG] |==|  0.40881
USER: genes 8 Torsion [CA]-CB--CG-[OD2] |==|  0.00407
USER: genes 9 Torsion [N]-CA--C-[N] |==|  0.14738
USER: genes 10 Torsion [C]-N--CA-[CB] |==|  0.43551
USER: genes 11 Torsion [N]-CA--CB-[CG] |==|  0.77664
USER: genes 12 Torsion [CA]-CB--CG-[CD2] |==|  0.46749
USER: genes 13 Torsion [N]-CA--C-[O] |==|  0.34713
ROOT
ATOM      1  C   LEU B 299     -16.276   3.519  15.787  1.00 46.80 LIG 0.24  C 
ATOM      2 O    LEU B 299     -15.179   3.397  16.351  1.00 48.15 LIG-0.27  OA
ATOM      3  N   PRO B 300     -17.243   2.581  15.878  1.00 44.47 LIG-0.34  N 
ATOM      4  CA  PRO B 300     -17.014   1.337  16.631  1.00 41.25 LIG 0.18  C 
ATOM      5  CB  PRO B 300     -18.412   1.011  17.168  1.00 41.07 LIG 0.04  C 
ATOM      6  CG  PRO B 300     -19.344   1.522  16.080  1.00 41.88 LIG 0.02  C 
ATOM      7  CD  PRO B 300     -18.632   2.660  15.370  1.00 43.19 LIG 0.13  C 
ENDROOT
BRANCH 1 8
ATOM      8  CA  LEU B 299     -16.599   4.781  14.966  1.00 51.80 LIG 0.18  C 
BRANCH 8 9
ATOM      9  CB  LEU B 299     -17.328   5.828  15.810  1.00 51.70 LIG 0.04  C 
BRANCH 9 10
ATOM     10  CG  LEU B 299     -17.237   5.696  17.337  1.00 53.57 LIG-0.02  C 
ATOM     11  CD2 LEU B 299     -18.212   4.664  17.899  1.00 54.40 LIG 0.01  C 
ATOM     12  CD1 LEU B 299     -17.463   7.044  17.997  1.00 50.77 LIG 0.01  C 
ENDBRANCH 9 10
ENDBRANCH 8 9
BRANCH 8 13
ATOM     13  N   LEU B 299     -17.317   4.508  13.707  1.00 58.35 LIG-0.35  N 
ATOM     14  C   ASP B 298     -16.657   4.335  12.559  1.00 67.04 LIG 0.26  C 
ATOM     15 O    ASP B 298     -15.413   4.344  12.501  1.00 64.28 LIG-0.27  OA
ATOM     16 H    LEU B 299     -18.173   4.474  13.783  1.00 58.35 LIG 0.16  HD
BRANCH 14 17
ATOM     17  CA  ASP B 298     -17.499   4.116  11.271  1.00 70.29 LIG 0.41  C 
ATOM     18  N   ASP B 298     -18.583   3.094  11.410  1.00 66.44 LIG 0.61  N 
BRANCH 17 19
ATOM     19  CB  ASP B 298     -18.060   5.443  10.715  1.00 75.12 LIG 0.16  C 
BRANCH 19 20
ATOM     20  CG  ASP B 298     -18.169   5.459   9.183  1.00 83.78 LIG 0.17  C 
ATOM     21 OD2  ASP B 298     -17.843   4.444   8.527  1.00 86.97 LIG-0.65  OA
ATOM     22 OD1  ASP B 298     -18.587   6.499   8.630  1.00 89.47 LIG-0.65  OA
ENDBRANCH 19 20
ENDBRANCH 17 19
ENDBRANCH 14 17
ENDBRANCH 8 13
ENDBRANCH 1 8
BRANCH 4 23
ATOM     23  C   PRO B 300     -16.448   0.198  15.728  1.00 41.91 LIG 0.24  C 
ATOM     24  N   PHE B 301     -15.360   0.506  15.026  1.00 41.99 LIG-0.34  N 
ATOM     25 H    PHE B 301     -15.010   1.291  15.048  1.00 41.99 LIG 0.16  HD
ATOM     26 O    PRO B 300     -16.994  -0.912  15.696  1.00 39.52 LIG-0.27  OA
BRANCH 24 27
ATOM     27  CA  PHE B 301     -14.627  -0.420  14.147  1.00 41.99 LIG 0.19  C 
BRANCH 27 28
ATOM     28  CB  PHE B 301     -13.814   0.343  13.078  1.00 39.59 LIG 0.07  C 
BRANCH 28 29
ATOM     29  CG  PHE B 301     -14.631   0.810  11.882  1.00 41.19 LIG-0.06  A 
ATOM     30  CD1 PHE B 301     -15.917   0.328  11.682  1.00 38.91 LIG 0.01  A 
ATOM     31  CE1 PHE B 301     -16.681   0.740  10.587  1.00 39.99 LIG 0.00  A 
ATOM     32  CZ  PHE B 301     -16.146   1.623   9.661  1.00 37.57 LIG 0.00  A 
ATOM     33  CE2 PHE B 301     -14.856   2.112   9.846  1.00 41.60 LIG 0.00  A 
ATOM     34  CD2 PHE B 301     -14.107   1.713  10.953  1.00 40.14 LIG 0.01  A 
ENDBRANCH 28 29
ENDBRANCH 27 28
BRANCH 27 35
ATOM     35  C   PHE B 301     -13.722  -1.305  15.012  1.00 45.15 LIG 0.20  C 
ATOM     36 O    PHE B 301     -13.743  -2.550  14.993  1.00 42.31 LIG-0.65  OA
ATOM     37 OXT  PHE B 301     -12.897  -0.758  15.762  1.00 47.06 LIG-0.65  OA
ENDBRANCH 27 35
ENDBRANCH 24 27
ENDBRANCH 4 23
TORSDOF 12
ENDMDL
MODEL 18
USER: ADFR SOLUTION from run 25
USER: SCORE 15.408324 LL:  -4.182 LR: -11.528 RR:   0.000 FEB:  -7.949
USER: RMSD 4.696843
USER: SEED 24
USER: STATUS no improvement in best in 4 clusters for 5 generations
USER: GENES 14
USER: genes 0 Translation |==|  0.31962 0.59567 0.54843
USER: genes 1 Rotation |==|  0.38581 0.36436 0.26515 0.90424
USER: genes 2 Torsion [N]-C--CA-[N] |==|  0.49425
USER: genes 3 Torsion [C]-CA--CB-[CG] |==|  0.86100
USER: genes 4 Torsion [CA]-CB--CG-[CD2] |==|  0.67054
USER: genes 5 Torsion [C]-CA--N-[C] |==|  0.69278
USER: genes 6 Torsion [N]-C--CA-[N] |==|  0.91361
USER: genes 7 Torsion [C]-CA--CB-[CG] |==|  0.75693
USER: genes 8 Torsion [CA]-CB--CG-[OD2] |==|  0.04157
USER: genes 9 Torsion [N]-CA--C-[N] |==|  0.37627
USER: genes 10 Torsion [C]-N--CA-[CB] |==|  0.20040
USER: genes 11 Torsion [N]-CA--CB-[CG] |==|  0.09386
USER: genes 12 Torsion [CA]-CB--CG-[CD2] |==|  0.22972
USER: genes 13 Torsion [N]-CA--C-[O] |==|  0.23226
ROOT
ATOM      1  C   LEU B 299     -19.449   2.290  14.568  1.00 46.80 LIG 0.24  C 
ATOM      2 O    LEU B 299     -19.880   1.830  13.501  1.00 48.15 LIG-0.27  OA
ATOM      3  N   PRO B 300     -19.263   3.614  14.761  1.00 44.47 LIG-0.34  N 
ATOM      4  CA  PRO B 300     -19.535   4.576  13.681  1.00 41.25 LIG 0.18  C 
ATOM      5  CB  PRO B 300     -20.000   5.817  14.450  1.00 41.07 LIG 0.04  C 
ATOM      6  CG  PRO B 300     -19.200   5.761  15.742  1.00 41.88 LIG 0.02  C 
ATOM      7  CD  PRO B 300     -18.885   4.301  16.018  1.00 43.19 LIG 0.13  C 
ENDROOT
BRANCH 1 8
ATOM      8  CA  LEU B 299     -19.124   1.357  15.749  1.00 51.80 LIG 0.18  C 
BRANCH 8 9
ATOM      9  CB  LEU B 299     -17.695   1.567  16.253  1.00 51.70 LIG 0.04  C 
BRANCH 9 10
ATOM     10  CG  LEU B 299     -16.567   1.556  15.210  1.00 53.57 LIG-0.02  C 
ATOM     11  CD2 LEU B 299     -15.555   0.438  15.449  1.00 54.40 LIG 0.01  C 
ATOM     12  CD1 LEU B 299     -15.864   2.900  15.180  1.00 50.77 LIG 0.01  C 
ENDBRANCH 9 10
ENDBRANCH 8 9
BRANCH 8 13
ATOM     13  N   LEU B 299     -19.396  -0.067  15.480  1.00 58.35 LIG-0.35  N 
ATOM     14  C   ASP B 298     -20.394  -0.707  16.094  1.00 67.04 LIG 0.26  C 
ATOM     15 O    ASP B 298     -21.170  -0.130  16.878  1.00 64.28 LIG-0.27  OA
ATOM     16 H    LEU B 299     -18.866  -0.431  14.909  1.00 58.35 LIG 0.16  HD
BRANCH 14 17
ATOM     17  CA  ASP B 298     -20.568  -2.223  15.797  1.00 70.29 LIG 0.41  C 
ATOM     18  N   ASP B 298     -20.149  -2.632  14.420  1.00 66.44 LIG 0.61  N 
BRANCH 17 19
ATOM     19  CB  ASP B 298     -19.884  -3.103  16.866  1.00 75.12 LIG 0.16  C 
BRANCH 19 20
ATOM     20  CG  ASP B 298     -18.406  -3.386  16.562  1.00 83.78 LIG 0.17  C 
ATOM     21 OD2  ASP B 298     -17.807  -2.701  15.701  1.00 86.97 LIG-0.65  OA
ATOM     22 OD1  ASP B 298     -17.836  -4.302  17.193  1.00 89.47 LIG-0.65  OA
ENDBRANCH 19 20
ENDBRANCH 17 19
ENDBRANCH 14 17
ENDBRANCH 8 13
ENDBRANCH 1 8
BRANCH 4 23
ATOM     23  C   PRO B 300     -18.271   4.858  12.813  1.00 41.91 LIG 0.24  C 
ATOM     24  N   PHE B 301     -18.466   4.869  11.496  1.00 41.99 LIG-0.34  N 
ATOM     25 H    PHE B 301     -19.234   4.702  11.147  1.00 41.99 LIG 0.16  HD
ATOM     26 O    PRO B 300     -17.173   5.064  13.345  1.00 39.52 LIG-0.27  OA
BRANCH 24 27
ATOM     27  CA  PHE B 301     -17.434   5.158  10.487  1.00 41.99 LIG 0.19  C 
BRANCH 27 28
ATOM     28  CB  PHE B 301     -16.426   3.996  10.362  1.00 39.59 LIG 0.07  C 
BRANCH 28 29
ATOM     29  CG  PHE B 301     -17.029   2.615  10.580  1.00 41.19 LIG-0.06  A 
ATOM     30  CD1 PHE B 301     -16.917   1.990  11.815  1.00 38.91 LIG 0.01  A 
ATOM     31  CE1 PHE B 301     -17.459   0.721  12.033  1.00 39.99 LIG 0.00  A 
ATOM     32  CZ  PHE B 301     -18.095   0.051  10.999  1.00 37.57 LIG 0.00  A 
ATOM     33  CE2 PHE B 301     -18.212   0.663   9.755  1.00 41.60 LIG 0.00  A 
ATOM     34  CD2 PHE B 301     -17.688   1.939   9.550  1.00 40.14 LIG 0.01  A 
ENDBRANCH 28 29
ENDBRANCH 27 28
BRANCH 27 35
ATOM     35  C   PHE B 301     -18.125   5.445   9.148  1.00 45.15 LIG 0.20  C 
ATOM     36 O    PHE B 301     -18.587   6.556   8.828  1.00 42.31 LIG-0.65  OA
ATOM     37 OXT  PHE B 301     -18.212   4.527   8.316  1.00 47.06 LIG-0.65  OA
ENDBRANCH 27 35
ENDBRANCH 24 27
ENDBRANCH 4 23
TORSDOF 12
ENDMDL
MODEL 19
USER: ADFR SOLUTION from run 2
USER: SCORE 14.733848 LL:  -3.274 LR: -11.520 RR:   0.000 FEB:  -7.940
USER: RMSD 5.610413
USER: SEED 882140
USER: STATUS no improvement in best in 19 clusters for 5 generations
USER: GENES 14
USER: genes 0 Translation |==|  0.54549 0.65119 0.57450
USER: genes 1 Rotation |==|  0.21755 0.74363 0.70356 0.76350
USER: genes 2 Torsion [N]-C--CA-[N] |==|  0.45682
USER: genes 3 Torsion [C]-CA--CB-[CG] |==|  0.32004
USER: genes 4 Torsion [CA]-CB--CG-[CD2] |==|  0.65385
USER: genes 5 Torsion [C]-CA--N-[C] |==|  0.77305
USER: genes 6 Torsion [N]-C--CA-[N] |==|  0.51202
USER: genes 7 Torsion [C]-CA--CB-[CG] |==|  0.79897
USER: genes 8 Torsion [CA]-CB--CG-[OD2] |==|  0.95871
USER: genes 9 Torsion [N]-CA--C-[N] |==|  0.98828
USER: genes 10 Torsion [C]-N--CA-[CB] |==|  0.90229
USER: genes 11 Torsion [N]-CA--CB-[CG] |==|  0.73783
USER: genes 12 Torsion [CA]-CB--CG-[CD2] |==|  0.14414
USER: genes 13 Torsion [N]-CA--C-[O] |==|  0.16273
ROOT
ATOM      1  C   LEU B 299     -15.552   3.289  14.940  1.00 46.80 LIG 0.24  C 
ATOM      2 O    LEU B 299     -15.260   2.365  15.711  1.00 48.15 LIG-0.27  OA
ATOM      3  N   PRO B 300     -16.354   4.311  15.309  1.00 44.47 LIG-0.34  N 
ATOM      4  CA  PRO B 300     -16.953   4.349  16.653  1.00 41.25 LIG 0.18  C 
ATOM      5  CB  PRO B 300     -17.032   5.851  16.941  1.00 41.07 LIG 0.04  C 
ATOM      6  CG  PRO B 300     -17.279   6.468  15.573  1.00 41.88 LIG 0.02  C 
ATOM      7  CD  PRO B 300     -16.673   5.536  14.538  1.00 43.19 LIG 0.13  C 
ENDROOT
BRANCH 1 8
ATOM      8  CA  LEU B 299     -14.983   3.327  13.509  1.00 51.80 LIG 0.18  C 
BRANCH 8 9
ATOM      9  CB  LEU B 299     -16.082   3.123  12.464  1.00 51.70 LIG 0.04  C 
BRANCH 9 10
ATOM     10  CG  LEU B 299     -16.381   4.292  11.514  1.00 53.57 LIG-0.02  C 
ATOM     11  CD2 LEU B 299     -17.849   4.710  11.539  1.00 54.40 LIG 0.01  C 
ATOM     12  CD1 LEU B 299     -15.960   3.942  10.099  1.00 50.77 LIG 0.01  C 
ENDBRANCH 9 10
ENDBRANCH 8 9
BRANCH 8 13
ATOM     13  N   LEU B 299     -13.854   2.404  13.290  1.00 58.35 LIG-0.35  N 
ATOM     14  C   ASP B 298     -12.612   2.735  13.653  1.00 67.04 LIG 0.26  C 
ATOM     15 O    ASP B 298     -12.353   3.805  14.234  1.00 64.28 LIG-0.27  OA
ATOM     16 H    LEU B 299     -14.067   1.659  12.918  1.00 58.35 LIG 0.16  HD
BRANCH 14 17
ATOM     17  CA  ASP B 298     -11.474   1.728  13.326  1.00 70.29 LIG 0.41  C 
ATOM     18  N   ASP B 298     -10.131   2.123  13.853  1.00 66.44 LIG 0.61  N 
BRANCH 17 19
ATOM     19  CB  ASP B 298     -11.835   0.289  13.757  1.00 75.12 LIG 0.16  C 
BRANCH 19 20
ATOM     20  CG  ASP B 298     -11.808   0.090  15.280  1.00 83.78 LIG 0.17  C 
ATOM     21 OD2  ASP B 298     -11.252   0.943  16.008  1.00 86.97 LIG-0.65  OA
ATOM     22 OD1  ASP B 298     -12.350  -0.933  15.753  1.00 89.47 LIG-0.65  OA
ENDBRANCH 19 20
ENDBRANCH 17 19
ENDBRANCH 14 17
ENDBRANCH 8 13
ENDBRANCH 1 8
BRANCH 4 23
ATOM     23  C   PRO B 300     -18.354   3.666  16.692  1.00 41.91 LIG 0.24  C 
ATOM     24  N   PHE B 301     -18.823   3.244  15.519  1.00 41.99 LIG-0.34  N 
ATOM     25 H    PHE B 301     -18.393   3.367  14.785  1.00 41.99 LIG 0.16  HD
ATOM     26 O    PRO B 300     -18.962   3.531  17.761  1.00 39.52 LIG-0.27  OA
BRANCH 24 27
ATOM     27  CA  PHE B 301     -20.096   2.533  15.320  1.00 41.99 LIG 0.19  C 
BRANCH 27 28
ATOM     28  CB  PHE B 301     -20.408   1.591  16.503  1.00 39.59 LIG 0.07  C 
BRANCH 28 29
ATOM     29  CG  PHE B 301     -19.952   0.153  16.298  1.00 41.19 LIG-0.06  A 
ATOM     30  CD1 PHE B 301     -20.837  -0.897  16.503  1.00 38.91 LIG 0.01  A 
ATOM     31  CE1 PHE B 301     -20.435  -2.224  16.325  1.00 39.99 LIG 0.00  A 
ATOM     32  CZ  PHE B 301     -19.127  -2.512  15.968  1.00 37.57 LIG 0.00  A 
ATOM     33  CE2 PHE B 301     -18.228  -1.469  15.763  1.00 41.60 LIG 0.00  A 
ATOM     34  CD2 PHE B 301     -18.640  -0.146  15.921  1.00 40.14 LIG 0.01  A 
ENDBRANCH 28 29
ENDBRANCH 27 28
BRANCH 27 35
ATOM     35  C   PHE B 301     -21.210   3.568  15.121  1.00 45.15 LIG 0.20  C 
ATOM     36 O    PHE B 301     -21.212   4.422  14.215  1.00 42.31 LIG-0.65  OA
ATOM     37 OXT  PHE B 301     -22.185   3.547  15.890  1.00 47.06 LIG-0.65  OA
ENDBRANCH 27 35
ENDBRANCH 24 27
ENDBRANCH 4 23
TORSDOF 12
ENDMDL
MODEL 20
USER: ADFR SOLUTION from run 76
USER: SCORE 15.638936 LL:  -4.340 LR: -11.486 RR:   0.000 FEB:  -7.906
USER: RMSD 5.253972
USER: SEED 75
USER: STATUS no improvement in best in 8 clusters for 5 generations
USER: GENES 14
USER: genes 0 Translation |==|  0.45606 0.55905 0.44020
USER: genes 1 Rotation |==|  0.62186 0.74892 0.62369 0.89736
USER: genes 2 Torsion [N]-C--CA-[N] |==|  0.40947
USER: genes 3 Torsion [C]-CA--CB-[CG] |==|  0.79603
USER: genes 4 Torsion [CA]-CB--CG-[CD2] |==|  0.61770
USER: genes 5 Torsion [C]-CA--N-[C] |==|  0.58798
USER: genes 6 Torsion [N]-C--CA-[N] |==|  0.82180
USER: genes 7 Torsion [C]-CA--CB-[CG] |==|  0.09938
USER: genes 8 Torsion [CA]-CB--CG-[OD2] |==|  0.59522
USER: genes 9 Torsion [N]-CA--C-[N] |==|  0.08421
USER: genes 10 Torsion [C]-N--CA-[CB] |==|  0.32287
USER: genes 11 Torsion [N]-CA--CB-[CG] |==|  0.93804
USER: genes 12 Torsion [CA]-CB--CG-[CD2] |==|  0.80692
USER: genes 13 Torsion [N]-CA--C-[O] |==|  0.54079
ROOT
ATOM      1  C   LEU B 299     -17.095   1.631  13.026  1.00 46.80 LIG 0.24  C 
ATOM      2 O    LEU B 299     -18.149   1.045  12.738  1.00 48.15 LIG-0.27  OA
ATOM      3  N   PRO B 300     -16.604   1.657  14.283  1.00 44.47 LIG-0.34  N 
ATOM      4  CA  PRO B 300     -17.332   1.013  15.389  1.00 41.25 LIG 0.18  C 
ATOM      5  CB  PRO B 300     -16.198   0.553  16.311  1.00 41.07 LIG 0.04  C 
ATOM      6  CG  PRO B 300     -15.130   1.620  16.128  1.00 41.88 LIG 0.02  C 
ATOM      7  CD  PRO B 300     -15.301   2.201  14.735  1.00 43.19 LIG 0.13  C 
ENDROOT
BRANCH 1 8
ATOM      8  CA  LEU B 299     -16.273   2.345  11.937  1.00 51.80 LIG 0.18  C 
BRANCH 8 9
ATOM      9  CB  LEU B 299     -16.606   3.836  11.871  1.00 51.70 LIG 0.04  C 
BRANCH 9 10
ATOM     10  CG  LEU B 299     -17.956   4.235  11.257  1.00 53.57 LIG-0.02  C 
ATOM     11  CD2 LEU B 299     -17.848   5.443  10.331  1.00 54.40 LIG 0.01  C 
ATOM     12  CD1 LEU B 299     -18.974   4.502  12.351  1.00 50.77 LIG 0.01  C 
ENDBRANCH 9 10
ENDBRANCH 8 9
BRANCH 8 13
ATOM     13  N   LEU B 299     -16.364   1.713  10.608  1.00 58.35 LIG-0.35  N 
ATOM     14  C   ASP B 298     -15.338   1.751   9.753  1.00 67.04 LIG 0.26  C 
ATOM     15 O    ASP B 298     -14.246   2.272  10.050  1.00 64.28 LIG-0.27  OA
ATOM     16 H    LEU B 299     -17.116   1.332  10.443  1.00 58.35 LIG 0.16  HD
BRANCH 14 17
ATOM     17  CA  ASP B 298     -15.545   1.114   8.351  1.00 70.29 LIG 0.41  C 
ATOM     18  N   ASP B 298     -15.785  -0.362   8.374  1.00 66.44 LIG 0.61  N 
BRANCH 17 19
ATOM     19  CB  ASP B 298     -16.645   1.840   7.544  1.00 75.12 LIG 0.16  C 
BRANCH 19 20
ATOM     20  CG  ASP B 298     -16.672   3.356   7.787  1.00 83.78 LIG 0.17  C 
ATOM     21 OD2  ASP B 298     -17.765   3.967   7.776  1.00 86.97 LIG-0.65  OA
ATOM     22 OD1  ASP B 298     -15.587   3.943   7.991  1.00 89.47 LIG-0.65  OA
ENDBRANCH 19 20
ENDBRANCH 17 19
ENDBRANCH 14 17
ENDBRANCH 8 13
ENDBRANCH 1 8
BRANCH 4 23
ATOM     23  C   PRO B 300     -18.311   1.996  16.100  1.00 41.91 LIG 0.24  C 
ATOM     24  N   PHE B 301     -18.825   2.955  15.333  1.00 41.99 LIG-0.34  N 
ATOM     25 H    PHE B 301     -18.607   3.043  14.506  1.00 41.99 LIG 0.16  HD
ATOM     26 O    PRO B 300     -18.579   1.861  17.300  1.00 39.52 LIG-0.27  OA
BRANCH 24 27
ATOM     27  CA  PHE B 301     -19.803   3.963  15.774  1.00 41.99 LIG 0.19  C 
BRANCH 27 28
ATOM     28  CB  PHE B 301     -19.216   5.389  15.697  1.00 39.59 LIG 0.07  C 
BRANCH 28 29
ATOM     29  CG  PHE B 301     -17.695   5.445  15.722  1.00 41.19 LIG-0.06  A 
ATOM     30  CD1 PHE B 301     -16.989   5.802  14.581  1.00 38.91 LIG 0.01  A 
ATOM     31  CE1 PHE B 301     -15.593   5.854  14.583  1.00 39.99 LIG 0.00  A 
ATOM     32  CZ  PHE B 301     -14.887   5.515  15.727  1.00 37.57 LIG 0.00  A 
ATOM     33  CE2 PHE B 301     -15.581   5.151  16.878  1.00 41.60 LIG 0.00  A 
ATOM     34  CD2 PHE B 301     -16.975   5.123  16.876  1.00 40.14 LIG 0.01  A 
ENDBRANCH 28 29
ENDBRANCH 27 28
BRANCH 27 35
ATOM     35  C   PHE B 301     -21.065   3.831  14.913  1.00 45.15 LIG 0.20  C 
ATOM     36 O    PHE B 301     -21.961   4.694  14.856  1.00 42.31 LIG-0.65  OA
ATOM     37 OXT  PHE B 301     -21.200   2.818  14.208  1.00 47.06 LIG-0.65  OA
ENDBRANCH 27 35
ENDBRANCH 24 27
ENDBRANCH 4 23
TORSDOF 12
ENDMDL
MODEL 21
USER: ADFR SOLUTION from run 140
USER: SCORE 13.545884 LL:  -2.684 LR: -11.479 RR:   0.000 FEB:  -7.899
USER: RMSD 6.290369
USER: SEED 139
USER: STATUS no improvement in best in 12 clusters for 5 generations
USER: GENES 14
USER: genes 0 Translation |==|  0.23424 0.37891 0.66357
USER: genes 1 Rotation |==|  0.39124 0.87485 0.30498 0.74419
USER: genes 2 Torsion [N]-C--CA-[N] |==|  0.82389
USER: genes 3 Torsion [C]-CA--CB-[CG] |==|  0.10072
USER: genes 4 Torsion [CA]-CB--CG-[CD2] |==|  0.59672
USER: genes 5 Torsion [C]-CA--N-[C] |==|  0.60983
USER: genes 6 Torsion [N]-C--CA-[N] |==|  0.50358
USER: genes 7 Torsion [C]-CA--CB-[CG] |==|  0.76127
USER: genes 8 Torsion [CA]-CB--CG-[OD2] |==|  0.62624
USER: genes 9 Torsion [N]-CA--C-[N] |==|  0.48935
USER: genes 10 Torsion [C]-N--CA-[CB] |==|  0.78395
USER: genes 11 Torsion [N]-CA--CB-[CG] |==|  0.78627
USER: genes 12 Torsion [CA]-CB--CG-[CD2] |==|  0.42469
USER: genes 13 Torsion [N]-CA--C-[O] |==|  0.13276
ROOT
ATOM      1  C   LEU B 299     -20.921  -1.612  16.209  1.00 46.80 LIG 0.24  C 
ATOM      2 O    LEU B 299     -21.590  -1.113  17.126  1.00 48.15 LIG-0.27  OA
ATOM      3  N   PRO B 300     -19.769  -1.059  15.773  1.00 44.47 LIG-0.34  N 
ATOM      4  CA  PRO B 300     -19.272   0.199  16.353  1.00 41.25 LIG 0.18  C 
ATOM      5  CB  PRO B 300     -17.752   0.035  16.252  1.00 41.07 LIG 0.04  C 
ATOM      6  CG  PRO B 300     -17.562  -0.780  14.982  1.00 41.88 LIG 0.02  C 
ATOM      7  CD  PRO B 300     -18.814  -1.617  14.787  1.00 43.19 LIG 0.13  C 
ENDROOT
BRANCH 1 8
ATOM      8  CA  LEU B 299     -21.371  -2.920  15.533  1.00 51.80 LIG 0.18  C 
BRANCH 8 9
ATOM      9  CB  LEU B 299     -20.376  -4.053  15.786  1.00 51.70 LIG 0.04  C 
BRANCH 9 10
ATOM     10  CG  LEU B 299     -19.691  -4.101  17.160  1.00 53.57 LIG-0.02  C 
ATOM     11  CD2 LEU B 299     -18.252  -4.605  17.083  1.00 54.40 LIG 0.01  C 
ATOM     12  CD1 LEU B 299     -20.495  -4.958  18.120  1.00 50.77 LIG 0.01  C 
ENDBRANCH 9 10
ENDBRANCH 8 9
BRANCH 8 13
ATOM     13  N   LEU B 299     -21.673  -2.778  14.096  1.00 58.35 LIG-0.35  N 
ATOM     14  C   ASP B 298     -22.708  -3.414  13.542  1.00 67.04 LIG 0.26  C 
ATOM     15 O    ASP B 298     -23.495  -4.111  14.211  1.00 64.28 LIG-0.27  OA
ATOM     16 H    LEU B 299     -21.135  -2.264  13.666  1.00 58.35 LIG 0.16  HD
BRANCH 14 17
ATOM     17  CA  ASP B 298     -22.913  -3.257  12.009  1.00 70.29 LIG 0.41  C 
ATOM     18  N   ASP B 298     -24.111  -3.974  11.471  1.00 66.44 LIG 0.61  N 
BRANCH 17 19
ATOM     19  CB  ASP B 298     -22.917  -1.774  11.577  1.00 75.12 LIG 0.16  C 
BRANCH 19 20
ATOM     20  CG  ASP B 298     -24.298  -1.114  11.694  1.00 83.78 LIG 0.17  C 
ATOM     21 OD2  ASP B 298     -24.728  -0.403  10.757  1.00 86.97 LIG-0.65  OA
ATOM     22 OD1  ASP B 298     -24.962  -1.308  12.735  1.00 89.47 LIG-0.65  OA
ENDBRANCH 19 20
ENDBRANCH 17 19
ENDBRANCH 14 17
ENDBRANCH 8 13
ENDBRANCH 1 8
BRANCH 4 23
ATOM     23  C   PRO B 300     -19.784   1.449  15.574  1.00 41.91 LIG 0.24  C 
ATOM     24  N   PHE B 301     -19.441   2.629  16.087  1.00 41.99 LIG-0.34  N 
ATOM     25 H    PHE B 301     -18.992   2.696  16.816  1.00 41.99 LIG 0.16  HD
ATOM     26 O    PRO B 300     -20.457   1.318  14.544  1.00 39.52 LIG-0.27  OA
BRANCH 24 27
ATOM     27  CA  PHE B 301     -19.771   3.938  15.500  1.00 41.99 LIG 0.19  C 
BRANCH 27 28
ATOM     28  CB  PHE B 301     -18.845   4.272  14.311  1.00 39.59 LIG 0.07  C 
BRANCH 28 29
ATOM     29  CG  PHE B 301     -17.450   4.733  14.711  1.00 41.19 LIG-0.06  A 
ATOM     30  CD1 PHE B 301     -17.247   5.372  15.927  1.00 38.91 LIG 0.01  A 
ATOM     31  CE1 PHE B 301     -15.975   5.807  16.309  1.00 39.99 LIG 0.00  A 
ATOM     32  CZ  PHE B 301     -14.896   5.631  15.458  1.00 37.57 LIG 0.00  A 
ATOM     33  CE2 PHE B 301     -15.085   4.995  14.234  1.00 41.60 LIG 0.00  A 
ATOM     34  CD2 PHE B 301     -16.353   4.544  13.867  1.00 40.14 LIG 0.01  A 
ENDBRANCH 28 29
ENDBRANCH 27 28
BRANCH 27 35
ATOM     35  C   PHE B 301     -21.244   3.927  15.075  1.00 45.15 LIG 0.20  C 
ATOM     36 O    PHE B 301     -22.175   3.529  15.800  1.00 42.31 LIG-0.65  OA
ATOM     37 OXT  PHE B 301     -21.542   4.363  13.951  1.00 47.06 LIG-0.65  OA
ENDBRANCH 27 35
ENDBRANCH 24 27
ENDBRANCH 4 23
TORSDOF 12
ENDMDL
MODEL 22
USER: ADFR SOLUTION from run 110
USER: SCORE 14.882438 LL:  -3.578 LR: -11.443 RR:   0.000 FEB:  -7.863
USER: RMSD 4.990189
USER: SEED 109
USER: STATUS no improvement in best in 11 clusters for 5 generations
USER: GENES 14
USER: genes 0 Translation |==|  0.61672 0.60287 0.35308
USER: genes 1 Rotation |==|  0.66420 0.30556 0.71957 0.87016
USER: genes 2 Torsion [N]-C--CA-[N] |==|  0.34265
USER: genes 3 Torsion [C]-CA--CB-[CG] |==|  0.31689
USER: genes 4 Torsion [CA]-CB--CG-[CD2] |==|  0.84080
USER: genes 5 Torsion [C]-CA--N-[C] |==|  0.72222
USER: genes 6 Torsion [N]-C--CA-[N] |==|  0.66088
USER: genes 7 Torsion [C]-CA--CB-[CG] |==|  0.33940
USER: genes 8 Torsion [CA]-CB--CG-[OD2] |==|  0.49194
USER: genes 9 Torsion [N]-CA--C-[N] |==|  0.00723
USER: genes 10 Torsion [C]-N--CA-[CB] |==|  0.45398
USER: genes 11 Torsion [N]-CA--CB-[CG] |==|  0.79964
USER: genes 12 Torsion [CA]-CB--CG-[CD2] |==|  0.04955
USER: genes 13 Torsion [N]-CA--C-[O] |==|  0.92205
ROOT
ATOM      1  C   LEU B 299     -14.324   2.420  11.784  1.00 46.80 LIG 0.24  C 
ATOM      2 O    LEU B 299     -13.797   2.822  10.737  1.00 48.15 LIG-0.27  OA
ATOM      3  N   PRO B 300     -15.463   1.694  11.787  1.00 44.47 LIG-0.34  N 
ATOM      4  CA  PRO B 300     -16.157   1.380  10.528  1.00 41.25 LIG 0.18  C 
ATOM      5  CB  PRO B 300     -16.783   0.014  10.825  1.00 41.07 LIG 0.04  C 
ATOM      6  CG  PRO B 300     -17.105   0.080  12.310  1.00 41.88 LIG 0.02  C 
ATOM      7  CD  PRO B 300     -16.119   1.044  12.946  1.00 43.19 LIG 0.13  C 
ENDROOT
BRANCH 1 8
ATOM      8  CA  LEU B 299     -13.676   2.713  13.150  1.00 51.80 LIG 0.18  C 
BRANCH 8 9
ATOM      9  CB  LEU B 299     -13.812   4.189  13.529  1.00 51.70 LIG 0.04  C 
BRANCH 9 10
ATOM     10  CG  LEU B 299     -14.684   4.531  14.746  1.00 53.57 LIG-0.02  C 
ATOM     11  CD2 LEU B 299     -16.115   4.018  14.607  1.00 54.40 LIG 0.01  C 
ATOM     12  CD1 LEU B 299     -14.686   6.029  14.987  1.00 50.77 LIG 0.01  C 
ENDBRANCH 9 10
ENDBRANCH 8 9
BRANCH 8 13
ATOM     13  N   LEU B 299     -12.279   2.255  13.261  1.00 58.35 LIG-0.35  N 
ATOM     14  C   ASP B 298     -11.974   1.113  13.883  1.00 67.04 LIG 0.26  C 
ATOM     15 O    ASP B 298     -12.847   0.358  14.351  1.00 64.28 LIG-0.27  OA
ATOM     16 H    LEU B 299     -11.700   2.777  12.899  1.00 58.35 LIG 0.16  HD
BRANCH 14 17
ATOM     17  CA  ASP B 298     -10.470   0.740  14.007  1.00 70.29 LIG 0.41  C 
ATOM     18  N   ASP B 298     -10.110  -0.579  13.399  1.00 66.44 LIG 0.61  N 
BRANCH 17 19
ATOM     19  CB  ASP B 298      -9.552   1.862  13.475  1.00 75.12 LIG 0.16  C 
BRANCH 19 20
ATOM     20  CG  ASP B 298      -8.556   2.378  14.525  1.00 83.78 LIG 0.17  C 
ATOM     21 OD2  ASP B 298      -7.717   3.251  14.208  1.00 86.97 LIG-0.65  OA
ATOM     22 OD1  ASP B 298      -8.616   1.905  15.680  1.00 89.47 LIG-0.65  OA
ENDBRANCH 19 20
ENDBRANCH 17 19
ENDBRANCH 14 17
ENDBRANCH 8 13
ENDBRANCH 1 8
BRANCH 4 23
ATOM     23  C   PRO B 300     -17.227   2.453  10.162  1.00 41.91 LIG 0.24  C 
ATOM     24  N   PHE B 301     -17.310   3.491  10.992  1.00 41.99 LIG-0.34  N 
ATOM     25 H    PHE B 301     -16.825   3.550  11.699  1.00 41.99 LIG 0.16  HD
ATOM     26 O    PRO B 300     -17.932   2.324   9.154  1.00 39.52 LIG-0.27  OA
BRANCH 24 27
ATOM     27  CA  PHE B 301     -18.211   4.643  10.823  1.00 41.99 LIG 0.19  C 
BRANCH 27 28
ATOM     28  CB  PHE B 301     -18.356   5.443  12.136  1.00 39.59 LIG 0.07  C 
BRANCH 28 29
ATOM     29  CG  PHE B 301     -19.179   4.744  13.209  1.00 41.19 LIG-0.06  A 
ATOM     30  CD1 PHE B 301     -19.684   5.465  14.283  1.00 38.91 LIG 0.01  A 
ATOM     31  CE1 PHE B 301     -20.437   4.841  15.281  1.00 39.99 LIG 0.00  A 
ATOM     32  CZ  PHE B 301     -20.665   3.474  15.226  1.00 37.57 LIG 0.00  A 
ATOM     33  CE2 PHE B 301     -20.161   2.737  14.158  1.00 41.60 LIG 0.00  A 
ATOM     34  CD2 PHE B 301     -19.429   3.371  13.153  1.00 40.14 LIG 0.01  A 
ENDBRANCH 28 29
ENDBRANCH 27 28
BRANCH 27 35
ATOM     35  C   PHE B 301     -17.673   5.523   9.689  1.00 45.15 LIG 0.20  C 
ATOM     36 O    PHE B 301     -16.469   5.599   9.378  1.00 42.31 LIG-0.65  OA
ATOM     37 OXT  PHE B 301     -18.480   6.186   9.017  1.00 47.06 LIG-0.65  OA
ENDBRANCH 27 35
ENDBRANCH 24 27
ENDBRANCH 4 23
TORSDOF 12
ENDMDL
MODEL 23
USER: ADFR SOLUTION from run 65
USER: SCORE 15.476128 LL:  -4.429 LR: -11.434 RR:   0.000 FEB:  -7.854
USER: RMSD 7.269090
USER: SEED 64
USER: STATUS no improvement in best in 3 clusters for 5 generations
USER: GENES 14
USER: genes 0 Translation |==|  0.56508 0.71714 0.51830
USER: genes 1 Rotation |==|  0.52642 0.21043 0.86931 0.67047
USER: genes 2 Torsion [N]-C--CA-[N] |==|  0.88555
USER: genes 3 Torsion [C]-CA--CB-[CG] |==|  0.51721
USER: genes 4 Torsion [CA]-CB--CG-[CD2] |==|  0.21043
USER: genes 5 Torsion [C]-CA--N-[C] |==|  0.67292
USER: genes 6 Torsion [N]-C--CA-[N] |==|  0.88951
USER: genes 7 Torsion [C]-CA--CB-[CG] |==|  0.66460
USER: genes 8 Torsion [CA]-CB--CG-[OD2] |==|  0.11174
USER: genes 9 Torsion [N]-CA--C-[N] |==|  0.01109
USER: genes 10 Torsion [C]-N--CA-[CB] |==|  0.12761
USER: genes 11 Torsion [N]-CA--CB-[CG] |==|  0.10293
USER: genes 12 Torsion [CA]-CB--CG-[CD2] |==|  0.07905
USER: genes 13 Torsion [N]-CA--C-[O] |==|  0.98832
ROOT
ATOM      1  C   LEU B 299     -15.214   4.477  14.139  1.00 46.80 LIG 0.24  C 
ATOM      2 O    LEU B 299     -14.193   5.146  13.927  1.00 48.15 LIG-0.27  OA
ATOM      3  N   PRO B 300     -15.441   3.294  13.528  1.00 44.47 LIG-0.34  N 
ATOM      4  CA  PRO B 300     -14.487   2.761  12.542  1.00 41.25 LIG 0.18  C 
ATOM      5  CB  PRO B 300     -14.621   1.247  12.733  1.00 41.07 LIG 0.04  C 
ATOM      6  CG  PRO B 300     -16.081   1.059  13.112  1.00 41.88 LIG 0.02  C 
ATOM      7  CD  PRO B 300     -16.544   2.338  13.787  1.00 43.19 LIG 0.13  C 
ENDROOT
BRANCH 1 8
ATOM      8  CA  LEU B 299     -16.275   4.962  15.144  1.00 51.80 LIG 0.18  C 
BRANCH 8 9
ATOM      9  CB  LEU B 299     -16.029   4.384  16.539  1.00 51.70 LIG 0.04  C 
BRANCH 9 10
ATOM     10  CG  LEU B 299     -17.088   4.661  17.617  1.00 53.57 LIG-0.02  C 
ATOM     11  CD2 LEU B 299     -18.341   3.806  17.445  1.00 54.40 LIG 0.01  C 
ATOM     12  CD1 LEU B 299     -17.456   6.133  17.629  1.00 50.77 LIG 0.01  C 
ENDBRANCH 9 10
ENDBRANCH 8 9
BRANCH 8 13
ATOM     13  N   LEU B 299     -17.664   4.736  14.705  1.00 58.35 LIG-0.35  N 
ATOM     14  C   ASP B 298     -18.500   5.758  14.505  1.00 67.04 LIG 0.26  C 
ATOM     15 O    ASP B 298     -18.140   6.944  14.628  1.00 64.28 LIG-0.27  OA
ATOM     16 H    LEU B 299     -17.875   3.910  14.594  1.00 58.35 LIG 0.16  HD
BRANCH 14 17
ATOM     17  CA  ASP B 298     -19.964   5.424  14.103  1.00 70.29 LIG 0.41  C 
ATOM     18  N   ASP B 298     -20.093   4.288  13.138  1.00 66.44 LIG 0.61  N 
BRANCH 17 19
ATOM     19  CB  ASP B 298     -20.864   5.204  15.339  1.00 75.12 LIG 0.16  C 
BRANCH 19 20
ATOM     20  CG  ASP B 298     -21.507   3.810  15.378  1.00 83.78 LIG 0.17  C 
ATOM     21 OD2  ASP B 298     -20.837   2.807  15.040  1.00 86.97 LIG-0.65  OA
ATOM     22 OD1  ASP B 298     -22.696   3.715  15.753  1.00 89.47 LIG-0.65  OA
ENDBRANCH 19 20
ENDBRANCH 17 19
ENDBRANCH 14 17
ENDBRANCH 8 13
ENDBRANCH 1 8
BRANCH 4 23
ATOM     23  C   PRO B 300     -14.835   3.206  11.088  1.00 41.91 LIG 0.24  C 
ATOM     24  N   PHE B 301     -15.861   4.045  10.972  1.00 41.99 LIG-0.34  N 
ATOM     25 H    PHE B 301     -16.321   4.301  11.651  1.00 41.99 LIG 0.16  HD
ATOM     26 O    PRO B 300     -14.173   2.795  10.127  1.00 39.52 LIG-0.27  OA
BRANCH 24 27
ATOM     27  CA  PHE B 301     -16.339   4.633   9.709  1.00 41.99 LIG 0.19  C 
BRANCH 27 28
ATOM     28  CB  PHE B 301     -16.446   3.569   8.596  1.00 39.59 LIG 0.07  C 
BRANCH 28 29
ATOM     29  CG  PHE B 301     -16.923   2.205   9.075  1.00 41.19 LIG-0.06  A 
ATOM     30  CD1 PHE B 301     -16.547   1.054   8.397  1.00 38.91 LIG 0.01  A 
ATOM     31  CE1 PHE B 301     -16.979  -0.206   8.818  1.00 39.99 LIG 0.00  A 
ATOM     32  CZ  PHE B 301     -17.823  -0.321   9.912  1.00 37.57 LIG 0.00  A 
ATOM     33  CE2 PHE B 301     -18.212   0.825  10.601  1.00 41.60 LIG 0.00  A 
ATOM     34  CD2 PHE B 301     -17.759   2.078  10.188  1.00 40.14 LIG 0.01  A 
ENDBRANCH 28 29
ENDBRANCH 27 28
BRANCH 27 35
ATOM     35  C   PHE B 301     -17.690   5.313   9.965  1.00 45.15 LIG 0.20  C 
ATOM     36 O    PHE B 301     -18.291   5.276  11.054  1.00 42.31 LIG-0.65  OA
ATOM     37 OXT  PHE B 301     -18.212   5.961   9.044  1.00 47.06 LIG-0.65  OA
ENDBRANCH 27 35
ENDBRANCH 24 27
ENDBRANCH 4 23
TORSDOF 12
ENDMDL
MODEL 24
USER: ADFR SOLUTION from run 14
USER: SCORE 15.133108 LL:  -3.837 LR: -11.389 RR:   0.000 FEB:  -7.809
USER: RMSD 3.923034
USER: SEED 819010
USER: STATUS no improvement in best in 16 clusters for 5 generations
USER: GENES 14
USER: genes 0 Translation |==|  0.50300 0.54422 0.58834
USER: genes 1 Rotation |==|  0.52645 0.42936 0.63728 0.97483
USER: genes 2 Torsion [N]-C--CA-[N] |==|  0.45281
USER: genes 3 Torsion [C]-CA--CB-[CG] |==|  0.83425
USER: genes 4 Torsion [CA]-CB--CG-[CD2] |==|  0.77272
USER: genes 5 Torsion [C]-CA--N-[C] |==|  0.61172
USER: genes 6 Torsion [N]-C--CA-[N] |==|  0.44825
USER: genes 7 Torsion [C]-CA--CB-[CG] |==|  0.87666
USER: genes 8 Torsion [CA]-CB--CG-[OD2] |==|  0.34049
USER: genes 9 Torsion [N]-CA--C-[N] |==|  0.98825
USER: genes 10 Torsion [C]-N--CA-[CB] |==|  0.84409
USER: genes 11 Torsion [N]-CA--CB-[CG] |==|  0.80520
USER: genes 12 Torsion [CA]-CB--CG-[CD2] |==|  0.65548
USER: genes 13 Torsion [N]-CA--C-[O] |==|  0.34030
ROOT
ATOM      1  C   LEU B 299     -16.285   1.364  15.137  1.00 46.80 LIG 0.24  C 
ATOM      2 O    LEU B 299     -16.269   0.850  14.009  1.00 48.15 LIG-0.27  OA
ATOM      3  N   PRO B 300     -17.423   1.502  15.851  1.00 44.47 LIG-0.34  N 
ATOM      4  CA  PRO B 300     -18.717   1.075  15.293  1.00 41.25 LIG 0.18  C 
ATOM      5  CB  PRO B 300     -19.486   0.629  16.540  1.00 41.07 LIG 0.04  C 
ATOM      6  CG  PRO B 300     -18.974   1.557  17.630  1.00 41.88 LIG 0.02  C 
ATOM      7  CD  PRO B 300     -17.564   1.971  17.249  1.00 43.19 LIG 0.13  C 
ENDROOT
BRANCH 1 8
ATOM      8  CA  LEU B 299     -14.982   1.853  15.795  1.00 51.80 LIG 0.18  C 
BRANCH 8 9
ATOM      9  CB  LEU B 299     -14.946   3.378  15.903  1.00 51.70 LIG 0.04  C 
BRANCH 9 10
ATOM     10  CG  LEU B 299     -15.039   4.183  14.598  1.00 53.57 LIG-0.02  C 
ATOM     11  CD2 LEU B 299     -13.697   4.297  13.880  1.00 54.40 LIG 0.01  C 
ATOM     12  CD1 LEU B 299     -15.606   5.565  14.871  1.00 50.77 LIG 0.01  C 
ENDBRANCH 9 10
ENDBRANCH 8 9
BRANCH 8 13
ATOM     13  N   LEU B 299     -13.758   1.329  15.160  1.00 58.35 LIG-0.35  N 
ATOM     14  C   ASP B 298     -12.710   0.944  15.894  1.00 67.04 LIG 0.26  C 
ATOM     15 O    ASP B 298     -12.730   0.959  17.139  1.00 64.28 LIG-0.27  OA
ATOM     16 H    LEU B 299     -13.785   1.297  14.302  1.00 58.35 LIG 0.16  HD
BRANCH 14 17
ATOM     17  CA  ASP B 298     -11.440   0.464  15.138  1.00 70.29 LIG 0.41  C 
ATOM     18  N   ASP B 298     -10.192   0.470  15.964  1.00 66.44 LIG 0.61  N 
BRANCH 17 19
ATOM     19  CB  ASP B 298     -11.652  -0.912  14.469  1.00 75.12 LIG 0.16  C 
BRANCH 19 20
ATOM     20  CG  ASP B 298     -12.361  -1.925  15.379  1.00 83.78 LIG 0.17  C 
ATOM     21 OD2  ASP B 298     -13.431  -2.456  15.003  1.00 86.97 LIG-0.65  OA
ATOM     22 OD1  ASP B 298     -11.841  -2.194  16.484  1.00 89.47 LIG-0.65  OA
ENDBRANCH 19 20
ENDBRANCH 17 19
ENDBRANCH 14 17
ENDBRANCH 8 13
ENDBRANCH 1 8
BRANCH 4 23
ATOM     23  C   PRO B 300     -19.440   2.229  14.534  1.00 41.91 LIG 0.24  C 
ATOM     24  N   PHE B 301     -18.838   3.416  14.580  1.00 41.99 LIG-0.34  N 
ATOM     25 H    PHE B 301     -18.113   3.543  15.025  1.00 41.99 LIG 0.16  HD
ATOM     26 O    PRO B 300     -20.499   2.021  13.928  1.00 39.52 LIG-0.27  OA
BRANCH 24 27
ATOM     27  CA  PHE B 301     -19.310   4.634  13.902  1.00 41.99 LIG 0.19  C 
BRANCH 27 28
ATOM     28  CB  PHE B 301     -19.473   4.408  12.384  1.00 39.59 LIG 0.07  C 
BRANCH 28 29
ATOM     29  CG  PHE B 301     -18.161   4.243  11.629  1.00 41.19 LIG-0.06  A 
ATOM     30  CD1 PHE B 301     -17.248   3.272  12.018  1.00 38.91 LIG 0.01  A 
ATOM     31  CE1 PHE B 301     -16.036   3.109  11.341  1.00 39.99 LIG 0.00  A 
ATOM     32  CZ  PHE B 301     -15.715   3.943  10.280  1.00 37.57 LIG 0.00  A 
ATOM     33  CE2 PHE B 301     -16.620   4.923   9.881  1.00 41.60 LIG 0.00  A 
ATOM     34  CD2 PHE B 301     -17.837   5.067  10.548  1.00 40.14 LIG 0.01  A 
ENDBRANCH 28 29
ENDBRANCH 27 28
BRANCH 27 35
ATOM     35  C   PHE B 301     -20.630   5.074  14.547  1.00 45.15 LIG 0.20  C 
ATOM     36 O    PHE B 301     -20.814   6.193  15.061  1.00 42.31 LIG-0.65  OA
ATOM     37 OXT  PHE B 301     -21.587   4.283  14.539  1.00 47.06 LIG-0.65  OA
ENDBRANCH 27 35
ENDBRANCH 24 27
ENDBRANCH 4 23
TORSDOF 12
ENDMDL
MODEL 25
USER: ADFR SOLUTION from run 119
USER: SCORE 14.977122 LL:  -3.746 LR: -11.376 RR:   0.000 FEB:  -7.796
USER: RMSD 5.843116
USER: SEED 118
USER: STATUS no improvement in best in 12 clusters for 5 generations
USER: GENES 14
USER: genes 0 Translation |==|  0.57335 0.62367 0.55978
USER: genes 1 Rotation |==|  0.24622 0.74932 0.60211 0.83617
USER: genes 2 Torsion [N]-C--CA-[N] |==|  0.86667
USER: genes 3 Torsion [C]-CA--CB-[CG] |==|  0.30554
USER: genes 4 Torsion [CA]-CB--CG-[CD2] |==|  0.83328
USER: genes 5 Torsion [C]-CA--N-[C] |==|  0.85267
USER: genes 6 Torsion [N]-C--CA-[N] |==|  0.31949
USER: genes 7 Torsion [C]-CA--CB-[CG] |==|  0.51931
USER: genes 8 Torsion [CA]-CB--CG-[OD2] |==|  0.09711
USER: genes 9 Torsion [N]-CA--C-[N] |==|  0.94566
USER: genes 10 Torsion [C]-N--CA-[CB] |==|  0.77205
USER: genes 11 Torsion [N]-CA--CB-[CG] |==|  0.11568
USER: genes 12 Torsion [CA]-CB--CG-[CD2] |==|  0.23584
USER: genes 13 Torsion [N]-CA--C-[O] |==|  0.11448
ROOT
ATOM      1  C   LEU B 299     -15.072   2.794  14.730  1.00 46.80 LIG 0.24  C 
ATOM      2 O    LEU B 299     -15.408   1.865  15.477  1.00 48.15 LIG-0.27  OA
ATOM      3  N   PRO B 300     -15.489   4.064  14.923  1.00 44.47 LIG-0.34  N 
ATOM      4  CA  PRO B 300     -16.407   4.393  16.026  1.00 41.25 LIG 0.18  C 
ATOM      5  CB  PRO B 300     -15.985   5.818  16.396  1.00 41.07 LIG 0.04  C 
ATOM      6  CG  PRO B 300     -15.546   6.420  15.070  1.00 41.88 LIG 0.02  C 
ATOM      7  CD  PRO B 300     -15.061   5.279  14.192  1.00 43.19 LIG 0.13  C 
ENDROOT
BRANCH 1 8
ATOM      8  CA  LEU B 299     -14.125   2.541  13.542  1.00 51.80 LIG 0.18  C 
BRANCH 8 9
ATOM      9  CB  LEU B 299     -12.688   2.945  13.875  1.00 51.70 LIG 0.04  C 
BRANCH 9 10
ATOM     10  CG  LEU B 299     -11.655   1.819  14.039  1.00 53.57 LIG-0.02  C 
ATOM     11  CD2 LEU B 299     -12.017   0.847  15.159  1.00 54.40 LIG 0.01  C 
ATOM     12  CD1 LEU B 299     -10.274   2.403  14.277  1.00 50.77 LIG 0.01  C 
ENDBRANCH 9 10
ENDBRANCH 8 9
BRANCH 8 13
ATOM     13  N   LEU B 299     -14.576   3.150  12.277  1.00 58.35 LIG-0.35  N 
ATOM     14  C   ASP B 298     -15.802   2.921  11.799  1.00 67.04 LIG 0.26  C 
ATOM     15 O    ASP B 298     -16.636   2.232  12.414  1.00 64.28 LIG-0.27  OA
ATOM     16 H    LEU B 299     -13.991   3.648  11.891  1.00 58.35 LIG 0.16  HD
BRANCH 14 17
ATOM     17  CA  ASP B 298     -16.169   3.553  10.427  1.00 70.29 LIG 0.41  C 
ATOM     18  N   ASP B 298     -16.427   2.558   9.340  1.00 66.44 LIG 0.61  N 
BRANCH 17 19
ATOM     19  CB  ASP B 298     -17.338   4.555  10.548  1.00 75.12 LIG 0.16  C 
BRANCH 19 20
ATOM     20  CG  ASP B 298     -17.837   5.069   9.189  1.00 83.78 LIG 0.17  C 
ATOM     21 OD2  ASP B 298     -17.836   4.305   8.198  1.00 86.97 LIG-0.65  OA
ATOM     22 OD1  ASP B 298     -18.236   6.251   9.113  1.00 89.47 LIG-0.65  OA
ENDBRANCH 19 20
ENDBRANCH 17 19
ENDBRANCH 14 17
ENDBRANCH 8 13
ENDBRANCH 1 8
BRANCH 4 23
ATOM     23  C   PRO B 300     -17.902   4.314  15.590  1.00 41.91 LIG 0.24  C 
ATOM     24  N   PHE B 301     -18.125   4.375  14.279  1.00 41.99 LIG-0.34  N 
ATOM     25 H    PHE B 301     -17.487   4.481  13.712  1.00 41.99 LIG 0.16  HD
ATOM     26 O    PRO B 300     -18.800   4.193  16.433  1.00 39.52 LIG-0.27  OA
BRANCH 24 27
ATOM     27  CA  PHE B 301     -19.446   4.274  13.636  1.00 41.99 LIG 0.19  C 
BRANCH 27 28
ATOM     28  CB  PHE B 301     -19.884   2.802  13.476  1.00 39.59 LIG 0.07  C 
BRANCH 28 29
ATOM     29  CG  PHE B 301     -19.584   1.923  14.682  1.00 41.19 LIG-0.06  A 
ATOM     30  CD1 PHE B 301     -18.429   1.153  14.716  1.00 38.91 LIG 0.01  A 
ATOM     31  CE1 PHE B 301     -18.139   0.335  15.811  1.00 39.99 LIG 0.00  A 
ATOM     32  CZ  PHE B 301     -19.025   0.259  16.875  1.00 37.57 LIG 0.00  A 
ATOM     33  CE2 PHE B 301     -20.189   1.022  16.853  1.00 41.60 LIG 0.00  A 
ATOM     34  CD2 PHE B 301     -20.462   1.853  15.766  1.00 40.14 LIG 0.01  A 
ENDBRANCH 28 29
ENDBRANCH 27 28
BRANCH 27 35
ATOM     35  C   PHE B 301     -20.458   5.071  14.468  1.00 45.15 LIG 0.20  C 
ATOM     36 O    PHE B 301     -20.218   6.181  14.978  1.00 42.31 LIG-0.65  OA
ATOM     37 OXT  PHE B 301     -21.596   4.601  14.629  1.00 47.06 LIG-0.65  OA
ENDBRANCH 27 35
ENDBRANCH 24 27
ENDBRANCH 4 23
TORSDOF 12
ENDMDL
MODEL 26
USER: ADFR SOLUTION from run 161
USER: SCORE 13.851677 LL:  -3.024 LR: -11.341 RR:   0.000 FEB:  -7.761
USER: RMSD 4.703698
USER: SEED 160
USER: STATUS no improvement in best in 6 clusters for 5 generations
USER: GENES 14
USER: genes 0 Translation |==|  0.25300 0.39782 0.64898
USER: genes 1 Rotation |==|  0.40011 0.86387 0.36716 0.79996
USER: genes 2 Torsion [N]-C--CA-[N] |==|  0.17060
USER: genes 3 Torsion [C]-CA--CB-[CG] |==|  0.75014
USER: genes 4 Torsion [CA]-CB--CG-[CD2] |==|  0.08914
USER: genes 5 Torsion [C]-CA--N-[C] |==|  0.60221
USER: genes 6 Torsion [N]-C--CA-[N] |==|  0.73210
USER: genes 7 Torsion [C]-CA--CB-[CG] |==|  0.75129
USER: genes 8 Torsion [CA]-CB--CG-[OD2] |==|  0.22837
USER: genes 9 Torsion [N]-CA--C-[N] |==|  0.71840
USER: genes 10 Torsion [C]-N--CA-[CB] |==|  0.56805
USER: genes 11 Torsion [N]-CA--CB-[CG] |==|  0.82662
USER: genes 12 Torsion [CA]-CB--CG-[CD2] |==|  0.94268
USER: genes 13 Torsion [N]-CA--C-[O] |==|  0.35144
ROOT
ATOM      1  C   LEU B 299     -20.598  -1.271  16.001  1.00 46.80 LIG 0.24  C 
ATOM      2 O    LEU B 299     -21.463  -1.136  16.878  1.00 48.15 LIG-0.27  OA
ATOM      3  N   PRO B 300     -19.539  -0.440  15.896  1.00 44.47 LIG-0.34  N 
ATOM      4  CA  PRO B 300     -19.388   0.703  16.812  1.00 41.25 LIG 0.18  C 
ATOM      5  CB  PRO B 300     -17.866   0.831  16.936  1.00 41.07 LIG 0.04  C 
ATOM      6  CG  PRO B 300     -17.356   0.399  15.570  1.00 41.88 LIG 0.02  C 
ATOM      7  CD  PRO B 300     -18.375  -0.566  14.989  1.00 43.19 LIG 0.13  C 
ENDROOT
BRANCH 1 8
ATOM      8  CA  LEU B 299     -20.681  -2.430  14.991  1.00 51.80 LIG 0.18  C 
BRANCH 8 9
ATOM      9  CB  LEU B 299     -22.022  -3.160  15.084  1.00 51.70 LIG 0.04  C 
BRANCH 9 10
ATOM     10  CG  LEU B 299     -22.119  -4.344  16.057  1.00 53.57 LIG-0.02  C 
ATOM     11  CD2 LEU B 299     -21.230  -4.171  17.286  1.00 54.40 LIG 0.01  C 
ATOM     12  CD1 LEU B 299     -21.779  -5.640  15.343  1.00 50.77 LIG 0.01  C 
ENDBRANCH 9 10
ENDBRANCH 8 9
BRANCH 8 13
ATOM     13  N   LEU B 299     -19.549  -3.372  15.065  1.00 58.35 LIG-0.35  N 
ATOM     14  C   ASP B 298     -19.043  -3.932  13.963  1.00 67.04 LIG 0.26  C 
ATOM     15 O    ASP B 298     -19.462  -3.652  12.824  1.00 64.28 LIG-0.27  OA
ATOM     16 H    LEU B 299     -19.258  -3.520  15.860  1.00 58.35 LIG 0.16  HD
BRANCH 14 17
ATOM     17  CA  ASP B 298     -17.892  -4.961  14.142  1.00 70.29 LIG 0.41  C 
ATOM     18  N   ASP B 298     -16.521  -4.388  13.970  1.00 66.44 LIG 0.61  N 
BRANCH 17 19
ATOM     19  CB  ASP B 298     -18.007  -5.728  15.477  1.00 75.12 LIG 0.16  C 
BRANCH 19 20
ATOM     20  CG  ASP B 298     -17.277  -5.035  16.637  1.00 83.78 LIG 0.17  C 
ATOM     21 OD2  ASP B 298     -17.837  -4.100  17.253  1.00 86.97 LIG-0.65  OA
ATOM     22 OD1  ASP B 298     -16.130  -5.432  16.937  1.00 89.47 LIG-0.65  OA
ENDBRANCH 19 20
ENDBRANCH 17 19
ENDBRANCH 14 17
ENDBRANCH 8 13
ENDBRANCH 1 8
BRANCH 4 23
ATOM     23  C   PRO B 300     -20.046   1.999  16.249  1.00 41.91 LIG 0.24  C 
ATOM     24  N   PHE B 301     -19.210   2.883  15.709  1.00 41.99 LIG-0.34  N 
ATOM     25 H    PHE B 301     -18.360   2.760  15.699  1.00 41.99 LIG 0.16  HD
ATOM     26 O    PRO B 300     -21.272   2.161  16.306  1.00 39.52 LIG-0.27  OA
BRANCH 24 27
ATOM     27  CA  PHE B 301     -19.608   4.152  15.076  1.00 41.99 LIG 0.19  C 
BRANCH 27 28
ATOM     28  CB  PHE B 301     -18.552   4.629  14.056  1.00 39.59 LIG 0.07  C 
BRANCH 28 29
ATOM     29  CG  PHE B 301     -17.187   4.930  14.659  1.00 41.19 LIG-0.06  A 
ATOM     30  CD1 PHE B 301     -16.053   4.930  13.859  1.00 38.91 LIG 0.01  A 
ATOM     31  CE1 PHE B 301     -14.791   5.199  14.395  1.00 39.99 LIG 0.00  A 
ATOM     32  CZ  PHE B 301     -14.651   5.443  15.753  1.00 37.57 LIG 0.00  A 
ATOM     33  CE2 PHE B 301     -15.779   5.443  16.569  1.00 41.60 LIG 0.00  A 
ATOM     34  CD2 PHE B 301     -17.039   5.195  16.023  1.00 40.14 LIG 0.01  A 
ENDBRANCH 28 29
ENDBRANCH 27 28
BRANCH 27 35
ATOM     35  C   PHE B 301     -20.978   3.960  14.414  1.00 45.15 LIG 0.20  C 
ATOM     36 O    PHE B 301     -21.962   4.693  14.628  1.00 42.31 LIG-0.65  OA
ATOM     37 OXT  PHE B 301     -21.118   3.038  13.595  1.00 47.06 LIG-0.65  OA
ENDBRANCH 27 35
ENDBRANCH 24 27
ENDBRANCH 4 23
TORSDOF 12
ENDMDL
MODEL 27
USER: ADFR SOLUTION from run 78
USER: SCORE 14.319894 LL:  -3.035 LR: -11.313 RR:   0.000 FEB:  -7.733
USER: RMSD 4.389627
USER: SEED 77
USER: STATUS no improvement in best in 20 clusters for 5 generations
USER: GENES 14
USER: genes 0 Translation |==|  0.27909 0.40887 0.67717
USER: genes 1 Rotation |==|  0.37506 0.76752 0.32000 0.86114
USER: genes 2 Torsion [N]-C--CA-[N] |==|  0.90807
USER: genes 3 Torsion [C]-CA--CB-[CG] |==|  0.29040
USER: genes 4 Torsion [CA]-CB--CG-[CD2] |==|  0.92807
USER: genes 5 Torsion [C]-CA--N-[C] |==|  0.81791
USER: genes 6 Torsion [N]-C--CA-[N] |==|  0.66666
USER: genes 7 Torsion [C]-CA--CB-[CG] |==|  0.77809
USER: genes 8 Torsion [CA]-CB--CG-[OD2] |==|  0.44980
USER: genes 9 Torsion [N]-CA--C-[N] |==|  0.58174
USER: genes 10 Torsion [C]-N--CA-[CB] |==|  0.76418
USER: genes 11 Torsion [N]-CA--CB-[CG] |==|  0.83984
USER: genes 12 Torsion [CA]-CB--CG-[CD2] |==|  0.45603
USER: genes 13 Torsion [N]-CA--C-[O] |==|  0.22590
ROOT
ATOM      1  C   LEU B 299     -20.148  -1.072  16.403  1.00 46.80 LIG 0.24  C 
ATOM      2 O    LEU B 299     -21.306  -0.878  16.798  1.00 48.15 LIG-0.27  OA
ATOM      3  N   PRO B 300     -19.182  -0.134  16.508  1.00 44.47 LIG-0.34  N 
ATOM      4  CA  PRO B 300     -19.482   1.192  17.072  1.00 41.25 LIG 0.18  C 
ATOM      5  CB  PRO B 300     -18.160   1.574  17.747  1.00 41.07 LIG 0.04  C 
ATOM      6  CG  PRO B 300     -17.105   0.932  16.860  1.00 41.88 LIG 0.02  C 
ATOM      7  CD  PRO B 300     -17.740  -0.281  16.202  1.00 43.19 LIG 0.13  C 
ENDROOT
BRANCH 1 8
ATOM      8  CA  LEU B 299     -19.746  -2.425  15.787  1.00 51.80 LIG 0.18  C 
BRANCH 8 9
ATOM      9  CB  LEU B 299     -19.361  -3.440  16.865  1.00 51.70 LIG 0.04  C 
BRANCH 9 10
ATOM     10  CG  LEU B 299     -20.375  -4.547  17.191  1.00 53.57 LIG-0.02  C 
ATOM     11  CD2 LEU B 299     -21.812  -4.140  16.878  1.00 54.40 LIG 0.01  C 
ATOM     12  CD1 LEU B 299     -20.252  -4.961  18.645  1.00 50.77 LIG 0.01  C 
ENDBRANCH 9 10
ENDBRANCH 8 9
BRANCH 8 13
ATOM     13  N   LEU B 299     -18.706  -2.324  14.746  1.00 58.35 LIG-0.35  N 
ATOM     14  C   ASP B 298     -18.943  -1.696  13.592  1.00 67.04 LIG 0.26  C 
ATOM     15 O    ASP B 298     -20.024  -1.125  13.356  1.00 64.28 LIG-0.27  OA
ATOM     16 H    LEU B 299     -17.958  -2.697  14.950  1.00 58.35 LIG 0.16  HD
BRANCH 14 17
ATOM     17  CA  ASP B 298     -17.809  -1.693  12.528  1.00 70.29 LIG 0.41  C 
ATOM     18  N   ASP B 298     -17.329  -0.329  12.143  1.00 66.44 LIG 0.61  N 
BRANCH 17 19
ATOM     19  CB  ASP B 298     -16.628  -2.598  12.942  1.00 75.12 LIG 0.16  C 
BRANCH 19 20
ATOM     20  CG  ASP B 298     -15.684  -1.935  13.956  1.00 83.78 LIG 0.17  C 
ATOM     21 OD2  ASP B 298     -14.899  -2.641  14.628  1.00 86.97 LIG-0.65  OA
ATOM     22 OD1  ASP B 298     -15.727  -0.691  14.081  1.00 89.47 LIG-0.65  OA
ENDBRANCH 19 20
ENDBRANCH 17 19
ENDBRANCH 14 17
ENDBRANCH 8 13
ENDBRANCH 1 8
BRANCH 4 23
ATOM     23  C   PRO B 300     -19.902   2.217  15.974  1.00 41.91 LIG 0.24  C 
ATOM     24  N   PHE B 301     -19.608   3.490  16.230  1.00 41.99 LIG-0.34  N 
ATOM     25 H    PHE B 301     -19.237   3.733  16.966  1.00 41.99 LIG 0.16  HD
ATOM     26 O    PRO B 300     -20.462   1.837  14.938  1.00 39.52 LIG-0.27  OA
BRANCH 24 27
ATOM     27  CA  PHE B 301     -19.866   4.620  15.322  1.00 41.99 LIG 0.19  C 
BRANCH 27 28
ATOM     28  CB  PHE B 301     -18.723   4.793  14.298  1.00 39.59 LIG 0.07  C 
BRANCH 28 29
ATOM     29  CG  PHE B 301     -17.350   5.005  14.919  1.00 41.19 LIG-0.06  A 
ATOM     30  CD1 PHE B 301     -17.235   5.374  16.252  1.00 38.91 LIG 0.01  A 
ATOM     31  CE1 PHE B 301     -15.983   5.578  16.839  1.00 39.99 LIG 0.00  A 
ATOM     32  CZ  PHE B 301     -14.830   5.443  16.081  1.00 37.57 LIG 0.00  A 
ATOM     33  CE2 PHE B 301     -14.930   5.077  14.741  1.00 41.60 LIG 0.00  A 
ATOM     34  CD2 PHE B 301     -16.182   4.853  14.167  1.00 40.14 LIG 0.01  A 
ENDBRANCH 28 29
ENDBRANCH 27 28
BRANCH 27 35
ATOM     35  C   PHE B 301     -21.212   4.390  14.624  1.00 45.15 LIG 0.20  C 
ATOM     36 O    PHE B 301     -22.316   4.650  15.140  1.00 42.31 LIG-0.65  OA
ATOM     37 OXT  PHE B 301     -21.212   3.943  13.466  1.00 47.06 LIG-0.65  OA
ENDBRANCH 27 35
ENDBRANCH 24 27
ENDBRANCH 4 23
TORSDOF 12
ENDMDL
MODEL 28
USER: ADFR SOLUTION from run 145
USER: SCORE 13.839397 LL:  -2.843 LR: -11.297 RR:   0.000 FEB:  -7.717
USER: RMSD 7.587903
USER: SEED 144
USER: STATUS no improvement in best in 17 clusters for 5 generations
USER: GENES 14
USER: genes 0 Translation |==|  0.51174 0.71406 0.61982
USER: genes 1 Rotation |==|  0.23982 0.28362 0.86012 0.57613
USER: genes 2 Torsion [N]-C--CA-[N] |==|  0.85588
USER: genes 3 Torsion [C]-CA--CB-[CG] |==|  0.11332
USER: genes 4 Torsion [CA]-CB--CG-[CD2] |==|  0.11547
USER: genes 5 Torsion [C]-CA--N-[C] |==|  0.86663
USER: genes 6 Torsion [N]-C--CA-[N] |==|  0.71675
USER: genes 7 Torsion [C]-CA--CB-[CG] |==|  0.45813
USER: genes 8 Torsion [CA]-CB--CG-[OD2] |==|  0.60568
USER: genes 9 Torsion [N]-CA--C-[N] |==|  0.53946
USER: genes 10 Torsion [C]-N--CA-[CB] |==|  0.19400
USER: genes 11 Torsion [N]-CA--CB-[CG] |==|  0.17850
USER: genes 12 Torsion [CA]-CB--CG-[CD2] |==|  0.38038
USER: genes 13 Torsion [N]-CA--C-[O] |==|  0.23759
ROOT
ATOM      1  C   LEU B 299     -16.134   4.421  15.585  1.00 46.80 LIG 0.24  C 
ATOM      2 O    LEU B 299     -15.131   4.762  16.228  1.00 48.15 LIG-0.27  OA
ATOM      3  N   PRO B 300     -16.518   3.131  15.477  1.00 44.47 LIG-0.34  N 
ATOM      4  CA  PRO B 300     -15.726   2.056  16.097  1.00 41.25 LIG 0.18  C 
ATOM      5  CB  PRO B 300     -16.795   1.023  16.463  1.00 41.07 LIG 0.04  C 
ATOM      6  CG  PRO B 300     -17.834   1.174  15.363  1.00 41.88 LIG 0.02  C 
ATOM      7  CD  PRO B 300     -17.757   2.604  14.858  1.00 43.19 LIG 0.13  C 
ENDROOT
BRANCH 1 8
ATOM      8  CA  LEU B 299     -17.016   5.475  14.892  1.00 51.80 LIG 0.18  C 
BRANCH 8 9
ATOM      9  CB  LEU B 299     -18.309   5.725  15.671  1.00 51.70 LIG 0.04  C 
BRANCH 9 10
ATOM     10  CG  LEU B 299     -18.212   5.792  17.202  1.00 53.57 LIG-0.02  C 
ATOM     11  CD2 LEU B 299     -16.988   6.568  17.682  1.00 54.40 LIG 0.01  C 
ATOM     12  CD1 LEU B 299     -18.209   4.393  17.791  1.00 50.77 LIG 0.01  C 
ENDBRANCH 9 10
ENDBRANCH 8 9
BRANCH 8 13
ATOM     13  N   LEU B 299     -17.291   5.186  13.472  1.00 58.35 LIG-0.35  N 
ATOM     14  C   ASP B 298     -16.308   4.846  12.634  1.00 67.04 LIG 0.26  C 
ATOM     15 O    ASP B 298     -15.131   4.707  13.014  1.00 64.28 LIG-0.27  OA
ATOM     16 H    LEU B 299     -18.117   5.256  13.245  1.00 58.35 LIG 0.16  HD
BRANCH 14 17
ATOM     17  CA  ASP B 298     -16.680   4.621  11.142  1.00 70.29 LIG 0.41  C 
ATOM     18  N   ASP B 298     -16.789   3.183  10.744  1.00 66.44 LIG 0.61  N 
BRANCH 17 19
ATOM     19  CB  ASP B 298     -17.951   5.403  10.740  1.00 75.12 LIG 0.16  C 
BRANCH 19 20
ATOM     20  CG  ASP B 298     -18.142   5.506   9.220  1.00 83.78 LIG 0.17  C 
ATOM     21 OD2  ASP B 298     -18.587   6.564   8.720  1.00 86.97 LIG-0.65  OA
ATOM     22 OD1  ASP B 298     -17.842   4.517   8.516  1.00 89.47 LIG-0.65  OA
ENDBRANCH 19 20
ENDBRANCH 17 19
ENDBRANCH 14 17
ENDBRANCH 8 13
ENDBRANCH 1 8
BRANCH 4 23
ATOM     23  C   PRO B 300     -14.655   1.479  15.122  1.00 41.91 LIG 0.24  C 
ATOM     24  N   PHE B 301     -14.102   0.325  15.490  1.00 41.99 LIG-0.34  N 
ATOM     25 H    PHE B 301     -14.303  -0.061  16.232  1.00 41.99 LIG 0.16  HD
ATOM     26 O    PRO B 300     -14.366   2.074  14.077  1.00 39.52 LIG-0.27  OA
BRANCH 24 27
ATOM     27  CA  PHE B 301     -13.107  -0.428  14.709  1.00 41.99 LIG 0.19  C 
BRANCH 27 28
ATOM     28  CB  PHE B 301     -11.748   0.303  14.674  1.00 39.59 LIG 0.07  C 
BRANCH 28 29
ATOM     29  CG  PHE B 301     -11.071   0.436  16.031  1.00 41.19 LIG-0.06  A 
ATOM     30  CD1 PHE B 301     -11.808   0.810  17.146  1.00 38.91 LIG 0.01  A 
ATOM     31  CE1 PHE B 301     -11.204   0.943  18.399  1.00 39.99 LIG 0.00  A 
ATOM     32  CZ  PHE B 301      -9.841   0.731  18.539  1.00 37.57 LIG 0.00  A 
ATOM     33  CE2 PHE B 301      -9.088   0.359  17.428  1.00 41.60 LIG 0.00  A 
ATOM     34  CD2 PHE B 301      -9.701   0.207  16.185  1.00 40.14 LIG 0.01  A 
ENDBRANCH 28 29
ENDBRANCH 27 28
BRANCH 27 35
ATOM     35  C   PHE B 301     -12.972  -1.832  15.311  1.00 45.15 LIG 0.20  C 
ATOM     36 O    PHE B 301     -13.711  -2.789  15.015  1.00 42.31 LIG-0.65  OA
ATOM     37 OXT  PHE B 301     -12.058  -2.044  16.123  1.00 47.06 LIG-0.65  OA
ENDBRANCH 27 35
ENDBRANCH 24 27
ENDBRANCH 4 23
TORSDOF 12
ENDMDL
MODEL 29
USER: ADFR SOLUTION from run 168
USER: SCORE 14.726773 LL:  -3.558 LR: -11.256 RR:   0.000 FEB:  -7.676
USER: RMSD 6.603181
USER: SEED 167
USER: STATUS no improvement in best in 10 clusters for 5 generations
USER: GENES 14
USER: genes 0 Translation |==|  0.50331 0.69585 0.50039
USER: genes 1 Rotation |==|  0.49534 0.17277 0.83696 0.67133
USER: genes 2 Torsion [N]-C--CA-[N] |==|  0.12199
USER: genes 3 Torsion [C]-CA--CB-[CG] |==|  0.53316
USER: genes 4 Torsion [CA]-CB--CG-[CD2] |==|  0.55361
USER: genes 5 Torsion [C]-CA--N-[C] |==|  0.13338
USER: genes 6 Torsion [N]-C--CA-[N] |==|  0.79243
USER: genes 7 Torsion [C]-CA--CB-[CG] |==|  0.80936
USER: genes 8 Torsion [CA]-CB--CG-[OD2] |==|  0.83911
USER: genes 9 Torsion [N]-CA--C-[N] |==|  0.94314
USER: genes 10 Torsion [C]-N--CA-[CB] |==|  0.22936
USER: genes 11 Torsion [N]-CA--CB-[CG] |==|  0.97197
USER: genes 12 Torsion [CA]-CB--CG-[CD2] |==|  0.24025
USER: genes 13 Torsion [N]-CA--C-[O] |==|  0.52715
ROOT
ATOM      1  C   LEU B 299     -16.280   4.093  13.884  1.00 46.80 LIG 0.24  C 
ATOM      2 O    LEU B 299     -15.168   4.641  13.904  1.00 48.15 LIG-0.27  OA
ATOM      3  N   PRO B 300     -16.554   3.045  13.078  1.00 44.47 LIG-0.34  N 
ATOM      4  CA  PRO B 300     -15.537   2.526  12.149  1.00 41.25 LIG 0.18  C 
ATOM      5  CB  PRO B 300     -15.871   1.032  12.091  1.00 41.07 LIG 0.04  C 
ATOM      6  CG  PRO B 300     -17.383   0.994  12.252  1.00 41.88 LIG 0.02  C 
ATOM      7  CD  PRO B 300     -17.785   2.222  13.050  1.00 43.19 LIG 0.13  C 
ENDROOT
BRANCH 1 8
ATOM      8  CA  LEU B 299     -17.409   4.578  14.811  1.00 51.80 LIG 0.18  C 
BRANCH 8 9
ATOM      9  CB  LEU B 299     -16.904   5.616  15.814  1.00 51.70 LIG 0.04  C 
BRANCH 9 10
ATOM     10  CG  LEU B 299     -17.832   5.986  16.981  1.00 53.57 LIG-0.02  C 
ATOM     11  CD2 LEU B 299     -17.462   7.318  17.628  1.00 54.40 LIG 0.01  C 
ATOM     12  CD1 LEU B 299     -17.837   4.881  18.021  1.00 50.77 LIG 0.01  C 
ENDBRANCH 9 10
ENDBRANCH 8 9
BRANCH 8 13
ATOM     13  N   LEU B 299     -18.140   3.489  15.485  1.00 58.35 LIG-0.35  N 
ATOM     14  C   ASP B 298     -17.488   2.498  16.101  1.00 67.04 LIG 0.26  C 
ATOM     15 O    ASP B 298     -16.246   2.470  16.181  1.00 64.28 LIG-0.27  OA
ATOM     16 H    LEU B 299     -18.996   3.552  15.444  1.00 58.35 LIG 0.16  HD
BRANCH 14 17
ATOM     17  CA  ASP B 298     -18.339   1.360  16.730  1.00 70.29 LIG 0.41  C 
ATOM     18  N   ASP B 298     -19.032   1.739  18.001  1.00 66.44 LIG 0.61  N 
BRANCH 17 19
ATOM     19  CB  ASP B 298     -19.336   0.757  15.716  1.00 75.12 LIG 0.16  C 
BRANCH 19 20
ATOM     20  CG  ASP B 298     -20.462   1.725  15.326  1.00 83.78 LIG 0.17  C 
ATOM     21 OD2  ASP B 298     -21.208   2.200  16.212  1.00 86.97 LIG-0.65  OA
ATOM     22 OD1  ASP B 298     -20.602   2.015  14.118  1.00 89.47 LIG-0.65  OA
ENDBRANCH 19 20
ENDBRANCH 17 19
ENDBRANCH 14 17
ENDBRANCH 8 13
ENDBRANCH 1 8
BRANCH 4 23
ATOM     23  C   PRO B 300     -15.619   3.204  10.748  1.00 41.91 LIG 0.24  C 
ATOM     24  N   PHE B 301     -16.780   3.787  10.456  1.00 41.99 LIG-0.34  N 
ATOM     25 H    PHE B 301     -17.450   3.764  10.994  1.00 41.99 LIG 0.16  HD
ATOM     26 O    PRO B 300     -14.647   3.193   9.982  1.00 39.52 LIG-0.27  OA
BRANCH 24 27
ATOM     27  CA  PHE B 301     -17.072   4.526   9.217  1.00 41.99 LIG 0.19  C 
BRANCH 27 28
ATOM     28  CB  PHE B 301     -17.463   3.570   8.068  1.00 39.59 LIG 0.07  C 
BRANCH 28 29
ATOM     29  CG  PHE B 301     -17.233   2.097   8.372  1.00 41.19 LIG-0.06  A 
ATOM     30  CD1 PHE B 301     -16.051   1.478   7.985  1.00 38.91 LIG 0.01  A 
ATOM     31  CE1 PHE B 301     -15.824   0.125   8.250  1.00 39.99 LIG 0.00  A 
ATOM     32  CZ  PHE B 301     -16.798  -0.631   8.883  1.00 37.57 LIG 0.00  A 
ATOM     33  CE2 PHE B 301     -17.989  -0.026   9.274  1.00 41.60 LIG 0.00  A 
ATOM     34  CD2 PHE B 301     -18.201   1.330   9.026  1.00 40.14 LIG 0.01  A 
ENDBRANCH 28 29
ENDBRANCH 27 28
BRANCH 27 35
ATOM     35  C   PHE B 301     -18.186   5.541   9.502  1.00 45.15 LIG 0.20  C 
ATOM     36 O    PHE B 301     -18.775   6.193   8.620  1.00 42.31 LIG-0.65  OA
ATOM     37 OXT  PHE B 301     -18.547   5.712  10.678  1.00 47.06 LIG-0.65  OA
ENDBRANCH 27 35
ENDBRANCH 24 27
ENDBRANCH 4 23
TORSDOF 12
ENDMDL
MODEL 30
USER: ADFR SOLUTION from run 171
USER: SCORE 15.622615 LL:  -4.469 LR: -11.251 RR:   0.000 FEB:  -7.672
USER: RMSD 2.987504
USER: SEED 170
USER: STATUS no improvement in best in 3 clusters for 5 generations
USER: GENES 14
USER: genes 0 Translation |==|  0.49355 0.55045 0.57618
USER: genes 1 Rotation |==|  0.55805 0.43759 0.63805 0.97295
USER: genes 2 Torsion [N]-C--CA-[N] |==|  0.43339
USER: genes 3 Torsion [C]-CA--CB-[CG] |==|  0.73451
USER: genes 4 Torsion [CA]-CB--CG-[CD2] |==|  0.55630
USER: genes 5 Torsion [C]-CA--N-[C] |==|  0.60728
USER: genes 6 Torsion [N]-C--CA-[N] |==|  0.42962
USER: genes 7 Torsion [C]-CA--CB-[CG] |==|  0.88127
USER: genes 8 Torsion [CA]-CB--CG-[OD2] |==|  0.33363
USER: genes 9 Torsion [N]-CA--C-[N] |==|  0.13368
USER: genes 10 Torsion [C]-N--CA-[CB] |==|  0.19787
USER: genes 11 Torsion [N]-CA--CB-[CG] |==|  0.10717
USER: genes 12 Torsion [CA]-CB--CG-[CD2] |==|  0.76751
USER: genes 13 Torsion [N]-CA--C-[O] |==|  0.54696
ROOT
ATOM      1  C   LEU B 299     -16.448   1.476  14.963  1.00 46.80 LIG 0.24  C 
ATOM      2 O    LEU B 299     -16.495   1.090  13.787  1.00 48.15 LIG-0.27  OA
ATOM      3  N   PRO B 300     -17.539   1.503  15.759  1.00 44.47 LIG-0.34  N 
ATOM      4  CA  PRO B 300     -18.858   1.103  15.239  1.00 41.25 LIG 0.18  C 
ATOM      5  CB  PRO B 300     -19.534   0.501  16.475  1.00 41.07 LIG 0.04  C 
ATOM      6  CG  PRO B 300     -18.970   1.318  17.628  1.00 41.88 LIG 0.02  C 
ATOM      7  CD  PRO B 300     -17.597   1.811  17.207  1.00 43.19 LIG 0.13  C 
ENDROOT
BRANCH 1 8
ATOM      8  CA  LEU B 299     -15.115   1.926  15.588  1.00 51.80 LIG 0.18  C 
BRANCH 8 9
ATOM      9  CB  LEU B 299     -15.036   3.449  15.704  1.00 51.70 LIG 0.04  C 
BRANCH 9 10
ATOM     10  CG  LEU B 299     -14.323   4.210  14.577  1.00 53.57 LIG-0.02  C 
ATOM     11  CD2 LEU B 299     -13.869   5.604  15.003  1.00 54.40 LIG 0.01  C 
ATOM     12  CD1 LEU B 299     -15.217   4.301  13.354  1.00 50.77 LIG 0.01  C 
ENDBRANCH 9 10
ENDBRANCH 8 9
BRANCH 8 13
ATOM     13  N   LEU B 299     -13.923   1.375  14.917  1.00 58.35 LIG-0.35  N 
ATOM     14  C   ASP B 298     -12.854   0.987  15.617  1.00 67.04 LIG 0.26  C 
ATOM     15 O    ASP B 298     -12.826   1.022  16.861  1.00 64.28 LIG-0.27  OA
ATOM     16 H    LEU B 299     -13.983   1.330  14.060  1.00 58.35 LIG 0.16  HD
BRANCH 14 17
ATOM     17  CA  ASP B 298     -11.619   0.477  14.822  1.00 70.29 LIG 0.41  C 
ATOM     18  N   ASP B 298     -10.317   0.625  15.544  1.00 66.44 LIG 0.61  N 
BRANCH 17 19
ATOM     19  CB  ASP B 298     -11.812  -0.973  14.324  1.00 75.12 LIG 0.16  C 
BRANCH 19 20
ATOM     20  CG  ASP B 298     -12.441  -1.896  15.378  1.00 83.78 LIG 0.17  C 
ATOM     21 OD2  ASP B 298     -13.531  -2.462  15.136  1.00 86.97 LIG-0.65  OA
ATOM     22 OD1  ASP B 298     -11.837  -2.057  16.461  1.00 89.47 LIG-0.65  OA
ENDBRANCH 19 20
ENDBRANCH 17 19
ENDBRANCH 14 17
ENDBRANCH 8 13
ENDBRANCH 1 8
BRANCH 4 23
ATOM     23  C   PRO B 300     -19.653   2.313  14.661  1.00 41.91 LIG 0.24  C 
ATOM     24  N   PHE B 301     -18.978   3.102  13.827  1.00 41.99 LIG-0.34  N 
ATOM     25 H    PHE B 301     -18.149   2.968  13.644  1.00 41.99 LIG 0.16  HD
ATOM     26 O    PRO B 300     -20.837   2.496  14.970  1.00 39.52 LIG-0.27  OA
BRANCH 24 27
ATOM     27  CA  PHE B 301     -19.534   4.271  13.127  1.00 41.99 LIG 0.19  C 
BRANCH 27 28
ATOM     28  CB  PHE B 301     -19.798   5.439  14.101  1.00 39.59 LIG 0.07  C 
BRANCH 28 29
ATOM     29  CG  PHE B 301     -18.739   5.609  15.180  1.00 41.19 LIG-0.06  A 
ATOM     30  CD1 PHE B 301     -17.697   6.509  15.003  1.00 38.91 LIG 0.01  A 
ATOM     31  CE1 PHE B 301     -16.712   6.675  15.980  1.00 39.99 LIG 0.00  A 
ATOM     32  CZ  PHE B 301     -16.746   5.912  17.137  1.00 37.57 LIG 0.00  A 
ATOM     33  CE2 PHE B 301     -17.782   5.002  17.328  1.00 41.60 LIG 0.00  A 
ATOM     34  CD2 PHE B 301     -18.775   4.857  16.358  1.00 40.14 LIG 0.01  A 
ENDBRANCH 28 29
ENDBRANCH 27 28
BRANCH 27 35
ATOM     35  C   PHE B 301     -18.565   4.681  12.012  1.00 45.15 LIG 0.20  C 
ATOM     36 O    PHE B 301     -18.587   5.789  11.443  1.00 42.31 LIG-0.65  OA
ATOM     37 OXT  PHE B 301     -17.685   3.877  11.664  1.00 47.06 LIG-0.65  OA
ENDBRANCH 27 35
ENDBRANCH 24 27
ENDBRANCH 4 23
TORSDOF 12
ENDMDL
MODEL 31
USER: ADFR SOLUTION from run 26
USER: SCORE 15.123782 LL:  -4.467 LR: -11.224 RR:   0.000 FEB:  -7.644
USER: RMSD 4.624932
USER: SEED 25
USER: STATUS no improvement in best in 14 clusters for 5 generations
USER: GENES 14
USER: genes 0 Translation |==|  0.48405 0.61570 0.66660
USER: genes 1 Rotation |==|  0.22438 0.81049 0.38987 0.75593
USER: genes 2 Torsion [N]-C--CA-[N] |==|  0.18115
USER: genes 3 Torsion [C]-CA--CB-[CG] |==|  0.21108
USER: genes 4 Torsion [CA]-CB--CG-[CD2] |==|  0.07572
USER: genes 5 Torsion [C]-CA--N-[C] |==|  0.67767
USER: genes 6 Torsion [N]-C--CA-[N] |==|  0.97586
USER: genes 7 Torsion [C]-CA--CB-[CG] |==|  0.80717
USER: genes 8 Torsion [CA]-CB--CG-[OD2] |==|  0.27985
USER: genes 9 Torsion [N]-CA--C-[N] |==|  0.08591
USER: genes 10 Torsion [C]-N--CA-[CB] |==|  0.29942
USER: genes 11 Torsion [N]-CA--CB-[CG] |==|  0.94330
USER: genes 12 Torsion [CA]-CB--CG-[CD2] |==|  0.26086
USER: genes 13 Torsion [N]-CA--C-[O] |==|  0.36374
ROOT
ATOM      1  C   LEU B 299     -16.612   2.651  16.252  1.00 46.80 LIG 0.24  C 
ATOM      2 O    LEU B 299     -17.343   2.755  17.248  1.00 48.15 LIG-0.27  OA
ATOM      3  N   PRO B 300     -16.221   3.722  15.529  1.00 44.47 LIG-0.34  N 
ATOM      4  CA  PRO B 300     -16.686   5.074  15.877  1.00 41.25 LIG 0.18  C 
ATOM      5  CB  PRO B 300     -15.501   5.951  15.459  1.00 41.07 LIG 0.04  C 
ATOM      6  CG  PRO B 300     -14.925   5.227  14.252  1.00 41.88 LIG 0.02  C 
ATOM      7  CD  PRO B 300     -15.252   3.752  14.408  1.00 43.19 LIG 0.13  C 
ENDROOT
BRANCH 1 8
ATOM      8  CA  LEU B 299     -16.089   1.274  15.805  1.00 51.80 LIG 0.18  C 
BRANCH 8 9
ATOM      9  CB  LEU B 299     -16.835   0.136  16.503  1.00 51.70 LIG 0.04  C 
BRANCH 9 10
ATOM     10  CG  LEU B 299     -18.253  -0.190  16.010  1.00 53.57 LIG-0.02  C 
ATOM     11  CD2 LEU B 299     -18.465   0.176  14.543  1.00 54.40 LIG 0.01  C 
ATOM     12  CD1 LEU B 299     -19.286   0.506  16.878  1.00 50.77 LIG 0.01  C 
ENDBRANCH 9 10
ENDBRANCH 8 9
BRANCH 8 13
ATOM     13  N   LEU B 299     -14.628   1.117  15.933  1.00 58.35 LIG-0.35  N 
ATOM     14  C   ASP B 298     -13.856   0.934  14.858  1.00 67.04 LIG 0.26  C 
ATOM     15 O    ASP B 298     -14.317   0.935  13.702  1.00 64.28 LIG-0.27  OA
ATOM     16 H    LEU B 299     -14.333   1.155  16.739  1.00 58.35 LIG 0.16  HD
BRANCH 14 17
ATOM     17  CA  ASP B 298     -12.335   0.716  15.094  1.00 70.29 LIG 0.41  C 
ATOM     18  N   ASP B 298     -11.891   0.943  16.504  1.00 66.44 LIG 0.61  N 
BRANCH 17 19
ATOM     19  CB  ASP B 298     -11.864  -0.664  14.582  1.00 75.12 LIG 0.16  C 
BRANCH 19 20
ATOM     20  CG  ASP B 298     -12.401  -1.834  15.418  1.00 83.78 LIG 0.17  C 
ATOM     21 OD2  ASP B 298     -13.379  -2.497  15.003  1.00 86.97 LIG-0.65  OA
ATOM     22 OD1  ASP B 298     -11.837  -2.096  16.503  1.00 89.47 LIG-0.65  OA
ENDBRANCH 19 20
ENDBRANCH 17 19
ENDBRANCH 14 17
ENDBRANCH 8 13
ENDBRANCH 1 8
BRANCH 4 23
ATOM     23  C   PRO B 300     -17.998   5.457  15.126  1.00 41.91 LIG 0.24  C 
ATOM     24  N   PHE B 301     -18.818   4.446  14.847  1.00 41.99 LIG-0.34  N 
ATOM     25 H    PHE B 301     -18.623   3.632  15.042  1.00 41.99 LIG 0.16  HD
ATOM     26 O    PRO B 300     -18.236   6.634  14.831  1.00 39.52 LIG-0.27  OA
BRANCH 24 27
ATOM     27  CA  PHE B 301     -20.129   4.573  14.189  1.00 41.99 LIG 0.19  C 
BRANCH 27 28
ATOM     28  CB  PHE B 301     -20.088   4.038  12.742  1.00 39.59 LIG 0.07  C 
BRANCH 28 29
ATOM     29  CG  PHE B 301     -18.692   3.963  12.139  1.00 41.19 LIG-0.06  A 
ATOM     30  CD1 PHE B 301     -18.146   5.068  11.500  1.00 38.91 LIG 0.01  A 
ATOM     31  CE1 PHE B 301     -16.868   5.017  10.936  1.00 39.99 LIG 0.00  A 
ATOM     32  CZ  PHE B 301     -16.136   3.841  10.982  1.00 37.57 LIG 0.00  A 
ATOM     33  CE2 PHE B 301     -16.672   2.724  11.616  1.00 41.60 LIG 0.00  A 
ATOM     34  CD2 PHE B 301     -17.939   2.788  12.196  1.00 40.14 LIG 0.01  A 
ENDBRANCH 28 29
ENDBRANCH 27 28
BRANCH 27 35
ATOM     35  C   PHE B 301     -21.174   3.830  15.030  1.00 45.15 LIG 0.20  C 
ATOM     36 O    PHE B 301     -22.268   4.318  15.371  1.00 42.31 LIG-0.65  OA
ATOM     37 OXT  PHE B 301     -20.935   2.662  15.377  1.00 47.06 LIG-0.65  OA
ENDBRANCH 27 35
ENDBRANCH 24 27
ENDBRANCH 4 23
TORSDOF 12
ENDMDL
MODEL 32
USER: ADFR SOLUTION from run 43
USER: SCORE 14.249803 LL:  -3.479 LR: -11.194 RR:   0.000 FEB:  -7.614
USER: RMSD 7.505983
USER: SEED 42
USER: STATUS no improvement in best in 21 clusters for 5 generations
USER: GENES 14
USER: genes 0 Translation |==|  0.54935 0.73608 0.59811
USER: genes 1 Rotation |==|  0.30662 0.25936 0.88945 0.55495
USER: genes 2 Torsion [N]-C--CA-[N] |==|  0.87644
USER: genes 3 Torsion [C]-CA--CB-[CG] |==|  0.01523
USER: genes 4 Torsion [CA]-CB--CG-[CD2] |==|  0.69090
USER: genes 5 Torsion [C]-CA--N-[C] |==|  0.88888
USER: genes 6 Torsion [N]-C--CA-[N] |==|  0.79674
USER: genes 7 Torsion [C]-CA--CB-[CG] |==|  0.40187
USER: genes 8 Torsion [CA]-CB--CG-[OD2] |==|  0.05605
USER: genes 9 Torsion [N]-CA--C-[N] |==|  0.92256
USER: genes 10 Torsion [C]-N--CA-[CB] |==|  0.13274
USER: genes 11 Torsion [N]-CA--CB-[CG] |==|  0.67202
USER: genes 12 Torsion [CA]-CB--CG-[CD2] |==|  0.27210
USER: genes 13 Torsion [N]-CA--C-[O] |==|  0.31845
ROOT
ATOM      1  C   LEU B 299     -15.486   4.817  15.276  1.00 46.80 LIG 0.24  C 
ATOM      2 O    LEU B 299     -14.485   5.398  15.721  1.00 48.15 LIG-0.27  OA
ATOM      3  N   PRO B 300     -15.562   3.472  15.194  1.00 44.47 LIG-0.34  N 
ATOM      4  CA  PRO B 300     -14.426   2.628  15.601  1.00 41.25 LIG 0.18  C 
ATOM      5  CB  PRO B 300     -15.120   1.369  16.129  1.00 41.07 LIG 0.04  C 
ATOM      6  CG  PRO B 300     -16.364   1.252  15.263  1.00 41.88 LIG 0.02  C 
ATOM      7  CD  PRO B 300     -16.736   2.653  14.811  1.00 43.19 LIG 0.13  C 
ENDROOT
BRANCH 1 8
ATOM      8  CA  LEU B 299     -16.716   5.619  14.813  1.00 51.80 LIG 0.18  C 
BRANCH 8 9
ATOM      9  CB  LEU B 299     -17.774   5.706  15.914  1.00 51.70 LIG 0.04  C 
BRANCH 9 10
ATOM     10  CG  LEU B 299     -17.415   5.128  17.291  1.00 53.57 LIG-0.02  C 
ATOM     11  CD2 LEU B 299     -18.214   3.873  17.630  1.00 54.40 LIG 0.01  C 
ATOM     12  CD1 LEU B 299     -17.607   6.178  18.370  1.00 50.77 LIG 0.01  C 
ENDBRANCH 9 10
ENDBRANCH 8 9
BRANCH 8 13
ATOM     13  N   LEU B 299     -17.298   5.144  13.544  1.00 58.35 LIG-0.35  N 
ATOM     14  C   ASP B 298     -16.519   4.755  12.531  1.00 67.04 LIG 0.26  C 
ATOM     15 O    ASP B 298     -15.278   4.726  12.621  1.00 64.28 LIG-0.27  OA
ATOM     16 H    LEU B 299     -18.157   5.142  13.522  1.00 58.35 LIG 0.16  HD
BRANCH 14 17
ATOM     17  CA  ASP B 298     -17.218   4.330  11.209  1.00 70.29 LIG 0.41  C 
ATOM     18  N   ASP B 298     -17.905   3.002  11.275  1.00 66.44 LIG 0.61  N 
BRANCH 17 19
ATOM     19  CB  ASP B 298     -18.176   5.422  10.685  1.00 75.12 LIG 0.16  C 
BRANCH 19 20
ATOM     20  CG  ASP B 298     -18.210   5.512   9.152  1.00 83.78 LIG 0.17  C 
ATOM     21 OD2  ASP B 298     -17.826   4.539   8.465  1.00 86.97 LIG-0.65  OA
ATOM     22 OD1  ASP B 298     -18.629   6.568   8.630  1.00 89.47 LIG-0.65  OA
ENDBRANCH 19 20
ENDBRANCH 17 19
ENDBRANCH 14 17
ENDBRANCH 8 13
ENDBRANCH 1 8
BRANCH 4 23
ATOM     23  C   PRO B 300     -13.467   2.320  14.411  1.00 41.91 LIG 0.24  C 
ATOM     24  N   PHE B 301     -14.027   2.317  13.204  1.00 41.99 LIG-0.34  N 
ATOM     25 H    PHE B 301     -14.869   2.447  13.092  1.00 41.99 LIG 0.16  HD
ATOM     26 O    PRO B 300     -12.264   2.105  14.609  1.00 39.52 LIG-0.27  OA
BRANCH 24 27
ATOM     27  CA  PHE B 301     -13.312   2.097  11.936  1.00 41.99 LIG 0.19  C 
BRANCH 27 28
ATOM     28  CB  PHE B 301     -12.382   0.868  12.018  1.00 39.59 LIG 0.07  C 
BRANCH 28 29
ATOM     29  CG  PHE B 301     -10.905   1.183  11.825  1.00 41.19 LIG-0.06  A 
ATOM     30  CD1 PHE B 301     -10.377   1.304  10.547  1.00 38.91 LIG 0.01  A 
ATOM     31  CE1 PHE B 301      -9.023   1.587  10.349  1.00 39.99 LIG 0.00  A 
ATOM     32  CZ  PHE B 301      -8.176   1.723  11.438  1.00 37.57 LIG 0.00  A 
ATOM     33  CE2 PHE B 301      -8.691   1.602  12.726  1.00 41.60 LIG 0.00  A 
ATOM     34  CD2 PHE B 301     -10.047   1.340  12.917  1.00 40.14 LIG 0.01  A 
ENDBRANCH 28 29
ENDBRANCH 27 28
BRANCH 27 35
ATOM     35  C   PHE B 301     -14.344   1.944  10.812  1.00 45.15 LIG 0.20  C 
ATOM     36 O    PHE B 301     -14.470   2.749   9.869  1.00 42.31 LIG-0.65  OA
ATOM     37 OXT  PHE B 301     -15.086   0.949  10.818  1.00 47.06 LIG-0.65  OA
ENDBRANCH 27 35
ENDBRANCH 24 27
ENDBRANCH 4 23
TORSDOF 12
ENDMDL
MODEL 33
USER: ADFR SOLUTION from run 182
USER: SCORE 15.162851 LL:  -4.500 LR: -11.153 RR:   0.000 FEB:  -7.573
USER: RMSD 4.564877
USER: SEED 181
USER: STATUS no improvement in best in 16 clusters for 5 generations
USER: GENES 14
USER: genes 0 Translation |==|  0.48910 0.57369 0.44941
USER: genes 1 Rotation |==|  0.67574 0.66724 0.63272 0.91657
USER: genes 2 Torsion [N]-C--CA-[N] |==|  0.15424
USER: genes 3 Torsion [C]-CA--CB-[CG] |==|  0.24290
USER: genes 4 Torsion [CA]-CB--CG-[CD2] |==|  0.80745
USER: genes 5 Torsion [C]-CA--N-[C] |==|  0.64851
USER: genes 6 Torsion [N]-C--CA-[N] |==|  0.21669
USER: genes 7 Torsion [C]-CA--CB-[CG] |==|  0.57230
USER: genes 8 Torsion [CA]-CB--CG-[OD2] |==|  0.38500
USER: genes 9 Torsion [N]-CA--C-[N] |==|  0.12353
USER: genes 10 Torsion [C]-N--CA-[CB] |==|  0.34092
USER: genes 11 Torsion [N]-CA--CB-[CG] |==|  0.95348
USER: genes 12 Torsion [CA]-CB--CG-[CD2] |==|  0.26631
USER: genes 13 Torsion [N]-CA--C-[O] |==|  0.54415
ROOT
ATOM      1  C   LEU B 299     -16.525   1.894  13.157  1.00 46.80 LIG 0.24  C 
ATOM      2 O    LEU B 299     -17.533   1.617  12.492  1.00 48.15 LIG-0.27  OA
ATOM      3  N   PRO B 300     -16.394   1.537  14.453  1.00 44.47 LIG-0.34  N 
ATOM      4  CA  PRO B 300     -17.477   0.826  15.150  1.00 41.25 LIG 0.18  C 
ATOM      5  CB  PRO B 300     -16.713  -0.052  16.146  1.00 41.07 LIG 0.04  C 
ATOM      6  CG  PRO B 300     -15.495   0.786  16.503  1.00 41.88 LIG 0.02  C 
ATOM      7  CD  PRO B 300     -15.199   1.686  15.316  1.00 43.19 LIG 0.13  C 
ENDROOT
BRANCH 1 8
ATOM      8  CA  LEU B 299     -15.347   2.649  12.515  1.00 51.80 LIG 0.18  C 
BRANCH 8 9
ATOM      9  CB  LEU B 299     -15.657   3.049  11.072  1.00 51.70 LIG 0.04  C 
BRANCH 9 10
ATOM     10  CG  LEU B 299     -16.373   4.389  10.845  1.00 53.57 LIG-0.02  C 
ATOM     11  CD2 LEU B 299     -17.820   4.372  11.331  1.00 54.40 LIG 0.01  C 
ATOM     12  CD1 LEU B 299     -16.317   4.774   9.378  1.00 50.77 LIG 0.01  C 
ENDBRANCH 9 10
ENDBRANCH 8 9
BRANCH 8 13
ATOM     13  N   LEU B 299     -14.057   1.941  12.613  1.00 58.35 LIG-0.35  N 
ATOM     14  C   ASP B 298     -12.979   2.537  13.129  1.00 67.04 LIG 0.26  C 
ATOM     15 O    ASP B 298     -13.018   3.690  13.595  1.00 64.28 LIG-0.27  OA
ATOM     16 H    LEU B 299     -14.068   1.134  12.315  1.00 58.35 LIG 0.16  HD
BRANCH 14 17
ATOM     17  CA  ASP B 298     -11.647   1.735  13.134  1.00 70.29 LIG 0.41  C 
ATOM     18  N   ASP B 298     -10.948   1.693  11.812  1.00 66.44 LIG 0.61  N 
BRANCH 17 19
ATOM     19  CB  ASP B 298     -10.690   2.214  14.249  1.00 75.12 LIG 0.16  C 
BRANCH 19 20
ATOM     20  CG  ASP B 298      -9.211   1.950  13.931  1.00 83.78 LIG 0.17  C 
ATOM     21 OD2  ASP B 298      -8.354   2.821  14.199  1.00 86.97 LIG-0.65  OA
ATOM     22 OD1  ASP B 298      -8.903   0.856  13.408  1.00 89.47 LIG-0.65  OA
ENDBRANCH 19 20
ENDBRANCH 17 19
ENDBRANCH 14 17
ENDBRANCH 8 13
ENDBRANCH 1 8
BRANCH 4 23
ATOM     23  C   PRO B 300     -18.463   1.804  15.859  1.00 41.91 LIG 0.24  C 
ATOM     24  N   PHE B 301     -18.836   2.864  15.145  1.00 41.99 LIG-0.34  N 
ATOM     25 H    PHE B 301     -18.530   3.014  14.356  1.00 41.99 LIG 0.16  HD
ATOM     26 O    PRO B 300     -18.861   1.576  17.008  1.00 39.52 LIG-0.27  OA
BRANCH 24 27
ATOM     27  CA  PHE B 301     -19.791   3.893  15.589  1.00 41.99 LIG 0.19  C 
BRANCH 27 28
ATOM     28  CB  PHE B 301     -19.158   5.301  15.558  1.00 39.59 LIG 0.07  C 
BRANCH 28 29
ATOM     29  CG  PHE B 301     -17.638   5.305  15.482  1.00 41.19 LIG-0.06  A 
ATOM     30  CD1 PHE B 301     -16.879   5.201  16.640  1.00 38.91 LIG 0.01  A 
ATOM     31  CE1 PHE B 301     -15.483   5.209  16.590  1.00 39.99 LIG 0.00  A 
ATOM     32  CZ  PHE B 301     -14.831   5.350  15.375  1.00 37.57 LIG 0.00  A 
ATOM     33  CE2 PHE B 301     -15.579   5.459  14.205  1.00 41.60 LIG 0.00  A 
ATOM     34  CD2 PHE B 301     -16.973   5.429  14.259  1.00 40.14 LIG 0.01  A 
ENDBRANCH 28 29
ENDBRANCH 27 28
BRANCH 27 35
ATOM     35  C   PHE B 301     -21.038   3.821  14.700  1.00 45.15 LIG 0.20  C 
ATOM     36 O    PHE B 301     -21.894   4.722  14.628  1.00 42.31 LIG-0.65  OA
ATOM     37 OXT  PHE B 301     -21.201   2.819  13.986  1.00 47.06 LIG-0.65  OA
ENDBRANCH 27 35
ENDBRANCH 24 27
ENDBRANCH 4 23
TORSDOF 12
ENDMDL
MODEL 34
USER: ADFR SOLUTION from run 102
USER: SCORE 14.238839 LL:  -4.089 LR: -11.095 RR:   0.000 FEB:  -7.515
USER: RMSD 4.823479
USER: SEED 101
USER: STATUS no improvement in best in 12 clusters for 5 generations
USER: GENES 14
USER: genes 0 Translation |==|  0.57480 0.67410 0.59978
USER: genes 1 Rotation |==|  0.17750 0.74023 0.72564 0.69331
USER: genes 2 Torsion [N]-C--CA-[N] |==|  0.49215
USER: genes 3 Torsion [C]-CA--CB-[CG] |==|  0.42686
USER: genes 4 Torsion [CA]-CB--CG-[CD2] |==|  0.70304
USER: genes 5 Torsion [C]-CA--N-[C] |==|  0.17222
USER: genes 6 Torsion [N]-C--CA-[N] |==|  0.20624
USER: genes 7 Torsion [C]-CA--CB-[CG] |==|  0.77627
USER: genes 8 Torsion [CA]-CB--CG-[OD2] |==|  0.40948
USER: genes 9 Torsion [N]-CA--C-[N] |==|  0.09678
USER: genes 10 Torsion [C]-N--CA-[CB] |==|  0.20612
USER: genes 11 Torsion [N]-CA--CB-[CG] |==|  0.05397
USER: genes 12 Torsion [CA]-CB--CG-[CD2] |==|  0.21389
USER: genes 13 Torsion [N]-CA--C-[O] |==|  0.07576
ROOT
ATOM      1  C   LEU B 299     -15.047   3.702  15.300  1.00 46.80 LIG 0.24  C 
ATOM      2 O    LEU B 299     -14.461   3.049  16.176  1.00 48.15 LIG-0.27  OA
ATOM      3  N   PRO B 300     -16.046   4.563  15.588  1.00 44.47 LIG-0.34  N 
ATOM      4  CA  PRO B 300     -16.513   4.736  16.973  1.00 41.25 LIG 0.18  C 
ATOM      5  CB  PRO B 300     -16.945   6.206  16.998  1.00 41.07 LIG 0.04  C 
ATOM      6  CG  PRO B 300     -17.462   6.453  15.589  1.00 41.88 LIG 0.02  C 
ATOM      7  CD  PRO B 300     -16.733   5.495  14.663  1.00 43.19 LIG 0.13  C 
ENDROOT
BRANCH 1 8
ATOM      8  CA  LEU B 299     -14.635   3.575  13.822  1.00 51.80 LIG 0.18  C 
BRANCH 8 9
ATOM      9  CB  LEU B 299     -15.828   3.208  12.938  1.00 51.70 LIG 0.04  C 
BRANCH 9 10
ATOM     10  CG  LEU B 299     -15.774   3.632  11.462  1.00 53.57 LIG-0.02  C 
ATOM     11  CD2 LEU B 299     -16.713   4.793  11.148  1.00 54.40 LIG 0.01  C 
ATOM     12  CD1 LEU B 299     -16.085   2.449  10.563  1.00 50.77 LIG 0.01  C 
ENDBRANCH 9 10
ENDBRANCH 8 9
BRANCH 8 13
ATOM     13  N   LEU B 299     -13.496   2.666  13.593  1.00 58.35 LIG-0.35  N 
ATOM     14  C   ASP B 298     -13.574   1.369  13.902  1.00 67.04 LIG 0.26  C 
ATOM     15 O    ASP B 298     -14.617   0.855  14.346  1.00 64.28 LIG-0.27  OA
ATOM     16 H    LEU B 299     -12.801   3.042  13.254  1.00 58.35 LIG 0.16  HD
BRANCH 14 17
ATOM     17  CA  ASP B 298     -12.304   0.500  13.685  1.00 70.29 LIG 0.41  C 
ATOM     18  N   ASP B 298     -11.227   0.721  14.700  1.00 66.44 LIG 0.61  N 
BRANCH 17 19
ATOM     19  CB  ASP B 298     -12.646  -1.001  13.560  1.00 75.12 LIG 0.16  C 
BRANCH 19 20
ATOM     20  CG  ASP B 298     -12.870  -1.685  14.917  1.00 83.78 LIG 0.17  C 
ATOM     21 OD2  ASP B 298     -13.694  -2.623  15.011  1.00 86.97 LIG-0.65  OA
ATOM     22 OD1  ASP B 298     -12.213  -1.280  15.901  1.00 89.47 LIG-0.65  OA
ENDBRANCH 19 20
ENDBRANCH 17 19
ENDBRANCH 14 17
ENDBRANCH 8 13
ENDBRANCH 1 8
BRANCH 4 23
ATOM     23  C   PRO B 300     -17.685   3.770  17.324  1.00 41.91 LIG 0.24  C 
ATOM     24  N   PHE B 301     -17.632   2.568  16.754  1.00 41.99 LIG-0.34  N 
ATOM     25 H    PHE B 301     -17.007   2.350  16.205  1.00 41.99 LIG 0.16  HD
ATOM     26 O    PRO B 300     -18.587   4.125  18.092  1.00 39.52 LIG-0.27  OA
BRANCH 24 27
ATOM     27  CA  PHE B 301     -18.599   1.480  16.974  1.00 41.99 LIG 0.19  C 
BRANCH 27 28
ATOM     28  CB  PHE B 301     -19.934   1.757  16.249  1.00 39.59 LIG 0.07  C 
BRANCH 28 29
ATOM     29  CG  PHE B 301     -19.840   2.784  15.129  1.00 41.19 LIG-0.06  A 
ATOM     30  CD1 PHE B 301     -20.313   4.075  15.321  1.00 38.91 LIG 0.01  A 
ATOM     31  CE1 PHE B 301     -20.239   5.029  14.303  1.00 39.99 LIG 0.00  A 
ATOM     32  CZ  PHE B 301     -19.715   4.686  13.066  1.00 37.57 LIG 0.00  A 
ATOM     33  CE2 PHE B 301     -19.241   3.394  12.857  1.00 41.60 LIG 0.00  A 
ATOM     34  CD2 PHE B 301     -19.297   2.452  13.885  1.00 40.14 LIG 0.01  A 
ENDBRANCH 28 29
ENDBRANCH 27 28
BRANCH 27 35
ATOM     35  C   PHE B 301     -17.971   0.163  16.503  1.00 45.15 LIG 0.20  C 
ATOM     36 O    PHE B 301     -16.745  -0.055  16.483  1.00 42.31 LIG-0.65  OA
ATOM     37 OXT  PHE B 301     -18.722  -0.757  16.141  1.00 47.06 LIG-0.65  OA
ENDBRANCH 27 35
ENDBRANCH 24 27
ENDBRANCH 4 23
TORSDOF 12
ENDMDL
MODEL 35
USER: ADFR SOLUTION from run 196
USER: SCORE 13.795612 LL:  -3.140 LR: -11.062 RR:   0.000 FEB:  -7.483
USER: RMSD 6.285618
USER: SEED 195
USER: STATUS no improvement in best in 8 clusters for 5 generations
USER: GENES 14
USER: genes 0 Translation |==|  0.42264 0.72903 0.54023
USER: genes 1 Rotation |==|  0.32465 0.60773 0.05699 0.60672
USER: genes 2 Torsion [N]-C--CA-[N] |==|  0.85276
USER: genes 3 Torsion [C]-CA--CB-[CG] |==|  0.07470
USER: genes 4 Torsion [CA]-CB--CG-[CD2] |==|  0.75314
USER: genes 5 Torsion [C]-CA--N-[C] |==|  0.68382
USER: genes 6 Torsion [N]-C--CA-[N] |==|  0.76817
USER: genes 7 Torsion [C]-CA--CB-[CG] |==|  0.73989
USER: genes 8 Torsion [CA]-CB--CG-[OD2] |==|  0.29739
USER: genes 9 Torsion [N]-CA--C-[N] |==|  0.20780
USER: genes 10 Torsion [C]-N--CA-[CB] |==|  0.26616
USER: genes 11 Torsion [N]-CA--CB-[CG] |==|  0.57418
USER: genes 12 Torsion [CA]-CB--CG-[CD2] |==|  0.97736
USER: genes 13 Torsion [N]-CA--C-[O] |==|  0.99612
ROOT
ATOM      1  C   LEU B 299     -17.671   4.691  14.451  1.00 46.80 LIG 0.24  C 
ATOM      2 O    LEU B 299     -18.098   5.610  13.738  1.00 48.15 LIG-0.27  OA
ATOM      3  N   PRO B 300     -16.416   4.207  14.332  1.00 44.47 LIG-0.34  N 
ATOM      4  CA  PRO B 300     -15.501   4.736  13.308  1.00 41.25 LIG 0.18  C 
ATOM      5  CB  PRO B 300     -14.132   4.598  13.982  1.00 41.07 LIG 0.04  C 
ATOM      6  CG  PRO B 300     -14.275   3.348  14.836  1.00 41.88 LIG 0.02  C 
ATOM      7  CD  PRO B 300     -15.743   3.212  15.200  1.00 43.19 LIG 0.13  C 
ENDROOT
BRANCH 1 8
ATOM      8  CA  LEU B 299     -18.563   4.066  15.540  1.00 51.80 LIG 0.18  C 
BRANCH 8 9
ATOM      9  CB  LEU B 299     -18.153   4.536  16.937  1.00 51.70 LIG 0.04  C 
BRANCH 9 10
ATOM     10  CG  LEU B 299     -17.467   5.905  17.052  1.00 53.57 LIG-0.02  C 
ATOM     11  CD2 LEU B 299     -15.950   5.818  16.907  1.00 54.40 LIG 0.01  C 
ATOM     12  CD1 LEU B 299     -17.830   6.567  18.369  1.00 50.77 LIG 0.01  C 
ENDBRANCH 9 10
ENDBRANCH 8 9
BRANCH 8 13
ATOM     13  N   LEU B 299     -18.653   2.596  15.471  1.00 58.35 LIG-0.35  N 
ATOM     14  C   ASP B 298     -19.804   1.988  15.173  1.00 67.04 LIG 0.26  C 
ATOM     15 O    ASP B 298     -20.837   2.623  14.892  1.00 64.28 LIG-0.27  OA
ATOM     16 H    LEU B 299     -17.917   2.184  15.635  1.00 58.35 LIG 0.16  HD
BRANCH 14 17
ATOM     17  CA  ASP B 298     -19.821   0.434  15.184  1.00 70.29 LIG 0.41  C 
ATOM     18  N   ASP B 298     -19.332  -0.197  13.919  1.00 66.44 LIG 0.61  N 
BRANCH 17 19
ATOM     19  CB  ASP B 298     -19.079  -0.142  16.411  1.00 75.12 LIG 0.16  C 
BRANCH 19 20
ATOM     20  CG  ASP B 298     -17.606  -0.469  16.128  1.00 83.78 LIG 0.17  C 
ATOM     21 OD2  ASP B 298     -16.706   0.260  16.604  1.00 86.97 LIG-0.65  OA
ATOM     22 OD1  ASP B 298     -17.345  -1.468  15.423  1.00 89.47 LIG-0.65  OA
ENDBRANCH 19 20
ENDBRANCH 17 19
ENDBRANCH 14 17
ENDBRANCH 8 13
ENDBRANCH 1 8
BRANCH 4 23
ATOM     23  C   PRO B 300     -15.586   3.934  11.973  1.00 41.91 LIG 0.24  C 
ATOM     24  N   PHE B 301     -16.667   4.163  11.231  1.00 41.99 LIG-0.34  N 
ATOM     25 H    PHE B 301     -17.291   4.696  11.486  1.00 41.99 LIG 0.16  HD
ATOM     26 O    PRO B 300     -14.685   3.150  11.649  1.00 39.52 LIG-0.27  OA
BRANCH 24 27
ATOM     27  CA  PHE B 301     -16.938   3.558   9.916  1.00 41.99 LIG 0.19  C 
BRANCH 27 28
ATOM     28  CB  PHE B 301     -17.837   2.309  10.044  1.00 39.59 LIG 0.07  C 
BRANCH 28 29
ATOM     29  CG  PHE B 301     -17.658   1.290   8.927  1.00 41.19 LIG-0.06  A 
ATOM     30  CD1 PHE B 301     -18.262   0.043   9.015  1.00 38.91 LIG 0.01  A 
ATOM     31  CE1 PHE B 301     -18.105  -0.908   8.004  1.00 39.99 LIG 0.00  A 
ATOM     32  CZ  PHE B 301     -17.311  -0.625   6.902  1.00 37.57 LIG 0.00  A 
ATOM     33  CE2 PHE B 301     -16.696   0.620   6.802  1.00 41.60 LIG 0.00  A 
ATOM     34  CD2 PHE B 301     -16.875   1.572   7.805  1.00 40.14 LIG 0.01  A 
ENDBRANCH 28 29
ENDBRANCH 27 28
BRANCH 27 35
ATOM     35  C   PHE B 301     -17.579   4.618   9.012  1.00 45.15 LIG 0.20  C 
ATOM     36 O    PHE B 301     -17.837   5.780   9.378  1.00 42.31 LIG-0.65  OA
ATOM     37 OXT  PHE B 301     -17.837   4.318   7.835  1.00 47.06 LIG-0.65  OA
ENDBRANCH 27 35
ENDBRANCH 24 27
ENDBRANCH 4 23
TORSDOF 12
ENDMDL
MODEL 36
USER: ADFR SOLUTION from run 155
USER: SCORE 14.388844 LL:  -3.818 LR: -11.038 RR:   0.000 FEB:  -7.459
USER: RMSD 5.874856
USER: SEED 154
USER: STATUS no improvement in best in 8 clusters for 5 generations
USER: GENES 14
USER: genes 0 Translation |==|  0.40326 0.62767 0.40529
USER: genes 1 Rotation |==|  0.27222 0.13375 0.38689 0.72622
USER: genes 2 Torsion [N]-C--CA-[N] |==|  0.52765
USER: genes 3 Torsion [C]-CA--CB-[CG] |==|  0.44448
USER: genes 4 Torsion [CA]-CB--CG-[CD2] |==|  0.26962
USER: genes 5 Torsion [C]-CA--N-[C] |==|  0.67991
USER: genes 6 Torsion [N]-C--CA-[N] |==|  0.68945
USER: genes 7 Torsion [C]-CA--CB-[CG] |==|  0.77355
USER: genes 8 Torsion [CA]-CB--CG-[OD2] |==|  0.47050
USER: genes 9 Torsion [N]-CA--C-[N] |==|  0.10747
USER: genes 10 Torsion [C]-N--CA-[CB] |==|  0.49748
USER: genes 11 Torsion [N]-CA--CB-[CG] |==|  0.84967
USER: genes 12 Torsion [CA]-CB--CG-[CD2] |==|  0.84734
USER: genes 13 Torsion [N]-CA--C-[O] |==|  0.88641
ROOT
ATOM      1  C   LEU B 299     -18.006   2.866  12.528  1.00 46.80 LIG 0.24  C 
ATOM      2 O    LEU B 299     -17.860   1.635  12.543  1.00 48.15 LIG-0.27  OA
ATOM      3  N   PRO B 300     -17.670   3.620  11.459  1.00 44.47 LIG-0.34  N 
ATOM      4  CA  PRO B 300     -17.072   3.004  10.264  1.00 41.25 LIG 0.18  C 
ATOM      5  CB  PRO B 300     -17.595   3.896   9.133  1.00 41.07 LIG 0.04  C 
ATOM      6  CG  PRO B 300     -17.687   5.272   9.773  1.00 41.88 LIG 0.02  C 
ATOM      7  CD  PRO B 300     -17.913   5.068  11.261  1.00 43.19 LIG 0.13  C 
ENDROOT
BRANCH 1 8
ATOM      8  CA  LEU B 299     -18.610   3.598  13.740  1.00 51.80 LIG 0.18  C 
BRANCH 8 9
ATOM      9  CB  LEU B 299     -17.862   4.898  14.041  1.00 51.70 LIG 0.04  C 
BRANCH 9 10
ATOM     10  CG  LEU B 299     -18.590   5.958  14.881  1.00 53.57 LIG-0.02  C 
ATOM     11  CD2 LEU B 299     -18.212   5.899  16.358  1.00 54.40 LIG 0.01  C 
ATOM     12  CD1 LEU B 299     -20.092   5.818  14.718  1.00 50.77 LIG 0.01  C 
ENDBRANCH 9 10
ENDBRANCH 8 9
BRANCH 8 13
ATOM     13  N   LEU B 299     -18.736   2.758  14.946  1.00 58.35 LIG-0.35  N 
ATOM     14  C   ASP B 298     -19.934   2.455  15.454  1.00 67.04 LIG 0.26  C 
ATOM     15 O    ASP B 298     -20.995   2.818  14.914  1.00 64.28 LIG-0.27  OA
ATOM     16 H    LEU B 299     -17.989   2.493  15.277  1.00 58.35 LIG 0.16  HD
BRANCH 14 17
ATOM     17  CA  ASP B 298     -19.969   1.616  16.762  1.00 70.29 LIG 0.41  C 
ATOM     18  N   ASP B 298     -20.508   0.231  16.592  1.00 66.44 LIG 0.61  N 
BRANCH 17 19
ATOM     19  CB  ASP B 298     -18.595   1.591  17.468  1.00 75.12 LIG 0.16  C 
BRANCH 19 20
ATOM     20  CG  ASP B 298     -17.627   0.559  16.872  1.00 83.78 LIG 0.17  C 
ATOM     21 OD2  ASP B 298     -16.422   0.568  17.211  1.00 86.97 LIG-0.65  OA
ATOM     22 OD1  ASP B 298     -18.078  -0.273  16.054  1.00 89.47 LIG-0.65  OA
ENDBRANCH 19 20
ENDBRANCH 17 19
ENDBRANCH 14 17
ENDBRANCH 8 13
ENDBRANCH 1 8
BRANCH 4 23
ATOM     23  C   PRO B 300     -15.514   2.985  10.328  1.00 41.91 LIG 0.24  C 
ATOM     24  N   PHE B 301     -14.990   2.726  11.524  1.00 41.99 LIG-0.34  N 
ATOM     25 H    PHE B 301     -15.479   2.606  12.220  1.00 41.99 LIG 0.16  HD
ATOM     26 O    PRO B 300     -14.838   3.193   9.313  1.00 39.52 LIG-0.27  OA
BRANCH 24 27
ATOM     27  CA  PHE B 301     -13.551   2.611  11.813  1.00 41.99 LIG 0.19  C 
BRANCH 27 28
ATOM     28  CB  PHE B 301     -13.297   2.325  13.309  1.00 39.59 LIG 0.07  C 
BRANCH 28 29
ATOM     29  CG  PHE B 301     -13.947   3.322  14.258  1.00 41.19 LIG-0.06  A 
ATOM     30  CD1 PHE B 301     -14.811   2.881  15.251  1.00 38.91 LIG 0.01  A 
ATOM     31  CE1 PHE B 301     -15.422   3.780  16.128  1.00 39.99 LIG 0.00  A 
ATOM     32  CZ  PHE B 301     -15.194   5.142  15.997  1.00 37.57 LIG 0.00  A 
ATOM     33  CE2 PHE B 301     -14.333   5.600  15.003  1.00 41.60 LIG 0.00  A 
ATOM     34  CD2 PHE B 301     -13.709   4.694  14.144  1.00 40.14 LIG 0.01  A 
ENDBRANCH 28 29
ENDBRANCH 27 28
BRANCH 27 35
ATOM     35  C   PHE B 301     -12.959   1.510  10.925  1.00 45.15 LIG 0.20  C 
ATOM     36 O    PHE B 301     -13.527   0.427  10.688  1.00 42.31 LIG-0.65  OA
ATOM     37 OXT  PHE B 301     -11.858   1.709  10.386  1.00 47.06 LIG-0.65  OA
ENDBRANCH 27 35
ENDBRANCH 24 27
ENDBRANCH 4 23
TORSDOF 12
ENDMDL
MODEL 37
USER: ADFR SOLUTION from run 62
USER: SCORE 14.513907 LL:  -3.780 LR: -11.014 RR:   0.000 FEB:  -7.434
USER: RMSD 4.644455
USER: SEED 61
USER: STATUS no improvement in best in 17 clusters for 5 generations
USER: GENES 14
USER: genes 0 Translation |==|  0.30397 0.63332 0.50040
USER: genes 1 Rotation |==|  0.39742 0.50549 0.15309 0.84511
USER: genes 2 Torsion [N]-C--CA-[N] |==|  0.85000
USER: genes 3 Torsion [C]-CA--CB-[CG] |==|  0.58862
USER: genes 4 Torsion [CA]-CB--CG-[CD2] |==|  0.21131
USER: genes 5 Torsion [C]-CA--N-[C] |==|  0.83771
USER: genes 6 Torsion [N]-C--CA-[N] |==|  0.53868
USER: genes 7 Torsion [C]-CA--CB-[CG] |==|  0.48730
USER: genes 8 Torsion [CA]-CB--CG-[OD2] |==|  0.93629
USER: genes 9 Torsion [N]-CA--C-[N] |==|  0.22130
USER: genes 10 Torsion [C]-N--CA-[CB] |==|  0.28422
USER: genes 11 Torsion [N]-CA--CB-[CG] |==|  0.76293
USER: genes 12 Torsion [CA]-CB--CG-[CD2] |==|  0.11683
USER: genes 13 Torsion [N]-CA--C-[O] |==|  0.14078
ROOT
ATOM      1  C   LEU B 299     -19.718   2.968  13.884  1.00 46.80 LIG 0.24  C 
ATOM      2 O    LEU B 299     -20.483   3.285  12.961  1.00 48.15 LIG-0.27  OA
ATOM      3  N   PRO B 300     -18.755   3.797  14.340  1.00 44.47 LIG-0.34  N 
ATOM      4  CA  PRO B 300     -18.546   5.117  13.725  1.00 41.25 LIG 0.18  C 
ATOM      5  CB  PRO B 300     -18.066   5.964  14.908  1.00 41.07 LIG 0.04  C 
ATOM      6  CG  PRO B 300     -17.287   4.977  15.764  1.00 41.88 LIG 0.02  C 
ATOM      7  CD  PRO B 300     -17.870   3.598  15.512  1.00 43.19 LIG 0.13  C 
ENDROOT
BRANCH 1 8
ATOM      8  CA  LEU B 299     -19.854   1.600  14.578  1.00 51.80 LIG 0.18  C 
BRANCH 8 9
ATOM      9  CB  LEU B 299     -20.475   1.737  15.969  1.00 51.70 LIG 0.04  C 
BRANCH 9 10
ATOM     10  CG  LEU B 299     -20.031   0.736  17.046  1.00 53.57 LIG-0.02  C 
ATOM     11  CD2 LEU B 299     -18.644   1.047  17.603  1.00 54.40 LIG 0.01  C 
ATOM     12  CD1 LEU B 299     -20.070  -0.679  16.498  1.00 50.77 LIG 0.01  C 
ENDBRANCH 9 10
ENDBRANCH 8 9
BRANCH 8 13
ATOM     13  N   LEU B 299     -18.600   0.824  14.622  1.00 58.35 LIG-0.35  N 
ATOM     14  C   ASP B 298     -17.955   0.492  13.502  1.00 67.04 LIG 0.26  C 
ATOM     15 O    ASP B 298     -18.344   0.857  12.377  1.00 64.28 LIG-0.27  OA
ATOM     16 H    LEU B 299     -18.336   0.615  15.413  1.00 58.35 LIG 0.16  HD
BRANCH 14 17
ATOM     17  CA  ASP B 298     -16.676  -0.381  13.640  1.00 70.29 LIG 0.41  C 
ATOM     18  N   ASP B 298     -15.833  -0.439  12.405  1.00 66.44 LIG 0.61  N 
BRANCH 17 19
ATOM     19  CB  ASP B 298     -15.830   0.026  14.867  1.00 75.12 LIG 0.16  C 
BRANCH 19 20
ATOM     20  CG  ASP B 298     -14.618  -0.889  15.096  1.00 83.78 LIG 0.17  C 
ATOM     21 OD2  ASP B 298     -14.622  -2.052  14.634  1.00 86.97 LIG-0.65  OA
ATOM     22 OD1  ASP B 298     -13.649  -0.437  15.746  1.00 89.47 LIG-0.65  OA
ENDBRANCH 19 20
ENDBRANCH 17 19
ENDBRANCH 14 17
ENDBRANCH 8 13
ENDBRANCH 1 8
BRANCH 4 23
ATOM     23  C   PRO B 300     -17.500   5.069  12.570  1.00 41.91 LIG 0.24  C 
ATOM     24  N   PHE B 301     -17.951   4.616  11.402  1.00 41.99 LIG-0.34  N 
ATOM     25 H    PHE B 301     -18.759   4.341  11.300  1.00 41.99 LIG 0.16  HD
ATOM     26 O    PRO B 300     -16.336   5.443  12.756  1.00 39.52 LIG-0.27  OA
BRANCH 24 27
ATOM     27  CA  PHE B 301     -17.160   4.526  10.163  1.00 41.99 LIG 0.19  C 
BRANCH 27 28
ATOM     28  CB  PHE B 301     -16.702   3.077   9.891  1.00 39.59 LIG 0.07  C 
BRANCH 28 29
ATOM     29  CG  PHE B 301     -15.411   2.684  10.596  1.00 41.19 LIG-0.06  A 
ATOM     30  CD1 PHE B 301     -14.455   1.927   9.932  1.00 38.91 LIG 0.01  A 
ATOM     31  CE1 PHE B 301     -13.266   1.552  10.564  1.00 39.99 LIG 0.00  A 
ATOM     32  CZ  PHE B 301     -13.039   1.909  11.885  1.00 37.57 LIG 0.00  A 
ATOM     33  CE2 PHE B 301     -13.991   2.664  12.564  1.00 41.60 LIG 0.00  A 
ATOM     34  CD2 PHE B 301     -15.166   3.054  11.921  1.00 40.14 LIG 0.01  A 
ENDBRANCH 28 29
ENDBRANCH 27 28
BRANCH 27 35
ATOM     35  C   PHE B 301     -18.002   5.073   9.004  1.00 45.15 LIG 0.20  C 
ATOM     36 O    PHE B 301     -18.583   6.175   9.025  1.00 42.31 LIG-0.65  OA
ATOM     37 OXT  PHE B 301     -18.095   4.397   7.967  1.00 47.06 LIG-0.65  OA
ENDBRANCH 27 35
ENDBRANCH 24 27
ENDBRANCH 4 23
TORSDOF 12
ENDMDL
MODEL 38
USER: ADFR SOLUTION from run 52
USER: SCORE 13.861418 LL:  -3.267 LR: -11.010 RR:   0.000 FEB:  -7.430
USER: RMSD 6.329356
USER: SEED 51
USER: STATUS no improvement in best in 9 clusters for 5 generations
USER: GENES 14
USER: genes 0 Translation |==|  0.42264 0.65761 0.68697
USER: genes 1 Rotation |==|  0.01848 0.54359 0.56305 0.61072
USER: genes 2 Torsion [N]-C--CA-[N] |==|  0.85331
USER: genes 3 Torsion [C]-CA--CB-[CG] |==|  0.09948
USER: genes 4 Torsion [CA]-CB--CG-[CD2] |==|  0.11731
USER: genes 5 Torsion [C]-CA--N-[C] |==|  0.67229
USER: genes 6 Torsion [N]-C--CA-[N] |==|  0.33665
USER: genes 7 Torsion [C]-CA--CB-[CG] |==|  0.70440
USER: genes 8 Torsion [CA]-CB--CG-[OD2] |==|  0.08982
USER: genes 9 Torsion [N]-CA--C-[N] |==|  0.00510
USER: genes 10 Torsion [C]-N--CA-[CB] |==|  0.19012
USER: genes 11 Torsion [N]-CA--CB-[CG] |==|  0.59733
USER: genes 12 Torsion [CA]-CB--CG-[CD2] |==|  0.48160
USER: genes 13 Torsion [N]-CA--C-[O] |==|  0.51753
ROOT
ATOM      1  C   LEU B 299     -17.671   3.405  16.542  1.00 46.80 LIG 0.24  C 
ATOM      2 O    LEU B 299     -17.919   3.442  17.756  1.00 48.15 LIG-0.27  OA
ATOM      3  N   PRO B 300     -18.636   3.234  15.613  1.00 44.47 LIG-0.34  N 
ATOM      4  CA  PRO B 300     -20.040   3.044  16.014  1.00 41.25 LIG 0.18  C 
ATOM      5  CB  PRO B 300     -20.807   3.692  14.857  1.00 41.07 LIG 0.04  C 
ATOM      6  CG  PRO B 300     -19.928   3.422  13.646  1.00 41.88 LIG 0.02  C 
ATOM      7  CD  PRO B 300     -18.497   3.304  14.140  1.00 43.19 LIG 0.13  C 
ENDROOT
BRANCH 1 8
ATOM      8  CA  LEU B 299     -16.230   3.581  16.031  1.00 51.80 LIG 0.18  C 
BRANCH 8 9
ATOM      9  CB  LEU B 299     -16.015   4.970  15.428  1.00 51.70 LIG 0.04  C 
BRANCH 9 10
ATOM     10  CG  LEU B 299     -16.746   6.150  16.086  1.00 53.57 LIG-0.02  C 
ATOM     11  CD2 LEU B 299     -16.712   6.088  17.610  1.00 54.40 LIG 0.01  C 
ATOM     12  CD1 LEU B 299     -18.181   6.219  15.596  1.00 50.77 LIG 0.01  C 
ENDBRANCH 9 10
ENDBRANCH 8 9
BRANCH 8 13
ATOM     13  N   LEU B 299     -15.787   2.519  15.109  1.00 58.35 LIG-0.35  N 
ATOM     14  C   ASP B 298     -14.759   1.723  15.415  1.00 67.04 LIG 0.26  C 
ATOM     15 O    ASP B 298     -14.159   1.802  16.503  1.00 64.28 LIG-0.27  OA
ATOM     16 H    LEU B 299     -16.241   2.465  14.381  1.00 58.35 LIG 0.16  HD
BRANCH 14 17
ATOM     17  CA  ASP B 298     -14.322   0.673  14.355  1.00 70.29 LIG 0.41  C 
ATOM     18  N   ASP B 298     -12.902   0.806  13.905  1.00 66.44 LIG 0.61  N 
BRANCH 17 19
ATOM     19  CB  ASP B 298     -14.622  -0.771  14.817  1.00 75.12 LIG 0.16  C 
BRANCH 19 20
ATOM     20  CG  ASP B 298     -13.364  -1.547  15.231  1.00 83.78 LIG 0.17  C 
ATOM     21 OD2  ASP B 298     -12.402  -0.938  15.753  1.00 86.97 LIG-0.65  OA
ATOM     22 OD1  ASP B 298     -13.337  -2.781  15.033  1.00 89.47 LIG-0.65  OA
ENDBRANCH 19 20
ENDBRANCH 17 19
ENDBRANCH 14 17
ENDBRANCH 8 13
ENDBRANCH 1 8
BRANCH 4 23
ATOM     23  C   PRO B 300     -20.401   1.538  16.192  1.00 41.91 LIG 0.24  C 
ATOM     24  N   PHE B 301     -19.404   0.678  15.999  1.00 41.99 LIG-0.34  N 
ATOM     25 H    PHE B 301     -18.619   0.936  15.762  1.00 41.99 LIG 0.16  HD
ATOM     26 O    PRO B 300     -21.550   1.197  16.503  1.00 39.52 LIG-0.27  OA
BRANCH 24 27
ATOM     27  CA  PHE B 301     -19.498  -0.782  16.158  1.00 41.99 LIG 0.19  C 
BRANCH 27 28
ATOM     28  CB  PHE B 301     -20.392  -1.411  15.067  1.00 39.59 LIG 0.07  C 
BRANCH 28 29
ATOM     29  CG  PHE B 301     -21.213  -2.604  15.539  1.00 41.19 LIG-0.06  A 
ATOM     30  CD1 PHE B 301     -21.008  -3.138  16.804  1.00 38.91 LIG 0.01  A 
ATOM     31  CE1 PHE B 301     -21.747  -4.235  17.252  1.00 39.99 LIG 0.00  A 
ATOM     32  CZ  PHE B 301     -22.683  -4.829  16.420  1.00 37.57 LIG 0.00  A 
ATOM     33  CE2 PHE B 301     -22.898  -4.307  15.147  1.00 41.60 LIG 0.00  A 
ATOM     34  CD2 PHE B 301     -22.171  -3.197  14.713  1.00 40.14 LIG 0.01  A 
ENDBRANCH 28 29
ENDBRANCH 27 28
BRANCH 27 35
ATOM     35  C   PHE B 301     -18.082  -1.371  16.128  1.00 45.15 LIG 0.20  C 
ATOM     36 O    PHE B 301     -17.837  -2.592  16.125  1.00 42.31 LIG-0.65  OA
ATOM     37 OXT  PHE B 301     -17.116  -0.593  16.079  1.00 47.06 LIG-0.65  OA
ENDBRANCH 27 35
ENDBRANCH 24 27
ENDBRANCH 4 23
TORSDOF 12
ENDMDL
MODEL 39
USER: ADFR SOLUTION from run 53
USER: SCORE 15.474520 LL:  -4.587 LR: -10.957 RR:   0.000 FEB:  -7.378
USER: RMSD 5.680444
USER: SEED 52
USER: STATUS no improvement in best in 15 clusters for 5 generations
USER: GENES 14
USER: genes 0 Translation |==|  0.56292 0.53611 0.42993
USER: genes 1 Rotation |==|  0.41413 0.79404 0.77473 0.78407
USER: genes 2 Torsion [N]-C--CA-[N] |==|  0.87870
USER: genes 3 Torsion [C]-CA--CB-[CG] |==|  0.05652
USER: genes 4 Torsion [CA]-CB--CG-[CD2] |==|  0.74881
USER: genes 5 Torsion [C]-CA--N-[C] |==|  0.82537
USER: genes 6 Torsion [N]-C--CA-[N] |==|  0.66654
USER: genes 7 Torsion [C]-CA--CB-[CG] |==|  0.23697
USER: genes 8 Torsion [CA]-CB--CG-[OD2] |==|  0.29253
USER: genes 9 Torsion [N]-CA--C-[N] |==|  0.91783
USER: genes 10 Torsion [C]-N--CA-[CB] |==|  0.31259
USER: genes 11 Torsion [N]-CA--CB-[CG] |==|  0.07166
USER: genes 12 Torsion [CA]-CB--CG-[CD2] |==|  0.70064
USER: genes 13 Torsion [N]-CA--C-[O] |==|  0.15620
ROOT
ATOM      1  C   LEU B 299     -15.252   1.218  12.880  1.00 46.80 LIG 0.24  C 
ATOM      2 O    LEU B 299     -15.167  -0.018  12.921  1.00 48.15 LIG-0.27  OA
ATOM      3  N   PRO B 300     -15.231   1.980  13.994  1.00 44.47 LIG-0.34  N 
ATOM      4  CA  PRO B 300     -15.145   1.361  15.327  1.00 41.25 LIG 0.18  C 
ATOM      5  CB  PRO B 300     -14.360   2.405  16.128  1.00 41.07 LIG 0.04  C 
ATOM      6  CG  PRO B 300     -14.797   3.729  15.520  1.00 41.88 LIG 0.02  C 
ATOM      7  CD  PRO B 300     -15.190   3.459  14.079  1.00 43.19 LIG 0.13  C 
ENDROOT
BRANCH 1 8
ATOM      8  CA  LEU B 299     -15.360   1.952  11.530  1.00 51.80 LIG 0.18  C 
BRANCH 8 9
ATOM      9  CB  LEU B 299     -13.992   2.431  11.042  1.00 51.70 LIG 0.04  C 
BRANCH 9 10
ATOM     10  CG  LEU B 299     -12.749   1.746  11.630  1.00 53.57 LIG-0.02  C 
ATOM     11  CD2 LEU B 299     -12.230   2.443  12.885  1.00 54.40 LIG 0.01  C 
ATOM     12  CD1 LEU B 299     -11.650   1.661  10.586  1.00 50.77 LIG 0.01  C 
ENDBRANCH 9 10
ENDBRANCH 8 9
BRANCH 8 13
ATOM     13  N   LEU B 299     -16.348   3.046  11.521  1.00 58.35 LIG-0.35  N 
ATOM     14  C   ASP B 298     -17.647   2.805  11.717  1.00 67.04 LIG 0.26  C 
ATOM     15 O    ASP B 298     -18.080   1.664  11.966  1.00 64.28 LIG-0.27  OA
ATOM     16 H    LEU B 299     -16.017   3.827  11.381  1.00 58.35 LIG 0.16  HD
BRANCH 14 17
ATOM     17  CA  ASP B 298     -18.624   4.010  11.628  1.00 70.29 LIG 0.41  C 
ATOM     18  N   ASP B 298     -19.398   4.270  12.882  1.00 66.44 LIG 0.61  N 
BRANCH 17 19
ATOM     19  CB  ASP B 298     -17.915   5.293  11.141  1.00 75.12 LIG 0.16  C 
BRANCH 19 20
ATOM     20  CG  ASP B 298     -17.836   5.397   9.611  1.00 83.78 LIG 0.17  C 
ATOM     21 OD2  ASP B 298     -18.587   6.193   9.003  1.00 86.97 LIG-0.65  OA
ATOM     22 OD1  ASP B 298     -17.012   4.673   9.010  1.00 89.47 LIG-0.65  OA
ENDBRANCH 19 20
ENDBRANCH 17 19
ENDBRANCH 14 17
ENDBRANCH 8 13
ENDBRANCH 1 8
BRANCH 4 23
ATOM     23  C   PRO B 300     -16.552   1.082  15.938  1.00 41.91 LIG 0.24  C 
ATOM     24  N   PHE B 301     -17.520   1.914  15.560  1.00 41.99 LIG-0.34  N 
ATOM     25 H    PHE B 301     -17.372   2.579  15.036  1.00 41.99 LIG 0.16  HD
ATOM     26 O    PRO B 300     -16.726   0.135  16.714  1.00 39.52 LIG-0.27  OA
BRANCH 24 27
ATOM     27  CA  PHE B 301     -18.931   1.817  15.970  1.00 41.99 LIG 0.19  C 
BRANCH 27 28
ATOM     28  CB  PHE B 301     -19.337   2.997  16.878  1.00 39.59 LIG 0.07  C 
BRANCH 28 29
ATOM     29  CG  PHE B 301     -18.509   4.259  16.676  1.00 41.19 LIG-0.06  A 
ATOM     30  CD1 PHE B 301     -18.658   5.016  15.522  1.00 38.91 LIG 0.01  A 
ATOM     31  CE1 PHE B 301     -17.904   6.174  15.316  1.00 39.99 LIG 0.00  A 
ATOM     32  CZ  PHE B 301     -16.966   6.568  16.258  1.00 37.57 LIG 0.00  A 
ATOM     33  CE2 PHE B 301     -16.803   5.817  17.419  1.00 41.60 LIG 0.00  A 
ATOM     34  CD2 PHE B 301     -17.574   4.674  17.628  1.00 40.14 LIG 0.01  A 
ENDBRANCH 28 29
ENDBRANCH 27 28
BRANCH 27 35
ATOM     35  C   PHE B 301     -19.804   1.754  14.711  1.00 45.15 LIG 0.20  C 
ATOM     36 O    PHE B 301     -19.670   0.901  13.813  1.00 42.31 LIG-0.65  OA
ATOM     37 OXT  PHE B 301     -20.718   2.584  14.579  1.00 47.06 LIG-0.65  OA
ENDBRANCH 27 35
ENDBRANCH 24 27
ENDBRANCH 4 23
TORSDOF 12
ENDMDL
MODEL 40
USER: ADFR SOLUTION from run 43
USER: SCORE 13.816088 LL:  -3.323 LR: -10.949 RR:   0.000 FEB:  -7.369
USER: RMSD 8.007515
USER: SEED 42
USER: STATUS no improvement in best in 21 clusters for 5 generations
USER: GENES 14
USER: genes 0 Translation |==|  0.57507 0.61112 0.31440
USER: genes 1 Rotation |==|  0.51350 0.37741 0.01856 0.55485
USER: genes 2 Torsion [N]-C--CA-[N] |==|  0.14763
USER: genes 3 Torsion [C]-CA--CB-[CG] |==|  0.82421
USER: genes 4 Torsion [CA]-CB--CG-[CD2] |==|  0.77556
USER: genes 5 Torsion [C]-CA--N-[C] |==|  0.63332
USER: genes 6 Torsion [N]-C--CA-[N] |==|  0.19475
USER: genes 7 Torsion [C]-CA--CB-[CG] |==|  0.76929
USER: genes 8 Torsion [CA]-CB--CG-[OD2] |==|  0.86586
USER: genes 9 Torsion [N]-CA--C-[N] |==|  0.79616
USER: genes 10 Torsion [C]-N--CA-[CB] |==|  0.20340
USER: genes 11 Torsion [N]-CA--CB-[CG] |==|  0.06515
USER: genes 12 Torsion [CA]-CB--CG-[CD2] |==|  0.20650
USER: genes 13 Torsion [N]-CA--C-[O] |==|  0.28338
ROOT
ATOM      1  C   LEU B 299     -15.042   2.568  11.233  1.00 46.80 LIG 0.24  C 
ATOM      2 O    LEU B 299     -14.463   2.638  10.140  1.00 48.15 LIG-0.27  OA
ATOM      3  N   PRO B 300     -14.371   2.509  12.403  1.00 44.47 LIG-0.34  N 
ATOM      4  CA  PRO B 300     -12.899   2.487  12.425  1.00 41.25 LIG 0.18  C 
ATOM      5  CB  PRO B 300     -12.574   3.216  13.732  1.00 41.07 LIG 0.04  C 
ATOM      6  CG  PRO B 300     -13.726   2.840  14.651  1.00 41.88 LIG 0.02  C 
ATOM      7  CD  PRO B 300     -14.933   2.556  13.773  1.00 43.19 LIG 0.13  C 
ENDROOT
BRANCH 1 8
ATOM      8  CA  LEU B 299     -16.580   2.571  11.307  1.00 51.80 LIG 0.18  C 
BRANCH 8 9
ATOM      9  CB  LEU B 299     -17.208   2.633   9.914  1.00 51.70 LIG 0.04  C 
BRANCH 9 10
ATOM     10  CG  LEU B 299     -16.935   3.885   9.068  1.00 53.57 LIG-0.02  C 
ATOM     11  CD2 LEU B 299     -17.835   5.059   9.446  1.00 54.40 LIG 0.01  C 
ATOM     12  CD1 LEU B 299     -17.083   3.566   7.591  1.00 50.77 LIG 0.01  C 
ENDBRANCH 9 10
ENDBRANCH 8 9
BRANCH 8 13
ATOM     13  N   LEU B 299     -17.135   3.611  12.194  1.00 58.35 LIG-0.35  N 
ATOM     14  C   ASP B 298     -18.073   3.318  13.099  1.00 67.04 LIG 0.26  C 
ATOM     15 O    ASP B 298     -18.487   2.157  13.274  1.00 64.28 LIG-0.27  OA
ATOM     16 H    LEU B 299     -16.806   4.396  12.075  1.00 58.35 LIG 0.16  HD
BRANCH 14 17
ATOM     17  CA  ASP B 298     -18.645   4.488  13.947  1.00 70.29 LIG 0.41  C 
ATOM     18  N   ASP B 298     -19.504   5.443  13.179  1.00 66.44 LIG 0.61  N 
BRANCH 17 19
ATOM     19  CB  ASP B 298     -19.375   3.982  15.210  1.00 75.12 LIG 0.16  C 
BRANCH 19 20
ATOM     20  CG  ASP B 298     -20.826   3.557  14.941  1.00 83.78 LIG 0.17  C 
ATOM     21 OD2  ASP B 298     -21.584   4.314  14.293  1.00 86.97 LIG-0.65  OA
ATOM     22 OD1  ASP B 298     -21.212   2.453  15.383  1.00 89.47 LIG-0.65  OA
ENDBRANCH 19 20
ENDBRANCH 17 19
ENDBRANCH 14 17
ENDBRANCH 8 13
ENDBRANCH 1 8
BRANCH 4 23
ATOM     23  C   PRO B 300     -12.333   1.034  12.402  1.00 41.91 LIG 0.24  C 
ATOM     24  N   PHE B 301     -12.460   0.347  13.535  1.00 41.99 LIG-0.34  N 
ATOM     25 H    PHE B 301     -12.806   0.693  14.242  1.00 41.99 LIG 0.16  HD
ATOM     26 O    PRO B 300     -11.812   0.576  11.378  1.00 39.52 LIG-0.27  OA
BRANCH 24 27
ATOM     27  CA  PHE B 301     -12.043  -1.051  13.733  1.00 41.99 LIG 0.19  C 
BRANCH 27 28
ATOM     28  CB  PHE B 301     -10.506  -1.175  13.815  1.00 39.59 LIG 0.07  C 
BRANCH 28 29
ATOM     29  CG  PHE B 301      -9.795   0.103  14.239  1.00 41.19 LIG-0.06  A 
ATOM     30  CD1 PHE B 301      -9.082   0.848  13.309  1.00 38.91 LIG 0.01  A 
ATOM     31  CE1 PHE B 301      -8.418   2.020  13.680  1.00 39.99 LIG 0.00  A 
ATOM     32  CZ  PHE B 301      -8.438   2.441  15.000  1.00 37.57 LIG 0.00  A 
ATOM     33  CE2 PHE B 301      -9.145   1.702  15.945  1.00 41.60 LIG 0.00  A 
ATOM     34  CD2 PHE B 301      -9.824   0.545  15.564  1.00 40.14 LIG 0.01  A 
ENDBRANCH 28 29
ENDBRANCH 27 28
BRANCH 27 35
ATOM     35  C   PHE B 301     -12.715  -1.588  15.002  1.00 45.15 LIG 0.20  C 
ATOM     36 O    PHE B 301     -13.712  -2.335  14.998  1.00 42.31 LIG-0.65  OA
ATOM     37 OXT  PHE B 301     -12.231  -1.287  16.104  1.00 47.06 LIG-0.65  OA
ENDBRANCH 27 35
ENDBRANCH 24 27
ENDBRANCH 4 23
TORSDOF 12
ENDMDL
MODEL 41
USER: ADFR SOLUTION from run 18
USER: SCORE 14.426239 LL:  -3.973 LR: -10.919 RR:   0.000 FEB:  -7.340
USER: RMSD 5.555286
USER: SEED 17
USER: STATUS no improvement in best in 16 clusters for 5 generations
USER: GENES 14
USER: genes 0 Translation |==|  0.54788 0.68562 0.58226
USER: genes 1 Rotation |==|  0.22348 0.73828 0.77467 0.70326
USER: genes 2 Torsion [N]-C--CA-[N] |==|  0.50874
USER: genes 3 Torsion [C]-CA--CB-[CG] |==|  0.53012
USER: genes 4 Torsion [CA]-CB--CG-[CD2] |==|  0.65659
USER: genes 5 Torsion [C]-CA--N-[C] |==|  0.81089
USER: genes 6 Torsion [N]-C--CA-[N] |==|  0.61447
USER: genes 7 Torsion [C]-CA--CB-[CG] |==|  0.24065
USER: genes 8 Torsion [CA]-CB--CG-[OD2] |==|  0.83457
USER: genes 9 Torsion [N]-CA--C-[N] |==|  0.12820
USER: genes 10 Torsion [C]-N--CA-[CB] |==|  0.20193
USER: genes 11 Torsion [N]-CA--CB-[CG] |==|  0.05736
USER: genes 12 Torsion [CA]-CB--CG-[CD2] |==|  0.22605
USER: genes 13 Torsion [N]-CA--C-[O] |==|  0.57846
ROOT
ATOM      1  C   LEU B 299     -15.511   3.909  15.050  1.00 46.80 LIG 0.24  C 
ATOM      2 O    LEU B 299     -14.804   3.094  15.660  1.00 48.15 LIG-0.27  OA
ATOM      3  N   PRO B 300     -16.402   4.705  15.680  1.00 44.47 LIG-0.34  N 
ATOM      4  CA  PRO B 300     -16.600   4.608  17.135  1.00 41.25 LIG 0.18  C 
ATOM      5  CB  PRO B 300     -16.956   6.047  17.520  1.00 41.07 LIG 0.04  C 
ATOM      6  CG  PRO B 300     -17.710   6.568  16.306  1.00 41.88 LIG 0.02  C 
ATOM      7  CD  PRO B 300     -17.206   5.804  15.095  1.00 43.19 LIG 0.13  C 
ENDROOT
BRANCH 1 8
ATOM      8  CA  LEU B 299     -15.383   4.070  13.524  1.00 51.80 LIG 0.18  C 
BRANCH 8 9
ATOM      9  CB  LEU B 299     -16.751   4.038  12.841  1.00 51.70 LIG 0.04  C 
BRANCH 9 10
ATOM     10  CG  LEU B 299     -16.776   3.930  11.309  1.00 53.57 LIG-0.02  C 
ATOM     11  CD2 LEU B 299     -17.552   5.068  10.651  1.00 54.40 LIG 0.01  C 
ATOM     12  CD1 LEU B 299     -17.351   2.591  10.885  1.00 50.77 LIG 0.01  C 
ENDBRANCH 9 10
ENDBRANCH 8 9
BRANCH 8 13
ATOM     13  N   LEU B 299     -14.446   3.119  12.898  1.00 58.35 LIG-0.35  N 
ATOM     14  C   ASP B 298     -13.132   3.193  13.127  1.00 67.04 LIG 0.26  C 
ATOM     15 O    ASP B 298     -12.640   4.026  13.910  1.00 64.28 LIG-0.27  OA
ATOM     16 H    LEU B 299     -14.816   2.533  12.390  1.00 58.35 LIG 0.16  HD
BRANCH 14 17
ATOM     17  CA  ASP B 298     -12.213   2.189  12.375  1.00 70.29 LIG 0.41  C 
ATOM     18  N   ASP B 298     -11.112   1.617  13.211  1.00 66.44 LIG 0.61  N 
BRANCH 17 19
ATOM     19  CB  ASP B 298     -13.024   1.069  11.688  1.00 75.12 LIG 0.16  C 
BRANCH 19 20
ATOM     20  CG  ASP B 298     -13.508   1.449  10.280  1.00 83.78 LIG 0.17  C 
ATOM     21 OD2  ASP B 298     -14.254   2.443  10.128  1.00 86.97 LIG-0.65  OA
ATOM     22 OD1  ASP B 298     -13.137   0.745   9.316  1.00 89.47 LIG-0.65  OA
ENDBRANCH 19 20
ENDBRANCH 17 19
ENDBRANCH 14 17
ENDBRANCH 8 13
ENDBRANCH 1 8
BRANCH 4 23
ATOM     23  C   PRO B 300     -17.729   3.600  17.509  1.00 41.91 LIG 0.24  C 
ATOM     24  N   PHE B 301     -17.689   2.428  16.878  1.00 41.99 LIG-0.34  N 
ATOM     25 H    PHE B 301     -17.096   2.251  16.282  1.00 41.99 LIG 0.16  HD
ATOM     26 O    PRO B 300     -18.587   3.897  18.350  1.00 39.52 LIG-0.27  OA
BRANCH 24 27
ATOM     27  CA  PHE B 301     -18.620   1.310  17.103  1.00 41.99 LIG 0.19  C 
BRANCH 27 28
ATOM     28  CB  PHE B 301     -20.014   1.609  16.511  1.00 39.59 LIG 0.07  C 
BRANCH 28 29
ATOM     29  CG  PHE B 301     -20.022   2.687  15.437  1.00 41.19 LIG-0.06  A 
ATOM     30  CD1 PHE B 301     -20.398   3.986  15.753  1.00 38.91 LIG 0.01  A 
ATOM     31  CE1 PHE B 301     -20.417   4.988  14.780  1.00 39.99 LIG 0.00  A 
ATOM     32  CZ  PHE B 301     -20.087   4.688  13.467  1.00 37.57 LIG 0.00  A 
ATOM     33  CE2 PHE B 301     -19.712   3.390  13.134  1.00 41.60 LIG 0.00  A 
ATOM     34  CD2 PHE B 301     -19.674   2.398  14.115  1.00 40.14 LIG 0.01  A 
ENDBRANCH 28 29
ENDBRANCH 27 28
BRANCH 27 35
ATOM     35  C   PHE B 301     -18.015   0.039  16.495  1.00 45.15 LIG 0.20  C 
ATOM     36 O    PHE B 301     -18.689  -0.914  16.063  1.00 42.31 LIG-0.65  OA
ATOM     37 OXT  PHE B 301     -16.780  -0.045  16.401  1.00 47.06 LIG-0.65  OA
ENDBRANCH 27 35
ENDBRANCH 24 27
ENDBRANCH 4 23
TORSDOF 12
ENDMDL
MODEL 42
USER: ADFR SOLUTION from run 78
USER: SCORE 14.153413 LL:  -3.445 LR: -10.915 RR:   0.000 FEB:  -7.336
USER: RMSD 6.936374
USER: SEED 77
USER: STATUS no improvement in best in 20 clusters for 5 generations
USER: GENES 14
USER: genes 0 Translation |==|  0.52936 0.65761 0.63825
USER: genes 1 Rotation |==|  0.23887 0.38316 0.86204 0.69258
USER: genes 2 Torsion [N]-C--CA-[N] |==|  0.94018
USER: genes 3 Torsion [C]-CA--CB-[CG] |==|  0.75672
USER: genes 4 Torsion [CA]-CB--CG-[CD2] |==|  0.52601
USER: genes 5 Torsion [C]-CA--N-[C] |==|  0.70617
USER: genes 6 Torsion [N]-C--CA-[N] |==|  0.44886
USER: genes 7 Torsion [C]-CA--CB-[CG] |==|  0.27126
USER: genes 8 Torsion [CA]-CB--CG-[OD2] |==|  0.59281
USER: genes 9 Torsion [N]-CA--C-[N] |==|  0.30513
USER: genes 10 Torsion [C]-N--CA-[CB] |==|  0.24681
USER: genes 11 Torsion [N]-CA--CB-[CG] |==|  0.06226
USER: genes 12 Torsion [CA]-CB--CG-[CD2] |==|  0.72278
USER: genes 13 Torsion [N]-CA--C-[O] |==|  0.87376
ROOT
ATOM      1  C   LEU B 299     -15.830   3.405  15.848  1.00 46.80 LIG 0.24  C 
ATOM      2 O    LEU B 299     -14.666   3.153  16.189  1.00 48.15 LIG-0.27  OA
ATOM      3  N   PRO B 300     -16.833   2.511  15.987  1.00 44.47 LIG-0.34  N 
ATOM      4  CA  PRO B 300     -16.570   1.165  16.522  1.00 41.25 LIG 0.18  C 
ATOM      5  CB  PRO B 300     -17.877   0.836  17.251  1.00 41.07 LIG 0.04  C 
ATOM      6  CG  PRO B 300     -18.940   1.537  16.419  1.00 41.88 LIG 0.02  C 
ATOM      7  CD  PRO B 300     -18.279   2.727  15.747  1.00 43.19 LIG 0.13  C 
ENDROOT
BRANCH 1 8
ATOM      8  CA  LEU B 299     -16.196   4.782  15.265  1.00 51.80 LIG 0.18  C 
BRANCH 8 9
ATOM      9  CB  LEU B 299     -16.207   5.864  16.347  1.00 51.70 LIG 0.04  C 
BRANCH 9 10
ATOM     10  CG  LEU B 299     -17.514   6.076  17.124  1.00 53.57 LIG-0.02  C 
ATOM     11  CD2 LEU B 299     -17.478   7.320  18.009  1.00 54.40 LIG 0.01  C 
ATOM     12  CD1 LEU B 299     -17.837   4.850  17.958  1.00 50.77 LIG 0.01  C 
ENDBRANCH 9 10
ENDBRANCH 8 9
BRANCH 8 13
ATOM     13  N   LEU B 299     -17.447   4.790  14.484  1.00 58.35 LIG-0.35  N 
ATOM     14  C   ASP B 298     -17.428   4.861  13.151  1.00 67.04 LIG 0.26  C 
ATOM     15 O    ASP B 298     -16.366   4.875  12.502  1.00 64.28 LIG-0.27  OA
ATOM     16 H    LEU B 299     -18.164   4.745  14.956  1.00 58.35 LIG 0.16  HD
BRANCH 14 17
ATOM     17  CA  ASP B 298     -18.795   4.927  12.414  1.00 70.29 LIG 0.41  C 
ATOM     18  N   ASP B 298     -18.714   5.433  11.008  1.00 66.44 LIG 0.61  N 
BRANCH 17 19
ATOM     19  CB  ASP B 298     -19.548   3.579  12.473  1.00 75.12 LIG 0.16  C 
BRANCH 19 20
ATOM     20  CG  ASP B 298     -20.605   3.525  13.586  1.00 83.78 LIG 0.17  C 
ATOM     21 OD2  ASP B 298     -20.835   2.443  14.172  1.00 86.97 LIG-0.65  OA
ATOM     22 OD1  ASP B 298     -21.212   4.578  13.878  1.00 89.47 LIG-0.65  OA
ENDBRANCH 19 20
ENDBRANCH 17 19
ENDBRANCH 14 17
ENDBRANCH 8 13
ENDBRANCH 1 8
BRANCH 4 23
ATOM     23  C   PRO B 300     -16.247   0.137  15.395  1.00 41.91 LIG 0.24  C 
ATOM     24  N   PHE B 301     -14.987  -0.288  15.345  1.00 41.99 LIG-0.34  N 
ATOM     25 H    PHE B 301     -14.384   0.009  15.882  1.00 41.99 LIG 0.16  HD
ATOM     26 O    PRO B 300     -17.131  -0.247  14.618  1.00 39.52 LIG-0.27  OA
BRANCH 24 27
ATOM     27  CA  PHE B 301     -14.464  -1.289  14.400  1.00 41.99 LIG 0.19  C 
BRANCH 27 28
ATOM     28  CB  PHE B 301     -13.974  -0.629  13.093  1.00 39.59 LIG 0.07  C 
BRANCH 28 29
ATOM     29  CG  PHE B 301     -13.622   0.846  13.228  1.00 41.19 LIG-0.06  A 
ATOM     30  CD1 PHE B 301     -12.404   1.227  13.775  1.00 38.91 LIG 0.01  A 
ATOM     31  CE1 PHE B 301     -12.065   2.575  13.912  1.00 39.99 LIG 0.00  A 
ATOM     32  CZ  PHE B 301     -12.962   3.560  13.527  1.00 37.57 LIG 0.00  A 
ATOM     33  CE2 PHE B 301     -14.189   3.193  12.980  1.00 41.60 LIG 0.00  A 
ATOM     34  CD2 PHE B 301     -14.513   1.845  12.826  1.00 40.14 LIG 0.01  A 
ENDBRANCH 28 29
ENDBRANCH 27 28
BRANCH 27 35
ATOM     35  C   PHE B 301     -13.338  -2.070  15.088  1.00 45.15 LIG 0.20  C 
ATOM     36 O    PHE B 301     -12.428  -1.540  15.753  1.00 42.31 LIG-0.65  OA
ATOM     37 OXT  PHE B 301     -13.337  -3.309  15.003  1.00 47.06 LIG-0.65  OA
ENDBRANCH 27 35
ENDBRANCH 24 27
ENDBRANCH 4 23
TORSDOF 12
ENDMDL
MODEL 43
USER: ADFR SOLUTION from run 75
USER: SCORE 14.245549 LL:  -3.379 LR: -10.908 RR:   0.000 FEB:  -7.328
USER: RMSD 7.175548
USER: SEED 74
USER: STATUS no improvement in best in 10 clusters for 5 generations
USER: GENES 14
USER: genes 0 Translation |==|  0.52561 0.63179 0.36426
USER: genes 1 Rotation |==|  0.59217 0.79409 0.87786 0.61065
USER: genes 2 Torsion [N]-C--CA-[N] |==|  0.89111
USER: genes 3 Torsion [C]-CA--CB-[CG] |==|  0.29874
USER: genes 4 Torsion [CA]-CB--CG-[CD2] |==|  0.23583
USER: genes 5 Torsion [C]-CA--N-[C] |==|  0.83126
USER: genes 6 Torsion [N]-C--CA-[N] |==|  0.04895
USER: genes 7 Torsion [C]-CA--CB-[CG] |==|  0.88232
USER: genes 8 Torsion [CA]-CB--CG-[OD2] |==|  0.77290
USER: genes 9 Torsion [N]-CA--C-[N] |==|  0.22463
USER: genes 10 Torsion [C]-N--CA-[CB] |==|  0.35438
USER: genes 11 Torsion [N]-CA--CB-[CG] |==|  0.75675
USER: genes 12 Torsion [CA]-CB--CG-[CD2] |==|  0.02284
USER: genes 13 Torsion [N]-CA--C-[O] |==|  0.31056
ROOT
ATOM      1  C   LEU B 299     -15.895   2.940  11.944  1.00 46.80 LIG 0.24  C 
ATOM      2 O    LEU B 299     -15.888   1.919  11.241  1.00 48.15 LIG-0.27  OA
ATOM      3  N   PRO B 300     -14.949   3.182  12.876  1.00 44.47 LIG-0.34  N 
ATOM      4  CA  PRO B 300     -13.874   2.208  13.126  1.00 41.25 LIG 0.18  C 
ATOM      5  CB  PRO B 300     -12.699   3.105  13.530  1.00 41.07 LIG 0.04  C 
ATOM      6  CG  PRO B 300     -13.365   4.267  14.250  1.00 41.88 LIG 0.02  C 
ATOM      7  CD  PRO B 300     -14.766   4.411  13.683  1.00 43.19 LIG 0.13  C 
ENDROOT
BRANCH 1 8
ATOM      8  CA  LEU B 299     -16.989   4.008  11.762  1.00 51.80 LIG 0.18  C 
BRANCH 8 9
ATOM      9  CB  LEU B 299     -16.567   5.076  10.752  1.00 51.70 LIG 0.04  C 
BRANCH 9 10
ATOM     10  CG  LEU B 299     -17.255   5.064   9.378  1.00 53.57 LIG-0.02  C 
ATOM     11  CD2 LEU B 299     -18.582   5.818   9.377  1.00 54.40 LIG 0.01  C 
ATOM     12  CD1 LEU B 299     -17.462   3.637   8.906  1.00 50.77 LIG 0.01  C 
ENDBRANCH 9 10
ENDBRANCH 8 9
BRANCH 8 13
ATOM     13  N   LEU B 299     -17.451   4.614  13.025  1.00 58.35 LIG-0.35  N 
ATOM     14  C   ASP B 298     -18.012   3.870  13.983  1.00 67.04 LIG 0.26  C 
ATOM     15 O    ASP B 298     -18.127   2.635  13.882  1.00 64.28 LIG-0.27  OA
ATOM     16 H    LEU B 299     -17.328   5.462  13.082  1.00 58.35 LIG 0.16  HD
BRANCH 14 17
ATOM     17  CA  ASP B 298     -18.526   4.602  15.254  1.00 70.29 LIG 0.41  C 
ATOM     18  N   ASP B 298     -18.707   6.078  15.084  1.00 66.44 LIG 0.61  N 
BRANCH 17 19
ATOM     19  CB  ASP B 298     -19.807   3.949  15.817  1.00 75.12 LIG 0.16  C 
BRANCH 19 20
ATOM     20  CG  ASP B 298     -20.816   3.558  14.728  1.00 83.78 LIG 0.17  C 
ATOM     21 OD2  ASP B 298     -21.587   4.425  14.256  1.00 86.97 LIG-0.65  OA
ATOM     22 OD1  ASP B 298     -20.837   2.371  14.338  1.00 89.47 LIG-0.65  OA
ENDBRANCH 19 20
ENDBRANCH 17 19
ENDBRANCH 14 17
ENDBRANCH 8 13
ENDBRANCH 1 8
BRANCH 4 23
ATOM     23  C   PRO B 300     -14.252   1.190  14.245  1.00 41.91 LIG 0.24  C 
ATOM     24  N   PHE B 301     -15.026   0.175  13.864  1.00 41.99 LIG-0.34  N 
ATOM     25 H    PHE B 301     -15.322   0.104  13.061  1.00 41.99 LIG 0.16  HD
ATOM     26 O    PRO B 300     -13.835   1.338  15.400  1.00 39.52 LIG-0.27  OA
BRANCH 24 27
ATOM     27  CA  PHE B 301     -15.469  -0.927  14.733  1.00 41.99 LIG 0.19  C 
BRANCH 27 28
ATOM     28  CB  PHE B 301     -17.001  -1.105  14.682  1.00 39.59 LIG 0.07  C 
BRANCH 28 29
ATOM     29  CG  PHE B 301     -17.767  -0.246  15.678  1.00 41.19 LIG-0.06  A 
ATOM     30  CD1 PHE B 301     -19.135  -0.418  15.844  1.00 38.91 LIG 0.01  A 
ATOM     31  CE1 PHE B 301     -19.856   0.365  16.750  1.00 39.99 LIG 0.00  A 
ATOM     32  CZ  PHE B 301     -19.213   1.353  17.479  1.00 37.57 LIG 0.00  A 
ATOM     33  CE2 PHE B 301     -17.842   1.540  17.321  1.00 41.60 LIG 0.00  A 
ATOM     34  CD2 PHE B 301     -17.124   0.740  16.431  1.00 40.14 LIG 0.01  A 
ENDBRANCH 28 29
ENDBRANCH 27 28
BRANCH 27 35
ATOM     35  C   PHE B 301     -14.742  -2.209  14.307  1.00 45.15 LIG 0.20  C 
ATOM     36 O    PHE B 301     -13.886  -2.787  15.003  1.00 42.31 LIG-0.65  OA
ATOM     37 OXT  PHE B 301     -15.036  -2.723  13.216  1.00 47.06 LIG-0.65  OA
ENDBRANCH 27 35
ENDBRANCH 24 27
ENDBRANCH 4 23
TORSDOF 12
ENDMDL
MODEL 44
USER: ADFR SOLUTION from run 107
USER: SCORE 14.354915 LL:  -4.359 LR: -10.902 RR:   0.000 FEB:  -7.323
USER: RMSD 5.501164
USER: SEED 106
USER: STATUS no improvement in best in 13 clusters for 5 generations
USER: GENES 14
USER: genes 0 Translation |==|  0.56320 0.70316 0.59216
USER: genes 1 Rotation |==|  0.14919 0.70007 0.75500 0.64791
USER: genes 2 Torsion [N]-C--CA-[N] |==|  0.49861
USER: genes 3 Torsion [C]-CA--CB-[CG] |==|  0.41792
USER: genes 4 Torsion [CA]-CB--CG-[CD2] |==|  0.69217
USER: genes 5 Torsion [C]-CA--N-[C] |==|  0.18936
USER: genes 6 Torsion [N]-C--CA-[N] |==|  0.80893
USER: genes 7 Torsion [C]-CA--CB-[CG] |==|  0.52418
USER: genes 8 Torsion [CA]-CB--CG-[OD2] |==|  0.45252
USER: genes 9 Torsion [N]-CA--C-[N] |==|  0.08605
USER: genes 10 Torsion [C]-N--CA-[CB] |==|  0.20989
USER: genes 11 Torsion [N]-CA--CB-[CG] |==|  0.03627
USER: genes 12 Torsion [CA]-CB--CG-[CD2] |==|  0.20686
USER: genes 13 Torsion [N]-CA--C-[O] |==|  0.57753
ROOT
ATOM      1  C   LEU B 299     -15.247   4.225  15.191  1.00 46.80 LIG 0.24  C 
ATOM      2 O    LEU B 299     -14.462   3.798  16.050  1.00 48.15 LIG-0.27  OA
ATOM      3  N   PRO B 300     -16.435   4.781  15.512  1.00 44.47 LIG-0.34  N 
ATOM      4  CA  PRO B 300     -16.870   4.869  16.915  1.00 41.25 LIG 0.18  C 
ATOM      5  CB  PRO B 300     -17.699   6.157  16.927  1.00 41.07 LIG 0.04  C 
ATOM      6  CG  PRO B 300     -18.326   6.194  15.542  1.00 41.88 LIG 0.02  C 
ATOM      7  CD  PRO B 300     -17.398   5.444  14.602  1.00 43.19 LIG 0.13  C 
ENDROOT
BRANCH 1 8
ATOM      8  CA  LEU B 299     -14.883   4.162  13.697  1.00 51.80 LIG 0.18  C 
BRANCH 8 9
ATOM      9  CB  LEU B 299     -15.987   3.491  12.879  1.00 51.70 LIG 0.04  C 
BRANCH 9 10
ATOM     10  CG  LEU B 299     -16.153   3.930  11.416  1.00 53.57 LIG-0.02  C 
ATOM     11  CD2 LEU B 299     -17.442   4.711  11.178  1.00 54.40 LIG 0.01  C 
ATOM     12  CD1 LEU B 299     -16.092   2.725  10.495  1.00 50.77 LIG 0.01  C 
ENDBRANCH 9 10
ENDBRANCH 8 9
BRANCH 8 13
ATOM     13  N   LEU B 299     -13.567   3.553  13.426  1.00 58.35 LIG-0.35  N 
ATOM     14  C   ASP B 298     -13.349   2.254  13.646  1.00 67.04 LIG 0.26  C 
ATOM     15 O    ASP B 298     -14.248   1.487  14.037  1.00 64.28 LIG-0.27  OA
ATOM     16 H    LEU B 299     -12.975   4.098  13.124  1.00 58.35 LIG 0.16  HD
BRANCH 14 17
ATOM     17  CA  ASP B 298     -11.914   1.712  13.392  1.00 70.29 LIG 0.41  C 
ATOM     18  N   ASP B 298     -11.508   1.693  11.952  1.00 66.44 LIG 0.61  N 
BRANCH 17 19
ATOM     19  CB  ASP B 298     -10.861   2.443  14.253  1.00 75.12 LIG 0.16  C 
BRANCH 19 20
ATOM     20  CG  ASP B 298      -9.416   2.083  13.876  1.00 83.78 LIG 0.17  C 
ATOM     21 OD2  ASP B 298      -8.475   2.818  14.253  1.00 86.97 LIG-0.65  OA
ATOM     22 OD1  ASP B 298      -9.220   1.053  13.196  1.00 89.47 LIG-0.65  OA
ENDBRANCH 19 20
ENDBRANCH 17 19
ENDBRANCH 14 17
ENDBRANCH 8 13
ENDBRANCH 1 8
BRANCH 4 23
ATOM     23  C   PRO B 300     -17.703   3.626  17.352  1.00 41.91 LIG 0.24  C 
ATOM     24  N   PHE B 301     -17.390   2.481  16.750  1.00 41.99 LIG-0.34  N 
ATOM     25 H    PHE B 301     -16.787   2.436  16.139  1.00 41.99 LIG 0.16  HD
ATOM     26 O    PRO B 300     -18.587   3.729  18.212  1.00 39.52 LIG-0.27  OA
BRANCH 24 27
ATOM     27  CA  PHE B 301     -18.008   1.175  17.034  1.00 41.99 LIG 0.19  C 
BRANCH 27 28
ATOM     28  CB  PHE B 301     -19.420   1.073  16.419  1.00 39.59 LIG 0.07  C 
BRANCH 28 29
ATOM     29  CG  PHE B 301     -19.748   2.169  15.413  1.00 41.19 LIG-0.06  A 
ATOM     30  CD1 PHE B 301     -20.622   3.192  15.753  1.00 38.91 LIG 0.01  A 
ATOM     31  CE1 PHE B 301     -20.939   4.203  14.842  1.00 39.99 LIG 0.00  A 
ATOM     32  CZ  PHE B 301     -20.402   4.179  13.564  1.00 37.57 LIG 0.00  A 
ATOM     33  CE2 PHE B 301     -19.526   3.158  13.207  1.00 41.60 LIG 0.00  A 
ATOM     34  CD2 PHE B 301     -19.197   2.163  14.129  1.00 40.14 LIG 0.01  A 
ENDBRANCH 28 29
ENDBRANCH 27 28
BRANCH 27 35
ATOM     35  C   PHE B 301     -17.086   0.070  16.503  1.00 45.15 LIG 0.20  C 
ATOM     36 O    PHE B 301     -17.485  -1.048  16.128  1.00 42.31 LIG-0.65  OA
ATOM     37 OXT  PHE B 301     -15.870   0.304  16.414  1.00 47.06 LIG-0.65  OA
ENDBRANCH 27 35
ENDBRANCH 24 27
ENDBRANCH 4 23
TORSDOF 12
ENDMDL
MODEL 45
USER: ADFR SOLUTION from run 179
USER: SCORE 14.662992 LL:  -3.809 LR: -10.885 RR:   0.000 FEB:  -7.306
USER: RMSD 6.841510
USER: SEED 178
USER: STATUS no improvement in best in 5 clusters for 5 generations
USER: GENES 14
USER: genes 0 Translation |==|  0.50537 0.59805 0.45706
USER: genes 1 Rotation |==|  0.67701 0.73395 0.80089 0.77092
USER: genes 2 Torsion [N]-C--CA-[N] |==|  0.43843
USER: genes 3 Torsion [C]-CA--CB-[CG] |==|  0.27361
USER: genes 4 Torsion [CA]-CB--CG-[CD2] |==|  0.45628
USER: genes 5 Torsion [C]-CA--N-[C] |==|  0.80904
USER: genes 6 Torsion [N]-C--CA-[N] |==|  0.55679
USER: genes 7 Torsion [C]-CA--CB-[CG] |==|  0.23597
USER: genes 8 Torsion [CA]-CB--CG-[OD2] |==|  0.76843
USER: genes 9 Torsion [N]-CA--C-[N] |==|  0.31095
USER: genes 10 Torsion [C]-N--CA-[CB] |==|  0.32097
USER: genes 11 Torsion [N]-CA--CB-[CG] |==|  0.87419
USER: genes 12 Torsion [CA]-CB--CG-[CD2] |==|  0.29228
USER: genes 13 Torsion [N]-CA--C-[O] |==|  0.16967
ROOT
ATOM      1  C   LEU B 299     -16.244   2.333  13.266  1.00 46.80 LIG 0.24  C 
ATOM      2 O    LEU B 299     -16.923   1.571  12.562  1.00 48.15 LIG-0.27  OA
ATOM      3  N   PRO B 300     -15.512   1.890  14.311  1.00 44.47 LIG-0.34  N 
ATOM      4  CA  PRO B 300     -15.521   0.466  14.685  1.00 41.25 LIG 0.18  C 
ATOM      5  CB  PRO B 300     -14.107   0.259  15.238  1.00 41.07 LIG 0.04  C 
ATOM      6  CG  PRO B 300     -13.772   1.596  15.879  1.00 41.88 LIG 0.02  C 
ATOM      7  CD  PRO B 300     -14.562   2.664  15.143  1.00 43.19 LIG 0.13  C 
ENDROOT
BRANCH 1 8
ATOM      8  CA  LEU B 299     -16.186   3.840  12.959  1.00 51.80 LIG 0.18  C 
BRANCH 8 9
ATOM      9  CB  LEU B 299     -17.002   4.650  13.968  1.00 51.70 LIG 0.04  C 
BRANCH 9 10
ATOM     10  CG  LEU B 299     -16.240   5.313  15.125  1.00 53.57 LIG-0.02  C 
ATOM     11  CD2 LEU B 299     -17.063   6.386  15.834  1.00 54.40 LIG 0.01  C 
ATOM     12  CD1 LEU B 299     -14.932   5.901  14.627  1.00 50.77 LIG 0.01  C 
ENDBRANCH 9 10
ENDBRANCH 8 9
BRANCH 8 13
ATOM     13  N   LEU B 299     -16.553   4.183  11.572  1.00 58.35 LIG-0.35  N 
ATOM     14  C   ASP B 298     -15.768   3.844  10.546  1.00 67.04 LIG 0.26  C 
ATOM     15 O    ASP B 298     -14.724   3.183  10.700  1.00 64.28 LIG-0.27  OA
ATOM     16 H    LEU B 299     -17.295   4.609  11.492  1.00 58.35 LIG 0.16  HD
BRANCH 14 17
ATOM     17  CA  ASP B 298     -16.202   4.301   9.125  1.00 70.29 LIG 0.41  C 
ATOM     18  N   ASP B 298     -15.587   3.516   8.011  1.00 66.44 LIG 0.61  N 
BRANCH 17 19
ATOM     19  CB  ASP B 298     -17.739   4.355   8.981  1.00 75.12 LIG 0.16  C 
BRANCH 19 20
ATOM     20  CG  ASP B 298     -18.346   5.677   9.472  1.00 83.78 LIG 0.17  C 
ATOM     21 OD2  ASP B 298     -18.585   5.836  10.690  1.00 86.97 LIG-0.65  OA
ATOM     22 OD1  ASP B 298     -18.587   6.568   8.628  1.00 89.47 LIG-0.65  OA
ENDBRANCH 19 20
ENDBRANCH 17 19
ENDBRANCH 14 17
ENDBRANCH 8 13
ENDBRANCH 1 8
BRANCH 4 23
ATOM     23  C   PRO B 300     -16.622   0.142  15.740  1.00 41.91 LIG 0.24  C 
ATOM     24  N   PHE B 301     -17.626  -0.619  15.310  1.00 41.99 LIG-0.34  N 
ATOM     25 H    PHE B 301     -17.678  -0.889  14.496  1.00 41.99 LIG 0.16  HD
ATOM     26 O    PRO B 300     -16.534   0.572  16.896  1.00 39.52 LIG-0.27  OA
BRANCH 24 27
ATOM     27  CA  PHE B 301     -18.749  -1.090  16.137  1.00 41.99 LIG 0.19  C 
BRANCH 27 28
ATOM     28  CB  PHE B 301     -20.092  -0.501  15.654  1.00 39.59 LIG 0.07  C 
BRANCH 28 29
ATOM     29  CG  PHE B 301     -20.050   0.990  15.352  1.00 41.19 LIG-0.06  A 
ATOM     30  CD1 PHE B 301     -20.038   1.914  16.388  1.00 38.91 LIG 0.01  A 
ATOM     31  CE1 PHE B 301     -20.006   3.287  16.130  1.00 39.99 LIG 0.00  A 
ATOM     32  CZ  PHE B 301     -20.016   3.749  14.822  1.00 37.57 LIG 0.00  A 
ATOM     33  CE2 PHE B 301     -20.032   2.834  13.773  1.00 41.60 LIG 0.00  A 
ATOM     34  CD2 PHE B 301     -20.042   1.464  14.037  1.00 40.14 LIG 0.01  A 
ENDBRANCH 28 29
ENDBRANCH 27 28
BRANCH 27 35
ATOM     35  C   PHE B 301     -18.769  -2.623  16.110  1.00 45.15 LIG 0.20  C 
ATOM     36 O    PHE B 301     -17.836  -3.339  16.521  1.00 42.31 LIG-0.65  OA
ATOM     37 OXT  PHE B 301     -19.781  -3.196  15.675  1.00 47.06 LIG-0.65  OA
ENDBRANCH 27 35
ENDBRANCH 24 27
ENDBRANCH 4 23
TORSDOF 12
ENDMDL
MODEL 46
USER: ADFR SOLUTION from run 180
USER: SCORE 13.904134 LL:  -4.191 LR: -10.890 RR:   0.000 FEB:  -7.310
USER: RMSD 5.843387
USER: SEED 179
USER: STATUS no improvement in best in 11 clusters for 5 generations
USER: GENES 14
USER: genes 0 Translation |==|  0.54325 0.71623 0.53620
USER: genes 1 Rotation |==|  0.66194 0.33783 0.94419 0.51319
USER: genes 2 Torsion [N]-C--CA-[N] |==|  0.90080
USER: genes 3 Torsion [C]-CA--CB-[CG] |==|  0.28574
USER: genes 4 Torsion [CA]-CB--CG-[CD2] |==|  0.28787
USER: genes 5 Torsion [C]-CA--N-[C] |==|  0.51235
USER: genes 6 Torsion [N]-C--CA-[N] |==|  0.53115
USER: genes 7 Torsion [C]-CA--CB-[CG] |==|  0.72496
USER: genes 8 Torsion [CA]-CB--CG-[OD2] |==|  0.59751
USER: genes 9 Torsion [N]-CA--C-[N] |==|  0.07443
USER: genes 10 Torsion [C]-N--CA-[CB] |==|  0.45423
USER: genes 11 Torsion [N]-CA--CB-[CG] |==|  0.08438
USER: genes 12 Torsion [CA]-CB--CG-[CD2] |==|  0.12549
USER: genes 13 Torsion [N]-CA--C-[O] |==|  0.71920
ROOT
ATOM      1  C   LEU B 299     -15.591   4.460  14.394  1.00 46.80 LIG 0.24  C 
ATOM      2 O    LEU B 299     -15.564   5.511  13.737  1.00 48.15 LIG-0.27  OA
ATOM      3  N   PRO B 300     -14.759   3.427  14.138  1.00 44.47 LIG-0.34  N 
ATOM      4  CA  PRO B 300     -13.797   3.495  13.027  1.00 41.25 LIG 0.18  C 
ATOM      5  CB  PRO B 300     -12.624   2.659  13.550  1.00 41.07 LIG 0.04  C 
ATOM      6  CG  PRO B 300     -13.294   1.595  14.405  1.00 41.88 LIG 0.02  C 
ATOM      7  CD  PRO B 300     -14.597   2.180  14.922  1.00 43.19 LIG 0.13  C 
ENDROOT
BRANCH 1 8
ATOM      8  CA  LEU B 299     -16.575   4.294  15.566  1.00 51.80 LIG 0.18  C 
BRANCH 8 9
ATOM      9  CB  LEU B 299     -15.983   4.824  16.874  1.00 51.70 LIG 0.04  C 
BRANCH 9 10
ATOM     10  CG  LEU B 299     -16.471   6.193  17.370  1.00 53.57 LIG-0.02  C 
ATOM     11  CD2 LEU B 299     -17.462   6.082  18.526  1.00 54.40 LIG 0.01  C 
ATOM     12  CD1 LEU B 299     -17.087   6.979  16.226  1.00 50.77 LIG 0.01  C 
ENDBRANCH 9 10
ENDBRANCH 8 9
BRANCH 8 13
ATOM     13  N   LEU B 299     -17.091   2.922  15.726  1.00 58.35 LIG-0.35  N 
ATOM     14  C   ASP B 298     -18.020   2.635  16.642  1.00 67.04 LIG 0.26  C 
ATOM     15 O    ASP B 298     -18.530   3.510  17.366  1.00 64.28 LIG-0.27  OA
ATOM     16 H    LEU B 299     -16.746   2.345  15.190  1.00 58.35 LIG 0.16  HD
BRANCH 14 17
ATOM     17  CA  ASP B 298     -18.458   1.151  16.781  1.00 70.29 LIG 0.41  C 
ATOM     18  N   ASP B 298     -19.675   0.945  17.628  1.00 66.44 LIG 0.61  N 
BRANCH 17 19
ATOM     19  CB  ASP B 298     -18.620   0.465  15.407  1.00 75.12 LIG 0.16  C 
BRANCH 19 20
ATOM     20  CG  ASP B 298     -20.078   0.400  14.931  1.00 83.78 LIG 0.17  C 
ATOM     21 OD2  ASP B 298     -20.475  -0.593  14.279  1.00 86.97 LIG-0.65  OA
ATOM     22 OD1  ASP B 298     -20.837   1.353  15.213  1.00 89.47 LIG-0.65  OA
ENDBRANCH 19 20
ENDBRANCH 17 19
ENDBRANCH 14 17
ENDBRANCH 8 13
ENDBRANCH 1 8
BRANCH 4 23
ATOM     23  C   PRO B 300     -14.386   2.922  11.702  1.00 41.91 LIG 0.24  C 
ATOM     24  N   PHE B 301     -15.711   2.987  11.585  1.00 41.99 LIG-0.34  N 
ATOM     25 H    PHE B 301     -16.210   3.299  12.211  1.00 41.99 LIG 0.16  HD
ATOM     26 O    PRO B 300     -13.643   2.451  10.832  1.00 39.52 LIG-0.27  OA
BRANCH 24 27
ATOM     27  CA  PHE B 301     -16.481   2.552  10.408  1.00 41.99 LIG 0.19  C 
BRANCH 27 28
ATOM     28  CB  PHE B 301     -17.978   2.383  10.745  1.00 39.59 LIG 0.07  C 
BRANCH 28 29
ATOM     29  CG  PHE B 301     -18.485   3.312  11.840  1.00 41.19 LIG-0.06  A 
ATOM     30  CD1 PHE B 301     -19.307   2.824  12.846  1.00 38.91 LIG 0.01  A 
ATOM     31  CE1 PHE B 301     -19.786   3.663  13.856  1.00 39.99 LIG 0.00  A 
ATOM     32  CZ  PHE B 301     -19.468   5.012  13.848  1.00 37.57 LIG 0.00  A 
ATOM     33  CE2 PHE B 301     -18.647   5.516  12.843  1.00 41.60 LIG 0.00  A 
ATOM     34  CD2 PHE B 301     -18.154   4.670  11.849  1.00 40.14 LIG 0.01  A 
ENDBRANCH 28 29
ENDBRANCH 27 28
BRANCH 27 35
ATOM     35  C   PHE B 301     -16.274   3.572   9.282  1.00 45.15 LIG 0.20  C 
ATOM     36 O    PHE B 301     -17.100   4.455   8.983  1.00 42.31 LIG-0.65  OA
ATOM     37 OXT  PHE B 301     -15.212   3.540   8.640  1.00 47.06 LIG-0.65  OA
ENDBRANCH 27 35
ENDBRANCH 24 27
ENDBRANCH 4 23
TORSDOF 12
ENDMDL
MODEL 47
USER: ADFR SOLUTION from run 35
USER: SCORE 14.173267 LL:  -3.751 LR: -10.884 RR:   0.000 FEB:  -7.304
USER: RMSD 5.586481
USER: SEED 34
USER: STATUS no improvement in best in 11 clusters for 5 generations
USER: GENES 14
USER: genes 0 Translation |==|  0.61668 0.62616 0.45843
USER: genes 1 Rotation |==|  0.71885 0.19203 0.78859 0.65482
USER: genes 2 Torsion [N]-C--CA-[N] |==|  0.83359
USER: genes 3 Torsion [C]-CA--CB-[CG] |==|  0.14697
USER: genes 4 Torsion [CA]-CB--CG-[CD2] |==|  0.73368
USER: genes 5 Torsion [C]-CA--N-[C] |==|  0.66215
USER: genes 6 Torsion [N]-C--CA-[N] |==|  0.47457
USER: genes 7 Torsion [C]-CA--CB-[CG] |==|  0.58079
USER: genes 8 Torsion [CA]-CB--CG-[OD2] |==|  0.90315
USER: genes 9 Torsion [N]-CA--C-[N] |==|  0.02140
USER: genes 10 Torsion [C]-N--CA-[CB] |==|  0.52221
USER: genes 11 Torsion [N]-CA--CB-[CG] |==|  0.12925
USER: genes 12 Torsion [CA]-CB--CG-[CD2] |==|  0.96938
USER: genes 13 Torsion [N]-CA--C-[O] |==|  0.96970
ROOT
ATOM      1  C   LEU B 299     -14.324   2.839  13.286  1.00 46.80 LIG 0.24  C 
ATOM      2 O    LEU B 299     -13.780   3.939  13.116  1.00 48.15 LIG-0.27  OA
ATOM      3  N   PRO B 300     -14.604   2.006  12.260  1.00 44.47 LIG-0.34  N 
ATOM      4  CA  PRO B 300     -14.303   2.394  10.873  1.00 41.25 LIG 0.18  C 
ATOM      5  CB  PRO B 300     -13.978   1.050  10.214  1.00 41.07 LIG 0.04  C 
ATOM      6  CG  PRO B 300     -14.876   0.064  10.945  1.00 41.88 LIG 0.02  C 
ATOM      7  CD  PRO B 300     -15.125   0.621  12.335  1.00 43.19 LIG 0.13  C 
ENDROOT
BRANCH 1 8
ATOM      8  CA  LEU B 299     -14.689   2.355  14.701  1.00 51.80 LIG 0.18  C 
BRANCH 8 9
ATOM      9  CB  LEU B 299     -13.828   1.164  15.125  1.00 51.70 LIG 0.04  C 
BRANCH 9 10
ATOM     10  CG  LEU B 299     -12.303   1.319  15.022  1.00 53.57 LIG-0.02  C 
ATOM     11  CD2 LEU B 299     -11.740   0.749  13.722  1.00 54.40 LIG 0.01  C 
ATOM     12  CD1 LEU B 299     -11.626   0.670  16.215  1.00 50.77 LIG 0.01  C 
ENDBRANCH 9 10
ENDBRANCH 8 9
BRANCH 8 13
ATOM     13  N   LEU B 299     -16.125   2.075  14.887  1.00 58.35 LIG-0.35  N 
ATOM     14  C   ASP B 298     -16.837   2.710  15.822  1.00 67.04 LIG 0.26  C 
ATOM     15 O    ASP B 298     -16.344   3.598  16.542  1.00 64.28 LIG-0.27  OA
ATOM     16 H    LEU B 299     -16.446   1.483  14.353  1.00 58.35 LIG 0.16  HD
BRANCH 14 17
ATOM     17  CA  ASP B 298     -18.328   2.306  15.988  1.00 70.29 LIG 0.41  C 
ATOM     18  N   ASP B 298     -18.997   2.900  17.187  1.00 66.44 LIG 0.61  N 
BRANCH 17 19
ATOM     19  CB  ASP B 298     -19.147   2.579  14.707  1.00 75.12 LIG 0.16  C 
BRANCH 19 20
ATOM     20  CG  ASP B 298     -20.626   2.883  14.988  1.00 83.78 LIG 0.17  C 
ATOM     21 OD2  ASP B 298     -21.210   2.304  15.932  1.00 86.97 LIG-0.65  OA
ATOM     22 OD1  ASP B 298     -21.210   3.711  14.256  1.00 89.47 LIG-0.65  OA
ENDBRANCH 19 20
ENDBRANCH 17 19
ENDBRANCH 14 17
ENDBRANCH 8 13
ENDBRANCH 1 8
BRANCH 4 23
ATOM     23  C   PRO B 300     -15.505   3.112  10.189  1.00 41.91 LIG 0.24  C 
ATOM     24  N   PHE B 301     -16.532   3.404  10.985  1.00 41.99 LIG-0.34  N 
ATOM     25 H    PHE B 301     -16.542   3.184  11.815  1.00 41.99 LIG 0.16  HD
ATOM     26 O    PRO B 300     -15.473   3.387   8.983  1.00 39.52 LIG-0.27  OA
BRANCH 24 27
ATOM     27  CA  PHE B 301     -17.750   4.119  10.571  1.00 41.99 LIG 0.19  C 
BRANCH 27 28
ATOM     28  CB  PHE B 301     -18.642   4.461  11.784  1.00 39.59 LIG 0.07  C 
BRANCH 28 29
ATOM     29  CG  PHE B 301     -17.894   5.064  12.964  1.00 41.19 LIG-0.06  A 
ATOM     30  CD1 PHE B 301     -18.593   5.643  14.014  1.00 38.91 LIG 0.01  A 
ATOM     31  CE1 PHE B 301     -17.923   6.207  15.104  1.00 39.99 LIG 0.00  A 
ATOM     32  CZ  PHE B 301     -16.537   6.221  15.135  1.00 37.57 LIG 0.00  A 
ATOM     33  CE2 PHE B 301     -15.822   5.648  14.087  1.00 41.60 LIG 0.00  A 
ATOM     34  CD2 PHE B 301     -16.497   5.068  13.013  1.00 40.14 LIG 0.01  A 
ENDBRANCH 28 29
ENDBRANCH 27 28
BRANCH 27 35
ATOM     35  C   PHE B 301     -17.341   5.382   9.804  1.00 45.15 LIG 0.20  C 
ATOM     36 O    PHE B 301     -16.176   5.818   9.753  1.00 42.31 LIG-0.65  OA
ATOM     37 OXT  PHE B 301     -18.212   6.002   9.172  1.00 47.06 LIG-0.65  OA
ENDBRANCH 27 35
ENDBRANCH 24 27
ENDBRANCH 4 23
TORSDOF 12
ENDMDL
MODEL 48
USER: ADFR SOLUTION from run 16
USER: SCORE 13.817897 LL:  -3.876 LR: -10.856 RR:   0.000 FEB:  -7.277
USER: RMSD 4.080462
USER: SEED 268335
USER: STATUS no improvement in best in 9 clusters for 5 generations
USER: GENES 14
USER: genes 0 Translation |==|  0.56832 0.61205 0.57100
USER: genes 1 Rotation |==|  0.27829 0.71337 0.50432 0.89408
USER: genes 2 Torsion [N]-C--CA-[N] |==|  0.49237
USER: genes 3 Torsion [C]-CA--CB-[CG] |==|  0.49078
USER: genes 4 Torsion [CA]-CB--CG-[CD2] |==|  0.29003
USER: genes 5 Torsion [C]-CA--N-[C] |==|  0.18636
USER: genes 6 Torsion [N]-C--CA-[N] |==|  0.57381
USER: genes 7 Torsion [C]-CA--CB-[CG] |==|  0.25217
USER: genes 8 Torsion [CA]-CB--CG-[OD2] |==|  0.22157
USER: genes 9 Torsion [N]-CA--C-[N] |==|  0.23311
USER: genes 10 Torsion [C]-N--CA-[CB] |==|  0.31820
USER: genes 11 Torsion [N]-CA--CB-[CG] |==|  0.84939
USER: genes 12 Torsion [CA]-CB--CG-[CD2] |==|  0.86218
USER: genes 13 Torsion [N]-CA--C-[O] |==|  0.34021
ROOT
ATOM      1  C   LEU B 299     -15.159   2.585  14.890  1.00 46.80 LIG 0.24  C 
ATOM      2 O    LEU B 299     -16.003   1.815  15.370  1.00 48.15 LIG-0.27  OA
ATOM      3  N   PRO B 300     -15.238   3.925  15.036  1.00 44.47 LIG-0.34  N 
ATOM      4  CA  PRO B 300     -16.370   4.537  15.751  1.00 41.25 LIG 0.18  C 
ATOM      5  CB  PRO B 300     -15.732   5.778  16.384  1.00 41.07 LIG 0.04  C 
ATOM      6  CG  PRO B 300     -14.672   6.192  15.375  1.00 41.88 LIG 0.02  C 
ATOM      7  CD  PRO B 300     -14.238   4.941  14.632  1.00 43.19 LIG 0.13  C 
ENDROOT
BRANCH 1 8
ATOM      8  CA  LEU B 299     -13.947   2.035  14.114  1.00 51.80 LIG 0.18  C 
BRANCH 8 9
ATOM      9  CB  LEU B 299     -13.844   2.658  12.721  1.00 51.70 LIG 0.04  C 
BRANCH 9 10
ATOM     10  CG  LEU B 299     -12.638   2.265  11.856  1.00 53.57 LIG-0.02  C 
ATOM     11  CD2 LEU B 299     -13.003   1.280  10.748  1.00 54.40 LIG 0.01  C 
ATOM     12  CD1 LEU B 299     -11.532   1.691  12.723  1.00 50.77 LIG 0.01  C 
ENDBRANCH 9 10
ENDBRANCH 8 9
BRANCH 8 13
ATOM     13  N   LEU B 299     -13.895   0.563  14.051  1.00 58.35 LIG-0.35  N 
ATOM     14  C   ASP B 298     -14.808  -0.132  13.367  1.00 67.04 LIG 0.26  C 
ATOM     15 O    ASP B 298     -15.712   0.422  12.714  1.00 64.28 LIG-0.27  OA
ATOM     16 H    LEU B 299     -13.241   0.209  14.482  1.00 58.35 LIG 0.16  HD
BRANCH 14 17
ATOM     17  CA  ASP B 298     -14.711  -1.683  13.407  1.00 70.29 LIG 0.41  C 
ATOM     18  N   ASP B 298     -15.293  -2.367  12.211  1.00 66.44 LIG 0.61  N 
BRANCH 17 19
ATOM     19  CB  ASP B 298     -13.268  -2.164  13.671  1.00 75.12 LIG 0.16  C 
BRANCH 19 20
ATOM     20  CG  ASP B 298     -12.955  -2.350  15.163  1.00 83.78 LIG 0.17  C 
ATOM     21 OD2  ASP B 298     -13.337  -3.387  15.753  1.00 86.97 LIG-0.65  OA
ATOM     22 OD1  ASP B 298     -12.320  -1.449  15.753  1.00 89.47 LIG-0.65  OA
ENDBRANCH 19 20
ENDBRANCH 17 19
ENDBRANCH 14 17
ENDBRANCH 8 13
ENDBRANCH 1 8
BRANCH 4 23
ATOM     23  C   PRO B 300     -17.544   4.900  14.791  1.00 41.91 LIG 0.24  C 
ATOM     24  N   PHE B 301     -18.387   3.909  14.511  1.00 41.99 LIG-0.34  N 
ATOM     25 H    PHE B 301     -18.274   3.113  14.815  1.00 41.99 LIG 0.16  HD
ATOM     26 O    PRO B 300     -17.662   6.048  14.344  1.00 39.52 LIG-0.27  OA
BRANCH 24 27
ATOM     27  CA  PHE B 301     -19.590   4.029  13.669  1.00 41.99 LIG 0.19  C 
BRANCH 27 28
ATOM     28  CB  PHE B 301     -19.461   3.193  12.378  1.00 39.59 LIG 0.07  C 
BRANCH 28 29
ATOM     29  CG  PHE B 301     -18.214   3.492  11.558  1.00 41.19 LIG-0.06  A 
ATOM     30  CD1 PHE B 301     -17.390   2.458  11.134  1.00 38.91 LIG 0.01  A 
ATOM     31  CE1 PHE B 301     -16.239   2.713  10.385  1.00 39.99 LIG 0.00  A 
ATOM     32  CZ  PHE B 301     -15.885   4.018  10.078  1.00 37.57 LIG 0.00  A 
ATOM     33  CE2 PHE B 301     -16.699   5.066  10.500  1.00 41.60 LIG 0.00  A 
ATOM     34  CD2 PHE B 301     -17.858   4.803  11.229  1.00 40.14 LIG 0.01  A 
ENDBRANCH 28 29
ENDBRANCH 27 28
BRANCH 27 35
ATOM     35  C   PHE B 301     -20.809   3.600  14.494  1.00 45.15 LIG 0.20  C 
ATOM     36 O    PHE B 301     -21.798   4.328  14.702  1.00 42.31 LIG-0.65  OA
ATOM     37 OXT  PHE B 301     -20.833   2.452  14.966  1.00 47.06 LIG-0.65  OA
ENDBRANCH 27 35
ENDBRANCH 24 27
ENDBRANCH 4 23
TORSDOF 12
ENDMDL
MODEL 49
USER: ADFR SOLUTION from run 34
USER: SCORE 14.482556 LL:  -3.743 LR: -10.824 RR:   0.000 FEB:  -7.244
USER: RMSD 4.688367
USER: SEED 33
USER: STATUS no improvement in best in 16 clusters for 5 generations
USER: GENES 14
USER: genes 0 Translation |==|  0.65246 0.59743 0.54563
USER: genes 1 Rotation |==|  0.22555 0.62688 0.56191 0.89337
USER: genes 2 Torsion [N]-C--CA-[N] |==|  0.44083
USER: genes 3 Torsion [C]-CA--CB-[CG] |==|  0.80693
USER: genes 4 Torsion [CA]-CB--CG-[CD2] |==|  0.59702
USER: genes 5 Torsion [C]-CA--N-[C] |==|  0.61933
USER: genes 6 Torsion [N]-C--CA-[N] |==|  0.65566
USER: genes 7 Torsion [C]-CA--CB-[CG] |==|  0.79389
USER: genes 8 Torsion [CA]-CB--CG-[OD2] |==|  0.35934
USER: genes 9 Torsion [N]-CA--C-[N] |==|  0.87682
USER: genes 10 Torsion [C]-N--CA-[CB] |==|  0.22523
USER: genes 11 Torsion [N]-CA--CB-[CG] |==|  0.88013
USER: genes 12 Torsion [CA]-CB--CG-[CD2] |==|  0.76502
USER: genes 13 Torsion [N]-CA--C-[O] |==|  0.11633
ROOT
ATOM      1  C   LEU B 299     -13.707   2.322  14.528  1.00 46.80 LIG 0.24  C 
ATOM      2 O    LEU B 299     -14.235   1.283  14.949  1.00 48.15 LIG-0.27  OA
ATOM      3  N   PRO B 300     -14.351   3.509  14.525  1.00 44.47 LIG-0.34  N 
ATOM      4  CA  PRO B 300     -15.743   3.610  14.993  1.00 41.25 LIG 0.18  C 
ATOM      5  CB  PRO B 300     -15.793   5.021  15.587  1.00 41.07 LIG 0.04  C 
ATOM      6  CG  PRO B 300     -14.831   5.813  14.716  1.00 41.88 LIG 0.02  C 
ATOM      7  CD  PRO B 300     -13.797   4.838  14.178  1.00 43.19 LIG 0.13  C 
ENDROOT
BRANCH 1 8
ATOM      8  CA  LEU B 299     -12.259   2.309  14.006  1.00 51.80 LIG 0.18  C 
BRANCH 8 9
ATOM      9  CB  LEU B 299     -12.212   2.434  12.482  1.00 51.70 LIG 0.04  C 
BRANCH 9 10
ATOM     10  CG  LEU B 299     -12.716   1.242  11.656  1.00 53.57 LIG-0.02  C 
ATOM     11  CD2 LEU B 299     -11.929   1.046  10.363  1.00 54.40 LIG 0.01  C 
ATOM     12  CD1 LEU B 299     -14.194   1.400  11.350  1.00 50.77 LIG 0.01  C 
ENDBRANCH 9 10
ENDBRANCH 8 9
BRANCH 8 13
ATOM     13  N   LEU B 299     -11.463   1.160  14.476  1.00 58.35 LIG-0.35  N 
ATOM     14  C   ASP B 298     -10.202   1.316  14.888  1.00 67.04 LIG 0.26  C 
ATOM     15 O    ASP B 298      -9.655   2.433  14.944  1.00 64.28 LIG-0.27  OA
ATOM     16 H    LEU B 299     -11.876   0.407  14.460  1.00 58.35 LIG 0.16  HD
BRANCH 14 17
ATOM     17  CA  ASP B 298      -9.418   0.041  15.307  1.00 70.29 LIG 0.41  C 
ATOM     18  N   ASP B 298      -8.860   0.089  16.694  1.00 66.44 LIG 0.61  N 
BRANCH 17 19
ATOM     19  CB  ASP B 298     -10.249  -1.243  15.090  1.00 75.12 LIG 0.16  C 
BRANCH 19 20
ATOM     20  CG  ASP B 298     -11.363  -1.427  16.131  1.00 83.78 LIG 0.17  C 
ATOM     21 OD2  ASP B 298     -12.533  -1.663  15.753  1.00 86.97 LIG-0.65  OA
ATOM     22 OD1  ASP B 298     -11.064  -1.334  17.342  1.00 89.47 LIG-0.65  OA
ENDBRANCH 19 20
ENDBRANCH 17 19
ENDBRANCH 14 17
ENDBRANCH 8 13
ENDBRANCH 1 8
BRANCH 4 23
ATOM     23  C   PRO B 300     -16.769   3.420  13.834  1.00 41.91 LIG 0.24  C 
ATOM     24  N   PHE B 301     -16.491   4.070  12.706  1.00 41.99 LIG-0.34  N 
ATOM     25 H    PHE B 301     -15.806   4.584  12.632  1.00 41.99 LIG 0.16  HD
ATOM     26 O    PRO B 300     -17.763   2.698  13.983  1.00 39.52 LIG-0.27  OA
BRANCH 24 27
ATOM     27  CA  PHE B 301     -17.287   4.003  11.470  1.00 41.99 LIG 0.19  C 
BRANCH 27 28
ATOM     28  CB  PHE B 301     -18.513   4.939  11.537  1.00 39.59 LIG 0.07  C 
BRANCH 28 29
ATOM     29  CG  PHE B 301     -19.256   4.906  12.865  1.00 41.19 LIG-0.06  A 
ATOM     30  CD1 PHE B 301     -18.963   5.836  13.854  1.00 38.91 LIG 0.01  A 
ATOM     31  CE1 PHE B 301     -19.631   5.819  15.082  1.00 39.99 LIG 0.00  A 
ATOM     32  CZ  PHE B 301     -20.582   4.844  15.341  1.00 37.57 LIG 0.00  A 
ATOM     33  CE2 PHE B 301     -20.883   3.902  14.361  1.00 41.60 LIG 0.00  A 
ATOM     34  CD2 PHE B 301     -20.229   3.939  13.130  1.00 40.14 LIG 0.01  A 
ENDBRANCH 28 29
ENDBRANCH 27 28
BRANCH 27 35
ATOM     35  C   PHE B 301     -16.381   4.354  10.283  1.00 45.15 LIG 0.20  C 
ATOM     36 O    PHE B 301     -15.212   3.943  10.156  1.00 42.31 LIG-0.65  OA
ATOM     37 OXT  PHE B 301     -16.838   5.070   9.378  1.00 47.06 LIG-0.65  OA
ENDBRANCH 27 35
ENDBRANCH 24 27
ENDBRANCH 4 23
TORSDOF 12
ENDMDL
MODEL 50
USER: ADFR SOLUTION from run 86
USER: SCORE 14.563625 LL:  -4.176 LR: -10.799 RR:   0.000 FEB:  -7.219
USER: RMSD 6.807038
USER: SEED 85
USER: STATUS no improvement in best in 11 clusters for 5 generations
USER: GENES 14
USER: genes 0 Translation |==|  0.42288 0.66416 0.60763
USER: genes 1 Rotation |==|  0.13303 0.49502 0.73312 0.74691
USER: genes 2 Torsion [N]-C--CA-[N] |==|  0.86362
USER: genes 3 Torsion [C]-CA--CB-[CG] |==|  0.18156
USER: genes 4 Torsion [CA]-CB--CG-[CD2] |==|  0.07258
USER: genes 5 Torsion [C]-CA--N-[C] |==|  0.66668
USER: genes 6 Torsion [N]-C--CA-[N] |==|  0.71195
USER: genes 7 Torsion [C]-CA--CB-[CG] |==|  0.48269
USER: genes 8 Torsion [CA]-CB--CG-[OD2] |==|  0.60859
USER: genes 9 Torsion [N]-CA--C-[N] |==|  0.35030
USER: genes 10 Torsion [C]-N--CA-[CB] |==|  0.26978
USER: genes 11 Torsion [N]-CA--CB-[CG] |==|  0.95510
USER: genes 12 Torsion [CA]-CB--CG-[CD2] |==|  0.26829
USER: genes 13 Torsion [N]-CA--C-[O] |==|  0.69813
ROOT
ATOM      1  C   LEU B 299     -17.667   3.523  15.412  1.00 46.80 LIG 0.24  C 
ATOM      2 O    LEU B 299     -17.101   2.778  16.225  1.00 48.15 LIG-0.27  OA
ATOM      3  N   PRO B 300     -19.005   3.503  15.225  1.00 44.47 LIG-0.34  N 
ATOM      4  CA  PRO B 300     -19.853   2.555  15.965  1.00 41.25 LIG 0.18  C 
ATOM      5  CB  PRO B 300     -21.162   3.335  16.127  1.00 41.07 LIG 0.04  C 
ATOM      6  CG  PRO B 300     -21.239   4.175  14.862  1.00 41.88 LIG 0.02  C 
ATOM      7  CD  PRO B 300     -19.816   4.422  14.392  1.00 43.19 LIG 0.13  C 
ENDROOT
BRANCH 1 8
ATOM      8  CA  LEU B 299     -16.859   4.538  14.583  1.00 51.80 LIG 0.18  C 
BRANCH 8 9
ATOM      9  CB  LEU B 299     -16.966   5.948  15.165  1.00 51.70 LIG 0.04  C 
BRANCH 9 10
ATOM     10  CG  LEU B 299     -16.359   6.191  16.554  1.00 53.57 LIG-0.02  C 
ATOM     11  CD2 LEU B 299     -15.224   5.223  16.878  1.00 54.40 LIG 0.01  C 
ATOM     12  CD1 LEU B 299     -17.435   6.111  17.621  1.00 50.77 LIG 0.01  C 
ENDBRANCH 9 10
ENDBRANCH 8 9
BRANCH 8 13
ATOM     13  N   LEU B 299     -17.175   4.523  13.143  1.00 58.35 LIG-0.35  N 
ATOM     14  C   ASP B 298     -16.237   4.250  12.232  1.00 67.04 LIG 0.26  C 
ATOM     15 O    ASP B 298     -15.072   3.947  12.550  1.00 64.28 LIG-0.27  OA
ATOM     16 H    LEU B 299     -17.995   4.702  12.955  1.00 58.35 LIG 0.16  HD
BRANCH 14 17
ATOM     17  CA  ASP B 298     -16.647   4.319  10.734  1.00 70.29 LIG 0.41  C 
ATOM     18  N   ASP B 298     -16.849   2.984  10.089  1.00 66.44 LIG 0.61  N 
BRANCH 17 19
ATOM     19  CB  ASP B 298     -17.874   5.231  10.513  1.00 75.12 LIG 0.16  C 
BRANCH 19 20
ATOM     20  CG  ASP B 298     -18.211   5.442   9.030  1.00 83.78 LIG 0.17  C 
ATOM     21 OD2  ASP B 298     -18.587   6.568   8.633  1.00 86.97 LIG-0.65  OA
ATOM     22 OD1  ASP B 298     -18.098   4.469   8.252  1.00 89.47 LIG-0.65  OA
ENDBRANCH 19 20
ENDBRANCH 17 19
ENDBRANCH 14 17
ENDBRANCH 8 13
ENDBRANCH 1 8
BRANCH 4 23
ATOM     23  C   PRO B 300     -20.054   1.218  15.189  1.00 41.91 LIG 0.24  C 
ATOM     24  N   PHE B 301     -19.745   0.110  15.860  1.00 41.99 LIG-0.34  N 
ATOM     25 H    PHE B 301     -19.427   0.133  16.658  1.00 41.99 LIG 0.16  HD
ATOM     26 O    PRO B 300     -20.485   1.219  14.029  1.00 39.52 LIG-0.27  OA
BRANCH 24 27
ATOM     27  CA  PHE B 301     -19.898  -1.262  15.349  1.00 41.99 LIG 0.19  C 
BRANCH 27 28
ATOM     28  CB  PHE B 301     -18.569  -1.803  14.778  1.00 39.59 LIG 0.07  C 
BRANCH 28 29
ATOM     29  CG  PHE B 301     -17.523  -0.733  14.501  1.00 41.19 LIG-0.06  A 
ATOM     30  CD1 PHE B 301     -17.542  -0.030  13.304  1.00 38.91 LIG 0.01  A 
ATOM     31  CE1 PHE B 301     -16.587   0.953  13.029  1.00 39.99 LIG 0.00  A 
ATOM     32  CZ  PHE B 301     -15.580   1.218  13.945  1.00 37.57 LIG 0.00  A 
ATOM     33  CE2 PHE B 301     -15.546   0.519  15.148  1.00 41.60 LIG 0.00  A 
ATOM     34  CD2 PHE B 301     -16.516  -0.446  15.426  1.00 40.14 LIG 0.01  A 
ENDBRANCH 28 29
ENDBRANCH 27 28
BRANCH 27 35
ATOM     35  C   PHE B 301     -20.422  -2.152  16.483  1.00 45.15 LIG 0.20  C 
ATOM     36 O    PHE B 301     -19.738  -3.018  17.060  1.00 42.31 LIG-0.65  OA
ATOM     37 OXT  PHE B 301     -21.590  -1.991  16.873  1.00 47.06 LIG-0.65  OA
ENDBRANCH 27 35
ENDBRANCH 24 27
ENDBRANCH 4 23
TORSDOF 12
ENDMDL
MODEL 51
USER: ADFR SOLUTION from run 125
USER: SCORE 13.799614 LL:  -3.547 LR: -10.769 RR:   0.000 FEB:  -7.190
USER: RMSD 3.923345
USER: SEED 124
USER: STATUS no improvement in best in 10 clusters for 5 generations
USER: GENES 14
USER: genes 0 Translation |==|  0.53411 0.57538 0.56618
USER: genes 1 Rotation |==|  0.27699 0.89565 0.29336 0.53200
USER: genes 2 Torsion [N]-C--CA-[N] |==|  0.14994
USER: genes 3 Torsion [C]-CA--CB-[CG] |==|  0.25520
USER: genes 4 Torsion [CA]-CB--CG-[CD2] |==|  0.10554
USER: genes 5 Torsion [C]-CA--N-[C] |==|  0.66395
USER: genes 6 Torsion [N]-C--CA-[N] |==|  0.56037
USER: genes 7 Torsion [C]-CA--CB-[CG] |==|  0.24376
USER: genes 8 Torsion [CA]-CB--CG-[OD2] |==|  0.66614
USER: genes 9 Torsion [N]-CA--C-[N] |==|  0.85314
USER: genes 10 Torsion [C]-N--CA-[CB] |==|  0.90224
USER: genes 11 Torsion [N]-CA--CB-[CG] |==|  0.80617
USER: genes 12 Torsion [CA]-CB--CG-[CD2] |==|  0.94499
USER: genes 13 Torsion [N]-CA--C-[O] |==|  0.51654
ROOT
ATOM      1  C   LEU B 299     -15.749   1.925  14.821  1.00 46.80 LIG 0.24  C 
ATOM      2 O    LEU B 299     -15.562   2.835  15.641  1.00 48.15 LIG-0.27  OA
ATOM      3  N   PRO B 300     -15.418   2.049  13.518  1.00 44.47 LIG-0.34  N 
ATOM      4  CA  PRO B 300     -14.848   3.304  13.003  1.00 41.25 LIG 0.18  C 
ATOM      5  CB  PRO B 300     -13.923   2.816  11.884  1.00 41.07 LIG 0.04  C 
ATOM      6  CG  PRO B 300     -14.635   1.588  11.338  1.00 41.88 LIG 0.02  C 
ATOM      7  CD  PRO B 300     -15.463   1.003  12.469  1.00 43.19 LIG 0.13  C 
ENDROOT
BRANCH 1 8
ATOM      8  CA  LEU B 299     -16.353   0.581  15.266  1.00 51.80 LIG 0.18  C 
BRANCH 8 9
ATOM      9  CB  LEU B 299     -16.706   0.590  16.754  1.00 51.70 LIG 0.04  C 
BRANCH 9 10
ATOM     10  CG  LEU B 299     -18.130   1.014  17.143  1.00 53.57 LIG-0.02  C 
ATOM     11  CD2 LEU B 299     -19.184   0.504  16.164  1.00 54.40 LIG 0.01  C 
ATOM     12  CD1 LEU B 299     -18.215   2.525  17.264  1.00 50.77 LIG 0.01  C 
ENDBRANCH 9 10
ENDBRANCH 8 9
BRANCH 8 13
ATOM     13  N   LEU B 299     -15.530  -0.592  14.915  1.00 58.35 LIG-0.35  N 
ATOM     14  C   ASP B 298     -16.013  -1.568  14.142  1.00 67.04 LIG 0.26  C 
ATOM     15 O    ASP B 298     -17.151  -1.516  13.641  1.00 64.28 LIG-0.27  OA
ATOM     16 H    LEU B 299     -14.737  -0.585  15.246  1.00 58.35 LIG 0.16  HD
BRANCH 14 17
ATOM     17  CA  ASP B 298     -15.096  -2.795  13.876  1.00 70.29 LIG 0.41  C 
ATOM     18  N   ASP B 298     -15.451  -3.573  12.648  1.00 66.44 LIG 0.61  N 
BRANCH 17 19
ATOM     19  CB  ASP B 298     -13.601  -2.408  13.872  1.00 75.12 LIG 0.16  C 
BRANCH 19 20
ATOM     20  CG  ASP B 298     -12.961  -2.454  15.267  1.00 83.78 LIG 0.17  C 
ATOM     21 OD2  ASP B 298     -12.456  -1.416  15.753  1.00 86.97 LIG-0.65  OA
ATOM     22 OD1  ASP B 298     -12.964  -3.541  15.885  1.00 89.47 LIG-0.65  OA
ENDBRANCH 19 20
ENDBRANCH 17 19
ENDBRANCH 14 17
ENDBRANCH 8 13
ENDBRANCH 1 8
BRANCH 4 23
ATOM     23  C   PRO B 300     -15.947   4.278  12.479  1.00 41.91 LIG 0.24  C 
ATOM     24  N   PHE B 301     -16.794   3.766  11.588  1.00 41.99 LIG-0.34  N 
ATOM     25 H    PHE B 301     -16.720   2.960  11.300  1.00 41.99 LIG 0.16  HD
ATOM     26 O    PRO B 300     -16.007   5.443  12.891  1.00 39.52 LIG-0.27  OA
BRANCH 24 27
ATOM     27  CA  PHE B 301     -17.935   4.481  10.993  1.00 41.99 LIG 0.19  C 
BRANCH 27 28
ATOM     28  CB  PHE B 301     -18.587   5.446  12.007  1.00 39.59 LIG 0.07  C 
BRANCH 28 29
ATOM     29  CG  PHE B 301     -19.332   4.756  13.141  1.00 41.19 LIG-0.06  A 
ATOM     30  CD1 PHE B 301     -19.591   5.435  14.323  1.00 38.91 LIG 0.01  A 
ATOM     31  CE1 PHE B 301     -20.268   4.817  15.377  1.00 39.99 LIG 0.00  A 
ATOM     32  CZ  PHE B 301     -20.668   3.494  15.265  1.00 37.57 LIG 0.00  A 
ATOM     33  CE2 PHE B 301     -20.411   2.798  14.087  1.00 41.60 LIG 0.00  A 
ATOM     34  CD2 PHE B 301     -19.754   3.428  13.030  1.00 40.14 LIG 0.01  A 
ENDBRANCH 28 29
ENDBRANCH 27 28
BRANCH 27 35
ATOM     35  C   PHE B 301     -17.448   5.227   9.745  1.00 45.15 LIG 0.20  C 
ATOM     36 O    PHE B 301     -18.155   6.010   9.082  1.00 42.31 LIG-0.65  OA
ATOM     37 OXT  PHE B 301     -16.273   5.068   9.378  1.00 47.06 LIG-0.65  OA
ENDBRANCH 27 35
ENDBRANCH 24 27
ENDBRANCH 4 23
TORSDOF 12
ENDMDL
MODEL 52
USER: ADFR SOLUTION from run 108
USER: SCORE 13.727675 LL:  -3.067 LR: -10.762 RR:   0.000 FEB:  -7.182
USER: RMSD 7.307863
USER: SEED 107
USER: STATUS no improvement in best in 12 clusters for 5 generations
USER: GENES 14
USER: genes 0 Translation |==|  0.46016 0.63853 0.62317
USER: genes 1 Rotation |==|  0.18512 0.27828 0.79870 0.61165
USER: genes 2 Torsion [N]-C--CA-[N] |==|  0.88368
USER: genes 3 Torsion [C]-CA--CB-[CG] |==|  0.69920
USER: genes 4 Torsion [CA]-CB--CG-[CD2] |==|  0.62405
USER: genes 5 Torsion [C]-CA--N-[C] |==|  0.78891
USER: genes 6 Torsion [N]-C--CA-[N] |==|  0.78007
USER: genes 7 Torsion [C]-CA--CB-[CG] |==|  0.47315
USER: genes 8 Torsion [CA]-CB--CG-[OD2] |==|  0.06750
USER: genes 9 Torsion [N]-CA--C-[N] |==|  0.22204
USER: genes 10 Torsion [C]-N--CA-[CB] |==|  0.42074
USER: genes 11 Torsion [N]-CA--CB-[CG] |==|  0.66151
USER: genes 12 Torsion [CA]-CB--CG-[CD2] |==|  0.68985
USER: genes 13 Torsion [N]-CA--C-[O] |==|  0.21294
ROOT
ATOM      1  C   LEU B 299     -17.024   3.061  15.633  1.00 46.80 LIG 0.24  C 
ATOM      2 O    LEU B 299     -16.158   3.064  16.520  1.00 48.15 LIG-0.27  OA
ATOM      3  N   PRO B 300     -17.622   1.926  15.211  1.00 44.47 LIG-0.34  N 
ATOM      4  CA  PRO B 300     -17.236   0.621  15.771  1.00 41.25 LIG 0.18  C 
ATOM      5  CB  PRO B 300     -18.548  -0.168  15.712  1.00 41.07 LIG 0.04  C 
ATOM      6  CG  PRO B 300     -19.237   0.372  14.469  1.00 41.88 LIG 0.02  C 
ATOM      7  CD  PRO B 300     -18.755   1.798  14.265  1.00 43.19 LIG 0.13  C 
ENDROOT
BRANCH 1 8
ATOM      8  CA  LEU B 299     -17.482   4.379  14.981  1.00 51.80 LIG 0.18  C 
BRANCH 8 9
ATOM      9  CB  LEU B 299     -18.717   4.951  15.678  1.00 51.70 LIG 0.04  C 
BRANCH 9 10
ATOM     10  CG  LEU B 299     -20.053   4.882  14.924  1.00 53.57 LIG-0.02  C 
ATOM     11  CD2 LEU B 299     -20.842   6.186  15.003  1.00 54.40 LIG 0.01  C 
ATOM     12  CD1 LEU B 299     -20.893   3.729  15.445  1.00 50.77 LIG 0.01  C 
ENDBRANCH 9 10
ENDBRANCH 8 9
BRANCH 8 13
ATOM     13  N   LEU B 299     -17.681   4.287  13.522  1.00 58.35 LIG-0.35  N 
ATOM     14  C   ASP B 298     -16.642   4.264  12.683  1.00 67.04 LIG 0.26  C 
ATOM     15 O    ASP B 298     -15.464   4.268  13.086  1.00 64.28 LIG-0.27  OA
ATOM     16 H    LEU B 299     -18.504   4.251  13.275  1.00 58.35 LIG 0.16  HD
BRANCH 14 17
ATOM     17  CA  ASP B 298     -16.948   4.230  11.160  1.00 70.29 LIG 0.41  C 
ATOM     18  N   ASP B 298     -17.325   2.880  10.637  1.00 66.44 LIG 0.61  N 
BRANCH 17 19
ATOM     19  CB  ASP B 298     -17.998   5.290  10.758  1.00 75.12 LIG 0.16  C 
BRANCH 19 20
ATOM     20  CG  ASP B 298     -18.150   5.444   9.238  1.00 83.78 LIG 0.17  C 
ATOM     21 OD2  ASP B 298     -17.839   4.495   8.483  1.00 86.97 LIG-0.65  OA
ATOM     22 OD1  ASP B 298     -18.587   6.528   8.793  1.00 89.47 LIG-0.65  OA
ENDBRANCH 19 20
ENDBRANCH 17 19
ENDBRANCH 14 17
ENDBRANCH 8 13
ENDBRANCH 1 8
BRANCH 4 23
ATOM     23  C   PRO B 300     -16.100  -0.059  14.947  1.00 41.91 LIG 0.24  C 
ATOM     24  N   PHE B 301     -14.868   0.383  15.189  1.00 41.99 LIG-0.34  N 
ATOM     25 H    PHE B 301     -14.713   1.022  15.743  1.00 41.99 LIG 0.16  HD
ATOM     26 O    PRO B 300     -16.359  -0.955  14.135  1.00 39.52 LIG-0.27  OA
BRANCH 24 27
ATOM     27  CA  PHE B 301     -13.640  -0.140  14.568  1.00 41.99 LIG 0.19  C 
BRANCH 27 28
ATOM     28  CB  PHE B 301     -12.546   0.946  14.478  1.00 39.59 LIG 0.07  C 
BRANCH 28 29
ATOM     29  CG  PHE B 301     -12.051   1.223  13.066  1.00 41.19 LIG-0.06  A 
ATOM     30  CD1 PHE B 301     -12.894   1.810  12.132  1.00 38.91 LIG 0.01  A 
ATOM     31  CE1 PHE B 301     -12.459   2.068  10.829  1.00 39.99 LIG 0.00  A 
ATOM     32  CZ  PHE B 301     -11.178   1.709  10.441  1.00 37.57 LIG 0.00  A 
ATOM     33  CE2 PHE B 301     -10.322   1.116  11.365  1.00 41.60 LIG 0.00  A 
ATOM     34  CD2 PHE B 301     -10.755   0.881  12.670  1.00 40.14 LIG 0.01  A 
ENDBRANCH 28 29
ENDBRANCH 27 28
BRANCH 27 35
ATOM     35  C   PHE B 301     -13.160  -1.352  15.375  1.00 45.15 LIG 0.20  C 
ATOM     36 O    PHE B 301     -13.680  -2.482  15.309  1.00 42.31 LIG-0.65  OA
ATOM     37 OXT  PHE B 301     -12.180  -1.216  16.125  1.00 47.06 LIG-0.65  OA
ENDBRANCH 27 35
ENDBRANCH 24 27
ENDBRANCH 4 23
TORSDOF 12
ENDMDL
MODEL 53
USER: ADFR SOLUTION from run 156
USER: SCORE 13.353535 LL:  -3.190 LR: -10.762 RR:   0.000 FEB:  -7.182
USER: RMSD 7.054715
USER: SEED 155
USER: STATUS no improvement in best in 18 clusters for 5 generations
USER: GENES 14
USER: genes 0 Translation |==|  0.47987 0.64259 0.54969
USER: genes 1 Rotation |==|  0.12963 0.60905 0.72396 0.72533
USER: genes 2 Torsion [N]-C--CA-[N] |==|  0.87751
USER: genes 3 Torsion [C]-CA--CB-[CG] |==|  0.09258
USER: genes 4 Torsion [CA]-CB--CG-[CD2] |==|  0.73469
USER: genes 5 Torsion [C]-CA--N-[C] |==|  0.61143
USER: genes 6 Torsion [N]-C--CA-[N] |==|  0.86877
USER: genes 7 Torsion [C]-CA--CB-[CG] |==|  0.78357
USER: genes 8 Torsion [CA]-CB--CG-[OD2] |==|  0.05725
USER: genes 9 Torsion [N]-CA--C-[N] |==|  0.17351
USER: genes 10 Torsion [C]-N--CA-[CB] |==|  0.87184
USER: genes 11 Torsion [N]-CA--CB-[CG] |==|  0.60095
USER: genes 12 Torsion [CA]-CB--CG-[CD2] |==|  0.07839
USER: genes 13 Torsion [N]-CA--C-[O] |==|  0.15311
ROOT
ATOM      1  C   LEU B 299     -16.684   3.135  14.586  1.00 46.80 LIG 0.24  C 
ATOM      2 O    LEU B 299     -16.175   2.468  15.498  1.00 48.15 LIG-0.27  OA
ATOM      3  N   PRO B 300     -17.980   3.514  14.606  1.00 44.47 LIG-0.34  N 
ATOM      4  CA  PRO B 300     -18.864   3.112  15.712  1.00 41.25 LIG 0.18  C 
ATOM      5  CB  PRO B 300     -19.831   4.296  15.812  1.00 41.07 LIG 0.04  C 
ATOM      6  CG  PRO B 300     -19.961   4.778  14.376  1.00 41.88 LIG 0.02  C 
ATOM      7  CD  PRO B 300     -18.674   4.416  13.657  1.00 43.19 LIG 0.13  C 
ENDROOT
BRANCH 1 8
ATOM      8  CA  LEU B 299     -15.839   3.589  13.382  1.00 51.80 LIG 0.18  C 
BRANCH 8 9
ATOM      9  CB  LEU B 299     -15.312   5.012  13.572  1.00 51.70 LIG 0.04  C 
BRANCH 9 10
ATOM     10  CG  LEU B 299     -14.970   5.456  15.002  1.00 53.57 LIG-0.02  C 
ATOM     11  CD2 LEU B 299     -16.113   6.211  15.674  1.00 54.40 LIG 0.01  C 
ATOM     12  CD1 LEU B 299     -13.710   6.304  15.003  1.00 50.77 LIG 0.01  C 
ENDBRANCH 9 10
ENDBRANCH 8 9
BRANCH 8 13
ATOM     13  N   LEU B 299     -16.518   3.435  12.082  1.00 58.35 LIG-0.35  N 
ATOM     14  C   ASP B 298     -15.856   3.005  11.004  1.00 67.04 LIG 0.26  C 
ATOM     15 O    ASP B 298     -14.659   2.668  11.051  1.00 64.28 LIG-0.27  OA
ATOM     16 H    LEU B 299     -17.352   3.642  12.087  1.00 58.35 LIG 0.16  HD
BRANCH 14 17
ATOM     17  CA  ASP B 298     -16.637   2.934   9.662  1.00 70.29 LIG 0.41  C 
ATOM     18  N   ASP B 298     -17.978   2.279   9.763  1.00 66.44 LIG 0.61  N 
BRANCH 17 19
ATOM     19  CB  ASP B 298     -16.748   4.318   8.985  1.00 75.12 LIG 0.16  C 
BRANCH 19 20
ATOM     20  CG  ASP B 298     -17.821   5.216   9.617  1.00 83.78 LIG 0.17  C 
ATOM     21 OD2  ASP B 298     -18.220   4.982  10.781  1.00 86.97 LIG-0.65  OA
ATOM     22 OD1  ASP B 298     -18.271   6.168   8.942  1.00 89.47 LIG-0.65  OA
ENDBRANCH 19 20
ENDBRANCH 17 19
ENDBRANCH 14 17
ENDBRANCH 8 13
ENDBRANCH 1 8
BRANCH 4 23
ATOM     23  C   PRO B 300     -19.601   1.770  15.417  1.00 41.91 LIG 0.24  C 
ATOM     24  N   PHE B 301     -18.819   0.705  15.261  1.00 41.99 LIG-0.34  N 
ATOM     25 H    PHE B 301     -17.962   0.759  15.292  1.00 41.99 LIG 0.16  HD
ATOM     26 O    PRO B 300     -20.836   1.730  15.348  1.00 39.52 LIG-0.27  OA
BRANCH 24 27
ATOM     27  CA  PHE B 301     -19.293  -0.669  15.023  1.00 41.99 LIG 0.19  C 
BRANCH 27 28
ATOM     28  CB  PHE B 301     -20.442  -1.044  15.983  1.00 39.59 LIG 0.07  C 
BRANCH 28 29
ATOM     29  CG  PHE B 301     -20.423  -2.492  16.451  1.00 41.19 LIG-0.06  A 
ATOM     30  CD1 PHE B 301     -21.603  -3.126  16.814  1.00 38.91 LIG 0.01  A 
ATOM     31  CE1 PHE B 301     -21.605  -4.453  17.252  1.00 39.99 LIG 0.00  A 
ATOM     32  CZ  PHE B 301     -20.411  -5.151  17.357  1.00 37.57 LIG 0.00  A 
ATOM     33  CE2 PHE B 301     -19.219  -4.527  17.000  1.00 41.60 LIG 0.00  A 
ATOM     34  CD2 PHE B 301     -19.227  -3.209  16.544  1.00 40.14 LIG 0.01  A 
ENDBRANCH 28 29
ENDBRANCH 27 28
BRANCH 27 35
ATOM     35  C   PHE B 301     -19.726  -0.790  13.557  1.00 45.15 LIG 0.20  C 
ATOM     36 O    PHE B 301     -18.993  -0.514  12.590  1.00 42.31 LIG-0.65  OA
ATOM     37 OXT  PHE B 301     -20.867  -1.212  13.308  1.00 47.06 LIG-0.65  OA
ENDBRANCH 27 35
ENDBRANCH 24 27
ENDBRANCH 4 23
TORSDOF 12
ENDMDL
MODEL 54
USER: ADFR SOLUTION from run 26
USER: SCORE 14.054804 LL:  -4.334 LR: -10.725 RR:   0.000 FEB:  -7.145
USER: RMSD 5.469142
USER: SEED 25
USER: STATUS no improvement in best in 14 clusters for 5 generations
USER: GENES 14
USER: genes 0 Translation |==|  0.55648 0.69494 0.61920
USER: genes 1 Rotation |==|  0.23192 0.65555 0.73787 0.81202
USER: genes 2 Torsion [N]-C--CA-[N] |==|  0.47684
USER: genes 3 Torsion [C]-CA--CB-[CG] |==|  0.94433
USER: genes 4 Torsion [CA]-CB--CG-[CD2] |==|  0.70757
USER: genes 5 Torsion [C]-CA--N-[C] |==|  0.16233
USER: genes 6 Torsion [N]-C--CA-[N] |==|  0.74987
USER: genes 7 Torsion [C]-CA--CB-[CG] |==|  0.54440
USER: genes 8 Torsion [CA]-CB--CG-[OD2] |==|  0.41555
USER: genes 9 Torsion [N]-CA--C-[N] |==|  0.95182
USER: genes 10 Torsion [C]-N--CA-[CB] |==|  0.87793
USER: genes 11 Torsion [N]-CA--CB-[CG] |==|  0.85769
USER: genes 12 Torsion [CA]-CB--CG-[CD2] |==|  0.27517
USER: genes 13 Torsion [N]-CA--C-[O] |==|  0.73202
ROOT
ATOM      1  C   LEU B 299     -15.363   4.077  15.577  1.00 46.80 LIG 0.24  C 
ATOM      2 O    LEU B 299     -15.014   2.984  16.045  1.00 48.15 LIG-0.27  OA
ATOM      3  N   PRO B 300     -16.391   4.787  16.088  1.00 44.47 LIG-0.34  N 
ATOM      4  CA  PRO B 300     -17.176   4.264  17.219  1.00 41.25 LIG 0.18  C 
ATOM      5  CB  PRO B 300     -17.583   5.542  17.960  1.00 41.07 LIG 0.04  C 
ATOM      6  CG  PRO B 300     -17.741   6.568  16.849  1.00 41.88 LIG 0.02  C 
ATOM      7  CD  PRO B 300     -16.823   6.154  15.713  1.00 43.19 LIG 0.13  C 
ENDROOT
BRANCH 1 8
ATOM      8  CA  LEU B 299     -14.608   4.695  14.385  1.00 51.80 LIG 0.18  C 
BRANCH 8 9
ATOM      9  CB  LEU B 299     -15.532   4.902  13.184  1.00 51.70 LIG 0.04  C 
BRANCH 9 10
ATOM     10  CG  LEU B 299     -16.833   4.086  13.140  1.00 53.57 LIG-0.02  C 
ATOM     11  CD2 LEU B 299     -16.775   2.939  12.134  1.00 54.40 LIG 0.01  C 
ATOM     12  CD1 LEU B 299     -18.012   4.991  12.836  1.00 50.77 LIG 0.01  C 
ENDBRANCH 9 10
ENDBRANCH 8 9
BRANCH 8 13
ATOM     13  N   LEU B 299     -13.386   3.963  14.005  1.00 58.35 LIG-0.35  N 
ATOM     14  C   ASP B 298     -13.434   2.676  13.652  1.00 67.04 LIG 0.26  C 
ATOM     15 O    ASP B 298     -14.506   2.048  13.576  1.00 64.28 LIG-0.27  OA
ATOM     16 H    LEU B 299     -12.665   4.431  14.033  1.00 58.35 LIG 0.16  HD
BRANCH 14 17
ATOM     17  CA  ASP B 298     -12.088   1.968  13.328  1.00 70.29 LIG 0.41  C 
ATOM     18  N   ASP B 298     -11.679   2.051  11.891  1.00 66.44 LIG 0.61  N 
BRANCH 17 19
ATOM     19  CB  ASP B 298     -10.948   2.444  14.255  1.00 75.12 LIG 0.16  C 
BRANCH 19 20
ATOM     20  CG  ASP B 298      -9.551   2.079  13.733  1.00 83.78 LIG 0.17  C 
ATOM     21 OD2  ASP B 298      -8.576   2.818  13.998  1.00 86.97 LIG-0.65  OA
ATOM     22 OD1  ASP B 298      -9.427   1.039  13.051  1.00 89.47 LIG-0.65  OA
ENDBRANCH 19 20
ENDBRANCH 17 19
ENDBRANCH 14 17
ENDBRANCH 8 13
ENDBRANCH 1 8
BRANCH 4 23
ATOM     23  C   PRO B 300     -18.410   3.438  16.745  1.00 41.91 LIG 0.24  C 
ATOM     24  N   PHE B 301     -18.776   3.621  15.478  1.00 41.99 LIG-0.34  N 
ATOM     25 H    PHE B 301     -18.374   4.181  14.964  1.00 41.99 LIG 0.16  HD
ATOM     26 O    PRO B 300     -18.986   2.663  17.519  1.00 39.52 LIG-0.27  OA
BRANCH 24 27
ATOM     27  CA  PHE B 301     -19.877   2.917  14.801  1.00 41.99 LIG 0.19  C 
BRANCH 27 28
ATOM     28  CB  PHE B 301     -19.866   1.408  15.126  1.00 39.59 LIG 0.07  C 
BRANCH 28 29
ATOM     29  CG  PHE B 301     -18.522   0.727  14.905  1.00 41.19 LIG-0.06  A 
ATOM     30  CD1 PHE B 301     -18.146   0.320  13.632  1.00 38.91 LIG 0.01  A 
ATOM     31  CE1 PHE B 301     -16.919  -0.311  13.410  1.00 39.99 LIG 0.00  A 
ATOM     32  CZ  PHE B 301     -16.067  -0.567  14.473  1.00 37.57 LIG 0.00  A 
ATOM     33  CE2 PHE B 301     -16.433  -0.168  15.756  1.00 41.60 LIG 0.00  A 
ATOM     34  CD2 PHE B 301     -17.650   0.481  15.968  1.00 40.14 LIG 0.01  A 
ENDBRANCH 28 29
ENDBRANCH 27 28
BRANCH 27 35
ATOM     35  C   PHE B 301     -21.203   3.568  15.215  1.00 45.15 LIG 0.20  C 
ATOM     36 O    PHE B 301     -21.933   3.139  16.128  1.00 42.31 LIG-0.65  OA
ATOM     37 OXT  PHE B 301     -21.566   4.600  14.628  1.00 47.06 LIG-0.65  OA
ENDBRANCH 27 35
ENDBRANCH 24 27
ENDBRANCH 4 23
TORSDOF 12
ENDMDL
MODEL 55
USER: ADFR SOLUTION from run 198
USER: SCORE 14.398785 LL:  -3.847 LR: -10.713 RR:   0.000 FEB:  -7.133
USER: RMSD 4.461589
USER: SEED 197
USER: STATUS no improvement in best in 18 clusters for 5 generations
USER: GENES 14
USER: genes 0 Translation |==|  0.51380 0.54292 0.58439
USER: genes 1 Rotation |==|  0.54509 0.43425 0.67833 0.96026
USER: genes 2 Torsion [N]-C--CA-[N] |==|  0.47222
USER: genes 3 Torsion [C]-CA--CB-[CG] |==|  0.81381
USER: genes 4 Torsion [CA]-CB--CG-[CD2] |==|  0.71645
USER: genes 5 Torsion [C]-CA--N-[C] |==|  0.74407
USER: genes 6 Torsion [N]-C--CA-[N] |==|  0.76259
USER: genes 7 Torsion [C]-CA--CB-[CG] |==|  0.33401
USER: genes 8 Torsion [CA]-CB--CG-[OD2] |==|  0.35001
USER: genes 9 Torsion [N]-CA--C-[N] |==|  0.97317
USER: genes 10 Torsion [C]-N--CA-[CB] |==|  0.84470
USER: genes 11 Torsion [N]-CA--CB-[CG] |==|  0.82586
USER: genes 12 Torsion [CA]-CB--CG-[CD2] |==|  0.68332
USER: genes 13 Torsion [N]-CA--C-[O] |==|  0.47946
ROOT
ATOM      1  C   LEU B 299     -16.099   1.341  15.081  1.00 46.80 LIG 0.24  C 
ATOM      2 O    LEU B 299     -16.018   0.888  13.930  1.00 48.15 LIG-0.27  OA
ATOM      3  N   PRO B 300     -17.224   1.237  15.820  1.00 44.47 LIG-0.34  N 
ATOM      4  CA  PRO B 300     -18.432   0.604  15.266  1.00 41.25 LIG 0.18  C 
ATOM      5  CB  PRO B 300     -19.075  -0.028  16.504  1.00 41.07 LIG 0.04  C 
ATOM      6  CG  PRO B 300     -18.712   0.930  17.628  1.00 41.88 LIG 0.02  C 
ATOM      7  CD  PRO B 300     -17.411   1.611  17.242  1.00 43.19 LIG 0.13  C 
ENDROOT
BRANCH 1 8
ATOM      8  CA  LEU B 299     -14.889   2.031  15.737  1.00 51.80 LIG 0.18  C 
BRANCH 8 9
ATOM      9  CB  LEU B 299     -15.192   3.492  16.073  1.00 51.70 LIG 0.04  C 
BRANCH 9 10
ATOM     10  CG  LEU B 299     -15.407   4.460  14.900  1.00 53.57 LIG-0.02  C 
ATOM     11  CD2 LEU B 299     -14.185   5.334  14.627  1.00 54.40 LIG 0.01  C 
ATOM     12  CD1 LEU B 299     -16.627   5.327  15.149  1.00 50.77 LIG 0.01  C 
ENDBRANCH 9 10
ENDBRANCH 8 9
BRANCH 8 13
ATOM     13  N   LEU B 299     -13.637   1.903  14.969  1.00 58.35 LIG-0.35  N 
ATOM     14  C   ASP B 298     -12.784   0.902  15.200  1.00 67.04 LIG 0.26  C 
ATOM     15 O    ASP B 298     -13.023   0.005  16.031  1.00 64.28 LIG-0.27  OA
ATOM     16 H    LEU B 299     -13.515   2.516  14.379  1.00 58.35 LIG 0.16  HD
BRANCH 14 17
ATOM     17  CA  ASP B 298     -11.460   0.882  14.387  1.00 70.29 LIG 0.41  C 
ATOM     18  N   ASP B 298     -11.570   0.226  13.046  1.00 66.44 LIG 0.61  N 
BRANCH 17 19
ATOM     19  CB  ASP B 298     -10.838   2.291  14.263  1.00 75.12 LIG 0.16  C 
BRANCH 19 20
ATOM     20  CG  ASP B 298      -9.428   2.384  14.865  1.00 83.78 LIG 0.17  C 
ATOM     21 OD2  ASP B 298      -8.483   2.818  14.167  1.00 86.97 LIG-0.65  OA
ATOM     22 OD1  ASP B 298      -9.264   2.020  16.049  1.00 89.47 LIG-0.65  OA
ENDBRANCH 19 20
ENDBRANCH 17 19
ENDBRANCH 14 17
ENDBRANCH 8 13
ENDBRANCH 1 8
BRANCH 4 23
ATOM     23  C   PRO B 300     -19.373   1.638  14.575  1.00 41.91 LIG 0.24  C 
ATOM     24  N   PHE B 301     -19.059   2.919  14.762  1.00 41.99 LIG-0.34  N 
ATOM     25 H    PHE B 301     -18.397   3.159  15.255  1.00 41.99 LIG 0.16  HD
ATOM     26 O    PRO B 300     -20.336   1.261  13.896  1.00 39.52 LIG-0.27  OA
BRANCH 24 27
ATOM     27  CA  PHE B 301     -19.772   4.063  14.171  1.00 41.99 LIG 0.19  C 
BRANCH 27 28
ATOM     28  CB  PHE B 301     -19.834   3.956  12.632  1.00 39.59 LIG 0.07  C 
BRANCH 28 29
ATOM     29  CG  PHE B 301     -18.475   3.983  11.946  1.00 41.19 LIG-0.06  A 
ATOM     30  CD1 PHE B 301     -17.566   2.954  12.153  1.00 38.91 LIG 0.01  A 
ATOM     31  CE1 PHE B 301     -16.312   2.963  11.537  1.00 39.99 LIG 0.00  A 
ATOM     32  CZ  PHE B 301     -15.945   4.027  10.726  1.00 37.57 LIG 0.00  A 
ATOM     33  CE2 PHE B 301     -16.844   5.068  10.512  1.00 41.60 LIG 0.00  A 
ATOM     34  CD2 PHE B 301     -18.102   5.042  11.114  1.00 40.14 LIG 0.01  A 
ENDBRANCH 28 29
ENDBRANCH 27 28
BRANCH 27 35
ATOM     35  C   PHE B 301     -21.177   4.133  14.783  1.00 45.15 LIG 0.20  C 
ATOM     36 O    PHE B 301     -21.975   5.068  14.585  1.00 42.31 LIG-0.65  OA
ATOM     37 OXT  PHE B 301     -21.560   3.195  15.500  1.00 47.06 LIG-0.65  OA
ENDBRANCH 27 35
ENDBRANCH 24 27
ENDBRANCH 4 23
TORSDOF 12
ENDMDL
MODEL 56
USER: ADFR SOLUTION from run 133
USER: SCORE 13.358788 LL:  -2.773 LR: -10.702 RR:   0.000 FEB:  -7.123
USER: RMSD 6.760741
USER: SEED 132
USER: STATUS no improvement in best in 25 clusters for 5 generations
USER: GENES 14
USER: genes 0 Translation |==|  0.41962 0.67043 0.64022
USER: genes 1 Rotation |==|  0.04703 0.54981 0.65071 0.64009
USER: genes 2 Torsion [N]-C--CA-[N] |==|  0.99114
USER: genes 3 Torsion [C]-CA--CB-[CG] |==|  0.87506
USER: genes 4 Torsion [CA]-CB--CG-[CD2] |==|  0.24259
USER: genes 5 Torsion [C]-CA--N-[C] |==|  0.69464
USER: genes 6 Torsion [N]-C--CA-[N] |==|  0.67417
USER: genes 7 Torsion [C]-CA--CB-[CG] |==|  0.49297
USER: genes 8 Torsion [CA]-CB--CG-[OD2] |==|  0.97818
USER: genes 9 Torsion [N]-CA--C-[N] |==|  0.05177
USER: genes 10 Torsion [C]-N--CA-[CB] |==|  0.24351
USER: genes 11 Torsion [N]-CA--CB-[CG] |==|  0.23940
USER: genes 12 Torsion [CA]-CB--CG-[CD2] |==|  0.29464
USER: genes 13 Torsion [N]-CA--C-[O] |==|  0.96451
ROOT
ATOM      1  C   LEU B 299     -17.724   3.636  15.876  1.00 46.80 LIG 0.24  C 
ATOM      2 O    LEU B 299     -17.540   3.466  17.090  1.00 48.15 LIG-0.27  OA
ATOM      3  N   PRO B 300     -18.949   3.559  15.314  1.00 44.47 LIG-0.34  N 
ATOM      4  CA  PRO B 300     -20.130   3.228  16.128  1.00 41.25 LIG 0.18  C 
ATOM      5  CB  PRO B 300     -21.247   4.005  15.425  1.00 41.07 LIG 0.04  C 
ATOM      6  CG  PRO B 300     -20.837   3.980  13.961  1.00 41.88 LIG 0.02  C 
ATOM      7  CD  PRO B 300     -19.324   3.868  13.914  1.00 43.19 LIG 0.13  C 
ENDROOT
BRANCH 1 8
ATOM      8  CA  LEU B 299     -16.545   3.972  14.945  1.00 51.80 LIG 0.18  C 
BRANCH 8 9
ATOM      9  CB  LEU B 299     -15.782   5.207  15.429  1.00 51.70 LIG 0.04  C 
BRANCH 9 10
ATOM     10  CG  LEU B 299     -16.610   6.422  15.874  1.00 53.57 LIG-0.02  C 
ATOM     11  CD2 LEU B 299     -17.009   6.356  17.346  1.00 54.40 LIG 0.01  C 
ATOM     12  CD1 LEU B 299     -17.844   6.566  15.002  1.00 50.77 LIG 0.01  C 
ENDBRANCH 9 10
ENDBRANCH 8 9
BRANCH 8 13
ATOM     13  N   LEU B 299     -16.920   4.095  13.524  1.00 58.35 LIG-0.35  N 
ATOM     14  C   ASP B 298     -16.537   3.182  12.627  1.00 67.04 LIG 0.26  C 
ATOM     15 O    ASP B 298     -15.893   2.166  12.948  1.00 64.28 LIG-0.27  OA
ATOM     16 H    LEU B 299     -17.394   4.787  13.337  1.00 58.35 LIG 0.16  HD
BRANCH 14 17
ATOM     17  CA  ASP B 298     -16.925   3.425  11.142  1.00 70.29 LIG 0.41  C 
ATOM     18  N   ASP B 298     -17.830   2.384  10.564  1.00 66.44 LIG 0.61  N 
BRANCH 17 19
ATOM     19  CB  ASP B 298     -17.499   4.841  10.920  1.00 75.12 LIG 0.16  C 
BRANCH 19 20
ATOM     20  CG  ASP B 298     -17.835   5.135   9.450  1.00 83.78 LIG 0.17  C 
ATOM     21 OD2  ASP B 298     -17.499   4.319   8.562  1.00 86.97 LIG-0.65  OA
ATOM     22 OD1  ASP B 298     -18.444   6.193   9.181  1.00 89.47 LIG-0.65  OA
ENDBRANCH 19 20
ENDBRANCH 17 19
ENDBRANCH 14 17
ENDBRANCH 8 13
ENDBRANCH 1 8
BRANCH 4 23
ATOM     23  C   PRO B 300     -20.409   1.694  16.163  1.00 41.91 LIG 0.24  C 
ATOM     24  N   PHE B 301     -19.387   0.914  15.818  1.00 41.99 LIG-0.34  N 
ATOM     25 H    PHE B 301     -18.632   1.237  15.564  1.00 41.99 LIG 0.16  HD
ATOM     26 O    PRO B 300     -21.517   1.262  16.503  1.00 39.52 LIG-0.27  OA
BRANCH 24 27
ATOM     27  CA  PHE B 301     -19.403  -0.558  15.822  1.00 41.99 LIG 0.19  C 
BRANCH 27 28
ATOM     28  CB  PHE B 301     -19.923  -1.120  14.481  1.00 39.59 LIG 0.07  C 
BRANCH 28 29
ATOM     29  CG  PHE B 301     -18.854  -1.279  13.409  1.00 41.19 LIG-0.06  A 
ATOM     30  CD1 PHE B 301     -18.358  -0.164  12.746  1.00 38.91 LIG 0.01  A 
ATOM     31  CE1 PHE B 301     -17.380  -0.290  11.756  1.00 39.99 LIG 0.00  A 
ATOM     32  CZ  PHE B 301     -16.911  -1.545  11.398  1.00 37.57 LIG 0.00  A 
ATOM     33  CE2 PHE B 301     -17.402  -2.672  12.052  1.00 41.60 LIG 0.00  A 
ATOM     34  CD2 PHE B 301     -18.362  -2.538  13.055  1.00 40.14 LIG 0.01  A 
ENDBRANCH 28 29
ENDBRANCH 27 28
BRANCH 27 35
ATOM     35  C   PHE B 301     -17.988  -1.063  16.128  1.00 45.15 LIG 0.20  C 
ATOM     36 O    PHE B 301     -16.973  -0.342  16.108  1.00 42.31 LIG-0.65  OA
ATOM     37 OXT  PHE B 301     -17.837  -2.255  16.439  1.00 47.06 LIG-0.65  OA
ENDBRANCH 27 35
ENDBRANCH 24 27
ENDBRANCH 4 23
TORSDOF 12
ENDMDL
MODEL 57
USER: ADFR SOLUTION from run 78
USER: SCORE 14.085185 LL:  -3.733 LR: -10.699 RR:   0.000 FEB:  -7.120
USER: RMSD 6.171390
USER: SEED 77
USER: STATUS no improvement in best in 20 clusters for 5 generations
USER: GENES 14
USER: genes 0 Translation |==|  0.28002 0.59746 0.58407
USER: genes 1 Rotation |==|  0.61328 0.78829 0.30863 0.84269
USER: genes 2 Torsion [N]-C--CA-[N] |==|  0.84444
USER: genes 3 Torsion [C]-CA--CB-[CG] |==|  0.70527
USER: genes 4 Torsion [CA]-CB--CG-[CD2] |==|  0.71635
USER: genes 5 Torsion [C]-CA--N-[C] |==|  0.82454
USER: genes 6 Torsion [N]-C--CA-[N] |==|  0.15351
USER: genes 7 Torsion [C]-CA--CB-[CG] |==|  0.65288
USER: genes 8 Torsion [CA]-CB--CG-[OD2] |==|  0.88244
USER: genes 9 Torsion [N]-CA--C-[N] |==|  0.68494
USER: genes 10 Torsion [C]-N--CA-[CB] |==|  0.85419
USER: genes 11 Torsion [N]-CA--CB-[CG] |==|  0.84077
USER: genes 12 Torsion [CA]-CB--CG-[CD2] |==|  0.24108
USER: genes 13 Torsion [N]-CA--C-[O] |==|  0.76090
ROOT
ATOM      1  C   LEU B 299     -20.132   2.322  15.076  1.00 46.80 LIG 0.24  C 
ATOM      2 O    LEU B 299     -21.134   2.936  15.468  1.00 48.15 LIG-0.27  OA
ATOM      3  N   PRO B 300     -19.002   2.241  15.811  1.00 44.47 LIG-0.34  N 
ATOM      4  CA  PRO B 300     -18.900   2.922  17.112  1.00 41.25 LIG 0.18  C 
ATOM      5  CB  PRO B 300     -17.972   1.994  17.902  1.00 41.07 LIG 0.04  C 
ATOM      6  CG  PRO B 300     -17.038   1.431  16.842  1.00 41.88 LIG 0.02  C 
ATOM      7  CD  PRO B 300     -17.791   1.437  15.523  1.00 43.19 LIG 0.13  C 
ENDROOT
BRANCH 1 8
ATOM      8  CA  LEU B 299     -20.141   1.591  13.721  1.00 51.80 LIG 0.18  C 
BRANCH 8 9
ATOM      9  CB  LEU B 299     -20.185   0.073  13.904  1.00 51.70 LIG 0.04  C 
BRANCH 9 10
ATOM     10  CG  LEU B 299     -18.896  -0.713  13.624  1.00 53.57 LIG-0.02  C 
ATOM     11  CD2 LEU B 299     -18.915  -1.414  12.268  1.00 54.40 LIG 0.01  C 
ATOM     12  CD1 LEU B 299     -18.643  -1.720  14.731  1.00 50.77 LIG 0.01  C 
ENDBRANCH 9 10
ENDBRANCH 8 9
BRANCH 8 13
ATOM     13  N   LEU B 299     -19.048   1.993  12.816  1.00 58.35 LIG-0.35  N 
ATOM     14  C   ASP B 298     -18.956   3.244  12.358  1.00 67.04 LIG 0.26  C 
ATOM     15 O    ASP B 298     -19.749   4.138  12.706  1.00 64.28 LIG-0.27  OA
ATOM     16 H    LEU B 299     -18.496   1.364  12.620  1.00 58.35 LIG 0.16  HD
BRANCH 14 17
ATOM     17  CA  ASP B 298     -17.808   3.561  11.359  1.00 70.29 LIG 0.41  C 
ATOM     18  N   ASP B 298     -17.786   2.685  10.147  1.00 66.44 LIG 0.61  N 
BRANCH 17 19
ATOM     19  CB  ASP B 298     -17.785   5.054  10.962  1.00 75.12 LIG 0.16  C 
BRANCH 19 20
ATOM     20  CG  ASP B 298     -17.846   5.277   9.444  1.00 83.78 LIG 0.17  C 
ATOM     21 OD2  ASP B 298     -17.166   4.552   8.682  1.00 86.97 LIG-0.65  OA
ATOM     22 OD1  ASP B 298     -18.584   6.187   9.007  1.00 89.47 LIG-0.65  OA
ENDBRANCH 19 20
ENDBRANCH 17 19
ENDBRANCH 14 17
ENDBRANCH 8 13
ENDBRANCH 1 8
BRANCH 4 23
ATOM     23  C   PRO B 300     -18.321   4.363  16.978  1.00 41.91 LIG 0.24  C 
ATOM     24  N   PHE B 301     -17.124   4.557  17.529  1.00 41.99 LIG-0.34  N 
ATOM     25 H    PHE B 301     -16.713   3.935  17.956  1.00 41.99 LIG 0.16  HD
ATOM     26 O    PRO B 300     -18.953   5.245  16.383  1.00 39.52 LIG-0.27  OA
BRANCH 24 27
ATOM     27  CA  PHE B 301     -16.364   5.817  17.487  1.00 41.99 LIG 0.19  C 
BRANCH 27 28
ATOM     28  CB  PHE B 301     -16.216   6.339  16.041  1.00 39.59 LIG 0.07  C 
BRANCH 28 29
ATOM     29  CG  PHE B 301     -15.550   5.359  15.085  1.00 41.19 LIG-0.06  A 
ATOM     30  CD1 PHE B 301     -14.182   5.425  14.857  1.00 38.91 LIG 0.01  A 
ATOM     31  CE1 PHE B 301     -13.554   4.538  13.979  1.00 39.99 LIG 0.00  A 
ATOM     32  CZ  PHE B 301     -14.301   3.591  13.295  1.00 37.57 LIG 0.00  A 
ATOM     33  CE2 PHE B 301     -15.674   3.516  13.511  1.00 41.60 LIG 0.00  A 
ATOM     34  CD2 PHE B 301     -16.293   4.390  14.405  1.00 40.14 LIG 0.01  A 
ENDBRANCH 28 29
ENDBRANCH 27 28
BRANCH 27 35
ATOM     35  C   PHE B 301     -17.068   6.844  18.382  1.00 45.15 LIG 0.20  C 
ATOM     36 O    PHE B 301     -18.001   7.576  18.001  1.00 42.31 LIG-0.65  OA
ATOM     37 OXT  PHE B 301     -16.711   6.944  19.567  1.00 47.06 LIG-0.65  OA
ENDBRANCH 27 35
ENDBRANCH 24 27
ENDBRANCH 4 23
TORSDOF 12
ENDMDL
MODEL 58
USER: ADFR SOLUTION from run 57
USER: SCORE 14.518983 LL:  -4.255 LR: -10.675 RR:   0.000 FEB:  -7.095
USER: RMSD 4.449692
USER: SEED 56
USER: STATUS no improvement in best in 11 clusters for 5 generations
USER: GENES 14
USER: genes 0 Translation |==|  0.48938 0.58846 0.45647
USER: genes 1 Rotation |==|  0.68470 0.62041 0.67064 0.91505
USER: genes 2 Torsion [N]-C--CA-[N] |==|  0.26781
USER: genes 3 Torsion [C]-CA--CB-[CG] |==|  0.89372
USER: genes 4 Torsion [CA]-CB--CG-[CD2] |==|  0.65033
USER: genes 5 Torsion [C]-CA--N-[C] |==|  0.63134
USER: genes 6 Torsion [N]-C--CA-[N] |==|  0.78420
USER: genes 7 Torsion [C]-CA--CB-[CG] |==|  0.80762
USER: genes 8 Torsion [CA]-CB--CG-[OD2] |==|  0.78814
USER: genes 9 Torsion [N]-CA--C-[N] |==|  0.05024
USER: genes 10 Torsion [C]-N--CA-[CB] |==|  0.43733
USER: genes 11 Torsion [N]-CA--CB-[CG] |==|  0.94773
USER: genes 12 Torsion [CA]-CB--CG-[CD2] |==|  0.83183
USER: genes 13 Torsion [N]-CA--C-[O] |==|  0.54962
ROOT
ATOM      1  C   LEU B 299     -16.520   2.160  13.258  1.00 46.80 LIG 0.24  C 
ATOM      2 O    LEU B 299     -17.362   1.940  12.375  1.00 48.15 LIG-0.27  OA
ATOM      3  N   PRO B 300     -16.619   1.635  14.498  1.00 44.47 LIG-0.34  N 
ATOM      4  CA  PRO B 300     -17.770   0.795  14.868  1.00 41.25 LIG 0.18  C 
ATOM      5  CB  PRO B 300     -17.159  -0.181  15.878  1.00 41.07 LIG 0.04  C 
ATOM      6  CG  PRO B 300     -16.088   0.644  16.574  1.00 41.88 LIG 0.02  C 
ATOM      7  CD  PRO B 300     -15.625   1.708  15.594  1.00 43.19 LIG 0.13  C 
ENDROOT
BRANCH 1 8
ATOM      8  CA  LEU B 299     -15.290   3.038  12.965  1.00 51.80 LIG 0.18  C 
BRANCH 8 9
ATOM      9  CB  LEU B 299     -15.674   4.301  12.193  1.00 51.70 LIG 0.04  C 
BRANCH 9 10
ATOM     10  CG  LEU B 299     -16.758   4.170  11.112  1.00 53.57 LIG-0.02  C 
ATOM     11  CD2 LEU B 299     -16.301   4.693   9.753  1.00 54.40 LIG 0.01  C 
ATOM     12  CD1 LEU B 299     -18.026   4.881  11.549  1.00 50.77 LIG 0.01  C 
ENDBRANCH 9 10
ENDBRANCH 8 9
BRANCH 8 13
ATOM     13  N   LEU B 299     -14.184   2.319  12.306  1.00 58.35 LIG-0.35  N 
ATOM     14  C   ASP B 298     -12.927   2.437  12.741  1.00 67.04 LIG 0.26  C 
ATOM     15 O    ASP B 298     -12.633   3.112  13.745  1.00 64.28 LIG-0.27  OA
ATOM     16 H    LEU B 299     -14.421   1.834  11.637  1.00 58.35 LIG 0.16  HD
BRANCH 14 17
ATOM     17  CA  ASP B 298     -11.817   1.693  11.946  1.00 70.29 LIG 0.41  C 
ATOM     18  N   ASP B 298     -11.745   0.224  12.219  1.00 66.44 LIG 0.61  N 
BRANCH 17 19
ATOM     19  CB  ASP B 298     -11.910   1.969  10.430  1.00 75.12 LIG 0.16  C 
BRANCH 19 20
ATOM     20  CG  ASP B 298     -13.142   1.330   9.773  1.00 83.78 LIG 0.17  C 
ATOM     21 OD2  ASP B 298     -13.155   0.099   9.542  1.00 86.97 LIG-0.65  OA
ATOM     22 OD1  ASP B 298     -14.110   2.067   9.485  1.00 89.47 LIG-0.65  OA
ENDBRANCH 19 20
ENDBRANCH 17 19
ENDBRANCH 14 17
ENDBRANCH 8 13
ENDBRANCH 1 8
BRANCH 4 23
ATOM     23  C   PRO B 300     -18.933   1.631  15.484  1.00 41.91 LIG 0.24  C 
ATOM     24  N   PHE B 301     -18.892   2.940  15.246  1.00 41.99 LIG-0.34  N 
ATOM     25 H    PHE B 301     -18.250   3.304  14.806  1.00 41.99 LIG 0.16  HD
ATOM     26 O    PRO B 300     -19.827   1.081  16.140  1.00 39.52 LIG-0.27  OA
BRANCH 24 27
ATOM     27  CA  PHE B 301     -19.904   3.915  15.686  1.00 41.99 LIG 0.19  C 
BRANCH 27 28
ATOM     28  CB  PHE B 301     -19.319   5.343  15.753  1.00 39.59 LIG 0.07  C 
BRANCH 28 29
ATOM     29  CG  PHE B 301     -17.799   5.397  15.808  1.00 41.19 LIG-0.06  A 
ATOM     30  CD1 PHE B 301     -17.085   6.029  14.799  1.00 38.91 LIG 0.01  A 
ATOM     31  CE1 PHE B 301     -15.689   6.084  14.829  1.00 39.99 LIG 0.00  A 
ATOM     32  CZ  PHE B 301     -14.992   5.476  15.861  1.00 37.57 LIG 0.00  A 
ATOM     33  CE2 PHE B 301     -15.694   4.835  16.878  1.00 41.60 LIG 0.00  A 
ATOM     34  CD2 PHE B 301     -17.088   4.802  16.854  1.00 40.14 LIG 0.01  A 
ENDBRANCH 28 29
ENDBRANCH 27 28
BRANCH 27 35
ATOM     35  C   PHE B 301     -21.100   3.846  14.729  1.00 45.15 LIG 0.20  C 
ATOM     36 O    PHE B 301     -21.963   4.738  14.628  1.00 42.31 LIG-0.65  OA
ATOM     37 OXT  PHE B 301     -21.211   2.856  13.987  1.00 47.06 LIG-0.65  OA
ENDBRANCH 27 35
ENDBRANCH 24 27
ENDBRANCH 4 23
TORSDOF 12
ENDMDL
MODEL 59
USER: ADFR SOLUTION from run 186
USER: SCORE 13.947458 LL:  -3.373 LR: -10.661 RR:   0.000 FEB:  -7.081
USER: RMSD 7.150325
USER: SEED 185
USER: STATUS no improvement in best in 10 clusters for 5 generations
USER: GENES 14
USER: genes 0 Translation |==|  0.60849 0.72442 0.55505
USER: genes 1 Rotation |==|  0.47281 0.31081 0.94914 0.60836
USER: genes 2 Torsion [N]-C--CA-[N] |==|  0.87778
USER: genes 3 Torsion [C]-CA--CB-[CG] |==|  0.55162
USER: genes 4 Torsion [CA]-CB--CG-[CD2] |==|  0.58094
USER: genes 5 Torsion [C]-CA--N-[C] |==|  0.80983
USER: genes 6 Torsion [N]-C--CA-[N] |==|  0.60564
USER: genes 7 Torsion [C]-CA--CB-[CG] |==|  0.34639
USER: genes 8 Torsion [CA]-CB--CG-[OD2] |==|  0.50001
USER: genes 9 Torsion [N]-CA--C-[N] |==|  0.84875
USER: genes 10 Torsion [C]-N--CA-[CB] |==|  0.88772
USER: genes 11 Torsion [N]-CA--CB-[CG] |==|  0.71874
USER: genes 12 Torsion [CA]-CB--CG-[CD2] |==|  0.78093
USER: genes 13 Torsion [N]-CA--C-[O] |==|  0.52645
ROOT
ATOM      1  C   LEU B 299     -14.466   4.607  14.663  1.00 46.80 LIG 0.24  C 
ATOM      2 O    LEU B 299     -13.520   5.296  14.253  1.00 48.15 LIG-0.27  OA
ATOM      3  N   PRO B 300     -14.392   3.262  14.755  1.00 44.47 LIG-0.34  N 
ATOM      4  CA  PRO B 300     -13.179   2.545  14.330  1.00 41.25 LIG 0.18  C 
ATOM      5  CB  PRO B 300     -13.152   1.344  15.282  1.00 41.07 LIG 0.04  C 
ATOM      6  CG  PRO B 300     -14.623   1.040  15.520  1.00 41.88 LIG 0.02  C 
ATOM      7  CD  PRO B 300     -15.390   2.340  15.346  1.00 43.19 LIG 0.13  C 
ENDROOT
BRANCH 1 8
ATOM      8  CA  LEU B 299     -15.779   5.271  15.115  1.00 51.80 LIG 0.18  C 
BRANCH 8 9
ATOM      9  CB  LEU B 299     -15.809   5.479  16.630  1.00 51.70 LIG 0.04  C 
BRANCH 9 10
ATOM     10  CG  LEU B 299     -17.177   5.712  17.287  1.00 53.57 LIG-0.02  C 
ATOM     11  CD2 LEU B 299     -17.087   6.568  18.548  1.00 54.40 LIG 0.01  C 
ATOM     12  CD1 LEU B 299     -17.844   4.385  17.602  1.00 50.77 LIG 0.01  C 
ENDBRANCH 9 10
ENDBRANCH 8 9
BRANCH 8 13
ATOM     13  N   LEU B 299     -16.993   4.579  14.643  1.00 58.35 LIG-0.35  N 
ATOM     14  C   ASP B 298     -17.323   4.570  13.349  1.00 67.04 LIG 0.26  C 
ATOM     15 O    ASP B 298     -16.605   5.095  12.477  1.00 64.28 LIG-0.27  OA
ATOM     16 H    LEU B 299     -17.451   4.196  15.261  1.00 58.35 LIG 0.16  HD
BRANCH 14 17
ATOM     17  CA  ASP B 298     -18.652   3.871  12.950  1.00 70.29 LIG 0.41  C 
ATOM     18  N   ASP B 298     -18.587   3.112  11.662  1.00 66.44 LIG 0.61  N 
BRANCH 17 19
ATOM     19  CB  ASP B 298     -19.200   2.981  14.087  1.00 75.12 LIG 0.16  C 
BRANCH 19 20
ATOM     20  CG  ASP B 298     -20.641   3.331  14.489  1.00 83.78 LIG 0.17  C 
ATOM     21 OD2  ASP B 298     -21.205   2.685  15.401  1.00 86.97 LIG-0.65  OA
ATOM     22 OD1  ASP B 298     -21.214   4.264  13.886  1.00 89.47 LIG-0.65  OA
ENDBRANCH 19 20
ENDBRANCH 17 19
ENDBRANCH 14 17
ENDBRANCH 8 13
ENDBRANCH 1 8
BRANCH 4 23
ATOM     23  C   PRO B 300     -13.246   2.111  12.834  1.00 41.91 LIG 0.24  C 
ATOM     24  N   PHE B 301     -14.312   1.393  12.489  1.00 41.99 LIG-0.34  N 
ATOM     25 H    PHE B 301     -14.909   1.158  13.061  1.00 41.99 LIG 0.16  HD
ATOM     26 O    PRO B 300     -12.353   2.438  12.042  1.00 39.52 LIG-0.27  OA
BRANCH 24 27
ATOM     27  CA  PHE B 301     -14.609   0.914  11.128  1.00 41.99 LIG 0.19  C 
BRANCH 27 28
ATOM     28  CB  PHE B 301     -14.279   1.987  10.068  1.00 39.59 LIG 0.07  C 
BRANCH 28 29
ATOM     29  CG  PHE B 301     -15.490   2.746   9.545  1.00 41.19 LIG-0.06  A 
ATOM     30  CD1 PHE B 301     -15.786   4.012  10.031  1.00 38.91 LIG 0.01  A 
ATOM     31  CE1 PHE B 301     -16.896   4.723   9.568  1.00 39.99 LIG 0.00  A 
ATOM     32  CZ  PHE B 301     -17.742   4.153   8.628  1.00 37.57 LIG 0.00  A 
ATOM     33  CE2 PHE B 301     -17.460   2.882   8.134  1.00 41.60 LIG 0.00  A 
ATOM     34  CD2 PHE B 301     -16.338   2.187   8.585  1.00 40.14 LIG 0.01  A 
ENDBRANCH 28 29
ENDBRANCH 27 28
BRANCH 27 35
ATOM     35  C   PHE B 301     -13.821  -0.378  10.880  1.00 45.15 LIG 0.20  C 
ATOM     36 O    PHE B 301     -13.726  -0.932   9.769  1.00 42.31 LIG-0.65  OA
ATOM     37 OXT  PHE B 301     -13.217  -0.897  11.832  1.00 47.06 LIG-0.65  OA
ENDBRANCH 27 35
ENDBRANCH 24 27
ENDBRANCH 4 23
TORSDOF 12
ENDMDL
MODEL 60
USER: ADFR SOLUTION from run 124
USER: SCORE 14.069108 LL:  -3.463 LR: -10.625 RR:   0.000 FEB:  -7.046
USER: RMSD 2.803778
USER: SEED 123
USER: STATUS no improvement in best in 19 clusters for 5 generations
USER: GENES 14
USER: genes 0 Translation |==|  0.49558 0.51609 0.50549
USER: genes 1 Rotation |==|  0.66539 0.41719 0.59772 0.95414
USER: genes 2 Torsion [N]-C--CA-[N] |==|  0.36708
USER: genes 3 Torsion [C]-CA--CB-[CG] |==|  0.74128
USER: genes 4 Torsion [CA]-CB--CG-[CD2] |==|  0.12040
USER: genes 5 Torsion [C]-CA--N-[C] |==|  0.85000
USER: genes 6 Torsion [N]-C--CA-[N] |==|  0.86266
USER: genes 7 Torsion [C]-CA--CB-[CG] |==|  0.05215
USER: genes 8 Torsion [CA]-CB--CG-[OD2] |==|  0.70503
USER: genes 9 Torsion [N]-CA--C-[N] |==|  0.86693
USER: genes 10 Torsion [C]-N--CA-[CB] |==|  0.82322
USER: genes 11 Torsion [N]-CA--CB-[CG] |==|  0.81821
USER: genes 12 Torsion [CA]-CB--CG-[CD2] |==|  0.88761
USER: genes 13 Torsion [N]-CA--C-[O] |==|  0.16918
ROOT
ATOM      1  C   LEU B 299     -16.413   0.858  13.956  1.00 46.80 LIG 0.24  C 
ATOM      2 O    LEU B 299     -16.532   1.043  12.737  1.00 48.15 LIG-0.27  OA
ATOM      3  N   PRO B 300     -17.473   0.606  14.754  1.00 44.47 LIG-0.34  N 
ATOM      4  CA  PRO B 300     -18.838   0.579  14.205  1.00 41.25 LIG 0.18  C 
ATOM      5  CB  PRO B 300     -19.533  -0.460  15.090  1.00 41.07 LIG 0.04  C 
ATOM      6  CG  PRO B 300     -18.860  -0.289  16.443  1.00 41.88 LIG 0.02  C 
ATOM      7  CD  PRO B 300     -17.458   0.238  16.190  1.00 43.19 LIG 0.13  C 
ENDROOT
BRANCH 1 8
ATOM      8  CA  LEU B 299     -15.025   0.881  14.621  1.00 51.80 LIG 0.18  C 
BRANCH 8 9
ATOM      9  CB  LEU B 299     -14.549   2.313  14.875  1.00 51.70 LIG 0.04  C 
BRANCH 9 10
ATOM     10  CG  LEU B 299     -13.679   2.973  13.796  1.00 53.57 LIG-0.02  C 
ATOM     11  CD2 LEU B 299     -14.196   2.715  12.383  1.00 54.40 LIG 0.01  C 
ATOM     12  CD1 LEU B 299     -12.240   2.505  13.920  1.00 50.77 LIG 0.01  C 
ENDBRANCH 9 10
ENDBRANCH 8 9
BRANCH 8 13
ATOM     13  N   LEU B 299     -14.004   0.094  13.904  1.00 58.35 LIG-0.35  N 
ATOM     14  C   ASP B 298     -14.208  -1.191  13.604  1.00 67.04 LIG 0.26  C 
ATOM     15 O    ASP B 298     -15.278  -1.772  13.865  1.00 64.28 LIG-0.27  OA
ATOM     16 H    LEU B 299     -13.290   0.529  13.706  1.00 58.35 LIG 0.16  HD
BRANCH 14 17
ATOM     17  CA  ASP B 298     -13.053  -1.959  12.904  1.00 70.29 LIG 0.41  C 
ATOM     18  N   ASP B 298     -12.474  -1.254  11.718  1.00 66.44 LIG 0.61  N 
BRANCH 17 19
ATOM     19  CB  ASP B 298     -11.944  -2.366  13.899  1.00 75.12 LIG 0.16  C 
BRANCH 19 20
ATOM     20  CG  ASP B 298     -12.409  -2.348  15.363  1.00 83.78 LIG 0.17  C 
ATOM     21 OD2  ASP B 298     -12.027  -1.431  16.125  1.00 86.97 LIG-0.65  OA
ATOM     22 OD1  ASP B 298     -13.166  -3.263  15.755  1.00 89.47 LIG-0.65  OA
ENDBRANCH 19 20
ENDBRANCH 17 19
ENDBRANCH 14 17
ENDBRANCH 8 13
ENDBRANCH 1 8
BRANCH 4 23
ATOM     23  C   PRO B 300     -19.529   1.975  14.279  1.00 41.91 LIG 0.24  C 
ATOM     24  N   PHE B 301     -19.445   2.599  15.451  1.00 41.99 LIG-0.34  N 
ATOM     25 H    PHE B 301     -19.060   2.242  16.132  1.00 41.99 LIG 0.16  HD
ATOM     26 O    PRO B 300     -20.103   2.448  13.290  1.00 39.52 LIG-0.27  OA
BRANCH 24 27
ATOM     27  CA  PHE B 301     -19.979   3.941  15.740  1.00 41.99 LIG 0.19  C 
BRANCH 27 28
ATOM     28  CB  PHE B 301     -19.277   5.022  14.891  1.00 39.59 LIG 0.07  C 
BRANCH 28 29
ATOM     29  CG  PHE B 301     -17.799   5.206  15.206  1.00 41.19 LIG-0.06  A 
ATOM     30  CD1 PHE B 301     -16.882   5.388  14.180  1.00 38.91 LIG 0.01  A 
ATOM     31  CE1 PHE B 301     -15.521   5.553  14.449  1.00 39.99 LIG 0.00  A 
ATOM     32  CZ  PHE B 301     -15.061   5.507  15.756  1.00 37.57 LIG 0.00  A 
ATOM     33  CE2 PHE B 301     -15.968   5.322  16.796  1.00 41.60 LIG 0.00  A 
ATOM     34  CD2 PHE B 301     -17.328   5.179  16.522  1.00 40.14 LIG 0.01  A 
ENDBRANCH 28 29
ENDBRANCH 27 28
BRANCH 27 35
ATOM     35  C   PHE B 301     -21.492   3.930  15.490  1.00 45.15 LIG 0.20  C 
ATOM     36 O    PHE B 301     -22.293   3.200  16.104  1.00 42.31 LIG-0.65  OA
ATOM     37 OXT  PHE B 301     -21.960   4.708  14.644  1.00 47.06 LIG-0.65  OA
ENDBRANCH 27 35
ENDBRANCH 24 27
ENDBRANCH 4 23
TORSDOF 12
ENDMDL
MODEL 61
USER: ADFR SOLUTION from run 108
USER: SCORE 13.792538 LL:  -3.586 LR: -10.624 RR:   0.000 FEB:  -7.044
USER: RMSD 6.899140
USER: SEED 107
USER: STATUS no improvement in best in 12 clusters for 5 generations
USER: GENES 14
USER: genes 0 Translation |==|  0.53385 0.62160 0.65427
USER: genes 1 Rotation |==|  0.22075 0.46590 0.83633 0.74029
USER: genes 2 Torsion [N]-C--CA-[N] |==|  0.87580
USER: genes 3 Torsion [C]-CA--CB-[CG] |==|  0.76831
USER: genes 4 Torsion [CA]-CB--CG-[CD2] |==|  0.78425
USER: genes 5 Torsion [C]-CA--N-[C] |==|  0.66123
USER: genes 6 Torsion [N]-C--CA-[N] |==|  0.11938
USER: genes 7 Torsion [C]-CA--CB-[CG] |==|  0.49884
USER: genes 8 Torsion [CA]-CB--CG-[OD2] |==|  0.72235
USER: genes 9 Torsion [N]-CA--C-[N] |==|  0.65956
USER: genes 10 Torsion [C]-N--CA-[CB] |==|  0.84881
USER: genes 11 Torsion [N]-CA--CB-[CG] |==|  0.92884
USER: genes 12 Torsion [CA]-CB--CG-[CD2] |==|  0.86178
USER: genes 13 Torsion [N]-CA--C-[O] |==|  0.17821
ROOT
ATOM      1  C   LEU B 299     -15.753   2.757  16.076  1.00 46.80 LIG 0.24  C 
ATOM      2 O    LEU B 299     -14.728   2.143  16.407  1.00 48.15 LIG-0.27  OA
ATOM      3  N   PRO B 300     -16.991   2.316  16.388  1.00 44.47 LIG-0.34  N 
ATOM      4  CA  PRO B 300     -17.176   1.048  17.113  1.00 41.25 LIG 0.18  C 
ATOM      5  CB  PRO B 300     -18.442   1.315  17.933  1.00 41.07 LIG 0.04  C 
ATOM      6  CG  PRO B 300     -19.257   2.242  17.045  1.00 41.88 LIG 0.02  C 
ATOM      7  CD  PRO B 300     -18.281   3.012  16.173  1.00 43.19 LIG 0.13  C 
ENDROOT
BRANCH 1 8
ATOM      8  CA  LEU B 299     -15.657   4.085  15.304  1.00 51.80 LIG 0.18  C 
BRANCH 8 9
ATOM      9  CB  LEU B 299     -15.751   5.288  16.244  1.00 51.70 LIG 0.04  C 
BRANCH 9 10
ATOM     10  CG  LEU B 299     -17.154   5.760  16.653  1.00 53.57 LIG-0.02  C 
ATOM     11  CD2 LEU B 299     -17.846   6.568  15.558  1.00 54.40 LIG 0.01  C 
ATOM     12  CD1 LEU B 299     -17.085   6.568  17.936  1.00 50.77 LIG 0.01  C 
ENDBRANCH 9 10
ENDBRANCH 8 9
BRANCH 8 13
ATOM     13  N   LEU B 299     -16.612   4.199  14.186  1.00 58.35 LIG-0.35  N 
ATOM     14  C   ASP B 298     -16.190   4.407  12.936  1.00 67.04 LIG 0.26  C 
ATOM     15 O    ASP B 298     -14.982   4.465  12.644  1.00 64.28 LIG-0.27  OA
ATOM     16 H    LEU B 299     -17.438   4.120  14.412  1.00 58.35 LIG 0.16  HD
BRANCH 14 17
ATOM     17  CA  ASP B 298     -17.271   4.577  11.831  1.00 70.29 LIG 0.41  C 
ATOM     18  N   ASP B 298     -18.425   5.443  12.226  1.00 66.44 LIG 0.61  N 
BRANCH 17 19
ATOM     19  CB  ASP B 298     -16.659   5.049  10.494  1.00 75.12 LIG 0.16  C 
BRANCH 19 20
ATOM     20  CG  ASP B 298     -17.700   5.216   9.378  1.00 83.78 LIG 0.17  C 
ATOM     21 OD2  ASP B 298     -17.837   4.318   8.516  1.00 86.97 LIG-0.65  OA
ATOM     22 OD1  ASP B 298     -18.391   6.258   9.363  1.00 89.47 LIG-0.65  OA
ENDBRANCH 19 20
ENDBRANCH 17 19
ENDBRANCH 14 17
ENDBRANCH 8 13
ENDBRANCH 1 8
BRANCH 4 23
ATOM     23  C   PRO B 300     -17.344  -0.163  16.145  1.00 41.91 LIG 0.24  C 
ATOM     24  N   PHE B 301     -18.466  -0.865  16.288  1.00 41.99 LIG-0.34  N 
ATOM     25 H    PHE B 301     -19.047  -0.679  16.894  1.00 41.99 LIG 0.16  HD
ATOM     26 O    PRO B 300     -16.475  -0.424  15.304  1.00 39.52 LIG-0.27  OA
BRANCH 24 27
ATOM     27  CA  PHE B 301     -18.859  -2.016  15.458  1.00 41.99 LIG 0.19  C 
BRANCH 27 28
ATOM     28  CB  PHE B 301     -18.849  -1.659  13.956  1.00 39.59 LIG 0.07  C 
BRANCH 28 29
ATOM     29  CG  PHE B 301     -19.057  -0.180  13.661  1.00 41.19 LIG-0.06  A 
ATOM     30  CD1 PHE B 301     -18.183   0.494  12.818  1.00 38.91 LIG 0.01  A 
ATOM     31  CE1 PHE B 301     -18.354   1.852  12.539  1.00 39.99 LIG 0.00  A 
ATOM     32  CZ  PHE B 301     -19.391   2.558  13.130  1.00 37.57 LIG 0.00  A 
ATOM     33  CE2 PHE B 301     -20.273   1.896  13.980  1.00 41.60 LIG 0.00  A 
ATOM     34  CD2 PHE B 301     -20.110   0.535  14.238  1.00 40.14 LIG 0.01  A 
ENDBRANCH 28 29
ENDBRANCH 27 28
BRANCH 27 35
ATOM     35  C   PHE B 301     -17.914  -3.184  15.762  1.00 45.15 LIG 0.20  C 
ATOM     36 O    PHE B 301     -17.837  -3.747  16.870  1.00 42.31 LIG-0.65  OA
ATOM     37 OXT  PHE B 301     -17.194  -3.619  14.848  1.00 47.06 LIG-0.65  OA
ENDBRANCH 27 35
ENDBRANCH 24 27
ENDBRANCH 4 23
TORSDOF 12
ENDMDL
MODEL 62
USER: ADFR SOLUTION from run 39
USER: SCORE 14.201888 LL:  -3.678 LR: -10.605 RR:   0.000 FEB:  -7.026
USER: RMSD 7.367405
USER: SEED 38
USER: STATUS no improvement in best in 6 clusters for 5 generations
USER: GENES 14
USER: genes 0 Translation |==|  0.60234 0.72148 0.56785
USER: genes 1 Rotation |==|  0.45294 0.33036 0.95354 0.61538
USER: genes 2 Torsion [N]-C--CA-[N] |==|  0.87243
USER: genes 3 Torsion [C]-CA--CB-[CG] |==|  0.58973
USER: genes 4 Torsion [CA]-CB--CG-[CD2] |==|  0.57231
USER: genes 5 Torsion [C]-CA--N-[C] |==|  0.83657
USER: genes 6 Torsion [N]-C--CA-[N] |==|  0.55199
USER: genes 7 Torsion [C]-CA--CB-[CG] |==|  0.34478
USER: genes 8 Torsion [CA]-CB--CG-[OD2] |==|  0.01594
USER: genes 9 Torsion [N]-CA--C-[N] |==|  0.17121
USER: genes 10 Torsion [C]-N--CA-[CB] |==|  0.90135
USER: genes 11 Torsion [N]-CA--CB-[CG] |==|  0.79326
USER: genes 12 Torsion [CA]-CB--CG-[CD2] |==|  0.78232
USER: genes 13 Torsion [N]-CA--C-[O] |==|  0.87623
ROOT
ATOM      1  C   LEU B 299     -14.572   4.555  14.845  1.00 46.80 LIG 0.24  C 
ATOM      2 O    LEU B 299     -13.572   5.150  14.418  1.00 48.15 LIG-0.27  OA
ATOM      3  N   PRO B 300     -14.580   3.222  15.063  1.00 44.47 LIG-0.34  N 
ATOM      4  CA  PRO B 300     -13.394   2.404  14.761  1.00 41.25 LIG 0.18  C 
ATOM      5  CB  PRO B 300     -13.474   1.298  15.818  1.00 41.07 LIG 0.04  C 
ATOM      6  CG  PRO B 300     -14.969   1.097  16.016  1.00 41.88 LIG 0.02  C 
ATOM      7  CD  PRO B 300     -15.652   2.414  15.690  1.00 43.19 LIG 0.13  C 
ENDROOT
BRANCH 1 8
ATOM      8  CA  LEU B 299     -15.862   5.327  15.175  1.00 51.80 LIG 0.18  C 
BRANCH 8 9
ATOM      9  CB  LEU B 299     -15.963   5.636  16.670  1.00 51.70 LIG 0.04  C 
BRANCH 9 10
ATOM     10  CG  LEU B 299     -17.367   5.678  17.292  1.00 53.57 LIG-0.02  C 
ATOM     11  CD2 LEU B 299     -17.436   6.568  18.530  1.00 54.40 LIG 0.01  C 
ATOM     12  CD1 LEU B 299     -17.837   4.275  17.628  1.00 50.77 LIG 0.01  C 
ENDBRANCH 9 10
ENDBRANCH 8 9
BRANCH 8 13
ATOM     13  N   LEU B 299     -17.090   4.683  14.674  1.00 58.35 LIG-0.35  N 
ATOM     14  C   ASP B 298     -17.260   4.438  13.372  1.00 67.04 LIG 0.26  C 
ATOM     15 O    ASP B 298     -16.379   4.691  12.529  1.00 64.28 LIG-0.27  OA
ATOM     16 H    LEU B 299     -17.666   4.488  15.282  1.00 58.35 LIG 0.16  HD
BRANCH 14 17
ATOM     17  CA  ASP B 298     -18.612   3.814  12.927  1.00 70.29 LIG 0.41  C 
ATOM     18  N   ASP B 298     -18.578   3.169  11.577  1.00 66.44 LIG 0.61  N 
BRANCH 17 19
ATOM     19  CB  ASP B 298     -19.176   2.843  13.988  1.00 75.12 LIG 0.16  C 
BRANCH 19 20
ATOM     20  CG  ASP B 298     -20.597   3.205  14.444  1.00 83.78 LIG 0.17  C 
ATOM     21 OD2  ASP B 298     -21.212   4.138  13.878  1.00 86.97 LIG-0.65  OA
ATOM     22 OD1  ASP B 298     -21.105   2.548  15.378  1.00 89.47 LIG-0.65  OA
ENDBRANCH 19 20
ENDBRANCH 17 19
ENDBRANCH 14 17
ENDBRANCH 8 13
ENDBRANCH 1 8
BRANCH 4 23
ATOM     23  C   PRO B 300     -13.425   1.836  13.309  1.00 41.91 LIG 0.24  C 
ATOM     24  N   PHE B 301     -13.432   2.744  12.335  1.00 41.99 LIG-0.34  N 
ATOM     25 H    PHE B 301     -13.448   3.588  12.498  1.00 41.99 LIG 0.16  HD
ATOM     26 O    PRO B 300     -13.433   0.615  13.109  1.00 39.52 LIG-0.27  OA
BRANCH 24 27
ATOM     27  CA  PHE B 301     -13.413   2.443  10.894  1.00 41.99 LIG 0.19  C 
BRANCH 27 28
ATOM     28  CB  PHE B 301     -12.554   1.197  10.589  1.00 39.59 LIG 0.07  C 
BRANCH 28 29
ATOM     29  CG  PHE B 301     -11.053   1.433  10.678  1.00 41.19 LIG-0.06  A 
ATOM     30  CD1 PHE B 301     -10.348   1.032  11.805  1.00 38.91 LIG 0.01  A 
ATOM     31  CE1 PHE B 301      -8.971   1.245  11.908  1.00 39.99 LIG 0.00  A 
ATOM     32  CZ  PHE B 301      -8.290   1.891  10.888  1.00 37.57 LIG 0.00  A 
ATOM     33  CE2 PHE B 301      -8.983   2.302   9.754  1.00 41.60 LIG 0.00  A 
ATOM     34  CD2 PHE B 301     -10.355   2.068   9.648  1.00 40.14 LIG 0.01  A 
ENDBRANCH 28 29
ENDBRANCH 27 28
BRANCH 27 35
ATOM     35  C   PHE B 301     -14.858   2.257  10.414  1.00 45.15 LIG 0.20  C 
ATOM     36 O    PHE B 301     -15.715   1.593  11.027  1.00 42.31 LIG-0.65  OA
ATOM     37 OXT  PHE B 301     -15.212   2.818   9.365  1.00 47.06 LIG-0.65  OA
ENDBRANCH 27 35
ENDBRANCH 24 27
ENDBRANCH 4 23
TORSDOF 12
ENDMDL
MODEL 63
USER: ADFR SOLUTION from run 101
USER: SCORE 13.989575 LL:  -3.522 LR: -10.596 RR:   0.000 FEB:  -7.016
USER: RMSD 5.155474
USER: SEED 100
USER: STATUS no improvement in best in 15 clusters for 5 generations
USER: GENES 14
USER: genes 0 Translation |==|  0.28505 0.44568 0.67153
USER: genes 1 Rotation |==|  0.35715 0.78853 0.35910 0.85565
USER: genes 2 Torsion [N]-C--CA-[N] |==|  0.40989
USER: genes 3 Torsion [C]-CA--CB-[CG] |==|  0.62663
USER: genes 4 Torsion [CA]-CB--CG-[CD2] |==|  0.57506
USER: genes 5 Torsion [C]-CA--N-[C] |==|  0.68819
USER: genes 6 Torsion [N]-C--CA-[N] |==|  0.76017
USER: genes 7 Torsion [C]-CA--CB-[CG] |==|  0.74968
USER: genes 8 Torsion [CA]-CB--CG-[OD2] |==|  0.10688
USER: genes 9 Torsion [N]-CA--C-[N] |==|  0.71710
USER: genes 10 Torsion [C]-N--CA-[CB] |==|  0.46535
USER: genes 11 Torsion [N]-CA--CB-[CG] |==|  0.06298
USER: genes 12 Torsion [CA]-CB--CG-[CD2] |==|  0.26121
USER: genes 13 Torsion [N]-CA--C-[O] |==|  0.70600
ROOT
ATOM      1  C   LEU B 299     -20.045  -0.410  16.322  1.00 46.80 LIG 0.24  C 
ATOM      2 O    LEU B 299     -21.151  -0.382  16.880  1.00 48.15 LIG-0.27  OA
ATOM      3  N   PRO B 300     -19.192   0.636  16.359  1.00 44.47 LIG-0.34  N 
ATOM      4  CA  PRO B 300     -19.563   1.886  17.042  1.00 41.25 LIG 0.18  C 
ATOM      5  CB  PRO B 300     -18.215   2.397  17.558  1.00 41.07 LIG 0.04  C 
ATOM      6  CG  PRO B 300     -17.226   1.936  16.499  1.00 41.88 LIG 0.02  C 
ATOM      7  CD  PRO B 300     -17.799   0.687  15.854  1.00 43.19 LIG 0.13  C 
ENDROOT
BRANCH 1 8
ATOM      8  CA  LEU B 299     -19.577  -1.670  15.572  1.00 51.80 LIG 0.18  C 
BRANCH 8 9
ATOM      9  CB  LEU B 299     -19.871  -1.572  14.074  1.00 51.70 LIG 0.04  C 
BRANCH 9 10
ATOM     10  CG  LEU B 299     -20.495  -2.798  13.392  1.00 53.57 LIG-0.02  C 
ATOM     11  CD2 LEU B 299     -20.156  -2.882  11.906  1.00 54.40 LIG 0.01  C 
ATOM     12  CD1 LEU B 299     -22.000  -2.801  13.587  1.00 50.77 LIG 0.01  C 
ENDBRANCH 9 10
ENDBRANCH 8 9
BRANCH 8 13
ATOM     13  N   LEU B 299     -20.090  -2.931  16.140  1.00 58.35 LIG-0.35  N 
ATOM     14  C   ASP B 298     -19.272  -3.805  16.731  1.00 67.04 LIG 0.26  C 
ATOM     15 O    ASP B 298     -18.056  -3.582  16.878  1.00 64.28 LIG-0.27  OA
ATOM     16 H    LEU B 299     -20.938  -3.042  16.055  1.00 58.35 LIG 0.16  HD
BRANCH 14 17
ATOM     17  CA  ASP B 298     -19.891  -5.135  17.245  1.00 70.29 LIG 0.41  C 
ATOM     18  N   ASP B 298     -20.464  -5.056  18.625  1.00 66.44 LIG 0.61  N 
BRANCH 17 19
ATOM     19  CB  ASP B 298     -20.922  -5.714  16.251  1.00 75.12 LIG 0.16  C 
BRANCH 19 20
ATOM     20  CG  ASP B 298     -22.353  -5.217  16.506  1.00 83.78 LIG 0.17  C 
ATOM     21 OD2  ASP B 298     -22.545  -4.028  16.850  1.00 86.97 LIG-0.65  OA
ATOM     22 OD1  ASP B 298     -23.296  -6.025  16.360  1.00 89.47 LIG-0.65  OA
ENDBRANCH 19 20
ENDBRANCH 17 19
ENDBRANCH 14 17
ENDBRANCH 8 13
ENDBRANCH 1 8
BRANCH 4 23
ATOM     23  C   PRO B 300     -20.251   2.901  16.079  1.00 41.91 LIG 0.24  C 
ATOM     24  N   PHE B 301     -19.480   3.894  15.641  1.00 41.99 LIG-0.34  N 
ATOM     25 H    PHE B 301     -18.665   3.986  15.898  1.00 41.99 LIG 0.16  HD
ATOM     26 O    PRO B 300     -21.436   2.759  15.753  1.00 39.52 LIG-0.27  OA
BRANCH 24 27
ATOM     27  CA  PHE B 301     -19.898   4.939  14.692  1.00 41.99 LIG 0.19  C 
BRANCH 27 28
ATOM     28  CB  PHE B 301     -18.876   6.095  14.639  1.00 39.59 LIG 0.07  C 
BRANCH 28 29
ATOM     29  CG  PHE B 301     -17.474   5.716  15.096  1.00 41.19 LIG-0.06  A 
ATOM     30  CD1 PHE B 301     -17.135   5.782  16.440  1.00 38.91 LIG 0.01  A 
ATOM     31  CE1 PHE B 301     -15.852   5.443  16.878  1.00 39.99 LIG 0.00  A 
ATOM     32  CZ  PHE B 301     -14.884   5.062  15.962  1.00 37.57 LIG 0.00  A 
ATOM     33  CE2 PHE B 301     -15.208   4.994  14.610  1.00 41.60 LIG 0.00  A 
ATOM     34  CD2 PHE B 301     -16.497   5.313  14.182  1.00 40.14 LIG 0.01  A 
ENDBRANCH 28 29
ENDBRANCH 27 28
BRANCH 27 35
ATOM     35  C   PHE B 301     -20.088   4.298  13.311  1.00 45.15 LIG 0.20  C 
ATOM     36 O    PHE B 301     -19.295   4.442  12.362  1.00 42.31 LIG-0.65  OA
ATOM     37 OXT  PHE B 301     -21.077   3.570  13.126  1.00 47.06 LIG-0.65  OA
ENDBRANCH 27 35
ENDBRANCH 24 27
ENDBRANCH 4 23
TORSDOF 12
ENDMDL
MODEL 64
USER: ADFR SOLUTION from run 135
USER: SCORE 14.082765 LL:  -3.741 LR: -10.586 RR:   0.000 FEB:  -7.007
USER: RMSD 4.035972
USER: SEED 134
USER: STATUS no improvement in best in 8 clusters for 5 generations
USER: GENES 14
USER: genes 0 Translation |==|  0.34941 0.45872 0.65461
USER: genes 1 Rotation |==|  0.41129 0.93200 0.41703 0.72051
USER: genes 2 Torsion [N]-C--CA-[N] |==|  0.14843
USER: genes 3 Torsion [C]-CA--CB-[CG] |==|  0.46948
USER: genes 4 Torsion [CA]-CB--CG-[CD2] |==|  0.28264
USER: genes 5 Torsion [C]-CA--N-[C] |==|  0.16591
USER: genes 6 Torsion [N]-C--CA-[N] |==|  0.82755
USER: genes 7 Torsion [C]-CA--CB-[CG] |==|  0.23161
USER: genes 8 Torsion [CA]-CB--CG-[OD2] |==|  0.68092
USER: genes 9 Torsion [N]-CA--C-[N] |==|  0.95748
USER: genes 10 Torsion [C]-N--CA-[CB] |==|  0.27073
USER: genes 11 Torsion [N]-CA--CB-[CG] |==|  0.91796
USER: genes 12 Torsion [CA]-CB--CG-[CD2] |==|  0.78933
USER: genes 13 Torsion [N]-CA--C-[O] |==|  0.48669
ROOT
ATOM      1  C   LEU B 299     -18.935  -0.175  16.081  1.00 46.80 LIG 0.24  C 
ATOM      2 O    LEU B 299     -19.353  -0.195  17.248  1.00 48.15 LIG-0.27  OA
ATOM      3  N   PRO B 300     -17.941   0.649  15.685  1.00 44.47 LIG-0.34  N 
ATOM      4  CA  PRO B 300     -17.330   1.598  16.629  1.00 41.25 LIG 0.18  C 
ATOM      5  CB  PRO B 300     -15.885   1.683  16.128  1.00 41.07 LIG 0.04  C 
ATOM      6  CG  PRO B 300     -16.014   1.507  14.623  1.00 41.88 LIG 0.02  C 
ATOM      7  CD  PRO B 300     -17.262   0.680  14.368  1.00 43.19 LIG 0.13  C 
ENDROOT
BRANCH 1 8
ATOM      8  CA  LEU B 299     -19.524  -1.123  15.021  1.00 51.80 LIG 0.18  C 
BRANCH 8 9
ATOM      9  CB  LEU B 299     -20.647  -1.984  15.602  1.00 51.70 LIG 0.04  C 
BRANCH 9 10
ATOM     10  CG  LEU B 299     -21.505  -2.791  14.615  1.00 53.57 LIG-0.02  C 
ATOM     11  CD2 LEU B 299     -21.116  -4.266  14.566  1.00 54.40 LIG 0.01  C 
ATOM     12  CD1 LEU B 299     -21.425  -2.181  13.228  1.00 50.77 LIG 0.01  C 
ENDBRANCH 9 10
ENDBRANCH 8 9
BRANCH 8 13
ATOM     13  N   LEU B 299     -18.516  -1.948  14.328  1.00 58.35 LIG-0.35  N 
ATOM     14  C   ASP B 298     -17.731  -2.791  15.004  1.00 67.04 LIG 0.26  C 
ATOM     15 O    ASP B 298     -17.842  -2.961  16.232  1.00 64.28 LIG-0.27  OA
ATOM     16 H    LEU B 299     -18.486  -1.835  13.477  1.00 58.35 LIG 0.16  HD
BRANCH 14 17
ATOM     17  CA  ASP B 298     -16.655  -3.573  14.200  1.00 70.29 LIG 0.41  C 
ATOM     18  N   ASP B 298     -17.211  -4.485  13.152  1.00 66.44 LIG 0.61  N 
BRANCH 17 19
ATOM     19  CB  ASP B 298     -15.585  -2.633  13.602  1.00 75.12 LIG 0.16  C 
BRANCH 19 20
ATOM     20  CG  ASP B 298     -14.472  -2.273  14.598  1.00 83.78 LIG 0.17  C 
ATOM     21 OD2  ASP B 298     -14.340  -1.088  14.980  1.00 86.97 LIG-0.65  OA
ATOM     22 OD1  ASP B 298     -13.722  -3.187  15.003  1.00 89.47 LIG-0.65  OA
ENDBRANCH 19 20
ENDBRANCH 17 19
ENDBRANCH 14 17
ENDBRANCH 8 13
ENDBRANCH 1 8
BRANCH 4 23
ATOM     23  C   PRO B 300     -18.043   2.985  16.613  1.00 41.91 LIG 0.24  C 
ATOM     24  N   PHE B 301     -18.844   3.210  15.574  1.00 41.99 LIG-0.34  N 
ATOM     25 H    PHE B 301     -18.938   2.639  14.938  1.00 41.99 LIG 0.16  HD
ATOM     26 O    PRO B 300     -17.862   3.798  17.528  1.00 39.52 LIG-0.27  OA
BRANCH 24 27
ATOM     27  CA  PHE B 301     -19.652   4.423  15.372  1.00 41.99 LIG 0.19  C 
BRANCH 27 28
ATOM     28  CB  PHE B 301     -18.945   5.423  14.431  1.00 39.59 LIG 0.07  C 
BRANCH 28 29
ATOM     29  CG  PHE B 301     -17.425   5.359  14.476  1.00 41.19 LIG-0.06  A 
ATOM     30  CD1 PHE B 301     -16.720   4.734  13.456  1.00 38.91 LIG 0.01  A 
ATOM     31  CE1 PHE B 301     -15.325   4.661  13.483  1.00 39.99 LIG 0.00  A 
ATOM     32  CZ  PHE B 301     -14.622   5.191  14.553  1.00 37.57 LIG 0.00  A 
ATOM     33  CE2 PHE B 301     -15.315   5.818  15.585  1.00 41.60 LIG 0.00  A 
ATOM     34  CD2 PHE B 301     -16.706   5.907  15.543  1.00 40.14 LIG 0.01  A 
ENDBRANCH 28 29
ENDBRANCH 27 28
BRANCH 27 35
ATOM     35  C   PHE B 301     -21.024   4.012  14.822  1.00 45.15 LIG 0.20  C 
ATOM     36 O    PHE B 301     -21.962   4.808  14.628  1.00 42.31 LIG-0.65  OA
ATOM     37 OXT  PHE B 301     -21.212   2.821  14.525  1.00 47.06 LIG-0.65  OA
ENDBRANCH 27 35
ENDBRANCH 24 27
ENDBRANCH 4 23
TORSDOF 12
ENDMDL
MODEL 65
USER: ADFR SOLUTION from run 102
USER: SCORE 13.962167 LL:  -3.646 LR: -10.576 RR:   0.000 FEB:  -6.996
USER: RMSD 7.176150
USER: SEED 101
USER: STATUS no improvement in best in 12 clusters for 5 generations
USER: GENES 14
USER: genes 0 Translation |==|  0.51643 0.62165 0.63132
USER: genes 1 Rotation |==|  0.19042 0.48966 0.82037 0.72675
USER: genes 2 Torsion [N]-C--CA-[N] |==|  0.87967
USER: genes 3 Torsion [C]-CA--CB-[CG] |==|  0.80156
USER: genes 4 Torsion [CA]-CB--CG-[CD2] |==|  0.75707
USER: genes 5 Torsion [C]-CA--N-[C] |==|  0.74164
USER: genes 6 Torsion [N]-C--CA-[N] |==|  0.81506
USER: genes 7 Torsion [C]-CA--CB-[CG] |==|  0.41262
USER: genes 8 Torsion [CA]-CB--CG-[OD2] |==|  0.93978
USER: genes 9 Torsion [N]-CA--C-[N] |==|  0.83440
USER: genes 10 Torsion [C]-N--CA-[CB] |==|  0.32878
USER: genes 11 Torsion [N]-CA--CB-[CG] |==|  0.75875
USER: genes 12 Torsion [CA]-CB--CG-[CD2] |==|  0.01384
USER: genes 13 Torsion [N]-CA--C-[O] |==|  0.49447
ROOT
ATOM      1  C   LEU B 299     -16.054   2.758  15.749  1.00 46.80 LIG 0.24  C 
ATOM      2 O    LEU B 299     -15.094   2.150  16.246  1.00 48.15 LIG-0.27  OA
ATOM      3  N   PRO B 300     -17.335   2.430  16.023  1.00 44.47 LIG-0.34  N 
ATOM      4  CA  PRO B 300     -17.648   1.296  16.907  1.00 41.25 LIG 0.18  C 
ATOM      5  CB  PRO B 300     -18.950   1.746  17.577  1.00 41.07 LIG 0.04  C 
ATOM      6  CG  PRO B 300     -19.643   2.569  16.502  1.00 41.88 LIG 0.02  C 
ATOM      7  CD  PRO B 300     -18.562   3.150  15.608  1.00 43.19 LIG 0.13  C 
ENDROOT
BRANCH 1 8
ATOM      8  CA  LEU B 299     -15.822   3.949  14.802  1.00 51.80 LIG 0.18  C 
BRANCH 8 9
ATOM      9  CB  LEU B 299     -15.875   5.280  15.553  1.00 51.70 LIG 0.04  C 
BRANCH 9 10
ATOM     10  CG  LEU B 299     -17.247   5.759  16.052  1.00 53.57 LIG-0.02  C 
ATOM     11  CD2 LEU B 299     -18.006   6.568  15.004  1.00 54.40 LIG 0.01  C 
ATOM     12  CD1 LEU B 299     -17.090   6.568  17.327  1.00 50.77 LIG 0.01  C 
ENDBRANCH 9 10
ENDBRANCH 8 9
BRANCH 8 13
ATOM     13  N   LEU B 299     -16.709   3.959  13.624  1.00 58.35 LIG-0.35  N 
ATOM     14  C   ASP B 298     -16.332   3.402  12.471  1.00 67.04 LIG 0.26  C 
ATOM     15 O    ASP B 298     -15.245   2.807  12.345  1.00 64.28 LIG-0.27  OA
ATOM     16 H    LEU B 299     -17.466   4.346  13.749  1.00 58.35 LIG 0.16  HD
BRANCH 14 17
ATOM     17  CA  ASP B 298     -17.305   3.515  11.264  1.00 70.29 LIG 0.41  C 
ATOM     18  N   ASP B 298     -18.587   2.762  11.434  1.00 66.44 LIG 0.61  N 
BRANCH 17 19
ATOM     19  CB  ASP B 298     -17.575   4.985  10.877  1.00 75.12 LIG 0.16  C 
BRANCH 19 20
ATOM     20  CG  ASP B 298     -17.837   5.177   9.376  1.00 83.78 LIG 0.17  C 
ATOM     21 OD2  ASP B 298     -17.431   4.319   8.560  1.00 86.97 LIG-0.65  OA
ATOM     22 OD1  ASP B 298     -18.457   6.199   9.008  1.00 89.47 LIG-0.65  OA
ENDBRANCH 19 20
ENDBRANCH 17 19
ENDBRANCH 14 17
ENDBRANCH 8 13
ENDBRANCH 1 8
BRANCH 4 23
ATOM     23  C   PRO B 300     -17.820  -0.036  16.116  1.00 41.91 LIG 0.24  C 
ATOM     24  N   PHE B 301     -18.782  -0.041  15.196  1.00 41.99 LIG-0.34  N 
ATOM     25 H    PHE B 301     -19.294   0.638  15.068  1.00 41.99 LIG 0.16  HD
ATOM     26 O    PRO B 300     -17.087  -1.006  16.346  1.00 39.52 LIG-0.27  OA
BRANCH 24 27
ATOM     27  CA  PHE B 301     -19.095  -1.166  14.300  1.00 41.99 LIG 0.19  C 
BRANCH 27 28
ATOM     28  CB  PHE B 301     -20.531  -1.685  14.526  1.00 39.59 LIG 0.07  C 
BRANCH 28 29
ATOM     29  CG  PHE B 301     -20.655  -2.733  15.624  1.00 41.19 LIG-0.06  A 
ATOM     30  CD1 PHE B 301     -21.876  -3.345  15.873  1.00 38.91 LIG 0.01  A 
ATOM     31  CE1 PHE B 301     -22.010  -4.304  16.880  1.00 39.99 LIG 0.00  A 
ATOM     32  CZ  PHE B 301     -20.921  -4.638  17.671  1.00 37.57 LIG 0.00  A 
ATOM     33  CE2 PHE B 301     -19.691  -4.030  17.435  1.00 41.60 LIG 0.00  A 
ATOM     34  CD2 PHE B 301     -19.559  -3.089  16.415  1.00 40.14 LIG 0.01  A 
ENDBRANCH 28 29
ENDBRANCH 27 28
BRANCH 27 35
ATOM     35  C   PHE B 301     -18.888  -0.711  12.850  1.00 45.15 LIG 0.20  C 
ATOM     36 O    PHE B 301     -19.038  -1.451  11.860  1.00 42.31 LIG-0.65  OA
ATOM     37 OXT  PHE B 301     -18.575   0.472  12.638  1.00 47.06 LIG-0.65  OA
ENDBRANCH 27 35
ENDBRANCH 24 27
ENDBRANCH 4 23
TORSDOF 12
ENDMDL
MODEL 66
USER: ADFR SOLUTION from run 75
USER: SCORE 14.700847 LL:  -4.620 LR: -10.577 RR:   0.000 FEB:  -6.998
USER: RMSD 6.252886
USER: SEED 74
USER: STATUS no improvement in best in 10 clusters for 5 generations
USER: GENES 14
USER: genes 0 Translation |==|  0.59490 0.60399 0.35269
USER: genes 1 Rotation |==|  0.39152 0.82098 0.85819 0.58308
USER: genes 2 Torsion [N]-C--CA-[N] |==|  0.84679
USER: genes 3 Torsion [C]-CA--CB-[CG] |==|  0.52170
USER: genes 4 Torsion [CA]-CB--CG-[CD2] |==|  0.23298
USER: genes 5 Torsion [C]-CA--N-[C] |==|  0.88187
USER: genes 6 Torsion [N]-C--CA-[N] |==|  0.52720
USER: genes 7 Torsion [C]-CA--CB-[CG] |==|  0.54761
USER: genes 8 Torsion [CA]-CB--CG-[OD2] |==|  0.08641
USER: genes 9 Torsion [N]-CA--C-[N] |==|  0.93486
USER: genes 10 Torsion [C]-N--CA-[CB] |==|  0.41301
USER: genes 11 Torsion [N]-CA--CB-[CG] |==|  0.92652
USER: genes 12 Torsion [CA]-CB--CG-[CD2] |==|  0.39168
USER: genes 13 Torsion [N]-CA--C-[O] |==|  0.18232
ROOT
ATOM      1  C   LEU B 299     -14.700   2.440  11.779  1.00 46.80 LIG 0.24  C 
ATOM      2 O    LEU B 299     -13.867   1.539  11.606  1.00 48.15 LIG-0.27  OA
ATOM      3  N   PRO B 300     -14.631   3.298  12.819  1.00 44.47 LIG-0.34  N 
ATOM      4  CA  PRO B 300     -13.567   3.171  13.829  1.00 41.25 LIG 0.18  C 
ATOM      5  CB  PRO B 300     -13.335   4.625  14.253  1.00 41.07 LIG 0.04  C 
ATOM      6  CG  PRO B 300     -14.713   5.258  14.133  1.00 41.88 LIG 0.02  C 
ATOM      7  CD  PRO B 300     -15.475   4.490  13.068  1.00 43.19 LIG 0.13  C 
ENDROOT
BRANCH 1 8
ATOM      8  CA  LEU B 299     -15.856   2.639  10.782  1.00 51.80 LIG 0.18  C 
BRANCH 8 9
ATOM      9  CB  LEU B 299     -15.643   3.883   9.918  1.00 51.70 LIG 0.04  C 
BRANCH 9 10
ATOM     10  CG  LEU B 299     -16.798   4.318   9.003  1.00 53.57 LIG-0.02  C 
ATOM     11  CD2 LEU B 299     -17.835   5.170   9.729  1.00 54.40 LIG 0.01  C 
ATOM     12  CD1 LEU B 299     -17.461   3.104   8.379  1.00 50.77 LIG 0.01  C 
ENDBRANCH 9 10
ENDBRANCH 8 9
BRANCH 8 13
ATOM     13  N   LEU B 299     -17.192   2.639  11.406  1.00 58.35 LIG-0.35  N 
ATOM     14  C   ASP B 298     -17.511   1.755  12.355  1.00 67.04 LIG 0.26  C 
ATOM     15 O    ASP B 298     -16.691   0.927  12.793  1.00 64.28 LIG-0.27  OA
ATOM     16 H    LEU B 299     -17.726   3.244  11.109  1.00 58.35 LIG 0.16  HD
BRANCH 14 17
ATOM     17  CA  ASP B 298     -18.962   1.789  12.911  1.00 70.29 LIG 0.41  C 
ATOM     18  N   ASP B 298     -19.178   0.934  14.121  1.00 66.44 LIG 0.61  N 
BRANCH 17 19
ATOM     19  CB  ASP B 298     -19.451   3.232  13.161  1.00 75.12 LIG 0.16  C 
BRANCH 19 20
ATOM     20  CG  ASP B 298     -20.679   3.305  14.080  1.00 83.78 LIG 0.17  C 
ATOM     21 OD2  ASP B 298     -20.837   2.443  14.974  1.00 86.97 LIG-0.65  OA
ATOM     22 OD1  ASP B 298     -21.495   4.236  13.906  1.00 89.47 LIG-0.65  OA
ENDBRANCH 19 20
ENDBRANCH 17 19
ENDBRANCH 14 17
ENDBRANCH 8 13
ENDBRANCH 1 8
BRANCH 4 23
ATOM     23  C   PRO B 300     -13.995   2.267  15.025  1.00 41.91 LIG 0.24  C 
ATOM     24  N   PHE B 301     -15.307   2.158  15.225  1.00 41.99 LIG-0.34  N 
ATOM     25 H    PHE B 301     -15.878   2.582  14.743  1.00 41.99 LIG 0.16  HD
ATOM     26 O    PRO B 300     -13.146   1.694  15.719  1.00 39.52 LIG-0.27  OA
BRANCH 24 27
ATOM     27  CA  PHE B 301     -15.942   1.326  16.260  1.00 41.99 LIG 0.19  C 
BRANCH 27 28
ATOM     28  CB  PHE B 301     -17.267   1.948  16.749  1.00 39.59 LIG 0.07  C 
BRANCH 28 29
ATOM     29  CG  PHE B 301     -17.342   3.462  16.603  1.00 41.19 LIG-0.06  A 
ATOM     30  CD1 PHE B 301     -16.231   4.247  16.878  1.00 38.91 LIG 0.01  A 
ATOM     31  CE1 PHE B 301     -16.283   5.638  16.754  1.00 39.99 LIG 0.00  A 
ATOM     32  CZ  PHE B 301     -17.464   6.259  16.380  1.00 37.57 LIG 0.00  A 
ATOM     33  CE2 PHE B 301     -18.588   5.485  16.104  1.00 41.60 LIG 0.00  A 
ATOM     34  CD2 PHE B 301     -18.524   4.095  16.209  1.00 40.14 LIG 0.01  A 
ENDBRANCH 28 29
ENDBRANCH 27 28
BRANCH 27 35
ATOM     35  C   PHE B 301     -16.161  -0.081  15.691  1.00 45.15 LIG 0.20  C 
ATOM     36 O    PHE B 301     -15.239  -0.856  15.376  1.00 42.31 LIG-0.65  OA
ATOM     37 OXT  PHE B 301     -17.325  -0.492  15.555  1.00 47.06 LIG-0.65  OA
ENDBRANCH 27 35
ENDBRANCH 24 27
ENDBRANCH 4 23
TORSDOF 12
ENDMDL
MODEL 67
USER: ADFR SOLUTION from run 147
USER: SCORE 14.338721 LL:  -3.821 LR: -10.557 RR:   0.000 FEB:  -6.978
USER: RMSD 5.444690
USER: SEED 146
USER: STATUS no improvement in best in 15 clusters for 5 generations
USER: GENES 14
USER: genes 0 Translation |==|  0.54975 0.64422 0.51643
USER: genes 1 Rotation |==|  0.28993 0.74528 0.65076 0.85069
USER: genes 2 Torsion [N]-C--CA-[N] |==|  0.38059
USER: genes 3 Torsion [C]-CA--CB-[CG] |==|  0.25115
USER: genes 4 Torsion [CA]-CB--CG-[CD2] |==|  0.71648
USER: genes 5 Torsion [C]-CA--N-[C] |==|  0.78897
USER: genes 6 Torsion [N]-C--CA-[N] |==|  0.18775
USER: genes 7 Torsion [C]-CA--CB-[CG] |==|  0.64787
USER: genes 8 Torsion [CA]-CB--CG-[OD2] |==|  0.34673
USER: genes 9 Torsion [N]-CA--C-[N] |==|  0.98660
USER: genes 10 Torsion [C]-N--CA-[CB] |==|  0.76784
USER: genes 11 Torsion [N]-CA--CB-[CG] |==|  0.08950
USER: genes 12 Torsion [CA]-CB--CG-[CD2] |==|  0.24189
USER: genes 13 Torsion [N]-CA--C-[O] |==|  0.12698
ROOT
ATOM      1  C   LEU B 299     -15.479   3.164  14.112  1.00 46.80 LIG 0.24  C 
ATOM      2 O    LEU B 299     -15.714   2.065  14.634  1.00 48.15 LIG-0.27  OA
ATOM      3  N   PRO B 300     -15.911   4.325  14.650  1.00 44.47 LIG-0.34  N 
ATOM      4  CA  PRO B 300     -16.724   4.329  15.876  1.00 41.25 LIG 0.18  C 
ATOM      5  CB  PRO B 300     -16.307   5.641  16.548  1.00 41.07 LIG 0.04  C 
ATOM      6  CG  PRO B 300     -16.018   6.568  15.378  1.00 41.88 LIG 0.02  C 
ATOM      7  CD  PRO B 300     -15.590   5.702  14.206  1.00 43.19 LIG 0.13  C 
ENDROOT
BRANCH 1 8
ATOM      8  CA  LEU B 299     -14.647   3.256  12.820  1.00 51.80 LIG 0.18  C 
BRANCH 8 9
ATOM      9  CB  LEU B 299     -15.519   3.061  11.578  1.00 51.70 LIG 0.04  C 
BRANCH 9 10
ATOM     10  CG  LEU B 299     -16.143   4.314  10.945  1.00 53.57 LIG-0.02  C 
ATOM     11  CD2 LEU B 299     -17.619   4.479  11.299  1.00 54.40 LIG 0.01  C 
ATOM     12  CD1 LEU B 299     -15.964   4.288   9.438  1.00 50.77 LIG 0.01  C 
ENDBRANCH 9 10
ENDBRANCH 8 9
BRANCH 8 13
ATOM     13  N   LEU B 299     -13.472   2.365  12.798  1.00 58.35 LIG-0.35  N 
ATOM     14  C   ASP B 298     -12.371   2.658  13.495  1.00 67.04 LIG 0.26  C 
ATOM     15 O    ASP B 298     -12.298   3.660  14.230  1.00 64.28 LIG-0.27  OA
ATOM     16 H    LEU B 299     -13.564   1.664  12.310  1.00 58.35 LIG 0.16  HD
BRANCH 14 17
ATOM     17  CA  ASP B 298     -11.159   1.694  13.363  1.00 70.29 LIG 0.41  C 
ATOM     18  N   ASP B 298     -10.517   1.693  12.012  1.00 66.44 LIG 0.61  N 
BRANCH 17 19
ATOM     19  CB  ASP B 298     -10.111   1.930  14.473  1.00 75.12 LIG 0.16  C 
BRANCH 19 20
ATOM     20  CG  ASP B 298      -8.694   2.159  13.927  1.00 83.78 LIG 0.17  C 
ATOM     21 OD2  ASP B 298      -8.064   3.193  14.248  1.00 86.97 LIG-0.65  OA
ATOM     22 OD1  ASP B 298      -8.203   1.293  13.170  1.00 89.47 LIG-0.65  OA
ENDBRANCH 19 20
ENDBRANCH 17 19
ENDBRANCH 14 17
ENDBRANCH 8 13
ENDBRANCH 1 8
BRANCH 4 23
ATOM     23  C   PRO B 300     -18.252   4.281  15.569  1.00 41.91 LIG 0.24  C 
ATOM     24  N   PHE B 301     -18.584   4.347  14.282  1.00 41.99 LIG-0.34  N 
ATOM     25 H    PHE B 301     -17.994   4.439  13.663  1.00 41.99 LIG 0.16  HD
ATOM     26 O    PRO B 300     -19.077   4.180  16.486  1.00 39.52 LIG-0.27  OA
BRANCH 24 27
ATOM     27  CA  PHE B 301     -19.956   4.273  13.754  1.00 41.99 LIG 0.19  C 
BRANCH 27 28
ATOM     28  CB  PHE B 301     -20.424   2.810  13.599  1.00 39.59 LIG 0.07  C 
BRANCH 28 29
ATOM     29  CG  PHE B 301     -19.845   1.853  14.632  1.00 41.19 LIG-0.06  A 
ATOM     30  CD1 PHE B 301     -18.692   1.134  14.350  1.00 38.91 LIG 0.01  A 
ATOM     31  CE1 PHE B 301     -18.148   0.247  15.283  1.00 39.99 LIG 0.00  A 
ATOM     32  CZ  PHE B 301     -18.777   0.050  16.503  1.00 37.57 LIG 0.00  A 
ATOM     33  CE2 PHE B 301     -19.937   0.762  16.799  1.00 41.60 LIG 0.00  A 
ATOM     34  CD2 PHE B 301     -20.462   1.662  15.871  1.00 40.14 LIG 0.01  A 
ENDBRANCH 28 29
ENDBRANCH 27 28
BRANCH 27 35
ATOM     35  C   PHE B 301     -20.883   5.061  14.687  1.00 45.15 LIG 0.20  C 
ATOM     36 O    PHE B 301     -20.621   6.193  15.135  1.00 42.31 LIG-0.65  OA
ATOM     37 OXT  PHE B 301     -21.974   4.559  15.003  1.00 47.06 LIG-0.65  OA
ENDBRANCH 27 35
ENDBRANCH 24 27
ENDBRANCH 4 23
TORSDOF 12
ENDMDL
MODEL 68
USER: ADFR SOLUTION from run 78
USER: SCORE 14.132508 LL:  -3.721 LR: -10.517 RR:   0.000 FEB:  -6.937
USER: RMSD 4.378754
USER: SEED 77
USER: STATUS no improvement in best in 20 clusters for 5 generations
USER: GENES 14
USER: genes 0 Translation |==|  0.57382 0.62440 0.27309
USER: genes 1 Rotation |==|  0.84747 0.39229 0.53391 0.84134
USER: genes 2 Torsion [N]-C--CA-[N] |==|  0.88178
USER: genes 3 Torsion [C]-CA--CB-[CG] |==|  0.47115
USER: genes 4 Torsion [CA]-CB--CG-[CD2] |==|  0.21522
USER: genes 5 Torsion [C]-CA--N-[C] |==|  0.79916
USER: genes 6 Torsion [N]-C--CA-[N] |==|  0.74270
USER: genes 7 Torsion [C]-CA--CB-[CG] |==|  0.63252
USER: genes 8 Torsion [CA]-CB--CG-[OD2] |==|  0.63106
USER: genes 9 Torsion [N]-CA--C-[N] |==|  0.80117
USER: genes 10 Torsion [C]-N--CA-[CB] |==|  0.93465
USER: genes 11 Torsion [N]-CA--CB-[CG] |==|  0.77793
USER: genes 12 Torsion [CA]-CB--CG-[CD2] |==|  0.35934
USER: genes 13 Torsion [N]-CA--C-[O] |==|  0.80154
ROOT
ATOM      1  C   LEU B 299     -15.064   2.807  10.645  1.00 46.80 LIG 0.24  C 
ATOM      2 O    LEU B 299     -15.205   3.883  10.046  1.00 48.15 LIG-0.27  OA
ATOM      3  N   PRO B 300     -16.114   2.049  11.025  1.00 44.47 LIG-0.34  N 
ATOM      4  CA  PRO B 300     -17.494   2.496  10.774  1.00 41.25 LIG 0.18  C 
ATOM      5  CB  PRO B 300     -18.239   1.175  10.563  1.00 41.07 LIG 0.04  C 
ATOM      6  CG  PRO B 300     -17.513   0.202  11.478  1.00 41.88 LIG 0.02  C 
ATOM      7  CD  PRO B 300     -16.083   0.693  11.622  1.00 43.19 LIG 0.13  C 
ENDROOT
BRANCH 1 8
ATOM      8  CA  LEU B 299     -13.658   2.267  10.963  1.00 51.80 LIG 0.18  C 
BRANCH 8 9
ATOM      9  CB  LEU B 299     -13.173   1.296   9.884  1.00 51.70 LIG 0.04  C 
BRANCH 9 10
ATOM     10  CG  LEU B 299     -11.700   0.863   9.930  1.00 53.57 LIG-0.02  C 
ATOM     11  CD2 LEU B 299     -11.430  -0.193  10.999  1.00 54.40 LIG 0.01  C 
ATOM     12  CD1 LEU B 299     -10.803   2.068  10.145  1.00 50.77 LIG 0.01  C 
ENDBRANCH 9 10
ENDBRANCH 8 9
BRANCH 8 13
ATOM     13  N   LEU B 299     -13.532   1.680  12.310  1.00 58.35 LIG-0.35  N 
ATOM     14  C   ASP B 298     -13.523   2.452  13.401  1.00 67.04 LIG 0.26  C 
ATOM     15 O    ASP B 298     -13.669   3.686  13.341  1.00 64.28 LIG-0.27  OA
ATOM     16 H    LEU B 299     -13.467   0.823  12.323  1.00 58.35 LIG 0.16  HD
BRANCH 14 17
ATOM     17  CA  ASP B 298     -13.323   1.753  14.775  1.00 70.29 LIG 0.41  C 
ATOM     18  N   ASP B 298     -14.596   1.379  15.467  1.00 66.44 LIG 0.61  N 
BRANCH 17 19
ATOM     19  CB  ASP B 298     -12.374   0.539  14.672  1.00 75.12 LIG 0.16  C 
BRANCH 19 20
ATOM     20  CG  ASP B 298     -12.921  -0.718  15.365  1.00 83.78 LIG 0.17  C 
ATOM     21 OD2  ASP B 298     -12.181  -1.378  16.128  1.00 86.97 LIG-0.65  OA
ATOM     22 OD1  ASP B 298     -14.107  -1.047  15.144  1.00 89.47 LIG-0.65  OA
ENDBRANCH 19 20
ENDBRANCH 17 19
ENDBRANCH 14 17
ENDBRANCH 8 13
ENDBRANCH 1 8
BRANCH 4 23
ATOM     23  C   PRO B 300     -18.073   3.317  11.967  1.00 41.91 LIG 0.24  C 
ATOM     24  N   PHE B 301     -18.356   2.619  13.064  1.00 41.99 LIG-0.34  N 
ATOM     25 H    PHE B 301     -18.255   1.766  13.101  1.00 41.99 LIG 0.16  HD
ATOM     26 O    PRO B 300     -18.237   4.540  11.871  1.00 39.52 LIG-0.27  OA
BRANCH 24 27
ATOM     27  CA  PHE B 301     -18.866   3.185  14.323  1.00 41.99 LIG 0.19  C 
BRANCH 27 28
ATOM     28  CB  PHE B 301     -18.502   4.679  14.458  1.00 39.59 LIG 0.07  C 
BRANCH 28 29
ATOM     29  CG  PHE B 301     -17.076   4.938  14.923  1.00 41.19 LIG-0.06  A 
ATOM     30  CD1 PHE B 301     -16.587   4.313  16.062  1.00 38.91 LIG 0.01  A 
ATOM     31  CE1 PHE B 301     -15.282   4.542  16.508  1.00 39.99 LIG 0.00  A 
ATOM     32  CZ  PHE B 301     -14.462   5.430  15.828  1.00 37.57 LIG 0.00  A 
ATOM     33  CE2 PHE B 301     -14.940   6.068  14.687  1.00 41.60 LIG 0.00  A 
ATOM     34  CD2 PHE B 301     -16.236   5.818  14.235  1.00 40.14 LIG 0.01  A 
ENDBRANCH 28 29
ENDBRANCH 27 28
BRANCH 27 35
ATOM     35  C   PHE B 301     -20.384   2.973  14.377  1.00 45.15 LIG 0.20  C 
ATOM     36 O    PHE B 301     -21.198   3.591  13.666  1.00 42.31 LIG-0.65  OA
ATOM     37 OXT  PHE B 301     -20.837   2.119  15.156  1.00 47.06 LIG-0.65  OA
ENDBRANCH 27 35
ENDBRANCH 24 27
ENDBRANCH 4 23
TORSDOF 12
ENDMDL
MODEL 69
USER: ADFR SOLUTION from run 74
USER: SCORE 13.512762 LL:  -3.155 LR: -10.494 RR:   0.000 FEB:  -6.914
USER: RMSD 6.874919
USER: SEED 73
USER: STATUS no improvement in best in 13 clusters for 5 generations
USER: GENES 14
USER: genes 0 Translation |==|  0.52946 0.69533 0.63618
USER: genes 1 Rotation |==|  0.12060 0.45017 0.79455 0.62966
USER: genes 2 Torsion [N]-C--CA-[N] |==|  0.93586
USER: genes 3 Torsion [C]-CA--CB-[CG] |==|  0.84704
USER: genes 4 Torsion [CA]-CB--CG-[CD2] |==|  0.18861
USER: genes 5 Torsion [C]-CA--N-[C] |==|  0.73975
USER: genes 6 Torsion [N]-C--CA-[N] |==|  0.74066
USER: genes 7 Torsion [C]-CA--CB-[CG] |==|  0.41981
USER: genes 8 Torsion [CA]-CB--CG-[OD2] |==|  0.50001
USER: genes 9 Torsion [N]-CA--C-[N] |==|  0.09945
USER: genes 10 Torsion [C]-N--CA-[CB] |==|  0.23481
USER: genes 11 Torsion [N]-CA--CB-[CG] |==|  0.86994
USER: genes 12 Torsion [CA]-CB--CG-[CD2] |==|  0.26273
USER: genes 13 Torsion [N]-CA--C-[O] |==|  0.87954
ROOT
ATOM      1  C   LEU B 299     -15.829   4.084  15.819  1.00 46.80 LIG 0.24  C 
ATOM      2 O    LEU B 299     -14.988   3.941  16.717  1.00 48.15 LIG-0.27  OA
ATOM      3  N   PRO B 300     -17.005   3.420  15.818  1.00 44.47 LIG-0.34  N 
ATOM      4  CA  PRO B 300     -17.324   2.455  16.883  1.00 41.25 LIG 0.18  C 
ATOM      5  CB  PRO B 300     -18.846   2.584  17.003  1.00 41.07 LIG 0.04  C 
ATOM      6  CG  PRO B 300     -19.294   2.893  15.583  1.00 41.88 LIG 0.02  C 
ATOM      7  CD  PRO B 300     -18.143   3.596  14.886  1.00 43.19 LIG 0.13  C 
ENDROOT
BRANCH 1 8
ATOM      8  CA  LEU B 299     -15.575   5.061  14.656  1.00 51.80 LIG 0.18  C 
BRANCH 8 9
ATOM      9  CB  LEU B 299     -15.748   6.515  15.099  1.00 51.70 LIG 0.04  C 
BRANCH 9 10
ATOM     10  CG  LEU B 299     -17.083   6.904  15.752  1.00 53.57 LIG-0.02  C 
ATOM     11  CD2 LEU B 299     -17.281   6.255  17.119  1.00 54.40 LIG 0.01  C 
ATOM     12  CD1 LEU B 299     -18.240   6.553  14.834  1.00 50.77 LIG 0.01  C 
ENDBRANCH 9 10
ENDBRANCH 8 9
BRANCH 8 13
ATOM     13  N   LEU B 299     -16.364   4.770  13.445  1.00 58.35 LIG-0.35  N 
ATOM     14  C   ASP B 298     -15.865   4.018  12.461  1.00 67.04 LIG 0.26  C 
ATOM     15 O    ASP B 298     -14.741   3.487  12.535  1.00 64.28 LIG-0.27  OA
ATOM     16 H    LEU B 299     -17.149   5.120  13.436  1.00 58.35 LIG 0.16  HD
BRANCH 14 17
ATOM     17  CA  ASP B 298     -16.743   3.815  11.194  1.00 70.29 LIG 0.41  C 
ATOM     18  N   ASP B 298     -17.591   2.582  11.223  1.00 66.44 LIG 0.61  N 
BRANCH 17 19
ATOM     19  CB  ASP B 298     -17.595   5.063  10.877  1.00 75.12 LIG 0.16  C 
BRANCH 19 20
ATOM     20  CG  ASP B 298     -17.903   5.221   9.381  1.00 83.78 LIG 0.17  C 
ATOM     21 OD2  ASP B 298     -18.587   6.193   8.987  1.00 86.97 LIG-0.65  OA
ATOM     22 OD1  ASP B 298     -17.456   4.362   8.590  1.00 89.47 LIG-0.65  OA
ENDBRANCH 19 20
ENDBRANCH 17 19
ENDBRANCH 14 17
ENDBRANCH 8 13
ENDBRANCH 1 8
BRANCH 4 23
ATOM     23  C   PRO B 300     -16.880   1.007  16.516  1.00 41.91 LIG 0.24  C 
ATOM     24  N   PHE B 301     -15.749   0.908  15.821  1.00 41.99 LIG-0.34  N 
ATOM     25 H    PHE B 301     -15.308   1.601  15.567  1.00 41.99 LIG 0.16  HD
ATOM     26 O    PRO B 300     -17.554   0.031  16.871  1.00 39.52 LIG-0.27  OA
BRANCH 24 27
ATOM     27  CA  PHE B 301     -15.114  -0.354  15.406  1.00 41.99 LIG 0.19  C 
BRANCH 27 28
ATOM     28  CB  PHE B 301     -15.719  -0.881  14.087  1.00 39.59 LIG 0.07  C 
BRANCH 28 29
ATOM     29  CG  PHE B 301     -17.240  -0.870  14.044  1.00 41.19 LIG-0.06  A 
ATOM     30  CD1 PHE B 301     -17.962  -1.943  14.549  1.00 38.91 LIG 0.01  A 
ATOM     31  CE1 PHE B 301     -19.359  -1.953  14.514  1.00 39.99 LIG 0.00  A 
ATOM     32  CZ  PHE B 301     -20.047  -0.894  13.942  1.00 37.57 LIG 0.00  A 
ATOM     33  CE2 PHE B 301     -19.337   0.187  13.428  1.00 41.60 LIG 0.00  A 
ATOM     34  CD2 PHE B 301     -17.943   0.201  13.485  1.00 40.14 LIG 0.01  A 
ENDBRANCH 28 29
ENDBRANCH 27 28
BRANCH 27 35
ATOM     35  C   PHE B 301     -13.604  -0.123  15.275  1.00 45.15 LIG 0.20  C 
ATOM     36 O    PHE B 301     -13.097   0.880  14.738  1.00 42.31 LIG-0.65  OA
ATOM     37 OXT  PHE B 301     -12.830  -0.969  15.753  1.00 47.06 LIG-0.65  OA
ENDBRANCH 27 35
ENDBRANCH 24 27
ENDBRANCH 4 23
TORSDOF 12
ENDMDL
MODEL 70
USER: ADFR SOLUTION from run 92
USER: SCORE 13.855430 LL:  -3.827 LR: -10.489 RR:   0.000 FEB:  -6.909
USER: RMSD 4.856626
USER: SEED 91
USER: STATUS no improvement in best in 9 clusters for 5 generations
USER: GENES 14
USER: genes 0 Translation |==|  0.57030 0.69573 0.43538
USER: genes 1 Rotation |==|  0.92751 0.25993 0.49832 0.59795
USER: genes 2 Torsion [N]-C--CA-[N] |==|  0.14876
USER: genes 3 Torsion [C]-CA--CB-[CG] |==|  0.46168
USER: genes 4 Torsion [CA]-CB--CG-[CD2] |==|  0.75235
USER: genes 5 Torsion [C]-CA--N-[C] |==|  0.61668
USER: genes 6 Torsion [N]-C--CA-[N] |==|  0.37032
USER: genes 7 Torsion [C]-CA--CB-[CG] |==|  0.17479
USER: genes 8 Torsion [CA]-CB--CG-[OD2] |==|  0.54118
USER: genes 9 Torsion [N]-CA--C-[N] |==|  0.92172
USER: genes 10 Torsion [C]-N--CA-[CB] |==|  0.83679
USER: genes 11 Torsion [N]-CA--CB-[CG] |==|  0.92743
USER: genes 12 Torsion [CA]-CB--CG-[CD2] |==|  0.84616
USER: genes 13 Torsion [N]-CA--C-[O] |==|  0.59141
ROOT
ATOM      1  C   LEU B 299     -15.124   4.091  12.957  1.00 46.80 LIG 0.24  C 
ATOM      2 O    LEU B 299     -14.863   5.114  13.606  1.00 48.15 LIG-0.27  OA
ATOM      3  N   PRO B 300     -16.258   3.965  12.234  1.00 44.47 LIG-0.34  N 
ATOM      4  CA  PRO B 300     -17.263   5.041  12.218  1.00 41.25 LIG 0.18  C 
ATOM      5  CB  PRO B 300     -17.855   4.921  10.810  1.00 41.07 LIG 0.04  C 
ATOM      6  CG  PRO B 300     -17.787   3.431  10.516  1.00 41.88 LIG 0.02  C 
ATOM      7  CD  PRO B 300     -16.628   2.862  11.317  1.00 43.19 LIG 0.13  C 
ENDROOT
BRANCH 1 8
ATOM      8  CA  LEU B 299     -14.138   2.909  12.927  1.00 51.80 LIG 0.18  C 
BRANCH 8 9
ATOM      9  CB  LEU B 299     -12.912   3.179  13.801  1.00 51.70 LIG 0.04  C 
BRANCH 9 10
ATOM     10  CG  LEU B 299     -12.003   1.987  14.134  1.00 53.57 LIG-0.02  C 
ATOM     11  CD2 LEU B 299     -12.431   1.258  15.405  1.00 54.40 LIG 0.01  C 
ATOM     12  CD1 LEU B 299     -10.560   2.443  14.253  1.00 50.77 LIG 0.01  C 
ENDBRANCH 9 10
ENDBRANCH 8 9
BRANCH 8 13
ATOM     13  N   LEU B 299     -13.749   2.488  11.568  1.00 58.35 LIG-0.35  N 
ATOM     14  C   ASP B 298     -13.659   1.195  11.245  1.00 67.04 LIG 0.26  C 
ATOM     15 O    ASP B 298     -13.944   0.289  12.049  1.00 64.28 LIG-0.27  OA
ATOM     16 H    LEU B 299     -13.592   3.135  11.024  1.00 58.35 LIG 0.16  HD
BRANCH 14 17
ATOM     17  CA  ASP B 298     -13.181   0.845   9.808  1.00 70.29 LIG 0.41  C 
ATOM     18  N   ASP B 298     -12.130  -0.219   9.751  1.00 66.44 LIG 0.61  N 
BRANCH 17 19
ATOM     19  CB  ASP B 298     -14.363   0.504   8.874  1.00 75.12 LIG 0.16  C 
BRANCH 19 20
ATOM     20  CG  ASP B 298     -15.328   1.680   8.666  1.00 83.78 LIG 0.17  C 
ATOM     21 OD2  ASP B 298     -16.460   1.475   8.171  1.00 86.97 LIG-0.65  OA
ATOM     22 OD1  ASP B 298     -14.951   2.823   9.003  1.00 89.47 LIG-0.65  OA
ENDBRANCH 19 20
ENDBRANCH 17 19
ENDBRANCH 14 17
ENDBRANCH 8 13
ENDBRANCH 1 8
BRANCH 4 23
ATOM     23  C   PRO B 300     -18.339   4.857  13.330  1.00 41.91 LIG 0.24  C 
ATOM     24  N   PHE B 301     -18.574   3.601  13.704  1.00 41.99 LIG-0.34  N 
ATOM     25 H    PHE B 301     -18.178   2.933  13.334  1.00 41.99 LIG 0.16  HD
ATOM     26 O    PRO B 300     -18.914   5.836  13.821  1.00 39.52 LIG-0.27  OA
BRANCH 24 27
ATOM     27  CA  PHE B 301     -19.510   3.190  14.764  1.00 41.99 LIG 0.19  C 
BRANCH 27 28
ATOM     28  CB  PHE B 301     -19.138   3.825  16.121  1.00 39.59 LIG 0.07  C 
BRANCH 28 29
ATOM     29  CG  PHE B 301     -17.664   4.176  16.268  1.00 41.19 LIG-0.06  A 
ATOM     30  CD1 PHE B 301     -17.282   5.475  16.574  1.00 38.91 LIG 0.01  A 
ATOM     31  CE1 PHE B 301     -15.934   5.818  16.707  1.00 39.99 LIG 0.00  A 
ATOM     32  CZ  PHE B 301     -14.951   4.862  16.503  1.00 37.57 LIG 0.00  A 
ATOM     33  CE2 PHE B 301     -15.319   3.556  16.192  1.00 41.60 LIG 0.00  A 
ATOM     34  CD2 PHE B 301     -16.667   3.215  16.082  1.00 40.14 LIG 0.01  A 
ENDBRANCH 28 29
ENDBRANCH 27 28
BRANCH 27 35
ATOM     35  C   PHE B 301     -20.932   3.575  14.337  1.00 45.15 LIG 0.20  C 
ATOM     36 O    PHE B 301     -21.826   3.921  15.132  1.00 42.31 LIG-0.65  OA
ATOM     37 OXT  PHE B 301     -21.212   3.568  13.128  1.00 47.06 LIG-0.65  OA
ENDBRANCH 27 35
ENDBRANCH 24 27
ENDBRANCH 4 23
TORSDOF 12
ENDMDL
MODEL 71
USER: ADFR SOLUTION from run 81
USER: SCORE 13.701497 LL:  -3.296 LR: -10.457 RR:   0.000 FEB:  -6.878
USER: RMSD 6.654135
USER: SEED 80
USER: STATUS no improvement in best in 13 clusters for 5 generations
USER: GENES 14
USER: genes 0 Translation |==|  0.52685 0.69428 0.62828
USER: genes 1 Rotation |==|  0.13043 0.45449 0.80297 0.63985
USER: genes 2 Torsion [N]-C--CA-[N] |==|  0.93464
USER: genes 3 Torsion [C]-CA--CB-[CG] |==|  0.84361
USER: genes 4 Torsion [CA]-CB--CG-[CD2] |==|  0.19500
USER: genes 5 Torsion [C]-CA--N-[C] |==|  0.77778
USER: genes 6 Torsion [N]-C--CA-[N] |==|  0.72228
USER: genes 7 Torsion [C]-CA--CB-[CG] |==|  0.39604
USER: genes 8 Torsion [CA]-CB--CG-[OD2] |==|  0.49036
USER: genes 9 Torsion [N]-CA--C-[N] |==|  0.92064
USER: genes 10 Torsion [C]-N--CA-[CB] |==|  0.81989
USER: genes 11 Torsion [N]-CA--CB-[CG] |==|  0.85432
USER: genes 12 Torsion [CA]-CB--CG-[CD2] |==|  0.24214
USER: genes 13 Torsion [N]-CA--C-[O] |==|  0.62262
ROOT
ATOM      1  C   LEU B 299     -15.874   4.065  15.706  1.00 46.80 LIG 0.24  C 
ATOM      2 O    LEU B 299     -14.987   3.877  16.551  1.00 48.15 LIG-0.27  OA
ATOM      3  N   PRO B 300     -17.064   3.430  15.755  1.00 44.47 LIG-0.34  N 
ATOM      4  CA  PRO B 300     -17.347   2.443  16.810  1.00 41.25 LIG 0.18  C 
ATOM      5  CB  PRO B 300     -18.856   2.604  17.021  1.00 41.07 LIG 0.04  C 
ATOM      6  CG  PRO B 300     -19.376   2.964  15.638  1.00 41.88 LIG 0.02  C 
ATOM      7  CD  PRO B 300     -18.249   3.659  14.895  1.00 43.19 LIG 0.13  C 
ENDROOT
BRANCH 1 8
ATOM      8  CA  LEU B 299     -15.662   5.069  14.558  1.00 51.80 LIG 0.18  C 
BRANCH 8 9
ATOM      9  CB  LEU B 299     -15.784   6.513  15.047  1.00 51.70 LIG 0.04  C 
BRANCH 9 10
ATOM     10  CG  LEU B 299     -17.087   6.915  15.752  1.00 53.57 LIG-0.02  C 
ATOM     11  CD2 LEU B 299     -17.231   6.276  17.131  1.00 54.40 LIG 0.01  C 
ATOM     12  CD1 LEU B 299     -18.284   6.568  14.886  1.00 50.77 LIG 0.01  C 
ENDBRANCH 9 10
ENDBRANCH 8 9
BRANCH 8 13
ATOM     13  N   LEU B 299     -16.518   4.824  13.382  1.00 58.35 LIG-0.35  N 
ATOM     14  C   ASP B 298     -16.207   3.884  12.486  1.00 67.04 LIG 0.26  C 
ATOM     15 O    ASP B 298     -15.218   3.140  12.619  1.00 64.28 LIG-0.27  OA
ATOM     16 H    LEU B 299     -17.212   5.328  13.334  1.00 58.35 LIG 0.16  HD
BRANCH 14 17
ATOM     17  CA  ASP B 298     -17.134   3.739  11.246  1.00 70.29 LIG 0.41  C 
ATOM     18  N   ASP B 298     -18.120   2.618  11.342  1.00 66.44 LIG 0.61  N 
BRANCH 17 19
ATOM     19  CB  ASP B 298     -17.839   5.067  10.894  1.00 75.12 LIG 0.16  C 
BRANCH 19 20
ATOM     20  CG  ASP B 298     -17.975   5.297   9.381  1.00 83.78 LIG 0.17  C 
ATOM     21 OD2  ASP B 298     -18.587   6.305   8.959  1.00 86.97 LIG-0.65  OA
ATOM     22 OD1  ASP B 298     -17.464   4.460   8.606  1.00 89.47 LIG-0.65  OA
ENDBRANCH 19 20
ENDBRANCH 17 19
ENDBRANCH 14 17
ENDBRANCH 8 13
ENDBRANCH 1 8
BRANCH 4 23
ATOM     23  C   PRO B 300     -16.961   0.995  16.380  1.00 41.91 LIG 0.24  C 
ATOM     24  N   PHE B 301     -17.021   0.746  15.074  1.00 41.99 LIG-0.34  N 
ATOM     25 H    PHE B 301     -17.284   1.338  14.508  1.00 41.99 LIG 0.16  HD
ATOM     26 O    PRO B 300     -16.617   0.157  17.222  1.00 39.52 LIG-0.27  OA
BRANCH 24 27
ATOM     27  CA  PHE B 301     -16.659  -0.530  14.435  1.00 41.99 LIG 0.19  C 
BRANCH 27 28
ATOM     28  CB  PHE B 301     -15.155  -0.838  14.601  1.00 39.59 LIG 0.07  C 
BRANCH 28 29
ATOM     29  CG  PHE B 301     -14.231   0.288  14.160  1.00 41.19 LIG-0.06  A 
ATOM     30  CD1 PHE B 301     -13.716   0.305  12.871  1.00 38.91 LIG 0.01  A 
ATOM     31  CE1 PHE B 301     -12.861   1.327  12.449  1.00 39.99 LIG 0.00  A 
ATOM     32  CZ  PHE B 301     -12.490   2.331  13.331  1.00 37.57 LIG 0.00  A 
ATOM     33  CE2 PHE B 301     -12.996   2.325  14.628  1.00 41.60 LIG 0.00  A 
ATOM     34  CD2 PHE B 301     -13.866   1.313  15.036  1.00 40.14 LIG 0.01  A 
ENDBRANCH 28 29
ENDBRANCH 27 28
BRANCH 27 35
ATOM     35  C   PHE B 301     -17.527  -1.642  15.035  1.00 45.15 LIG 0.20  C 
ATOM     36 O    PHE B 301     -17.091  -2.757  15.378  1.00 42.31 LIG-0.65  OA
ATOM     37 OXT  PHE B 301     -18.735  -1.420  15.217  1.00 47.06 LIG-0.65  OA
ENDBRANCH 27 35
ENDBRANCH 24 27
ENDBRANCH 4 23
TORSDOF 12
ENDMDL
MODEL 72
USER: ADFR SOLUTION from run 187
USER: SCORE 14.119043 LL:  -3.901 LR: -10.462 RR:   0.000 FEB:  -6.882
USER: RMSD 7.456105
USER: SEED 186
USER: STATUS no improvement in best in 24 clusters for 5 generations
USER: GENES 14
USER: genes 0 Translation |==|  0.60039 0.73891 0.55636
USER: genes 1 Rotation |==|  0.47233 0.30676 0.93761 0.64278
USER: genes 2 Torsion [N]-C--CA-[N] |==|  0.85797
USER: genes 3 Torsion [C]-CA--CB-[CG] |==|  0.57902
USER: genes 4 Torsion [CA]-CB--CG-[CD2] |==|  0.59027
USER: genes 5 Torsion [C]-CA--N-[C] |==|  0.85448
USER: genes 6 Torsion [N]-C--CA-[N] |==|  0.46509
USER: genes 7 Torsion [C]-CA--CB-[CG] |==|  0.35051
USER: genes 8 Torsion [CA]-CB--CG-[OD2] |==|  0.54911
USER: genes 9 Torsion [N]-CA--C-[N] |==|  0.89425
USER: genes 10 Torsion [C]-N--CA-[CB] |==|  0.39169
USER: genes 11 Torsion [N]-CA--CB-[CG] |==|  0.51947
USER: genes 12 Torsion [CA]-CB--CG-[CD2] |==|  0.54564
USER: genes 13 Torsion [N]-CA--C-[O] |==|  0.80041
ROOT
ATOM      1  C   LEU B 299     -14.605   4.868  14.681  1.00 46.80 LIG 0.24  C 
ATOM      2 O    LEU B 299     -13.594   5.442  14.253  1.00 48.15 LIG-0.27  OA
ATOM      3  N   PRO B 300     -14.709   3.523  14.722  1.00 44.47 LIG-0.34  N 
ATOM      4  CA  PRO B 300     -13.622   2.669  14.215  1.00 41.25 LIG 0.18  C 
ATOM      5  CB  PRO B 300     -13.716   1.437  15.121  1.00 41.07 LIG 0.04  C 
ATOM      6  CG  PRO B 300     -15.204   1.321  15.416  1.00 41.88 LIG 0.02  C 
ATOM      7  CD  PRO B 300     -15.796   2.716  15.326  1.00 43.19 LIG 0.13  C 
ENDROOT
BRANCH 1 8
ATOM      8  CA  LEU B 299     -15.798   5.680  15.218  1.00 51.80 LIG 0.18  C 
BRANCH 8 9
ATOM      9  CB  LEU B 299     -15.834   5.678  16.748  1.00 51.70 LIG 0.04  C 
BRANCH 9 10
ATOM     10  CG  LEU B 299     -17.204   5.822  17.425  1.00 53.57 LIG-0.02  C 
ATOM     11  CD2 LEU B 299     -17.129   6.570  18.754  1.00 54.40 LIG 0.01  C 
ATOM     12  CD1 LEU B 299     -17.838   4.458  17.628  1.00 50.77 LIG 0.01  C 
ENDBRANCH 9 10
ENDBRANCH 8 9
BRANCH 8 13
ATOM     13  N   LEU B 299     -17.099   5.281  14.649  1.00 58.35 LIG-0.35  N 
ATOM     14  C   ASP B 298     -17.282   5.210  13.328  1.00 67.04 LIG 0.26  C 
ATOM     15 O    ASP B 298     -16.361   5.424  12.518  1.00 64.28 LIG-0.27  OA
ATOM     16 H    LEU B 299     -17.706   5.106  15.232  1.00 58.35 LIG 0.16  HD
BRANCH 14 17
ATOM     17  CA  ASP B 298     -18.703   4.842  12.817  1.00 70.29 LIG 0.41  C 
ATOM     18  N   ASP B 298     -18.909   5.068  11.353  1.00 66.44 LIG 0.61  N 
BRANCH 17 19
ATOM     19  CB  ASP B 298     -19.106   3.405  13.216  1.00 75.12 LIG 0.16  C 
BRANCH 19 20
ATOM     20  CG  ASP B 298     -20.448   3.338  13.959  1.00 83.78 LIG 0.17  C 
ATOM     21 OD2  ASP B 298     -20.739   2.317  14.624  1.00 86.97 LIG-0.65  OA
ATOM     22 OD1  ASP B 298     -21.220   4.317  13.878  1.00 89.47 LIG-0.65  OA
ENDBRANCH 19 20
ENDBRANCH 17 19
ENDBRANCH 14 17
ENDBRANCH 8 13
ENDBRANCH 1 8
BRANCH 4 23
ATOM     23  C   PRO B 300     -13.808   2.311  12.709  1.00 41.91 LIG 0.24  C 
ATOM     24  N   PHE B 301     -15.060   2.079  12.322  1.00 41.99 LIG-0.34  N 
ATOM     25 H    PHE B 301     -15.719   2.097  12.874  1.00 41.99 LIG 0.16  HD
ATOM     26 O    PRO B 300     -12.835   2.264  11.947  1.00 39.52 LIG-0.27  OA
BRANCH 24 27
ATOM     27  CA  PHE B 301     -15.480   1.771  10.945  1.00 41.99 LIG 0.19  C 
BRANCH 27 28
ATOM     28  CB  PHE B 301     -16.589   0.697  10.920  1.00 39.59 LIG 0.07  C 
BRANCH 28 29
ATOM     29  CG  PHE B 301     -16.956   0.206   9.527  1.00 41.19 LIG-0.06  A 
ATOM     30  CD1 PHE B 301     -16.118   0.462   8.451  1.00 38.91 LIG 0.01  A 
ATOM     31  CE1 PHE B 301     -16.440   0.023   7.164  1.00 39.99 LIG 0.00  A 
ATOM     32  CZ  PHE B 301     -17.628  -0.654   6.939  1.00 37.57 LIG 0.00  A 
ATOM     33  CE2 PHE B 301     -18.482  -0.915   8.007  1.00 41.60 LIG 0.00  A 
ATOM     34  CD2 PHE B 301     -18.144  -0.493   9.293  1.00 40.14 LIG 0.01  A 
ENDBRANCH 28 29
ENDBRANCH 27 28
BRANCH 27 35
ATOM     35  C   PHE B 301     -15.943   3.069  10.272  1.00 45.15 LIG 0.20  C 
ATOM     36 O    PHE B 301     -17.004   3.657  10.552  1.00 42.31 LIG-0.65  OA
ATOM     37 OXT  PHE B 301     -15.212   3.585   9.412  1.00 47.06 LIG-0.65  OA
ENDBRANCH 27 35
ENDBRANCH 24 27
ENDBRANCH 4 23
TORSDOF 12
ENDMDL
MODEL 73
USER: ADFR SOLUTION from run 96
USER: SCORE 14.655242 LL:  -4.302 LR: -10.454 RR:   0.000 FEB:  -6.875
USER: RMSD 4.830151
USER: SEED 95
USER: STATUS no improvement in best in 16 clusters for 5 generations
USER: GENES 14
USER: genes 0 Translation |==|  0.57018 0.64388 0.41030
USER: genes 1 Rotation |==|  0.89096 0.21848 0.51740 0.63266
USER: genes 2 Torsion [N]-C--CA-[N] |==|  0.43319
USER: genes 3 Torsion [C]-CA--CB-[CG] |==|  0.82662
USER: genes 4 Torsion [CA]-CB--CG-[CD2] |==|  0.76826
USER: genes 5 Torsion [C]-CA--N-[C] |==|  0.60564
USER: genes 6 Torsion [N]-C--CA-[N] |==|  0.68399
USER: genes 7 Torsion [C]-CA--CB-[CG] |==|  0.48956
USER: genes 8 Torsion [CA]-CB--CG-[OD2] |==|  0.16077
USER: genes 9 Torsion [N]-CA--C-[N] |==|  0.98282
USER: genes 10 Torsion [C]-N--CA-[CB] |==|  0.81726
USER: genes 11 Torsion [N]-CA--CB-[CG] |==|  0.93217
USER: genes 12 Torsion [CA]-CB--CG-[CD2] |==|  0.26398
USER: genes 13 Torsion [N]-CA--C-[O] |==|  0.62594
ROOT
ATOM      1  C   LEU B 299     -15.126   3.158  12.600  1.00 46.80 LIG 0.24  C 
ATOM      2 O    LEU B 299     -14.676   4.214  13.066  1.00 48.15 LIG-0.27  OA
ATOM      3  N   PRO B 300     -16.254   3.119  11.857  1.00 44.47 LIG-0.34  N 
ATOM      4  CA  PRO B 300     -17.026   4.346  11.599  1.00 41.25 LIG 0.18  C 
ATOM      5  CB  PRO B 300     -17.613   4.083  10.209  1.00 41.07 LIG 0.04  C 
ATOM      6  CG  PRO B 300     -17.837   2.579  10.191  1.00 41.88 LIG 0.02  C 
ATOM      7  CD  PRO B 300     -16.823   1.957  11.136  1.00 43.19 LIG 0.13  C 
ENDROOT
BRANCH 1 8
ATOM      8  CA  LEU B 299     -14.393   1.824  12.830  1.00 51.80 LIG 0.18  C 
BRANCH 8 9
ATOM      9  CB  LEU B 299     -15.099   0.972  13.886  1.00 51.70 LIG 0.04  C 
BRANCH 9 10
ATOM     10  CG  LEU B 299     -15.196   1.542  15.309  1.00 53.57 LIG-0.02  C 
ATOM     11  CD2 LEU B 299     -13.936   1.287  16.133  1.00 54.40 LIG 0.01  C 
ATOM     12  CD1 LEU B 299     -16.411   0.976  16.022  1.00 50.77 LIG 0.01  C 
ENDBRANCH 9 10
ENDBRANCH 8 9
BRANCH 8 13
ATOM     13  N   LEU B 299     -12.957   1.974  13.131  1.00 58.35 LIG-0.35  N 
ATOM     14  C   ASP B 298     -12.057   1.112  12.651  1.00 67.04 LIG 0.26  C 
ATOM     15 O    ASP B 298     -12.373   0.177  11.891  1.00 64.28 LIG-0.27  OA
ATOM     16 H    LEU B 299     -12.764   2.647  13.629  1.00 58.35 LIG 0.16  HD
BRANCH 14 17
ATOM     17  CA  ASP B 298     -10.574   1.311  13.071  1.00 70.29 LIG 0.41  C 
ATOM     18  N   ASP B 298      -9.662   1.693  11.948  1.00 66.44 LIG 0.61  N 
BRANCH 17 19
ATOM     19  CB  ASP B 298     -10.437   2.295  14.253  1.00 75.12 LIG 0.16  C 
BRANCH 19 20
ATOM     20  CG  ASP B 298      -8.992   2.443  14.752  1.00 83.78 LIG 0.17  C 
ATOM     21 OD2  ASP B 298      -8.097   2.819  13.961  1.00 86.97 LIG-0.65  OA
ATOM     22 OD1  ASP B 298      -8.749   2.181  15.950  1.00 89.47 LIG-0.65  OA
ENDBRANCH 19 20
ENDBRANCH 17 19
ENDBRANCH 14 17
ENDBRANCH 8 13
ENDBRANCH 1 8
BRANCH 4 23
ATOM     23  C   PRO B 300     -18.131   4.582  12.673  1.00 41.91 LIG 0.24  C 
ATOM     24  N   PHE B 301     -18.293   3.602  13.559  1.00 41.99 LIG-0.34  N 
ATOM     25 H    PHE B 301     -17.837   2.874  13.523  1.00 41.99 LIG 0.16  HD
ATOM     26 O    PRO B 300     -18.792   5.628  12.679  1.00 39.52 LIG-0.27  OA
BRANCH 24 27
ATOM     27  CA  PHE B 301     -19.240   3.624  14.686  1.00 41.99 LIG 0.19  C 
BRANCH 27 28
ATOM     28  CB  PHE B 301     -18.863   4.708  15.719  1.00 39.59 LIG 0.07  C 
BRANCH 28 29
ATOM     29  CG  PHE B 301     -17.391   5.096  15.713  1.00 41.19 LIG-0.06  A 
ATOM     30  CD1 PHE B 301     -16.472   4.368  16.456  1.00 38.91 LIG 0.01  A 
ATOM     31  CE1 PHE B 301     -15.118   4.712  16.467  1.00 39.99 LIG 0.00  A 
ATOM     32  CZ  PHE B 301     -14.676   5.815  15.753  1.00 37.57 LIG 0.00  A 
ATOM     33  CE2 PHE B 301     -15.587   6.558  15.006  1.00 41.60 LIG 0.00  A 
ATOM     34  CD2 PHE B 301     -16.934   6.196  14.982  1.00 40.14 LIG 0.01  A 
ENDBRANCH 28 29
ENDBRANCH 27 28
BRANCH 27 35
ATOM     35  C   PHE B 301     -20.654   3.845  14.134  1.00 45.15 LIG 0.20  C 
ATOM     36 O    PHE B 301     -21.472   4.648  14.620  1.00 42.31 LIG-0.65  OA
ATOM     37 OXT  PHE B 301     -21.005   3.208  13.128  1.00 47.06 LIG-0.65  OA
ENDBRANCH 27 35
ENDBRANCH 24 27
ENDBRANCH 4 23
TORSDOF 12
ENDMDL
MODEL 74
USER: ADFR SOLUTION from run 94
USER: SCORE 14.358779 LL:  -4.178 LR: -10.446 RR:   0.000 FEB:  -6.866
USER: RMSD 4.732668
USER: SEED 93
USER: STATUS no improvement in best in 13 clusters for 5 generations
USER: GENES 14
USER: genes 0 Translation |==|  0.39749 0.55277 0.41431
USER: genes 1 Rotation |==|  0.40891 0.16769 0.27467 0.78373
USER: genes 2 Torsion [N]-C--CA-[N] |==|  0.48889
USER: genes 3 Torsion [C]-CA--CB-[CG] |==|  0.40701
USER: genes 4 Torsion [CA]-CB--CG-[CD2] |==|  0.77325
USER: genes 5 Torsion [C]-CA--N-[C] |==|  0.54276
USER: genes 6 Torsion [N]-C--CA-[N] |==|  0.95519
USER: genes 7 Torsion [C]-CA--CB-[CG] |==|  0.73966
USER: genes 8 Torsion [CA]-CB--CG-[OD2] |==|  0.57689
USER: genes 9 Torsion [N]-CA--C-[N] |==|  0.96766
USER: genes 10 Torsion [C]-N--CA-[CB] |==|  0.33127
USER: genes 11 Torsion [N]-CA--CB-[CG] |==|  0.09059
USER: genes 12 Torsion [CA]-CB--CG-[CD2] |==|  0.21001
USER: genes 13 Torsion [N]-CA--C-[O] |==|  0.46407
ROOT
ATOM      1  C   LEU B 299     -18.105   1.518  12.657  1.00 46.80 LIG 0.24  C 
ATOM      2 O    LEU B 299     -17.706   0.631  11.889  1.00 48.15 LIG-0.27  OA
ATOM      3  N   PRO B 300     -17.909   2.830  12.408  1.00 44.47 LIG-0.34  N 
ATOM      4  CA  PRO B 300     -17.166   3.266  11.214  1.00 41.25 LIG 0.18  C 
ATOM      5  CB  PRO B 300     -17.837   4.601  10.874  1.00 41.07 LIG 0.04  C 
ATOM      6  CG  PRO B 300     -18.229   5.163  12.231  1.00 41.88 LIG 0.02  C 
ATOM      7  CD  PRO B 300     -18.444   3.986  13.166  1.00 43.19 LIG 0.13  C 
ENDROOT
BRANCH 1 8
ATOM      8  CA  LEU B 299     -18.879   1.156  13.938  1.00 51.80 LIG 0.18  C 
BRANCH 8 9
ATOM      9  CB  LEU B 299     -18.210   1.742  15.182  1.00 51.70 LIG 0.04  C 
BRANCH 9 10
ATOM     10  CG  LEU B 299     -19.122   2.179  16.338  1.00 53.57 LIG-0.02  C 
ATOM     11  CD2 LEU B 299     -19.726   3.564  16.120  1.00 54.40 LIG 0.01  C 
ATOM     12  CD1 LEU B 299     -18.362   2.139  17.651  1.00 50.77 LIG 0.01  C 
ENDBRANCH 9 10
ENDBRANCH 8 9
BRANCH 8 13
ATOM     13  N   LEU B 299     -19.136  -0.288  14.094  1.00 58.35 LIG-0.35  N 
ATOM     14  C   ASP B 298     -20.039  -0.738  14.969  1.00 67.04 LIG 0.26  C 
ATOM     15 O    ASP B 298     -20.740   0.030  15.654  1.00 64.28 LIG-0.27  OA
ATOM     16 H    LEU B 299     -18.662  -0.793  13.585  1.00 58.35 LIG 0.16  HD
BRANCH 14 17
ATOM     17  CA  ASP B 298     -20.198  -2.278  15.112  1.00 70.29 LIG 0.41  C 
ATOM     18  N   ASP B 298     -19.595  -3.066  13.992  1.00 66.44 LIG 0.61  N 
BRANCH 17 19
ATOM     19  CB  ASP B 298     -19.691  -2.786  16.479  1.00 75.12 LIG 0.16  C 
BRANCH 19 20
ATOM     20  CG  ASP B 298     -18.228  -3.254  16.447  1.00 83.78 LIG 0.17  C 
ATOM     21 OD2  ASP B 298     -17.838  -4.129  17.253  1.00 86.97 LIG-0.65  OA
ATOM     22 OD1  ASP B 298     -17.461  -2.740  15.604  1.00 89.47 LIG-0.65  OA
ENDBRANCH 19 20
ENDBRANCH 17 19
ENDBRANCH 14 17
ENDBRANCH 8 13
ENDBRANCH 1 8
BRANCH 4 23
ATOM     23  C   PRO B 300     -15.641   3.426  11.496  1.00 41.91 LIG 0.24  C 
ATOM     24  N   PHE B 301     -15.284   3.390  12.778  1.00 41.99 LIG-0.34  N 
ATOM     25 H    PHE B 301     -15.861   3.313  13.410  1.00 41.99 LIG 0.16  HD
ATOM     26 O    PRO B 300     -14.838   3.566  10.565  1.00 39.52 LIG-0.27  OA
BRANCH 24 27
ATOM     27  CA  PHE B 301     -13.902   3.473  13.277  1.00 41.99 LIG 0.19  C 
BRANCH 27 28
ATOM     28  CB  PHE B 301     -13.705   4.702  14.191  1.00 39.59 LIG 0.07  C 
BRANCH 28 29
ATOM     29  CG  PHE B 301     -14.935   5.084  15.002  1.00 41.19 LIG-0.06  A 
ATOM     30  CD1 PHE B 301     -15.690   6.194  14.647  1.00 38.91 LIG 0.01  A 
ATOM     31  CE1 PHE B 301     -16.819   6.564  15.383  1.00 39.99 LIG 0.00  A 
ATOM     32  CZ  PHE B 301     -17.184   5.838  16.506  1.00 37.57 LIG 0.00  A 
ATOM     33  CE2 PHE B 301     -16.435   4.725  16.877  1.00 41.60 LIG 0.00  A 
ATOM     34  CD2 PHE B 301     -15.321   4.348  16.125  1.00 40.14 LIG 0.01  A 
ENDBRANCH 28 29
ENDBRANCH 27 28
BRANCH 27 35
ATOM     35  C   PHE B 301     -13.567   2.170  14.013  1.00 45.15 LIG 0.20  C 
ATOM     36 O    PHE B 301     -12.415   1.836  14.347  1.00 42.31 LIG-0.65  OA
ATOM     37 OXT  PHE B 301     -14.497   1.407  14.322  1.00 47.06 LIG-0.65  OA
ENDBRANCH 27 35
ENDBRANCH 24 27
ENDBRANCH 4 23
TORSDOF 12
ENDMDL
MODEL 75
USER: ADFR SOLUTION from run 34
USER: SCORE 15.101110 LL:  -4.759 LR: -10.436 RR:   0.000 FEB:  -6.856
USER: RMSD 3.624573
USER: SEED 33
USER: STATUS no improvement in best in 16 clusters for 5 generations
USER: GENES 14
USER: genes 0 Translation |==|  0.35417 0.53470 0.55176
USER: genes 1 Rotation |==|  0.46697 0.25959 0.35220 0.91142
USER: genes 2 Torsion [N]-C--CA-[N] |==|  0.38738
USER: genes 3 Torsion [C]-CA--CB-[CG] |==|  0.88848
USER: genes 4 Torsion [CA]-CB--CG-[CD2] |==|  0.83129
USER: genes 5 Torsion [C]-CA--N-[C] |==|  0.74560
USER: genes 6 Torsion [N]-C--CA-[N] |==|  0.83483
USER: genes 7 Torsion [C]-CA--CB-[CG] |==|  0.77917
USER: genes 8 Torsion [CA]-CB--CG-[OD2] |==|  0.02374
USER: genes 9 Torsion [N]-CA--C-[N] |==|  0.15638
USER: genes 10 Torsion [C]-N--CA-[CB] |==|  0.26134
USER: genes 11 Torsion [N]-CA--CB-[CG] |==|  0.90585
USER: genes 12 Torsion [CA]-CB--CG-[CD2] |==|  0.76207
USER: genes 13 Torsion [N]-CA--C-[O] |==|  0.33808
ROOT
ATOM      1  C   LEU B 299     -18.853   1.193  14.616  1.00 46.80 LIG 0.24  C 
ATOM      2 O    LEU B 299     -18.577   0.668  13.527  1.00 48.15 LIG-0.27  OA
ATOM      3  N   PRO B 300     -19.375   2.435  14.707  1.00 44.47 LIG-0.34  N 
ATOM      4  CA  PRO B 300     -19.606   3.243  13.499  1.00 41.25 LIG 0.18  C 
ATOM      5  CB  PRO B 300     -20.838   4.070  13.882  1.00 41.07 LIG 0.04  C 
ATOM      6  CG  PRO B 300     -20.672   4.290  15.378  1.00 41.88 LIG 0.02  C 
ATOM      7  CD  PRO B 300     -19.869   3.122  15.923  1.00 43.19 LIG 0.13  C 
ENDROOT
BRANCH 1 8
ATOM      8  CA  LEU B 299     -18.631   0.427  15.933  1.00 51.80 LIG 0.18  C 
BRANCH 8 9
ATOM      9  CB  LEU B 299     -17.211   0.627  16.465  1.00 51.70 LIG 0.04  C 
BRANCH 9 10
ATOM     10  CG  LEU B 299     -16.064   0.627  15.443  1.00 53.57 LIG-0.02  C 
ATOM     11  CD2 LEU B 299     -15.957  -0.689  14.678  1.00 54.40 LIG 0.01  C 
ATOM     12  CD1 LEU B 299     -14.748   0.943  16.129  1.00 50.77 LIG 0.01  C 
ENDBRANCH 9 10
ENDBRANCH 8 9
BRANCH 8 13
ATOM     13  N   LEU B 299     -18.983  -1.003  15.861  1.00 58.35 LIG-0.35  N 
ATOM     14  C   ASP B 298     -20.207  -1.430  16.180  1.00 67.04 LIG 0.26  C 
ATOM     15 O    ASP B 298     -21.120  -0.647  16.503  1.00 64.28 LIG-0.27  OA
ATOM     16 H    LEU B 299     -18.344  -1.517  15.602  1.00 58.35 LIG 0.16  HD
BRANCH 14 17
ATOM     17  CA  ASP B 298     -20.470  -2.962  16.136  1.00 70.29 LIG 0.41  C 
ATOM     18  N   ASP B 298     -20.243  -3.587  14.795  1.00 66.44 LIG 0.61  N 
BRANCH 17 19
ATOM     19  CB  ASP B 298     -19.688  -3.713  17.235  1.00 75.12 LIG 0.16  C 
BRANCH 19 20
ATOM     20  CG  ASP B 298     -18.212  -3.943  16.878  1.00 83.78 LIG 0.17  C 
ATOM     21 OD2  ASP B 298     -17.726  -3.395  15.863  1.00 86.97 LIG-0.65  OA
ATOM     22 OD1  ASP B 298     -17.530  -4.680  17.623  1.00 89.47 LIG-0.65  OA
ENDBRANCH 19 20
ENDBRANCH 17 19
ENDBRANCH 14 17
ENDBRANCH 8 13
ENDBRANCH 1 8
BRANCH 4 23
ATOM     23  C   PRO B 300     -18.380   4.139  13.147  1.00 41.91 LIG 0.24  C 
ATOM     24  N   PHE B 301     -17.225   3.497  12.982  1.00 41.99 LIG-0.34  N 
ATOM     25 H    PHE B 301     -17.156   2.647  13.092  1.00 41.99 LIG 0.16  HD
ATOM     26 O    PRO B 300     -18.506   5.364  13.026  1.00 39.52 LIG-0.27  OA
BRANCH 24 27
ATOM     27  CA  PHE B 301     -15.950   4.127  12.602  1.00 41.99 LIG 0.19  C 
BRANCH 27 28
ATOM     28  CB  PHE B 301     -15.104   4.482  13.844  1.00 39.59 LIG 0.07  C 
BRANCH 28 29
ATOM     29  CG  PHE B 301     -15.918   4.897  15.061  1.00 41.19 LIG-0.06  A 
ATOM     30  CD1 PHE B 301     -16.278   3.956  16.016  1.00 38.91 LIG 0.01  A 
ATOM     31  CE1 PHE B 301     -17.030   4.317  17.137  1.00 39.99 LIG 0.00  A 
ATOM     32  CZ  PHE B 301     -17.455   5.627  17.295  1.00 37.57 LIG 0.00  A 
ATOM     33  CE2 PHE B 301     -17.105   6.581  16.344  1.00 41.60 LIG 0.00  A 
ATOM     34  CD2 PHE B 301     -16.336   6.219  15.238  1.00 40.14 LIG 0.01  A 
ENDBRANCH 28 29
ENDBRANCH 27 28
BRANCH 27 35
ATOM     35  C   PHE B 301     -15.195   3.178  11.664  1.00 45.15 LIG 0.20  C 
ATOM     36 O    PHE B 301     -14.837   3.479  10.510  1.00 42.31 LIG-0.65  OA
ATOM     37 OXT  PHE B 301     -14.895   2.046  12.078  1.00 47.06 LIG-0.65  OA
ENDBRANCH 27 35
ENDBRANCH 24 27
ENDBRANCH 4 23
TORSDOF 12
ENDMDL
MODEL 76
USER: ADFR SOLUTION from run 96
USER: SCORE 14.269491 LL:  -3.863 LR: -10.407 RR:   0.000 FEB:  -6.827
USER: RMSD 4.115732
USER: SEED 95
USER: STATUS no improvement in best in 16 clusters for 5 generations
USER: GENES 14
USER: genes 0 Translation |==|  0.40974 0.41446 0.60120
USER: genes 1 Rotation |==|  0.35789 0.94961 0.52019 0.66506
USER: genes 2 Torsion [N]-C--CA-[N] |==|  0.38219
USER: genes 3 Torsion [C]-CA--CB-[CG] |==|  0.86902
USER: genes 4 Torsion [CA]-CB--CG-[CD2] |==|  0.21232
USER: genes 5 Torsion [C]-CA--N-[C] |==|  0.82362
USER: genes 6 Torsion [N]-C--CA-[N] |==|  0.50738
USER: genes 7 Torsion [C]-CA--CB-[CG] |==|  0.86453
USER: genes 8 Torsion [CA]-CB--CG-[OD2] |==|  0.25044
USER: genes 9 Torsion [N]-CA--C-[N] |==|  0.86355
USER: genes 10 Torsion [C]-N--CA-[CB] |==|  0.26769
USER: genes 11 Torsion [N]-CA--CB-[CG] |==|  0.97525
USER: genes 12 Torsion [CA]-CB--CG-[CD2] |==|  0.75397
USER: genes 13 Torsion [N]-CA--C-[O] |==|  0.56059
ROOT
ATOM      1  C   LEU B 299     -17.894  -0.972  15.320  1.00 46.80 LIG 0.24  C 
ATOM      2 O    LEU B 299     -17.846  -1.338  16.503  1.00 48.15 LIG-0.27  OA
ATOM      3  N   PRO B 300     -17.367   0.200  14.905  1.00 44.47 LIG-0.34  N 
ATOM      4  CA  PRO B 300     -16.737   1.122  15.864  1.00 41.25 LIG 0.18  C 
ATOM      5  CB  PRO B 300     -15.645   1.787  15.019  1.00 41.07 LIG 0.04  C 
ATOM      6  CG  PRO B 300     -16.252   1.842  13.626  1.00 41.88 LIG 0.02  C 
ATOM      7  CD  PRO B 300     -17.239   0.693  13.514  1.00 43.19 LIG 0.13  C 
ENDROOT
BRANCH 1 8
ATOM      8  CA  LEU B 299     -18.546  -1.865  14.249  1.00 51.80 LIG 0.18  C 
BRANCH 8 9
ATOM      9  CB  LEU B 299     -20.057  -1.638  14.175  1.00 51.70 LIG 0.04  C 
BRANCH 9 10
ATOM     10  CG  LEU B 299     -20.837  -1.617  15.498  1.00 53.57 LIG-0.02  C 
ATOM     11  CD2 LEU B 299     -20.657  -0.310  16.267  1.00 54.40 LIG 0.01  C 
ATOM     12  CD1 LEU B 299     -20.434  -2.795  16.366  1.00 50.77 LIG 0.01  C 
ENDBRANCH 9 10
ENDBRANCH 8 9
BRANCH 8 13
ATOM     13  N   LEU B 299     -18.223  -3.297  14.386  1.00 58.35 LIG-0.35  N 
ATOM     14  C   ASP B 298     -16.968  -3.737  14.255  1.00 67.04 LIG 0.26  C 
ATOM     15 O    ASP B 298     -16.011  -2.965  14.065  1.00 64.28 LIG-0.27  OA
ATOM     16 H    LEU B 299     -18.898  -3.803  14.551  1.00 58.35 LIG 0.16  HD
BRANCH 14 17
ATOM     17  CA  ASP B 298     -16.730  -5.270  14.352  1.00 70.29 LIG 0.41  C 
ATOM     18  N   ASP B 298     -15.293  -5.677  14.259  1.00 66.44 LIG 0.61  N 
BRANCH 17 19
ATOM     19  CB  ASP B 298     -17.396  -5.879  15.606  1.00 75.12 LIG 0.16  C 
BRANCH 19 20
ATOM     20  CG  ASP B 298     -17.085  -5.103  16.894  1.00 83.78 LIG 0.17  C 
ATOM     21 OD2  ASP B 298     -17.837  -4.169  17.253  1.00 86.97 LIG-0.65  OA
ATOM     22 OD1  ASP B 298     -16.076  -5.433  17.555  1.00 89.47 LIG-0.65  OA
ENDBRANCH 19 20
ENDBRANCH 17 19
ENDBRANCH 14 17
ENDBRANCH 8 13
ENDBRANCH 1 8
BRANCH 4 23
ATOM     23  C   PRO B 300     -17.751   2.157  16.438  1.00 41.91 LIG 0.24  C 
ATOM     24  N   PHE B 301     -18.500   2.791  15.539  1.00 41.99 LIG-0.34  N 
ATOM     25 H    PHE B 301     -18.409   2.659  14.694  1.00 41.99 LIG 0.16  HD
ATOM     26 O    PRO B 300     -17.837   2.348  17.658  1.00 39.52 LIG-0.27  OA
BRANCH 24 27
ATOM     27  CA  PHE B 301     -19.553   3.772  15.850  1.00 41.99 LIG 0.19  C 
BRANCH 27 28
ATOM     28  CB  PHE B 301     -19.023   5.219  15.753  1.00 39.59 LIG 0.07  C 
BRANCH 28 29
ATOM     29  CG  PHE B 301     -17.514   5.324  15.576  1.00 41.19 LIG-0.06  A 
ATOM     30  CD1 PHE B 301     -16.959   5.355  14.304  1.00 38.91 LIG 0.01  A 
ATOM     31  CE1 PHE B 301     -15.577   5.446  14.122  1.00 39.99 LIG 0.00  A 
ATOM     32  CZ  PHE B 301     -14.732   5.477  15.221  1.00 37.57 LIG 0.00  A 
ATOM     33  CE2 PHE B 301     -15.274   5.443  16.503  1.00 41.60 LIG 0.00  A 
ATOM     34  CD2 PHE B 301     -16.656   5.374  16.678  1.00 40.14 LIG 0.01  A 
ENDBRANCH 28 29
ENDBRANCH 27 28
BRANCH 27 35
ATOM     35  C   PHE B 301     -20.732   3.544  14.896  1.00 45.15 LIG 0.20  C 
ATOM     36 O    PHE B 301     -21.587   4.410  14.628  1.00 42.31 LIG-0.65  OA
ATOM     37 OXT  PHE B 301     -20.837   2.443  14.333  1.00 47.06 LIG-0.65  OA
ENDBRANCH 27 35
ENDBRANCH 24 27
ENDBRANCH 4 23
TORSDOF 12
ENDMDL
MODEL 77
USER: ADFR SOLUTION from run 56
USER: SCORE 14.502504 LL:  -4.125 LR: -10.409 RR:   0.000 FEB:  -6.829
USER: RMSD 1.537087
USER: SEED 55
USER: STATUS no improvement in best in 7 clusters for 5 generations
USER: GENES 14
USER: genes 0 Translation |==|  0.44040 0.51673 0.54017
USER: genes 1 Rotation |==|  0.52951 0.50350 0.54765 0.99684
USER: genes 2 Torsion [N]-C--CA-[N] |==|  0.43884
USER: genes 3 Torsion [C]-CA--CB-[CG] |==|  0.45696
USER: genes 4 Torsion [CA]-CB--CG-[CD2] |==|  0.30877
USER: genes 5 Torsion [C]-CA--N-[C] |==|  0.80788
USER: genes 6 Torsion [N]-C--CA-[N] |==|  0.87933
USER: genes 7 Torsion [C]-CA--CB-[CG] |==|  0.09981
USER: genes 8 Torsion [CA]-CB--CG-[OD2] |==|  0.69926
USER: genes 9 Torsion [N]-CA--C-[N] |==|  0.06858
USER: genes 10 Torsion [C]-N--CA-[CB] |==|  0.23475
USER: genes 11 Torsion [N]-CA--CB-[CG] |==|  0.10582
USER: genes 12 Torsion [CA]-CB--CG-[CD2] |==|  0.68628
USER: genes 13 Torsion [N]-CA--C-[O] |==|  0.01374
ROOT
ATOM      1  C   LEU B 299     -17.365   0.869  14.450  1.00 46.80 LIG 0.24  C 
ATOM      2 O    LEU B 299     -17.873   0.417  13.414  1.00 48.15 LIG-0.27  OA
ATOM      3  N   PRO B 300     -18.109   1.364  15.463  1.00 44.47 LIG-0.34  N 
ATOM      4  CA  PRO B 300     -19.576   1.422  15.359  1.00 41.25 LIG 0.18  C 
ATOM      5  CB  PRO B 300     -20.021   1.226  16.811  1.00 41.07 LIG 0.04  C 
ATOM      6  CG  PRO B 300     -18.916   1.889  17.619  1.00 41.88 LIG 0.02  C 
ATOM      7  CD  PRO B 300     -17.642   1.808  16.797  1.00 43.19 LIG 0.13  C 
ENDROOT
BRANCH 1 8
ATOM      8  CA  LEU B 299     -15.837   0.862  14.642  1.00 51.80 LIG 0.18  C 
BRANCH 8 9
ATOM      9  CB  LEU B 299     -15.248   2.266  14.491  1.00 51.70 LIG 0.04  C 
BRANCH 9 10
ATOM     10  CG  LEU B 299     -13.818   2.493  15.004  1.00 53.57 LIG-0.02  C 
ATOM     11  CD2 LEU B 299     -12.820   2.740  13.876  1.00 54.40 LIG 0.01  C 
ATOM     12  CD1 LEU B 299     -13.369   1.316  15.852  1.00 50.77 LIG 0.01  C 
ENDBRANCH 9 10
ENDBRANCH 8 9
BRANCH 8 13
ATOM     13  N   LEU B 299     -15.132  -0.113  13.790  1.00 58.35 LIG-0.35  N 
ATOM     14  C   ASP B 298     -15.255  -1.427  13.996  1.00 67.04 LIG 0.26  C 
ATOM     15 O    ASP B 298     -16.003  -1.893  14.875  1.00 64.28 LIG-0.27  OA
ATOM     16 H    LEU B 299     -14.650   0.236  13.169  1.00 58.35 LIG 0.16  HD
BRANCH 14 17
ATOM     17  CA  ASP B 298     -14.425  -2.378  13.090  1.00 70.29 LIG 0.41  C 
ATOM     18  N   ASP B 298     -14.424  -2.004  11.641  1.00 66.44 LIG 0.61  N 
BRANCH 17 19
ATOM     19  CB  ASP B 298     -12.984  -2.563  13.614  1.00 75.12 LIG 0.16  C 
BRANCH 19 20
ATOM     20  CG  ASP B 298     -12.896  -2.583  15.147  1.00 83.78 LIG 0.17  C 
ATOM     21 OD2  ASP B 298     -12.394  -1.610  15.753  1.00 86.97 LIG-0.65  OA
ATOM     22 OD1  ASP B 298     -13.336  -3.585  15.753  1.00 89.47 LIG-0.65  OA
ENDBRANCH 19 20
ENDBRANCH 17 19
ENDBRANCH 14 17
ENDBRANCH 8 13
ENDBRANCH 1 8
BRANCH 4 23
ATOM     23  C   PRO B 300     -20.071   2.777  14.767  1.00 41.91 LIG 0.24  C 
ATOM     24  N   PHE B 301     -19.196   3.426  14.001  1.00 41.99 LIG-0.34  N 
ATOM     25 H    PHE B 301     -18.400   3.130  13.866  1.00 41.99 LIG 0.16  HD
ATOM     26 O    PRO B 300     -21.212   3.192  15.006  1.00 39.52 LIG-0.27  OA
BRANCH 24 27
ATOM     27  CA  PHE B 301     -19.457   4.695  13.301  1.00 41.99 LIG 0.19  C 
BRANCH 27 28
ATOM     28  CB  PHE B 301     -19.221   5.908  14.226  1.00 39.59 LIG 0.07  C 
BRANCH 28 29
ATOM     29  CG  PHE B 301     -18.034   5.759  15.168  1.00 41.19 LIG-0.06  A 
ATOM     30  CD1 PHE B 301     -16.743   5.699  14.661  1.00 38.91 LIG 0.01  A 
ATOM     31  CE1 PHE B 301     -15.641   5.557  15.509  1.00 39.99 LIG 0.00  A 
ATOM     32  CZ  PHE B 301     -15.829   5.442  16.878  1.00 37.57 LIG 0.00  A 
ATOM     33  CE2 PHE B 301     -17.118   5.495  17.400  1.00 41.60 LIG 0.00  A 
ATOM     34  CD2 PHE B 301     -18.212   5.659  16.550  1.00 40.14 LIG 0.01  A 
ENDBRANCH 28 29
ENDBRANCH 27 28
BRANCH 27 35
ATOM     35  C   PHE B 301     -18.564   4.760  12.056  1.00 45.15 LIG 0.20  C 
ATOM     36 O    PHE B 301     -17.830   3.828  11.677  1.00 42.31 LIG-0.65  OA
ATOM     37 OXT  PHE B 301     -18.587   5.789  11.362  1.00 47.06 LIG-0.65  OA
ENDBRANCH 27 35
ENDBRANCH 24 27
ENDBRANCH 4 23
TORSDOF 12
ENDMDL
MODEL 78
USER: ADFR SOLUTION from run 137
USER: SCORE 14.144700 LL:  -4.089 LR: -10.383 RR:   0.000 FEB:  -6.803
USER: RMSD 5.638254
USER: SEED 136
USER: STATUS no improvement in best in 12 clusters for 5 generations
USER: GENES 14
USER: genes 0 Translation |==|  0.43083 0.68855 0.68533
USER: genes 1 Rotation |==|  0.10295 0.48790 0.53641 0.80146
USER: genes 2 Torsion [N]-C--CA-[N] |==|  0.85015
USER: genes 3 Torsion [C]-CA--CB-[CG] |==|  0.08769
USER: genes 4 Torsion [CA]-CB--CG-[CD2] |==|  0.73645
USER: genes 5 Torsion [C]-CA--N-[C] |==|  0.76773
USER: genes 6 Torsion [N]-C--CA-[N] |==|  0.31012
USER: genes 7 Torsion [C]-CA--CB-[CG] |==|  0.50208
USER: genes 8 Torsion [CA]-CB--CG-[OD2] |==|  0.66067
USER: genes 9 Torsion [N]-CA--C-[N] |==|  0.05251
USER: genes 10 Torsion [C]-N--CA-[CB] |==|  0.36993
USER: genes 11 Torsion [N]-CA--CB-[CG] |==|  0.83804
USER: genes 12 Torsion [CA]-CB--CG-[CD2] |==|  0.13602
USER: genes 13 Torsion [N]-CA--C-[O] |==|  0.35421
ROOT
ATOM      1  C   LEU B 299     -17.530   3.962  16.519  1.00 46.80 LIG 0.24  C 
ATOM      2 O    LEU B 299     -17.939   3.072  17.279  1.00 48.15 LIG-0.27  OA
ATOM      3  N   PRO B 300     -18.333   4.565  15.616  1.00 44.47 LIG-0.34  N 
ATOM      4  CA  PRO B 300     -19.740   4.158  15.470  1.00 41.25 LIG 0.18  C 
ATOM      5  CB  PRO B 300     -20.426   5.467  15.067  1.00 41.07 LIG 0.04  C 
ATOM      6  CG  PRO B 300     -19.366   6.193  14.253  1.00 41.88 LIG 0.02  C 
ATOM      7  CD  PRO B 300     -18.010   5.723  14.749  1.00 43.19 LIG 0.13  C 
ENDROOT
BRANCH 1 8
ATOM      8  CA  LEU B 299     -16.070   4.443  16.591  1.00 51.80 LIG 0.18  C 
BRANCH 8 9
ATOM      9  CB  LEU B 299     -15.965   5.818  17.252  1.00 51.70 LIG 0.04  C 
BRANCH 9 10
ATOM     10  CG  LEU B 299     -16.997   6.165  18.336  1.00 53.57 LIG-0.02  C 
ATOM     11  CD2 LEU B 299     -18.190   6.941  17.786  1.00 54.40 LIG 0.01  C 
ATOM     12  CD1 LEU B 299     -16.339   6.943  19.461  1.00 50.77 LIG 0.01  C 
ENDBRANCH 9 10
ENDBRANCH 8 9
BRANCH 8 13
ATOM     13  N   LEU B 299     -15.365   4.414  15.296  1.00 58.35 LIG-0.35  N 
ATOM     14  C   ASP B 298     -14.800   3.292  14.843  1.00 67.04 LIG 0.26  C 
ATOM     15 O    ASP B 298     -14.880   2.213  15.458  1.00 64.28 LIG-0.27  OA
ATOM     16 H    LEU B 299     -15.354   5.164  14.876  1.00 58.35 LIG 0.16  HD
BRANCH 14 17
ATOM     17  CA  ASP B 298     -14.024   3.369  13.498  1.00 70.29 LIG 0.41  C 
ATOM     18  N   ASP B 298     -12.544   3.191  13.629  1.00 66.44 LIG 0.61  N 
BRANCH 17 19
ATOM     19  CB  ASP B 298     -14.604   2.403  12.441  1.00 75.12 LIG 0.16  C 
BRANCH 19 20
ATOM     20  CG  ASP B 298     -13.847   2.443  11.105  1.00 83.78 LIG 0.17  C 
ATOM     21 OD2  ASP B 298     -14.462   2.724  10.051  1.00 86.97 LIG-0.65  OA
ATOM     22 OD1  ASP B 298     -12.623   2.191  11.110  1.00 89.47 LIG-0.65  OA
ENDBRANCH 19 20
ENDBRANCH 17 19
ENDBRANCH 14 17
ENDBRANCH 8 13
ENDBRANCH 1 8
BRANCH 4 23
ATOM     23  C   PRO B 300     -19.920   3.042  14.397  1.00 41.91 LIG 0.24  C 
ATOM     24  N   PHE B 301     -18.818   2.366  14.076  1.00 41.99 LIG-0.34  N 
ATOM     25 H    PHE B 301     -18.052   2.553  14.418  1.00 41.99 LIG 0.16  HD
ATOM     26 O    PRO B 300     -21.030   2.817  13.900  1.00 39.52 LIG-0.27  OA
BRANCH 24 27
ATOM     27  CA  PHE B 301     -18.757   1.243  13.126  1.00 41.99 LIG 0.19  C 
BRANCH 27 28
ATOM     28  CB  PHE B 301     -17.581   1.403  12.138  1.00 39.59 LIG 0.07  C 
BRANCH 28 29
ATOM     29  CG  PHE B 301     -17.622   2.684  11.317  1.00 41.19 LIG-0.06  A 
ATOM     30  CD1 PHE B 301     -17.434   2.639   9.942  1.00 38.91 LIG 0.01  A 
ATOM     31  CE1 PHE B 301     -17.462   3.805   9.172  1.00 39.99 LIG 0.00  A 
ATOM     32  CZ  PHE B 301     -17.650   5.036   9.781  1.00 37.57 LIG 0.00  A 
ATOM     33  CE2 PHE B 301     -17.837   5.097  11.159  1.00 41.60 LIG 0.00  A 
ATOM     34  CD2 PHE B 301     -17.829   3.927  11.920  1.00 40.14 LIG 0.01  A 
ENDBRANCH 28 29
ENDBRANCH 27 28
BRANCH 27 35
ATOM     35  C   PHE B 301     -18.646  -0.065  13.920  1.00 45.15 LIG 0.20  C 
ATOM     36 O    PHE B 301     -19.400  -1.042  13.759  1.00 42.31 LIG-0.65  OA
ATOM     37 OXT  PHE B 301     -17.737  -0.175  14.759  1.00 47.06 LIG-0.65  OA
ENDBRANCH 27 35
ENDBRANCH 24 27
ENDBRANCH 4 23
TORSDOF 12
ENDMDL
MODEL 79
USER: ADFR SOLUTION from run 48
USER: SCORE 14.742662 LL:  -4.385 LR: -10.359 RR:   0.000 FEB:  -6.779
USER: RMSD 3.875451
USER: SEED 47
USER: STATUS no improvement in best in 25 clusters for 5 generations
USER: GENES 14
USER: genes 0 Translation |==|  0.53379 0.57061 0.49557
USER: genes 1 Rotation |==|  0.83057 0.16333 0.55983 0.65425
USER: genes 2 Torsion [N]-C--CA-[N] |==|  0.37568
USER: genes 3 Torsion [C]-CA--CB-[CG] |==|  0.12217
USER: genes 4 Torsion [CA]-CB--CG-[CD2] |==|  0.60867
USER: genes 5 Torsion [C]-CA--N-[C] |==|  0.83001
USER: genes 6 Torsion [N]-C--CA-[N] |==|  0.83526
USER: genes 7 Torsion [C]-CA--CB-[CG] |==|  0.83414
USER: genes 8 Torsion [CA]-CB--CG-[OD2] |==|  0.80669
USER: genes 9 Torsion [N]-CA--C-[N] |==|  0.00261
USER: genes 10 Torsion [C]-N--CA-[CB] |==|  0.82745
USER: genes 11 Torsion [N]-CA--CB-[CG] |==|  0.93564
USER: genes 12 Torsion [CA]-CB--CG-[CD2] |==|  0.81763
USER: genes 13 Torsion [N]-CA--C-[O] |==|  0.03687
ROOT
ATOM      1  C   LEU B 299     -15.754   1.839  13.815  1.00 46.80 LIG 0.24  C 
ATOM      2 O    LEU B 299     -15.086   2.832  14.138  1.00 48.15 LIG-0.27  OA
ATOM      3  N   PRO B 300     -16.751   1.904  12.906  1.00 44.47 LIG-0.34  N 
ATOM      4  CA  PRO B 300     -17.115   3.186  12.280  1.00 41.25 LIG 0.18  C 
ATOM      5  CB  PRO B 300     -17.582   2.755  10.887  1.00 41.07 LIG 0.04  C 
ATOM      6  CG  PRO B 300     -18.212   1.391  11.124  1.00 41.88 LIG 0.02  C 
ATOM      7  CD  PRO B 300     -17.532   0.781  12.336  1.00 43.19 LIG 0.13  C 
ENDROOT
BRANCH 1 8
ATOM      8  CA  LEU B 299     -15.454   0.459  14.428  1.00 51.80 LIG 0.18  C 
BRANCH 8 9
ATOM      9  CB  LEU B 299     -16.134   0.291  15.788  1.00 51.70 LIG 0.04  C 
BRANCH 9 10
ATOM     10  CG  LEU B 299     -17.591   0.758  15.916  1.00 53.57 LIG-0.02  C 
ATOM     11  CD2 LEU B 299     -17.877   1.437  17.253  1.00 54.40 LIG 0.01  C 
ATOM     12  CD1 LEU B 299     -18.539  -0.409  15.707  1.00 50.77 LIG 0.01  C 
ENDBRANCH 9 10
ENDBRANCH 8 9
BRANCH 8 13
ATOM     13  N   LEU B 299     -14.017   0.135  14.500  1.00 58.35 LIG-0.35  N 
ATOM     14  C   ASP B 298     -13.271   0.055  13.395  1.00 67.04 LIG 0.26  C 
ATOM     15 O    ASP B 298     -13.732   0.296  12.264  1.00 64.28 LIG-0.27  OA
ATOM     16 H    LEU B 299     -13.718   0.008  15.296  1.00 58.35 LIG 0.16  HD
BRANCH 14 17
ATOM     17  CA  ASP B 298     -11.781  -0.353  13.562  1.00 70.29 LIG 0.41  C 
ATOM     18  N   ASP B 298     -10.984   0.565  14.434  1.00 66.44 LIG 0.61  N 
BRANCH 17 19
ATOM     19  CB  ASP B 298     -11.632  -1.820  14.023  1.00 75.12 LIG 0.16  C 
BRANCH 19 20
ATOM     20  CG  ASP B 298     -12.313  -2.102  15.370  1.00 83.78 LIG 0.17  C 
ATOM     21 OD2  ASP B 298     -11.837  -1.615  16.420  1.00 86.97 LIG-0.65  OA
ATOM     22 OD1  ASP B 298     -13.337  -2.820  15.378  1.00 89.47 LIG-0.65  OA
ENDBRANCH 19 20
ENDBRANCH 17 19
ENDBRANCH 14 17
ENDBRANCH 8 13
ENDBRANCH 1 8
BRANCH 4 23
ATOM     23  C   PRO B 300     -18.231   3.932  13.074  1.00 41.91 LIG 0.24  C 
ATOM     24  N   PHE B 301     -18.659   3.323  14.177  1.00 41.99 LIG-0.34  N 
ATOM     25 H    PHE B 301     -18.360   2.554  14.420  1.00 41.99 LIG 0.16  HD
ATOM     26 O    PRO B 300     -18.662   5.023  12.681  1.00 39.52 LIG-0.27  OA
BRANCH 24 27
ATOM     27  CA  PHE B 301     -19.668   3.859  15.105  1.00 41.99 LIG 0.19  C 
BRANCH 27 28
ATOM     28  CB  PHE B 301     -19.198   5.181  15.748  1.00 39.59 LIG 0.07  C 
BRANCH 28 29
ATOM     29  CG  PHE B 301     -17.688   5.370  15.764  1.00 41.19 LIG-0.06  A 
ATOM     30  CD1 PHE B 301     -17.100   6.374  15.006  1.00 38.91 LIG 0.01  A 
ATOM     31  CE1 PHE B 301     -15.715   6.559  15.003  1.00 39.99 LIG 0.00  A 
ATOM     32  CZ  PHE B 301     -14.900   5.714  15.741  1.00 37.57 LIG 0.00  A 
ATOM     33  CE2 PHE B 301     -15.474   4.700  16.503  1.00 41.60 LIG 0.00  A 
ATOM     34  CD2 PHE B 301     -16.859   4.535  16.519  1.00 40.14 LIG 0.01  A 
ENDBRANCH 28 29
ENDBRANCH 27 28
BRANCH 27 35
ATOM     35  C   PHE B 301     -20.986   4.046  14.343  1.00 45.15 LIG 0.20  C 
ATOM     36 O    PHE B 301     -21.211   3.564  13.216  1.00 42.31 LIG-0.65  OA
ATOM     37 OXT  PHE B 301     -21.897   4.693  14.882  1.00 47.06 LIG-0.65  OA
ENDBRANCH 27 35
ENDBRANCH 24 27
ENDBRANCH 4 23
TORSDOF 12
ENDMDL
MODEL 80
USER: ADFR SOLUTION from run 44
USER: SCORE 14.640564 LL:  -4.395 LR: -10.336 RR:   0.000 FEB:  -6.757
USER: RMSD 3.811304
USER: SEED 43
USER: STATUS no improvement in best in 16 clusters for 5 generations
USER: GENES 14
USER: genes 0 Translation |==|  0.51571 0.55505 0.55518
USER: genes 1 Rotation |==|  0.58119 0.42363 0.65345 0.96263
USER: genes 2 Torsion [N]-C--CA-[N] |==|  0.45153
USER: genes 3 Torsion [C]-CA--CB-[CG] |==|  0.81749
USER: genes 4 Torsion [CA]-CB--CG-[CD2] |==|  0.96377
USER: genes 5 Torsion [C]-CA--N-[C] |==|  0.61889
USER: genes 6 Torsion [N]-C--CA-[N] |==|  0.02300
USER: genes 7 Torsion [C]-CA--CB-[CG] |==|  0.57466
USER: genes 8 Torsion [CA]-CB--CG-[OD2] |==|  0.40311
USER: genes 9 Torsion [N]-CA--C-[N] |==|  0.14197
USER: genes 10 Torsion [C]-N--CA-[CB] |==|  0.18146
USER: genes 11 Torsion [N]-CA--CB-[CG] |==|  0.12001
USER: genes 12 Torsion [CA]-CB--CG-[CD2] |==|  0.26599
USER: genes 13 Torsion [N]-CA--C-[O] |==|  0.47834
ROOT
ATOM      1  C   LEU B 299     -16.066   1.559  14.664  1.00 46.80 LIG 0.24  C 
ATOM      2 O    LEU B 299     -16.041   1.292  13.454  1.00 48.15 LIG-0.27  OA
ATOM      3  N   PRO B 300     -17.184   1.425  15.410  1.00 44.47 LIG-0.34  N 
ATOM      4  CA  PRO B 300     -18.448   0.986  14.798  1.00 41.25 LIG 0.18  C 
ATOM      5  CB  PRO B 300     -19.120   0.214  15.938  1.00 41.07 LIG 0.04  C 
ATOM      6  CG  PRO B 300     -18.662   0.949  17.189  1.00 41.88 LIG 0.02  C 
ATOM      7  CD  PRO B 300     -17.316   1.580  16.878  1.00 43.19 LIG 0.13  C 
ENDROOT
BRANCH 1 8
ATOM      8  CA  LEU B 299     -14.794   2.039  15.387  1.00 51.80 LIG 0.18  C 
BRANCH 8 9
ATOM      9  CB  LEU B 299     -14.904   3.508  15.799  1.00 51.70 LIG 0.04  C 
BRANCH 9 10
ATOM     10  CG  LEU B 299     -14.978   4.555  14.678  1.00 53.57 LIG-0.02  C 
ATOM     11  CD2 LEU B 299     -14.614   3.981  13.311  1.00 54.40 LIG 0.01  C 
ATOM     12  CD1 LEU B 299     -14.087   5.739  15.003  1.00 50.77 LIG 0.01  C 
ENDBRANCH 9 10
ENDBRANCH 8 9
BRANCH 8 13
ATOM     13  N   LEU B 299     -13.548   1.780  14.642  1.00 58.35 LIG-0.35  N 
ATOM     14  C   ASP B 298     -12.457   1.318  15.259  1.00 67.04 LIG 0.26  C 
ATOM     15 O    ASP B 298     -12.450   1.037  16.472  1.00 64.28 LIG-0.27  OA
ATOM     16 H    LEU B 299     -13.592   1.950  13.800  1.00 58.35 LIG 0.16  HD
BRANCH 14 17
ATOM     17  CA  ASP B 298     -11.171   1.134  14.406  1.00 70.29 LIG 0.41  C 
ATOM     18  N   ASP B 298     -11.267   1.688  13.020  1.00 66.44 LIG 0.61  N 
BRANCH 17 19
ATOM     19  CB  ASP B 298      -9.917   1.672  15.131  1.00 75.12 LIG 0.16  C 
BRANCH 19 20
ATOM     20  CG  ASP B 298      -8.807   2.119  14.168  1.00 83.78 LIG 0.17  C 
ATOM     21 OD2  ASP B 298      -8.087   3.100  14.463  1.00 86.97 LIG-0.65  OA
ATOM     22 OD1  ASP B 298      -8.654   1.481  13.104  1.00 89.47 LIG-0.65  OA
ENDBRANCH 19 20
ENDBRANCH 17 19
ENDBRANCH 14 17
ENDBRANCH 8 13
ENDBRANCH 1 8
BRANCH 4 23
ATOM     23  C   PRO B 300     -19.312   2.187  14.308  1.00 41.91 LIG 0.24  C 
ATOM     24  N   PHE B 301     -18.686   3.071  13.534  1.00 41.99 LIG-0.34  N 
ATOM     25 H    PHE B 301     -17.851   2.999  13.342  1.00 41.99 LIG 0.16  HD
ATOM     26 O    PRO B 300     -20.504   2.280  14.627  1.00 39.52 LIG-0.27  OA
BRANCH 24 27
ATOM     27  CA  PHE B 301     -19.310   4.255  12.919  1.00 41.99 LIG 0.19  C 
BRANCH 27 28
ATOM     28  CB  PHE B 301     -19.770   5.269  13.988  1.00 39.59 LIG 0.07  C 
BRANCH 28 29
ATOM     29  CG  PHE B 301     -18.768   5.496  15.111  1.00 41.19 LIG-0.06  A 
ATOM     30  CD1 PHE B 301     -18.745   4.647  16.210  1.00 38.91 LIG 0.01  A 
ATOM     31  CE1 PHE B 301     -17.837   4.842  17.254  1.00 39.99 LIG 0.00  A 
ATOM     32  CZ  PHE B 301     -16.959   5.915  17.219  1.00 37.57 LIG 0.00  A 
ATOM     33  CE2 PHE B 301     -16.973   6.777  16.125  1.00 41.60 LIG 0.00  A 
ATOM     34  CD2 PHE B 301     -17.867   6.564  15.076  1.00 40.14 LIG 0.01  A 
ENDBRANCH 28 29
ENDBRANCH 27 28
BRANCH 27 35
ATOM     35  C   PHE B 301     -18.308   4.886  11.944  1.00 45.15 LIG 0.20  C 
ATOM     36 O    PHE B 301     -18.587   5.818  11.167  1.00 42.31 LIG-0.65  OA
ATOM     37 OXT  PHE B 301     -17.140   4.466  11.939  1.00 47.06 LIG-0.65  OA
ENDBRANCH 27 35
ENDBRANCH 24 27
ENDBRANCH 4 23
TORSDOF 12
ENDMDL
MODEL 81
USER: ADFR SOLUTION from run 125
USER: SCORE 13.802491 LL:  -4.071 LR: -10.302 RR:   0.000 FEB:  -6.722
USER: RMSD 5.782177
USER: SEED 124
USER: STATUS no improvement in best in 10 clusters for 5 generations
USER: GENES 14
USER: genes 0 Translation |==|  0.54106 0.64040 0.60773
USER: genes 1 Rotation |==|  0.17765 0.67959 0.77154 0.70026
USER: genes 2 Torsion [N]-C--CA-[N] |==|  0.82565
USER: genes 3 Torsion [C]-CA--CB-[CG] |==|  0.04135
USER: genes 4 Torsion [CA]-CB--CG-[CD2] |==|  0.65687
USER: genes 5 Torsion [C]-CA--N-[C] |==|  0.62232
USER: genes 6 Torsion [N]-C--CA-[N] |==|  0.81914
USER: genes 7 Torsion [C]-CA--CB-[CG] |==|  0.17007
USER: genes 8 Torsion [CA]-CB--CG-[OD2] |==|  0.00559
USER: genes 9 Torsion [N]-CA--C-[N] |==|  0.06970
USER: genes 10 Torsion [C]-N--CA-[CB] |==|  0.21834
USER: genes 11 Torsion [N]-CA--CB-[CG] |==|  0.01416
USER: genes 12 Torsion [CA]-CB--CG-[CD2] |==|  0.71889
USER: genes 13 Torsion [N]-CA--C-[O] |==|  0.86477
ROOT
ATOM      1  C   LEU B 299     -15.629   3.095  15.413  1.00 46.80 LIG 0.24  C 
ATOM      2 O    LEU B 299     -14.889   2.412  16.136  1.00 48.15 LIG-0.27  OA
ATOM      3  N   PRO B 300     -16.776   3.642  15.868  1.00 44.47 LIG-0.34  N 
ATOM      4  CA  PRO B 300     -17.222   3.414  17.252  1.00 41.25 LIG 0.18  C 
ATOM      5  CB  PRO B 300     -17.952   4.718  17.586  1.00 41.07 LIG 0.04  C 
ATOM      6  CG  PRO B 300     -18.558   5.143  16.257  1.00 41.88 LIG 0.02  C 
ATOM      7  CD  PRO B 300     -17.676   4.580  15.156  1.00 43.19 LIG 0.13  C 
ENDROOT
BRANCH 1 8
ATOM      8  CA  LEU B 299     -15.251   3.375  13.947  1.00 51.80 LIG 0.18  C 
BRANCH 8 9
ATOM      9  CB  LEU B 299     -14.978   4.862  13.713  1.00 51.70 LIG 0.04  C 
BRANCH 9 10
ATOM     10  CG  LEU B 299     -14.769   5.748  14.950  1.00 53.57 LIG-0.02  C 
ATOM     11  CD2 LEU B 299     -15.740   6.924  15.003  1.00 54.40 LIG 0.01  C 
ATOM     12  CD1 LEU B 299     -13.337   6.249  15.003  1.00 50.77 LIG 0.01  C 
ENDBRANCH 9 10
ENDBRANCH 8 9
BRANCH 8 13
ATOM     13  N   LEU B 299     -16.217   2.844  12.968  1.00 58.35 LIG-0.35  N 
ATOM     14  C   ASP B 298     -15.806   2.207  11.869  1.00 67.04 LIG 0.26  C 
ATOM     15 O    ASP B 298     -14.603   1.985  11.641  1.00 64.28 LIG-0.27  OA
ATOM     16 H    LEU B 299     -17.042   2.981  13.168  1.00 58.35 LIG 0.16  HD
BRANCH 14 17
ATOM     17  CA  ASP B 298     -16.893   1.736  10.861  1.00 70.29 LIG 0.41  C 
ATOM     18  N   ASP B 298     -17.816   0.688  11.396  1.00 66.44 LIG 0.61  N 
BRANCH 17 19
ATOM     19  CB  ASP B 298     -17.687   2.923  10.273  1.00 75.12 LIG 0.16  C 
BRANCH 19 20
ATOM     20  CG  ASP B 298     -16.808   3.910   9.489  1.00 83.78 LIG 0.17  C 
ATOM     21 OD2  ASP B 298     -15.585   3.679   9.353  1.00 86.97 LIG-0.65  OA
ATOM     22 OD1  ASP B 298     -17.348   4.927   9.003  1.00 89.47 LIG-0.65  OA
ENDBRANCH 19 20
ENDBRANCH 17 19
ENDBRANCH 14 17
ENDBRANCH 8 13
ENDBRANCH 1 8
BRANCH 4 23
ATOM     23  C   PRO B 300     -18.151   2.168  17.373  1.00 41.91 LIG 0.24  C 
ATOM     24  N   PHE B 301     -17.997   1.240  16.431  1.00 41.99 LIG-0.34  N 
ATOM     25 H    PHE B 301     -17.442   1.337  15.782  1.00 41.99 LIG 0.16  HD
ATOM     26 O    PRO B 300     -18.962   2.074  18.303  1.00 39.52 LIG-0.27  OA
BRANCH 24 27
ATOM     27  CA  PHE B 301     -18.729  -0.036  16.368  1.00 41.99 LIG 0.19  C 
BRANCH 27 28
ATOM     28  CB  PHE B 301     -20.156   0.159  15.813  1.00 39.59 LIG 0.07  C 
BRANCH 28 29
ATOM     29  CG  PHE B 301     -20.459   1.574  15.340  1.00 41.19 LIG-0.06  A 
ATOM     30  CD1 PHE B 301     -19.985   2.017  14.113  1.00 38.91 LIG 0.01  A 
ATOM     31  CE1 PHE B 301     -20.248   3.314  13.664  1.00 39.99 LIG 0.00  A 
ATOM     32  CZ  PHE B 301     -20.967   4.192  14.460  1.00 37.57 LIG 0.00  A 
ATOM     33  CE2 PHE B 301     -21.445   3.763  15.695  1.00 41.60 LIG 0.00  A 
ATOM     34  CD2 PHE B 301     -21.198   2.460  16.128  1.00 40.14 LIG 0.01  A 
ENDBRANCH 28 29
ENDBRANCH 27 28
BRANCH 27 35
ATOM     35  C   PHE B 301     -17.924  -1.020  15.511  1.00 45.15 LIG 0.20  C 
ATOM     36 O    PHE B 301     -17.456  -0.745  14.391  1.00 42.31 LIG-0.65  OA
ATOM     37 OXT  PHE B 301     -17.700  -2.155  15.962  1.00 47.06 LIG-0.65  OA
ENDBRANCH 27 35
ENDBRANCH 24 27
ENDBRANCH 4 23
TORSDOF 12
ENDMDL
MODEL 82
USER: ADFR SOLUTION from run 147
USER: SCORE 14.313258 LL:  -4.246 LR: -10.292 RR:   0.000 FEB:  -6.713
USER: RMSD 5.260374
USER: SEED 146
USER: STATUS no improvement in best in 15 clusters for 5 generations
USER: GENES 14
USER: genes 0 Translation |==|  0.53770 0.60845 0.54266
USER: genes 1 Rotation |==|  0.32373 0.79947 0.55545 0.85521
USER: genes 2 Torsion [N]-C--CA-[N] |==|  0.26521
USER: genes 3 Torsion [C]-CA--CB-[CG] |==|  0.46118
USER: genes 4 Torsion [CA]-CB--CG-[CD2] |==|  0.91319
USER: genes 5 Torsion [C]-CA--N-[C] |==|  0.73901
USER: genes 6 Torsion [N]-C--CA-[N] |==|  0.28127
USER: genes 7 Torsion [C]-CA--CB-[CG] |==|  0.59538
USER: genes 8 Torsion [CA]-CB--CG-[OD2] |==|  0.36416
USER: genes 9 Torsion [N]-CA--C-[N] |==|  0.23053
USER: genes 10 Torsion [C]-N--CA-[CB] |==|  0.16264
USER: genes 11 Torsion [N]-CA--CB-[CG] |==|  0.09890
USER: genes 12 Torsion [CA]-CB--CG-[CD2] |==|  0.65494
USER: genes 13 Torsion [N]-CA--C-[O] |==|  0.88314
ROOT
ATOM      1  C   LEU B 299     -15.687   2.520  14.486  1.00 46.80 LIG 0.24  C 
ATOM      2 O    LEU B 299     -16.330   1.707  15.165  1.00 48.15 LIG-0.27  OA
ATOM      3  N   PRO B 300     -15.564   3.818  14.838  1.00 44.47 LIG-0.34  N 
ATOM      4  CA  PRO B 300     -16.233   4.337  16.042  1.00 41.25 LIG 0.18  C 
ATOM      5  CB  PRO B 300     -15.270   5.432  16.512  1.00 41.07 LIG 0.04  C 
ATOM      6  CG  PRO B 300     -14.685   5.976  15.218  1.00 41.88 LIG 0.02  C 
ATOM      7  CD  PRO B 300     -14.724   4.855  14.194  1.00 43.19 LIG 0.13  C 
ENDROOT
BRANCH 1 8
ATOM      8  CA  LEU B 299     -14.966   2.071  13.202  1.00 51.80 LIG 0.18  C 
BRANCH 8 9
ATOM      9  CB  LEU B 299     -15.846   1.148  12.358  1.00 51.70 LIG 0.04  C 
BRANCH 9 10
ATOM     10  CG  LEU B 299     -15.411   0.881  10.910  1.00 53.57 LIG-0.02  C 
ATOM     11  CD2 LEU B 299     -14.674   2.064  10.289  1.00 54.40 LIG 0.01  C 
ATOM     12  CD1 LEU B 299     -16.610   0.506  10.059  1.00 50.77 LIG 0.01  C 
ENDBRANCH 9 10
ENDBRANCH 8 9
BRANCH 8 13
ATOM     13  N   LEU B 299     -13.636   1.479  13.438  1.00 58.35 LIG-0.35  N 
ATOM     14  C   ASP B 298     -12.528   2.223  13.377  1.00 67.04 LIG 0.26  C 
ATOM     15 O    ASP B 298     -12.563   3.450  13.170  1.00 64.28 LIG-0.27  OA
ATOM     16 H    LEU B 299     -13.644   0.637  13.612  1.00 58.35 LIG 0.16  HD
BRANCH 14 17
ATOM     17  CA  ASP B 298     -11.165   1.502  13.577  1.00 70.29 LIG 0.41  C 
ATOM     18  N   ASP B 298     -10.422   1.227  12.308  1.00 66.44 LIG 0.61  N 
BRANCH 17 19
ATOM     19  CB  ASP B 298     -10.267   2.239  14.594  1.00 75.12 LIG 0.16  C 
BRANCH 19 20
ATOM     20  CG  ASP B 298      -8.772   2.153  14.255  1.00 83.78 LIG 0.17  C 
ATOM     21 OD2  ASP B 298      -8.074   3.193  14.254  1.00 86.97 LIG-0.65  OA
ATOM     22 OD1  ASP B 298      -8.289   1.032  13.986  1.00 89.47 LIG-0.65  OA
ENDBRANCH 19 20
ENDBRANCH 17 19
ENDBRANCH 14 17
ENDBRANCH 8 13
ENDBRANCH 1 8
BRANCH 4 23
ATOM     23  C   PRO B 300     -17.655   4.894  15.732  1.00 41.91 LIG 0.24  C 
ATOM     24  N   PHE B 301     -18.631   3.989  15.681  1.00 41.99 LIG-0.34  N 
ATOM     25 H    PHE B 301     -18.480   3.149  15.783  1.00 41.99 LIG 0.16  HD
ATOM     26 O    PRO B 300     -17.835   6.105  15.559  1.00 39.52 LIG-0.27  OA
BRANCH 24 27
ATOM     27  CA  PHE B 301     -20.054   4.286  15.450  1.00 41.99 LIG 0.19  C 
BRANCH 27 28
ATOM     28  CB  PHE B 301     -20.268   5.015  14.106  1.00 39.59 LIG 0.07  C 
BRANCH 28 29
ATOM     29  CG  PHE B 301     -19.333   4.564  12.992  1.00 41.19 LIG-0.06  A 
ATOM     30  CD1 PHE B 301     -19.257   3.223  12.643  1.00 38.91 LIG 0.01  A 
ATOM     31  CE1 PHE B 301     -18.402   2.789  11.626  1.00 39.99 LIG 0.00  A 
ATOM     32  CZ  PHE B 301     -17.588   3.699  10.968  1.00 37.57 LIG 0.00  A 
ATOM     33  CE2 PHE B 301     -17.650   5.047  11.310  1.00 41.60 LIG 0.00  A 
ATOM     34  CD2 PHE B 301     -18.522   5.476  12.311  1.00 40.14 LIG 0.01  A 
ENDBRANCH 28 29
ENDBRANCH 27 28
BRANCH 27 35
ATOM     35  C   PHE B 301     -20.844   2.973  15.506  1.00 45.15 LIG 0.20  C 
ATOM     36 O    PHE B 301     -20.461   1.908  14.987  1.00 42.31 LIG-0.65  OA
ATOM     37 OXT  PHE B 301     -21.921   2.954  16.124  1.00 47.06 LIG-0.65  OA
ENDBRANCH 27 35
ENDBRANCH 24 27
ENDBRANCH 4 23
TORSDOF 12
ENDMDL
MODEL 83
USER: ADFR SOLUTION from run 18
USER: SCORE 13.807847 LL:  -3.805 LR: -10.292 RR:   0.000 FEB:  -6.712
USER: RMSD 7.290415
USER: SEED 17
USER: STATUS no improvement in best in 16 clusters for 5 generations
USER: GENES 14
USER: genes 0 Translation |==|  0.49164 0.69708 0.62878
USER: genes 1 Rotation |==|  0.25356 0.25164 0.85408 0.54703
USER: genes 2 Torsion [N]-C--CA-[N] |==|  0.85187
USER: genes 3 Torsion [C]-CA--CB-[CG] |==|  0.68567
USER: genes 4 Torsion [CA]-CB--CG-[CD2] |==|  0.68483
USER: genes 5 Torsion [C]-CA--N-[C] |==|  0.85000
USER: genes 6 Torsion [N]-C--CA-[N] |==|  0.76385
USER: genes 7 Torsion [C]-CA--CB-[CG] |==|  0.46759
USER: genes 8 Torsion [CA]-CB--CG-[OD2] |==|  0.10439
USER: genes 9 Torsion [N]-CA--C-[N] |==|  0.11615
USER: genes 10 Torsion [C]-N--CA-[CB] |==|  0.93760
USER: genes 11 Torsion [N]-CA--CB-[CG] |==|  0.69617
USER: genes 12 Torsion [CA]-CB--CG-[CD2] |==|  0.29314
USER: genes 13 Torsion [N]-CA--C-[O] |==|  0.50328
ROOT
ATOM      1  C   LEU B 299     -16.481   4.115  15.713  1.00 46.80 LIG 0.24  C 
ATOM      2 O    LEU B 299     -15.576   4.586  16.417  1.00 48.15 LIG-0.27  OA
ATOM      3  N   PRO B 300     -16.635   2.787  15.527  1.00 44.47 LIG-0.34  N 
ATOM      4  CA  PRO B 300     -15.694   1.830  16.132  1.00 41.25 LIG 0.18  C 
ATOM      5  CB  PRO B 300     -16.585   0.612  16.400  1.00 41.07 LIG 0.04  C 
ATOM      6  CG  PRO B 300     -17.591   0.645  15.260  1.00 41.88 LIG 0.02  C 
ATOM      7  CD  PRO B 300     -17.740   2.092  14.827  1.00 43.19 LIG 0.13  C 
ENDROOT
BRANCH 1 8
ATOM      8  CA  LEU B 299     -17.503   5.042  15.029  1.00 51.80 LIG 0.18  C 
BRANCH 8 9
ATOM      9  CB  LEU B 299     -18.859   5.000  15.736  1.00 51.70 LIG 0.04  C 
BRANCH 9 10
ATOM     10  CG  LEU B 299     -20.041   4.390  14.969  1.00 53.57 LIG-0.02  C 
ATOM     11  CD2 LEU B 299     -21.117   5.418  14.630  1.00 54.40 LIG 0.01  C 
ATOM     12  CD1 LEU B 299     -20.643   3.241  15.757  1.00 50.77 LIG 0.01  C 
ENDBRANCH 9 10
ENDBRANCH 8 9
BRANCH 8 13
ATOM     13  N   LEU B 299     -17.645   4.810  13.579  1.00 58.35 LIG-0.35  N 
ATOM     14  C   ASP B 298     -16.583   4.829  12.770  1.00 67.04 LIG 0.26  C 
ATOM     15 O    ASP B 298     -15.425   4.991  13.198  1.00 64.28 LIG-0.27  OA
ATOM     16 H    LEU B 299     -18.451   4.666  13.316  1.00 58.35 LIG 0.16  HD
BRANCH 14 17
ATOM     17  CA  ASP B 298     -16.834   4.637  11.248  1.00 70.29 LIG 0.41  C 
ATOM     18  N   ASP B 298     -16.914   3.208  10.812  1.00 66.44 LIG 0.61  N 
BRANCH 17 19
ATOM     19  CB  ASP B 298     -18.066   5.433  10.762  1.00 75.12 LIG 0.16  C 
BRANCH 19 20
ATOM     20  CG  ASP B 298     -18.178   5.498   9.232  1.00 83.78 LIG 0.17  C 
ATOM     21 OD2  ASP B 298     -17.864   4.501   8.543  1.00 86.97 LIG-0.65  OA
ATOM     22 OD1  ASP B 298     -18.587   6.560   8.713  1.00 89.47 LIG-0.65  OA
ENDBRANCH 19 20
ENDBRANCH 17 19
ENDBRANCH 14 17
ENDBRANCH 8 13
ENDBRANCH 1 8
BRANCH 4 23
ATOM     23  C   PRO B 300     -14.504   1.494  15.183  1.00 41.91 LIG 0.24  C 
ATOM     24  N   PHE B 301     -13.984   2.527  14.523  1.00 41.99 LIG-0.34  N 
ATOM     25 H    PHE B 301     -14.303   3.321  14.594  1.00 41.99 LIG 0.16  HD
ATOM     26 O    PRO B 300     -14.087   0.334  15.079  1.00 39.52 LIG-0.27  OA
BRANCH 24 27
ATOM     27  CA  PHE B 301     -12.830   2.458  13.612  1.00 41.99 LIG 0.19  C 
BRANCH 27 28
ATOM     28  CB  PHE B 301     -11.949   1.225  13.909  1.00 39.59 LIG 0.07  C 
BRANCH 28 29
ATOM     29  CG  PHE B 301     -10.599   1.552  14.531  1.00 41.19 LIG-0.06  A 
ATOM     30  CD1 PHE B 301      -9.578   2.078  13.751  1.00 38.91 LIG 0.01  A 
ATOM     31  CE1 PHE B 301      -8.330   2.380  14.302  1.00 39.99 LIG 0.00  A 
ATOM     32  CZ  PHE B 301      -8.085   2.128  15.643  1.00 37.57 LIG 0.00  A 
ATOM     33  CE2 PHE B 301      -9.097   1.597  16.438  1.00 41.60 LIG 0.00  A 
ATOM     34  CD2 PHE B 301     -10.348   1.318  15.886  1.00 40.14 LIG 0.01  A 
ENDBRANCH 28 29
ENDBRANCH 27 28
BRANCH 27 35
ATOM     35  C   PHE B 301     -13.346   2.441  12.168  1.00 45.15 LIG 0.20  C 
ATOM     36 O    PHE B 301     -12.609   2.365  11.167  1.00 42.31 LIG-0.65  OA
ATOM     37 OXT  PHE B 301     -14.572   2.481  11.975  1.00 47.06 LIG-0.65  OA
ENDBRANCH 27 35
ENDBRANCH 24 27
ENDBRANCH 4 23
TORSDOF 12
ENDMDL
MODEL 84
USER: ADFR SOLUTION from run 176
USER: SCORE 14.136911 LL:  -4.144 LR: -10.268 RR:   0.000 FEB:  -6.689
USER: RMSD 5.593489
USER: SEED 175
USER: STATUS no improvement in best in 12 clusters for 5 generations
USER: GENES 14
USER: genes 0 Translation |==|  0.38268 0.73902 0.57790
USER: genes 1 Rotation |==|  0.25830 0.64501 0.09588 0.58508
USER: genes 2 Torsion [N]-C--CA-[N] |==|  0.86121
USER: genes 3 Torsion [C]-CA--CB-[CG] |==|  0.05791
USER: genes 4 Torsion [CA]-CB--CG-[CD2] |==|  0.74695
USER: genes 5 Torsion [C]-CA--N-[C] |==|  0.76764
USER: genes 6 Torsion [N]-C--CA-[N] |==|  0.64781
USER: genes 7 Torsion [C]-CA--CB-[CG] |==|  0.51131
USER: genes 8 Torsion [CA]-CB--CG-[OD2] |==|  0.47649
USER: genes 9 Torsion [N]-CA--C-[N] |==|  0.61581
USER: genes 10 Torsion [C]-N--CA-[CB] |==|  0.85933
USER: genes 11 Torsion [N]-CA--CB-[CG] |==|  0.89962
USER: genes 12 Torsion [CA]-CB--CG-[CD2] |==|  0.85519
USER: genes 13 Torsion [N]-CA--C-[O] |==|  0.00085
ROOT
ATOM      1  C   LEU B 299     -18.361   4.870  14.988  1.00 46.80 LIG 0.24  C 
ATOM      2 O    LEU B 299     -18.952   5.857  14.527  1.00 48.15 LIG-0.27  OA
ATOM      3  N   PRO B 300     -17.244   4.368  14.420  1.00 44.47 LIG-0.34  N 
ATOM      4  CA  PRO B 300     -16.696   4.958  13.187  1.00 41.25 LIG 0.18  C 
ATOM      5  CB  PRO B 300     -15.190   4.730  13.350  1.00 41.07 LIG 0.04  C 
ATOM      6  CG  PRO B 300     -15.104   3.417  14.112  1.00 41.88 LIG 0.02  C 
ATOM      7  CD  PRO B 300     -16.372   3.287  14.938  1.00 43.19 LIG 0.13  C 
ENDROOT
BRANCH 1 8
ATOM      8  CA  LEU B 299     -18.869   4.179  16.267  1.00 51.80 LIG 0.18  C 
BRANCH 8 9
ATOM      9  CB  LEU B 299     -18.038   4.578  17.487  1.00 51.70 LIG 0.04  C 
BRANCH 9 10
ATOM     10  CG  LEU B 299     -17.229   5.880  17.399  1.00 53.57 LIG-0.02  C 
ATOM     11  CD2 LEU B 299     -15.811   5.659  16.878  1.00 54.40 LIG 0.01  C 
ATOM     12  CD1 LEU B 299     -17.188   6.567  18.752  1.00 50.77 LIG 0.01  C 
ENDBRANCH 9 10
ENDBRANCH 8 9
BRANCH 8 13
ATOM     13  N   LEU B 299     -18.985   2.714  16.149  1.00 58.35 LIG-0.35  N 
ATOM     14  C   ASP B 298     -20.068   2.147  15.611  1.00 67.04 LIG 0.26  C 
ATOM     15 O    ASP B 298     -21.003   2.820  15.140  1.00 64.28 LIG-0.27  OA
ATOM     16 H    LEU B 299     -18.310   2.276  16.451  1.00 58.35 LIG 0.16  HD
BRANCH 14 17
ATOM     17  CA  ASP B 298     -20.131   0.594  15.586  1.00 70.29 LIG 0.41  C 
ATOM     18  N   ASP B 298     -20.398   0.010  14.235  1.00 66.44 LIG 0.61  N 
BRANCH 17 19
ATOM     19  CB  ASP B 298     -18.879  -0.044  16.226  1.00 75.12 LIG 0.16  C 
BRANCH 19 20
ATOM     20  CG  ASP B 298     -18.864  -1.577  16.128  1.00 83.78 LIG 0.17  C 
ATOM     21 OD2  ASP B 298     -17.837  -2.210  16.462  1.00 86.97 LIG-0.65  OA
ATOM     22 OD1  ASP B 298     -19.892  -2.154  15.712  1.00 89.47 LIG-0.65  OA
ENDBRANCH 19 20
ENDBRANCH 17 19
ENDBRANCH 14 17
ENDBRANCH 8 13
ENDBRANCH 1 8
BRANCH 4 23
ATOM     23  C   PRO B 300     -17.262   4.273  11.906  1.00 41.91 LIG 0.24  C 
ATOM     24  N   PHE B 301     -16.379   4.043  10.937  1.00 41.99 LIG-0.34  N 
ATOM     25 H    PHE B 301     -15.557   4.283  11.003  1.00 41.99 LIG 0.16  HD
ATOM     26 O    PRO B 300     -18.459   3.968  11.829  1.00 39.52 LIG-0.27  OA
BRANCH 24 27
ATOM     27  CA  PHE B 301     -16.674   3.369   9.662  1.00 41.99 LIG 0.19  C 
BRANCH 27 28
ATOM     28  CB  PHE B 301     -17.407   2.029   9.888  1.00 39.59 LIG 0.07  C 
BRANCH 28 29
ATOM     29  CG  PHE B 301     -16.954   1.266  11.125  1.00 41.19 LIG-0.06  A 
ATOM     30  CD1 PHE B 301     -17.883   0.844  12.065  1.00 38.91 LIG 0.01  A 
ATOM     31  CE1 PHE B 301     -17.486   0.147  13.210  1.00 39.99 LIG 0.00  A 
ATOM     32  CZ  PHE B 301     -16.142  -0.107  13.436  1.00 37.57 LIG 0.00  A 
ATOM     33  CE2 PHE B 301     -15.198   0.313  12.504  1.00 41.60 LIG 0.00  A 
ATOM     34  CD2 PHE B 301     -15.603   0.990  11.353  1.00 40.14 LIG 0.01  A 
ENDBRANCH 28 29
ENDBRANCH 27 28
BRANCH 27 35
ATOM     35  C   PHE B 301     -17.501   4.318   8.786  1.00 45.15 LIG 0.20  C 
ATOM     36 O    PHE B 301     -17.841   5.465   9.132  1.00 42.31 LIG-0.65  OA
ATOM     37 OXT  PHE B 301     -17.837   3.939   7.652  1.00 47.06 LIG-0.65  OA
ENDBRANCH 27 35
ENDBRANCH 24 27
ENDBRANCH 4 23
TORSDOF 12
ENDMDL
