MODEL 1
USER: ADFR SOLUTION from run 78
USER: SCORE 20.469439 LL:  -1.595 LR: -19.193 RR:   0.000 FEB: -14.420
USER: RMSD 1.260864
USER: SEED 77
USER: STATUS 1 or 2 clusters left
USER: GENES 18
USER: genes 0 Translation |==|  0.47000 0.46521 0.58751
USER: genes 1 Rotation |==|  0.49834 0.50103 0.49549 0.99998
USER: genes 2 Torsion [N]-C--CA-[N] |==|  0.29621
USER: genes 3 Torsion [C]-CA--CB-[CG] |==|  0.20826
USER: genes 4 Torsion [CA]-CB--CG-[CD] |==|  0.42813
USER: genes 5 Torsion [CB]-CG--CD-[NE] |==|  0.13581
USER: genes 6 Torsion [CG]-CD--NE-[CZ] |==|  0.69290
USER: genes 7 Torsion [C]-CA--N-[C] |==|  0.62628
USER: genes 8 Torsion [N]-C--CA-[N] |==|  0.02628
USER: genes 9 Torsion [C]-CA--CB-[CG2] |==|  0.59447
USER: genes 10 Torsion [C]-CA--N-[H3] |==|  0.21319
USER: genes 11 Torsion [N]-CA--C-[O] |==|  0.86821
USER: genes 12 Torsion [C]-N--CA-[C] |==|  0.78873
USER: genes 13 Torsion [N]-CA--CB-[CG] |==|  0.86532
USER: genes 14 Torsion [CA]-CB--CG-[CD] |==|  0.63556
USER: genes 15 Torsion [CB]-CG--CD-[NE] |==|  0.43074
USER: genes 16 Torsion [CG]-CD--NE-[HE] |==|  0.86392
USER: genes 17 Torsion [N]-CA--C-[O] |==|  0.67357
ROOT
ATOM      1  C   ARG L   2     -23.564   7.174 -39.757  1.00 28.86 LIG 0.24  C 
ATOM      2 O    ARG L   2     -22.678   7.972 -39.485  1.00 28.60 LIG-0.27  OA
ATOM      3  N   PRO L   3     -23.809   6.089 -39.019  1.00 31.50 LIG-0.34  N 
ATOM      4  CA  PRO L   3     -23.076   5.841 -37.777  1.00 28.56 LIG 0.18  C 
ATOM      5  CB  PRO L   3     -23.939   4.793 -37.076  1.00 31.15 LIG 0.04  C 
ATOM      6  CG  PRO L   3     -24.556   4.035 -38.189  1.00 34.79 LIG 0.02  C 
ATOM      7  CD  PRO L   3     -24.792   5.027 -39.296  1.00 34.83 LIG 0.13  C 
ENDROOT
BRANCH 1 8
ATOM      8  CA  ARG L   2     -24.439   7.396 -40.975  1.00 35.60 LIG 0.18  C 
BRANCH 8 9
ATOM      9  CB  ARG L   2     -23.556   7.721 -42.177  1.00 35.35 LIG 0.04  C 
BRANCH 9 10
ATOM     10  CG  ARG L   2     -22.834   6.515 -42.740  1.00 43.75 LIG 0.02  C 
BRANCH 10 11
ATOM     11  CD  ARG L   2     -22.500   6.693 -44.218  1.00 55.75 LIG 0.14  C 
BRANCH 11 12
ATOM     12  NE  ARG L   2     -21.862   7.977 -44.506  1.00 59.77 LIG-0.23  N 
ATOM     13 HE   ARG L   2     -21.062   8.096 -44.215  1.00 59.77 LIG 0.18  HD
ATOM     14  CZ  ARG L   2     -22.425   8.976 -45.184  1.00 59.01 LIG 0.67  C 
ATOM     15  NH2 ARG L   2     -21.742  10.098 -45.380  1.00 68.00 LIG-0.23  N 
ATOM     16  NH1 ARG L   2     -23.661   8.871 -45.660  1.00 46.29 LIG-0.23  N 
ATOM     17 1HH2 ARG L   2     -20.943  10.176 -45.069  1.00 68.00 LIG 0.17  HD
ATOM     18 2HH2 ARG L   2     -22.097  10.748 -45.816  1.00 68.00 LIG 0.17  HD
ATOM     19 1HH1 ARG L   2     -24.111   8.150 -45.532  1.00 46.29 LIG 0.17  HD
ATOM     20 2HH1 ARG L   2     -24.010   9.524 -46.096  1.00 46.29 LIG 0.17  HD
ENDBRANCH 11 12
ENDBRANCH 10 11
ENDBRANCH 9 10
ENDBRANCH 8 9
BRANCH 8 21
ATOM     21  N   ARG L   2     -25.361   8.487 -40.704  1.00 36.06 LIG-0.35  N 
ATOM     22  C   VAL L   1     -26.652   8.402 -41.008  1.00 46.58 LIG 0.25  C 
ATOM     23 O    VAL L   1     -27.150   7.406 -41.526  1.00 52.05 LIG-0.27  OA
ATOM     24 H    ARG L   2     -25.000   9.175 -40.337  1.00 36.06 LIG 0.16  HD
BRANCH 22 25
ATOM     25  CA  VAL L   1     -27.510   9.618 -40.679  1.00 44.00 LIG 0.28  C 
BRANCH 25 26
ATOM     26  CB  VAL L   1     -28.365   9.965 -41.907  1.00 44.54 LIG 0.02  C 
ATOM     27  CG2 VAL L   1     -28.564  11.477 -42.009  1.00 44.46 LIG 0.01  C 
ATOM     28  CG1 VAL L   1     -29.699   9.240 -41.843  1.00 39.43 LIG 0.01  C 
ENDBRANCH 25 26
BRANCH 25 29
ATOM     29  N   VAL L   1     -26.661  10.774 -40.272  1.00 43.15 LIG-0.07  N 
ATOM     30 H3   VAL L   1     -26.289  11.139 -40.994  1.00 43.15 LIG 0.28  HD
ATOM     31 H2   VAL L   1     -26.022  10.493 -39.720  1.00 43.15 LIG 0.28  HD
ATOM     32 H1   VAL L   1     -27.164  11.381 -39.859  1.00 43.15 LIG 0.28  HD
ENDBRANCH 25 29
ENDBRANCH 22 25
ENDBRANCH 8 21
ENDBRANCH 1 8
BRANCH 4 33
ATOM     33  C   PRO L   3     -21.684   5.275 -38.018  1.00 21.59 LIG 0.24  C 
ATOM     34 O    PRO L   3     -21.531   4.334 -38.804  1.00 24.79 LIG-0.27  OA
ATOM     35  N   ARG L   4     -20.699   5.833 -37.319  1.00 21.43 LIG-0.35  N 
ATOM     36 H    ARG L   4     -20.815   6.508 -36.798  1.00 21.43 LIG 0.16  HD
BRANCH 35 37
ATOM     37  CA  ARG L   4     -19.328   5.359 -37.365  1.00 26.28 LIG 0.16  C 
BRANCH 37 38
ATOM     38  CB  ARG L   4     -18.385   6.445 -36.847  1.00 29.57 LIG 0.04  C 
BRANCH 38 39
ATOM     39  CG  ARG L   4     -18.653   7.798 -37.478  1.00 30.64 LIG 0.02  C 
BRANCH 39 40
ATOM     40  CD  ARG L   4     -17.387   8.463 -37.995  1.00 33.05 LIG 0.14  C 
BRANCH 40 41
ATOM     41  NE  ARG L   4     -17.685   9.409 -39.065  1.00 22.53 LIG-0.23  N 
ATOM     42 HE   ARG L   4     -18.191   9.140 -39.706  1.00 22.53 LIG 0.18  HD
ATOM     43  CZ  ARG L   4     -17.232  10.652 -39.118  1.00 22.76 LIG 0.67  C 
ATOM     44  NH2 ARG L   4     -17.552  11.427 -40.142  1.00 22.03 LIG-0.23  N 
ATOM     45  NH1 ARG L   4     -16.449  11.122 -38.156  1.00 22.99 LIG-0.23  N 
ATOM     46 2HH2 ARG L   4     -17.259  12.235 -40.178  1.00 22.03 LIG 0.17  HD
ATOM     47 1HH2 ARG L   4     -18.054  11.124 -40.771  1.00 22.03 LIG 0.17  HD
ATOM     48 1HH1 ARG L   4     -16.233  10.619 -37.493  1.00 22.99 LIG 0.17  HD
ATOM     49 2HH1 ARG L   4     -16.158  11.931 -38.195  1.00 22.99 LIG 0.17  HD
ENDBRANCH 40 41
ENDBRANCH 39 40
ENDBRANCH 38 39
ENDBRANCH 37 38
BRANCH 37 50
ATOM     50  C   ARG L   4     -19.161   4.077 -36.552  1.00 33.78 LIG 0.22  C 
ATOM     51 O    ARG L   4     -18.415   4.047 -35.572  1.00 23.95 LIG-0.29  OA
ENDBRANCH 37 50
ENDBRANCH 35 37
ENDBRANCH 4 33
TORSDOF 16
ENDMDL
MODEL 2
USER: ADFR SOLUTION from run 152
USER: SCORE 19.532048 LL:  -1.831 LR: -18.607 RR:   0.000 FEB: -13.835
USER: RMSD 4.100476
USER: SEED 151
USER: STATUS no improvement in best in 7 clusters for 5 generations
USER: GENES 18
USER: genes 0 Translation |==|  0.47481 0.45656 0.52817
USER: genes 1 Rotation |==|  0.39592 0.47454 0.57855 0.98203
USER: genes 2 Torsion [N]-C--CA-[N] |==|  0.48703
USER: genes 3 Torsion [C]-CA--CB-[CG] |==|  0.47261
USER: genes 4 Torsion [CA]-CB--CG-[CD] |==|  0.53131
USER: genes 5 Torsion [CB]-CG--CD-[NE] |==|  0.74475
USER: genes 6 Torsion [CG]-CD--NE-[CZ] |==|  0.75838
USER: genes 7 Torsion [C]-CA--N-[C] |==|  0.19725
USER: genes 8 Torsion [N]-C--CA-[N] |==|  0.37630
USER: genes 9 Torsion [C]-CA--CB-[CG2] |==|  0.57694
USER: genes 10 Torsion [C]-CA--N-[H3] |==|  0.55965
USER: genes 11 Torsion [N]-CA--C-[O] |==|  0.13560
USER: genes 12 Torsion [C]-N--CA-[C] |==|  0.61682
USER: genes 13 Torsion [N]-CA--CB-[CG] |==|  0.70722
USER: genes 14 Torsion [CA]-CB--CG-[CD] |==|  0.25430
USER: genes 15 Torsion [CB]-CG--CD-[NE] |==|  0.58797
USER: genes 16 Torsion [CG]-CD--NE-[HE] |==|  0.20361
USER: genes 17 Torsion [N]-CA--C-[O] |==|  0.61947
ROOT
ATOM      1  C   ARG L   2     -23.459   7.031 -40.959  1.00 28.86 LIG 0.24  C 
ATOM      2 O    ARG L   2     -22.911   8.123 -41.014  1.00 28.60 LIG-0.27  OA
ATOM      3  N   PRO L   3     -23.487   6.293 -39.847  1.00 31.50 LIG-0.34  N 
ATOM      4  CA  PRO L   3     -22.928   6.800 -38.592  1.00 28.56 LIG 0.18  C 
ATOM      5  CB  PRO L   3     -23.541   5.868 -37.548  1.00 31.15 LIG 0.04  C 
ATOM      6  CG  PRO L   3     -23.710   4.584 -38.266  1.00 34.79 LIG 0.02  C 
ATOM      7  CD  PRO L   3     -24.045   4.939 -39.691  1.00 34.83 LIG 0.13  C 
ENDROOT
BRANCH 1 8
ATOM      8  CA  ARG L   2     -24.146   6.463 -42.184  1.00 35.60 LIG 0.18  C 
BRANCH 8 9
ATOM      9  CB  ARG L   2     -23.437   5.179 -42.609  1.00 35.35 LIG 0.04  C 
BRANCH 9 10
ATOM     10  CG  ARG L   2     -24.180   4.403 -43.677  1.00 43.75 LIG 0.02  C 
BRANCH 10 11
ATOM     11  CD  ARG L   2     -23.595   3.009 -43.876  1.00 55.75 LIG 0.14  C 
BRANCH 11 12
ATOM     12  NE  ARG L   2     -22.570   2.966 -44.917  1.00 59.77 LIG-0.23  N 
ATOM     13 HE   ARG L   2     -21.752   3.066 -44.672  1.00 59.77 LIG 0.18  HD
ATOM     14  CZ  ARG L   2     -22.805   2.785 -46.216  1.00 59.01 LIG 0.67  C 
ATOM     15  NH2 ARG L   2     -21.786   2.767 -47.067  1.00 68.00 LIG-0.23  N 
ATOM     16  NH1 ARG L   2     -24.043   2.630 -46.673  1.00 46.29 LIG-0.23  N 
ATOM     17 1HH2 ARG L   2     -20.982   2.873 -46.779  1.00 68.00 LIG 0.17  HD
ATOM     18 2HH2 ARG L   2     -21.929   2.651 -47.907  1.00 68.00 LIG 0.17  HD
ATOM     19 1HH1 ARG L   2     -24.708   2.646 -46.128  1.00 46.29 LIG 0.17  HD
ATOM     20 2HH1 ARG L   2     -24.179   2.514 -47.514  1.00 46.29 LIG 0.17  HD
ENDBRANCH 11 12
ENDBRANCH 10 11
ENDBRANCH 9 10
ENDBRANCH 8 9
BRANCH 8 21
ATOM     21  N   ARG L   2     -24.106   7.450 -43.252  1.00 36.06 LIG-0.35  N 
ATOM     22  C   VAL L   1     -22.975   7.755 -43.879  1.00 46.58 LIG 0.25  C 
ATOM     23 O    VAL L   1     -21.900   7.225 -43.609  1.00 52.05 LIG-0.27  OA
ATOM     24 H    ARG L   2     -24.866   7.808 -43.432  1.00 36.06 LIG 0.16  HD
BRANCH 22 25
ATOM     25  CA  VAL L   1     -23.067   8.812 -44.973  1.00 44.00 LIG 0.28  C 
BRANCH 25 26
ATOM     26  CB  VAL L   1     -23.056   8.110 -46.339  1.00 44.54 LIG 0.02  C 
ATOM     27  CG2 VAL L   1     -22.472   9.031 -47.409  1.00 44.46 LIG 0.01  C 
ATOM     28  CG1 VAL L   1     -24.458   7.658 -46.711  1.00 39.43 LIG 0.01  C 
ENDBRANCH 25 26
BRANCH 25 29
ATOM     29  N   VAL L   1     -21.947   9.790 -44.863  1.00 43.15 LIG-0.07  N 
ATOM     30 H3   VAL L   1     -22.170  10.545 -45.280  1.00 43.15 LIG 0.28  HD
ATOM     31 H2   VAL L   1     -21.217   9.448 -45.240  1.00 43.15 LIG 0.28  HD
ATOM     32 H1   VAL L   1     -21.786   9.962 -44.005  1.00 43.15 LIG 0.28  HD
ENDBRANCH 25 29
ENDBRANCH 22 25
ENDBRANCH 8 21
ENDBRANCH 1 8
BRANCH 4 33
ATOM     33  C   PRO L   3     -21.412   6.696 -38.538  1.00 21.59 LIG 0.24  C 
ATOM     34 O    PRO L   3     -20.734   7.105 -39.487  1.00 24.79 LIG-0.27  OA
ATOM     35  N   ARG L   4     -20.905   6.125 -37.448  1.00 21.43 LIG-0.35  N 
ATOM     36 H    ARG L   4     -21.387   5.873 -36.782  1.00 21.43 LIG 0.16  HD
BRANCH 35 37
ATOM     37  CA  ARG L   4     -19.487   5.871 -37.274  1.00 26.28 LIG 0.16  C 
BRANCH 37 38
ATOM     38  CB  ARG L   4     -18.867   6.962 -36.400  1.00 29.57 LIG 0.04  C 
BRANCH 38 39
ATOM     39  CG  ARG L   4     -18.033   7.944 -37.199  1.00 30.64 LIG 0.02  C 
BRANCH 39 40
ATOM     40  CD  ARG L   4     -18.836   9.144 -37.674  1.00 33.05 LIG 0.14  C 
BRANCH 40 41
ATOM     41  NE  ARG L   4     -18.336   9.645 -38.950  1.00 22.53 LIG-0.23  N 
ATOM     42 HE   ARG L   4     -18.502   9.180 -39.654  1.00 22.53 LIG 0.18  HD
ATOM     43  CZ  ARG L   4     -17.644  10.764 -39.101  1.00 22.76 LIG 0.67  C 
ATOM     44  NH2 ARG L   4     -17.224  11.123 -40.303  1.00 22.03 LIG-0.23  N 
ATOM     45  NH1 ARG L   4     -17.359  11.523 -38.050  1.00 22.99 LIG-0.23  N 
ATOM     46 2HH2 ARG L   4     -16.775  11.849 -40.402  1.00 22.03 LIG 0.17  HD
ATOM     47 1HH2 ARG L   4     -17.400  10.630 -40.985  1.00 22.03 LIG 0.17  HD
ATOM     48 1HH1 ARG L   4     -17.624  11.289 -37.266  1.00 22.99 LIG 0.17  HD
ATOM     49 2HH1 ARG L   4     -16.910  12.249 -38.153  1.00 22.99 LIG 0.17  HD
ENDBRANCH 40 41
ENDBRANCH 39 40
ENDBRANCH 38 39
ENDBRANCH 37 38
BRANCH 37 50
ATOM     50  C   ARG L   4     -19.245   4.495 -36.658  1.00 33.78 LIG 0.22  C 
ATOM     51 O    ARG L   4     -18.411   4.344 -35.765  1.00 23.95 LIG-0.29  OA
ENDBRANCH 37 50
ENDBRANCH 35 37
ENDBRANCH 4 33
TORSDOF 16
ENDMDL
MODEL 3
USER: ADFR SOLUTION from run 106
USER: SCORE 20.209245 LL:  -2.304 LR: -18.362 RR:   0.000 FEB: -13.589
USER: RMSD 5.222123
USER: SEED 105
USER: STATUS no improvement in best in 4 clusters for 5 generations
USER: GENES 18
USER: genes 0 Translation |==|  0.45085 0.48134 0.56249
USER: genes 1 Rotation |==|  0.54336 0.47015 0.62862 0.98030
USER: genes 2 Torsion [N]-C--CA-[N] |==|  0.83174
USER: genes 3 Torsion [C]-CA--CB-[CG] |==|  0.11015
USER: genes 4 Torsion [CA]-CB--CG-[CD] |==|  0.57076
USER: genes 5 Torsion [CB]-CG--CD-[NE] |==|  0.21520
USER: genes 6 Torsion [CG]-CD--NE-[CZ] |==|  0.35388
USER: genes 7 Torsion [C]-CA--N-[C] |==|  0.72042
USER: genes 8 Torsion [N]-C--CA-[N] |==|  0.70036
USER: genes 9 Torsion [C]-CA--CB-[CG2] |==|  0.75514
USER: genes 10 Torsion [C]-CA--N-[H3] |==|  0.09872
USER: genes 11 Torsion [N]-CA--C-[O] |==|  0.02494
USER: genes 12 Torsion [C]-N--CA-[C] |==|  0.66749
USER: genes 13 Torsion [N]-CA--CB-[CG] |==|  0.67019
USER: genes 14 Torsion [CA]-CB--CG-[CD] |==|  0.20845
USER: genes 15 Torsion [CB]-CG--CD-[NE] |==|  0.61890
USER: genes 16 Torsion [CG]-CD--NE-[HE] |==|  0.25779
USER: genes 17 Torsion [N]-CA--C-[O] |==|  0.79607
ROOT
ATOM      1  C   ARG L   2     -23.980   7.440 -40.264  1.00 28.86 LIG 0.24  C 
ATOM      2 O    ARG L   2     -23.661   8.498 -39.740  1.00 28.60 LIG-0.27  OA
ATOM      3  N   PRO L   3     -23.676   6.253 -39.735  1.00 31.50 LIG-0.34  N 
ATOM      4  CA  PRO L   3     -23.010   6.155 -38.436  1.00 28.56 LIG 0.18  C 
ATOM      5  CB  PRO L   3     -23.248   4.698 -38.041  1.00 31.15 LIG 0.04  C 
ATOM      6  CG  PRO L   3     -23.301   3.980 -39.335  1.00 34.79 LIG 0.02  C 
ATOM      7  CD  PRO L   3     -23.940   4.925 -40.317  1.00 34.83 LIG 0.13  C 
ENDROOT
BRANCH 1 8
ATOM      8  CA  ARG L   2     -24.755   7.440 -41.567  1.00 35.60 LIG 0.18  C 
BRANCH 8 9
ATOM      9  CB  ARG L   2     -26.095   6.742 -41.356  1.00 35.35 LIG 0.04  C 
BRANCH 9 10
ATOM     10  CG  ARG L   2     -26.745   7.069 -40.028  1.00 43.75 LIG 0.02  C 
BRANCH 10 11
ATOM     11  CD  ARG L   2     -27.688   5.961 -39.569  1.00 55.75 LIG 0.14  C 
BRANCH 11 12
ATOM     12  NE  ARG L   2     -26.982   4.810 -39.008  1.00 59.77 LIG-0.23  N 
ATOM     13 HE   ARG L   2     -26.358   4.457 -39.484  1.00 59.77 LIG 0.18  HD
ATOM     14  CZ  ARG L   2     -27.231   4.265 -37.819  1.00 59.01 LIG 0.67  C 
ATOM     15  NH2 ARG L   2     -26.521   3.215 -37.420  1.00 68.00 LIG-0.23  N 
ATOM     16  NH1 ARG L   2     -28.184   4.748 -37.029  1.00 46.29 LIG-0.23  N 
ATOM     17 1HH2 ARG L   2     -25.907   2.893 -37.929  1.00 68.00 LIG 0.17  HD
ATOM     18 2HH2 ARG L   2     -26.675   2.857 -36.654  1.00 68.00 LIG 0.17  HD
ATOM     19 1HH1 ARG L   2     -28.652   5.423 -37.283  1.00 46.29 LIG 0.17  HD
ATOM     20 2HH1 ARG L   2     -28.333   4.385 -36.264  1.00 46.29 LIG 0.17  HD
ENDBRANCH 11 12
ENDBRANCH 10 11
ENDBRANCH 9 10
ENDBRANCH 8 9
BRANCH 8 21
ATOM     21  N   ARG L   2     -23.972   6.756 -42.584  1.00 36.06 LIG-0.35  N 
ATOM     22  C   VAL L   1     -23.272   7.424 -43.495  1.00 46.58 LIG 0.25  C 
ATOM     23 O    VAL L   1     -23.232   8.651 -43.534  1.00 52.05 LIG-0.27  OA
ATOM     24 H    ARG L   2     -24.006   5.898 -42.540  1.00 36.06 LIG 0.16  HD
BRANCH 22 25
ATOM     25  CA  VAL L   1     -22.502   6.588 -44.509  1.00 44.00 LIG 0.28  C 
BRANCH 25 26
ATOM     26  CB  VAL L   1     -23.016   5.143 -44.450  1.00 44.54 LIG 0.02  C 
ATOM     27  CG2 VAL L   1     -22.246   4.344 -43.399  1.00 44.46 LIG 0.01  C 
ATOM     28  CG1 VAL L   1     -22.914   4.490 -45.818  1.00 39.43 LIG 0.01  C 
ENDBRANCH 25 26
BRANCH 25 29
ATOM     29  N   VAL L   1     -21.036   6.648 -44.243  1.00 43.15 LIG-0.07  N 
ATOM     30 H3   VAL L   1     -20.894   6.683 -43.365  1.00 43.15 LIG 0.28  HD
ATOM     31 H2   VAL L   1     -20.694   7.374 -44.628  1.00 43.15 LIG 0.28  HD
ATOM     32 H1   VAL L   1     -20.644   5.923 -44.578  1.00 43.15 LIG 0.28  HD
ENDBRANCH 25 29
ENDBRANCH 22 25
ENDBRANCH 8 21
ENDBRANCH 1 8
BRANCH 4 33
ATOM     33  C   PRO L   3     -21.515   6.421 -38.519  1.00 21.59 LIG 0.24  C 
ATOM     34 O    PRO L   3     -21.024   6.845 -39.570  1.00 24.79 LIG-0.27  OA
ATOM     35  N   ARG L   4     -20.811   6.139 -37.426  1.00 21.43 LIG-0.35  N 
ATOM     36 H    ARG L   4     -21.170   5.873 -36.691  1.00 21.43 LIG 0.16  HD
BRANCH 35 37
ATOM     37  CA  ARG L   4     -19.366   6.253 -37.363  1.00 26.28 LIG 0.16  C 
BRANCH 37 38
ATOM     38  CB  ARG L   4     -18.972   7.298 -36.319  1.00 29.57 LIG 0.04  C 
BRANCH 38 39
ATOM     39  CG  ARG L   4     -18.203   8.460 -36.918  1.00 30.64 LIG 0.02  C 
BRANCH 39 40
ATOM     40  CD  ARG L   4     -19.096   9.413 -37.696  1.00 33.05 LIG 0.14  C 
BRANCH 40 41
ATOM     41  NE  ARG L   4     -18.470   9.820 -38.950  1.00 22.53 LIG-0.23  N 
ATOM     42 HE   ARG L   4     -18.652   9.361 -39.654  1.00 22.53 LIG 0.18  HD
ATOM     43  CZ  ARG L   4     -17.642  10.845 -39.080  1.00 22.76 LIG 0.67  C 
ATOM     44  NH2 ARG L   4     -17.117  11.123 -40.262  1.00 22.03 LIG-0.23  N 
ATOM     45  NH1 ARG L   4     -17.328  11.590 -38.028  1.00 22.99 LIG-0.23  N 
ATOM     46 2HH2 ARG L   4     -16.580  11.789 -40.348  1.00 22.03 LIG 0.17  HD
ATOM     47 1HH2 ARG L   4     -17.314  10.638 -40.945  1.00 22.03 LIG 0.17  HD
ATOM     48 1HH1 ARG L   4     -17.661  11.408 -37.256  1.00 22.99 LIG 0.17  HD
ATOM     49 2HH1 ARG L   4     -16.790  12.255 -38.118  1.00 22.99 LIG 0.17  HD
ENDBRANCH 40 41
ENDBRANCH 39 40
ENDBRANCH 38 39
ENDBRANCH 37 38
BRANCH 37 50
ATOM     50  C   ARG L   4     -18.720   4.907 -37.039  1.00 33.78 LIG 0.22  C 
ATOM     51 O    ARG L   4     -18.787   4.435 -35.904  1.00 23.95 LIG-0.29  OA
ENDBRANCH 37 50
ENDBRANCH 35 37
ENDBRANCH 4 33
TORSDOF 16
ENDMDL
MODEL 4
USER: ADFR SOLUTION from run 184
USER: SCORE 19.809502 LL:  -2.260 LR: -17.839 RR:   0.000 FEB: -13.066
USER: RMSD 1.721620
USER: SEED 183
USER: STATUS no improvement in best in 5 clusters for 5 generations
USER: GENES 18
USER: genes 0 Translation |==|  0.47046 0.46974 0.56462
USER: genes 1 Rotation |==|  0.47779 0.50166 0.51200 0.99936
USER: genes 2 Torsion [N]-C--CA-[N] |==|  0.30151
USER: genes 3 Torsion [C]-CA--CB-[CG] |==|  0.11273
USER: genes 4 Torsion [CA]-CB--CG-[CD] |==|  0.16022
USER: genes 5 Torsion [CB]-CG--CD-[NE] |==|  0.30911
USER: genes 6 Torsion [CG]-CD--NE-[CZ] |==|  0.62694
USER: genes 7 Torsion [C]-CA--N-[C] |==|  0.65890
USER: genes 8 Torsion [N]-C--CA-[N] |==|  0.49316
USER: genes 9 Torsion [C]-CA--CB-[CG2] |==|  0.69503
USER: genes 10 Torsion [C]-CA--N-[H3] |==|  0.13814
USER: genes 11 Torsion [N]-CA--C-[O] |==|  0.94478
USER: genes 12 Torsion [C]-N--CA-[C] |==|  0.72780
USER: genes 13 Torsion [N]-CA--CB-[CG] |==|  0.86706
USER: genes 14 Torsion [CA]-CB--CG-[CD] |==|  0.64692
USER: genes 15 Torsion [CB]-CG--CD-[NE] |==|  0.42988
USER: genes 16 Torsion [CG]-CD--NE-[HE] |==|  0.85978
USER: genes 17 Torsion [N]-CA--C-[O] |==|  0.65787
ROOT
ATOM      1  C   ARG L   2     -23.554   7.249 -40.220  1.00 28.86 LIG 0.24  C 
ATOM      2 O    ARG L   2     -22.722   8.123 -40.020  1.00 28.60 LIG-0.27  OA
ATOM      3  N   PRO L   3     -23.726   6.214 -39.394  1.00 31.50 LIG-0.34  N 
ATOM      4  CA  PRO L   3     -22.977   6.118 -38.141  1.00 28.56 LIG 0.18  C 
ATOM      5  CB  PRO L   3     -23.768   5.076 -37.352  1.00 31.15 LIG 0.04  C 
ATOM      6  CG  PRO L   3     -24.335   4.190 -38.395  1.00 34.79 LIG 0.02  C 
ATOM      7  CD  PRO L   3     -24.636   5.070 -39.578  1.00 34.83 LIG 0.13  C 
ENDROOT
BRANCH 1 8
ATOM      8  CA  ARG L   2     -24.442   7.312 -41.447  1.00 35.60 LIG 0.18  C 
BRANCH 8 9
ATOM      9  CB  ARG L   2     -23.579   7.548 -42.683  1.00 35.35 LIG 0.04  C 
BRANCH 9 10
ATOM     10  CG  ARG L   2     -22.286   6.759 -42.677  1.00 43.75 LIG 0.02  C 
BRANCH 10 11
ATOM     11  CD  ARG L   2     -22.536   5.260 -42.561  1.00 55.75 LIG 0.14  C 
BRANCH 11 12
ATOM     12  NE  ARG L   2     -22.195   4.530 -43.781  1.00 59.77 LIG-0.23  N 
ATOM     13 HE   ARG L   2     -21.446   4.718 -44.159  1.00 59.77 LIG 0.18  HD
ATOM     14  CZ  ARG L   2     -22.955   3.596 -44.352  1.00 59.01 LIG 0.67  C 
ATOM     15  NH2 ARG L   2     -22.536   3.005 -45.465  1.00 68.00 LIG-0.23  N 
ATOM     16  NH1 ARG L   2     -24.129   3.255 -43.831  1.00 46.29 LIG-0.23  N 
ATOM     17 1HH2 ARG L   2     -21.780   3.225 -45.811  1.00 68.00 LIG 0.17  HD
ATOM     18 2HH2 ARG L   2     -23.020   2.401 -45.840  1.00 68.00 LIG 0.17  HD
ATOM     19 1HH1 ARG L   2     -24.409   3.638 -43.114  1.00 46.29 LIG 0.17  HD
ATOM     20 2HH1 ARG L   2     -24.608   2.651 -44.211  1.00 46.29 LIG 0.17  HD
ENDBRANCH 11 12
ENDBRANCH 10 11
ENDBRANCH 9 10
ENDBRANCH 8 9
BRANCH 8 21
ATOM     21  N   ARG L   2     -25.406   8.388 -41.280  1.00 36.06 LIG-0.35  N 
ATOM     22  C   VAL L   1     -26.715   8.169 -41.339  1.00 46.58 LIG 0.25  C 
ATOM     23 O    VAL L   1     -27.196   7.054 -41.529  1.00 52.05 LIG-0.27  OA
ATOM     24 H    ARG L   2     -25.055   9.160 -41.142  1.00 36.06 LIG 0.16  HD
BRANCH 22 25
ATOM     25  CA  VAL L   1     -27.618   9.383 -41.155  1.00 44.00 LIG 0.28  C 
BRANCH 25 26
ATOM     26  CB  VAL L   1     -27.347   9.994 -39.773  1.00 44.54 LIG 0.02  C 
ATOM     27  CG2 VAL L   1     -28.536   9.761 -38.843  1.00 44.46 LIG 0.01  C 
ATOM     28  CG1 VAL L   1     -27.036  11.475 -39.904  1.00 39.43 LIG 0.01  C 
ENDBRANCH 25 26
BRANCH 25 29
ATOM     29  N   VAL L   1     -29.053   9.005 -41.304  1.00 43.15 LIG-0.07  N 
ATOM     30 H3   VAL L   1     -29.228   8.295 -40.796  1.00 43.15 LIG 0.28  HD
ATOM     31 H2   VAL L   1     -29.222   8.810 -42.155  1.00 43.15 LIG 0.28  HD
ATOM     32 H1   VAL L   1     -29.567   9.685 -41.048  1.00 43.15 LIG 0.28  HD
ENDBRANCH 25 29
ENDBRANCH 22 25
ENDBRANCH 8 21
ENDBRANCH 1 8
BRANCH 4 33
ATOM     33  C   PRO L   3     -21.551   5.627 -38.344  1.00 21.59 LIG 0.24  C 
ATOM     34 O    PRO L   3     -21.251   5.020 -39.377  1.00 24.79 LIG-0.27  OA
ATOM     35  N   ARG L   4     -20.705   5.868 -37.346  1.00 21.43 LIG-0.35  N 
ATOM     36 H    ARG L   4     -20.919   6.319 -36.645  1.00 21.43 LIG 0.16  HD
BRANCH 35 37
ATOM     37  CA  ARG L   4     -19.333   5.395 -37.339  1.00 26.28 LIG 0.16  C 
BRANCH 37 38
ATOM     38  CB  ARG L   4     -18.411   6.481 -36.783  1.00 29.57 LIG 0.04  C 
BRANCH 38 39
ATOM     39  CG  ARG L   4     -18.665   7.837 -37.411  1.00 30.64 LIG 0.02  C 
BRANCH 39 40
ATOM     40  CD  ARG L   4     -17.400   8.468 -37.972  1.00 33.05 LIG 0.14  C 
BRANCH 40 41
ATOM     41  NE  ARG L   4     -17.709   9.412 -39.041  1.00 22.53 LIG-0.23  N 
ATOM     42 HE   ARG L   4     -18.225   9.143 -39.674  1.00 22.53 LIG 0.18  HD
ATOM     43  CZ  ARG L   4     -17.252  10.653 -39.104  1.00 22.76 LIG 0.67  C 
ATOM     44  NH2 ARG L   4     -17.582  11.427 -40.126  1.00 22.03 LIG-0.23  N 
ATOM     45  NH1 ARG L   4     -16.453  11.123 -38.154  1.00 22.99 LIG-0.23  N 
ATOM     46 2HH2 ARG L   4     -17.286  12.233 -40.168  1.00 22.03 LIG 0.17  HD
ATOM     47 1HH2 ARG L   4     -18.094  11.123 -40.747  1.00 22.03 LIG 0.17  HD
ATOM     48 1HH1 ARG L   4     -16.231  10.621 -37.492  1.00 22.99 LIG 0.17  HD
ATOM     49 2HH1 ARG L   4     -16.159  11.930 -38.200  1.00 22.99 LIG 0.17  HD
ENDBRANCH 40 41
ENDBRANCH 39 40
ENDBRANCH 38 39
ENDBRANCH 37 38
BRANCH 37 50
ATOM     50  C   ARG L   4     -19.196   4.111 -36.522  1.00 33.78 LIG 0.22  C 
ATOM     51 O    ARG L   4     -18.411   4.049 -35.576  1.00 23.95 LIG-0.29  OA
ENDBRANCH 37 50
ENDBRANCH 35 37
ENDBRANCH 4 33
TORSDOF 16
ENDMDL
MODEL 5
USER: ADFR SOLUTION from run 176
USER: SCORE 19.232691 LL:  -1.827 LR: -17.651 RR:   0.000 FEB: -12.878
USER: RMSD 7.821750
USER: SEED 175
USER: STATUS no improvement in best in 1 clusters for 5 generations
USER: GENES 18
USER: genes 0 Translation |==|  0.53109 0.47719 0.53919
USER: genes 1 Rotation |==|  0.88789 0.68630 0.27124 0.61182
USER: genes 2 Torsion [N]-C--CA-[N] |==|  0.15980
USER: genes 3 Torsion [C]-CA--CB-[CG] |==|  0.51924
USER: genes 4 Torsion [CA]-CB--CG-[CD] |==|  0.73355
USER: genes 5 Torsion [CB]-CG--CD-[NE] |==|  0.89486
USER: genes 6 Torsion [CG]-CD--NE-[CZ] |==|  0.52938
USER: genes 7 Torsion [C]-CA--N-[C] |==|  0.14610
USER: genes 8 Torsion [N]-C--CA-[N] |==|  0.01647
USER: genes 9 Torsion [C]-CA--CB-[CG2] |==|  0.73407
USER: genes 10 Torsion [C]-CA--N-[H3] |==|  0.37837
USER: genes 11 Torsion [N]-CA--C-[O] |==|  0.86861
USER: genes 12 Torsion [C]-N--CA-[C] |==|  0.58150
USER: genes 13 Torsion [N]-CA--CB-[CG] |==|  0.38767
USER: genes 14 Torsion [CA]-CB--CG-[CD] |==|  0.28254
USER: genes 15 Torsion [CB]-CG--CD-[NE] |==|  0.05618
USER: genes 16 Torsion [CG]-CD--NE-[HE] |==|  0.88871
USER: genes 17 Torsion [N]-CA--C-[O] |==|  0.42032
ROOT
ATOM      1  C   ARG L   2     -22.235   7.372 -40.735  1.00 28.86 LIG 0.24  C 
ATOM      2 O    ARG L   2     -21.488   6.998 -41.628  1.00 28.60 LIG-0.27  OA
ATOM      3  N   PRO L   3     -23.557   7.465 -40.893  1.00 31.50 LIG-0.34  N 
ATOM      4  CA  PRO L   3     -24.200   7.035 -42.135  1.00 28.56 LIG 0.18  C 
ATOM      5  CB  PRO L   3     -25.668   6.908 -41.731  1.00 31.15 LIG 0.04  C 
ATOM      6  CG  PRO L   3     -25.838   7.929 -40.672  1.00 34.79 LIG 0.02  C 
ATOM      7  CD  PRO L   3     -24.536   7.975 -39.917  1.00 34.83 LIG 0.13  C 
ENDROOT
BRANCH 1 8
ATOM      8  CA  ARG L   2     -21.670   7.751 -39.381  1.00 35.60 LIG 0.18  C 
BRANCH 8 9
ATOM      9  CB  ARG L   2     -20.157   7.547 -39.391  1.00 35.35 LIG 0.04  C 
BRANCH 9 10
ATOM     10  CG  ARG L   2     -19.513   7.739 -38.034  1.00 43.75 LIG 0.02  C 
BRANCH 10 11
ATOM     11  CD  ARG L   2     -18.958   9.149 -37.864  1.00 55.75 LIG 0.14  C 
BRANCH 11 12
ATOM     12  NE  ARG L   2     -18.358   9.677 -39.088  1.00 59.77 LIG-0.23  N 
ATOM     13 HE   ARG L   2     -18.486   9.234 -39.814  1.00 59.77 LIG 0.18  HD
ATOM     14  CZ  ARG L   2     -17.630  10.789 -39.167  1.00 59.01 LIG 0.67  C 
ATOM     15  NH2 ARG L   2     -17.135  11.164 -40.341  1.00 68.00 LIG-0.23  N 
ATOM     16  NH1 ARG L   2     -17.383  11.524 -38.088  1.00 46.29 LIG-0.23  N 
ATOM     17 1HH2 ARG L   2     -17.286  10.690 -41.043  1.00 68.00 LIG 0.17  HD
ATOM     18 2HH2 ARG L   2     -16.664  11.881 -40.401  1.00 68.00 LIG 0.17  HD
ATOM     19 1HH1 ARG L   2     -17.695  11.284 -37.323  1.00 46.29 LIG 0.17  HD
ATOM     20 2HH1 ARG L   2     -16.911  12.239 -38.154  1.00 46.29 LIG 0.17  HD
ENDBRANCH 11 12
ENDBRANCH 10 11
ENDBRANCH 9 10
ENDBRANCH 8 9
BRANCH 8 21
ATOM     21  N   ARG L   2     -22.294   6.926 -38.358  1.00 36.06 LIG-0.35  N 
ATOM     22  C   VAL L   1     -22.317   5.601 -38.448  1.00 46.58 LIG 0.25  C 
ATOM     23 O    VAL L   1     -21.812   4.988 -39.386  1.00 52.05 LIG-0.27  OA
ATOM     24 H    ARG L   2     -22.638   7.368 -37.707  1.00 36.06 LIG 0.16  HD
BRANCH 22 25
ATOM     25  CA  VAL L   1     -23.008   4.853 -37.315  1.00 44.00 LIG 0.28  C 
BRANCH 25 26
ATOM     26  CB  VAL L   1     -24.032   3.881 -37.917  1.00 44.54 LIG 0.02  C 
ATOM     27  CG2 VAL L   1     -25.424   4.514 -37.935  1.00 44.46 LIG 0.01  C 
ATOM     28  CG1 VAL L   1     -24.036   2.573 -37.146  1.00 39.43 LIG 0.01  C 
ENDBRANCH 25 26
BRANCH 25 29
ATOM     29  N   VAL L   1     -23.661   5.805 -36.371  1.00 43.15 LIG-0.07  N 
ATOM     30 H3   VAL L   1     -24.473   5.505 -36.160  1.00 43.15 LIG 0.28  HD
ATOM     31 H2   VAL L   1     -23.731   6.604 -36.756  1.00 43.15 LIG 0.28  HD
ATOM     32 H1   VAL L   1     -23.170   5.874 -35.632  1.00 43.15 LIG 0.28  HD
ENDBRANCH 25 29
ENDBRANCH 22 25
ENDBRANCH 8 21
ENDBRANCH 1 8
BRANCH 4 33
ATOM     33  C   PRO L   3     -24.066   8.058 -43.252  1.00 21.59 LIG 0.24  C 
ATOM     34 O    PRO L   3     -24.312   9.248 -43.028  1.00 24.79 LIG-0.27  OA
ATOM     35  N   ARG L   4     -23.711   7.579 -44.441  1.00 21.43 LIG-0.35  N 
ATOM     36 H    ARG L   4     -23.513   6.753 -44.576  1.00 21.43 LIG 0.16  HD
BRANCH 35 37
ATOM     37  CA  ARG L   4     -23.620   8.403 -45.633  1.00 26.28 LIG 0.16  C 
BRANCH 37 38
ATOM     38  CB  ARG L   4     -22.234   9.042 -45.718  1.00 29.57 LIG 0.04  C 
BRANCH 38 39
ATOM     39  CG  ARG L   4     -21.684   9.053 -47.131  1.00 30.64 LIG 0.02  C 
BRANCH 39 40
ATOM     40  CD  ARG L   4     -21.814  10.413 -47.799  1.00 33.05 LIG 0.14  C 
BRANCH 40 41
ATOM     41  NE  ARG L   4     -21.984  11.473 -46.811  1.00 22.53 LIG-0.23  N 
ATOM     42 HE   ARG L   4     -22.489  11.312 -46.134  1.00 22.53 LIG 0.18  HD
ATOM     43  CZ  ARG L   4     -21.413  12.667 -46.882  1.00 22.76 LIG 0.67  C 
ATOM     44  NH2 ARG L   4     -21.643  13.565 -45.938  1.00 22.03 LIG-0.23  N 
ATOM     45  NH1 ARG L   4     -20.622  12.971 -47.903  1.00 22.99 LIG-0.23  N 
ATOM     46 2HH2 ARG L   4     -21.273  14.340 -45.983  1.00 22.03 LIG 0.17  HD
ATOM     47 1HH2 ARG L   4     -22.161  13.373 -45.279  1.00 22.03 LIG 0.17  HD
ATOM     48 1HH1 ARG L   4     -20.476  12.393 -48.522  1.00 22.99 LIG 0.17  HD
ATOM     49 2HH1 ARG L   4     -20.254  13.748 -47.944  1.00 22.99 LIG 0.17  HD
ENDBRANCH 40 41
ENDBRANCH 39 40
ENDBRANCH 38 39
ENDBRANCH 37 38
BRANCH 37 50
ATOM     50  C   ARG L   4     -23.910   7.588 -46.891  1.00 33.78 LIG 0.22  C 
ATOM     51 O    ARG L   4     -24.393   8.123 -47.889  1.00 23.95 LIG-0.29  OA
ENDBRANCH 37 50
ENDBRANCH 35 37
ENDBRANCH 4 33
TORSDOF 16
ENDMDL
MODEL 6
USER: ADFR SOLUTION from run 166
USER: SCORE 19.203750 LL:  -2.156 LR: -17.528 RR:   0.000 FEB: -12.755
USER: RMSD 4.690486
USER: SEED 165
USER: STATUS no improvement in best in 4 clusters for 5 generations
USER: GENES 18
USER: genes 0 Translation |==|  0.44180 0.48711 0.57450
USER: genes 1 Rotation |==|  0.57622 0.47504 0.60996 0.98112
USER: genes 2 Torsion [N]-C--CA-[N] |==|  0.82227
USER: genes 3 Torsion [C]-CA--CB-[CG] |==|  0.23435
USER: genes 4 Torsion [CA]-CB--CG-[CD] |==|  0.19660
USER: genes 5 Torsion [CB]-CG--CD-[NE] |==|  0.75457
USER: genes 6 Torsion [CG]-CD--NE-[CZ] |==|  0.67393
USER: genes 7 Torsion [C]-CA--N-[C] |==|  0.71111
USER: genes 8 Torsion [N]-C--CA-[N] |==|  0.65968
USER: genes 9 Torsion [C]-CA--CB-[CG2] |==|  0.76855
USER: genes 10 Torsion [C]-CA--N-[H3] |==|  0.46146
USER: genes 11 Torsion [N]-CA--C-[O] |==|  0.98285
USER: genes 12 Torsion [C]-N--CA-[C] |==|  0.68272
USER: genes 13 Torsion [N]-CA--CB-[CG] |==|  0.65054
USER: genes 14 Torsion [CA]-CB--CG-[CD] |==|  0.22680
USER: genes 15 Torsion [CB]-CG--CD-[NE] |==|  0.35682
USER: genes 16 Torsion [CG]-CD--NE-[HE] |==|  0.84484
USER: genes 17 Torsion [N]-CA--C-[O] |==|  0.76176
ROOT
ATOM      1  C   ARG L   2     -24.177   7.535 -40.020  1.00 28.86 LIG 0.24  C 
ATOM      2 O    ARG L   2     -23.760   8.497 -39.392  1.00 28.60 LIG-0.27  OA
ATOM      3  N   PRO L   3     -23.924   6.274 -39.662  1.00 31.50 LIG-0.34  N 
ATOM      4  CA  PRO L   3     -23.195   5.973 -38.430  1.00 28.56 LIG 0.18  C 
ATOM      5  CB  PRO L   3     -23.508   4.495 -38.203  1.00 31.15 LIG 0.04  C 
ATOM      6  CG  PRO L   3     -23.679   3.951 -39.570  1.00 34.79 LIG 0.02  C 
ATOM      7  CD  PRO L   3     -24.307   5.049 -40.386  1.00 34.83 LIG 0.13  C 
ENDROOT
BRANCH 1 8
ATOM      8  CA  ARG L   2     -25.020   7.747 -41.262  1.00 35.60 LIG 0.18  C 
BRANCH 8 9
ATOM      9  CB  ARG L   2     -26.360   7.035 -41.089  1.00 35.35 LIG 0.04  C 
BRANCH 9 10
ATOM     10  CG  ARG L   2     -27.387   7.856 -40.337  1.00 43.75 LIG 0.02  C 
BRANCH 10 11
ATOM     11  CD  ARG L   2     -27.891   9.032 -41.167  1.00 55.75 LIG 0.14  C 
BRANCH 11 12
ATOM     12  NE  ARG L   2     -27.073  10.233 -41.006  1.00 59.77 LIG-0.23  N 
ATOM     13 HE   ARG L   2     -26.251  10.189 -41.256  1.00 59.77 LIG 0.18  HD
ATOM     14  CZ  ARG L   2     -27.502  11.389 -40.503  1.00 59.01 LIG 0.67  C 
ATOM     15  NH2 ARG L   2     -26.659  12.411 -40.405  1.00 68.00 LIG-0.23  N 
ATOM     16  NH1 ARG L   2     -28.756  11.533 -40.089  1.00 46.29 LIG-0.23  N 
ATOM     17 1HH2 ARG L   2     -25.844  12.323 -40.665  1.00 68.00 LIG 0.17  HD
ATOM     18 2HH2 ARG L   2     -26.927  13.161 -40.081  1.00 68.00 LIG 0.17  HD
ATOM     19 1HH1 ARG L   2     -29.305  10.875 -40.144  1.00 46.29 LIG 0.17  HD
ATOM     20 2HH1 ARG L   2     -29.018  12.286 -39.767  1.00 46.29 LIG 0.17  HD
ENDBRANCH 11 12
ENDBRANCH 10 11
ENDBRANCH 9 10
ENDBRANCH 8 9
BRANCH 8 21
ATOM     21  N   ARG L   2     -24.306   7.224 -42.416  1.00 36.06 LIG-0.35  N 
ATOM     22  C   VAL L   1     -23.700   8.026 -43.285  1.00 46.58 LIG 0.25  C 
ATOM     23 O    VAL L   1     -23.695   9.249 -43.170  1.00 52.05 LIG-0.27  OA
ATOM     24 H    ARG L   2     -24.314   6.367 -42.480  1.00 36.06 LIG 0.16  HD
BRANCH 22 25
ATOM     25  CA  VAL L   1     -22.993   7.352 -44.455  1.00 44.00 LIG 0.28  C 
BRANCH 25 26
ATOM     26  CB  VAL L   1     -23.167   5.832 -44.327  1.00 44.54 LIG 0.02  C 
ATOM     27  CG2 VAL L   1     -22.119   5.251 -43.378  1.00 44.46 LIG 0.01  C 
ATOM     28  CG1 VAL L   1     -23.091   5.175 -45.695  1.00 39.43 LIG 0.01  C 
ENDBRANCH 25 26
BRANCH 25 29
ATOM     29  N   VAL L   1     -21.550   7.726 -44.491  1.00 43.15 LIG-0.07  N 
ATOM     30 H3   VAL L   1     -21.115   7.179 -45.043  1.00 43.15 LIG 0.28  HD
ATOM     31 H2   VAL L   1     -21.205   7.658 -43.673  1.00 43.15 LIG 0.28  HD
ATOM     32 H1   VAL L   1     -21.468   8.564 -44.779  1.00 43.15 LIG 0.28  HD
ENDBRANCH 25 29
ENDBRANCH 22 25
ENDBRANCH 8 21
ENDBRANCH 1 8
BRANCH 4 33
ATOM     33  C   PRO L   3     -21.693   6.159 -38.574  1.00 21.59 LIG 0.24  C 
ATOM     34 O    PRO L   3     -21.209   6.416 -39.681  1.00 24.79 LIG-0.27  OA
ATOM     35  N   ARG L   4     -20.976   5.996 -37.464  1.00 21.43 LIG-0.35  N 
ATOM     36 H    ARG L   4     -21.329   5.847 -36.694  1.00 21.43 LIG 0.16  HD
BRANCH 35 37
ATOM     37  CA  ARG L   4     -19.526   6.053 -37.442  1.00 26.28 LIG 0.16  C 
BRANCH 37 38
ATOM     38  CB  ARG L   4     -19.063   7.121 -36.451  1.00 29.57 LIG 0.04  C 
BRANCH 38 39
ATOM     39  CG  ARG L   4     -18.125   8.132 -37.080  1.00 30.64 LIG 0.02  C 
BRANCH 39 40
ATOM     40  CD  ARG L   4     -18.863   9.217 -37.849  1.00 33.05 LIG 0.14  C 
BRANCH 40 41
ATOM     41  NE  ARG L   4     -18.428  10.547 -37.435  1.00 22.53 LIG-0.23  N 
ATOM     42 HE   ARG L   4     -18.485  10.743 -36.600  1.00 22.53 LIG 0.18  HD
ATOM     43  CZ  ARG L   4     -17.951  11.472 -38.255  1.00 22.76 LIG 0.67  C 
ATOM     44  NH2 ARG L   4     -17.596  12.654 -37.779  1.00 22.03 LIG-0.23  N 
ATOM     45  NH1 ARG L   4     -17.838  11.223 -39.553  1.00 22.99 LIG-0.23  N 
ATOM     46 2HH2 ARG L   4     -17.286  13.255 -38.310  1.00 22.03 LIG 0.17  HD
ATOM     47 1HH2 ARG L   4     -17.674  12.821 -36.939  1.00 22.03 LIG 0.17  HD
ATOM     48 1HH1 ARG L   4     -18.075  10.458 -39.867  1.00 22.99 LIG 0.17  HD
ATOM     49 2HH1 ARG L   4     -17.528  11.827 -40.081  1.00 22.99 LIG 0.17  HD
ENDBRANCH 40 41
ENDBRANCH 39 40
ENDBRANCH 38 39
ENDBRANCH 37 38
BRANCH 37 50
ATOM     50  C   ARG L   4     -18.926   4.696 -37.081  1.00 33.78 LIG 0.22  C 
ATOM     51 O    ARG L   4     -18.777   4.368 -35.903  1.00 23.95 LIG-0.29  OA
ENDBRANCH 37 50
ENDBRANCH 35 37
ENDBRANCH 4 33
TORSDOF 16
ENDMDL
