MODEL 1
USER: ADFR SOLUTION from run 187
USER: SCORE 23.243597 LL:  -4.571 LR: -19.137 RR:   0.000 FEB: -11.680
USER: RMSD 1.427077
USER: SEED 186
USER: STATUS 1 or 2 clusters left
USER: GENES 27
USER: genes 0 Translation |==|  0.63309 0.54083 0.57594
USER: genes 1 Rotation |==|  0.50593 0.47147 0.50830 0.99908
USER: genes 2 Torsion [N]-CA--C-[N] |==|  0.94285
USER: genes 3 Torsion [C]-N--CA-[C] |==|  0.70811
USER: genes 4 Torsion [N]-CA--CB-[CG] |==|  0.66395
USER: genes 5 Torsion [CA]-CB--CG-[CD] |==|  0.64554
USER: genes 6 Torsion [CB]-CG--CD-[OE2] |==|  0.23173
USER: genes 7 Torsion [N]-CA--C-[N] |==|  0.29795
USER: genes 8 Torsion [C]-N--CA-[C] |==|  0.78565
USER: genes 9 Torsion [N]-CA--C-[N] |==|  0.46471
USER: genes 10 Torsion [C]-N--CA-[C] |==|  0.67551
USER: genes 11 Torsion [N]-CA--C-[OXT] |==|  0.23484
USER: genes 12 Torsion [N]-CA--CB-[CG] |==|  0.82450
USER: genes 13 Torsion [CA]-CB--CG-[OD1] |==|  0.23037
USER: genes 14 Torsion [N]-CA--CB-[CG2] |==|  0.09880
USER: genes 15 Torsion [C]-CA--CB-[CG] |==|  0.47051
USER: genes 16 Torsion [CA]-CB--CG-[CD] |==|  0.86525
USER: genes 17 Torsion [CB]-CG--CD-[OE2] |==|  0.79522
USER: genes 18 Torsion [C]-CA--N-[C] |==|  0.81865
USER: genes 19 Torsion [N]-C--CA-[N] |==|  0.87949
USER: genes 20 Torsion [C]-CA--N-[C] |==|  0.81668
USER: genes 21 Torsion [N]-C--CA-[N] |==|  0.87016
USER: genes 22 Torsion [C]-CA--N-[C] |==|  0.84151
USER: genes 23 Torsion [N]-C--CA-[CB] |==|  0.13249
USER: genes 24 Torsion [C]-CA--CB-[CG2] |==|  0.09382
USER: genes 25 Torsion [CA]-CB--OG1-[HG1] |==|  0.19720
USER: genes 26 Torsion [C]-CA--CB-[CG1] |==|  0.25650
ROOT
ATOM      1  CA  GLU B 653       7.621 -22.126  15.287  1.00 16.59 LIG 0.18  C 
ENDROOT
BRANCH 1 2
ATOM      2  C   GLU B 653       6.823 -22.489  14.018  1.00 17.01 LIG 0.24  C 
ATOM      3 O    GLU B 653       7.403 -22.757  12.947  1.00 18.89 LIG-0.27  OA
ATOM      4  N   GLU B 654       5.508 -22.530  14.142  1.00 17.47 LIG-0.35  N 
ATOM      5 H    GLU B 654       5.099 -22.270  14.852  1.00 17.47 LIG 0.16  HD
BRANCH 4 6
ATOM      6  CA  GLU B 654       4.628 -23.007  13.120  1.00 19.20 LIG 0.18  C 
BRANCH 6 7
ATOM      7  CB  GLU B 654       3.609 -23.956  13.726  1.00 21.36 LIG 0.04  C 
BRANCH 7 8
ATOM      8  CG  GLU B 654       3.650 -25.323  13.119  1.00 25.94 LIG 0.12  C 
BRANCH 8 9
ATOM      9  CD  GLU B 654       2.315 -25.789  12.646  1.00 34.53 LIG 0.17  C 
ATOM     10 OE2  GLU B 654       1.914 -25.425  11.507  1.00 38.43 LIG-0.65  OA
ATOM     11 OE1  GLU B 654       1.668 -26.546  13.425  1.00 40.98 LIG-0.65  OA
ENDBRANCH 8 9
ENDBRANCH 7 8
ENDBRANCH 6 7
BRANCH 6 12
ATOM     12  C   GLU B 654       3.904 -21.879  12.419  1.00 18.66 LIG 0.24  C 
ATOM     13  N   VAL B 655       4.294 -21.593  11.173  1.00 18.37 LIG-0.35  N 
ATOM     14 H    VAL B 655       4.993 -21.931  10.804  1.00 18.37 LIG 0.16  HD
ATOM     15 O    GLU B 654       3.101 -21.208  13.045  1.00 17.95 LIG-0.27  OA
BRANCH 13 16
ATOM     16  CA  VAL B 655       3.552 -20.667  10.315  1.00 18.99 LIG 0.18  C 
BRANCH 16 17
ATOM     17  C   VAL B 655       2.318 -21.406   9.786  1.00 20.12 LIG 0.24  C 
ATOM     18 O    VAL B 655       2.212 -22.635   9.938  1.00 20.44 LIG-0.27  OA
ATOM     19  N   ASP B 656       1.389 -20.650   9.203  1.00 20.60 LIG-0.34  N 
ATOM     20 H    ASP B 656       1.464 -19.800   9.091  1.00 20.60 LIG 0.16  HD
BRANCH 19 21
ATOM     21  CA  ASP B 656       0.130 -21.224   8.692  1.00 22.64 LIG 0.20  C 
BRANCH 21 22
ATOM     22  C   ASP B 656      -0.018 -21.070   7.169  1.00 24.92 LIG 0.20  C 
ATOM     23 OXT  ASP B 656       0.509 -21.918   6.390  1.00 27.50 LIG-0.65  OA
ATOM     24 O    ASP B 656      -0.619 -20.092   6.681  1.00 24.52 LIG-0.65  OA
ENDBRANCH 21 22
BRANCH 21 25
ATOM     25  CB  ASP B 656      -1.024 -20.539   9.406  1.00 22.32 LIG 0.15  C 
BRANCH 25 26
ATOM     26  CG  ASP B 656      -1.008 -20.808  10.907  1.00 24.14 LIG 0.17  C 
ATOM     27 OD1  ASP B 656      -0.279 -20.116  11.650  1.00 27.79 LIG-0.65  OA
ATOM     28 OD2  ASP B 656      -1.771 -21.675  11.361  1.00 21.16 LIG-0.65  OA
ENDBRANCH 25 26
ENDBRANCH 21 25
ENDBRANCH 19 21
ENDBRANCH 16 17
BRANCH 16 29
ATOM     29  CB  VAL B 655       4.349 -20.125   9.125  1.00 17.39 LIG 0.01  C 
ATOM     30  CG2 VAL B 655       5.313 -21.196   8.560  1.00 19.33 LIG 0.01  C 
ATOM     31  CG1 VAL B 655       5.114 -18.800   9.516  1.00 17.58 LIG 0.01  C 
ENDBRANCH 16 29
ENDBRANCH 13 16
ENDBRANCH 6 12
ENDBRANCH 4 6
ENDBRANCH 1 2
BRANCH 1 32
ATOM     32  CB  GLU B 653       8.223 -23.448  15.877  1.00 16.22 LIG 0.04  C 
BRANCH 32 33
ATOM     33  CG  GLU B 653       9.229 -23.227  16.967  1.00 17.46 LIG 0.12  C 
BRANCH 33 34
ATOM     34  CD  GLU B 653      10.314 -22.172  16.610  1.00 17.13 LIG 0.17  C 
ATOM     35 OE1  GLU B 653      10.222 -21.056  17.178  1.00 19.48 LIG-0.65  OA
ATOM     36 OE2  GLU B 653      11.256 -22.425  15.780  1.00 19.36 LIG-0.65  OA
ENDBRANCH 33 34
ENDBRANCH 32 33
ENDBRANCH 1 32
BRANCH 1 37
ATOM     37  N   GLU B 653       6.838 -21.423  16.316  1.00 15.81 LIG-0.35  N 
ATOM     38  C   VAL B 652       6.298 -20.196  16.192  1.00 15.71 LIG 0.24  C 
ATOM     39 O    VAL B 652       6.309 -19.554  15.152  1.00 14.72 LIG-0.27  OA
ATOM     40 H    GLU B 653       6.751 -21.886  17.035  1.00 15.81 LIG 0.16  HD
BRANCH 38 41
ATOM     41  CA  VAL B 652       5.473 -19.655  17.417  1.00 15.41 LIG 0.18  C 
BRANCH 41 42
ATOM     42  N   VAL B 652       4.618 -20.709  17.934  1.00 15.06 LIG-0.35  N 
ATOM     43  C   THR B 651       3.616 -21.190  17.200  1.00 17.05 LIG 0.24  C 
ATOM     44 O    THR B 651       3.475 -20.952  16.007  1.00 16.18 LIG-0.27  OA
ATOM     45 H    VAL B 652       4.815 -20.980  18.726  1.00 15.06 LIG 0.16  HD
BRANCH 43 46
ATOM     46  CA  THR B 651       2.698 -22.188  17.856  1.00 18.25 LIG 0.20  C 
BRANCH 46 47
ATOM     47  N   THR B 651       3.375 -23.245  18.580  1.00 18.62 LIG-0.34  N 
ATOM     48 H    THR B 651       3.156 -23.308  19.409  1.00 18.62 LIG 0.16  HD
ATOM     49  C   PRO B 650       4.249 -24.028  17.986  1.00 22.21 LIG 0.25  C 
ATOM     50 O    PRO B 650       4.680 -23.802  16.866  1.00 21.73 LIG-0.27  OA
BRANCH 49 51
ATOM     51  CA  PRO B 650       4.673 -25.270  18.764  1.00 24.06 LIG 0.35  C 
ATOM     52  CB  PRO B 650       3.502 -26.055  19.355  1.00 25.19 LIG 0.05  C 
ATOM     53  CG  PRO B 650       4.133 -26.689  20.575  1.00 26.54 LIG 0.04  C 
ATOM     54  CD  PRO B 650       5.014 -25.587  21.118  1.00 26.80 LIG 0.32  C 
ATOM     55  N   PRO B 650       5.364 -24.814  19.929  1.00 26.10 LIG 0.32  N 
ENDBRANCH 49 51
ENDBRANCH 46 47
BRANCH 46 56
ATOM     56  CB  THR B 651       1.697 -21.505  18.831  1.00 18.88 LIG 0.15  C 
ATOM     57  CG2 THR B 651       1.228 -20.076  18.396  1.00 20.33 LIG 0.04  C 
BRANCH 56 58
ATOM     58 OG1  THR B 651       0.636 -22.434  19.052  1.00 19.33 LIG-0.39  OA
ATOM     59 HG1  THR B 651       0.915 -23.073  19.521  1.00 19.33 LIG 0.21  HD
ENDBRANCH 56 58
ENDBRANCH 46 56
ENDBRANCH 43 46
ENDBRANCH 41 42
BRANCH 41 60
ATOM     60  CB  VAL B 652       6.451 -19.059  18.473  1.00 13.27 LIG 0.01  C 
ATOM     61  CG1 VAL B 652       6.655 -17.640  18.280  1.00 15.32 LIG 0.01  C 
ATOM     62  CG2 VAL B 652       5.979 -19.345  19.898  1.00 15.72 LIG 0.01  C 
ENDBRANCH 41 60
ENDBRANCH 38 41
ENDBRANCH 1 37
TORSDOF 25
ENDMDL
MODEL 2
USER: ADFR SOLUTION from run 194
USER: SCORE 20.927221 LL:  -3.734 LR: -18.697 RR:   0.000 FEB: -11.240
USER: RMSD 11.408340
USER: SEED 193
USER: STATUS no improvement in best in 8 clusters for 5 generations
USER: GENES 27
USER: genes 0 Translation |==|  0.51566 0.58731 0.27582
USER: genes 1 Rotation |==|  0.79262 0.77691 0.29057 0.70936
USER: genes 2 Torsion [N]-CA--C-[N] |==|  0.95105
USER: genes 3 Torsion [C]-N--CA-[C] |==|  0.59510
USER: genes 4 Torsion [N]-CA--CB-[CG] |==|  0.81920
USER: genes 5 Torsion [CA]-CB--CG-[CD] |==|  0.61338
USER: genes 6 Torsion [CB]-CG--CD-[OE2] |==|  0.23141
USER: genes 7 Torsion [N]-CA--C-[N] |==|  0.28423
USER: genes 8 Torsion [C]-N--CA-[C] |==|  0.53891
USER: genes 9 Torsion [N]-CA--C-[N] |==|  0.46981
USER: genes 10 Torsion [C]-N--CA-[C] |==|  0.64744
USER: genes 11 Torsion [N]-CA--C-[OXT] |==|  0.45011
USER: genes 12 Torsion [N]-CA--CB-[CG] |==|  0.82966
USER: genes 13 Torsion [CA]-CB--CG-[OD1] |==|  0.83003
USER: genes 14 Torsion [N]-CA--CB-[CG2] |==|  0.62140
USER: genes 15 Torsion [C]-CA--CB-[CG] |==|  0.19824
USER: genes 16 Torsion [CA]-CB--CG-[CD] |==|  0.45539
USER: genes 17 Torsion [CB]-CG--CD-[OE2] |==|  0.79845
USER: genes 18 Torsion [C]-CA--N-[C] |==|  0.69444
USER: genes 19 Torsion [N]-C--CA-[N] |==|  0.28073
USER: genes 20 Torsion [C]-CA--N-[C] |==|  0.77771
USER: genes 21 Torsion [N]-C--CA-[N] |==|  0.89282
USER: genes 22 Torsion [C]-CA--N-[C] |==|  0.65165
USER: genes 23 Torsion [N]-C--CA-[CB] |==|  0.25215
USER: genes 24 Torsion [C]-CA--CB-[CG2] |==|  0.27838
USER: genes 25 Torsion [CA]-CB--OG1-[HG1] |==|  0.80050
USER: genes 26 Torsion [C]-CA--CB-[CG1] |==|  0.20521
ROOT
ATOM      1  CA  GLU B 653       4.979 -21.359   8.309  1.00 16.59 LIG 0.18  C 
ENDROOT
BRANCH 1 2
ATOM      2  C   GLU B 653       4.614 -20.522   9.551  1.00 17.01 LIG 0.24  C 
ATOM      3 O    GLU B 653       4.296 -19.321   9.447  1.00 18.89 LIG-0.27  OA
ATOM      4  N   GLU B 654       4.626 -21.154  10.711  1.00 17.47 LIG-0.35  N 
ATOM      5 H    GLU B 654       4.921 -21.957  10.801  1.00 17.47 LIG 0.16  HD
BRANCH 4 6
ATOM      6  CA  GLU B 654       4.157 -20.580  11.935  1.00 19.20 LIG 0.18  C 
BRANCH 6 7
ATOM      7  CB  GLU B 654       2.696 -20.941  12.140  1.00 21.36 LIG 0.04  C 
BRANCH 7 8
ATOM      8  CG  GLU B 654       1.796 -20.344  11.104  1.00 25.94 LIG 0.12  C 
BRANCH 8 9
ATOM      9  CD  GLU B 654       0.518 -19.829  11.673  1.00 34.53 LIG 0.17  C 
ATOM     10 OE2  GLU B 654       0.502 -18.675  12.183  1.00 38.43 LIG-0.65  OA
ATOM     11 OE1  GLU B 654      -0.489 -20.588  11.591  1.00 40.98 LIG-0.65  OA
ENDBRANCH 8 9
ENDBRANCH 7 8
ENDBRANCH 6 7
BRANCH 6 12
ATOM     12  C   GLU B 654       4.959 -21.047  13.128  1.00 18.66 LIG 0.24  C 
ATOM     13  N   VAL B 655       5.865 -20.195  13.618  1.00 18.37 LIG-0.35  N 
ATOM     14 H    VAL B 655       6.090 -19.463  13.227  1.00 18.37 LIG 0.16  HD
ATOM     15 O    GLU B 654       4.842 -22.200  13.510  1.00 17.95 LIG-0.27  OA
BRANCH 13 16
ATOM     16  CA  VAL B 655       6.564 -20.438  14.882  1.00 18.99 LIG 0.18  C 
BRANCH 16 17
ATOM     17  C   VAL B 655       7.241 -19.129  15.302  1.00 20.12 LIG 0.24  C 
ATOM     18 O    VAL B 655       7.278 -18.166  14.518  1.00 20.44 LIG-0.27  OA
ATOM     19  N   ASP B 656       7.736 -19.097  16.538  1.00 20.60 LIG-0.34  N 
ATOM     20 H    ASP B 656       7.716 -19.766  17.080  1.00 20.60 LIG 0.16  HD
BRANCH 19 21
ATOM     21  CA  ASP B 656       8.370 -17.885  17.089  1.00 22.64 LIG 0.20  C 
BRANCH 21 22
ATOM     22  C   ASP B 656       9.776 -18.153  17.650  1.00 24.92 LIG 0.20  C 
ATOM     23 OXT  ASP B 656      10.579 -17.193  17.842  1.00 27.50 LIG-0.65  OA
ATOM     24 O    ASP B 656      10.160 -19.318  17.883  1.00 24.52 LIG-0.65  OA
ENDBRANCH 21 22
BRANCH 21 25
ATOM     25  CB  ASP B 656       7.465 -17.331  18.177  1.00 22.32 LIG 0.15  C 
BRANCH 25 26
ATOM     26  CG  ASP B 656       6.095 -16.937  17.635  1.00 24.14 LIG 0.17  C 
ATOM     27 OD1  ASP B 656       6.010 -16.051  16.758  1.00 27.79 LIG-0.65  OA
ATOM     28 OD2  ASP B 656       5.098 -17.555  18.040  1.00 21.16 LIG-0.65  OA
ENDBRANCH 25 26
ENDBRANCH 21 25
ENDBRANCH 19 21
ENDBRANCH 16 17
BRANCH 16 29
ATOM     29  CB  VAL B 655       7.623 -21.543  14.822  1.00 17.39 LIG 0.01  C 
ATOM     30  CG2 VAL B 655       7.539 -22.469  16.059  1.00 19.33 LIG 0.01  C 
ATOM     31  CG1 VAL B 655       9.068 -20.931  14.647  1.00 17.58 LIG 0.01  C 
ENDBRANCH 16 29
ENDBRANCH 13 16
ENDBRANCH 6 12
ENDBRANCH 4 6
ENDBRANCH 1 2
BRANCH 1 32
ATOM     32  CB  GLU B 653       3.660 -21.653   7.515  1.00 16.22 LIG 0.04  C 
BRANCH 32 33
ATOM     33  CG  GLU B 653       3.086 -20.455   6.819  1.00 17.46 LIG 0.12  C 
BRANCH 33 34
ATOM     34  CD  GLU B 653       2.032 -20.810   5.733  1.00 17.13 LIG 0.17  C 
ATOM     35 OE1  GLU B 653       0.834 -20.555   6.008  1.00 19.48 LIG-0.65  OA
ATOM     36 OE2  GLU B 653       2.365 -21.334   4.614  1.00 19.36 LIG-0.65  OA
ENDBRANCH 33 34
ENDBRANCH 32 33
ENDBRANCH 1 32
BRANCH 1 37
ATOM     37  N   GLU B 653       5.679 -22.619   8.611  1.00 15.81 LIG-0.35  N 
ATOM     38  C   VAL B 652       6.972 -22.885   8.346  1.00 15.71 LIG 0.24  C 
ATOM     39 O    VAL B 652       7.756 -22.055   7.908  1.00 14.72 LIG-0.27  OA
ATOM     40 H    GLU B 653       5.166 -23.197   8.989  1.00 15.81 LIG 0.16  HD
BRANCH 38 41
ATOM     41  CA  VAL B 652       7.513 -24.294   8.786  1.00 15.41 LIG 0.18  C 
BRANCH 41 42
ATOM     42  N   VAL B 652       7.570 -25.178   7.635  1.00 15.06 LIG-0.35  N 
ATOM     43  C   THR B 651       6.471 -25.785   7.193  1.00 17.05 LIG 0.24  C 
ATOM     44 O    THR B 651       5.340 -25.493   7.562  1.00 16.18 LIG-0.27  OA
ATOM     45 H    VAL B 652       8.350 -25.266   7.284  1.00 15.06 LIG 0.16  HD
BRANCH 43 46
ATOM     46  CA  THR B 651       6.636 -26.783   6.078  1.00 18.25 LIG 0.20  C 
BRANCH 46 47
ATOM     47  N   THR B 651       7.608 -26.408   5.071  1.00 18.62 LIG-0.34  N 
ATOM     48 H    THR B 651       8.390 -26.227   5.379  1.00 18.62 LIG 0.16  HD
ATOM     49  C   PRO B 650       7.287 -26.360   3.797  1.00 22.21 LIG 0.25  C 
ATOM     50 O    PRO B 650       6.132 -26.436   3.406  1.00 21.73 LIG-0.27  OA
BRANCH 49 51
ATOM     51  CA  PRO B 650       8.451 -26.237   2.818  1.00 24.06 LIG 0.35  C 
ATOM     52  CB  PRO B 650       8.992 -27.582   2.334  1.00 25.19 LIG 0.05  C 
ATOM     53  CG  PRO B 650      10.442 -27.252   2.050  1.00 26.54 LIG 0.04  C 
ATOM     54  CD  PRO B 650      10.818 -26.341   3.196  1.00 26.80 LIG 0.32  C 
ATOM     55  N   PRO B 650       9.554 -25.699   3.549  1.00 26.10 LIG 0.32  N 
ENDBRANCH 49 51
ENDBRANCH 46 47
BRANCH 46 56
ATOM     56  CB  THR B 651       7.019 -28.194   6.611  1.00 18.88 LIG 0.15  C 
ATOM     57  CG2 THR B 651       5.829 -29.209   6.696  1.00 20.33 LIG 0.04  C 
BRANCH 56 58
ATOM     58 OG1  THR B 651       8.125 -28.644   5.830  1.00 19.33 LIG-0.39  OA
ATOM     59 HG1  THR B 651       7.862 -28.837   5.056  1.00 19.33 LIG 0.21  HD
ENDBRANCH 56 58
ENDBRANCH 46 56
ENDBRANCH 43 46
ENDBRANCH 41 42
BRANCH 41 60
ATOM     60  CB  VAL B 652       8.879 -24.115   9.514  1.00 13.27 LIG 0.01  C 
ATOM     61  CG1 VAL B 652       8.716 -23.569  10.844  1.00 15.32 LIG 0.01  C 
ATOM     62  CG2 VAL B 652       9.663 -25.426   9.564  1.00 15.72 LIG 0.01  C 
ENDBRANCH 41 60
ENDBRANCH 38 41
ENDBRANCH 1 37
TORSDOF 25
ENDMDL
MODEL 3
USER: ADFR SOLUTION from run 27
USER: SCORE 20.551209 LL:  -3.914 LR: -18.077 RR:   0.000 FEB: -10.619
USER: RMSD 11.238530
USER: SEED 26
USER: STATUS no improvement in best in 12 clusters for 5 generations
USER: GENES 27
USER: genes 0 Translation |==|  0.51822 0.57612 0.26865
USER: genes 1 Rotation |==|  0.80704 0.77632 0.32733 0.72262
USER: genes 2 Torsion [N]-CA--C-[N] |==|  0.91597
USER: genes 3 Torsion [C]-N--CA-[C] |==|  0.62778
USER: genes 4 Torsion [N]-CA--CB-[CG] |==|  0.75312
USER: genes 5 Torsion [CA]-CB--CG-[CD] |==|  0.69798
USER: genes 6 Torsion [CB]-CG--CD-[OE2] |==|  0.26722
USER: genes 7 Torsion [N]-CA--C-[N] |==|  0.90028
USER: genes 8 Torsion [C]-N--CA-[C] |==|  0.83701
USER: genes 9 Torsion [N]-CA--C-[N] |==|  0.38439
USER: genes 10 Torsion [C]-N--CA-[C] |==|  0.19602
USER: genes 11 Torsion [N]-CA--C-[OXT] |==|  0.02402
USER: genes 12 Torsion [N]-CA--CB-[CG] |==|  0.65004
USER: genes 13 Torsion [CA]-CB--CG-[OD1] |==|  0.49696
USER: genes 14 Torsion [N]-CA--CB-[CG2] |==|  0.26797
USER: genes 15 Torsion [C]-CA--CB-[CG] |==|  0.15752
USER: genes 16 Torsion [CA]-CB--CG-[CD] |==|  0.47931
USER: genes 17 Torsion [CB]-CG--CD-[OE2] |==|  0.84724
USER: genes 18 Torsion [C]-CA--N-[C] |==|  0.65775
USER: genes 19 Torsion [N]-C--CA-[N] |==|  0.28412
USER: genes 20 Torsion [C]-CA--N-[C] |==|  0.76710
USER: genes 21 Torsion [N]-C--CA-[N] |==|  0.91078
USER: genes 22 Torsion [C]-CA--N-[C] |==|  0.66946
USER: genes 23 Torsion [N]-C--CA-[CB] |==|  0.21917
USER: genes 24 Torsion [C]-CA--CB-[CG2] |==|  0.26623
USER: genes 25 Torsion [CA]-CB--OG1-[HG1] |==|  0.48738
USER: genes 26 Torsion [C]-CA--CB-[CG1] |==|  0.19738
ROOT
ATOM      1  CA  GLU B 653       5.037 -21.544   8.142  1.00 16.59 LIG 0.18  C 
ENDROOT
BRANCH 1 2
ATOM      2  C   GLU B 653       4.457 -20.822   9.375  1.00 17.01 LIG 0.24  C 
ATOM      3 O    GLU B 653       4.309 -19.584   9.386  1.00 18.89 LIG-0.27  OA
ATOM      4  N   GLU B 654       4.103 -21.587  10.393  1.00 17.47 LIG-0.35  N 
ATOM      5 H    GLU B 654       4.276 -22.429  10.425  1.00 17.47 LIG 0.16  HD
BRANCH 4 6
ATOM      6  CA  GLU B 654       3.400 -21.106  11.542  1.00 19.20 LIG 0.18  C 
BRANCH 6 7
ATOM      7  CB  GLU B 654       1.945 -21.536  11.467  1.00 21.36 LIG 0.04  C 
BRANCH 7 8
ATOM      8  CG  GLU B 654       1.083 -20.552  10.740  1.00 25.94 LIG 0.12  C 
BRANCH 8 9
ATOM      9  CD  GLU B 654       0.158 -19.812  11.645  1.00 34.53 LIG 0.17  C 
ATOM     10 OE2  GLU B 654       0.501 -18.674  12.066  1.00 38.43 LIG-0.65  OA
ATOM     11 OE1  GLU B 654      -0.939 -20.376  11.922  1.00 40.98 LIG-0.65  OA
ENDBRANCH 8 9
ENDBRANCH 7 8
ENDBRANCH 6 7
BRANCH 6 12
ATOM     12  C   GLU B 654       4.004 -21.614  12.833  1.00 18.66 LIG 0.24  C 
ATOM     13  N   VAL B 655       4.495 -22.857  12.822  1.00 18.37 LIG-0.35  N 
ATOM     14 H    VAL B 655       4.381 -23.407  12.172  1.00 18.37 LIG 0.16  HD
ATOM     15 O    GLU B 654       3.910 -20.934  13.842  1.00 17.95 LIG-0.27  OA
BRANCH 13 16
ATOM     16  CA  VAL B 655       5.282 -23.396  13.934  1.00 18.99 LIG 0.18  C 
BRANCH 16 17
ATOM     17  C   VAL B 655       6.505 -22.494  14.123  1.00 20.12 LIG 0.24  C 
ATOM     18 O    VAL B 655       7.108 -22.043  13.135  1.00 20.44 LIG-0.27  OA
ATOM     19  N   ASP B 656       6.836 -22.214  15.383  1.00 20.60 LIG-0.34  N 
ATOM     20 H    ASP B 656       6.423 -22.530  16.068  1.00 20.60 LIG 0.16  HD
BRANCH 19 21
ATOM     21  CA  ASP B 656       7.962 -21.319  15.709  1.00 22.64 LIG 0.20  C 
BRANCH 21 22
ATOM     22  C   ASP B 656       7.671 -19.849  15.365  1.00 24.92 LIG 0.20  C 
ATOM     23 OXT  ASP B 656       6.507 -19.496  15.013  1.00 27.50 LIG-0.65  OA
ATOM     24 O    ASP B 656       8.581 -18.995  15.386  1.00 24.52 LIG-0.65  OA
ENDBRANCH 21 22
BRANCH 21 25
ATOM     25  CB  ASP B 656       9.186 -21.806  14.951  1.00 22.32 LIG 0.15  C 
BRANCH 25 26
ATOM     26  CG  ASP B 656      10.374 -22.045  15.876  1.00 24.14 LIG 0.17  C 
ATOM     27 OD1  ASP B 656      11.450 -22.468  15.403  1.00 27.79 LIG-0.65  OA
ATOM     28 OD2  ASP B 656      10.257 -21.752  17.077  1.00 21.16 LIG-0.65  OA
ENDBRANCH 25 26
ENDBRANCH 21 25
ENDBRANCH 19 21
ENDBRANCH 16 17
BRANCH 16 29
ATOM     29  CB  VAL B 655       5.758 -24.838  13.735  1.00 17.39 LIG 0.01  C 
ATOM     30  CG2 VAL B 655       7.207 -24.880  13.191  1.00 19.33 LIG 0.01  C 
ATOM     31  CG1 VAL B 655       4.763 -25.638  12.806  1.00 17.58 LIG 0.01  C 
ENDBRANCH 16 29
ENDBRANCH 13 16
ENDBRANCH 6 12
ENDBRANCH 4 6
ENDBRANCH 1 2
BRANCH 1 32
ATOM     32  CB  GLU B 653       3.859 -21.835   7.151  1.00 16.22 LIG 0.04  C 
BRANCH 32 33
ATOM     33  CG  GLU B 653       3.096 -20.614   6.733  1.00 17.46 LIG 0.12  C 
BRANCH 33 34
ATOM     34  CD  GLU B 653       2.051 -20.883   5.613  1.00 17.13 LIG 0.17  C 
ATOM     35 OE1  GLU B 653       0.868 -20.538   5.854  1.00 19.48 LIG-0.65  OA
ATOM     36 OE2  GLU B 653       2.377 -21.428   4.502  1.00 19.36 LIG-0.65  OA
ENDBRANCH 33 34
ENDBRANCH 32 33
ENDBRANCH 1 32
BRANCH 1 37
ATOM     37  N   GLU B 653       5.757 -22.790   8.452  1.00 15.81 LIG-0.35  N 
ATOM     38  C   VAL B 652       7.034 -23.064   8.125  1.00 15.71 LIG 0.24  C 
ATOM     39 O    VAL B 652       7.790 -22.250   7.614  1.00 14.72 LIG-0.27  OA
ATOM     40 H    GLU B 653       5.268 -23.354   8.880  1.00 15.81 LIG 0.16  HD
BRANCH 38 41
ATOM     41  CA  VAL B 652       7.605 -24.454   8.588  1.00 15.41 LIG 0.18  C 
BRANCH 41 42
ATOM     42  N   VAL B 652       7.627 -25.372   7.462  1.00 15.06 LIG-0.35  N 
ATOM     43  C   THR B 651       6.537 -26.058   7.126  1.00 17.05 LIG 0.24  C 
ATOM     44 O    THR B 651       5.422 -25.822   7.575  1.00 16.18 LIG-0.27  OA
ATOM     45 H    VAL B 652       8.382 -25.425   7.053  1.00 15.06 LIG 0.16  HD
BRANCH 43 46
ATOM     46  CA  THR B 651       6.678 -27.083   6.031  1.00 18.25 LIG 0.20  C 
BRANCH 46 47
ATOM     47  N   THR B 651       7.656 -26.749   5.015  1.00 18.62 LIG-0.34  N 
ATOM     48 H    THR B 651       8.460 -26.664   5.307  1.00 18.62 LIG 0.16  HD
ATOM     49  C   PRO B 650       7.307 -26.598   3.756  1.00 22.21 LIG 0.25  C 
ATOM     50 O    PRO B 650       6.141 -26.538   3.399  1.00 21.73 LIG-0.27  OA
BRANCH 49 51
ATOM     51  CA  PRO B 650       8.451 -26.535   2.748  1.00 24.06 LIG 0.35  C 
ATOM     52  CB  PRO B 650       9.033 -27.903   2.393  1.00 25.19 LIG 0.05  C 
ATOM     53  CG  PRO B 650      10.465 -27.555   2.050  1.00 26.54 LIG 0.04  C 
ATOM     54  CD  PRO B 650      10.826 -26.519   3.091  1.00 26.80 LIG 0.32  C 
ATOM     55  N   PRO B 650       9.545 -25.888   3.401  1.00 26.10 LIG 0.32  N 
ENDBRANCH 49 51
ENDBRANCH 46 47
BRANCH 46 56
ATOM     56  CB  THR B 651       7.032 -28.490   6.592  1.00 18.88 LIG 0.15  C 
ATOM     57  CG2 THR B 651       5.805 -29.440   6.801  1.00 20.33 LIG 0.04  C 
BRANCH 56 58
ATOM     58 OG1  THR B 651       8.056 -29.024   5.754  1.00 19.33 LIG-0.39  OA
ATOM     59 HG1  THR B 651       8.317 -29.760   6.064  1.00 19.33 LIG 0.21  HD
ENDBRANCH 56 58
ENDBRANCH 46 56
ENDBRANCH 43 46
ENDBRANCH 41 42
BRANCH 41 60
ATOM     60  CB  VAL B 652       8.994 -24.242   9.260  1.00 13.27 LIG 0.01  C 
ATOM     61  CG1 VAL B 652       8.878 -23.598  10.550  1.00 15.32 LIG 0.01  C 
ATOM     62  CG2 VAL B 652       9.763 -25.557   9.382  1.00 15.72 LIG 0.01  C 
ENDBRANCH 41 60
ENDBRANCH 38 41
ENDBRANCH 1 37
TORSDOF 25
ENDMDL
MODEL 4
USER: ADFR SOLUTION from run 137
USER: SCORE 20.352456 LL:  -3.626 LR: -18.068 RR:   0.000 FEB: -10.611
USER: RMSD 11.174076
USER: SEED 136
USER: STATUS searching
USER: GENES 27
USER: genes 0 Translation |==|  0.49934 0.69525 0.40508
USER: genes 1 Rotation |==|  0.16415 0.15622 0.63437 0.53098
USER: genes 2 Torsion [N]-CA--C-[N] |==|  0.29800
USER: genes 3 Torsion [C]-N--CA-[C] |==|  0.60557
USER: genes 4 Torsion [N]-CA--CB-[CG] |==|  0.44533
USER: genes 5 Torsion [CA]-CB--CG-[CD] |==|  0.61124
USER: genes 6 Torsion [CB]-CG--CD-[OE2] |==|  0.03051
USER: genes 7 Torsion [N]-CA--C-[N] |==|  0.37296
USER: genes 8 Torsion [C]-N--CA-[C] |==|  0.65120
USER: genes 9 Torsion [N]-CA--C-[N] |==|  0.42857
USER: genes 10 Torsion [C]-N--CA-[C] |==|  0.72545
USER: genes 11 Torsion [N]-CA--C-[OXT] |==|  0.45676
USER: genes 12 Torsion [N]-CA--CB-[CG] |==|  0.87182
USER: genes 13 Torsion [CA]-CB--CG-[OD1] |==|  0.73402
USER: genes 14 Torsion [N]-CA--CB-[CG2] |==|  0.13153
USER: genes 15 Torsion [C]-CA--CB-[CG] |==|  0.78283
USER: genes 16 Torsion [CA]-CB--CG-[CD] |==|  0.43370
USER: genes 17 Torsion [CB]-CG--CD-[OE2] |==|  0.99206
USER: genes 18 Torsion [C]-CA--N-[C] |==|  0.58899
USER: genes 19 Torsion [N]-C--CA-[N] |==|  0.88434
USER: genes 20 Torsion [C]-CA--N-[C] |==|  0.70380
USER: genes 21 Torsion [N]-C--CA-[N] |==|  0.28133
USER: genes 22 Torsion [C]-CA--N-[C] |==|  0.77460
USER: genes 23 Torsion [N]-C--CA-[CB] |==|  0.09049
USER: genes 24 Torsion [C]-CA--CB-[CG2] |==|  0.31462
USER: genes 25 Torsion [CA]-CB--OG1-[HG1] |==|  0.15637
USER: genes 26 Torsion [C]-CA--CB-[CG1] |==|  0.77993
ROOT
ATOM      1  CA  GLU B 653       4.612 -19.578  11.314  1.00 16.59 LIG 0.18  C 
ENDROOT
BRANCH 1 2
ATOM      2  C   GLU B 653       4.892 -20.137  12.724  1.00 17.01 LIG 0.24  C 
ATOM      3 O    GLU B 653       4.140 -20.987  13.240  1.00 18.89 LIG-0.27  OA
ATOM      4  N   GLU B 654       5.978 -19.691  13.329  1.00 17.47 LIG-0.35  N 
ATOM      5 H    GLU B 654       6.456 -19.048  13.015  1.00 17.47 LIG 0.16  HD
BRANCH 4 6
ATOM      6  CA  GLU B 654       6.477 -20.221  14.561  1.00 19.20 LIG 0.18  C 
BRANCH 6 7
ATOM      7  CB  GLU B 654       7.564 -21.242  14.274  1.00 21.36 LIG 0.04  C 
BRANCH 7 8
ATOM      8  CG  GLU B 654       8.451 -21.498  15.452  1.00 25.94 LIG 0.12  C 
BRANCH 8 9
ATOM      9  CD  GLU B 654       9.886 -21.641  15.077  1.00 34.53 LIG 0.17  C 
ATOM     10 OE2  GLU B 654      10.242 -21.334  13.906  1.00 38.43 LIG-0.65  OA
ATOM     11 OE1  GLU B 654      10.672 -22.050  15.979  1.00 40.98 LIG-0.65  OA
ENDBRANCH 8 9
ENDBRANCH 7 8
ENDBRANCH 6 7
BRANCH 6 12
ATOM     12  C   GLU B 654       7.033 -19.141  15.462  1.00 18.66 LIG 0.24  C 
ATOM     13  N   VAL B 655       6.673 -19.184  16.748  1.00 18.37 LIG-0.35  N 
ATOM     14 H    VAL B 655       6.067 -19.710  17.056  1.00 18.37 LIG 0.16  HD
ATOM     15 O    GLU B 654       7.669 -18.224  14.970  1.00 17.95 LIG-0.27  OA
BRANCH 13 16
ATOM     16  CA  VAL B 655       7.292 -18.327  17.763  1.00 18.99 LIG 0.18  C 
BRANCH 16 17
ATOM     17  C   VAL B 655       7.816 -19.231  18.883  1.00 20.12 LIG 0.24  C 
ATOM     18 O    VAL B 655       7.317 -20.354  19.065  1.00 20.44 LIG-0.27  OA
ATOM     19  N   ASP B 656       8.832 -18.748  19.597  1.00 20.60 LIG-0.34  N 
ATOM     20 H    ASP B 656       9.174 -17.967  19.476  1.00 20.60 LIG 0.16  HD
BRANCH 19 21
ATOM     21  CA  ASP B 656       9.465 -19.531  20.674  1.00 22.64 LIG 0.20  C 
BRANCH 21 22
ATOM     22  C   ASP B 656       8.953 -19.143  22.071  1.00 24.92 LIG 0.20  C 
ATOM     23 OXT  ASP B 656       9.166 -19.903  23.061  1.00 27.50 LIG-0.65  OA
ATOM     24 O    ASP B 656       8.286 -18.101  22.240  1.00 24.52 LIG-0.65  OA
ENDBRANCH 21 22
BRANCH 21 25
ATOM     25  CB  ASP B 656      10.968 -19.324  20.587  1.00 22.32 LIG 0.15  C 
BRANCH 25 26
ATOM     26  CG  ASP B 656      11.482 -19.456  19.158  1.00 24.14 LIG 0.17  C 
ATOM     27 OD1  ASP B 656      11.946 -20.548  18.767  1.00 27.79 LIG-0.65  OA
ATOM     28 OD2  ASP B 656      11.369 -18.482  18.396  1.00 21.16 LIG-0.65  OA
ENDBRANCH 25 26
ENDBRANCH 21 25
ENDBRANCH 19 21
ENDBRANCH 16 17
BRANCH 16 29
ATOM     29  CB  VAL B 655       6.352 -17.281  18.371  1.00 17.39 LIG 0.01  C 
ATOM     30  CG2 VAL B 655       5.001 -17.914  18.782  1.00 19.33 LIG 0.01  C 
ATOM     31  CG1 VAL B 655       6.152 -16.063  17.387  1.00 17.58 LIG 0.01  C 
ENDBRANCH 16 29
ENDBRANCH 13 16
ENDBRANCH 6 12
ENDBRANCH 4 6
ENDBRANCH 1 2
BRANCH 1 32
ATOM     32  CB  GLU B 653       3.127 -19.078  11.276  1.00 16.22 LIG 0.04  C 
BRANCH 32 33
ATOM     33  CG  GLU B 653       2.117 -20.175  11.126  1.00 17.46 LIG 0.12  C 
BRANCH 33 34
ATOM     34  CD  GLU B 653       0.705 -19.801  11.660  1.00 17.13 LIG 0.17  C 
ATOM     35 OE1  GLU B 653      -0.198 -20.660  11.512  1.00 19.48 LIG-0.65  OA
ATOM     36 OE2  GLU B 653       0.473 -18.675  12.222  1.00 19.36 LIG-0.65  OA
ENDBRANCH 33 34
ENDBRANCH 32 33
ENDBRANCH 1 32
BRANCH 1 37
ATOM     37  N   GLU B 653       4.851 -20.537  10.223  1.00 15.81 LIG-0.35  N 
ATOM     38  C   VAL B 652       5.276 -20.229   8.983  1.00 15.71 LIG 0.24  C 
ATOM     39 O    VAL B 652       5.619 -19.105   8.646  1.00 14.72 LIG-0.27  OA
ATOM     40 H    GLU B 653       4.688 -21.349  10.458  1.00 15.81 LIG 0.16  HD
BRANCH 38 41
ATOM     41  CA  VAL B 652       5.491 -21.426   7.986  1.00 15.41 LIG 0.18  C 
BRANCH 41 42
ATOM     42  N   VAL B 652       6.129 -22.531   8.680  1.00 15.06 LIG-0.35  N 
ATOM     43  C   THR B 651       7.409 -22.822   8.458  1.00 17.05 LIG 0.24  C 
ATOM     44 O    THR B 651       8.176 -22.085   7.850  1.00 16.18 LIG-0.27  OA
ATOM     45 H    VAL B 652       5.620 -22.960   9.224  1.00 15.06 LIG 0.16  HD
BRANCH 43 46
ATOM     46  CA  THR B 651       7.960 -24.059   9.117  1.00 18.25 LIG 0.20  C 
BRANCH 46 47
ATOM     47  N   THR B 651       8.073 -25.209   8.242  1.00 18.62 LIG-0.34  N 
ATOM     48 H    THR B 651       8.861 -25.342   7.926  1.00 18.62 LIG 0.16  HD
ATOM     49  C   PRO B 650       7.033 -25.968   7.975  1.00 22.21 LIG 0.25  C 
ATOM     50 O    PRO B 650       5.892 -25.653   8.282  1.00 21.73 LIG-0.27  OA
BRANCH 49 51
ATOM     51  CA  PRO B 650       7.332 -27.296   7.286  1.00 24.06 LIG 0.35  C 
ATOM     52  CB  PRO B 650       8.674 -27.907   7.686  1.00 25.19 LIG 0.05  C 
ATOM     53  CG  PRO B 650       9.045 -28.689   6.445  1.00 26.54 LIG 0.04  C 
ATOM     54  CD  PRO B 650       8.625 -27.770   5.321  1.00 26.80 LIG 0.32  C 
ATOM     55  N   PRO B 650       7.518 -27.010   5.898  1.00 26.10 LIG 0.32  N 
ENDBRANCH 49 51
ENDBRANCH 46 47
BRANCH 46 56
ATOM     56  CB  THR B 651       9.355 -23.806   9.757  1.00 18.88 LIG 0.15  C 
ATOM     57  CG2 THR B 651       9.385 -23.893  11.320  1.00 20.33 LIG 0.04  C 
BRANCH 56 58
ATOM     58 OG1  THR B 651      10.276 -24.676   9.099  1.00 19.33 LIG-0.39  OA
ATOM     59 HG1  THR B 651      10.251 -24.536   8.271  1.00 19.33 LIG 0.21  HD
ENDBRANCH 56 58
ENDBRANCH 46 56
ENDBRANCH 43 46
ENDBRANCH 41 42
BRANCH 41 60
ATOM     60  CB  VAL B 652       4.130 -21.795   7.325  1.00 13.27 LIG 0.01  C 
ATOM     61  CG1 VAL B 652       3.302 -22.596   8.200  1.00 15.32 LIG 0.01  C 
ATOM     62  CG2 VAL B 652       3.375 -20.549   6.864  1.00 15.72 LIG 0.01  C 
ENDBRANCH 41 60
ENDBRANCH 38 41
ENDBRANCH 1 37
TORSDOF 25
ENDMDL
MODEL 5
USER: ADFR SOLUTION from run 82
USER: SCORE 20.947404 LL:  -4.733 LR: -17.821 RR:   0.000 FEB: -10.363
USER: RMSD 10.028763
USER: SEED 81
USER: STATUS searching
USER: GENES 27
USER: genes 0 Translation |==|  0.53077 0.61317 0.27020
USER: genes 1 Rotation |==|  0.86269 0.75043 0.35501 0.68633
USER: genes 2 Torsion [N]-CA--C-[N] |==|  0.96965
USER: genes 3 Torsion [C]-N--CA-[C] |==|  0.62384
USER: genes 4 Torsion [N]-CA--CB-[CG] |==|  0.77460
USER: genes 5 Torsion [CA]-CB--CG-[CD] |==|  0.69878
USER: genes 6 Torsion [CB]-CG--CD-[OE2] |==|  0.76852
USER: genes 7 Torsion [N]-CA--C-[N] |==|  0.87522
USER: genes 8 Torsion [C]-N--CA-[C] |==|  0.82535
USER: genes 9 Torsion [N]-CA--C-[N] |==|  0.35973
USER: genes 10 Torsion [C]-N--CA-[C] |==|  0.70855
USER: genes 11 Torsion [N]-CA--C-[OXT] |==|  0.41098
USER: genes 12 Torsion [N]-CA--CB-[CG] |==|  0.79701
USER: genes 13 Torsion [CA]-CB--CG-[OD1] |==|  0.20798
USER: genes 14 Torsion [N]-CA--CB-[CG2] |==|  0.85052
USER: genes 15 Torsion [C]-CA--CB-[CG] |==|  0.92075
USER: genes 16 Torsion [CA]-CB--CG-[CD] |==|  0.53486
USER: genes 17 Torsion [CB]-CG--CD-[OE2] |==|  0.56993
USER: genes 18 Torsion [C]-CA--N-[C] |==|  0.66694
USER: genes 19 Torsion [N]-C--CA-[N] |==|  0.59510
USER: genes 20 Torsion [C]-CA--N-[C] |==|  0.16494
USER: genes 21 Torsion [N]-C--CA-[N] |==|  0.99892
USER: genes 22 Torsion [C]-CA--N-[C] |==|  0.77385
USER: genes 23 Torsion [N]-C--CA-[CB] |==|  0.43969
USER: genes 24 Torsion [C]-CA--CB-[CG2] |==|  0.25808
USER: genes 25 Torsion [CA]-CB--OG1-[HG1] |==|  0.37975
USER: genes 26 Torsion [C]-CA--CB-[CG1] |==|  0.23410
ROOT
ATOM      1  CA  GLU B 653       5.319 -20.933   8.178  1.00 16.59 LIG 0.18  C 
ENDROOT
BRANCH 1 2
ATOM      2  C   GLU B 653       4.719 -20.373   9.483  1.00 17.01 LIG 0.24  C 
ATOM      3 O    GLU B 653       4.462 -19.159   9.605  1.00 18.89 LIG-0.27  OA
ATOM      4  N   GLU B 654       4.468 -21.250  10.439  1.00 17.47 LIG-0.35  N 
ATOM      5 H    GLU B 654       4.716 -22.073  10.394  1.00 17.47 LIG 0.16  HD
BRANCH 4 6
ATOM      6  CA  GLU B 654       3.764 -20.935  11.644  1.00 19.20 LIG 0.18  C 
BRANCH 6 7
ATOM      7  CB  GLU B 654       2.340 -21.457  11.554  1.00 21.36 LIG 0.04  C 
BRANCH 7 8
ATOM      8  CG  GLU B 654       1.434 -20.550  10.781  1.00 25.94 LIG 0.12  C 
BRANCH 8 9
ATOM      9  CD  GLU B 654       0.450 -19.839  11.646  1.00 34.53 LIG 0.17  C 
ATOM     10 OE2  GLU B 654      -0.615 -20.433  11.970  1.00 38.43 LIG-0.65  OA
ATOM     11 OE1  GLU B 654       0.760 -18.673  12.021  1.00 40.98 LIG-0.65  OA
ENDBRANCH 8 9
ENDBRANCH 7 8
ENDBRANCH 6 7
BRANCH 6 12
ATOM     12  C   GLU B 654       4.434 -21.520  12.867  1.00 18.66 LIG 0.24  C 
ATOM     13  N   VAL B 655       4.844 -22.789  12.780  1.00 18.37 LIG-0.35  N 
ATOM     14 H    VAL B 655       4.646 -23.310  12.125  1.00 18.37 LIG 0.16  HD
ATOM     15 O    GLU B 654       4.462 -20.871  13.899  1.00 17.95 LIG-0.27  OA
BRANCH 13 16
ATOM     16  CA  VAL B 655       5.681 -23.413  13.809  1.00 18.99 LIG 0.18  C 
BRANCH 16 17
ATOM     17  C   VAL B 655       7.012 -22.655  13.851  1.00 20.12 LIG 0.24  C 
ATOM     18 O    VAL B 655       7.634 -22.424  12.801  1.00 20.44 LIG-0.27  OA
ATOM     19  N   ASP B 656       7.416 -22.251  15.055  1.00 20.60 LIG-0.34  N 
ATOM     20 H    ASP B 656       6.990 -22.416  15.784  1.00 20.60 LIG 0.16  HD
BRANCH 19 21
ATOM     21  CA  ASP B 656       8.654 -21.470  15.236  1.00 22.64 LIG 0.20  C 
BRANCH 21 22
ATOM     22  C   ASP B 656       9.803 -22.307  15.821  1.00 24.92 LIG 0.20  C 
ATOM     23 OXT  ASP B 656      11.002 -22.053  15.502  1.00 27.50 LIG-0.65  OA
ATOM     24 O    ASP B 656       9.571 -23.269  16.581  1.00 24.52 LIG-0.65  OA
ENDBRANCH 21 22
BRANCH 21 25
ATOM     25  CB  ASP B 656       8.341 -20.294  16.146  1.00 22.32 LIG 0.15  C 
BRANCH 25 26
ATOM     26  CG  ASP B 656       7.517 -19.225  15.436  1.00 24.14 LIG 0.17  C 
ATOM     27 OD1  ASP B 656       6.302 -19.424  15.223  1.00 27.79 LIG-0.65  OA
ATOM     28 OD2  ASP B 656       8.067 -18.153  15.141  1.00 21.16 LIG-0.65  OA
ENDBRANCH 25 26
ENDBRANCH 21 25
ENDBRANCH 19 21
ENDBRANCH 16 17
BRANCH 16 29
ATOM     29  CB  VAL B 655       5.966 -24.900  13.582  1.00 17.39 LIG 0.01  C 
ATOM     30  CG2 VAL B 655       4.655 -25.700  13.391  1.00 19.33 LIG 0.01  C 
ATOM     31  CG1 VAL B 655       6.846 -25.491  14.752  1.00 17.58 LIG 0.01  C 
ENDBRANCH 16 29
ENDBRANCH 13 16
ENDBRANCH 6 12
ENDBRANCH 4 6
ENDBRANCH 1 2
BRANCH 1 32
ATOM     32  CB  GLU B 653       4.247 -20.781   7.045  1.00 16.22 LIG 0.04  C 
BRANCH 32 33
ATOM     33  CG  GLU B 653       2.831 -20.816   7.536  1.00 17.46 LIG 0.12  C 
BRANCH 33 34
ATOM     34  CD  GLU B 653       1.780 -20.976   6.400  1.00 17.13 LIG 0.17  C 
ATOM     35 OE1  GLU B 653       2.174 -21.529   5.345  1.00 19.48 LIG-0.65  OA
ATOM     36 OE2  GLU B 653       0.575 -20.566   6.533  1.00 19.36 LIG-0.65  OA
ENDBRANCH 33 34
ENDBRANCH 32 33
ENDBRANCH 1 32
BRANCH 1 37
ATOM     37  N   GLU B 653       5.766 -22.333   8.267  1.00 15.81 LIG-0.35  N 
ATOM     38  C   VAL B 652       7.022 -22.773   8.064  1.00 15.71 LIG 0.24  C 
ATOM     39 O    VAL B 652       7.977 -22.031   7.881  1.00 14.72 LIG-0.27  OA
ATOM     40 H    GLU B 653       5.125 -22.869   8.470  1.00 15.81 LIG 0.16  HD
BRANCH 38 41
ATOM     41  CA  VAL B 652       7.273 -24.315   8.243  1.00 15.41 LIG 0.18  C 
BRANCH 41 42
ATOM     42  N   VAL B 652       8.602 -24.534   8.787  1.00 15.06 LIG-0.35  N 
ATOM     43  C   THR B 651       8.947 -24.013   9.963  1.00 17.05 LIG 0.24  C 
ATOM     44 O    THR B 651       8.146 -23.518  10.746  1.00 16.18 LIG-0.27  OA
ATOM     45 H    VAL B 652       9.120 -25.012   8.295  1.00 15.06 LIG 0.16  HD
BRANCH 43 46
ATOM     46  CA  THR B 651      10.380 -24.177  10.395  1.00 18.25 LIG 0.20  C 
BRANCH 46 47
ATOM     47  N   THR B 651      11.214 -24.903   9.458  1.00 18.62 LIG-0.34  N 
ATOM     48 H    THR B 651      11.694 -24.407   8.946  1.00 18.62 LIG 0.16  HD
ATOM     49  C   PRO B 650      11.213 -26.218   9.421  1.00 22.21 LIG 0.25  C 
ATOM     50 O    PRO B 650      10.391 -26.893  10.023  1.00 21.73 LIG-0.27  OA
BRANCH 49 51
ATOM     51  CA  PRO B 650      12.329 -26.866   8.607  1.00 24.06 LIG 0.35  C 
ATOM     52  CB  PRO B 650      12.614 -28.315   8.998  1.00 25.19 LIG 0.05  C 
ATOM     53  CG  PRO B 650      14.081 -28.450   8.654  1.00 26.54 LIG 0.04  C 
ATOM     54  CD  PRO B 650      14.663 -27.128   9.100  1.00 26.80 LIG 0.32  C 
ATOM     55  N   PRO B 650      13.542 -26.200   8.962  1.00 26.10 LIG 0.32  N 
ENDBRANCH 49 51
ENDBRANCH 46 47
BRANCH 46 56
ATOM     56  CB  THR B 651      11.063 -22.808  10.680  1.00 18.88 LIG 0.15  C 
ATOM     57  CG2 THR B 651      10.994 -22.339  12.173  1.00 20.33 LIG 0.04  C 
BRANCH 56 58
ATOM     58 OG1  THR B 651      12.384 -22.885  10.145  1.00 19.33 LIG-0.39  OA
ATOM     59 HG1  THR B 651      12.564 -22.171   9.740  1.00 19.33 LIG 0.21  HD
ENDBRANCH 56 58
ENDBRANCH 46 56
ENDBRANCH 43 46
ENDBRANCH 41 42
BRANCH 41 60
ATOM     60  CB  VAL B 652       6.128 -24.926   9.104  1.00 13.27 LIG 0.01  C 
ATOM     61  CG1 VAL B 652       4.970 -25.261   8.306  1.00 15.32 LIG 0.01  C 
ATOM     62  CG2 VAL B 652       6.609 -26.144   9.892  1.00 15.72 LIG 0.01  C 
ENDBRANCH 41 60
ENDBRANCH 38 41
ENDBRANCH 1 37
TORSDOF 25
ENDMDL
MODEL 6
USER: ADFR SOLUTION from run 27
USER: SCORE 20.094019 LL:  -3.802 LR: -17.757 RR:   0.000 FEB: -10.300
USER: RMSD 11.345023
USER: SEED 26
USER: STATUS no improvement in best in 12 clusters for 5 generations
USER: GENES 27
USER: genes 0 Translation |==|  0.51650 0.59469 0.25777
USER: genes 1 Rotation |==|  0.79398 0.76571 0.29640 0.72697
USER: genes 2 Torsion [N]-CA--C-[N] |==|  0.95079
USER: genes 3 Torsion [C]-N--CA-[C] |==|  0.64815
USER: genes 4 Torsion [N]-CA--CB-[CG] |==|  0.77822
USER: genes 5 Torsion [CA]-CB--CG-[CD] |==|  0.69273
USER: genes 6 Torsion [CB]-CG--CD-[OE2] |==|  0.20496
USER: genes 7 Torsion [N]-CA--C-[N] |==|  0.85466
USER: genes 8 Torsion [C]-N--CA-[C] |==|  0.57063
USER: genes 9 Torsion [N]-CA--C-[N] |==|  0.43305
USER: genes 10 Torsion [C]-N--CA-[C] |==|  0.75860
USER: genes 11 Torsion [N]-CA--C-[OXT] |==|  0.81800
USER: genes 12 Torsion [N]-CA--CB-[CG] |==|  0.08162
USER: genes 13 Torsion [CA]-CB--CG-[OD1] |==|  0.32048
USER: genes 14 Torsion [N]-CA--CB-[CG2] |==|  0.02449
USER: genes 15 Torsion [C]-CA--CB-[CG] |==|  0.09880
USER: genes 16 Torsion [CA]-CB--CG-[CD] |==|  0.45400
USER: genes 17 Torsion [CB]-CG--CD-[OE2] |==|  0.86480
USER: genes 18 Torsion [C]-CA--N-[C] |==|  0.69300
USER: genes 19 Torsion [N]-C--CA-[N] |==|  0.27480
USER: genes 20 Torsion [C]-CA--N-[C] |==|  0.76111
USER: genes 21 Torsion [N]-C--CA-[N] |==|  0.89476
USER: genes 22 Torsion [C]-CA--N-[C] |==|  0.66325
USER: genes 23 Torsion [N]-C--CA-[CB] |==|  0.26596
USER: genes 24 Torsion [C]-CA--CB-[CG2] |==|  0.39633
USER: genes 25 Torsion [CA]-CB--OG1-[HG1] |==|  0.48758
USER: genes 26 Torsion [C]-CA--CB-[CG1] |==|  0.24004
ROOT
ATOM      1  CA  GLU B 653       4.998 -21.238   7.889  1.00 16.59 LIG 0.18  C 
ENDROOT
BRANCH 1 2
ATOM      2  C   GLU B 653       4.535 -20.350   9.062  1.00 17.01 LIG 0.24  C 
ATOM      3 O    GLU B 653       4.218 -19.158   8.881  1.00 18.89 LIG-0.27  OA
ATOM      4  N   GLU B 654       4.465 -20.931  10.247  1.00 17.47 LIG-0.35  N 
ATOM      5 H    GLU B 654       4.758 -21.726  10.394  1.00 17.47 LIG 0.16  HD
BRANCH 4 6
ATOM      6  CA  GLU B 654       3.901 -20.308  11.406  1.00 19.20 LIG 0.18  C 
BRANCH 6 7
ATOM      7  CB  GLU B 654       2.615 -21.018  11.791  1.00 21.36 LIG 0.04  C 
BRANCH 7 8
ATOM      8  CG  GLU B 654       1.445 -20.599  10.956  1.00 25.94 LIG 0.12  C 
BRANCH 8 9
ATOM      9  CD  GLU B 654       0.442 -19.804  11.720  1.00 34.53 LIG 0.17  C 
ATOM     10 OE2  GLU B 654       0.716 -18.610  12.021  1.00 38.43 LIG-0.65  OA
ATOM     11 OE1  GLU B 654      -0.645 -20.382  12.006  1.00 40.98 LIG-0.65  OA
ENDBRANCH 8 9
ENDBRANCH 7 8
ENDBRANCH 6 7
BRANCH 6 12
ATOM     12  C   GLU B 654       4.853 -20.325  12.581  1.00 18.66 LIG 0.24  C 
ATOM     13  N   VAL B 655       5.375 -21.509  12.918  1.00 18.37 LIG-0.35  N 
ATOM     14 H    VAL B 655       5.113 -22.256  12.584  1.00 18.37 LIG 0.16  HD
ATOM     15 O    GLU B 654       5.005 -19.309  13.238  1.00 17.95 LIG-0.27  OA
BRANCH 13 16
ATOM     16  CA  VAL B 655       6.454 -21.636  13.900  1.00 18.99 LIG 0.18  C 
BRANCH 16 17
ATOM     17  C   VAL B 655       7.218 -22.927  13.590  1.00 20.12 LIG 0.24  C 
ATOM     18 O    VAL B 655       6.669 -23.840  12.951  1.00 20.44 LIG-0.27  OA
ATOM     19  N   ASP B 656       8.480 -22.976  14.016  1.00 20.60 LIG-0.34  N 
ATOM     20 H    ASP B 656       8.860 -22.347  14.464  1.00 20.60 LIG 0.16  HD
BRANCH 19 21
ATOM     21  CA  ASP B 656       9.346 -24.139  13.744  1.00 22.64 LIG 0.20  C 
BRANCH 21 22
ATOM     22  C   ASP B 656       9.207 -25.243  14.805  1.00 24.92 LIG 0.20  C 
ATOM     23 OXT  ASP B 656       9.574 -25.029  15.998  1.00 27.50 LIG-0.65  OA
ATOM     24 O    ASP B 656       8.773 -26.373  14.500  1.00 24.52 LIG-0.65  OA
ENDBRANCH 21 22
BRANCH 21 25
ATOM     25  CB  ASP B 656      10.784 -23.651  13.676  1.00 22.32 LIG 0.15  C 
BRANCH 25 26
ATOM     26  CG  ASP B 656      11.013 -22.425  14.551  1.00 24.14 LIG 0.17  C 
ATOM     27 OD1  ASP B 656      11.787 -22.501  15.530  1.00 27.79 LIG-0.65  OA
ATOM     28 OD2  ASP B 656      10.466 -21.357  14.230  1.00 21.16 LIG-0.65  OA
ENDBRANCH 25 26
ENDBRANCH 21 25
ENDBRANCH 19 21
ENDBRANCH 16 17
BRANCH 16 29
ATOM     29  CB  VAL B 655       5.987 -21.676  15.358  1.00 17.39 LIG 0.01  C 
ATOM     30  CG2 VAL B 655       4.446 -21.793  15.450  1.00 19.33 LIG 0.01  C 
ATOM     31  CG1 VAL B 655       6.527 -20.428  16.158  1.00 17.58 LIG 0.01  C 
ENDBRANCH 16 29
ENDBRANCH 13 16
ENDBRANCH 6 12
ENDBRANCH 4 6
ENDBRANCH 1 2
BRANCH 1 32
ATOM     32  CB  GLU B 653       3.744 -21.582   7.015  1.00 16.22 LIG 0.04  C 
BRANCH 32 33
ATOM     33  CG  GLU B 653       2.741 -20.471   6.921  1.00 17.46 LIG 0.12  C 
BRANCH 33 34
ATOM     34  CD  GLU B 653       1.725 -20.644   5.757  1.00 17.13 LIG 0.17  C 
ATOM     35 OE1  GLU B 653       0.512 -20.493   6.043  1.00 19.48 LIG-0.65  OA
ATOM     36 OE2  GLU B 653       2.102 -20.926   4.567  1.00 19.36 LIG-0.65  OA
ENDBRANCH 33 34
ENDBRANCH 32 33
ENDBRANCH 1 32
BRANCH 1 37
ATOM     37  N   GLU B 653       5.684 -22.474   8.298  1.00 15.81 LIG-0.35  N 
ATOM     38  C   VAL B 652       6.993 -22.740   8.132  1.00 15.71 LIG 0.24  C 
ATOM     39 O    VAL B 652       7.800 -21.926   7.707  1.00 14.72 LIG-0.27  OA
ATOM     40 H    GLU B 653       5.151 -23.038   8.670  1.00 15.81 LIG 0.16  HD
BRANCH 38 41
ATOM     41  CA  VAL B 652       7.513 -24.121   8.676  1.00 15.41 LIG 0.18  C 
BRANCH 41 42
ATOM     42  N   VAL B 652       7.603 -25.075   7.585  1.00 15.06 LIG-0.35  N 
ATOM     43  C   THR B 651       6.541 -25.792   7.222  1.00 17.05 LIG 0.24  C 
ATOM     44 O    THR B 651       5.403 -25.561   7.612  1.00 16.18 LIG-0.27  OA
ATOM     45 H    VAL B 652       8.376 -25.127   7.212  1.00 15.06 LIG 0.16  HD
BRANCH 43 46
ATOM     46  CA  THR B 651       6.749 -26.849   6.170  1.00 18.25 LIG 0.20  C 
BRANCH 46 47
ATOM     47  N   THR B 651       7.671 -26.476   5.115  1.00 18.62 LIG-0.34  N 
ATOM     48 H    THR B 651       8.463 -26.277   5.385  1.00 18.62 LIG 0.16  HD
ATOM     49  C   PRO B 650       7.294 -26.456   3.855  1.00 22.21 LIG 0.25  C 
ATOM     50 O    PRO B 650       6.125 -26.558   3.517  1.00 21.73 LIG-0.27  OA
BRANCH 49 51
ATOM     51  CA  PRO B 650       8.412 -26.332   2.824  1.00 24.06 LIG 0.35  C 
ATOM     52  CB  PRO B 650       8.871 -27.673   2.252  1.00 25.19 LIG 0.05  C 
ATOM     53  CG  PRO B 650      10.318 -27.388   1.909  1.00 26.54 LIG 0.04  C 
ATOM     54  CD  PRO B 650      10.789 -26.549   3.075  1.00 26.80 LIG 0.32  C 
ATOM     55  N   PRO B 650       9.572 -25.874   3.522  1.00 26.10 LIG 0.32  N 
ENDBRANCH 49 51
ENDBRANCH 46 47
BRANCH 46 56
ATOM     56  CB  THR B 651       7.241 -28.192   6.782  1.00 18.88 LIG 0.15  C 
ATOM     57  CG2 THR B 651       6.654 -29.475   6.104  1.00 20.33 LIG 0.04  C 
BRANCH 56 58
ATOM     58 OG1  THR B 651       8.667 -28.137   6.809  1.00 19.33 LIG-0.39  OA
ATOM     59 HG1  THR B 651       8.966 -28.822   7.191  1.00 19.33 LIG 0.21  HD
ENDBRANCH 56 58
ENDBRANCH 46 56
ENDBRANCH 43 46
ENDBRANCH 41 42
BRANCH 41 60
ATOM     60  CB  VAL B 652       8.855 -23.902   9.437  1.00 13.27 LIG 0.01  C 
ATOM     61  CG1 VAL B 652       8.640 -23.549  10.823  1.00 15.32 LIG 0.01  C 
ATOM     62  CG2 VAL B 652       9.767 -25.123   9.328  1.00 15.72 LIG 0.01  C 
ENDBRANCH 41 60
ENDBRANCH 38 41
ENDBRANCH 1 37
TORSDOF 25
ENDMDL
MODEL 7
USER: ADFR SOLUTION from run 164
USER: SCORE 20.437064 LL:  -4.746 LR: -17.607 RR:   0.000 FEB: -10.149
USER: RMSD 10.723598
USER: SEED 163
USER: STATUS searching
USER: GENES 27
USER: genes 0 Translation |==|  0.49383 0.68830 0.40168
USER: genes 1 Rotation |==|  0.16590 0.15556 0.63121 0.55024
USER: genes 2 Torsion [N]-CA--C-[N] |==|  0.32836
USER: genes 3 Torsion [C]-N--CA-[C] |==|  0.57552
USER: genes 4 Torsion [N]-CA--CB-[CG] |==|  0.34611
USER: genes 5 Torsion [CA]-CB--CG-[CD] |==|  0.52323
USER: genes 6 Torsion [CB]-CG--CD-[OE2] |==|  0.98600
USER: genes 7 Torsion [N]-CA--C-[N] |==|  0.38191
USER: genes 8 Torsion [C]-N--CA-[C] |==|  0.63355
USER: genes 9 Torsion [N]-CA--C-[N] |==|  0.46470
USER: genes 10 Torsion [C]-N--CA-[C] |==|  0.68118
USER: genes 11 Torsion [N]-CA--C-[OXT] |==|  0.96921
USER: genes 12 Torsion [N]-CA--CB-[CG] |==|  0.89311
USER: genes 13 Torsion [CA]-CB--CG-[OD1] |==|  0.22825
USER: genes 14 Torsion [N]-CA--CB-[CG2] |==|  0.13601
USER: genes 15 Torsion [C]-CA--CB-[CG] |==|  0.79428
USER: genes 16 Torsion [CA]-CB--CG-[CD] |==|  0.44741
USER: genes 17 Torsion [CB]-CG--CD-[OE2] |==|  0.48304
USER: genes 18 Torsion [C]-CA--N-[C] |==|  0.61954
USER: genes 19 Torsion [N]-C--CA-[N] |==|  0.85750
USER: genes 20 Torsion [C]-CA--N-[C] |==|  0.71116
USER: genes 21 Torsion [N]-C--CA-[N] |==|  0.59051
USER: genes 22 Torsion [C]-CA--N-[C] |==|  0.20484
USER: genes 23 Torsion [N]-C--CA-[CB] |==|  0.73986
USER: genes 24 Torsion [C]-CA--CB-[CG2] |==|  0.20310
USER: genes 25 Torsion [CA]-CB--OG1-[HG1] |==|  0.25506
USER: genes 26 Torsion [C]-CA--CB-[CG1] |==|  0.75685
ROOT
ATOM      1  CA  GLU B 653       4.488 -19.693  11.235  1.00 16.59 LIG 0.18  C 
ENDROOT
BRANCH 1 2
ATOM      2  C   GLU B 653       4.823 -20.342  12.593  1.00 17.01 LIG 0.24  C 
ATOM      3 O    GLU B 653       4.203 -21.345  12.998  1.00 18.89 LIG-0.27  OA
ATOM      4  N   GLU B 654       5.813 -19.797  13.278  1.00 17.47 LIG-0.35  N 
ATOM      5 H    GLU B 654       6.191 -19.060  13.044  1.00 17.47 LIG 0.16  HD
BRANCH 4 6
ATOM      6  CA  GLU B 654       6.364 -20.365  14.470  1.00 19.20 LIG 0.18  C 
BRANCH 6 7
ATOM      7  CB  GLU B 654       7.432 -21.381  14.104  1.00 21.36 LIG 0.04  C 
BRANCH 7 8
ATOM      8  CG  GLU B 654       8.752 -21.097  14.750  1.00 25.94 LIG 0.12  C 
BRANCH 8 9
ATOM      9  CD  GLU B 654       9.847 -21.971  14.241  1.00 34.53 LIG 0.17  C 
ATOM     10 OE2  GLU B 654       9.560 -22.891  13.427  1.00 38.43 LIG-0.65  OA
ATOM     11 OE1  GLU B 654      11.016 -21.717  14.650  1.00 40.98 LIG-0.65  OA
ENDBRANCH 8 9
ENDBRANCH 7 8
ENDBRANCH 6 7
BRANCH 6 12
ATOM     12  C   GLU B 654       6.963 -19.315  15.378  1.00 18.66 LIG 0.24  C 
ATOM     13  N   VAL B 655       6.714 -19.435  16.686  1.00 18.37 LIG-0.35  N 
ATOM     14 H    VAL B 655       6.150 -19.994  17.014  1.00 18.37 LIG 0.16  HD
ATOM     15 O    GLU B 654       7.529 -18.354  14.884  1.00 17.95 LIG-0.27  OA
BRANCH 13 16
ATOM     16  CA  VAL B 655       7.392 -18.610  17.689  1.00 18.99 LIG 0.18  C 
BRANCH 16 17
ATOM     17  C   VAL B 655       7.895 -19.541  18.797  1.00 20.12 LIG 0.24  C 
ATOM     18 O    VAL B 655       7.521 -20.724  18.837  1.00 20.44 LIG-0.27  OA
ATOM     19  N   ASP B 656       8.759 -19.008  19.660  1.00 20.60 LIG-0.34  N 
ATOM     20 H    ASP B 656       9.014 -18.186  19.638  1.00 20.60 LIG 0.16  HD
BRANCH 19 21
ATOM     21  CA  ASP B 656       9.361 -19.803  20.747  1.00 22.64 LIG 0.20  C 
BRANCH 21 22
ATOM     22  C   ASP B 656       8.931 -19.322  22.143  1.00 24.92 LIG 0.20  C 
ATOM     23 OXT  ASP B 656       8.317 -18.222  22.275  1.00 27.50 LIG-0.65  OA
ATOM     24 O    ASP B 656       9.216 -19.982  23.163  1.00 24.52 LIG-0.65  OA
ENDBRANCH 21 22
BRANCH 21 25
ATOM     25  CB  ASP B 656      10.872 -19.729  20.605  1.00 22.32 LIG 0.15  C 
BRANCH 25 26
ATOM     26  CG  ASP B 656      11.312 -19.769  19.146  1.00 24.14 LIG 0.17  C 
ATOM     27 OD1  ASP B 656      11.291 -18.720  18.466  1.00 27.79 LIG-0.65  OA
ATOM     28 OD2  ASP B 656      11.739 -20.840  18.686  1.00 21.16 LIG-0.65  OA
ENDBRANCH 25 26
ENDBRANCH 21 25
ENDBRANCH 19 21
ENDBRANCH 16 17
BRANCH 16 29
ATOM     29  CB  VAL B 655       6.514 -17.524  18.318  1.00 17.39 LIG 0.01  C 
ATOM     30  CG2 VAL B 655       5.159 -18.103  18.791  1.00 19.33 LIG 0.01  C 
ATOM     31  CG1 VAL B 655       6.317 -16.313  17.325  1.00 17.58 LIG 0.01  C 
ENDBRANCH 16 29
ENDBRANCH 13 16
ENDBRANCH 6 12
ENDBRANCH 4 6
ENDBRANCH 1 2
BRANCH 1 32
ATOM     32  CB  GLU B 653       3.012 -19.171  11.296  1.00 16.22 LIG 0.04  C 
BRANCH 32 33
ATOM     33  CG  GLU B 653       1.977 -20.254  11.225  1.00 17.46 LIG 0.12  C 
BRANCH 33 34
ATOM     34  CD  GLU B 653       0.578 -19.816  11.742  1.00 17.13 LIG 0.17  C 
ATOM     35 OE1  GLU B 653       0.502 -18.675  12.259  1.00 19.48 LIG-0.65  OA
ATOM     36 OE2  GLU B 653      -0.446 -20.578  11.646  1.00 19.36 LIG-0.65  OA
ENDBRANCH 33 34
ENDBRANCH 32 33
ENDBRANCH 1 32
BRANCH 1 37
ATOM     37  N   GLU B 653       4.662 -20.585  10.077  1.00 15.81 LIG-0.35  N 
ATOM     38  C   VAL B 652       5.229 -20.251   8.903  1.00 15.71 LIG 0.24  C 
ATOM     39 O    VAL B 652       5.770 -19.174   8.697  1.00 14.72 LIG-0.27  OA
ATOM     40 H    GLU B 653       4.355 -21.376  10.223  1.00 15.81 LIG 0.16  HD
BRANCH 38 41
ATOM     41  CA  VAL B 652       5.333 -21.382   7.815  1.00 15.41 LIG 0.18  C 
BRANCH 41 42
ATOM     42  N   VAL B 652       5.947 -22.563   8.396  1.00 15.06 LIG-0.35  N 
ATOM     43  C   THR B 651       7.215 -22.869   8.129  1.00 17.05 LIG 0.24  C 
ATOM     44 O    THR B 651       7.995 -22.102   7.578  1.00 16.18 LIG-0.27  OA
ATOM     45 H    VAL B 652       5.431 -23.025   8.906  1.00 15.06 LIG 0.16  HD
BRANCH 43 46
ATOM     46  CA  THR B 651       7.736 -24.177   8.664  1.00 18.25 LIG 0.20  C 
BRANCH 46 47
ATOM     47  N   THR B 651       9.141 -24.165   9.021  1.00 18.62 LIG-0.34  N 
ATOM     48 H    THR B 651       9.653 -24.585   8.473  1.00 18.62 LIG 0.16  HD
ATOM     49  C   PRO B 650       9.564 -23.550  10.104  1.00 22.21 LIG 0.25  C 
ATOM     50 O    PRO B 650       8.803 -23.126  10.960  1.00 21.73 LIG-0.27  OA
BRANCH 49 51
ATOM     51  CA  PRO B 650      11.074 -23.361  10.219  1.00 24.06 LIG 0.35  C 
ATOM     52  CB  PRO B 650      11.774 -24.472  11.000  1.00 25.19 LIG 0.05  C 
ATOM     53  CG  PRO B 650      12.967 -23.744  11.580  1.00 26.54 LIG 0.04  C 
ATOM     54  CD  PRO B 650      12.391 -22.406  11.982  1.00 26.80 LIG 0.32  C 
ATOM     55  N   PRO B 650      11.288 -22.214  11.044  1.00 26.10 LIG 0.32  N 
ENDBRANCH 49 51
ENDBRANCH 46 47
BRANCH 46 56
ATOM     56  CB  THR B 651       6.932 -24.661   9.904  1.00 18.88 LIG 0.15  C 
ATOM     57  CG2 THR B 651       5.498 -25.205   9.585  1.00 20.33 LIG 0.04  C 
BRANCH 56 58
ATOM     58 OG1  THR B 651       7.769 -25.578  10.608  1.00 19.33 LIG-0.39  OA
ATOM     59 HG1  THR B 651       8.212 -25.164  11.189  1.00 19.33 LIG 0.21  HD
ENDBRANCH 56 58
ENDBRANCH 46 56
ENDBRANCH 43 46
ENDBRANCH 41 42
BRANCH 41 60
ATOM     60  CB  VAL B 652       3.925 -21.636   7.202  1.00 13.27 LIG 0.01  C 
ATOM     61  CG1 VAL B 652       3.171 -22.610   7.961  1.00 15.32 LIG 0.01  C 
ATOM     62  CG2 VAL B 652       3.133 -20.337   7.058  1.00 15.72 LIG 0.01  C 
ENDBRANCH 41 60
ENDBRANCH 38 41
ENDBRANCH 1 37
TORSDOF 25
ENDMDL
MODEL 8
USER: ADFR SOLUTION from run 136
USER: SCORE 18.479647 LL:  -3.168 LR: -17.521 RR:   0.000 FEB: -10.063
USER: RMSD 7.354682
USER: SEED 135
USER: STATUS no improvement in best in 5 clusters for 5 generations
USER: GENES 27
USER: genes 0 Translation |==|  0.41515 0.63966 0.40750
USER: genes 1 Rotation |==|  0.76286 0.68991 0.57240 0.87362
USER: genes 2 Torsion [N]-CA--C-[N] |==|  0.71033
USER: genes 3 Torsion [C]-N--CA-[C] |==|  0.58548
USER: genes 4 Torsion [N]-CA--CB-[CG] |==|  0.31452
USER: genes 5 Torsion [CA]-CB--CG-[CD] |==|  0.62713
USER: genes 6 Torsion [CB]-CG--CD-[OE2] |==|  0.25641
USER: genes 7 Torsion [N]-CA--C-[N] |==|  0.47467
USER: genes 8 Torsion [C]-N--CA-[C] |==|  0.78185
USER: genes 9 Torsion [N]-CA--C-[N] |==|  0.34114
USER: genes 10 Torsion [C]-N--CA-[C] |==|  0.85580
USER: genes 11 Torsion [N]-CA--C-[OXT] |==|  0.87431
USER: genes 12 Torsion [N]-CA--CB-[CG] |==|  0.65019
USER: genes 13 Torsion [CA]-CB--CG-[OD1] |==|  0.18731
USER: genes 14 Torsion [N]-CA--CB-[CG2] |==|  0.79273
USER: genes 15 Torsion [C]-CA--CB-[CG] |==|  0.25096
USER: genes 16 Torsion [CA]-CB--CG-[CD] |==|  0.16020
USER: genes 17 Torsion [CB]-CG--CD-[OE2] |==|  0.31790
USER: genes 18 Torsion [C]-CA--N-[C] |==|  0.59878
USER: genes 19 Torsion [N]-C--CA-[N] |==|  0.74830
USER: genes 20 Torsion [C]-CA--N-[C] |==|  0.75550
USER: genes 21 Torsion [N]-C--CA-[N] |==|  0.04532
USER: genes 22 Torsion [C]-CA--N-[C] |==|  0.65329
USER: genes 23 Torsion [N]-C--CA-[CB] |==|  0.88126
USER: genes 24 Torsion [C]-CA--CB-[CG2] |==|  0.19286
USER: genes 25 Torsion [CA]-CB--OG1-[HG1] |==|  0.32447
USER: genes 26 Torsion [C]-CA--CB-[CG1] |==|  0.24768
ROOT
ATOM      1  CA  GLU B 653       2.718 -20.496  11.370  1.00 16.59 LIG 0.18  C 
ENDROOT
BRANCH 1 2
ATOM      2  C   GLU B 653       1.181 -20.443  11.255  1.00 17.01 LIG 0.24  C 
ATOM      3 O    GLU B 653       0.502 -19.732  12.021  1.00 18.89 LIG-0.27  OA
ATOM      4  N   GLU B 654       0.638 -21.164  10.289  1.00 17.47 LIG-0.35  N 
ATOM      5 H    GLU B 654       1.090 -21.717   9.811  1.00 17.47 LIG 0.16  HD
BRANCH 4 6
ATOM      6  CA  GLU B 654      -0.747 -21.104   9.935  1.00 19.20 LIG 0.18  C 
BRANCH 6 7
ATOM      7  CB  GLU B 654      -0.959 -20.027   8.885  1.00 21.36 LIG 0.04  C 
BRANCH 7 8
ATOM      8  CG  GLU B 654      -1.374 -20.579   7.558  1.00 25.94 LIG 0.12  C 
BRANCH 8 9
ATOM      9  CD  GLU B 654      -0.623 -19.979   6.419  1.00 34.53 LIG 0.17  C 
ATOM     10 OE2  GLU B 654       0.427 -20.550   6.015  1.00 38.43 LIG-0.65  OA
ATOM     11 OE1  GLU B 654      -1.106 -18.927   5.910  1.00 40.98 LIG-0.65  OA
ENDBRANCH 8 9
ENDBRANCH 7 8
ENDBRANCH 6 7
BRANCH 6 12
ATOM     12  C   GLU B 654      -1.256 -22.426   9.405  1.00 18.66 LIG 0.24  C 
ATOM     13  N   VAL B 655      -2.576 -22.534   9.221  1.00 18.37 LIG-0.35  N 
ATOM     14 H    VAL B 655      -3.144 -21.949   9.493  1.00 18.37 LIG 0.16  HD
ATOM     15 O    GLU B 654      -0.480 -23.359   9.287  1.00 17.95 LIG-0.27  OA
BRANCH 13 16
ATOM     16  CA  VAL B 655      -3.178 -23.677   8.530  1.00 18.99 LIG 0.18  C 
BRANCH 16 17
ATOM     17  C   VAL B 655      -2.990 -23.465   7.024  1.00 20.12 LIG 0.24  C 
ATOM     18 O    VAL B 655      -3.402 -22.425   6.484  1.00 20.44 LIG-0.27  OA
ATOM     19  N   ASP B 656      -2.345 -24.432   6.374  1.00 20.60 LIG-0.34  N 
ATOM     20 H    ASP B 656      -2.065 -25.156   6.746  1.00 20.60 LIG 0.16  HD
BRANCH 19 21
ATOM     21  CA  ASP B 656      -2.053 -24.336   4.931  1.00 22.64 LIG 0.20  C 
BRANCH 21 22
ATOM     22  C   ASP B 656      -3.300 -24.010   4.094  1.00 24.92 LIG 0.20  C 
ATOM     23 OXT  ASP B 656      -4.388 -24.621   4.308  1.00 27.50 LIG-0.65  OA
ATOM     24 O    ASP B 656      -3.248 -23.175   3.167  1.00 24.52 LIG-0.65  OA
ENDBRANCH 21 22
BRANCH 21 25
ATOM     25  CB  ASP B 656      -1.446 -25.656   4.484  1.00 22.32 LIG 0.15  C 
BRANCH 25 26
ATOM     26  CG  ASP B 656      -0.108 -25.461   3.780  1.00 24.14 LIG 0.17  C 
ATOM     27 OD1  ASP B 656       0.877 -25.050   4.430  1.00 27.79 LIG-0.65  OA
ATOM     28 OD2  ASP B 656      -0.017 -25.775   2.583  1.00 21.16 LIG-0.65  OA
ENDBRANCH 25 26
ENDBRANCH 21 25
ENDBRANCH 19 21
ENDBRANCH 16 17
BRANCH 16 29
ATOM     29  CB  VAL B 655      -4.668 -23.881   8.818  1.00 17.39 LIG 0.01  C 
ATOM     30  CG2 VAL B 655      -4.891 -24.471  10.231  1.00 19.33 LIG 0.01  C 
ATOM     31  CG1 VAL B 655      -5.341 -24.771   7.701  1.00 17.58 LIG 0.01  C 
ENDBRANCH 16 29
ENDBRANCH 13 16
ENDBRANCH 6 12
ENDBRANCH 4 6
ENDBRANCH 1 2
BRANCH 1 32
ATOM     32  CB  GLU B 653       3.289 -21.023  10.010  1.00 16.22 LIG 0.04  C 
BRANCH 32 33
ATOM     33  CG  GLU B 653       3.598 -19.943   9.017  1.00 17.46 LIG 0.12  C 
BRANCH 33 34
ATOM     34  CD  GLU B 653       4.611 -18.885   9.541  1.00 17.13 LIG 0.17  C 
ATOM     35 OE1  GLU B 653       4.232 -18.173  10.502  1.00 19.48 LIG-0.65  OA
ATOM     36 OE2  GLU B 653       5.772 -18.747   9.021  1.00 19.36 LIG-0.65  OA
ENDBRANCH 33 34
ENDBRANCH 32 33
ENDBRANCH 1 32
BRANCH 1 37
ATOM     37  N   GLU B 653       3.215 -21.322  12.482  1.00 15.81 LIG-0.35  N 
ATOM     38  C   VAL B 652       4.306 -21.065  13.228  1.00 15.71 LIG 0.24  C 
ATOM     39 O    VAL B 652       4.963 -20.038  13.133  1.00 14.72 LIG-0.27  OA
ATOM     40 H    GLU B 653       2.725 -22.016  12.620  1.00 15.81 LIG 0.16  HD
BRANCH 38 41
ATOM     41  CA  VAL B 652       4.630 -22.077  14.388  1.00 15.41 LIG 0.18  C 
BRANCH 41 42
ATOM     42  N   VAL B 652       3.980 -21.643  15.611  1.00 15.06 LIG-0.35  N 
ATOM     43  C   THR B 651       4.588 -20.796  16.439  1.00 17.05 LIG 0.24  C 
ATOM     44 O    THR B 651       5.601 -20.173  16.146  1.00 16.18 LIG-0.27  OA
ATOM     45 H    VAL B 652       3.197 -21.974  15.742  1.00 15.06 LIG 0.16  HD
BRANCH 43 46
ATOM     46  CA  THR B 651       3.903 -20.497  17.747  1.00 18.25 LIG 0.20  C 
BRANCH 46 47
ATOM     47  N   THR B 651       2.861 -21.437  18.110  1.00 18.62 LIG-0.34  N 
ATOM     48 H    THR B 651       3.112 -22.258  18.134  1.00 18.62 LIG 0.16  HD
ATOM     49  C   PRO B 650       1.639 -21.030  18.376  1.00 22.21 LIG 0.25  C 
ATOM     50 O    PRO B 650       1.261 -19.890  18.153  1.00 21.73 LIG-0.27  OA
BRANCH 49 51
ATOM     51  CA  PRO B 650       0.716 -22.061  19.019  1.00 24.06 LIG 0.35  C 
ATOM     52  CB  PRO B 650       0.821 -23.453  18.396  1.00 25.19 LIG 0.05  C 
ATOM     53  CG  PRO B 650      -0.567 -24.007  18.633  1.00 26.54 LIG 0.04  C 
ATOM     54  CD  PRO B 650      -1.463 -22.821  18.361  1.00 26.80 LIG 0.32  C 
ATOM     55  N   PRO B 650      -0.623 -21.675  18.701  1.00 26.10 LIG 0.32  N 
ENDBRANCH 49 51
ENDBRANCH 46 47
BRANCH 46 56
ATOM     56  CB  THR B 651       4.912 -20.422  18.929  1.00 18.88 LIG 0.15  C 
ATOM     57  CG2 THR B 651       5.869 -19.183  18.896  1.00 20.33 LIG 0.04  C 
BRANCH 56 58
ATOM     58 OG1  THR B 651       4.151 -20.550  20.130  1.00 19.33 LIG-0.39  OA
ATOM     59 HG1  THR B 651       4.382 -21.249  20.534  1.00 19.33 LIG 0.21  HD
ENDBRANCH 56 58
ENDBRANCH 46 56
ENDBRANCH 43 46
ENDBRANCH 41 42
BRANCH 41 60
ATOM     60  CB  VAL B 652       4.239 -23.516  13.938  1.00 13.27 LIG 0.01  C 
ATOM     61  CG1 VAL B 652       5.329 -24.187  13.264  1.00 15.32 LIG 0.01  C 
ATOM     62  CG2 VAL B 652       3.737 -24.353  15.114  1.00 15.72 LIG 0.01  C 
ENDBRANCH 41 60
ENDBRANCH 38 41
ENDBRANCH 1 37
TORSDOF 25
ENDMDL
MODEL 9
USER: ADFR SOLUTION from run 109
USER: SCORE 20.885429 LL:  -3.659 LR: -17.512 RR:   0.000 FEB: -10.054
USER: RMSD 4.512930
USER: SEED 108
USER: STATUS searching
USER: GENES 27
USER: genes 0 Translation |==|  0.50017 0.57392 0.57270
USER: genes 1 Rotation |==|  0.58632 0.55370 0.67610 0.95679
USER: genes 2 Torsion [N]-CA--C-[N] |==|  0.38248
USER: genes 3 Torsion [C]-N--CA-[C] |==|  0.76888
USER: genes 4 Torsion [N]-CA--CB-[CG] |==|  0.61005
USER: genes 5 Torsion [CA]-CB--CG-[CD] |==|  0.26522
USER: genes 6 Torsion [CB]-CG--CD-[OE2] |==|  0.63380
USER: genes 7 Torsion [N]-CA--C-[N] |==|  0.33450
USER: genes 8 Torsion [C]-N--CA-[C] |==|  0.73962
USER: genes 9 Torsion [N]-CA--C-[N] |==|  0.02771
USER: genes 10 Torsion [C]-N--CA-[C] |==|  0.84642
USER: genes 11 Torsion [N]-CA--C-[OXT] |==|  0.28308
USER: genes 12 Torsion [N]-CA--CB-[CG] |==|  0.45687
USER: genes 13 Torsion [CA]-CB--CG-[OD1] |==|  0.68968
USER: genes 14 Torsion [N]-CA--CB-[CG2] |==|  0.02965
USER: genes 15 Torsion [C]-CA--CB-[CG] |==|  0.39985
USER: genes 16 Torsion [CA]-CB--CG-[CD] |==|  0.92181
USER: genes 17 Torsion [CB]-CG--CD-[OE2] |==|  0.91725
USER: genes 18 Torsion [C]-CA--N-[C] |==|  0.77908
USER: genes 19 Torsion [N]-C--CA-[N] |==|  0.91348
USER: genes 20 Torsion [C]-CA--N-[C] |==|  0.83662
USER: genes 21 Torsion [N]-C--CA-[N] |==|  0.98865
USER: genes 22 Torsion [C]-CA--N-[C] |==|  0.79958
USER: genes 23 Torsion [N]-C--CA-[CB] |==|  0.01137
USER: genes 24 Torsion [C]-CA--CB-[CG2] |==|  0.32681
USER: genes 25 Torsion [CA]-CB--OG1-[HG1] |==|  0.18480
USER: genes 26 Torsion [C]-CA--CB-[CG1] |==|  0.81500
ROOT
ATOM      1  CA  GLU B 653       4.631 -21.580  15.211  1.00 16.59 LIG 0.18  C 
ENDROOT
BRANCH 1 2
ATOM      2  C   GLU B 653       3.791 -22.199  14.076  1.00 17.01 LIG 0.24  C 
ATOM      3 O    GLU B 653       3.243 -23.311  14.213  1.00 18.89 LIG-0.27  OA
ATOM      4  N   GLU B 654       3.663 -21.476  12.978  1.00 17.47 LIG-0.35  N 
ATOM      5 H    GLU B 654       4.101 -20.749  12.845  1.00 17.47 LIG 0.16  HD
BRANCH 4 6
ATOM      6  CA  GLU B 654       2.789 -21.819  11.897  1.00 19.20 LIG 0.18  C 
BRANCH 6 7
ATOM      7  CB  GLU B 654       2.415 -20.565  11.126  1.00 21.36 LIG 0.04  C 
BRANCH 7 8
ATOM      8  CG  GLU B 654       0.982 -20.550  10.696  1.00 25.94 LIG 0.12  C 
BRANCH 8 9
ATOM      9  CD  GLU B 654       0.100 -19.810  11.643  1.00 34.53 LIG 0.17  C 
ATOM     10 OE2  GLU B 654      -0.975 -20.351  12.021  1.00 38.43 LIG-0.65  OA
ATOM     11 OE1  GLU B 654       0.503 -18.675  12.028  1.00 40.98 LIG-0.65  OA
ENDBRANCH 8 9
ENDBRANCH 7 8
ENDBRANCH 6 7
BRANCH 6 12
ATOM     12  C   GLU B 654       3.418 -22.818  10.952  1.00 18.66 LIG 0.24  C 
ATOM     13  N   VAL B 655       2.781 -23.983  10.794  1.00 18.37 LIG-0.35  N 
ATOM     14 H    VAL B 655       2.116 -24.231  11.278  1.00 18.37 LIG 0.16  HD
ATOM     15 O    GLU B 654       4.517 -22.580  10.479  1.00 17.95 LIG-0.27  OA
BRANCH 13 16
ATOM     16  CA  VAL B 655       3.168 -24.952   9.765  1.00 18.99 LIG 0.18  C 
BRANCH 16 17
ATOM     17  C   VAL B 655       2.303 -24.690   8.528  1.00 20.12 LIG 0.24  C 
ATOM     18 O    VAL B 655       2.284 -25.510   7.594  1.00 20.44 LIG-0.27  OA
ATOM     19  N   ASP B 656       1.576 -23.574   8.549  1.00 20.60 LIG-0.34  N 
ATOM     20 H    ASP B 656       1.593 -23.003   9.192  1.00 20.60 LIG 0.16  HD
BRANCH 19 21
ATOM     21  CA  ASP B 656       0.663 -23.223   7.444  1.00 22.64 LIG 0.20  C 
BRANCH 21 22
ATOM     22  C   ASP B 656       1.369 -23.184   6.079  1.00 24.92 LIG 0.20  C 
ATOM     23 OXT  ASP B 656       1.242 -24.150   5.270  1.00 27.50 LIG-0.65  OA
ATOM     24 O    ASP B 656       2.107 -22.228   5.768  1.00 24.52 LIG-0.65  OA
ENDBRANCH 21 22
BRANCH 21 25
ATOM     25  CB  ASP B 656       0.045 -21.870   7.757  1.00 22.32 LIG 0.15  C 
BRANCH 25 26
ATOM     26  CG  ASP B 656      -0.609 -21.243   6.531  1.00 24.14 LIG 0.17  C 
ATOM     27 OD1  ASP B 656      -0.109 -20.218   6.021  1.00 27.79 LIG-0.65  OA
ATOM     28 OD2  ASP B 656      -1.596 -21.808   6.032  1.00 21.16 LIG-0.65  OA
ENDBRANCH 25 26
ENDBRANCH 21 25
ENDBRANCH 19 21
ENDBRANCH 16 17
BRANCH 16 29
ATOM     29  CB  VAL B 655       3.006 -26.418  10.180  1.00 17.39 LIG 0.01  C 
ATOM     30  CG2 VAL B 655       2.217 -26.542  11.505  1.00 19.33 LIG 0.01  C 
ATOM     31  CG1 VAL B 655       4.408 -27.138  10.265  1.00 17.58 LIG 0.01  C 
ENDBRANCH 16 29
ENDBRANCH 13 16
ENDBRANCH 6 12
ENDBRANCH 4 6
ENDBRANCH 1 2
BRANCH 1 32
ATOM     32  CB  GLU B 653       6.066 -22.208  15.152  1.00 16.22 LIG 0.04  C 
BRANCH 32 33
ATOM     33  CG  GLU B 653       7.166 -21.252  15.503  1.00 17.46 LIG 0.12  C 
BRANCH 33 34
ATOM     34  CD  GLU B 653       6.827 -19.767  15.187  1.00 17.13 LIG 0.17  C 
ATOM     35 OE1  GLU B 653       7.364 -18.900  15.918  1.00 19.48 LIG-0.65  OA
ATOM     36 OE2  GLU B 653       6.043 -19.443  14.229  1.00 19.36 LIG-0.65  OA
ENDBRANCH 33 34
ENDBRANCH 32 33
ENDBRANCH 1 32
BRANCH 1 37
ATOM     37  N   GLU B 653       4.057 -21.756  16.556  1.00 15.81 LIG-0.35  N 
ATOM     38  C   VAL B 652       3.061 -21.024  17.088  1.00 15.71 LIG 0.24  C 
ATOM     39 O    VAL B 652       2.436 -20.178  16.465  1.00 14.72 LIG-0.27  OA
ATOM     40 H    GLU B 653       4.431 -22.397  16.991  1.00 15.81 LIG 0.16  HD
BRANCH 38 41
ATOM     41  CA  VAL B 652       2.589 -21.412  18.538  1.00 15.41 LIG 0.18  C 
BRANCH 41 42
ATOM     42  N   VAL B 652       2.760 -22.840  18.741  1.00 15.06 LIG-0.35  N 
ATOM     43  C   THR B 651       2.147 -23.715  17.948  1.00 17.05 LIG 0.24  C 
ATOM     44 O    THR B 651       1.593 -23.408  16.899  1.00 16.18 LIG-0.27  OA
ATOM     45 H    VAL B 652       3.274 -23.053  19.397  1.00 15.06 LIG 0.16  HD
BRANCH 43 46
ATOM     46  CA  THR B 651       2.271 -25.173  18.303  1.00 18.25 LIG 0.20  C 
BRANCH 46 47
ATOM     47  N   THR B 651       3.134 -25.447  19.435  1.00 18.62 LIG-0.34  N 
ATOM     48 H    THR B 651       2.722 -25.686  20.150  1.00 18.62 LIG 0.16  HD
ATOM     49  C   PRO B 650       4.441 -25.328  19.340  1.00 22.21 LIG 0.25  C 
ATOM     50 O    PRO B 650       4.986 -24.808  18.378  1.00 21.73 LIG-0.27  OA
BRANCH 49 51
ATOM     51  CA  PRO B 650       5.251 -25.914  20.492  1.00 24.06 LIG 0.35  C 
ATOM     52  CB  PRO B 650       4.401 -26.639  21.535  1.00 25.19 LIG 0.05  C 
ATOM     53  CG  PRO B 650       5.222 -26.452  22.793  1.00 26.54 LIG 0.04  C 
ATOM     54  CD  PRO B 650       5.716 -25.029  22.674  1.00 26.80 LIG 0.32  C 
ATOM     55  N   PRO B 650       5.781 -24.811  21.230  1.00 26.10 LIG 0.32  N 
ENDBRANCH 49 51
ENDBRANCH 46 47
BRANCH 46 56
ATOM     56  CB  THR B 651       0.887 -25.823  18.591  1.00 18.88 LIG 0.15  C 
ATOM     57  CG2 THR B 651       0.489 -26.981  17.614  1.00 20.33 LIG 0.04  C 
BRANCH 56 58
ATOM     58 OG1  THR B 651       0.878 -26.185  19.972  1.00 19.33 LIG-0.39  OA
ATOM     59 HG1  THR B 651       0.899 -25.491  20.444  1.00 19.33 LIG 0.21  HD
ENDBRANCH 56 58
ENDBRANCH 46 56
ENDBRANCH 43 46
ENDBRANCH 41 42
BRANCH 41 60
ATOM     60  CB  VAL B 652       3.342 -20.530  19.577  1.00 13.27 LIG 0.01  C 
ATOM     61  CG1 VAL B 652       4.758 -20.821  19.609  1.00 15.32 LIG 0.01  C 
ATOM     62  CG2 VAL B 652       3.104 -19.041  19.326  1.00 15.72 LIG 0.01  C 
ENDBRANCH 41 60
ENDBRANCH 38 41
ENDBRANCH 1 37
TORSDOF 25
ENDMDL
MODEL 10
USER: ADFR SOLUTION from run 101
USER: SCORE 20.144556 LL:  -4.082 LR: -17.457 RR:   0.000 FEB: -10.000
USER: RMSD 7.518172
USER: SEED 100
USER: STATUS no improvement in best in 6 clusters for 5 generations
USER: GENES 27
USER: genes 0 Translation |==|  0.42125 0.52171 0.41580
USER: genes 1 Rotation |==|  0.56776 0.63256 0.97467 0.55029
USER: genes 2 Torsion [N]-CA--C-[N] |==|  0.68333
USER: genes 3 Torsion [C]-N--CA-[C] |==|  0.77704
USER: genes 4 Torsion [N]-CA--CB-[CG] |==|  0.84972
USER: genes 5 Torsion [CA]-CB--CG-[CD] |==|  0.71481
USER: genes 6 Torsion [CB]-CG--CD-[OE2] |==|  0.48715
USER: genes 7 Torsion [N]-CA--C-[N] |==|  0.19977
USER: genes 8 Torsion [C]-N--CA-[C] |==|  0.65549
USER: genes 9 Torsion [N]-CA--C-[N] |==|  0.33223
USER: genes 10 Torsion [C]-N--CA-[C] |==|  0.76089
USER: genes 11 Torsion [N]-CA--C-[OXT] |==|  0.13511
USER: genes 12 Torsion [N]-CA--CB-[CG] |==|  0.70592
USER: genes 13 Torsion [CA]-CB--CG-[OD1] |==|  0.04009
USER: genes 14 Torsion [N]-CA--CB-[CG2] |==|  0.09527
USER: genes 15 Torsion [C]-CA--CB-[CG] |==|  0.22447
USER: genes 16 Torsion [CA]-CB--CG-[CD] |==|  0.31900
USER: genes 17 Torsion [CB]-CG--CD-[OE2] |==|  0.18111
USER: genes 18 Torsion [C]-CA--N-[C] |==|  0.18690
USER: genes 19 Torsion [N]-C--CA-[N] |==|  0.89521
USER: genes 20 Torsion [C]-CA--N-[C] |==|  0.81261
USER: genes 21 Torsion [N]-C--CA-[N] |==|  0.01536
USER: genes 22 Torsion [C]-CA--N-[C] |==|  0.66348
USER: genes 23 Torsion [N]-C--CA-[CB] |==|  0.71482
USER: genes 24 Torsion [C]-CA--CB-[CG2] |==|  0.35282
USER: genes 25 Torsion [CA]-CB--OG1-[HG1] |==|  0.73417
USER: genes 26 Torsion [C]-CA--CB-[CG1] |==|  0.24996
ROOT
ATOM      1  CA  GLU B 653       2.855 -22.442  11.563  1.00 16.59 LIG 0.18  C 
ENDROOT
BRANCH 1 2
ATOM      2  C   GLU B 653       3.433 -22.939  10.223  1.00 17.01 LIG 0.24  C 
ATOM      3 O    GLU B 653       3.548 -24.157   9.984  1.00 18.89 LIG-0.27  OA
ATOM      4  N   GLU B 654       3.765 -22.009   9.344  1.00 17.47 LIG-0.35  N 
ATOM      5 H    GLU B 654       3.764 -21.170   9.532  1.00 17.47 LIG 0.16  HD
BRANCH 4 6
ATOM      6  CA  GLU B 654       4.157 -22.292   7.998  1.00 19.20 LIG 0.18  C 
BRANCH 6 7
ATOM      7  CB  GLU B 654       3.947 -21.059   7.136  1.00 21.36 LIG 0.04  C 
BRANCH 7 8
ATOM      8  CG  GLU B 654       2.553 -20.520   7.217  1.00 25.94 LIG 0.12  C 
BRANCH 8 9
ATOM      9  CD  GLU B 654       1.726 -20.872   6.028  1.00 34.53 LIG 0.17  C 
ATOM     10 OE2  GLU B 654       0.506 -20.550   6.021  1.00 38.43 LIG-0.65  OA
ATOM     11 OE1  GLU B 654       2.315 -21.465   5.080  1.00 40.98 LIG-0.65  OA
ENDBRANCH 8 9
ENDBRANCH 7 8
ENDBRANCH 6 7
BRANCH 6 12
ATOM     12  C   GLU B 654       5.604 -22.725   7.905  1.00 18.66 LIG 0.24  C 
ATOM     13  N   VAL B 655       5.899 -23.943   8.369  1.00 18.37 LIG-0.35  N 
ATOM     14 H    VAL B 655       5.347 -24.431   8.812  1.00 18.37 LIG 0.16  HD
ATOM     15 O    GLU B 654       6.443 -21.921   7.536  1.00 17.95 LIG-0.27  OA
BRANCH 13 16
ATOM     16  CA  VAL B 655       7.210 -24.562   8.160  1.00 18.99 LIG 0.18  C 
BRANCH 16 17
ATOM     17  C   VAL B 655       6.985 -25.912   7.470  1.00 20.12 LIG 0.24  C 
ATOM     18 O    VAL B 655       6.283 -26.781   8.011  1.00 20.44 LIG-0.27  OA
ATOM     19  N   ASP B 656       7.554 -26.058   6.274  1.00 20.60 LIG-0.34  N 
ATOM     20 H    ASP B 656       8.046 -25.459   5.901  1.00 20.60 LIG 0.16  HD
BRANCH 19 21
ATOM     21  CA  ASP B 656       7.380 -27.288   5.477  1.00 22.64 LIG 0.20  C 
BRANCH 21 22
ATOM     22  C   ASP B 656       8.399 -28.379   5.840  1.00 24.92 LIG 0.20  C 
ATOM     23 OXT  ASP B 656       8.598 -28.687   7.052  1.00 27.50 LIG-0.65  OA
ATOM     24 O    ASP B 656       9.073 -28.945   4.955  1.00 24.52 LIG-0.65  OA
ENDBRANCH 21 22
BRANCH 21 25
ATOM     25  CB  ASP B 656       7.501 -26.918   4.008  1.00 22.32 LIG 0.15  C 
BRANCH 25 26
ATOM     26  CG  ASP B 656       6.150 -26.923   3.303  1.00 24.14 LIG 0.17  C 
ATOM     27 OD1  ASP B 656       5.100 -26.941   3.981  1.00 27.79 LIG-0.65  OA
ATOM     28 OD2  ASP B 656       6.128 -26.848   2.064  1.00 21.16 LIG-0.65  OA
ENDBRANCH 25 26
ENDBRANCH 21 25
ENDBRANCH 19 21
ENDBRANCH 16 17
BRANCH 16 29
ATOM     29  CB  VAL B 655       8.017 -24.792   9.441  1.00 17.39 LIG 0.01  C 
ATOM     30  CG2 VAL B 655       7.092 -25.140  10.632  1.00 19.33 LIG 0.01  C 
ATOM     31  CG1 VAL B 655       8.936 -23.548   9.760  1.00 17.58 LIG 0.01  C 
ENDBRANCH 16 29
ENDBRANCH 13 16
ENDBRANCH 6 12
ENDBRANCH 4 6
ENDBRANCH 1 2
BRANCH 1 32
ATOM     32  CB  GLU B 653       2.597 -20.901  11.440  1.00 16.22 LIG 0.04  C 
BRANCH 32 33
ATOM     33  CG  GLU B 653       1.320 -20.549  10.738  1.00 17.46 LIG 0.12  C 
BRANCH 33 34
ATOM     34  CD  GLU B 653       0.282 -19.836  11.650  1.00 17.13 LIG 0.17  C 
ATOM     35 OE1  GLU B 653      -0.784 -20.456  11.880  1.00 19.48 LIG-0.65  OA
ATOM     36 OE2  GLU B 653       0.503 -18.676  12.143  1.00 19.36 LIG-0.65  OA
ENDBRANCH 33 34
ENDBRANCH 32 33
ENDBRANCH 1 32
BRANCH 1 37
ATOM     37  N   GLU B 653       3.707 -22.720  12.732  1.00 15.81 LIG-0.35  N 
ATOM     38  C   VAL B 652       4.910 -22.170  12.977  1.00 15.71 LIG 0.24  C 
ATOM     39 O    VAL B 652       5.398 -21.279  12.297  1.00 14.72 LIG-0.27  OA
ATOM     40 H    GLU B 653       3.352 -23.292  13.268  1.00 15.81 LIG 0.16  HD
BRANCH 38 41
ATOM     41  CA  VAL B 652       5.630 -22.596  14.309  1.00 15.41 LIG 0.18  C 
BRANCH 41 42
ATOM     42  N   VAL B 652       4.648 -22.742  15.370  1.00 15.06 LIG-0.35  N 
ATOM     43  C   THR B 651       3.998 -21.681  15.842  1.00 17.05 LIG 0.24  C 
ATOM     44 O    THR B 651       4.010 -20.582  15.300  1.00 16.18 LIG-0.27  OA
ATOM     45 H    VAL B 652       4.534 -23.547  15.650  1.00 15.06 LIG 0.16  HD
BRANCH 43 46
ATOM     46  CA  THR B 651       3.094 -21.896  17.027  1.00 18.25 LIG 0.20  C 
BRANCH 46 47
ATOM     47  N   THR B 651       3.143 -23.231  17.588  1.00 18.62 LIG-0.34  N 
ATOM     48 H    THR B 651       3.921 -23.477  17.860  1.00 18.62 LIG 0.16  HD
ATOM     49  C   PRO B 650       2.065 -23.981  17.662  1.00 22.21 LIG 0.25  C 
ATOM     50 O    PRO B 650       1.020 -23.687  17.102  1.00 21.73 LIG-0.27  OA
BRANCH 49 51
ATOM     51  CA  PRO B 650       2.179 -25.235  18.523  1.00 24.06 LIG 0.35  C 
ATOM     52  CB  PRO B 650       2.353 -26.521  17.717  1.00 25.19 LIG 0.05  C 
ATOM     53  CG  PRO B 650       1.723 -27.551  18.629  1.00 26.54 LIG 0.04  C 
ATOM     54  CD  PRO B 650       0.510 -26.831  19.174  1.00 26.80 LIG 0.32  C 
ATOM     55  N   PRO B 650       0.909 -25.426  19.150  1.00 26.10 LIG 0.32  N 
ENDBRANCH 49 51
ENDBRANCH 46 47
BRANCH 46 56
ATOM     56  CB  THR B 651       3.384 -20.885  18.172  1.00 18.88 LIG 0.15  C 
ATOM     57  CG2 THR B 651       2.132 -20.094  18.682  1.00 20.33 LIG 0.04  C 
BRANCH 56 58
ATOM     58 OG1  THR B 651       4.084 -21.601  19.189  1.00 19.33 LIG-0.39  OA
ATOM     59 HG1  THR B 651       3.539 -21.864  19.772  1.00 19.33 LIG 0.21  HD
ENDBRANCH 56 58
ENDBRANCH 46 56
ENDBRANCH 43 46
ENDBRANCH 41 42
BRANCH 41 60
ATOM     60  CB  VAL B 652       6.475 -23.878  14.049  1.00 13.27 LIG 0.01  C 
ATOM     61  CG1 VAL B 652       7.824 -23.562  13.633  1.00 15.32 LIG 0.01  C 
ATOM     62  CG2 VAL B 652       6.491 -24.796  15.271  1.00 15.72 LIG 0.01  C 
ENDBRANCH 41 60
ENDBRANCH 38 41
ENDBRANCH 1 37
TORSDOF 25
ENDMDL
MODEL 11
USER: ADFR SOLUTION from run 178
USER: SCORE 20.005816 LL:  -3.820 LR: -17.445 RR:   0.000 FEB:  -9.987
USER: RMSD 10.604722
USER: SEED 177
USER: STATUS searching
USER: GENES 27
USER: genes 0 Translation |==|  0.49361 0.66799 0.40262
USER: genes 1 Rotation |==|  0.14967 0.17062 0.61960 0.56685
USER: genes 2 Torsion [N]-CA--C-[N] |==|  0.29358
USER: genes 3 Torsion [C]-N--CA-[C] |==|  0.80556
USER: genes 4 Torsion [N]-CA--CB-[CG] |==|  0.66794
USER: genes 5 Torsion [CA]-CB--CG-[CD] |==|  0.60560
USER: genes 6 Torsion [CB]-CG--CD-[OE2] |==|  0.21146
USER: genes 7 Torsion [N]-CA--C-[N] |==|  0.51076
USER: genes 8 Torsion [C]-N--CA-[C] |==|  0.83639
USER: genes 9 Torsion [N]-CA--C-[N] |==|  0.89567
USER: genes 10 Torsion [C]-N--CA-[C] |==|  0.78443
USER: genes 11 Torsion [N]-CA--C-[OXT] |==|  0.78523
USER: genes 12 Torsion [N]-CA--CB-[CG] |==|  0.84395
USER: genes 13 Torsion [CA]-CB--CG-[OD1] |==|  0.39685
USER: genes 14 Torsion [N]-CA--CB-[CG2] |==|  0.12672
USER: genes 15 Torsion [C]-CA--CB-[CG] |==|  0.78610
USER: genes 16 Torsion [CA]-CB--CG-[CD] |==|  0.44051
USER: genes 17 Torsion [CB]-CG--CD-[OE2] |==|  0.99715
USER: genes 18 Torsion [C]-CA--N-[C] |==|  0.60616
USER: genes 19 Torsion [N]-C--CA-[N] |==|  0.87302
USER: genes 20 Torsion [C]-CA--N-[C] |==|  0.74579
USER: genes 21 Torsion [N]-C--CA-[N] |==|  0.30403
USER: genes 22 Torsion [C]-CA--N-[C] |==|  0.75126
USER: genes 23 Torsion [N]-C--CA-[CB] |==|  0.07788
USER: genes 24 Torsion [C]-CA--CB-[CG2] |==|  0.41656
USER: genes 25 Torsion [CA]-CB--OG1-[HG1] |==|  0.08020
USER: genes 26 Torsion [C]-CA--CB-[CG1] |==|  0.76829
ROOT
ATOM      1  CA  GLU B 653       4.483 -20.028  11.257  1.00 16.59 LIG 0.18  C 
ENDROOT
BRANCH 1 2
ATOM      2  C   GLU B 653       4.748 -20.782  12.576  1.00 17.01 LIG 0.24  C 
ATOM      3 O    GLU B 653       3.905 -21.571  13.047  1.00 18.89 LIG-0.27  OA
ATOM      4  N   GLU B 654       5.918 -20.567  13.152  1.00 17.47 LIG-0.35  N 
ATOM      5 H    GLU B 654       6.469 -19.966  12.878  1.00 17.47 LIG 0.16  HD
BRANCH 4 6
ATOM      6  CA  GLU B 654       6.394 -21.302  14.283  1.00 19.20 LIG 0.18  C 
BRANCH 6 7
ATOM      7  CB  GLU B 654       7.866 -21.000  14.505  1.00 21.36 LIG 0.04  C 
BRANCH 7 8
ATOM      8  CG  GLU B 654       8.733 -22.216  14.407  1.00 25.94 LIG 0.12  C 
BRANCH 8 9
ATOM      9  CD  GLU B 654       9.845 -22.217  15.399  1.00 34.53 LIG 0.17  C 
ATOM     10 OE2  GLU B 654       9.584 -22.490  16.603  1.00 38.43 LIG-0.65  OA
ATOM     11 OE1  GLU B 654      11.001 -21.958  14.959  1.00 40.98 LIG-0.65  OA
ENDBRANCH 8 9
ENDBRANCH 7 8
ENDBRANCH 6 7
BRANCH 6 12
ATOM     12  C   GLU B 654       5.622 -20.974  15.542  1.00 18.66 LIG 0.24  C 
ATOM     13  N   VAL B 655       6.040 -21.549  16.673  1.00 18.37 LIG-0.35  N 
ATOM     14 H    VAL B 655       6.635 -22.169  16.701  1.00 18.37 LIG 0.16  HD
ATOM     15 O    GLU B 654       4.599 -20.316  15.458  1.00 17.95 LIG-0.27  OA
BRANCH 13 16
ATOM     16  CA  VAL B 655       5.514 -21.166  17.986  1.00 18.99 LIG 0.18  C 
BRANCH 16 17
ATOM     17  C   VAL B 655       5.792 -19.672  18.184  1.00 20.12 LIG 0.24  C 
ATOM     18 O    VAL B 655       4.971 -18.957  18.782  1.00 20.44 LIG-0.27  OA
ATOM     19  N   ASP B 656       6.955 -19.227  17.710  1.00 20.60 LIG-0.34  N 
ATOM     20 H    ASP B 656       7.522 -19.719  17.290  1.00 20.60 LIG 0.16  HD
BRANCH 19 21
ATOM     21  CA  ASP B 656       7.372 -17.821  17.874  1.00 22.64 LIG 0.20  C 
BRANCH 21 22
ATOM     22  C   ASP B 656       6.669 -16.875  16.888  1.00 24.92 LIG 0.20  C 
ATOM     23 OXT  ASP B 656       7.045 -16.820  15.680  1.00 27.50 LIG-0.65  OA
ATOM     24 O    ASP B 656       5.752 -16.119  17.270  1.00 24.52 LIG-0.65  OA
ENDBRANCH 21 22
BRANCH 21 25
ATOM     25  CB  ASP B 656       8.879 -17.753  17.689  1.00 22.32 LIG 0.15  C 
BRANCH 25 26
ATOM     26  CG  ASP B 656       9.616 -18.682  18.647  1.00 24.14 LIG 0.17  C 
ATOM     27 OD1  ASP B 656      10.639 -19.285  18.258  1.00 27.79 LIG-0.65  OA
ATOM     28 OD2  ASP B 656       9.210 -18.769  19.817  1.00 21.16 LIG-0.65  OA
ENDBRANCH 25 26
ENDBRANCH 21 25
ENDBRANCH 19 21
ENDBRANCH 16 17
BRANCH 16 29
ATOM     29  CB  VAL B 655       6.115 -21.940  19.163  1.00 17.39 LIG 0.01  C 
ATOM     30  CG2 VAL B 655       7.655 -22.034  19.044  1.00 19.33 LIG 0.01  C 
ATOM     31  CG1 VAL B 655       5.452 -23.366  19.299  1.00 17.58 LIG 0.01  C 
ENDBRANCH 16 29
ENDBRANCH 13 16
ENDBRANCH 6 12
ENDBRANCH 4 6
ENDBRANCH 1 2
BRANCH 1 32
ATOM     32  CB  GLU B 653       3.071 -19.356  11.356  1.00 16.22 LIG 0.04  C 
BRANCH 32 33
ATOM     33  CG  GLU B 653       1.927 -20.306  11.164  1.00 17.46 LIG 0.12  C 
BRANCH 33 34
ATOM     34  CD  GLU B 653       0.585 -19.797  11.763  1.00 17.13 LIG 0.17  C 
ATOM     35 OE1  GLU B 653      -0.414 -20.542  11.616  1.00 19.48 LIG-0.65  OA
ATOM     36 OE2  GLU B 653       0.502 -18.677  12.376  1.00 19.36 LIG-0.65  OA
ENDBRANCH 33 34
ENDBRANCH 32 33
ENDBRANCH 1 32
BRANCH 1 37
ATOM     37  N   GLU B 653       4.559 -20.870  10.052  1.00 15.81 LIG-0.35  N 
ATOM     38  C   VAL B 652       5.078 -20.501   8.865  1.00 15.71 LIG 0.24  C 
ATOM     39 O    VAL B 652       5.651 -19.438   8.679  1.00 14.72 LIG-0.27  OA
ATOM     40 H    GLU B 653       4.228 -21.654  10.178  1.00 15.81 LIG 0.16  HD
BRANCH 38 41
ATOM     41  CA  VAL B 652       5.079 -21.582   7.722  1.00 15.41 LIG 0.18  C 
BRANCH 41 42
ATOM     42  N   VAL B 652       5.550 -22.850   8.250  1.00 15.06 LIG-0.35  N 
ATOM     43  C   THR B 651       6.842 -23.168   8.198  1.00 17.05 LIG 0.24  C 
ATOM     44 O    THR B 651       7.725 -22.367   7.917  1.00 16.18 LIG-0.27  OA
ATOM     45 H    VAL B 652       4.938 -23.354   8.584  1.00 15.06 LIG 0.16  HD
BRANCH 43 46
ATOM     46  CA  THR B 651       7.230 -24.552   8.646  1.00 18.25 LIG 0.20  C 
BRANCH 46 47
ATOM     47  N   THR B 651       7.657 -25.434   7.578  1.00 18.62 LIG-0.34  N 
ATOM     48 H    THR B 651       8.502 -25.418   7.417  1.00 18.62 LIG 0.16  HD
ATOM     49  C   PRO B 650       6.796 -26.187   6.929  1.00 22.21 LIG 0.25  C 
ATOM     50 O    PRO B 650       5.587 -26.054   7.047  1.00 21.73 LIG-0.27  OA
BRANCH 49 51
ATOM     51  CA  PRO B 650       7.393 -27.271   6.037  1.00 24.06 LIG 0.35  C 
ATOM     52  CB  PRO B 650       8.758 -27.771   6.509  1.00 25.19 LIG 0.05  C 
ATOM     53  CG  PRO B 650       9.403 -28.195   5.207  1.00 26.54 LIG 0.04  C 
ATOM     54  CD  PRO B 650       8.979 -27.109   4.244  1.00 26.80 LIG 0.32  C 
ATOM     55  N   PRO B 650       7.700 -26.656   4.784  1.00 26.10 LIG 0.32  N 
ENDBRANCH 49 51
ENDBRANCH 46 47
BRANCH 46 56
ATOM     56  CB  THR B 651       8.355 -24.522   9.720  1.00 18.88 LIG 0.15  C 
ATOM     57  CG2 THR B 651       8.322 -25.710  10.739  1.00 20.33 LIG 0.04  C 
BRANCH 56 58
ATOM     58 OG1  THR B 651       9.591 -24.378   9.021  1.00 19.33 LIG-0.39  OA
ATOM     59 HG1  THR B 651       9.460 -23.962   8.302  1.00 19.33 LIG 0.21  HD
ENDBRANCH 56 58
ENDBRANCH 46 56
ENDBRANCH 43 46
ENDBRANCH 41 42
BRANCH 41 60
ATOM     60  CB  VAL B 652       3.662 -21.651   7.079  1.00 13.27 LIG 0.01  C 
ATOM     61  CG1 VAL B 652       2.765 -22.499   7.834  1.00 15.32 LIG 0.01  C 
ATOM     62  CG2 VAL B 652       3.060 -20.258   6.899  1.00 15.72 LIG 0.01  C 
ENDBRANCH 41 60
ENDBRANCH 38 41
ENDBRANCH 1 37
TORSDOF 25
ENDMDL
MODEL 12
USER: ADFR SOLUTION from run 178
USER: SCORE 20.571792 LL:  -4.207 LR: -17.418 RR:   0.000 FEB:  -9.961
USER: RMSD 10.663364
USER: SEED 177
USER: STATUS searching
USER: GENES 27
USER: genes 0 Translation |==|  0.48953 0.67425 0.40244
USER: genes 1 Rotation |==|  0.14802 0.16868 0.61560 0.55453
USER: genes 2 Torsion [N]-CA--C-[N] |==|  0.26021
USER: genes 3 Torsion [C]-N--CA-[C] |==|  0.72733
USER: genes 4 Torsion [N]-CA--CB-[CG] |==|  0.75265
USER: genes 5 Torsion [CA]-CB--CG-[CD] |==|  0.06711
USER: genes 6 Torsion [CB]-CG--CD-[OE2] |==|  0.22692
USER: genes 7 Torsion [N]-CA--C-[N] |==|  0.38377
USER: genes 8 Torsion [C]-N--CA-[C] |==|  0.77211
USER: genes 9 Torsion [N]-CA--C-[N] |==|  0.99258
USER: genes 10 Torsion [C]-N--CA-[C] |==|  0.80967
USER: genes 11 Torsion [N]-CA--C-[OXT] |==|  0.96529
USER: genes 12 Torsion [N]-CA--CB-[CG] |==|  0.26929
USER: genes 13 Torsion [CA]-CB--CG-[OD1] |==|  0.81365
USER: genes 14 Torsion [N]-CA--CB-[CG2] |==|  0.09574
USER: genes 15 Torsion [C]-CA--CB-[CG] |==|  0.79186
USER: genes 16 Torsion [CA]-CB--CG-[CD] |==|  0.42312
USER: genes 17 Torsion [CB]-CG--CD-[OE2] |==|  0.99922
USER: genes 18 Torsion [C]-CA--N-[C] |==|  0.60695
USER: genes 19 Torsion [N]-C--CA-[N] |==|  0.86837
USER: genes 20 Torsion [C]-CA--N-[C] |==|  0.73187
USER: genes 21 Torsion [N]-C--CA-[N] |==|  0.30417
USER: genes 22 Torsion [C]-CA--N-[C] |==|  0.75218
USER: genes 23 Torsion [N]-C--CA-[CB] |==|  0.07710
USER: genes 24 Torsion [C]-CA--CB-[CG2] |==|  0.41704
USER: genes 25 Torsion [CA]-CB--OG1-[HG1] |==|  0.07974
USER: genes 26 Torsion [C]-CA--CB-[CG1] |==|  0.76331
ROOT
ATOM      1  CA  GLU B 653       4.392 -19.925  11.253  1.00 16.59 LIG 0.18  C 
ENDROOT
BRANCH 1 2
ATOM      2  C   GLU B 653       4.602 -20.645  12.600  1.00 17.01 LIG 0.24  C 
ATOM      3 O    GLU B 653       3.668 -21.254  13.157  1.00 18.89 LIG-0.27  OA
ATOM      4  N   GLU B 654       5.823 -20.605  13.104  1.00 17.47 LIG-0.35  N 
ATOM      5 H    GLU B 654       6.450 -20.122  12.768  1.00 17.47 LIG 0.16  HD
BRANCH 4 6
ATOM      6  CA  GLU B 654       6.235 -21.353  14.252  1.00 19.20 LIG 0.18  C 
BRANCH 6 7
ATOM      7  CB  GLU B 654       7.639 -21.890  14.035  1.00 21.36 LIG 0.04  C 
BRANCH 7 8
ATOM      8  CG  GLU B 654       7.655 -23.232  13.373  1.00 25.94 LIG 0.12  C 
BRANCH 8 9
ATOM      9  CD  GLU B 654       6.426 -23.498  12.572  1.00 34.53 LIG 0.17  C 
ATOM     10 OE2  GLU B 654       6.346 -23.023  11.406  1.00 38.43 LIG-0.65  OA
ATOM     11 OE1  GLU B 654       5.536 -24.211  13.116  1.00 40.98 LIG-0.65  OA
ENDBRANCH 8 9
ENDBRANCH 7 8
ENDBRANCH 6 7
BRANCH 6 12
ATOM     12  C   GLU B 654       6.208 -20.520  15.514  1.00 18.66 LIG 0.24  C 
ATOM     13  N   VAL B 655       5.725 -21.106  16.614  1.00 18.37 LIG-0.35  N 
ATOM     14 H    VAL B 655       5.332 -21.870  16.613  1.00 18.37 LIG 0.16  HD
ATOM     15 O    GLU B 654       6.502 -19.338  15.453  1.00 17.95 LIG-0.27  OA
BRANCH 13 16
ATOM     16  CA  VAL B 655       5.826 -20.487  17.938  1.00 18.99 LIG 0.18  C 
BRANCH 16 17
ATOM     17  C   VAL B 655       7.225 -20.786  18.488  1.00 20.12 LIG 0.24  C 
ATOM     18 O    VAL B 655       7.566 -20.347  19.599  1.00 20.44 LIG-0.27  OA
ATOM     19  N   ASP B 656       8.002 -21.552  17.724  1.00 20.60 LIG-0.34  N 
ATOM     20 H    ASP B 656       7.769 -21.851  16.951  1.00 20.60 LIG 0.16  HD
BRANCH 19 21
ATOM     21  CA  ASP B 656       9.354 -21.958  18.152  1.00 22.64 LIG 0.20  C 
BRANCH 21 22
ATOM     22  C   ASP B 656      10.340 -20.779  18.200  1.00 24.92 LIG 0.20  C 
ATOM     23 OXT  ASP B 656      10.033 -19.671  17.670  1.00 27.50 LIG-0.65  OA
ATOM     24 O    ASP B 656      11.467 -20.910  18.719  1.00 24.52 LIG-0.65  OA
ENDBRANCH 21 22
BRANCH 21 25
ATOM     25  CB  ASP B 656       9.852 -23.025  17.192  1.00 22.32 LIG 0.15  C 
BRANCH 25 26
ATOM     26  CG  ASP B 656      10.743 -22.442  16.101  1.00 24.14 LIG 0.17  C 
ATOM     27 OD1  ASP B 656      10.252 -21.675  15.247  1.00 27.79 LIG-0.65  OA
ATOM     28 OD2  ASP B 656      11.957 -22.702  16.128  1.00 21.16 LIG-0.65  OA
ENDBRANCH 25 26
ENDBRANCH 21 25
ENDBRANCH 19 21
ENDBRANCH 16 17
BRANCH 16 29
ATOM     29  CB  VAL B 655       4.784 -20.973  18.949  1.00 17.39 LIG 0.01  C 
ATOM     30  CG2 VAL B 655       4.450 -22.470  18.734  1.00 19.33 LIG 0.01  C 
ATOM     31  CG1 VAL B 655       3.488 -20.073  18.901  1.00 17.58 LIG 0.01  C 
ENDBRANCH 16 29
ENDBRANCH 13 16
ENDBRANCH 6 12
ENDBRANCH 4 6
ENDBRANCH 1 2
BRANCH 1 32
ATOM     32  CB  GLU B 653       2.969 -19.266  11.271  1.00 16.22 LIG 0.04  C 
BRANCH 32 33
ATOM     33  CG  GLU B 653       1.843 -20.241  11.097  1.00 17.46 LIG 0.12  C 
BRANCH 33 34
ATOM     34  CD  GLU B 653       0.514 -19.783  11.762  1.00 17.13 LIG 0.17  C 
ATOM     35 OE1  GLU B 653      -0.468 -20.556  11.646  1.00 19.48 LIG-0.65  OA
ATOM     36 OE2  GLU B 653       0.423 -18.675  12.396  1.00 19.36 LIG-0.65  OA
ENDBRANCH 33 34
ENDBRANCH 32 33
ENDBRANCH 1 32
BRANCH 1 37
ATOM     37  N   GLU B 653       4.532 -20.793  10.072  1.00 15.81 LIG-0.35  N 
ATOM     38  C   VAL B 652       5.106 -20.447   8.905  1.00 15.71 LIG 0.24  C 
ATOM     39 O    VAL B 652       5.681 -19.384   8.723  1.00 14.72 LIG-0.27  OA
ATOM     40 H    GLU B 653       4.200 -21.577  10.200  1.00 15.81 LIG 0.16  HD
BRANCH 38 41
ATOM     41  CA  VAL B 652       5.170 -21.553   7.788  1.00 15.41 LIG 0.18  C 
BRANCH 41 42
ATOM     42  N   VAL B 652       5.660 -22.796   8.358  1.00 15.06 LIG-0.35  N 
ATOM     43  C   THR B 651       6.947 -23.124   8.263  1.00 17.05 LIG 0.24  C 
ATOM     44 O    THR B 651       7.820 -22.345   7.900  1.00 16.18 LIG-0.27  OA
ATOM     45 H    VAL B 652       5.062 -23.277   8.746  1.00 15.06 LIG 0.16  HD
BRANCH 43 46
ATOM     46  CA  THR B 651       7.350 -24.485   8.764  1.00 18.25 LIG 0.20  C 
BRANCH 46 47
ATOM     47  N   THR B 651       7.725 -25.424   7.726  1.00 18.62 LIG-0.34  N 
ATOM     48 H    THR B 651       8.561 -25.425   7.528  1.00 18.62 LIG 0.16  HD
ATOM     49  C   PRO B 650       6.830 -26.199   7.152  1.00 22.21 LIG 0.25  C 
ATOM     50 O    PRO B 650       5.629 -26.048   7.313  1.00 21.73 LIG-0.27  OA
BRANCH 49 51
ATOM     51  CA  PRO B 650       7.380 -27.333   6.292  1.00 24.06 LIG 0.35  C 
ATOM     52  CB  PRO B 650       8.763 -27.819   6.726  1.00 25.19 LIG 0.05  C 
ATOM     53  CG  PRO B 650       9.345 -28.314   5.420  1.00 26.54 LIG 0.04  C 
ATOM     54  CD  PRO B 650       8.883 -27.277   4.422  1.00 26.80 LIG 0.32  C 
ATOM     55  N   PRO B 650       7.632 -26.787   4.996  1.00 26.10 LIG 0.32  N 
ENDBRANCH 49 51
ENDBRANCH 46 47
BRANCH 46 56
ATOM     56  CB  THR B 651       8.524 -24.406   9.783  1.00 18.88 LIG 0.15  C 
ATOM     57  CG2 THR B 651       8.535 -25.543  10.860  1.00 20.33 LIG 0.04  C 
BRANCH 56 58
ATOM     58 OG1  THR B 651       9.726 -24.303   9.021  1.00 19.33 LIG-0.39  OA
ATOM     59 HG1  THR B 651       9.563 -23.925   8.289  1.00 19.33 LIG 0.21  HD
ENDBRANCH 56 58
ENDBRANCH 46 56
ENDBRANCH 43 46
ENDBRANCH 41 42
BRANCH 41 60
ATOM     60  CB  VAL B 652       3.775 -21.677   7.106  1.00 13.27 LIG 0.01  C 
ATOM     61  CG1 VAL B 652       2.894 -22.565   7.833  1.00 15.32 LIG 0.01  C 
ATOM     62  CG2 VAL B 652       3.121 -20.308   6.916  1.00 15.72 LIG 0.01  C 
ENDBRANCH 41 60
ENDBRANCH 38 41
ENDBRANCH 1 37
TORSDOF 25
ENDMDL
MODEL 13
USER: ADFR SOLUTION from run 194
USER: SCORE 19.616202 LL:  -3.955 LR: -17.364 RR:   0.000 FEB:  -9.907
USER: RMSD 7.416474
USER: SEED 193
USER: STATUS no improvement in best in 8 clusters for 5 generations
USER: GENES 27
USER: genes 0 Translation |==|  0.42828 0.54523 0.41687
USER: genes 1 Rotation |==|  0.56434 0.66691 0.96679 0.51029
USER: genes 2 Torsion [N]-CA--C-[N] |==|  0.68909
USER: genes 3 Torsion [C]-N--CA-[C] |==|  0.80683
USER: genes 4 Torsion [N]-CA--CB-[CG] |==|  0.84724
USER: genes 5 Torsion [CA]-CB--CG-[CD] |==|  0.73600
USER: genes 6 Torsion [CB]-CG--CD-[OE2] |==|  0.98153
USER: genes 7 Torsion [N]-CA--C-[N] |==|  0.24628
USER: genes 8 Torsion [C]-N--CA-[C] |==|  0.61989
USER: genes 9 Torsion [N]-CA--C-[N] |==|  0.38662
USER: genes 10 Torsion [C]-N--CA-[C] |==|  0.73100
USER: genes 11 Torsion [N]-CA--C-[OXT] |==|  0.01685
USER: genes 12 Torsion [N]-CA--CB-[CG] |==|  0.78428
USER: genes 13 Torsion [CA]-CB--CG-[OD1] |==|  0.29526
USER: genes 14 Torsion [N]-CA--CB-[CG2] |==|  0.08761
USER: genes 15 Torsion [C]-CA--CB-[CG] |==|  0.24146
USER: genes 16 Torsion [CA]-CB--CG-[CD] |==|  0.33032
USER: genes 17 Torsion [CB]-CG--CD-[OE2] |==|  0.62617
USER: genes 18 Torsion [C]-CA--N-[C] |==|  0.71046
USER: genes 19 Torsion [N]-C--CA-[N] |==|  0.36111
USER: genes 20 Torsion [C]-CA--N-[C] |==|  0.76297
USER: genes 21 Torsion [N]-C--CA-[N] |==|  0.12212
USER: genes 22 Torsion [C]-CA--N-[C] |==|  0.13411
USER: genes 23 Torsion [N]-C--CA-[CB] |==|  0.05076
USER: genes 24 Torsion [C]-CA--CB-[CG2] |==|  0.24926
USER: genes 25 Torsion [CA]-CB--OG1-[HG1] |==|  0.88168
USER: genes 26 Torsion [C]-CA--CB-[CG1] |==|  0.25217
ROOT
ATOM      1  CA  GLU B 653       3.013 -22.054  11.588  1.00 16.59 LIG 0.18  C 
ENDROOT
BRANCH 1 2
ATOM      2  C   GLU B 653       3.618 -22.607  10.282  1.00 17.01 LIG 0.24  C 
ATOM      3 O    GLU B 653       3.897 -23.816  10.163  1.00 18.89 LIG-0.27  OA
ATOM      4  N   GLU B 654       3.791 -21.739   9.300  1.00 17.47 LIG-0.35  N 
ATOM      5 H    GLU B 654       3.677 -20.893   9.401  1.00 17.47 LIG 0.16  HD
BRANCH 4 6
ATOM      6  CA  GLU B 654       4.182 -22.107   7.974  1.00 19.20 LIG 0.18  C 
BRANCH 6 7
ATOM      7  CB  GLU B 654       4.020 -20.916   7.046  1.00 21.36 LIG 0.04  C 
BRANCH 7 8
ATOM      8  CG  GLU B 654       2.639 -20.339   7.070  1.00 25.94 LIG 0.12  C 
BRANCH 8 9
ATOM      9  CD  GLU B 654       1.768 -20.873   5.985  1.00 34.53 LIG 0.17  C 
ATOM     10 OE2  GLU B 654       2.281 -21.621   5.108  1.00 38.43 LIG-0.65  OA
ATOM     11 OE1  GLU B 654       0.547 -20.551   6.025  1.00 40.98 LIG-0.65  OA
ENDBRANCH 8 9
ENDBRANCH 7 8
ENDBRANCH 6 7
BRANCH 6 12
ATOM     12  C   GLU B 654       5.612 -22.595   7.916  1.00 18.66 LIG 0.24  C 
ATOM     13  N   VAL B 655       5.814 -23.900   8.120  1.00 18.37 LIG-0.35  N 
ATOM     14 H    VAL B 655       5.202 -24.440   8.391  1.00 18.37 LIG 0.16  HD
ATOM     15 O    GLU B 654       6.515 -21.781   7.814  1.00 17.95 LIG-0.27  OA
BRANCH 13 16
ATOM     16  CA  VAL B 655       7.115 -24.535   7.896  1.00 18.99 LIG 0.18  C 
BRANCH 16 17
ATOM     17  C   VAL B 655       6.869 -25.863   7.172  1.00 20.12 LIG 0.24  C 
ATOM     18 O    VAL B 655       5.899 -26.574   7.483  1.00 20.44 LIG-0.27  OA
ATOM     19  N   ASP B 656       7.726 -26.165   6.198  1.00 20.60 LIG-0.34  N 
ATOM     20 H    ASP B 656       8.402 -25.677   5.986  1.00 20.60 LIG 0.16  HD
BRANCH 19 21
ATOM     21  CA  ASP B 656       7.579 -27.389   5.387  1.00 22.64 LIG 0.20  C 
BRANCH 21 22
ATOM     22  C   ASP B 656       8.456 -28.545   5.894  1.00 24.92 LIG 0.20  C 
ATOM     23 OXT  ASP B 656       9.111 -28.423   6.971  1.00 27.50 LIG-0.65  OA
ATOM     24 O    ASP B 656       8.570 -29.599   5.235  1.00 24.52 LIG-0.65  OA
ENDBRANCH 21 22
BRANCH 21 25
ATOM     25  CB  ASP B 656       7.935 -27.047   3.950  1.00 22.32 LIG 0.15  C 
BRANCH 25 26
ATOM     26  CG  ASP B 656       6.804 -26.310   3.241  1.00 24.14 LIG 0.17  C 
ATOM     27 OD1  ASP B 656       6.912 -25.086   3.015  1.00 27.79 LIG-0.65  OA
ATOM     28 OD2  ASP B 656       5.824 -26.964   2.851  1.00 21.16 LIG-0.65  OA
ENDBRANCH 25 26
ENDBRANCH 21 25
ENDBRANCH 19 21
ENDBRANCH 16 17
BRANCH 16 29
ATOM     29  CB  VAL B 655       7.917 -24.809   9.171  1.00 17.39 LIG 0.01  C 
ATOM     30  CG2 VAL B 655       6.982 -25.105  10.369  1.00 19.33 LIG 0.01  C 
ATOM     31  CG1 VAL B 655       8.906 -23.619   9.482  1.00 17.58 LIG 0.01  C 
ENDBRANCH 16 29
ENDBRANCH 13 16
ENDBRANCH 6 12
ENDBRANCH 4 6
ENDBRANCH 1 2
BRANCH 1 32
ATOM     32  CB  GLU B 653       2.489 -20.604  11.305  1.00 16.22 LIG 0.04  C 
BRANCH 32 33
ATOM     33  CG  GLU B 653       1.087 -20.554  10.776  1.00 17.46 LIG 0.12  C 
BRANCH 33 34
ATOM     34  CD  GLU B 653       0.101 -19.777  11.694  1.00 17.13 LIG 0.17  C 
ATOM     35 OE1  GLU B 653       0.500 -18.675  12.142  1.00 19.48 LIG-0.65  OA
ATOM     36 OE2  GLU B 653      -1.060 -20.235  11.978  1.00 19.36 LIG-0.65  OA
ENDBRANCH 33 34
ENDBRANCH 32 33
ENDBRANCH 1 32
BRANCH 1 37
ATOM     37  N   GLU B 653       3.943 -22.041  12.730  1.00 15.81 LIG-0.35  N 
ATOM     38  C   VAL B 652       3.933 -22.905  13.762  1.00 15.71 LIG 0.24  C 
ATOM     39 O    VAL B 652       3.200 -23.882  13.819  1.00 14.72 LIG-0.27  OA
ATOM     40 H    GLU B 653       4.520 -21.405  12.676  1.00 15.81 LIG 0.16  HD
BRANCH 38 41
ATOM     41  CA  VAL B 652       5.046 -22.716  14.858  1.00 15.41 LIG 0.18  C 
BRANCH 41 42
ATOM     42  N   VAL B 652       4.436 -22.700  16.176  1.00 15.06 LIG-0.35  N 
ATOM     43  C   THR B 651       3.945 -21.571  16.682  1.00 17.05 LIG 0.24  C 
ATOM     44 O    THR B 651       3.776 -20.551  16.024  1.00 16.18 LIG-0.27  OA
ATOM     45 H    VAL B 652       4.424 -23.460  16.579  1.00 15.06 LIG 0.16  HD
BRANCH 43 46
ATOM     46  CA  THR B 651       3.447 -21.610  18.102  1.00 18.25 LIG 0.20  C 
BRANCH 46 47
ATOM     47  N   THR B 651       4.314 -22.315  19.026  1.00 18.62 LIG-0.34  N 
ATOM     48 H    THR B 651       3.913 -22.885  19.528  1.00 18.62 LIG 0.16  HD
ATOM     49  C   PRO B 650       5.607 -22.077  19.065  1.00 22.21 LIG 0.25  C 
ATOM     50 O    PRO B 650       6.121 -21.135  18.479  1.00 21.73 LIG-0.27  OA
BRANCH 49 51
ATOM     51  CA  PRO B 650       6.447 -23.071  19.861  1.00 24.06 LIG 0.35  C 
ATOM     52  CB  PRO B 650       5.745 -24.404  20.114  1.00 25.19 LIG 0.05  C 
ATOM     53  CG  PRO B 650       6.373 -24.847  21.418  1.00 26.54 LIG 0.04  C 
ATOM     54  CD  PRO B 650       6.464 -23.562  22.209  1.00 26.80 LIG 0.32  C 
ATOM     55  N   PRO B 650       6.588 -22.535  21.178  1.00 26.10 LIG 0.32  N 
ENDBRANCH 49 51
ENDBRANCH 46 47
BRANCH 46 56
ATOM     56  CB  THR B 651       3.200 -20.184  18.673  1.00 18.88 LIG 0.15  C 
ATOM     57  CG2 THR B 651       1.757 -19.624  18.437  1.00 20.33 LIG 0.04  C 
BRANCH 56 58
ATOM     58 OG1  THR B 651       3.608 -20.209  20.040  1.00 19.33 LIG-0.39  OA
ATOM     59 HG1  THR B 651       3.340 -20.919  20.400  1.00 19.33 LIG 0.21  HD
ENDBRANCH 56 58
ENDBRANCH 46 56
ENDBRANCH 43 46
ENDBRANCH 41 42
BRANCH 41 60
ATOM     60  CB  VAL B 652       6.135 -23.815  14.678  1.00 13.27 LIG 0.01  C 
ATOM     61  CG1 VAL B 652       7.202 -23.381  13.802  1.00 15.32 LIG 0.01  C 
ATOM     62  CG2 VAL B 652       6.697 -24.272  16.024  1.00 15.72 LIG 0.01  C 
ENDBRANCH 41 60
ENDBRANCH 38 41
ENDBRANCH 1 37
TORSDOF 25
ENDMDL
MODEL 14
USER: ADFR SOLUTION from run 128
USER: SCORE 20.964408 LL:  -4.283 LR: -17.363 RR:   0.000 FEB:  -9.906
USER: RMSD 2.827160
USER: SEED 127
USER: STATUS 1 or 2 clusters left
USER: GENES 27
USER: genes 0 Translation |==|  0.60241 0.53400 0.56119
USER: genes 1 Rotation |==|  0.56202 0.45636 0.57691 0.98820
USER: genes 2 Torsion [N]-CA--C-[N] |==|  0.95545
USER: genes 3 Torsion [C]-N--CA-[C] |==|  0.76447
USER: genes 4 Torsion [N]-CA--CB-[CG] |==|  0.60665
USER: genes 5 Torsion [CA]-CB--CG-[CD] |==|  0.45062
USER: genes 6 Torsion [CB]-CG--CD-[OE2] |==|  0.68728
USER: genes 7 Torsion [N]-CA--C-[N] |==|  0.40223
USER: genes 8 Torsion [C]-N--CA-[C] |==|  0.79457
USER: genes 9 Torsion [N]-CA--C-[N] |==|  0.42189
USER: genes 10 Torsion [C]-N--CA-[C] |==|  0.16816
USER: genes 11 Torsion [N]-CA--C-[OXT] |==|  0.13695
USER: genes 12 Torsion [N]-CA--CB-[CG] |==|  0.79661
USER: genes 13 Torsion [CA]-CB--CG-[OD1] |==|  0.61873
USER: genes 14 Torsion [N]-CA--CB-[CG2] |==|  0.87747
USER: genes 15 Torsion [C]-CA--CB-[CG] |==|  0.23915
USER: genes 16 Torsion [CA]-CB--CG-[CD] |==|  0.18280
USER: genes 17 Torsion [CB]-CG--CD-[OE2] |==|  0.98075
USER: genes 18 Torsion [C]-CA--N-[C] |==|  0.85809
USER: genes 19 Torsion [N]-C--CA-[N] |==|  0.89810
USER: genes 20 Torsion [C]-CA--N-[C] |==|  0.77810
USER: genes 21 Torsion [N]-C--CA-[N] |==|  0.98445
USER: genes 22 Torsion [C]-CA--N-[C] |==|  0.75774
USER: genes 23 Torsion [N]-C--CA-[CB] |==|  0.10598
USER: genes 24 Torsion [C]-CA--CB-[CG2] |==|  0.20820
USER: genes 25 Torsion [CA]-CB--OG1-[HG1] |==|  0.18933
USER: genes 26 Torsion [C]-CA--CB-[CG1] |==|  0.43306
ROOT
ATOM      1  CA  GLU B 653       6.931 -22.239  14.944  1.00 16.59 LIG 0.18  C 
ENDROOT
BRANCH 1 2
ATOM      2  C   GLU B 653       6.312 -22.526  13.561  1.00 17.01 LIG 0.24  C 
ATOM      3 O    GLU B 653       7.000 -22.467  12.523  1.00 18.89 LIG-0.27  OA
ATOM      4  N   GLU B 654       5.034 -22.864  13.547  1.00 17.47 LIG-0.35  N 
ATOM      5 H    GLU B 654       4.535 -22.828  14.247  1.00 17.47 LIG 0.16  HD
BRANCH 4 6
ATOM      6  CA  GLU B 654       4.345 -23.322  12.379  1.00 19.20 LIG 0.18  C 
BRANCH 6 7
ATOM      7  CB  GLU B 654       3.179 -24.203  12.789  1.00 21.36 LIG 0.04  C 
BRANCH 7 8
ATOM      8  CG  GLU B 654       2.983 -25.374  11.876  1.00 25.94 LIG 0.12  C 
BRANCH 8 9
ATOM      9  CD  GLU B 654       2.145 -26.448  12.482  1.00 34.53 LIG 0.17  C 
ATOM     10 OE2  GLU B 654       2.683 -27.555  12.757  1.00 38.43 LIG-0.65  OA
ATOM     11 OE1  GLU B 654       0.932 -26.168  12.702  1.00 40.98 LIG-0.65  OA
ENDBRANCH 8 9
ENDBRANCH 7 8
ENDBRANCH 6 7
BRANCH 6 12
ATOM     12  C   GLU B 654       3.834 -22.177  11.534  1.00 18.66 LIG 0.24  C 
ATOM     13  N   VAL B 655       3.849 -22.352  10.209  1.00 18.37 LIG-0.35  N 
ATOM     14 H    VAL B 655       4.232 -23.016   9.821  1.00 18.37 LIG 0.16  HD
ATOM     15 O    GLU B 654       3.553 -21.119  12.072  1.00 17.95 LIG-0.27  OA
BRANCH 13 16
ATOM     16  CA  VAL B 655       3.201 -21.413   9.289  1.00 18.99 LIG 0.18  C 
BRANCH 16 17
ATOM     17  C   VAL B 655       1.688 -21.625   9.393  1.00 20.12 LIG 0.24  C 
ATOM     18 O    VAL B 655       1.233 -22.728   9.740  1.00 20.44 LIG-0.27  OA
ATOM     19  N   ASP B 656       0.929 -20.563   9.125  1.00 20.60 LIG-0.34  N 
ATOM     20 H    ASP B 656       1.242 -19.800   8.878  1.00 20.60 LIG 0.16  HD
BRANCH 19 21
ATOM     21  CA  ASP B 656      -0.541 -20.612   9.233  1.00 22.64 LIG 0.20  C 
BRANCH 21 22
ATOM     22  C   ASP B 656      -1.021 -20.949  10.654  1.00 24.92 LIG 0.20  C 
ATOM     23 OXT  ASP B 656      -0.556 -20.320  11.649  1.00 27.50 LIG-0.65  OA
ATOM     24 O    ASP B 656      -1.840 -21.871  10.851  1.00 24.52 LIG-0.65  OA
ENDBRANCH 21 22
BRANCH 21 25
ATOM     25  CB  ASP B 656      -1.052 -21.647   8.244  1.00 22.32 LIG 0.15  C 
BRANCH 25 26
ATOM     26  CG  ASP B 656      -0.962 -21.155   6.804  1.00 24.14 LIG 0.17  C 
ATOM     27 OD1  ASP B 656      -1.913 -21.363   6.020  1.00 27.79 LIG-0.65  OA
ATOM     28 OD2  ASP B 656       0.037 -20.502   6.462  1.00 21.16 LIG-0.65  OA
ENDBRANCH 25 26
ENDBRANCH 21 25
ENDBRANCH 19 21
ENDBRANCH 16 17
BRANCH 16 29
ATOM     29  CB  VAL B 655       3.622 -21.565   7.824  1.00 17.39 LIG 0.01  C 
ATOM     30  CG2 VAL B 655       5.154 -21.741   7.696  1.00 19.33 LIG 0.01  C 
ATOM     31  CG1 VAL B 655       3.099 -20.353   6.959  1.00 17.58 LIG 0.01  C 
ENDBRANCH 16 29
ENDBRANCH 13 16
ENDBRANCH 6 12
ENDBRANCH 4 6
ENDBRANCH 1 2
BRANCH 1 32
ATOM     32  CB  GLU B 653       7.870 -23.438  15.314  1.00 16.22 LIG 0.04  C 
BRANCH 32 33
ATOM     33  CG  GLU B 653       9.264 -23.312  14.776  1.00 17.46 LIG 0.12  C 
BRANCH 33 34
ATOM     34  CD  GLU B 653      10.065 -22.130  15.391  1.00 17.13 LIG 0.17  C 
ATOM     35 OE1  GLU B 653      11.279 -22.053  15.081  1.00 19.48 LIG-0.65  OA
ATOM     36 OE2  GLU B 653       9.518 -21.278  16.173  1.00 19.36 LIG-0.65  OA
ENDBRANCH 33 34
ENDBRANCH 32 33
ENDBRANCH 1 32
BRANCH 1 37
ATOM     37  N   GLU B 653       5.946 -22.018  16.015  1.00 15.81 LIG-0.35  N 
ATOM     38  C   VAL B 652       4.909 -21.161  15.966  1.00 15.71 LIG 0.24  C 
ATOM     39 O    VAL B 652       4.600 -20.531  14.966  1.00 14.72 LIG-0.27  OA
ATOM     40 H    GLU B 653       6.099 -22.506  16.707  1.00 15.81 LIG 0.16  HD
BRANCH 38 41
ATOM     41  CA  VAL B 652       3.966 -21.113  17.224  1.00 15.41 LIG 0.18  C 
BRANCH 41 42
ATOM     42  N   VAL B 652       3.819 -22.448  17.776  1.00 15.06 LIG-0.35  N 
ATOM     43  C   THR B 651       2.977 -23.320  17.226  1.00 17.05 LIG 0.24  C 
ATOM     44 O    THR B 651       2.447 -23.154  16.134  1.00 16.18 LIG-0.27  OA
ATOM     45 H    VAL B 652       4.309 -22.612  18.464  1.00 15.06 LIG 0.16  HD
BRANCH 43 46
ATOM     46  CA  THR B 651       2.787 -24.636  17.933  1.00 18.25 LIG 0.20  C 
BRANCH 46 47
ATOM     47  N   THR B 651       3.656 -24.838  19.075  1.00 18.62 LIG-0.34  N 
ATOM     48 H    THR B 651       3.319 -24.595  19.828  1.00 18.62 LIG 0.16  HD
ATOM     49  C   PRO B 650       4.857 -25.354  18.936  1.00 22.21 LIG 0.25  C 
ATOM     50 O    PRO B 650       5.382 -25.514  17.845  1.00 21.73 LIG-0.27  OA
BRANCH 49 51
ATOM     51  CA  PRO B 650       5.555 -25.781  20.224  1.00 24.06 LIG 0.35  C 
ATOM     52  CB  PRO B 650       4.617 -26.411  21.252  1.00 25.19 LIG 0.05  C 
ATOM     53  CG  PRO B 650       5.299 -26.059  22.556  1.00 26.54 LIG 0.04  C 
ATOM     54  CD  PRO B 650       5.774 -24.642  22.325  1.00 26.80 LIG 0.32  C 
ATOM     55  N   PRO B 650       5.984 -24.586  20.880  1.00 26.10 LIG 0.32  N 
ENDBRANCH 49 51
ENDBRANCH 46 47
BRANCH 46 56
ATOM     56  CB  THR B 651       1.319 -24.836  18.407  1.00 18.88 LIG 0.15  C 
ATOM     57  CG2 THR B 651       0.304 -25.191  17.269  1.00 20.33 LIG 0.04  C 
BRANCH 56 58
ATOM     58 OG1  THR B 651       1.355 -25.776  19.480  1.00 19.33 LIG-0.39  OA
ATOM     59 HG1  THR B 651       1.736 -25.429  20.144  1.00 19.33 LIG 0.21  HD
ENDBRANCH 56 58
ENDBRANCH 46 56
ENDBRANCH 43 46
ENDBRANCH 41 42
BRANCH 41 60
ATOM     60  CB  VAL B 652       4.514 -20.066  18.238  1.00 13.27 LIG 0.01  C 
ATOM     61  CG1 VAL B 652       3.475 -19.560  19.109  1.00 15.32 LIG 0.01  C 
ATOM     62  CG2 VAL B 652       5.673 -20.632  19.057  1.00 15.72 LIG 0.01  C 
ENDBRANCH 41 60
ENDBRANCH 38 41
ENDBRANCH 1 37
TORSDOF 25
ENDMDL
MODEL 15
USER: ADFR SOLUTION from run 135
USER: SCORE 20.050977 LL:  -3.930 LR: -17.333 RR:   0.000 FEB:  -9.875
USER: RMSD 3.752487
USER: SEED 134
USER: STATUS no improvement in best in 8 clusters for 5 generations
USER: GENES 27
USER: genes 0 Translation |==|  0.53290 0.61886 0.60680
USER: genes 1 Rotation |==|  0.69391 0.51197 0.83765 0.81344
USER: genes 2 Torsion [N]-CA--C-[N] |==|  0.01133
USER: genes 3 Torsion [C]-N--CA-[C] |==|  0.86994
USER: genes 4 Torsion [N]-CA--CB-[CG] |==|  0.51081
USER: genes 5 Torsion [CA]-CB--CG-[CD] |==|  0.49706
USER: genes 6 Torsion [CB]-CG--CD-[OE2] |==|  0.73892
USER: genes 7 Torsion [N]-CA--C-[N] |==|  0.35985
USER: genes 8 Torsion [C]-N--CA-[C] |==|  0.79644
USER: genes 9 Torsion [N]-CA--C-[N] |==|  0.46090
USER: genes 10 Torsion [C]-N--CA-[C] |==|  0.66327
USER: genes 11 Torsion [N]-CA--C-[OXT] |==|  0.92763
USER: genes 12 Torsion [N]-CA--CB-[CG] |==|  0.94973
USER: genes 13 Torsion [CA]-CB--CG-[OD1] |==|  0.79328
USER: genes 14 Torsion [N]-CA--CB-[CG2] |==|  0.17256
USER: genes 15 Torsion [C]-CA--CB-[CG] |==|  0.65916
USER: genes 16 Torsion [CA]-CB--CG-[CD] |==|  0.52695
USER: genes 17 Torsion [CB]-CG--CD-[OE2] |==|  0.06413
USER: genes 18 Torsion [C]-CA--N-[C] |==|  0.68107
USER: genes 19 Torsion [N]-C--CA-[N] |==|  0.64079
USER: genes 20 Torsion [C]-CA--N-[C] |==|  0.13053
USER: genes 21 Torsion [N]-C--CA-[N] |==|  0.93333
USER: genes 22 Torsion [C]-CA--N-[C] |==|  0.69112
USER: genes 23 Torsion [N]-C--CA-[CB] |==|  0.86983
USER: genes 24 Torsion [C]-CA--CB-[CG2] |==|  0.42194
USER: genes 25 Torsion [CA]-CB--OG1-[HG1] |==|  0.07892
USER: genes 26 Torsion [C]-CA--CB-[CG1] |==|  0.23826
ROOT
ATOM      1  CA  GLU B 653       5.367 -20.839  16.004  1.00 16.59 LIG 0.18  C 
ENDROOT
BRANCH 1 2
ATOM      2  C   GLU B 653       4.943 -21.056  14.537  1.00 17.01 LIG 0.24  C 
ATOM      3 O    GLU B 653       5.054 -20.145  13.694  1.00 18.89 LIG-0.27  OA
ATOM      4  N   GLU B 654       4.491 -22.259  14.228  1.00 17.47 LIG-0.35  N 
ATOM      5 H    GLU B 654       4.336 -22.864  14.818  1.00 17.47 LIG 0.16  HD
BRANCH 4 6
ATOM      6  CA  GLU B 654       4.212 -22.683  12.890  1.00 19.20 LIG 0.18  C 
BRANCH 6 7
ATOM      7  CB  GLU B 654       3.448 -23.995  12.920  1.00 21.36 LIG 0.04  C 
BRANCH 7 8
ATOM      8  CG  GLU B 654       3.196 -24.556  11.556  1.00 25.94 LIG 0.12  C 
BRANCH 8 9
ATOM      9  CD  GLU B 654       2.468 -25.856  11.588  1.00 34.53 LIG 0.17  C 
ATOM     10 OE2  GLU B 654       3.136 -26.927  11.568  1.00 38.43 LIG-0.65  OA
ATOM     11 OE1  GLU B 654       1.207 -25.801  11.653  1.00 40.98 LIG-0.65  OA
ENDBRANCH 8 9
ENDBRANCH 7 8
ENDBRANCH 6 7
BRANCH 6 12
ATOM     12  C   GLU B 654       3.410 -21.656  12.122  1.00 18.66 LIG 0.24  C 
ATOM     13  N   VAL B 655       3.873 -21.305  10.919  1.00 18.37 LIG-0.35  N 
ATOM     14 H    VAL B 655       4.644 -21.539  10.619  1.00 18.37 LIG 0.16  HD
ATOM     15 O    GLU B 654       2.466 -21.108  12.668  1.00 17.95 LIG-0.27  OA
BRANCH 13 16
ATOM     16  CA  VAL B 655       3.095 -20.479   9.992  1.00 18.99 LIG 0.18  C 
BRANCH 16 17
ATOM     17  C   VAL B 655       1.970 -21.348   9.423  1.00 20.12 LIG 0.24  C 
ATOM     18 O    VAL B 655       1.986 -22.579   9.587  1.00 20.44 LIG-0.27  OA
ATOM     19  N   ASP B 656       0.993 -20.698   8.791  1.00 20.60 LIG-0.34  N 
ATOM     20 H    ASP B 656       0.983 -19.847   8.671  1.00 20.60 LIG 0.16  HD
BRANCH 19 21
ATOM     21  CA  ASP B 656      -0.177 -21.406   8.236  1.00 22.64 LIG 0.20  C 
BRANCH 21 22
ATOM     22  C   ASP B 656      -0.336 -21.194   6.722  1.00 24.92 LIG 0.20  C 
ATOM     23 OXT  ASP B 656       0.128 -20.151   6.173  1.00 27.50 LIG-0.65  OA
ATOM     24 O    ASP B 656      -0.957 -22.019   6.022  1.00 24.52 LIG-0.65  OA
ENDBRANCH 21 22
BRANCH 21 25
ATOM     25  CB  ASP B 656      -1.415 -20.918   8.970  1.00 22.32 LIG 0.15  C 
BRANCH 25 26
ATOM     26  CG  ASP B 656      -1.067 -20.234  10.287  1.00 24.14 LIG 0.17  C 
ATOM     27 OD1  ASP B 656      -0.711 -20.925  11.266  1.00 27.79 LIG-0.65  OA
ATOM     28 OD2  ASP B 656      -1.088 -18.994  10.334  1.00 21.16 LIG-0.65  OA
ENDBRANCH 25 26
ENDBRANCH 21 25
ENDBRANCH 19 21
ENDBRANCH 16 17
BRANCH 16 29
ATOM     29  CB  VAL B 655       3.903 -19.894   8.830  1.00 17.39 LIG 0.01  C 
ATOM     30  CG2 VAL B 655       4.494 -21.013   7.938  1.00 19.33 LIG 0.01  C 
ATOM     31  CG1 VAL B 655       5.024 -18.916   9.358  1.00 17.58 LIG 0.01  C 
ENDBRANCH 16 29
ENDBRANCH 13 16
ENDBRANCH 6 12
ENDBRANCH 4 6
ENDBRANCH 1 2
BRANCH 1 32
ATOM     32  CB  GLU B 653       6.827 -20.268  16.008  1.00 16.22 LIG 0.04  C 
BRANCH 32 33
ATOM     33  CG  GLU B 653       7.805 -21.096  16.787  1.00 17.46 LIG 0.12  C 
BRANCH 33 34
ATOM     34  CD  GLU B 653       9.185 -20.407  16.987  1.00 17.13 LIG 0.17  C 
ATOM     35 OE1  GLU B 653      10.162 -21.162  17.211  1.00 19.48 LIG-0.65  OA
ATOM     36 OE2  GLU B 653       9.320 -19.136  16.926  1.00 19.36 LIG-0.65  OA
ENDBRANCH 33 34
ENDBRANCH 32 33
ENDBRANCH 1 32
BRANCH 1 37
ATOM     37  N   GLU B 653       5.295 -22.047  16.842  1.00 15.81 LIG-0.35  N 
ATOM     38  C   VAL B 652       4.468 -22.231  17.888  1.00 15.71 LIG 0.24  C 
ATOM     39 O    VAL B 652       3.592 -21.439  18.205  1.00 14.72 LIG-0.27  OA
ATOM     40 H    GLU B 653       5.852 -22.653  16.593  1.00 15.81 LIG 0.16  HD
BRANCH 38 41
ATOM     41  CA  VAL B 652       4.545 -23.620  18.621  1.00 15.41 LIG 0.18  C 
BRANCH 41 42
ATOM     42  N   VAL B 652       3.212 -24.181  18.748  1.00 15.06 LIG-0.35  N 
ATOM     43  C   THR B 651       2.384 -24.202  17.706  1.00 17.05 LIG 0.24  C 
ATOM     44 O    THR B 651       2.735 -23.964  16.556  1.00 16.18 LIG-0.27  OA
ATOM     45 H    VAL B 652       3.019 -24.485  19.529  1.00 15.06 LIG 0.16  HD
BRANCH 43 46
ATOM     46  CA  THR B 651       0.977 -24.680  17.952  1.00 18.25 LIG 0.20  C 
BRANCH 46 47
ATOM     47  N   THR B 651       0.829 -25.550  19.102  1.00 18.62 LIG-0.34  N 
ATOM     48 H    THR B 651       0.945 -25.163  19.860  1.00 18.62 LIG 0.16  HD
ATOM     49  C   PRO B 650       0.538 -26.825  18.960  1.00 22.21 LIG 0.25  C 
ATOM     50 O    PRO B 650       0.564 -27.389  17.877  1.00 21.73 LIG-0.27  OA
BRANCH 49 51
ATOM     51  CA  PRO B 650       0.127 -27.563  20.230  1.00 24.06 LIG 0.35  C 
ATOM     52  CB  PRO B 650       1.047 -27.296  21.421  1.00 25.19 LIG 0.05  C 
ATOM     53  CG  PRO B 650       0.916 -28.580  22.212  1.00 26.54 LIG 0.04  C 
ATOM     54  CD  PRO B 650       0.901 -29.645  21.139  1.00 26.80 LIG 0.32  C 
ATOM     55  N   PRO B 650       0.327 -28.956  19.985  1.00 26.10 LIG 0.32  N 
ENDBRANCH 49 51
ENDBRANCH 46 47
BRANCH 46 56
ATOM     56  CB  THR B 651      -0.020 -23.498  18.115  1.00 18.88 LIG 0.15  C 
ATOM     57  CG2 THR B 651      -1.493 -23.819  17.691  1.00 20.33 LIG 0.04  C 
BRANCH 56 58
ATOM     58 OG1  THR B 651       0.119 -23.020  19.452  1.00 19.33 LIG-0.39  OA
ATOM     59 HG1  THR B 651       0.900 -23.168  19.723  1.00 19.33 LIG 0.21  HD
ENDBRANCH 56 58
ENDBRANCH 46 56
ENDBRANCH 43 46
ENDBRANCH 41 42
BRANCH 41 60
ATOM     60  CB  VAL B 652       5.551 -24.542  17.870  1.00 13.27 LIG 0.01  C 
ATOM     61  CG1 VAL B 652       6.913 -24.330  18.311  1.00 15.32 LIG 0.01  C 
ATOM     62  CG2 VAL B 652       5.167 -26.015  18.002  1.00 15.72 LIG 0.01  C 
ENDBRANCH 41 60
ENDBRANCH 38 41
ENDBRANCH 1 37
TORSDOF 25
ENDMDL
MODEL 16
USER: ADFR SOLUTION from run 38
USER: SCORE 19.962758 LL:  -4.218 LR: -17.273 RR:   0.000 FEB:  -9.815
USER: RMSD 10.170336
USER: SEED 37
USER: STATUS no improvement in best in 7 clusters for 5 generations
USER: GENES 27
USER: genes 0 Translation |==|  0.48520 0.65349 0.40613
USER: genes 1 Rotation |==|  0.12705 0.18791 0.59351 0.56899
USER: genes 2 Torsion [N]-CA--C-[N] |==|  0.00333
USER: genes 3 Torsion [C]-N--CA-[C] |==|  0.82702
USER: genes 4 Torsion [N]-CA--CB-[CG] |==|  0.89258
USER: genes 5 Torsion [CA]-CB--CG-[CD] |==|  0.74419
USER: genes 6 Torsion [CB]-CG--CD-[OE2] |==|  0.96202
USER: genes 7 Torsion [N]-CA--C-[N] |==|  0.93020
USER: genes 8 Torsion [C]-N--CA-[C] |==|  0.75929
USER: genes 9 Torsion [N]-CA--C-[N] |==|  0.49947
USER: genes 10 Torsion [C]-N--CA-[C] |==|  0.87452
USER: genes 11 Torsion [N]-CA--C-[OXT] |==|  0.39936
USER: genes 12 Torsion [N]-CA--CB-[CG] |==|  0.90087
USER: genes 13 Torsion [CA]-CB--CG-[OD1] |==|  0.40442
USER: genes 14 Torsion [N]-CA--CB-[CG2] |==|  0.94571
USER: genes 15 Torsion [C]-CA--CB-[CG] |==|  0.77286
USER: genes 16 Torsion [CA]-CB--CG-[CD] |==|  0.40361
USER: genes 17 Torsion [CB]-CG--CD-[OE2] |==|  0.05234
USER: genes 18 Torsion [C]-CA--N-[C] |==|  0.53984
USER: genes 19 Torsion [N]-C--CA-[N] |==|  0.90610
USER: genes 20 Torsion [C]-CA--N-[C] |==|  0.77495
USER: genes 21 Torsion [N]-C--CA-[N] |==|  0.27006
USER: genes 22 Torsion [C]-CA--N-[C] |==|  0.76393
USER: genes 23 Torsion [N]-C--CA-[CB] |==|  0.08350
USER: genes 24 Torsion [C]-CA--CB-[CG2] |==|  0.33504
USER: genes 25 Torsion [CA]-CB--OG1-[HG1] |==|  0.12945
USER: genes 26 Torsion [C]-CA--CB-[CG1] |==|  0.86508
ROOT
ATOM      1  CA  GLU B 653       4.294 -20.267  11.339  1.00 16.59 LIG 0.18  C 
ENDROOT
BRANCH 1 2
ATOM      2  C   GLU B 653       4.355 -21.102  12.634  1.00 17.01 LIG 0.24  C 
ATOM      3 O    GLU B 653       4.254 -20.561  13.753  1.00 18.89 LIG-0.27  OA
ATOM      4  N   GLU B 654       4.488 -22.408  12.487  1.00 17.47 LIG-0.35  N 
ATOM      5 H    GLU B 654       4.638 -22.778  11.725  1.00 17.47 LIG 0.16  HD
BRANCH 4 6
ATOM      6  CA  GLU B 654       4.396 -23.344  13.566  1.00 19.20 LIG 0.18  C 
BRANCH 6 7
ATOM      7  CB  GLU B 654       4.502 -24.758  13.025  1.00 21.36 LIG 0.04  C 
BRANCH 7 8
ATOM      8  CG  GLU B 654       3.788 -24.941  11.722  1.00 25.94 LIG 0.12  C 
BRANCH 8 9
ATOM      9  CD  GLU B 654       2.382 -25.404  11.891  1.00 34.53 LIG 0.17  C 
ATOM     10 OE2  GLU B 654       2.017 -25.840  13.017  1.00 38.43 LIG-0.65  OA
ATOM     11 OE1  GLU B 654       1.626 -25.311  10.882  1.00 40.98 LIG-0.65  OA
ENDBRANCH 8 9
ENDBRANCH 7 8
ENDBRANCH 6 7
BRANCH 6 12
ATOM     12  C   GLU B 654       5.473 -23.123  14.604  1.00 18.66 LIG 0.24  C 
ATOM     13  N   VAL B 655       6.596 -22.527  14.191  1.00 18.37 LIG-0.35  N 
ATOM     14 H    VAL B 655       6.778 -22.375  13.365  1.00 18.37 LIG 0.16  HD
ATOM     15 O    GLU B 654       5.332 -23.598  15.718  1.00 17.95 LIG-0.27  OA
BRANCH 13 16
ATOM     16  CA  VAL B 655       7.630 -22.076  15.125  1.00 18.99 LIG 0.18  C 
BRANCH 16 17
ATOM     17  C   VAL B 655       7.260 -20.662  15.585  1.00 20.12 LIG 0.24  C 
ATOM     18 O    VAL B 655       6.217 -20.125  15.177  1.00 20.44 LIG-0.27  OA
ATOM     19  N   ASP B 656       8.097 -20.091  16.450  1.00 20.60 LIG-0.34  N 
ATOM     20 H    ASP B 656       8.824 -20.458  16.728  1.00 20.60 LIG 0.16  HD
BRANCH 19 21
ATOM     21  CA  ASP B 656       7.838 -18.751  17.011  1.00 22.64 LIG 0.20  C 
BRANCH 21 22
ATOM     22  C   ASP B 656       7.391 -17.737  15.946  1.00 24.92 LIG 0.20  C 
ATOM     23 OXT  ASP B 656       6.528 -16.855  16.229  1.00 27.50 LIG-0.65  OA
ATOM     24 O    ASP B 656       7.837 -17.794  14.781  1.00 24.52 LIG-0.65  OA
ENDBRANCH 21 22
BRANCH 21 25
ATOM     25  CB  ASP B 656       9.109 -18.273  17.695  1.00 22.32 LIG 0.15  C 
BRANCH 25 26
ATOM     26  CG  ASP B 656       9.861 -19.416  18.367  1.00 24.14 LIG 0.17  C 
ATOM     27 OD1  ASP B 656      11.110 -19.399  18.396  1.00 27.79 LIG-0.65  OA
ATOM     28 OD2  ASP B 656       9.205 -20.310  18.924  1.00 21.16 LIG-0.65  OA
ENDBRANCH 25 26
ENDBRANCH 21 25
ENDBRANCH 19 21
ENDBRANCH 16 17
BRANCH 16 29
ATOM     29  CB  VAL B 655       9.047 -22.050  14.543  1.00 17.39 LIG 0.01  C 
ATOM     30  CG2 VAL B 655       9.152 -22.947  13.285  1.00 19.33 LIG 0.01  C 
ATOM     31  CG1 VAL B 655      10.113 -22.449  15.635  1.00 17.58 LIG 0.01  C 
ENDBRANCH 16 29
ENDBRANCH 13 16
ENDBRANCH 6 12
ENDBRANCH 4 6
ENDBRANCH 1 2
BRANCH 1 32
ATOM     32  CB  GLU B 653       2.971 -19.428  11.363  1.00 16.22 LIG 0.04  C 
BRANCH 32 33
ATOM     33  CG  GLU B 653       1.756 -20.189  10.926  1.00 17.46 LIG 0.12  C 
BRANCH 33 34
ATOM     34  CD  GLU B 653       0.459 -19.784  11.683  1.00 17.13 LIG 0.17  C 
ATOM     35 OE1  GLU B 653      -0.493 -20.601  11.644  1.00 19.48 LIG-0.65  OA
ATOM     36 OE2  GLU B 653       0.365 -18.675  12.315  1.00 19.36 LIG-0.65  OA
ENDBRANCH 33 34
ENDBRANCH 32 33
ENDBRANCH 1 32
BRANCH 1 37
ATOM     37  N   GLU B 653       4.366 -21.062  10.101  1.00 15.81 LIG-0.35  N 
ATOM     38  C   VAL B 652       4.605 -20.578   8.868  1.00 15.71 LIG 0.24  C 
ATOM     39 O    VAL B 652       4.898 -19.413   8.644  1.00 14.72 LIG-0.27  OA
ATOM     40 H    GLU B 653       4.236 -21.901  10.242  1.00 15.81 LIG 0.16  HD
BRANCH 38 41
ATOM     41  CA  VAL B 652       4.666 -21.623   7.694  1.00 15.41 LIG 0.18  C 
BRANCH 41 42
ATOM     42  N   VAL B 652       5.229 -22.871   8.178  1.00 15.06 LIG-0.35  N 
ATOM     43  C   THR B 651       6.546 -23.018   8.298  1.00 17.05 LIG 0.24  C 
ATOM     44 O    THR B 651       7.342 -22.089   8.224  1.00 16.18 LIG-0.27  OA
ATOM     45 H    VAL B 652       4.651 -23.478   8.371  1.00 15.06 LIG 0.16  HD
BRANCH 43 46
ATOM     46  CA  THR B 651       7.056 -24.382   8.682  1.00 18.25 LIG 0.20  C 
BRANCH 46 47
ATOM     47  N   THR B 651       7.494 -25.199   7.568  1.00 18.62 LIG-0.34  N 
ATOM     48 H    THR B 651       8.337 -25.162   7.407  1.00 18.62 LIG 0.16  HD
ATOM     49  C   PRO B 650       6.642 -25.926   6.879  1.00 22.21 LIG 0.25  C 
ATOM     50 O    PRO B 650       5.431 -25.816   7.003  1.00 21.73 LIG-0.27  OA
BRANCH 49 51
ATOM     51  CA  PRO B 650       7.253 -26.952   5.929  1.00 24.06 LIG 0.35  C 
ATOM     52  CB  PRO B 650       8.602 -27.495   6.397  1.00 25.19 LIG 0.05  C 
ATOM     53  CG  PRO B 650       9.276 -27.834   5.084  1.00 26.54 LIG 0.04  C 
ATOM     54  CD  PRO B 650       8.883 -26.682   4.189  1.00 26.80 LIG 0.32  C 
ATOM     55  N   PRO B 650       7.594 -26.255   4.729  1.00 26.10 LIG 0.32  N 
ENDBRANCH 49 51
ENDBRANCH 46 47
BRANCH 46 56
ATOM     56  CB  THR B 651       8.226 -24.300   9.704  1.00 18.88 LIG 0.15  C 
ATOM     57  CG2 THR B 651       7.961 -25.028  11.065  1.00 20.33 LIG 0.04  C 
BRANCH 56 58
ATOM     58 OG1  THR B 651       9.402 -24.734   9.021  1.00 19.33 LIG-0.39  OA
ATOM     59 HG1  THR B 651       9.446 -24.357   8.271  1.00 19.33 LIG 0.21  HD
ENDBRANCH 56 58
ENDBRANCH 46 56
ENDBRANCH 43 46
ENDBRANCH 41 42
BRANCH 41 60
ATOM     60  CB  VAL B 652       3.249 -21.770   7.063  1.00 13.27 LIG 0.01  C 
ATOM     61  CG1 VAL B 652       2.227 -21.967   8.067  1.00 15.32 LIG 0.01  C 
ATOM     62  CG2 VAL B 652       2.906 -20.576   6.172  1.00 15.72 LIG 0.01  C 
ENDBRANCH 41 60
ENDBRANCH 38 41
ENDBRANCH 1 37
TORSDOF 25
ENDMDL
MODEL 17
USER: ADFR SOLUTION from run 174
USER: SCORE 20.214664 LL:  -4.740 LR: -17.217 RR:   0.000 FEB:  -9.759
USER: RMSD 10.450661
USER: SEED 173
USER: STATUS no improvement in best in 4 clusters for 5 generations
USER: GENES 27
USER: genes 0 Translation |==|  0.50201 0.69576 0.40559
USER: genes 1 Rotation |==|  0.16654 0.15668 0.64241 0.52563
USER: genes 2 Torsion [N]-CA--C-[N] |==|  0.30098
USER: genes 3 Torsion [C]-N--CA-[C] |==|  0.59454
USER: genes 4 Torsion [N]-CA--CB-[CG] |==|  0.43829
USER: genes 5 Torsion [CA]-CB--CG-[CD] |==|  0.59041
USER: genes 6 Torsion [CB]-CG--CD-[OE2] |==|  0.58447
USER: genes 7 Torsion [N]-CA--C-[N] |==|  0.30079
USER: genes 8 Torsion [C]-N--CA-[C] |==|  0.79737
USER: genes 9 Torsion [N]-CA--C-[N] |==|  0.45402
USER: genes 10 Torsion [C]-N--CA-[C] |==|  0.18087
USER: genes 11 Torsion [N]-CA--C-[OXT] |==|  0.74165
USER: genes 12 Torsion [N]-CA--CB-[CG] |==|  0.77311
USER: genes 13 Torsion [CA]-CB--CG-[OD1] |==|  0.21142
USER: genes 14 Torsion [N]-CA--CB-[CG2] |==|  0.55198
USER: genes 15 Torsion [C]-CA--CB-[CG] |==|  0.78302
USER: genes 16 Torsion [CA]-CB--CG-[CD] |==|  0.44242
USER: genes 17 Torsion [CB]-CG--CD-[OE2] |==|  0.50279
USER: genes 18 Torsion [C]-CA--N-[C] |==|  0.59715
USER: genes 19 Torsion [N]-C--CA-[N] |==|  0.85650
USER: genes 20 Torsion [C]-CA--N-[C] |==|  0.69603
USER: genes 21 Torsion [N]-C--CA-[N] |==|  0.80669
USER: genes 22 Torsion [C]-CA--N-[C] |==|  0.69710
USER: genes 23 Torsion [N]-C--CA-[CB] |==|  0.32404
USER: genes 24 Torsion [C]-CA--CB-[CG2] |==|  0.79761
USER: genes 25 Torsion [CA]-CB--OG1-[HG1] |==|  0.14562
USER: genes 26 Torsion [C]-CA--CB-[CG1] |==|  0.77814
ROOT
ATOM      1  CA  GLU B 653       4.672 -19.570  11.326  1.00 16.59 LIG 0.18  C 
ENDROOT
BRANCH 1 2
ATOM      2  C   GLU B 653       4.973 -20.074  12.752  1.00 17.01 LIG 0.24  C 
ATOM      3 O    GLU B 653       4.248 -20.928  13.299  1.00 18.89 LIG-0.27  OA
ATOM      4  N   GLU B 654       6.047 -19.575  13.338  1.00 17.47 LIG-0.35  N 
ATOM      5 H    GLU B 654       6.504 -18.929  13.001  1.00 17.47 LIG 0.16  HD
BRANCH 4 6
ATOM      6  CA  GLU B 654       6.565 -20.049  14.585  1.00 19.20 LIG 0.18  C 
BRANCH 6 7
ATOM      7  CB  GLU B 654       7.613 -21.118  14.329  1.00 21.36 LIG 0.04  C 
BRANCH 7 8
ATOM      8  CG  GLU B 654       8.562 -21.290  15.473  1.00 25.94 LIG 0.12  C 
BRANCH 8 9
ATOM      9  CD  GLU B 654       9.934 -21.676  15.035  1.00 34.53 LIG 0.17  C 
ATOM     10 OE2  GLU B 654      10.638 -22.389  15.801  1.00 38.43 LIG-0.65  OA
ATOM     11 OE1  GLU B 654      10.302 -21.272  13.895  1.00 40.98 LIG-0.65  OA
ENDBRANCH 8 9
ENDBRANCH 7 8
ENDBRANCH 6 7
BRANCH 6 12
ATOM     12  C   GLU B 654       7.177 -18.936  15.407  1.00 18.66 LIG 0.24  C 
ATOM     13  N   VAL B 655       6.502 -18.548  16.494  1.00 18.37 LIG-0.35  N 
ATOM     14 H    VAL B 655       5.704 -18.809  16.677  1.00 18.37 LIG 0.16  HD
ATOM     15 O    GLU B 654       8.171 -18.366  14.990  1.00 17.95 LIG-0.27  OA
BRANCH 13 16
ATOM     16  CA  VAL B 655       7.073 -17.628  17.481  1.00 18.99 LIG 0.18  C 
BRANCH 16 17
ATOM     17  C   VAL B 655       8.134 -18.396  18.276  1.00 20.12 LIG 0.24  C 
ATOM     18 O    VAL B 655       8.180 -19.637  18.222  1.00 20.44 LIG-0.27  OA
ATOM     19  N   ASP B 656       8.991 -17.653  18.975  1.00 20.60 LIG-0.34  N 
ATOM     20 H    ASP B 656       8.957 -16.795  19.019  1.00 20.60 LIG 0.16  HD
BRANCH 19 21
ATOM     21  CA  ASP B 656      10.093 -18.260  19.748  1.00 22.64 LIG 0.20  C 
BRANCH 21 22
ATOM     22  C   ASP B 656      11.127 -18.963  18.854  1.00 24.92 LIG 0.20  C 
ATOM     23 OXT  ASP B 656      11.019 -20.201  18.608  1.00 27.50 LIG-0.65  OA
ATOM     24 O    ASP B 656      12.106 -18.340  18.396  1.00 24.52 LIG-0.65  OA
ENDBRANCH 21 22
BRANCH 21 25
ATOM     25  CB  ASP B 656       9.489 -19.246  20.734  1.00 22.32 LIG 0.15  C 
BRANCH 25 26
ATOM     26  CG  ASP B 656       8.968 -18.553  21.988  1.00 24.14 LIG 0.17  C 
ATOM     27 OD1  ASP B 656       7.890 -17.923  21.943  1.00 27.79 LIG-0.65  OA
ATOM     28 OD2  ASP B 656       9.605 -18.685  23.046  1.00 21.16 LIG-0.65  OA
ENDBRANCH 25 26
ENDBRANCH 21 25
ENDBRANCH 19 21
ENDBRANCH 16 17
BRANCH 16 29
ATOM     29  CB  VAL B 655       6.056 -17.035  18.461  1.00 17.39 LIG 0.01  C 
ATOM     30  CG2 VAL B 655       6.612 -15.762  19.144  1.00 19.33 LIG 0.01  C 
ATOM     31  CG1 VAL B 655       5.597 -18.113  19.519  1.00 17.58 LIG 0.01  C 
ENDBRANCH 16 29
ENDBRANCH 13 16
ENDBRANCH 6 12
ENDBRANCH 4 6
ENDBRANCH 1 2
BRANCH 1 32
ATOM     32  CB  GLU B 653       3.181 -19.091  11.284  1.00 16.22 LIG 0.04  C 
BRANCH 32 33
ATOM     33  CG  GLU B 653       2.183 -20.206  11.185  1.00 17.46 LIG 0.12  C 
BRANCH 33 34
ATOM     34  CD  GLU B 653       0.753 -19.806  11.647  1.00 17.13 LIG 0.17  C 
ATOM     35 OE1  GLU B 653       0.595 -18.618  12.021  1.00 19.48 LIG-0.65  OA
ATOM     36 OE2  GLU B 653      -0.215 -20.643  11.646  1.00 19.36 LIG-0.65  OA
ENDBRANCH 33 34
ENDBRANCH 32 33
ENDBRANCH 1 32
BRANCH 1 37
ATOM     37  N   GLU B 653       4.914 -20.565  10.268  1.00 15.81 LIG-0.35  N 
ATOM     38  C   VAL B 652       5.376 -20.302   9.031  1.00 15.71 LIG 0.24  C 
ATOM     39 O    VAL B 652       5.754 -19.196   8.672  1.00 14.72 LIG-0.27  OA
ATOM     40 H    GLU B 653       4.726 -21.365  10.521  1.00 15.81 LIG 0.16  HD
BRANCH 38 41
ATOM     41  CA  VAL B 652       5.585 -21.532   8.074  1.00 15.41 LIG 0.18  C 
BRANCH 41 42
ATOM     42  N   VAL B 652       6.388 -22.541   8.742  1.00 15.06 LIG-0.35  N 
ATOM     43  C   THR B 651       7.640 -22.777   8.355  1.00 17.05 LIG 0.24  C 
ATOM     44 O    THR B 651       8.261 -22.050   7.589  1.00 16.18 LIG-0.27  OA
ATOM     45 H    VAL B 652       5.992 -22.952   9.385  1.00 15.06 LIG 0.16  HD
BRANCH 43 46
ATOM     46  CA  THR B 651       8.360 -23.925   9.011  1.00 18.25 LIG 0.20  C 
BRANCH 46 47
ATOM     47  N   THR B 651       8.691 -23.711  10.406  1.00 18.62 LIG-0.34  N 
ATOM     48 H    THR B 651       8.017 -23.720  10.939  1.00 18.62 LIG 0.16  HD
ATOM     49  C   PRO B 650       9.935 -23.520  10.791  1.00 22.21 LIG 0.25  C 
ATOM     50 O    PRO B 650      10.845 -23.324  10.000  1.00 21.73 LIG-0.27  OA
BRANCH 49 51
ATOM     51  CA  PRO B 650      10.189 -23.595  12.293  1.00 24.06 LIG 0.35  C 
ATOM     52  CB  PRO B 650      11.119 -24.736  12.703  1.00 25.19 LIG 0.05  C 
ATOM     53  CG  PRO B 650      10.637 -25.045  14.104  1.00 26.54 LIG 0.04  C 
ATOM     54  CD  PRO B 650       9.134 -24.931  13.984  1.00 26.80 LIG 0.32  C 
ATOM     55  N   PRO B 650       8.952 -23.961  12.906  1.00 26.10 LIG 0.32  N 
ENDBRANCH 49 51
ENDBRANCH 46 47
BRANCH 46 56
ATOM     56  CB  THR B 651       7.556 -25.252   8.910  1.00 18.88 LIG 0.15  C 
ATOM     57  CG2 THR B 651       6.294 -25.327   9.835  1.00 20.33 LIG 0.04  C 
BRANCH 56 58
ATOM     58 OG1  THR B 651       7.286 -25.468   7.525  1.00 19.33 LIG-0.39  OA
ATOM     59 HG1  THR B 651       8.003 -25.422   7.089  1.00 19.33 LIG 0.21  HD
ENDBRANCH 56 58
ENDBRANCH 46 56
ENDBRANCH 43 46
ENDBRANCH 41 42
BRANCH 41 60
ATOM     60  CB  VAL B 652       4.198 -22.047   7.587  1.00 13.27 LIG 0.01  C 
ATOM     61  CG1 VAL B 652       3.549 -22.874   8.581  1.00 15.32 LIG 0.01  C 
ATOM     62  CG2 VAL B 652       3.287 -20.893   7.171  1.00 15.72 LIG 0.01  C 
ENDBRANCH 41 60
ENDBRANCH 38 41
ENDBRANCH 1 37
TORSDOF 25
ENDMDL
MODEL 18
USER: ADFR SOLUTION from run 40
USER: SCORE 20.150430 LL:  -4.017 LR: -17.201 RR:   0.000 FEB:  -9.744
USER: RMSD 5.925597
USER: SEED 39
USER: STATUS no improvement in best in 8 clusters for 5 generations
USER: GENES 27
USER: genes 0 Translation |==|  0.48588 0.63386 0.41602
USER: genes 1 Rotation |==|  0.71103 0.71080 0.69555 0.85042
USER: genes 2 Torsion [N]-CA--C-[N] |==|  0.38876
USER: genes 3 Torsion [C]-N--CA-[C] |==|  0.74956
USER: genes 4 Torsion [N]-CA--CB-[CG] |==|  0.50789
USER: genes 5 Torsion [CA]-CB--CG-[CD] |==|  0.15643
USER: genes 6 Torsion [CB]-CG--CD-[OE2] |==|  0.18880
USER: genes 7 Torsion [N]-CA--C-[N] |==|  0.95072
USER: genes 8 Torsion [C]-N--CA-[C] |==|  0.88889
USER: genes 9 Torsion [N]-CA--C-[N] |==|  0.29100
USER: genes 10 Torsion [C]-N--CA-[C] |==|  0.79299
USER: genes 11 Torsion [N]-CA--C-[OXT] |==|  0.48057
USER: genes 12 Torsion [N]-CA--CB-[CG] |==|  0.08875
USER: genes 13 Torsion [CA]-CB--CG-[OD1] |==|  0.26650
USER: genes 14 Torsion [N]-CA--CB-[CG2] |==|  0.08647
USER: genes 15 Torsion [C]-CA--CB-[CG] |==|  0.24338
USER: genes 16 Torsion [CA]-CB--CG-[CD] |==|  0.10316
USER: genes 17 Torsion [CB]-CG--CD-[OE2] |==|  0.83716
USER: genes 18 Torsion [C]-CA--N-[C] |==|  0.85819
USER: genes 19 Torsion [N]-C--CA-[N] |==|  0.42879
USER: genes 20 Torsion [C]-CA--N-[C] |==|  0.75950
USER: genes 21 Torsion [N]-C--CA-[N] |==|  0.96310
USER: genes 22 Torsion [C]-CA--N-[C] |==|  0.80857
USER: genes 23 Torsion [N]-C--CA-[CB] |==|  0.74437
USER: genes 24 Torsion [C]-CA--CB-[CG2] |==|  0.35950
USER: genes 25 Torsion [CA]-CB--OG1-[HG1] |==|  0.78940
USER: genes 26 Torsion [C]-CA--CB-[CG1] |==|  0.85666
ROOT
ATOM      1  CA  GLU B 653       4.309 -20.591  11.568  1.00 16.59 LIG 0.18  C 
ENDROOT
BRANCH 1 2
ATOM      2  C   GLU B 653       2.989 -21.268  11.147  1.00 17.01 LIG 0.24  C 
ATOM      3 O    GLU B 653       2.855 -22.506  11.200  1.00 18.89 LIG-0.27  OA
ATOM      4  N   GLU B 654       2.013 -20.465  10.762  1.00 17.47 LIG-0.35  N 
ATOM      5 H    GLU B 654       2.123 -19.620  10.646  1.00 17.47 LIG 0.16  HD
BRANCH 4 6
ATOM      6  CA  GLU B 654       0.678 -20.906  10.498  1.00 19.20 LIG 0.18  C 
BRANCH 6 7
ATOM      7  CB  GLU B 654      -0.303 -19.801  10.847  1.00 21.36 LIG 0.04  C 
BRANCH 7 8
ATOM      8  CG  GLU B 654      -1.732 -20.208  10.662  1.00 25.94 LIG 0.12  C 
BRANCH 8 9
ATOM      9  CD  GLU B 654      -2.093 -21.426  11.441  1.00 34.53 LIG 0.17  C 
ATOM     10 OE2  GLU B 654      -2.123 -21.355  12.700  1.00 38.43 LIG-0.65  OA
ATOM     11 OE1  GLU B 654      -2.368 -22.466  10.777  1.00 40.98 LIG-0.65  OA
ENDBRANCH 8 9
ENDBRANCH 7 8
ENDBRANCH 6 7
BRANCH 6 12
ATOM     12  C   GLU B 654       0.486 -21.307   9.052  1.00 18.66 LIG 0.24  C 
ATOM     13  N   VAL B 655       1.398 -20.870   8.179  1.00 18.37 LIG-0.35  N 
ATOM     14 H    VAL B 655       2.004 -20.293   8.373  1.00 18.37 LIG 0.16  HD
ATOM     15 O    GLU B 654      -0.534 -21.891   8.727  1.00 17.95 LIG-0.27  OA
BRANCH 13 16
ATOM     16  CA  VAL B 655       1.445 -21.345   6.794  1.00 18.99 LIG 0.18  C 
BRANCH 16 17
ATOM     17  C   VAL B 655       1.157 -22.850   6.806  1.00 20.12 LIG 0.24  C 
ATOM     18 O    VAL B 655       2.019 -23.648   7.211  1.00 20.44 LIG-0.27  OA
ATOM     19  N   ASP B 656      -0.056 -23.217   6.395  1.00 20.60 LIG-0.34  N 
ATOM     20 H    ASP B 656      -0.652 -22.666   6.108  1.00 20.60 LIG 0.16  HD
BRANCH 19 21
ATOM     21  CA  ASP B 656      -0.483 -24.629   6.400  1.00 22.64 LIG 0.20  C 
BRANCH 21 22
ATOM     22  C   ASP B 656       0.158 -25.447   5.268  1.00 24.92 LIG 0.20  C 
ATOM     23 OXT  ASP B 656      -0.005 -26.702   5.219  1.00 27.50 LIG-0.65  OA
ATOM     24 O    ASP B 656       0.880 -24.898   4.411  1.00 24.52 LIG-0.65  OA
ENDBRANCH 21 22
BRANCH 21 25
ATOM     25  CB  ASP B 656      -1.998 -24.663   6.284  1.00 22.32 LIG 0.15  C 
BRANCH 25 26
ATOM     26  CG  ASP B 656      -2.535 -23.498   5.460  1.00 24.14 LIG 0.17  C 
ATOM     27 OD1  ASP B 656      -2.775 -23.660   4.245  1.00 27.79 LIG-0.65  OA
ATOM     28 OD2  ASP B 656      -2.778 -22.427   6.038  1.00 21.16 LIG-0.65  OA
ENDBRANCH 25 26
ENDBRANCH 21 25
ENDBRANCH 19 21
ENDBRANCH 16 17
BRANCH 16 29
ATOM     29  CB  VAL B 655       2.779 -21.103   6.083  1.00 17.39 LIG 0.01  C 
ATOM     30  CG2 VAL B 655       3.962 -21.149   7.080  1.00 19.33 LIG 0.01  C 
ATOM     31  CG1 VAL B 655       2.750 -19.748   5.273  1.00 17.58 LIG 0.01  C 
ENDBRANCH 16 29
ENDBRANCH 13 16
ENDBRANCH 6 12
ENDBRANCH 4 6
ENDBRANCH 1 2
BRANCH 1 32
ATOM     32  CB  GLU B 653       5.284 -20.621  10.341  1.00 16.22 LIG 0.04  C 
BRANCH 32 33
ATOM     33  CG  GLU B 653       5.137 -19.451   9.416  1.00 17.46 LIG 0.12  C 
BRANCH 33 34
ATOM     34  CD  GLU B 653       4.840 -18.111  10.147  1.00 17.13 LIG 0.17  C 
ATOM     35 OE1  GLU B 653       5.658 -17.177   9.964  1.00 19.48 LIG-0.65  OA
ATOM     36 OE2  GLU B 653       3.813 -17.964  10.896  1.00 19.36 LIG-0.65  OA
ENDBRANCH 33 34
ENDBRANCH 32 33
ENDBRANCH 1 32
BRANCH 1 37
ATOM     37  N   GLU B 653       4.955 -21.200  12.743  1.00 15.81 LIG-0.35  N 
ATOM     38  C   VAL B 652       4.361 -21.460  13.922  1.00 15.71 LIG 0.24  C 
ATOM     39 O    VAL B 652       3.164 -21.312  14.122  1.00 14.72 LIG-0.27  OA
ATOM     40 H    GLU B 653       5.784 -21.384  12.603  1.00 15.81 LIG 0.16  HD
BRANCH 38 41
ATOM     41  CA  VAL B 652       5.244 -22.145  15.029  1.00 15.41 LIG 0.18  C 
BRANCH 41 42
ATOM     42  N   VAL B 652       4.719 -21.819  16.343  1.00 15.06 LIG-0.35  N 
ATOM     43  C   THR B 651       5.094 -20.704  16.966  1.00 17.05 LIG 0.24  C 
ATOM     44 O    THR B 651       5.710 -19.797  16.419  1.00 16.18 LIG-0.27  OA
ATOM     45 H    VAL B 652       4.166 -22.394  16.665  1.00 15.06 LIG 0.16  HD
BRANCH 43 46
ATOM     46  CA  THR B 651       4.606 -20.504  18.377  1.00 18.25 LIG 0.20  C 
BRANCH 46 47
ATOM     47  N   THR B 651       3.544 -21.404  18.780  1.00 18.62 LIG-0.34  N 
ATOM     48 H    THR B 651       3.771 -21.983  19.374  1.00 18.62 LIG 0.16  HD
ATOM     49  C   PRO B 650       2.339 -21.313  18.261  1.00 22.21 LIG 0.25  C 
ATOM     50 O    PRO B 650       2.091 -20.613  17.291  1.00 21.73 LIG-0.27  OA
BRANCH 49 51
ATOM     51  CA  PRO B 650       1.245 -22.111  18.965  1.00 24.06 LIG 0.35  C 
ATOM     52  CB  PRO B 650       1.043 -23.514  18.392  1.00 25.19 LIG 0.05  C 
ATOM     53  CG  PRO B 650      -0.420 -23.764  18.684  1.00 26.54 LIG 0.04  C 
ATOM     54  CD  PRO B 650      -1.063 -22.428  18.389  1.00 26.80 LIG 0.32  C 
ATOM     55  N   PRO B 650       0.004 -21.469  18.666  1.00 26.10 LIG 0.32  N 
ENDBRANCH 49 51
ENDBRANCH 46 47
BRANCH 46 56
ATOM     56  CB  THR B 651       5.758 -20.629  19.415  1.00 18.88 LIG 0.15  C 
ATOM     57  CG2 THR B 651       5.852 -19.445  20.435  1.00 20.33 LIG 0.04  C 
BRANCH 56 58
ATOM     58 OG1  THR B 651       5.637 -21.918  20.015  1.00 19.33 LIG-0.39  OA
ATOM     59 HG1  THR B 651       5.001 -21.913  20.564  1.00 19.33 LIG 0.21  HD
ENDBRANCH 56 58
ENDBRANCH 46 56
ENDBRANCH 43 46
ENDBRANCH 41 42
BRANCH 41 60
ATOM     60  CB  VAL B 652       5.333 -23.673  14.743  1.00 13.27 LIG 0.01  C 
ATOM     61  CG1 VAL B 652       4.026 -24.266  14.555  1.00 15.32 LIG 0.01  C 
ATOM     62  CG2 VAL B 652       6.234 -23.967  13.544  1.00 15.72 LIG 0.01  C 
ENDBRANCH 41 60
ENDBRANCH 38 41
ENDBRANCH 1 37
TORSDOF 25
ENDMDL
MODEL 19
USER: ADFR SOLUTION from run 75
USER: SCORE 19.079468 LL:  -4.435 LR: -17.194 RR:   0.000 FEB:  -9.737
USER: RMSD 9.759879
USER: SEED 74
USER: STATUS no improvement in best in 5 clusters for 5 generations
USER: GENES 27
USER: genes 0 Translation |==|  0.51318 0.69629 0.40104
USER: genes 1 Rotation |==|  0.17180 0.16760 0.67627 0.52681
USER: genes 2 Torsion [N]-CA--C-[N] |==|  0.97225
USER: genes 3 Torsion [C]-N--CA-[C] |==|  0.14512
USER: genes 4 Torsion [N]-CA--CB-[CG] |==|  0.70644
USER: genes 5 Torsion [CA]-CB--CG-[CD] |==|  0.45735
USER: genes 6 Torsion [CB]-CG--CD-[OE2] |==|  0.33867
USER: genes 7 Torsion [N]-CA--C-[N] |==|  0.59795
USER: genes 8 Torsion [C]-N--CA-[C] |==|  0.65501
USER: genes 9 Torsion [N]-CA--C-[N] |==|  0.02088
USER: genes 10 Torsion [C]-N--CA-[C] |==|  0.81302
USER: genes 11 Torsion [N]-CA--C-[OXT] |==|  0.83957
USER: genes 12 Torsion [N]-CA--CB-[CG] |==|  0.81525
USER: genes 13 Torsion [CA]-CB--CG-[OD1] |==|  0.65000
USER: genes 14 Torsion [N]-CA--CB-[CG2] |==|  0.00319
USER: genes 15 Torsion [C]-CA--CB-[CG] |==|  0.76890
USER: genes 16 Torsion [CA]-CB--CG-[CD] |==|  0.46476
USER: genes 17 Torsion [CB]-CG--CD-[OE2] |==|  0.98544
USER: genes 18 Torsion [C]-CA--N-[C] |==|  0.62222
USER: genes 19 Torsion [N]-C--CA-[N] |==|  0.84060
USER: genes 20 Torsion [C]-CA--N-[C] |==|  0.73727
USER: genes 21 Torsion [N]-C--CA-[N] |==|  0.64556
USER: genes 22 Torsion [C]-CA--N-[C] |==|  0.62583
USER: genes 23 Torsion [N]-C--CA-[CB] |==|  0.07200
USER: genes 24 Torsion [C]-CA--CB-[CG2] |==|  0.27699
USER: genes 25 Torsion [CA]-CB--OG1-[HG1] |==|  0.75862
USER: genes 26 Torsion [C]-CA--CB-[CG1] |==|  0.77442
ROOT
ATOM      1  CA  GLU B 653       4.924 -19.561  11.220  1.00 16.59 LIG 0.18  C 
ENDROOT
BRANCH 1 2
ATOM      2  C   GLU B 653       5.366 -19.923  12.652  1.00 17.01 LIG 0.24  C 
ATOM      3 O    GLU B 653       5.459 -19.050  13.538  1.00 18.89 LIG-0.27  OA
ATOM      4  N   GLU B 654       5.606 -21.201  12.889  1.00 17.47 LIG-0.35  N 
ATOM      5 H    GLU B 654       5.623 -21.795  12.267  1.00 17.47 LIG 0.16  HD
BRANCH 4 6
ATOM      6  CA  GLU B 654       5.863 -21.734  14.191  1.00 19.20 LIG 0.18  C 
BRANCH 6 7
ATOM      7  CB  GLU B 654       7.214 -21.247  14.684  1.00 21.36 LIG 0.04  C 
BRANCH 7 8
ATOM      8  CG  GLU B 654       8.268 -22.309  14.643  1.00 25.94 LIG 0.12  C 
BRANCH 8 9
ATOM      9  CD  GLU B 654       9.649 -21.762  14.771  1.00 34.53 LIG 0.17  C 
ATOM     10 OE2  GLU B 654      10.378 -22.168  15.717  1.00 38.43 LIG-0.65  OA
ATOM     11 OE1  GLU B 654      10.013 -20.925  13.896  1.00 40.98 LIG-0.65  OA
ENDBRANCH 8 9
ENDBRANCH 7 8
ENDBRANCH 6 7
BRANCH 6 12
ATOM     12  C   GLU B 654       4.796 -21.340  15.189  1.00 18.66 LIG 0.24  C 
ATOM     13  N   VAL B 655       5.197 -21.113  16.443  1.00 18.37 LIG-0.35  N 
ATOM     14 H    VAL B 655       5.988 -21.289  16.729  1.00 18.37 LIG 0.16  HD
ATOM     15 O    GLU B 654       3.625 -21.367  14.849  1.00 17.95 LIG-0.27  OA
BRANCH 13 16
ATOM     16  CA  VAL B 655       4.309 -20.534  17.455  1.00 18.99 LIG 0.18  C 
BRANCH 16 17
ATOM     17  C   VAL B 655       4.991 -19.282  18.014  1.00 20.12 LIG 0.24  C 
ATOM     18 O    VAL B 655       4.518 -18.703  19.007  1.00 20.44 LIG-0.27  OA
ATOM     19  N   ASP B 656       6.107 -18.898  17.395  1.00 20.60 LIG-0.34  N 
ATOM     20 H    ASP B 656       6.432 -19.294  16.704  1.00 20.60 LIG 0.16  HD
BRANCH 19 21
ATOM     21  CA  ASP B 656       6.891 -17.737  17.858  1.00 22.64 LIG 0.20  C 
BRANCH 21 22
ATOM     22  C   ASP B 656       6.146 -16.405  17.671  1.00 24.92 LIG 0.20  C 
ATOM     23 OXT  ASP B 656       5.752 -16.053  16.521  1.00 27.50 LIG-0.65  OA
ATOM     24 O    ASP B 656       5.958 -15.637  18.637  1.00 24.52 LIG-0.65  OA
ENDBRANCH 21 22
BRANCH 21 25
ATOM     25  CB  ASP B 656       8.204 -17.720  17.093  1.00 22.32 LIG 0.15  C 
BRANCH 25 26
ATOM     26  CG  ASP B 656       9.087 -18.912  17.445  1.00 24.14 LIG 0.17  C 
ATOM     27 OD1  ASP B 656      10.260 -18.720  17.827  1.00 27.79 LIG-0.65  OA
ATOM     28 OD2  ASP B 656       8.591 -20.050  17.398  1.00 21.16 LIG-0.65  OA
ENDBRANCH 25 26
ENDBRANCH 21 25
ENDBRANCH 19 21
ENDBRANCH 16 17
BRANCH 16 29
ATOM     29  CB  VAL B 655       3.972 -21.473  18.617  1.00 17.39 LIG 0.01  C 
ATOM     30  CG2 VAL B 655       4.688 -22.837  18.462  1.00 19.33 LIG 0.01  C 
ATOM     31  CG1 VAL B 655       2.410 -21.648  18.767  1.00 17.58 LIG 0.01  C 
ENDBRANCH 16 29
ENDBRANCH 13 16
ENDBRANCH 6 12
ENDBRANCH 4 6
ENDBRANCH 1 2
BRANCH 1 32
ATOM     32  CB  GLU B 653       3.437 -19.067  11.281  1.00 16.22 LIG 0.04  C 
BRANCH 32 33
ATOM     33  CG  GLU B 653       2.425 -20.173  11.276  1.00 17.46 LIG 0.12  C 
BRANCH 33 34
ATOM     34  CD  GLU B 653       0.989 -19.707  11.647  1.00 17.13 LIG 0.17  C 
ATOM     35 OE1  GLU B 653       0.079 -20.567  11.562  1.00 19.48 LIG-0.65  OA
ATOM     36 OE2  GLU B 653       0.744 -18.508  12.021  1.00 19.36 LIG-0.65  OA
ENDBRANCH 33 34
ENDBRANCH 32 33
ENDBRANCH 1 32
BRANCH 1 37
ATOM     37  N   GLU B 653       5.052 -20.660  10.250  1.00 15.81 LIG-0.35  N 
ATOM     38  C   VAL B 652       5.549 -20.556   9.003  1.00 15.71 LIG 0.24  C 
ATOM     39 O    VAL B 652       6.057 -19.535   8.561  1.00 14.72 LIG-0.27  OA
ATOM     40 H    GLU B 653       4.769 -21.410  10.563  1.00 15.81 LIG 0.16  HD
BRANCH 38 41
ATOM     41  CA  VAL B 652       5.617 -21.876   8.151  1.00 15.41 LIG 0.18  C 
BRANCH 41 42
ATOM     42  N   VAL B 652       6.408 -22.871   8.853  1.00 15.06 LIG-0.35  N 
ATOM     43  C   THR B 651       7.706 -23.011   8.594  1.00 17.05 LIG 0.24  C 
ATOM     44 O    THR B 651       8.357 -22.207   7.937  1.00 16.18 LIG-0.27  OA
ATOM     45 H    VAL B 652       5.973 -23.340   9.428  1.00 15.06 LIG 0.16  HD
BRANCH 43 46
ATOM     46  CA  THR B 651       8.426 -24.149   9.269  1.00 18.25 LIG 0.20  C 
BRANCH 46 47
ATOM     47  N   THR B 651       9.626 -23.764   9.984  1.00 18.62 LIG-0.34  N 
ATOM     48 H    THR B 651       9.542 -23.062  10.474  1.00 18.62 LIG 0.16  HD
ATOM     49  C   PRO B 650      10.739 -24.455   9.871  1.00 22.21 LIG 0.25  C 
ATOM     50 O    PRO B 650      10.888 -25.329   9.029  1.00 21.73 LIG-0.27  OA
BRANCH 49 51
ATOM     51  CA  PRO B 650      11.836 -24.128  10.880  1.00 24.06 LIG 0.35  C 
ATOM     52  CB  PRO B 650      11.310 -23.553  12.194  1.00 25.19 LIG 0.05  C 
ATOM     53  CG  PRO B 650      12.468 -22.688  12.643  1.00 26.54 LIG 0.04  C 
ATOM     54  CD  PRO B 650      12.942 -22.053  11.356  1.00 26.80 LIG 0.32  C 
ATOM     55  N   PRO B 650      12.588 -23.040  10.339  1.00 26.10 LIG 0.32  N 
ENDBRANCH 49 51
ENDBRANCH 46 47
BRANCH 46 56
ATOM     56  CB  THR B 651       7.504 -24.915  10.260  1.00 18.88 LIG 0.15  C 
ATOM     57  CG2 THR B 651       6.902 -26.247   9.700  1.00 20.33 LIG 0.04  C 
BRANCH 56 58
ATOM     58 OG1  THR B 651       8.236 -25.063  11.477  1.00 19.33 LIG-0.39  OA
ATOM     59 HG1  THR B 651       8.705 -25.758  11.438  1.00 19.33 LIG 0.21  HD
ENDBRANCH 56 58
ENDBRANCH 46 56
ENDBRANCH 43 46
ENDBRANCH 41 42
BRANCH 41 60
ATOM     60  CB  VAL B 652       4.171 -22.343   7.809  1.00 13.27 LIG 0.01  C 
ATOM     61  CG1 VAL B 652       3.562 -23.064   8.905  1.00 15.32 LIG 0.01  C 
ATOM     62  CG2 VAL B 652       3.290 -21.169   7.382  1.00 15.72 LIG 0.01  C 
ENDBRANCH 41 60
ENDBRANCH 38 41
ENDBRANCH 1 37
TORSDOF 25
ENDMDL
MODEL 20
USER: ADFR SOLUTION from run 38
USER: SCORE 20.841016 LL:  -5.061 LR: -17.155 RR:   0.000 FEB:  -9.697
USER: RMSD 10.170338
USER: SEED 37
USER: STATUS no improvement in best in 7 clusters for 5 generations
USER: GENES 27
USER: genes 0 Translation |==|  0.49064 0.63524 0.40204
USER: genes 1 Rotation |==|  0.13688 0.18456 0.59754 0.59557
USER: genes 2 Torsion [N]-CA--C-[N] |==|  0.10624
USER: genes 3 Torsion [C]-N--CA-[C] |==|  0.63143
USER: genes 4 Torsion [N]-CA--CB-[CG] |==|  0.82217
USER: genes 5 Torsion [CA]-CB--CG-[CD] |==|  0.30454
USER: genes 6 Torsion [CB]-CG--CD-[OE2] |==|  0.42374
USER: genes 7 Torsion [N]-CA--C-[N] |==|  0.01236
USER: genes 8 Torsion [C]-N--CA-[C] |==|  0.74605
USER: genes 9 Torsion [N]-CA--C-[N] |==|  0.03889
USER: genes 10 Torsion [C]-N--CA-[C] |==|  0.86010
USER: genes 11 Torsion [N]-CA--C-[OXT] |==|  0.41312
USER: genes 12 Torsion [N]-CA--CB-[CG] |==|  0.85198
USER: genes 13 Torsion [CA]-CB--CG-[OD1] |==|  0.40931
USER: genes 14 Torsion [N]-CA--CB-[CG2] |==|  0.88673
USER: genes 15 Torsion [C]-CA--CB-[CG] |==|  0.77821
USER: genes 16 Torsion [CA]-CB--CG-[CD] |==|  0.45710
USER: genes 17 Torsion [CB]-CG--CD-[OE2] |==|  0.04255
USER: genes 18 Torsion [C]-CA--N-[C] |==|  0.58889
USER: genes 19 Torsion [N]-C--CA-[N] |==|  0.88360
USER: genes 20 Torsion [C]-CA--N-[C] |==|  0.76558
USER: genes 21 Torsion [N]-C--CA-[N] |==|  0.31212
USER: genes 22 Torsion [C]-CA--N-[C] |==|  0.70634
USER: genes 23 Torsion [N]-C--CA-[CB] |==|  0.09327
USER: genes 24 Torsion [C]-CA--CB-[CG2] |==|  0.34467
USER: genes 25 Torsion [CA]-CB--OG1-[HG1] |==|  0.15523
USER: genes 26 Torsion [C]-CA--CB-[CG1] |==|  0.82096
ROOT
ATOM      1  CA  GLU B 653       4.416 -20.569  11.243  1.00 16.59 LIG 0.18  C 
ENDROOT
BRANCH 1 2
ATOM      2  C   GLU B 653       4.598 -21.498  12.460  1.00 17.01 LIG 0.24  C 
ATOM      3 O    GLU B 653       3.966 -21.305  13.518  1.00 18.89 LIG-0.27  OA
ATOM      4  N   GLU B 654       5.428 -22.514  12.306  1.00 17.47 LIG-0.35  N 
ATOM      5 H    GLU B 654       5.927 -22.607  11.611  1.00 17.47 LIG 0.16  HD
BRANCH 4 6
ATOM      6  CA  GLU B 654       5.589 -23.563  13.266  1.00 19.20 LIG 0.18  C 
BRANCH 6 7
ATOM      7  CB  GLU B 654       4.914 -24.826  12.761  1.00 21.36 LIG 0.04  C 
BRANCH 7 8
ATOM      8  CG  GLU B 654       3.432 -24.677  12.616  1.00 25.94 LIG 0.12  C 
BRANCH 8 9
ATOM      9  CD  GLU B 654       2.988 -24.653  11.193  1.00 34.53 LIG 0.17  C 
ATOM     10 OE2  GLU B 654       1.824 -25.052  10.914  1.00 38.43 LIG-0.65  OA
ATOM     11 OE1  GLU B 654       3.815 -24.210  10.346  1.00 40.98 LIG-0.65  OA
ENDBRANCH 8 9
ENDBRANCH 7 8
ENDBRANCH 6 7
BRANCH 6 12
ATOM     12  C   GLU B 654       7.046 -23.855  13.552  1.00 18.66 LIG 0.24  C 
ATOM     13  N   VAL B 655       7.947 -23.062  12.964  1.00 18.37 LIG-0.35  N 
ATOM     14 H    VAL B 655       7.750 -22.486  12.357  1.00 18.37 LIG 0.16  HD
ATOM     15 O    GLU B 654       7.339 -24.852  14.190  1.00 17.95 LIG-0.27  OA
BRANCH 13 16
ATOM     16  CA  VAL B 655       9.370 -23.105  13.309  1.00 18.99 LIG 0.18  C 
BRANCH 16 17
ATOM     17  C   VAL B 655       9.612 -22.082  14.424  1.00 20.12 LIG 0.24  C 
ATOM     18 O    VAL B 655      10.768 -21.716  14.696  1.00 20.44 LIG-0.27  OA
ATOM     19  N   ASP B 656       8.524 -21.611  15.031  1.00 20.60 LIG-0.34  N 
ATOM     20 H    ASP B 656       7.724 -21.869  14.849  1.00 20.60 LIG 0.16  HD
BRANCH 19 21
ATOM     21  CA  ASP B 656       8.608 -20.586  16.089  1.00 22.64 LIG 0.20  C 
BRANCH 21 22
ATOM     22  C   ASP B 656       9.624 -20.946  17.185  1.00 24.92 LIG 0.20  C 
ATOM     23 OXT  ASP B 656      10.252 -20.032  17.796  1.00 27.50 LIG-0.65  OA
ATOM     24 O    ASP B 656       9.874 -22.138  17.459  1.00 24.52 LIG-0.65  OA
ENDBRANCH 21 22
BRANCH 21 25
ATOM     25  CB  ASP B 656       7.222 -20.412  16.689  1.00 22.32 LIG 0.15  C 
BRANCH 25 26
ATOM     26  CG  ASP B 656       6.170 -20.128  15.623  1.00 24.14 LIG 0.17  C 
ATOM     27 OD1  ASP B 656       5.003 -20.544  15.782  1.00 27.79 LIG-0.65  OA
ATOM     28 OD2  ASP B 656       6.490 -19.432  14.646  1.00 21.16 LIG-0.65  OA
ENDBRANCH 25 26
ENDBRANCH 21 25
ENDBRANCH 19 21
ENDBRANCH 16 17
BRANCH 16 29
ATOM     29  CB  VAL B 655      10.316 -22.800  12.145  1.00 17.39 LIG 0.01  C 
ATOM     30  CG2 VAL B 655       9.830 -23.468  10.837  1.00 19.33 LIG 0.01  C 
ATOM     31  CG1 VAL B 655      11.798 -23.216  12.498  1.00 17.58 LIG 0.01  C 
ENDBRANCH 16 29
ENDBRANCH 13 16
ENDBRANCH 6 12
ENDBRANCH 4 6
ENDBRANCH 1 2
BRANCH 1 32
ATOM     32  CB  GLU B 653       3.089 -19.760  11.443  1.00 16.22 LIG 0.04  C 
BRANCH 32 33
ATOM     33  CG  GLU B 653       1.848 -20.526  11.094  1.00 17.46 LIG 0.12  C 
BRANCH 33 34
ATOM     34  CD  GLU B 653       0.542 -19.882  11.640  1.00 17.13 LIG 0.17  C 
ATOM     35 OE1  GLU B 653      -0.482 -20.608  11.646  1.00 19.48 LIG-0.65  OA
ATOM     36 OE2  GLU B 653       0.511 -18.675  12.063  1.00 19.36 LIG-0.65  OA
ENDBRANCH 33 34
ENDBRANCH 32 33
ENDBRANCH 1 32
BRANCH 1 37
ATOM     37  N   GLU B 653       4.394 -21.265   9.946  1.00 15.81 LIG-0.35  N 
ATOM     38  C   VAL B 652       4.844 -20.768   8.779  1.00 15.71 LIG 0.24  C 
ATOM     39 O    VAL B 652       5.428 -19.699   8.679  1.00 14.72 LIG-0.27  OA
ATOM     40 H    GLU B 653       4.054 -22.053  10.003  1.00 15.81 LIG 0.16  HD
BRANCH 38 41
ATOM     41  CA  VAL B 652       4.745 -21.708   7.521  1.00 15.41 LIG 0.18  C 
BRANCH 41 42
ATOM     42  N   VAL B 652       5.135 -23.058   7.888  1.00 15.06 LIG-0.35  N 
ATOM     43  C   THR B 651       6.417 -23.414   7.900  1.00 17.05 LIG 0.24  C 
ATOM     44 O    THR B 651       7.343 -22.615   7.822  1.00 16.18 LIG-0.27  OA
ATOM     45 H    VAL B 652       4.482 -23.581   8.087  1.00 15.06 LIG 0.16  HD
BRANCH 43 46
ATOM     46  CA  THR B 651       6.729 -24.863   8.165  1.00 18.25 LIG 0.20  C 
BRANCH 46 47
ATOM     47  N   THR B 651       7.291 -25.575   7.035  1.00 18.62 LIG-0.34  N 
ATOM     48 H    THR B 651       8.112 -25.385   6.864  1.00 18.62 LIG 0.16  HD
ATOM     49  C   PRO B 650       6.575 -26.437   6.346  1.00 22.21 LIG 0.25  C 
ATOM     50 O    PRO B 650       5.367 -26.550   6.487  1.00 21.73 LIG-0.27  OA
BRANCH 49 51
ATOM     51  CA  PRO B 650       7.348 -27.326   5.376  1.00 24.06 LIG 0.35  C 
ATOM     52  CB  PRO B 650       8.751 -27.691   5.861  1.00 25.19 LIG 0.05  C 
ATOM     53  CG  PRO B 650       9.495 -27.875   4.557  1.00 26.54 LIG 0.04  C 
ATOM     54  CD  PRO B 650       8.962 -26.754   3.694  1.00 26.80 LIG 0.32  C 
ATOM     55  N   PRO B 650       7.613 -26.538   4.213  1.00 26.10 LIG 0.32  N 
ENDBRANCH 49 51
ENDBRANCH 46 47
BRANCH 46 56
ATOM     56  CB  THR B 651       7.695 -25.041   9.371  1.00 18.88 LIG 0.15  C 
ATOM     57  CG2 THR B 651       7.158 -25.971  10.510  1.00 20.33 LIG 0.04  C 
BRANCH 56 58
ATOM     58 OG1  THR B 651       8.958 -25.432   8.834  1.00 19.33 LIG-0.39  OA
ATOM     59 HG1  THR B 651       9.212 -24.863   8.271  1.00 19.33 LIG 0.21  HD
ENDBRANCH 56 58
ENDBRANCH 46 56
ENDBRANCH 43 46
ENDBRANCH 41 42
BRANCH 41 60
ATOM     60  CB  VAL B 652       3.315 -21.604   6.913  1.00 13.27 LIG 0.01  C 
ATOM     61  CG1 VAL B 652       2.304 -22.099   7.821  1.00 15.32 LIG 0.01  C 
ATOM     62  CG2 VAL B 652       2.994 -20.175   6.477  1.00 15.72 LIG 0.01  C 
ENDBRANCH 41 60
ENDBRANCH 38 41
ENDBRANCH 1 37
TORSDOF 25
ENDMDL
