MODEL 1
USER: ADFR SOLUTION from run 102
USER: SCORE 21.097097 LL:  -3.955 LR: -21.137 RR:   0.000 FEB: -12.188
USER: RMSD 4.899925
USER: SEED 101
USER: STATUS no improvement in best in 4 clusters for 5 generations
USER: GENES 32
USER: genes 0 Translation |==|  0.41516 0.60235 0.53300
USER: genes 1 Rotation |==|  0.51280 0.49586 0.51394 0.99962
USER: genes 2 Torsion [C]-CA--CB-[CG] |==|  0.08778
USER: genes 3 Torsion [CA]-CB--CG-[CD] |==|  0.25146
USER: genes 4 Torsion [CB]-CG--CD-[CE] |==|  0.50305
USER: genes 5 Torsion [CG]-CD--CE-[NZ] |==|  0.48076
USER: genes 6 Torsion [CD]-CE--NZ-[HZ1] |==|  0.71109
USER: genes 7 Torsion [N]-CA--C-[N] |==|  0.43191
USER: genes 8 Torsion [C]-N--CA-[CB] |==|  0.42845
USER: genes 9 Torsion [N]-CA--CB-[CG] |==|  0.15168
USER: genes 10 Torsion [CA]-CB--CG-[CD] |==|  0.28185
USER: genes 11 Torsion [CB]-CG--CD-[OE1] |==|  0.05335
USER: genes 12 Torsion [N]-CA--C-[N] |==|  0.08465
USER: genes 13 Torsion [C]-N--CA-[CB] |==|  0.26111
USER: genes 14 Torsion [N]-CA--CB-[CG2] |==|  0.67550
USER: genes 15 Torsion [CA]-CB--OG1-[HG1] |==|  0.46825
USER: genes 16 Torsion [N]-CA--C-[N] |==|  0.36186
USER: genes 17 Torsion [C]-N--CA-[C] |==|  0.17461
USER: genes 18 Torsion [N]-CA--C-[O] |==|  0.55706
USER: genes 19 Torsion [CB]-CA--N-[C] |==|  0.47626
USER: genes 20 Torsion [N]-C--CA-[N] |==|  0.43624
USER: genes 21 Torsion [C]-CA--CB-[CG2] |==|  0.66062
USER: genes 22 Torsion [CA]-CB--OG1-[HG1] |==|  0.42601
USER: genes 23 Torsion [C]-CA--N-[C] |==|  0.56008
USER: genes 24 Torsion [N]-C--CA-[N] |==|  0.48103
USER: genes 25 Torsion [C]-CA--N-[C] |==|  0.79533
USER: genes 26 Torsion [N]-C--CA-[N] |==|  0.25138
USER: genes 27 Torsion [C]-CA--N-[H1] |==|  0.20554
USER: genes 28 Torsion [C]-CA--CB-[CG] |==|  0.26667
USER: genes 29 Torsion [CA]-CB--CG-[CD] |==|  0.40616
USER: genes 30 Torsion [CB]-CG--CD-[NE] |==|  0.06639
USER: genes 31 Torsion [CG]-CD--NE-[HE] |==|  0.20387
ROOT
ATOM      1  CA  LYS Q   4      13.555  13.151  16.954  1.00 15.20 LIG 0.18  C 
ENDROOT
BRANCH 1 2
ATOM      2  CB  LYS Q   4      12.081  13.253  16.572  1.00 14.69 LIG 0.04  C 
BRANCH 2 3
ATOM      3  CG  LYS Q   4      11.246  13.951  17.606  1.00 16.14 LIG 0.00  C 
BRANCH 3 4
ATOM      4  CD  LYS Q   4      11.181  15.429  17.344  1.00 18.10 LIG 0.03  C 
BRANCH 4 5
ATOM      5  CE  LYS Q   4      10.355  16.092  18.424  1.00 22.11 LIG 0.23  C 
BRANCH 5 6
ATOM      6  NZ  LYS Q   4      10.400  17.573  18.299  1.00 25.79 LIG-0.08  N 
ATOM      7 HZ1  LYS Q   4      10.940  17.907  18.923  1.00 25.79 LIG 0.27  HD
ATOM      8 HZ2  LYS Q   4      10.707  17.795  17.493  1.00 25.79 LIG 0.27  HD
ATOM      9 HZ3  LYS Q   4       9.582  17.906  18.407  1.00 25.79 LIG 0.27  HD
ENDBRANCH 5 6
ENDBRANCH 4 5
ENDBRANCH 3 4
ENDBRANCH 2 3
ENDBRANCH 1 2
BRANCH 1 10
ATOM     10  C   LYS Q   4      13.673  13.042  18.476  1.00 15.70 LIG 0.24  C 
ATOM     11  N   GLN Q   5      13.606  14.177  19.175  1.00 16.90 LIG-0.35  N 
ATOM     12 H    GLN Q   5      13.391  14.940  18.841  1.00 16.90 LIG 0.16  HD
ATOM     13 O    LYS Q   4      13.835  11.939  19.011  1.00 16.41 LIG-0.27  OA
BRANCH 11 14
ATOM     14  CA  GLN Q   5      13.907  14.199  20.611  1.00 18.58 LIG 0.18  C 
BRANCH 14 15
ATOM     15  CB  GLN Q   5      14.385  15.585  21.058  1.00 18.36 LIG 0.04  C 
BRANCH 15 16
ATOM     16  CG  GLN Q   5      13.440  16.734  20.714  1.00 19.34 LIG 0.10  C 
BRANCH 16 17
ATOM     17  CD  GLN Q   5      12.597  17.217  21.874  1.00 21.85 LIG 0.21  C 
ATOM     18  NE2 GLN Q   5      11.497  17.905  21.561  1.00 24.33 LIG-0.37  N 
ATOM     19 21HE GLN Q   5      11.306  18.059  20.738  1.00 24.33 LIG 0.16  HD
ATOM     20 22HE GLN Q   5      10.979  18.193  22.184  1.00 24.33 LIG 0.16  HD
ATOM     21 OE1  GLN Q   5      12.916  16.968  23.033  1.00 24.78 LIG-0.27  OA
ENDBRANCH 16 17
ENDBRANCH 15 16
ENDBRANCH 14 15
BRANCH 14 22
ATOM     22  C   GLN Q   5      12.722  13.754  21.455  1.00 20.15 LIG 0.24  C 
ATOM     23 O    GLN Q   5      12.565  14.216  22.590  1.00 22.37 LIG-0.27  OA
ATOM     24  N   THR Q   6      11.880  12.873  20.931  1.00 20.72 LIG-0.34  N 
ATOM     25 H    THR Q   6      11.897  12.604  20.114  1.00 20.72 LIG 0.16  HD
BRANCH 24 26
ATOM     26  CA  THR Q   6      10.825  12.284  21.761  1.00 22.01 LIG 0.20  C 
BRANCH 26 27
ATOM     27  CB  THR Q   6       9.489  13.044  21.657  1.00 21.09 LIG 0.15  C 
ATOM     28  CG2 THR Q   6       9.091  13.648  23.004  1.00 22.53 LIG 0.04  C 
BRANCH 27 29
ATOM     29 OG1  THR Q   6       9.603  14.084  20.680  1.00 19.47 LIG-0.39  OA
ATOM     30 HG1  THR Q   6       8.841  14.394  20.510  1.00 19.47 LIG 0.21  HD
ENDBRANCH 27 29
ENDBRANCH 26 27
BRANCH 26 31
ATOM     31  C   THR Q   6      10.609  10.807  21.448  1.00 23.85 LIG 0.24  C 
ATOM     32  N   ALA Q   7      10.588   9.968  22.485  1.00 25.35 LIG-0.35  N 
ATOM     33 H    ALA Q   7      10.713  10.219  23.299  1.00 25.35 LIG 0.16  HD
ATOM     34 O    THR Q   6      10.436  10.441  20.280  1.00 25.66 LIG-0.27  OA
BRANCH 32 35
ATOM     35  CA  ALA Q   7      10.350   8.524  22.340  1.00 27.02 LIG 0.16  C 
ATOM     36  CB  ALA Q   7       8.975   8.274  21.725  1.00 27.03 LIG 0.04  C 
BRANCH 35 37
ATOM     37  C   ALA Q   7      11.439   7.833  21.511  1.00 28.43 LIG 0.22  C 
ATOM     38 O    ALA Q   7      11.230   6.737  20.970  1.00 30.23 LIG-0.29  OA
ENDBRANCH 35 37
ENDBRANCH 32 35
ENDBRANCH 26 31
ENDBRANCH 24 26
ENDBRANCH 14 22
ENDBRANCH 11 14
ENDBRANCH 1 10
BRANCH 1 39
ATOM     39  N   LYS Q   4      14.184  12.029  16.260  1.00 13.85 LIG-0.35  N 
ATOM     40 H    LYS Q   4      13.637  11.520  15.835  1.00 13.85 LIG 0.16  HD
ATOM     41  C   THR Q   3      15.504  11.838  16.299  1.00 13.84 LIG 0.24  C 
ATOM     42 O    THR Q   3      16.287  12.607  16.871  1.00 14.15 LIG-0.27  OA
BRANCH 41 43
ATOM     43  CA  THR Q   3      16.016  10.583  15.628  1.00 13.21 LIG 0.20  C 
BRANCH 43 44
ATOM     44  CB  THR Q   3      15.748   9.386  16.575  1.00 13.38 LIG 0.15  C 
ATOM     45  CG2 THR Q   3      17.014   8.644  16.932  1.00 13.96 LIG 0.04  C 
BRANCH 44 46
ATOM     46 OG1  THR Q   3      15.062   9.820  17.758  1.00 13.85 LIG-0.39  OA
ATOM     47 HG1  THR Q   3      14.613   9.183  18.071  1.00 13.85 LIG 0.21  HD
ENDBRANCH 44 46
ENDBRANCH 43 44
BRANCH 43 48
ATOM     48  N   THR Q   3      17.426  10.734  15.255  1.00 13.00 LIG-0.34  N 
ATOM     49  C   ARG Q   2      17.987   9.987  14.309  1.00 13.30 LIG 0.24  C 
ATOM     50 O    ARG Q   2      17.431   9.031  13.786  1.00 13.04 LIG-0.27  OA
ATOM     51 H    THR Q   3      17.845  11.340  15.698  1.00 13.00 LIG 0.16  HD
BRANCH 49 52
ATOM     52  CA  ARG Q   2      19.397  10.361  13.911  1.00 13.85 LIG 0.18  C 
BRANCH 52 53
ATOM     53  N   ARG Q   2      19.920   9.360  12.994  1.00 14.89 LIG-0.35  N 
ATOM     54 H    ARG Q   2      19.965   9.628  12.178  1.00 14.89 LIG 0.16  HD
ATOM     55  C   ALA Q   1      20.292   8.148  13.379  1.00 17.12 LIG 0.25  C 
ATOM     56 O    ALA Q   1      20.234   7.756  14.550  1.00 19.52 LIG-0.27  OA
BRANCH 55 57
ATOM     57  CA  ALA Q   1      20.832   7.250  12.273  1.00 17.93 LIG 0.27  C 
ATOM     58  CB  ALA Q   1      20.443   5.785  12.515  1.00 18.07 LIG 0.05  C 
BRANCH 57 59
ATOM     59  N   ALA Q   1      22.312   7.398  12.136  1.00 19.51 LIG-0.07  N 
ATOM     60 H1   ALA Q   1      22.716   6.989  12.815  1.00 19.51 LIG 0.28  HD
ATOM     61 H3   ALA Q   1      22.526   8.263  12.141  1.00 19.51 LIG 0.28  HD
ATOM     62 H2   ALA Q   1      22.577   7.032  11.369  1.00 19.51 LIG 0.28  HD
ENDBRANCH 57 59
ENDBRANCH 55 57
ENDBRANCH 52 53
BRANCH 52 63
ATOM     63  CB  ARG Q   2      19.384  11.743  13.248  1.00 13.50 LIG 0.04  C 
BRANCH 63 64
ATOM     64  CG  ARG Q   2      19.717  12.907  14.199  1.00 14.15 LIG 0.02  C 
BRANCH 64 65
ATOM     65  CD  ARG Q   2      20.474  14.002  13.464  1.00 12.93 LIG 0.14  C 
BRANCH 65 66
ATOM     66  NE  ARG Q   2      20.197  13.945  12.031  1.00 12.58 LIG-0.23  N 
ATOM     67 HE   ARG Q   2      19.423  14.213  11.769  1.00 12.58 LIG 0.18  HD
ATOM     68  CZ  ARG Q   2      21.045  13.512  11.089  1.00 11.80 LIG 0.67  C 
ATOM     69  NH2 ARG Q   2      20.678  13.551   9.819  1.00 12.39 LIG-0.23  N 
ATOM     70  NH1 ARG Q   2      22.241  13.030  11.398  1.00 13.65 LIG-0.23  N 
ATOM     71 2HH2 ARG Q   2      21.216  13.275   9.207  1.00 12.39 LIG 0.17  HD
ATOM     72 1HH2 ARG Q   2      19.901  13.854   9.605  1.00 12.39 LIG 0.17  HD
ATOM     73 2HH1 ARG Q   2      22.769  12.758  10.776  1.00 13.65 LIG 0.17  HD
ATOM     74 1HH1 ARG Q   2      22.489  12.991  12.221  1.00 13.65 LIG 0.17  HD
ENDBRANCH 65 66
ENDBRANCH 64 65
ENDBRANCH 63 64
ENDBRANCH 52 63
ENDBRANCH 49 52
ENDBRANCH 43 48
ENDBRANCH 41 43
ENDBRANCH 1 39
TORSDOF 30
ENDMDL
MODEL 2
USER: ADFR SOLUTION from run 168
USER: SCORE 23.287663 LL:  -3.601 LR: -21.080 RR:   0.000 FEB: -12.131
USER: RMSD 10.729578
USER: SEED 167
USER: STATUS no improvement in best in 3 clusters for 5 generations
USER: GENES 32
USER: genes 0 Translation |==|  0.56250 0.42108 0.46717
USER: genes 1 Rotation |==|  0.94462 0.64264 0.66011 0.57954
USER: genes 2 Torsion [C]-CA--CB-[CG] |==|  0.31846
USER: genes 3 Torsion [CA]-CB--CG-[CD] |==|  0.02894
USER: genes 4 Torsion [CB]-CG--CD-[CE] |==|  0.38317
USER: genes 5 Torsion [CG]-CD--CE-[NZ] |==|  0.73788
USER: genes 6 Torsion [CD]-CE--NZ-[HZ1] |==|  0.12539
USER: genes 7 Torsion [N]-CA--C-[N] |==|  0.25989
USER: genes 8 Torsion [C]-N--CA-[CB] |==|  0.84701
USER: genes 9 Torsion [N]-CA--CB-[CG] |==|  0.75352
USER: genes 10 Torsion [CA]-CB--CG-[CD] |==|  0.30635
USER: genes 11 Torsion [CB]-CG--CD-[OE1] |==|  0.95606
USER: genes 12 Torsion [N]-CA--C-[N] |==|  0.39739
USER: genes 13 Torsion [C]-N--CA-[CB] |==|  0.16061
USER: genes 14 Torsion [N]-CA--CB-[CG2] |==|  0.17846
USER: genes 15 Torsion [CA]-CB--OG1-[HG1] |==|  0.17977
USER: genes 16 Torsion [N]-CA--C-[N] |==|  0.10064
USER: genes 17 Torsion [C]-N--CA-[C] |==|  0.81627
USER: genes 18 Torsion [N]-CA--C-[O] |==|  0.30167
USER: genes 19 Torsion [CB]-CA--N-[C] |==|  0.17413
USER: genes 20 Torsion [N]-C--CA-[N] |==|  0.44075
USER: genes 21 Torsion [C]-CA--CB-[CG2] |==|  0.88352
USER: genes 22 Torsion [CA]-CB--OG1-[HG1] |==|  0.60518
USER: genes 23 Torsion [C]-CA--N-[C] |==|  0.55943
USER: genes 24 Torsion [N]-C--CA-[N] |==|  0.34677
USER: genes 25 Torsion [C]-CA--N-[C] |==|  0.85000
USER: genes 26 Torsion [N]-C--CA-[N] |==|  0.80861
USER: genes 27 Torsion [C]-CA--N-[H1] |==|  0.24271
USER: genes 28 Torsion [C]-CA--CB-[CG] |==|  0.70908
USER: genes 29 Torsion [CA]-CB--CG-[CD] |==|  0.67343
USER: genes 30 Torsion [CB]-CG--CD-[NE] |==|  0.37041
USER: genes 31 Torsion [CG]-CD--NE-[HE] |==|  0.65195
ROOT
ATOM      1  CA  LYS Q   4      17.091   9.616  15.572  1.00 15.20 LIG 0.18  C 
ENDROOT
BRANCH 1 2
ATOM      2  CB  LYS Q   4      15.986   8.625  15.214  1.00 14.69 LIG 0.04  C 
BRANCH 2 3
ATOM      3  CG  LYS Q   4      15.875   7.485  16.183  1.00 16.14 LIG 0.00  C 
BRANCH 3 4
ATOM      4  CD  LYS Q   4      16.711   7.729  17.407  1.00 18.10 LIG 0.03  C 
BRANCH 4 5
ATOM      5  CE  LYS Q   4      15.933   7.310  18.636  1.00 22.11 LIG 0.23  C 
BRANCH 5 6
ATOM      6  NZ  LYS Q   4      15.216   8.467  19.235  1.00 25.79 LIG-0.08  N 
ATOM      7 HZ1  LYS Q   4      14.815   8.933  18.592  1.00 25.79 LIG 0.27  HD
ATOM      8 HZ2  LYS Q   4      14.605   8.172  19.812  1.00 25.79 LIG 0.27  HD
ATOM      9 HZ3  LYS Q   4      15.798   8.989  19.661  1.00 25.79 LIG 0.27  HD
ENDBRANCH 5 6
ENDBRANCH 4 5
ENDBRANCH 3 4
ENDBRANCH 2 3
ENDBRANCH 1 2
BRANCH 1 10
ATOM     10  C   LYS Q   4      18.170   9.578  14.486  1.00 15.70 LIG 0.24  C 
ATOM     11  N   GLN Q   5      19.437   9.719  14.882  1.00 16.90 LIG-0.35  N 
ATOM     12 H    GLN Q   5      19.691   9.716  15.703  1.00 16.90 LIG 0.16  HD
ATOM     13 O    LYS Q   4      17.854   9.434  13.299  1.00 16.41 LIG-0.27  OA
BRANCH 11 14
ATOM     14  CA  GLN Q   5      20.517   9.896  13.904  1.00 18.58 LIG 0.18  C 
BRANCH 14 15
ATOM     15  CB  GLN Q   5      20.527   8.760  12.876  1.00 18.36 LIG 0.04  C 
BRANCH 15 16
ATOM     16  CG  GLN Q   5      21.360   7.542  13.269  1.00 19.34 LIG 0.10  C 
BRANCH 16 17
ATOM     17  CD  GLN Q   5      20.546   6.306  13.588  1.00 21.85 LIG 0.21  C 
ATOM     18  NE2 GLN Q   5      21.213   5.152  13.629  1.00 24.33 LIG-0.37  N 
ATOM     19 21HE GLN Q   5      22.058   5.137  13.470  1.00 24.33 LIG 0.16  HD
ATOM     20 22HE GLN Q   5      20.798   4.422  13.816  1.00 24.33 LIG 0.16  HD
ATOM     21 OE1  GLN Q   5      19.341   6.383  13.807  1.00 24.78 LIG-0.27  OA
ENDBRANCH 16 17
ENDBRANCH 15 16
ENDBRANCH 14 15
BRANCH 14 22
ATOM     22  C   GLN Q   5      20.443  11.242  13.200  1.00 20.15 LIG 0.24  C 
ATOM     23 O    GLN Q   5      19.343  11.729  12.915  1.00 22.37 LIG-0.27  OA
ATOM     24  N   THR Q   6      21.581  11.860  12.916  1.00 20.72 LIG-0.34  N 
ATOM     25 H    THR Q   6      22.358  11.605  13.183  1.00 20.72 LIG 0.16  HD
BRANCH 24 26
ATOM     26  CA  THR Q   6      21.571  13.071  12.089  1.00 22.01 LIG 0.20  C 
BRANCH 26 27
ATOM     27  CB  THR Q   6      20.695  14.191  12.681  1.00 21.09 LIG 0.15  C 
ATOM     28  CG2 THR Q   6      21.252  14.678  14.019  1.00 22.53 LIG 0.04  C 
BRANCH 27 29
ATOM     29 OG1  THR Q   6      20.631  15.287  11.761  1.00 19.47 LIG-0.39  OA
ATOM     30 HG1  THR Q   6      20.238  15.041  11.060  1.00 19.47 LIG 0.21  HD
ENDBRANCH 27 29
ENDBRANCH 26 27
BRANCH 26 31
ATOM     31  C   THR Q   6      22.979  13.595  11.826  1.00 23.85 LIG 0.24  C 
ATOM     32  N   ALA Q   7      23.940  12.685  11.659  1.00 25.35 LIG-0.35  N 
ATOM     33 H    ALA Q   7      23.803  11.838  11.717  1.00 25.35 LIG 0.16  HD
ATOM     34 O    THR Q   6      23.181  14.813  11.749  1.00 25.66 LIG-0.27  OA
BRANCH 32 35
ATOM     35  CA  ALA Q   7      25.335  13.042  11.359  1.00 27.02 LIG 0.16  C 
ATOM     36  CB  ALA Q   7      26.231  11.811  11.464  1.00 27.03 LIG 0.04  C 
BRANCH 35 37
ATOM     37  C   ALA Q   7      25.485  13.695   9.980  1.00 28.43 LIG 0.22  C 
ATOM     38 O    ALA Q   7      25.739  14.905   9.872  1.00 30.23 LIG-0.29  OA
ENDBRANCH 35 37
ENDBRANCH 32 35
ENDBRANCH 26 31
ENDBRANCH 24 26
ENDBRANCH 14 22
ENDBRANCH 11 14
ENDBRANCH 1 10
BRANCH 1 39
ATOM     39  N   LYS Q   4      16.533  10.953  15.763  1.00 13.85 LIG-0.35  N 
ATOM     40 H    LYS Q   4      16.821  11.543  15.207  1.00 13.85 LIG 0.16  HD
ATOM     41  C   THR Q   3      15.651  11.207  16.731  1.00 13.84 LIG 0.24  C 
ATOM     42 O    THR Q   3      15.206  10.340  17.493  1.00 14.15 LIG-0.27  OA
BRANCH 41 43
ATOM     43  CA  THR Q   3      15.233  12.653  16.888  1.00 13.21 LIG 0.20  C 
BRANCH 43 44
ATOM     44  CB  THR Q   3      16.382  13.413  17.596  1.00 13.38 LIG 0.15  C 
ATOM     45  CG2 THR Q   3      16.983  12.617  18.729  1.00 13.96 LIG 0.04  C 
BRANCH 44 46
ATOM     46 OG1  THR Q   3      17.393  13.797  16.652  1.00 13.85 LIG-0.39  OA
ATOM     47 HG1  THR Q   3      18.151  13.716  17.005  1.00 13.85 LIG 0.21  HD
ENDBRANCH 44 46
ENDBRANCH 43 44
BRANCH 43 48
ATOM     48  N   THR Q   3      13.947  12.746  17.587  1.00 13.00 LIG-0.34  N 
ATOM     49  C   ARG Q   2      13.169  13.820  17.490  1.00 13.30 LIG 0.24  C 
ATOM     50 O    ARG Q   2      13.519  14.858  16.944  1.00 13.04 LIG-0.27  OA
ATOM     51 H    THR Q   3      13.750  12.053  18.056  1.00 13.00 LIG 0.16  HD
BRANCH 49 52
ATOM     52  CA  ARG Q   2      11.802  13.715  18.126  1.00 13.85 LIG 0.18  C 
BRANCH 52 53
ATOM     53  N   ARG Q   2      11.625  14.807  19.071  1.00 14.89 LIG-0.35  N 
ATOM     54 H    ARG Q   2      10.916  15.272  18.932  1.00 14.89 LIG 0.16  HD
ATOM     55  C   ALA Q   1      12.477  15.060  20.054  1.00 17.12 LIG 0.25  C 
ATOM     56 O    ALA Q   1      13.497  14.394  20.263  1.00 19.52 LIG-0.27  OA
BRANCH 55 57
ATOM     57  CA  ALA Q   1      12.106  16.235  20.950  1.00 17.93 LIG 0.27  C 
ATOM     58  CB  ALA Q   1      10.699  16.059  21.536  1.00 18.07 LIG 0.05  C 
BRANCH 57 59
ATOM     59  N   ALA Q   1      12.223  17.530  20.213  1.00 19.51 LIG-0.07  N 
ATOM     60 H1   ALA Q   1      11.458  17.702  19.792  1.00 19.51 LIG 0.28  HD
ATOM     61 H3   ALA Q   1      12.883  17.475  19.618  1.00 19.51 LIG 0.28  HD
ATOM     62 H2   ALA Q   1      12.397  18.185  20.789  1.00 19.51 LIG 0.28  HD
ENDBRANCH 57 59
ENDBRANCH 55 57
ENDBRANCH 52 53
BRANCH 52 63
ATOM     63  CB  ARG Q   2      10.731  13.773  17.031  1.00 13.50 LIG 0.04  C 
BRANCH 63 64
ATOM     64  CG  ARG Q   2       9.984  15.115  16.943  1.00 14.15 LIG 0.02  C 
BRANCH 64 65
ATOM     65  CD  ARG Q   2       8.502  14.926  17.232  1.00 12.93 LIG 0.14  C 
BRANCH 65 66
ATOM     66  NE  ARG Q   2       8.030  15.940  18.172  1.00 12.58 LIG-0.23  N 
ATOM     67 HE   ARG Q   2       7.638  15.662  18.886  1.00 12.58 LIG 0.18  HD
ATOM     68  CZ  ARG Q   2       8.155  17.264  18.020  1.00 11.80 LIG 0.67  C 
ATOM     69  NH2 ARG Q   2       7.716  18.070  18.971  1.00 12.39 LIG-0.23  N 
ATOM     70  NH1 ARG Q   2       8.698  17.790  16.930  1.00 13.65 LIG-0.23  N 
ATOM     71 2HH2 ARG Q   2       7.792  18.923  18.882  1.00 12.39 LIG 0.17  HD
ATOM     72 1HH2 ARG Q   2       7.354  17.743  19.680  1.00 12.39 LIG 0.17  HD
ATOM     73 2HH1 ARG Q   2       8.767  18.644  16.854  1.00 13.65 LIG 0.17  HD
ATOM     74 1HH1 ARG Q   2       8.979  17.277  16.299  1.00 13.65 LIG 0.17  HD
ENDBRANCH 65 66
ENDBRANCH 64 65
ENDBRANCH 63 64
ENDBRANCH 52 63
ENDBRANCH 49 52
ENDBRANCH 43 48
ENDBRANCH 41 43
ENDBRANCH 1 39
TORSDOF 30
ENDMDL
MODEL 3
USER: ADFR SOLUTION from run 189
USER: SCORE 21.717652 LL:  -3.412 LR: -20.887 RR:   0.000 FEB: -11.938
USER: RMSD 9.724096
USER: SEED 188
USER: STATUS no improvement in best in 3 clusters for 5 generations
USER: GENES 32
USER: genes 0 Translation |==|  0.53006 0.40377 0.44800
USER: genes 1 Rotation |==|  0.63683 0.70566 0.06671 0.53522
USER: genes 2 Torsion [C]-CA--CB-[CG] |==|  0.45786
USER: genes 3 Torsion [CA]-CB--CG-[CD] |==|  0.78525
USER: genes 4 Torsion [CB]-CG--CD-[CE] |==|  0.63141
USER: genes 5 Torsion [CG]-CD--CE-[NZ] |==|  0.61627
USER: genes 6 Torsion [CD]-CE--NZ-[HZ1] |==|  0.98943
USER: genes 7 Torsion [N]-CA--C-[N] |==|  0.27988
USER: genes 8 Torsion [C]-N--CA-[CB] |==|  0.52336
USER: genes 9 Torsion [N]-CA--CB-[CG] |==|  0.74812
USER: genes 10 Torsion [CA]-CB--CG-[CD] |==|  0.78511
USER: genes 11 Torsion [CB]-CG--CD-[OE1] |==|  0.52751
USER: genes 12 Torsion [N]-CA--C-[N] |==|  0.28333
USER: genes 13 Torsion [C]-N--CA-[CB] |==|  0.24975
USER: genes 14 Torsion [N]-CA--CB-[CG2] |==|  0.21514
USER: genes 15 Torsion [CA]-CB--OG1-[HG1] |==|  0.37601
USER: genes 16 Torsion [N]-CA--C-[N] |==|  0.00432
USER: genes 17 Torsion [C]-N--CA-[C] |==|  0.18148
USER: genes 18 Torsion [N]-CA--C-[O] |==|  0.07109
USER: genes 19 Torsion [CB]-CA--N-[C] |==|  0.78844
USER: genes 20 Torsion [N]-C--CA-[N] |==|  0.29468
USER: genes 21 Torsion [C]-CA--CB-[CG2] |==|  0.15804
USER: genes 22 Torsion [CA]-CB--OG1-[HG1] |==|  0.13429
USER: genes 23 Torsion [C]-CA--N-[C] |==|  0.54313
USER: genes 24 Torsion [N]-C--CA-[N] |==|  0.17161
USER: genes 25 Torsion [C]-CA--N-[C] |==|  0.14477
USER: genes 26 Torsion [N]-C--CA-[N] |==|  0.81353
USER: genes 27 Torsion [C]-CA--N-[H1] |==|  0.32694
USER: genes 28 Torsion [C]-CA--CB-[CG] |==|  0.50101
USER: genes 29 Torsion [CA]-CB--CG-[CD] |==|  0.49668
USER: genes 30 Torsion [CB]-CG--CD-[NE] |==|  0.70262
USER: genes 31 Torsion [CG]-CD--NE-[HE] |==|  0.75064
ROOT
ATOM      1  CA  LYS Q   4      16.312   9.279  15.169  1.00 15.20 LIG 0.18  C 
ENDROOT
BRANCH 1 2
ATOM      2  CB  LYS Q   4      17.759   9.293  15.655  1.00 14.69 LIG 0.04  C 
BRANCH 2 3
ATOM      3  CG  LYS Q   4      18.678  10.078  14.765  1.00 16.14 LIG 0.00  C 
BRANCH 3 4
ATOM      4  CD  LYS Q   4      19.030   9.301  13.528  1.00 18.10 LIG 0.03  C 
BRANCH 4 5
ATOM      5  CE  LYS Q   4      20.524   9.369  13.304  1.00 22.11 LIG 0.23  C 
BRANCH 5 6
ATOM      6  NZ  LYS Q   4      20.841   9.574  11.866  1.00 25.79 LIG-0.08  N 
ATOM      7 HZ1  LYS Q   4      20.088   9.564  11.391  1.00 25.79 LIG 0.27  HD
ATOM      8 HZ2  LYS Q   4      21.247  10.359  11.759  1.00 25.79 LIG 0.27  HD
ATOM      9 HZ3  LYS Q   4      21.377   8.922  11.583  1.00 25.79 LIG 0.27  HD
ENDBRANCH 5 6
ENDBRANCH 4 5
ENDBRANCH 3 4
ENDBRANCH 2 3
ENDBRANCH 1 2
BRANCH 1 10
ATOM     10  C   LYS Q   4      15.548   8.172  15.901  1.00 15.70 LIG 0.24  C 
ATOM     11  N   GLN Q   5      14.735   7.407  15.169  1.00 16.90 LIG-0.35  N 
ATOM     12 H    GLN Q   5      14.700   7.420  14.310  1.00 16.90 LIG 0.16  HD
ATOM     13 O    LYS Q   4      15.685   8.023  17.121  1.00 16.41 LIG-0.27  OA
BRANCH 11 14
ATOM     14  CA  GLN Q   5      13.815   6.458  15.806  1.00 18.58 LIG 0.18  C 
BRANCH 14 15
ATOM     15  CB  GLN Q   5      13.142   5.554  14.767  1.00 18.36 LIG 0.04  C 
BRANCH 15 16
ATOM     16  CG  GLN Q   5      11.820   6.081  14.215  1.00 19.34 LIG 0.10  C 
BRANCH 16 17
ATOM     17  CD  GLN Q   5      10.641   5.905  15.146  1.00 21.85 LIG 0.21  C 
ATOM     18  NE2 GLN Q   5      10.922   5.526  16.394  1.00 24.33 LIG-0.37  N 
ATOM     19 21HE GLN Q   5      11.738   5.387  16.628  1.00 24.33 LIG 0.16  HD
ATOM     20 22HE GLN Q   5      10.288   5.421  16.965  1.00 24.33 LIG 0.16  HD
ATOM     21 OE1  GLN Q   5       9.495   6.116  14.761  1.00 24.78 LIG-0.27  OA
ENDBRANCH 16 17
ENDBRANCH 15 16
ENDBRANCH 14 15
BRANCH 14 22
ATOM     22  C   GLN Q   5      14.502   5.616  16.870  1.00 20.15 LIG 0.24  C 
ATOM     23 O    GLN Q   5      15.216   4.663  16.537  1.00 22.37 LIG-0.27  OA
ATOM     24  N   THR Q   6      14.311   5.942  18.142  1.00 20.72 LIG-0.34  N 
ATOM     25 H    THR Q   6      13.906   6.651  18.411  1.00 20.72 LIG 0.16  HD
BRANCH 24 26
ATOM     26  CA  THR Q   6      14.808   5.063  19.205  1.00 22.01 LIG 0.20  C 
BRANCH 26 27
ATOM     27  CB  THR Q   6      16.245   5.407  19.643  1.00 21.09 LIG 0.15  C 
ATOM     28  CG2 THR Q   6      16.265   6.636  20.550  1.00 22.53 LIG 0.04  C 
BRANCH 27 29
ATOM     29 OG1  THR Q   6      16.816   4.290  20.334  1.00 19.47 LIG-0.39  OA
ATOM     30 HG1  THR Q   6      17.599   4.163  20.060  1.00 19.47 LIG 0.21  HD
ENDBRANCH 27 29
ENDBRANCH 26 27
BRANCH 26 31
ATOM     31  C   THR Q   6      13.882   5.056  20.419  1.00 23.85 LIG 0.24  C 
ATOM     32  N   ALA Q   7      12.775   5.794  20.336  1.00 25.35 LIG-0.35  N 
ATOM     33 H    ALA Q   7      12.580   6.280  19.653  1.00 25.35 LIG 0.16  HD
ATOM     34 O    THR Q   6      14.162   4.364  21.405  1.00 25.66 LIG-0.27  OA
BRANCH 32 35
ATOM     35  CA  ALA Q   7      11.772   5.852  21.410  1.00 27.02 LIG 0.16  C 
ATOM     36  CB  ALA Q   7      11.232   4.455  21.707  1.00 27.03 LIG 0.04  C 
BRANCH 35 37
ATOM     37  C   ALA Q   7      12.322   6.494  22.689  1.00 28.43 LIG 0.22  C 
ATOM     38 O    ALA Q   7      13.265   7.299  22.643  1.00 30.23 LIG-0.29  OA
ENDBRANCH 35 37
ENDBRANCH 32 35
ENDBRANCH 26 31
ENDBRANCH 24 26
ENDBRANCH 14 22
ENDBRANCH 11 14
ENDBRANCH 1 10
BRANCH 1 39
ATOM     39  N   LYS Q   4      15.703  10.595  15.346  1.00 13.85 LIG-0.35  N 
ATOM     40 H    LYS Q   4      15.625  11.052  14.622  1.00 13.85 LIG 0.16  HD
ATOM     41  C   THR Q   3      15.308  11.024  16.546  1.00 13.84 LIG 0.24  C 
ATOM     42 O    THR Q   3      15.379  10.336  17.572  1.00 14.15 LIG-0.27  OA
BRANCH 41 43
ATOM     43  CA  THR Q   3      14.791  12.445  16.608  1.00 13.21 LIG 0.20  C 
BRANCH 43 44
ATOM     44  CB  THR Q   3      15.538  13.180  17.748  1.00 13.38 LIG 0.15  C 
ATOM     45  CG2 THR Q   3      17.037  13.151  17.562  1.00 13.96 LIG 0.04  C 
BRANCH 44 46
ATOM     46 OG1  THR Q   3      15.068  14.530  17.875  1.00 13.85 LIG-0.39  OA
ATOM     47 HG1  THR Q   3      14.228  14.534  17.889  1.00 13.85 LIG 0.21  HD
ENDBRANCH 44 46
ENDBRANCH 43 44
BRANCH 43 48
ATOM     48  N   THR Q   3      13.332  12.457  16.757  1.00 13.00 LIG-0.34  N 
ATOM     49  C   ARG Q   2      12.611  13.552  16.534  1.00 13.30 LIG 0.24  C 
ATOM     50 O    ARG Q   2      13.104  14.655  16.337  1.00 13.04 LIG-0.27  OA
ATOM     51 H    THR Q   3      12.995  11.703  16.996  1.00 13.00 LIG 0.16  HD
BRANCH 49 52
ATOM     52  CA  ARG Q   2      11.110  13.381  16.561  1.00 13.85 LIG 0.18  C 
BRANCH 52 53
ATOM     53  N   ARG Q   2      10.701  12.932  17.883  1.00 14.89 LIG-0.35  N 
ATOM     54 H    ARG Q   2      10.206  12.229  17.871  1.00 14.89 LIG 0.16  HD
ATOM     55  C   ALA Q   1      11.056  13.548  19.001  1.00 17.12 LIG 0.25  C 
ATOM     56 O    ALA Q   1      11.770  14.557  19.027  1.00 19.52 LIG-0.27  OA
BRANCH 55 57
ATOM     57  CA  ALA Q   1      10.542  12.913  20.286  1.00 17.93 LIG 0.27  C 
ATOM     58  CB  ALA Q   1      10.989  11.449  20.395  1.00 18.07 LIG 0.05  C 
BRANCH 57 59
ATOM     59  N   ALA Q   1       9.056  13.030  20.386  1.00 19.51 LIG-0.07  N 
ATOM     60 H1   ALA Q   1       8.694  12.217  20.397  1.00 19.51 LIG 0.28  HD
ATOM     61 H3   ALA Q   1       8.746  13.483  19.685  1.00 19.51 LIG 0.28  HD
ATOM     62 H2   ALA Q   1       8.841  13.460  21.135  1.00 19.51 LIG 0.28  HD
ENDBRANCH 57 59
ENDBRANCH 55 57
ENDBRANCH 52 53
BRANCH 52 63
ATOM     63  CB  ARG Q   2      10.444  14.718  16.217  1.00 13.50 LIG 0.04  C 
BRANCH 63 64
ATOM     64  CG  ARG Q   2       8.905  14.680  16.219  1.00 14.15 LIG 0.02  C 
BRANCH 64 65
ATOM     65  CD  ARG Q   2       8.332  16.052  15.897  1.00 12.93 LIG 0.14  C 
BRANCH 65 66
ATOM     66  NE  ARG Q   2       7.762  16.664  17.095  1.00 12.58 LIG-0.23  N 
ATOM     67 HE   ARG Q   2       6.933  16.506  17.260  1.00 12.58 LIG 0.18  HD
ATOM     68  CZ  ARG Q   2       8.420  17.449  17.959  1.00 11.80 LIG 0.67  C 
ATOM     69  NH2 ARG Q   2       7.790  17.906  19.028  1.00 12.39 LIG-0.23  N 
ATOM     70  NH1 ARG Q   2       9.686  17.792  17.761  1.00 13.65 LIG-0.23  N 
ATOM     71 2HH2 ARG Q   2       8.204  18.411  19.588  1.00 12.39 LIG 0.17  HD
ATOM     72 1HH2 ARG Q   2       6.966  17.698  19.163  1.00 12.39 LIG 0.17  HD
ATOM     73 2HH1 ARG Q   2      10.087  18.297  18.329  1.00 13.65 LIG 0.17  HD
ATOM     74 1HH1 ARG Q   2      10.104  17.508  17.065  1.00 13.65 LIG 0.17  HD
ENDBRANCH 65 66
ENDBRANCH 64 65
ENDBRANCH 63 64
ENDBRANCH 52 63
ENDBRANCH 49 52
ENDBRANCH 43 48
ENDBRANCH 41 43
ENDBRANCH 1 39
TORSDOF 30
ENDMDL
MODEL 4
USER: ADFR SOLUTION from run 190
USER: SCORE 21.910238 LL:  -3.788 LR: -20.618 RR:   0.000 FEB: -11.669
USER: RMSD 5.704244
USER: SEED 189
USER: STATUS searching
USER: GENES 32
USER: genes 0 Translation |==|  0.38578 0.61126 0.52704
USER: genes 1 Rotation |==|  0.54235 0.40134 0.50060 0.98834
USER: genes 2 Torsion [C]-CA--CB-[CG] |==|  0.24504
USER: genes 3 Torsion [CA]-CB--CG-[CD] |==|  0.91556
USER: genes 4 Torsion [CB]-CG--CD-[CE] |==|  0.65791
USER: genes 5 Torsion [CG]-CD--CE-[NZ] |==|  0.65425
USER: genes 6 Torsion [CD]-CE--NZ-[HZ1] |==|  0.49474
USER: genes 7 Torsion [N]-CA--C-[N] |==|  0.69205
USER: genes 8 Torsion [C]-N--CA-[CB] |==|  0.83425
USER: genes 9 Torsion [N]-CA--CB-[CG] |==|  0.62191
USER: genes 10 Torsion [CA]-CB--CG-[CD] |==|  0.79585
USER: genes 11 Torsion [CB]-CG--CD-[OE1] |==|  0.93837
USER: genes 12 Torsion [N]-CA--C-[N] |==|  0.37993
USER: genes 13 Torsion [C]-N--CA-[CB] |==|  0.23332
USER: genes 14 Torsion [N]-CA--CB-[CG2] |==|  0.29968
USER: genes 15 Torsion [CA]-CB--OG1-[HG1] |==|  0.42680
USER: genes 16 Torsion [N]-CA--C-[N] |==|  0.96683
USER: genes 17 Torsion [C]-N--CA-[C] |==|  0.17916
USER: genes 18 Torsion [N]-CA--C-[O] |==|  0.98553
USER: genes 19 Torsion [CB]-CA--N-[C] |==|  0.44361
USER: genes 20 Torsion [N]-C--CA-[N] |==|  0.43273
USER: genes 21 Torsion [C]-CA--CB-[CG2] |==|  0.54556
USER: genes 22 Torsion [CA]-CB--OG1-[HG1] |==|  0.37512
USER: genes 23 Torsion [C]-CA--N-[C] |==|  0.61040
USER: genes 24 Torsion [N]-C--CA-[N] |==|  0.46623
USER: genes 25 Torsion [C]-CA--N-[C] |==|  0.81078
USER: genes 26 Torsion [N]-C--CA-[N] |==|  0.93928
USER: genes 27 Torsion [C]-CA--N-[H1] |==|  0.51884
USER: genes 28 Torsion [C]-CA--CB-[CG] |==|  0.66414
USER: genes 29 Torsion [CA]-CB--CG-[CD] |==|  0.58504
USER: genes 30 Torsion [CB]-CG--CD-[NE] |==|  0.39402
USER: genes 31 Torsion [CG]-CD--NE-[HE] |==|  0.04383
ROOT
ATOM      1  CA  LYS Q   4      12.850  13.325  16.829  1.00 15.20 LIG 0.18  C 
ENDROOT
BRANCH 1 2
ATOM      2  CB  LYS Q   4      11.626  13.593  15.957  1.00 14.69 LIG 0.04  C 
BRANCH 2 3
ATOM      3  CG  LYS Q   4      11.204  15.034  15.954  1.00 16.14 LIG 0.00  C 
BRANCH 3 4
ATOM      4  CD  LYS Q   4      11.537  15.700  17.258  1.00 18.10 LIG 0.03  C 
BRANCH 4 5
ATOM      5  CE  LYS Q   4      10.276  16.279  17.861  1.00 22.11 LIG 0.23  C 
BRANCH 5 6
ATOM      6  NZ  LYS Q   4      10.431  17.732  18.136  1.00 25.79 LIG-0.08  N 
ATOM      7 HZ1  LYS Q   4       9.670  18.056  18.464  1.00 25.79 LIG 0.27  HD
ATOM      8 HZ2  LYS Q   4      11.084  17.854  18.729  1.00 25.79 LIG 0.27  HD
ATOM      9 HZ3  LYS Q   4      10.633  18.157  17.381  1.00 25.79 LIG 0.27  HD
ENDBRANCH 5 6
ENDBRANCH 4 5
ENDBRANCH 3 4
ENDBRANCH 2 3
ENDBRANCH 1 2
BRANCH 1 10
ATOM     10  C   LYS Q   4      12.392  13.030  18.260  1.00 15.70 LIG 0.24  C 
ATOM     11  N   GLN Q   5      11.089  12.809  18.449  1.00 16.90 LIG-0.35  N 
ATOM     12 H    GLN Q   5      10.517  12.710  17.815  1.00 16.90 LIG 0.16  HD
ATOM     13 O    LYS Q   4      13.212  13.015  19.185  1.00 16.41 LIG-0.27  OA
BRANCH 11 14
ATOM     14  CA  GLN Q   5      10.528  12.717  19.802  1.00 18.58 LIG 0.18  C 
BRANCH 14 15
ATOM     15  CB  GLN Q   5      11.178  11.579  20.596  1.00 18.36 LIG 0.04  C 
BRANCH 15 16
ATOM     16  CG  GLN Q   5      10.206  10.715  21.396  1.00 19.34 LIG 0.10  C 
BRANCH 16 17
ATOM     17  CD  GLN Q   5       9.650  11.384  22.634  1.00 21.85 LIG 0.21  C 
ATOM     18  NE2 GLN Q   5       8.506  10.891  23.111  1.00 24.33 LIG-0.37  N 
ATOM     19 21HE GLN Q   5       8.121  10.233  22.713  1.00 24.33 LIG 0.16  HD
ATOM     20 22HE GLN Q   5       8.153  11.230  23.818  1.00 24.33 LIG 0.16  HD
ATOM     21 OE1  GLN Q   5      10.239  12.321  23.164  1.00 24.78 LIG-0.27  OA
ENDBRANCH 16 17
ENDBRANCH 15 16
ENDBRANCH 14 15
BRANCH 14 22
ATOM     22  C   GLN Q   5      10.648  14.027  20.566  1.00 20.15 LIG 0.24  C 
ATOM     23 O    GLN Q   5      11.697  14.678  20.512  1.00 22.37 LIG-0.27  OA
ATOM     24  N   THR Q   6       9.602  14.434  21.272  1.00 20.72 LIG-0.34  N 
ATOM     25 H    THR Q   6       8.825  14.065  21.256  1.00 20.72 LIG 0.16  HD
BRANCH 24 26
ATOM     26  CA  THR Q   6       9.725  15.595  22.159  1.00 22.01 LIG 0.20  C 
BRANCH 26 27
ATOM     27  CB  THR Q   6       9.533  16.934  21.422  1.00 21.09 LIG 0.15  C 
ATOM     28  CG2 THR Q   6       8.195  17.577  21.786  1.00 22.53 LIG 0.04  C 
BRANCH 27 29
ATOM     29 OG1  THR Q   6      10.602  17.825  21.760  1.00 19.47 LIG-0.39  OA
ATOM     30 HG1  THR Q   6      10.716  18.375  21.135  1.00 19.47 LIG 0.21  HD
ENDBRANCH 27 29
ENDBRANCH 26 27
BRANCH 26 31
ATOM     31  C   THR Q   6       8.767  15.512  23.344  1.00 23.85 LIG 0.24  C 
ATOM     32  N   ALA Q   7       7.817  14.577  23.287  1.00 25.35 LIG-0.35  N 
ATOM     33 H    ALA Q   7       7.712  14.051  22.614  1.00 25.35 LIG 0.16  HD
ATOM     34 O    THR Q   6       8.911  16.271  24.310  1.00 25.66 LIG-0.27  OA
BRANCH 32 35
ATOM     35  CA  ALA Q   7       6.850  14.354  24.372  1.00 27.02 LIG 0.16  C 
ATOM     36  CB  ALA Q   7       7.578  14.003  25.667  1.00 27.03 LIG 0.04  C 
BRANCH 35 37
ATOM     37  C   ALA Q   7       5.927  15.559  24.588  1.00 28.43 LIG 0.22  C 
ATOM     38 O    ALA Q   7       6.097  16.614  23.957  1.00 30.23 LIG-0.29  OA
ENDBRANCH 35 37
ENDBRANCH 32 35
ENDBRANCH 26 31
ENDBRANCH 24 26
ENDBRANCH 14 22
ENDBRANCH 11 14
ENDBRANCH 1 10
BRANCH 1 39
ATOM     39  N   LYS Q   4      13.652  12.242  16.261  1.00 13.85 LIG-0.35  N 
ATOM     40 H    LYS Q   4      13.227  11.734  15.713  1.00 13.85 LIG 0.16  HD
ATOM     41  C   THR Q   3      14.936  12.084  16.585  1.00 13.84 LIG 0.24  C 
ATOM     42 O    THR Q   3      15.549  12.853  17.335  1.00 14.15 LIG-0.27  OA
BRANCH 41 43
ATOM     43  CA  THR Q   3      15.622  10.864  16.010  1.00 13.21 LIG 0.20  C 
BRANCH 43 44
ATOM     44  CB  THR Q   3      15.216   9.635  16.862  1.00 13.38 LIG 0.15  C 
ATOM     45  CG2 THR Q   3      16.130   8.455  16.636  1.00 13.96 LIG 0.04  C 
BRANCH 44 46
ATOM     46 OG1  THR Q   3      15.164   9.979  18.254  1.00 13.85 LIG-0.39  OA
ATOM     47 HG1  THR Q   3      14.466   9.661  18.596  1.00 13.85 LIG 0.21  HD
ENDBRANCH 44 46
ENDBRANCH 43 44
BRANCH 43 48
ATOM     48  N   THR Q   3      17.071  11.074  15.933  1.00 13.00 LIG-0.34  N 
ATOM     49  C   ARG Q   2      17.789  10.652  14.897  1.00 13.30 LIG 0.24  C 
ATOM     50 O    ARG Q   2      17.339   9.938  14.011  1.00 13.04 LIG-0.27  OA
ATOM     51 H    THR Q   3      17.404  11.488  16.609  1.00 13.00 LIG 0.16  HD
BRANCH 49 52
ATOM     52  CA  ARG Q   2      19.238  11.081  14.869  1.00 13.85 LIG 0.18  C 
BRANCH 52 53
ATOM     53  N   ARG Q   2      19.946  10.317  13.853  1.00 14.89 LIG-0.35  N 
ATOM     54 H    ARG Q   2      20.202  10.790  13.181  1.00 14.89 LIG 0.16  HD
ATOM     55  C   ALA Q   1      20.177   9.017  13.953  1.00 17.12 LIG 0.25  C 
ATOM     56 O    ALA Q   1      19.817   8.331  14.917  1.00 19.52 LIG-0.27  OA
BRANCH 55 57
ATOM     57  CA  ALA Q   1      20.952   8.401  12.795  1.00 17.93 LIG 0.27  C 
ATOM     58  CB  ALA Q   1      22.421   8.171  13.175  1.00 18.07 LIG 0.05  C 
BRANCH 57 59
ATOM     59  N   ALA Q   1      20.841   9.245  11.566  1.00 19.51 LIG-0.07  N 
ATOM     60 H1   ALA Q   1      21.216   8.820  10.880  1.00 19.51 LIG 0.28  HD
ATOM     61 H3   ALA Q   1      21.258  10.020  11.700  1.00 19.51 LIG 0.28  HD
ATOM     62 H2   ALA Q   1      19.983   9.397  11.387  1.00 19.51 LIG 0.28  HD
ENDBRANCH 57 59
ENDBRANCH 55 57
ENDBRANCH 52 53
BRANCH 52 63
ATOM     63  CB  ARG Q   2      19.315  12.581  14.564  1.00 13.50 LIG 0.04  C 
BRANCH 63 64
ATOM     64  CG  ARG Q   2      20.114  12.933  13.297  1.00 14.15 LIG 0.02  C 
BRANCH 64 65
ATOM     65  CD  ARG Q   2      20.777  14.294  13.439  1.00 12.93 LIG 0.14  C 
BRANCH 65 66
ATOM     66  NE  ARG Q   2      22.106  14.282  12.831  1.00 12.58 LIG-0.23  N 
ATOM     67 HE   ARG Q   2      22.289  13.633  12.298  1.00 12.58 LIG 0.18  HD
ATOM     68  CZ  ARG Q   2      23.064  15.196  13.033  1.00 11.80 LIG 0.67  C 
ATOM     69  NH2 ARG Q   2      24.211  15.086  12.385  1.00 12.39 LIG-0.23  N 
ATOM     70  NH1 ARG Q   2      22.895  16.205  13.877  1.00 13.65 LIG-0.23  N 
ATOM     71 2HH2 ARG Q   2      24.832  15.669  12.508  1.00 12.39 LIG 0.17  HD
ATOM     72 1HH2 ARG Q   2      24.337  14.432  11.840  1.00 12.39 LIG 0.17  HD
ATOM     73 2HH1 ARG Q   2      23.525  16.780  13.991  1.00 13.65 LIG 0.17  HD
ATOM     74 1HH1 ARG Q   2      22.157  16.283  14.311  1.00 13.65 LIG 0.17  HD
ENDBRANCH 65 66
ENDBRANCH 64 65
ENDBRANCH 63 64
ENDBRANCH 52 63
ENDBRANCH 49 52
ENDBRANCH 43 48
ENDBRANCH 41 43
ENDBRANCH 1 39
TORSDOF 30
ENDMDL
MODEL 5
USER: ADFR SOLUTION from run 31
USER: SCORE 20.259485 LL:  -3.646 LR: -20.440 RR:   0.000 FEB: -11.491
USER: RMSD 10.088999
USER: SEED 30
USER: STATUS no improvement in best in 5 clusters for 5 generations
USER: GENES 32
USER: genes 0 Translation |==|  0.53636 0.45349 0.46824
USER: genes 1 Rotation |==|  0.40981 0.25982 0.91586 0.60601
USER: genes 2 Torsion [C]-CA--CB-[CG] |==|  0.27845
USER: genes 3 Torsion [CA]-CB--CG-[CD] |==|  0.29101
USER: genes 4 Torsion [CB]-CG--CD-[CE] |==|  0.30367
USER: genes 5 Torsion [CG]-CD--CE-[NZ] |==|  0.38702
USER: genes 6 Torsion [CD]-CE--NZ-[HZ1] |==|  0.25975
USER: genes 7 Torsion [N]-CA--C-[N] |==|  0.46393
USER: genes 8 Torsion [C]-N--CA-[CB] |==|  0.42213
USER: genes 9 Torsion [N]-CA--CB-[CG] |==|  0.56948
USER: genes 10 Torsion [CA]-CB--CG-[CD] |==|  0.36426
USER: genes 11 Torsion [CB]-CG--CD-[OE1] |==|  0.54746
USER: genes 12 Torsion [N]-CA--C-[N] |==|  0.23606
USER: genes 13 Torsion [C]-N--CA-[CB] |==|  0.53837
USER: genes 14 Torsion [N]-CA--CB-[CG2] |==|  0.73028
USER: genes 15 Torsion [CA]-CB--OG1-[HG1] |==|  0.05343
USER: genes 16 Torsion [N]-CA--C-[N] |==|  0.32841
USER: genes 17 Torsion [C]-N--CA-[C] |==|  0.18945
USER: genes 18 Torsion [N]-CA--C-[O] |==|  0.68474
USER: genes 19 Torsion [CB]-CA--N-[C] |==|  0.51125
USER: genes 20 Torsion [N]-C--CA-[N] |==|  0.53412
USER: genes 21 Torsion [C]-CA--CB-[CG2] |==|  0.51597
USER: genes 22 Torsion [CA]-CB--OG1-[HG1] |==|  0.94041
USER: genes 23 Torsion [C]-CA--N-[C] |==|  0.17469
USER: genes 24 Torsion [N]-C--CA-[N] |==|  0.87026
USER: genes 25 Torsion [C]-CA--N-[C] |==|  0.74533
USER: genes 26 Torsion [N]-C--CA-[N] |==|  0.11096
USER: genes 27 Torsion [C]-CA--N-[H1] |==|  0.03290
USER: genes 28 Torsion [C]-CA--CB-[CG] |==|  0.46417
USER: genes 29 Torsion [CA]-CB--CG-[CD] |==|  0.43831
USER: genes 30 Torsion [CB]-CG--CD-[NE] |==|  0.60760
USER: genes 31 Torsion [CG]-CD--NE-[HE] |==|  0.79110
ROOT
ATOM      1  CA  LYS Q   4      16.464  10.248  15.594  1.00 15.20 LIG 0.18  C 
ENDROOT
BRANCH 1 2
ATOM      2  CB  LYS Q   4      17.862   9.662  15.419  1.00 14.69 LIG 0.04  C 
BRANCH 2 3
ATOM      3  CG  LYS Q   4      18.102   9.095  14.050  1.00 16.14 LIG 0.00  C 
BRANCH 3 4
ATOM      4  CD  LYS Q   4      18.973  10.005  13.231  1.00 18.10 LIG 0.03  C 
BRANCH 4 5
ATOM      5  CE  LYS Q   4      20.333   9.367  13.052  1.00 22.11 LIG 0.23  C 
BRANCH 5 6
ATOM      6  NZ  LYS Q   4      20.841   9.568  11.669  1.00 25.79 LIG-0.08  N 
ATOM      7 HZ1  LYS Q   4      21.351  10.296  11.643  1.00 25.79 LIG 0.27  HD
ATOM      8 HZ2  LYS Q   4      21.322   8.860  11.424  1.00 25.79 LIG 0.27  HD
ATOM      9 HZ3  LYS Q   4      20.154   9.667  11.112  1.00 25.79 LIG 0.27  HD
ENDBRANCH 5 6
ENDBRANCH 4 5
ENDBRANCH 3 4
ENDBRANCH 2 3
ENDBRANCH 1 2
BRANCH 1 10
ATOM     10  C   LYS Q   4      15.585   9.237  16.336  1.00 15.70 LIG 0.24  C 
ATOM     11  N   GLN Q   5      15.240   8.130  15.674  1.00 16.90 LIG-0.35  N 
ATOM     12 H    GLN Q   5      15.566   7.898  14.913  1.00 16.90 LIG 0.16  HD
ATOM     13 O    LYS Q   4      15.214   9.465  17.493  1.00 16.41 LIG-0.27  OA
BRANCH 11 14
ATOM     14  CA  GLN Q   5      14.244   7.203  16.223  1.00 18.58 LIG 0.18  C 
BRANCH 14 15
ATOM     15  CB  GLN Q   5      13.512   6.450  15.107  1.00 18.36 LIG 0.04  C 
BRANCH 15 16
ATOM     16  CG  GLN Q   5      12.119   5.945  15.476  1.00 19.34 LIG 0.10  C 
BRANCH 16 17
ATOM     17  CD  GLN Q   5      11.045   6.280  14.464  1.00 21.85 LIG 0.21  C 
ATOM     18  NE2 GLN Q   5      11.466   6.626  13.246  1.00 24.33 LIG-0.37  N 
ATOM     19 21HE GLN Q   5      12.308   6.657  13.074  1.00 24.33 LIG 0.16  HD
ATOM     20 22HE GLN Q   5      10.895   6.817  12.632  1.00 24.33 LIG 0.16  HD
ATOM     21 OE1  GLN Q   5       9.856   6.219  14.761  1.00 24.78 LIG-0.27  OA
ENDBRANCH 16 17
ENDBRANCH 15 16
ENDBRANCH 14 15
BRANCH 14 22
ATOM     22  C   GLN Q   5      14.855   6.218  17.209  1.00 20.15 LIG 0.24  C 
ATOM     23 O    GLN Q   5      15.215   5.101  16.821  1.00 22.37 LIG-0.27  OA
ATOM     24  N   THR Q   6      14.986   6.602  18.472  1.00 20.72 LIG-0.34  N 
ATOM     25 H    THR Q   6      14.841   7.399  18.760  1.00 20.72 LIG 0.16  HD
BRANCH 24 26
ATOM     26  CA  THR Q   6      15.407   5.635  19.490  1.00 22.01 LIG 0.20  C 
BRANCH 26 27
ATOM     27  CB  THR Q   6      15.183   6.145  20.927  1.00 21.09 LIG 0.15  C 
ATOM     28  CG2 THR Q   6      16.466   6.742  21.506  1.00 22.53 LIG 0.04  C 
BRANCH 27 29
ATOM     29 OG1  THR Q   6      14.149   7.135  20.929  1.00 19.47 LIG-0.39  OA
ATOM     30 HG1  THR Q   6      13.691   7.063  20.229  1.00 19.47 LIG 0.21  HD
ENDBRANCH 27 29
ENDBRANCH 26 27
BRANCH 26 31
ATOM     31  C   THR Q   6      14.728   4.281  19.307  1.00 23.85 LIG 0.24  C 
ATOM     32  N   ALA Q   7      15.522   3.237  19.064  1.00 25.35 LIG-0.35  N 
ATOM     33 H    ALA Q   7      16.376   3.301  18.985  1.00 25.35 LIG 0.16  HD
ATOM     34 O    THR Q   6      13.500   4.186  19.414  1.00 25.66 LIG-0.27  OA
BRANCH 32 35
ATOM     35  CA  ALA Q   7      15.013   1.866  18.907  1.00 27.02 LIG 0.16  C 
ATOM     36  CB  ALA Q   7      14.192   1.462  20.129  1.00 27.03 LIG 0.04  C 
BRANCH 35 37
ATOM     37  C   ALA Q   7      14.184   1.695  17.628  1.00 28.43 LIG 0.22  C 
ATOM     38 O    ALA Q   7      12.968   1.459  17.683  1.00 30.23 LIG-0.29  OA
ENDBRANCH 35 37
ENDBRANCH 32 35
ENDBRANCH 26 31
ENDBRANCH 24 26
ENDBRANCH 14 22
ENDBRANCH 11 14
ENDBRANCH 1 10
BRANCH 1 39
ATOM     39  N   LYS Q   4      16.534  11.539  16.276  1.00 13.85 LIG-0.35  N 
ATOM     40 H    LYS Q   4      17.332  11.816  16.434  1.00 13.85 LIG 0.16  HD
ATOM     41  C   THR Q   3      15.431  12.208  16.614  1.00 13.84 LIG 0.24  C 
ATOM     42 O    THR Q   3      14.288  11.823  16.337  1.00 14.15 LIG-0.27  OA
BRANCH 41 43
ATOM     43  CA  THR Q   3      15.640  13.479  17.409  1.00 13.21 LIG 0.20  C 
BRANCH 43 44
ATOM     44  CB  THR Q   3      16.720  13.203  18.484  1.00 13.38 LIG 0.15  C 
ATOM     45  CG2 THR Q   3      16.905  14.371  19.423  1.00 13.96 LIG 0.04  C 
BRANCH 44 46
ATOM     46 OG1  THR Q   3      16.415  12.006  19.214  1.00 13.85 LIG-0.39  OA
ATOM     47 HG1  THR Q   3      15.596  11.836  19.144  1.00 13.85 LIG 0.21  HD
ENDBRANCH 44 46
ENDBRANCH 43 44
BRANCH 43 48
ATOM     48  N   THR Q   3      14.369  13.958  17.961  1.00 13.00 LIG-0.34  N 
ATOM     49  C   ARG Q   2      13.671  13.246  18.840  1.00 13.30 LIG 0.24  C 
ATOM     50 O    ARG Q   2      13.945  12.092  19.143  1.00 13.04 LIG-0.27  OA
ATOM     51 H    THR Q   3      14.125  14.728  17.668  1.00 13.00 LIG 0.16  HD
BRANCH 49 52
ATOM     52  CA  ARG Q   2      12.469  13.929  19.451  1.00 13.85 LIG 0.18  C 
BRANCH 52 53
ATOM     53  N   ARG Q   2      12.843  15.269  19.879  1.00 14.89 LIG-0.35  N 
ATOM     54 H    ARG Q   2      12.754  15.865  19.265  1.00 14.89 LIG 0.16  HD
ATOM     55  C   ALA Q   1      13.280  15.545  21.098  1.00 17.12 LIG 0.25  C 
ATOM     56 O    ALA Q   1      13.407  14.695  21.987  1.00 19.52 LIG-0.27  OA
BRANCH 55 57
ATOM     57  CA  ALA Q   1      13.603  17.011  21.358  1.00 17.93 LIG 0.27  C 
ATOM     58  CB  ALA Q   1      13.714  17.292  22.863  1.00 18.07 LIG 0.05  C 
BRANCH 57 59
ATOM     59  N   ALA Q   1      12.591  17.905  20.718  1.00 19.51 LIG-0.07  N 
ATOM     60 H1   ALA Q   1      11.895  17.421  20.449  1.00 19.51 LIG 0.28  HD
ATOM     61 H3   ALA Q   1      12.957  18.313  20.017  1.00 19.51 LIG 0.28  HD
ATOM     62 H2   ALA Q   1      12.318  18.514  21.307  1.00 19.51 LIG 0.28  HD
ENDBRANCH 57 59
ENDBRANCH 55 57
ENDBRANCH 52 53
BRANCH 52 63
ATOM     63  CB  ARG Q   2      11.342  13.991  18.414  1.00 13.50 LIG 0.04  C 
BRANCH 63 64
ATOM     64  CG  ARG Q   2       9.968  14.375  18.991  1.00 14.15 LIG 0.02  C 
BRANCH 64 65
ATOM     65  CD  ARG Q   2       9.066  14.938  17.904  1.00 12.93 LIG 0.14  C 
BRANCH 65 66
ATOM     66  NE  ARG Q   2       8.273  16.051  18.421  1.00 12.58 LIG-0.23  N 
ATOM     67 HE   ARG Q   2       7.610  15.857  18.933  1.00 12.58 LIG 0.18  HD
ATOM     68  CZ  ARG Q   2       8.489  17.348  18.165  1.00 11.80 LIG 0.67  C 
ATOM     69  NH2 ARG Q   2       7.716  18.258  18.733  1.00 12.39 LIG-0.23  N 
ATOM     70  NH1 ARG Q   2       9.454  17.743  17.345  1.00 13.65 LIG-0.23  N 
ATOM     71 2HH2 ARG Q   2       7.848  19.093  18.574  1.00 12.39 LIG 0.17  HD
ATOM     72 1HH2 ARG Q   2       7.081  18.015  19.260  1.00 12.39 LIG 0.17  HD
ATOM     73 2HH1 ARG Q   2       9.574  18.582  17.196  1.00 13.65 LIG 0.17  HD
ATOM     74 1HH1 ARG Q   2       9.959  17.161  16.963  1.00 13.65 LIG 0.17  HD
ENDBRANCH 65 66
ENDBRANCH 64 65
ENDBRANCH 63 64
ENDBRANCH 52 63
ENDBRANCH 49 52
ENDBRANCH 43 48
ENDBRANCH 41 43
ENDBRANCH 1 39
TORSDOF 30
ENDMDL
MODEL 6
USER: ADFR SOLUTION from run 166
USER: SCORE 21.029903 LL:  -4.344 LR: -20.260 RR:   0.000 FEB: -11.311
USER: RMSD 7.564847
USER: SEED 165
USER: STATUS no improvement in best in 3 clusters for 5 generations
USER: GENES 32
USER: genes 0 Translation |==|  0.64452 0.49222 0.40867
USER: genes 1 Rotation |==|  0.25240 0.30458 0.86598 0.62871
USER: genes 2 Torsion [C]-CA--CB-[CG] |==|  0.34661
USER: genes 3 Torsion [CA]-CB--CG-[CD] |==|  0.69094
USER: genes 4 Torsion [CB]-CG--CD-[CE] |==|  0.29567
USER: genes 5 Torsion [CG]-CD--CE-[NZ] |==|  0.08964
USER: genes 6 Torsion [CD]-CE--NZ-[HZ1] |==|  0.12399
USER: genes 7 Torsion [N]-CA--C-[N] |==|  0.98131
USER: genes 8 Torsion [C]-N--CA-[CB] |==|  0.19457
USER: genes 9 Torsion [N]-CA--CB-[CG] |==|  0.15236
USER: genes 10 Torsion [CA]-CB--CG-[CD] |==|  0.33001
USER: genes 11 Torsion [CB]-CG--CD-[OE1] |==|  0.59839
USER: genes 12 Torsion [N]-CA--C-[N] |==|  0.42426
USER: genes 13 Torsion [C]-N--CA-[CB] |==|  0.43771
USER: genes 14 Torsion [N]-CA--CB-[CG2] |==|  0.80732
USER: genes 15 Torsion [CA]-CB--OG1-[HG1] |==|  0.33440
USER: genes 16 Torsion [N]-CA--C-[N] |==|  0.71374
USER: genes 17 Torsion [C]-N--CA-[C] |==|  0.68750
USER: genes 18 Torsion [N]-CA--C-[O] |==|  0.66817
USER: genes 19 Torsion [CB]-CA--N-[C] |==|  0.83747
USER: genes 20 Torsion [N]-C--CA-[N] |==|  0.00727
USER: genes 21 Torsion [C]-CA--CB-[CG2] |==|  0.22988
USER: genes 22 Torsion [CA]-CB--OG1-[HG1] |==|  0.74505
USER: genes 23 Torsion [C]-CA--N-[C] |==|  0.74837
USER: genes 24 Torsion [N]-C--CA-[N] |==|  0.09875
USER: genes 25 Torsion [C]-CA--N-[C] |==|  0.74444
USER: genes 26 Torsion [N]-C--CA-[N] |==|  0.39747
USER: genes 27 Torsion [C]-CA--N-[H1] |==|  0.13018
USER: genes 28 Torsion [C]-CA--CB-[CG] |==|  0.28027
USER: genes 29 Torsion [CA]-CB--CG-[CD] |==|  0.11565
USER: genes 30 Torsion [CB]-CG--CD-[NE] |==|  0.72769
USER: genes 31 Torsion [CG]-CD--NE-[HE] |==|  0.82394
ROOT
ATOM      1  CA  LYS Q   4      19.059  11.003  14.343  1.00 15.20 LIG 0.18  C 
ENDROOT
BRANCH 1 2
ATOM      2  CB  LYS Q   4      19.954   9.901  14.904  1.00 14.69 LIG 0.04  C 
BRANCH 2 3
ATOM      3  CG  LYS Q   4      20.888   9.317  13.884  1.00 16.14 LIG 0.00  C 
BRANCH 3 4
ATOM      4  CD  LYS Q   4      20.513   7.901  13.552  1.00 18.10 LIG 0.03  C 
BRANCH 4 5
ATOM      5  CE  LYS Q   4      19.883   7.860  12.177  1.00 22.11 LIG 0.23  C 
BRANCH 5 6
ATOM      6  NZ  LYS Q   4      20.466   8.900  11.289  1.00 25.79 LIG-0.08  N 
ATOM      7 HZ1  LYS Q   4      21.351   8.904  11.378  1.00 25.79 LIG 0.27  HD
ATOM      8 HZ2  LYS Q   4      20.254   8.722  10.443  1.00 25.79 LIG 0.27  HD
ATOM      9 HZ3  LYS Q   4      20.142   9.698  11.514  1.00 25.79 LIG 0.27  HD
ENDBRANCH 5 6
ENDBRANCH 4 5
ENDBRANCH 3 4
ENDBRANCH 2 3
ENDBRANCH 1 2
BRANCH 1 10
ATOM     10  C   LYS Q   4      17.595  10.647  14.613  1.00 15.70 LIG 0.24  C 
ATOM     11  N   GLN Q   5      16.909  11.462  15.416  1.00 16.90 LIG-0.35  N 
ATOM     12 H    GLN Q   5      17.196  12.223  15.696  1.00 16.90 LIG 0.16  HD
ATOM     13 O    LYS Q   4      17.097   9.636  14.105  1.00 16.41 LIG-0.27  OA
BRANCH 11 14
ATOM     14  CA  GLN Q   5      15.568  11.100  15.892  1.00 18.58 LIG 0.18  C 
BRANCH 14 15
ATOM     15  CB  GLN Q   5      15.629   9.944  16.896  1.00 18.36 LIG 0.04  C 
BRANCH 15 16
ATOM     16  CG  GLN Q   5      16.548  10.177  18.093  1.00 19.34 LIG 0.10  C 
BRANCH 16 17
ATOM     17  CD  GLN Q   5      15.845  10.157  19.433  1.00 21.85 LIG 0.21  C 
ATOM     18  NE2 GLN Q   5      14.841   9.288  19.562  1.00 24.33 LIG-0.37  N 
ATOM     19 21HE GLN Q   5      14.620   8.784  18.901  1.00 24.33 LIG 0.16  HD
ATOM     20 22HE GLN Q   5      14.415   9.230  20.307  1.00 24.33 LIG 0.16  HD
ATOM     21 OE1  GLN Q   5      16.201  10.898  20.344  1.00 24.78 LIG-0.27  OA
ENDBRANCH 16 17
ENDBRANCH 15 16
ENDBRANCH 14 15
BRANCH 14 22
ATOM     22  C   GLN Q   5      14.832  12.286  16.498  1.00 20.15 LIG 0.24  C 
ATOM     23 O    GLN Q   5      15.471  13.216  17.003  1.00 22.37 LIG-0.27  OA
ATOM     24  N   THR Q   6      13.507  12.282  16.459  1.00 20.72 LIG-0.34  N 
ATOM     25 H    THR Q   6      13.030  11.707  16.033  1.00 20.72 LIG 0.16  HD
BRANCH 24 26
ATOM     26  CA  THR Q   6      12.750  13.311  17.179  1.00 22.01 LIG 0.20  C 
BRANCH 26 27
ATOM     27  CB  THR Q   6      11.329  13.511  16.617  1.00 21.09 LIG 0.15  C 
ATOM     28  CG2 THR Q   6      11.370  14.155  15.231  1.00 22.53 LIG 0.04  C 
BRANCH 27 29
ATOM     29 OG1  THR Q   6      10.662  12.247  16.539  1.00 19.47 LIG-0.39  OA
ATOM     30 HG1  THR Q   6       9.967  12.268  17.011  1.00 19.47 LIG 0.21  HD
ENDBRANCH 27 29
ENDBRANCH 26 27
BRANCH 26 31
ATOM     31  C   THR Q   6      12.682  13.028  18.677  1.00 23.85 LIG 0.24  C 
ATOM     32  N   ALA Q   7      11.535  12.534  19.145  1.00 25.35 LIG-0.35  N 
ATOM     33 H    ALA Q   7      10.844  12.395  18.652  1.00 25.35 LIG 0.16  HD
ATOM     34 O    THR Q   6      13.672  13.231  19.390  1.00 25.66 LIG-0.27  OA
BRANCH 32 35
ATOM     35  CA  ALA Q   7      11.338  12.174  20.557  1.00 27.02 LIG 0.16  C 
ATOM     36  CB  ALA Q   7      10.137  12.921  21.131  1.00 27.03 LIG 0.04  C 
BRANCH 35 37
ATOM     37  C   ALA Q   7      11.172  10.663  20.757  1.00 28.43 LIG 0.22  C 
ATOM     38 O    ALA Q   7      10.134  10.195  21.249  1.00 30.23 LIG-0.29  OA
ENDBRANCH 35 37
ENDBRANCH 32 35
ENDBRANCH 26 31
ENDBRANCH 24 26
ENDBRANCH 14 22
ENDBRANCH 11 14
ENDBRANCH 1 10
BRANCH 1 39
ATOM     39  N   LYS Q   4      19.436  12.299  14.905  1.00 13.85 LIG-0.35  N 
ATOM     40 H    LYS Q   4      19.662  12.889  14.321  1.00 13.85 LIG 0.16  HD
ATOM     41  C   THR Q   3      19.419  12.519  16.220  1.00 13.84 LIG 0.24  C 
ATOM     42 O    THR Q   3      19.042  11.679  17.047  1.00 14.15 LIG-0.27  OA
BRANCH 41 43
ATOM     43  CA  THR Q   3      19.931  13.868  16.677  1.00 13.21 LIG 0.20  C 
BRANCH 43 44
ATOM     44  CB  THR Q   3      18.857  14.508  17.591  1.00 13.38 LIG 0.15  C 
ATOM     45  CG2 THR Q   3      18.942  14.006  19.013  1.00 13.96 LIG 0.04  C 
BRANCH 44 46
ATOM     46 OG1  THR Q   3      18.944  15.939  17.551  1.00 13.85 LIG-0.39  OA
ATOM     47 HG1  THR Q   3      19.450  16.206  18.166  1.00 13.85 LIG 0.21  HD
ENDBRANCH 44 46
ENDBRANCH 43 44
BRANCH 43 48
ATOM     48  N   THR Q   3      20.296  14.699  15.525  1.00 13.00 LIG-0.34  N 
ATOM     49  C   ARG Q   2      21.523  14.695  15.015  1.00 13.30 LIG 0.24  C 
ATOM     50 O    ARG Q   2      22.470  14.126  15.542  1.00 13.04 LIG-0.27  OA
ATOM     51 H    THR Q   3      19.651  15.178  15.219  1.00 13.00 LIG 0.16  HD
BRANCH 49 52
ATOM     52  CA  ARG Q   2      21.716  15.469  13.732  1.00 13.85 LIG 0.18  C 
BRANCH 52 53
ATOM     53  N   ARG Q   2      20.875  16.656  13.754  1.00 14.89 LIG-0.35  N 
ATOM     54 H    ARG Q   2      21.250  17.339  14.118  1.00 14.89 LIG 0.16  HD
ATOM     55  C   ALA Q   1      19.646  16.683  13.260  1.00 17.12 LIG 0.25  C 
ATOM     56 O    ALA Q   1      19.101  15.707  12.732  1.00 19.52 LIG-0.27  OA
BRANCH 55 57
ATOM     57  CA  ALA Q   1      18.932  18.025  13.361  1.00 17.93 LIG 0.27  C 
ATOM     58  CB  ALA Q   1      18.096  18.110  14.645  1.00 18.07 LIG 0.05  C 
BRANCH 57 59
ATOM     59  N   ALA Q   1      18.089  18.277  12.153  1.00 19.51 LIG-0.07  N 
ATOM     60 H1   ALA Q   1      17.610  17.550  11.968  1.00 19.51 LIG 0.28  HD
ATOM     61 H3   ALA Q   1      18.614  18.471  11.460  1.00 19.51 LIG 0.28  HD
ATOM     62 H2   ALA Q   1      17.541  18.961  12.311  1.00 19.51 LIG 0.28  HD
ENDBRANCH 57 59
ENDBRANCH 55 57
ENDBRANCH 52 53
BRANCH 52 63
ATOM     63  CB  ARG Q   2      23.192  15.859  13.594  1.00 13.50 LIG 0.04  C 
BRANCH 63 64
ATOM     64  CG  ARG Q   2      23.999  14.966  12.635  1.00 14.15 LIG 0.02  C 
BRANCH 64 65
ATOM     65  CD  ARG Q   2      23.191  14.650  11.386  1.00 12.93 LIG 0.14  C 
BRANCH 65 66
ATOM     66  NE  ARG Q   2      22.561  13.337  11.501  1.00 12.58 LIG-0.23  N 
ATOM     67 HE   ARG Q   2      23.082  12.655  11.560  1.00 12.58 LIG 0.18  HD
ATOM     68  CZ  ARG Q   2      21.243  13.103  11.523  1.00 11.80 LIG 0.67  C 
ATOM     69  NH2 ARG Q   2      20.806  11.864  11.672  1.00 12.39 LIG-0.23  N 
ATOM     70  NH1 ARG Q   2      20.361  14.085  11.386  1.00 13.65 LIG-0.23  N 
ATOM     71 2HH2 ARG Q   2      19.961  11.705  11.688  1.00 12.39 LIG 0.17  HD
ATOM     72 1HH2 ARG Q   2      21.368  11.217  11.754  1.00 12.39 LIG 0.17  HD
ATOM     73 2HH1 ARG Q   2      19.519  13.911  11.404  1.00 13.65 LIG 0.17  HD
ATOM     74 1HH1 ARG Q   2      20.632  14.894  11.280  1.00 13.65 LIG 0.17  HD
ENDBRANCH 65 66
ENDBRANCH 64 65
ENDBRANCH 63 64
ENDBRANCH 52 63
ENDBRANCH 49 52
ENDBRANCH 43 48
ENDBRANCH 41 43
ENDBRANCH 1 39
TORSDOF 30
ENDMDL
MODEL 7
USER: ADFR SOLUTION from run 57
USER: SCORE 19.915533 LL:  -3.577 LR: -20.194 RR:   0.000 FEB: -11.245
USER: RMSD 10.209795
USER: SEED 56
USER: STATUS no improvement in best in 9 clusters for 5 generations
USER: GENES 32
USER: genes 0 Translation |==|  0.68062 0.44748 0.43009
USER: genes 1 Rotation |==|  0.13608 0.32120 0.26949 0.68015
USER: genes 2 Torsion [C]-CA--CB-[CG] |==|  0.16207
USER: genes 3 Torsion [CA]-CB--CG-[CD] |==|  0.08242
USER: genes 4 Torsion [CB]-CG--CD-[CE] |==|  0.28730
USER: genes 5 Torsion [CG]-CD--CE-[NZ] |==|  0.15289
USER: genes 6 Torsion [CD]-CE--NZ-[HZ1] |==|  0.91410
USER: genes 7 Torsion [N]-CA--C-[N] |==|  0.79389
USER: genes 8 Torsion [C]-N--CA-[CB] |==|  0.37469
USER: genes 9 Torsion [N]-CA--CB-[CG] |==|  0.68598
USER: genes 10 Torsion [CA]-CB--CG-[CD] |==|  0.89959
USER: genes 11 Torsion [CB]-CG--CD-[OE1] |==|  0.88399
USER: genes 12 Torsion [N]-CA--C-[N] |==|  0.54316
USER: genes 13 Torsion [C]-N--CA-[CB] |==|  0.79996
USER: genes 14 Torsion [N]-CA--CB-[CG2] |==|  0.58094
USER: genes 15 Torsion [CA]-CB--OG1-[HG1] |==|  0.74048
USER: genes 16 Torsion [N]-CA--C-[N] |==|  0.21056
USER: genes 17 Torsion [C]-N--CA-[C] |==|  0.69927
USER: genes 18 Torsion [N]-CA--C-[O] |==|  0.05548
USER: genes 19 Torsion [CB]-CA--N-[C] |==|  0.88867
USER: genes 20 Torsion [N]-C--CA-[N] |==|  0.37330
USER: genes 21 Torsion [C]-CA--CB-[CG2] |==|  0.07678
USER: genes 22 Torsion [CA]-CB--OG1-[HG1] |==|  0.42643
USER: genes 23 Torsion [C]-CA--N-[C] |==|  0.53889
USER: genes 24 Torsion [N]-C--CA-[N] |==|  0.32497
USER: genes 25 Torsion [C]-CA--N-[C] |==|  0.56868
USER: genes 26 Torsion [N]-C--CA-[N] |==|  0.12467
USER: genes 27 Torsion [C]-CA--N-[H1] |==|  0.10142
USER: genes 28 Torsion [C]-CA--CB-[CG] |==|  0.68927
USER: genes 29 Torsion [CA]-CB--CG-[CD] |==|  0.43877
USER: genes 30 Torsion [CB]-CG--CD-[NE] |==|  0.23680
USER: genes 31 Torsion [CG]-CD--NE-[HE] |==|  0.69936
ROOT
ATOM      1  CA  LYS Q   4      19.926  10.131  14.793  1.00 15.20 LIG 0.18  C 
ENDROOT
BRANCH 1 2
ATOM      2  CB  LYS Q   4      19.446   9.462  13.507  1.00 14.69 LIG 0.04  C 
BRANCH 2 3
ATOM      3  CG  LYS Q   4      20.544   9.239  12.508  1.00 16.14 LIG 0.00  C 
BRANCH 3 4
ATOM      4  CD  LYS Q   4      21.867   9.038  13.191  1.00 18.10 LIG 0.03  C 
BRANCH 4 5
ATOM      5  CE  LYS Q   4      22.220   7.567  13.172  1.00 22.11 LIG 0.23  C 
BRANCH 5 6
ATOM      6  NZ  LYS Q   4      22.203   7.030  11.785  1.00 25.79 LIG-0.08  N 
ATOM      7 HZ1  LYS Q   4      21.599   7.471  11.303  1.00 25.79 LIG 0.27  HD
ATOM      8 HZ2  LYS Q   4      23.007   7.131  11.417  1.00 25.79 LIG 0.27  HD
ATOM      9 HZ3  LYS Q   4      21.992   6.166  11.804  1.00 25.79 LIG 0.27  HD
ENDBRANCH 5 6
ENDBRANCH 4 5
ENDBRANCH 3 4
ENDBRANCH 2 3
ENDBRANCH 1 2
BRANCH 1 10
ATOM     10  C   LYS Q   4      20.568  11.477  14.449  1.00 15.70 LIG 0.24  C 
ATOM     11  N   GLN Q   5      19.883  12.290  13.641  1.00 16.90 LIG-0.35  N 
ATOM     12 H    GLN Q   5      19.069  12.157  13.397  1.00 16.90 LIG 0.16  HD
ATOM     13 O    LYS Q   4      21.680  11.771  14.903  1.00 16.41 LIG-0.27  OA
BRANCH 11 14
ATOM     14  CA  GLN Q   5      20.497  13.506  13.096  1.00 18.58 LIG 0.18  C 
BRANCH 14 15
ATOM     15  CB  GLN Q   5      20.199  13.657  11.601  1.00 18.36 LIG 0.04  C 
BRANCH 15 16
ATOM     16  CG  GLN Q   5      21.414  13.525  10.685  1.00 19.34 LIG 0.10  C 
BRANCH 16 17
ATOM     17  CD  GLN Q   5      22.690  14.106  11.253  1.00 21.85 LIG 0.21  C 
ATOM     18  NE2 GLN Q   5      23.803  13.398  11.056  1.00 24.33 LIG-0.37  N 
ATOM     19 21HE GLN Q   5      23.768  12.651  10.633  1.00 24.33 LIG 0.16  HD
ATOM     20 22HE GLN Q   5      24.557  13.690  11.351  1.00 24.33 LIG 0.16  HD
ATOM     21 OE1  GLN Q   5      22.684  15.179  11.850  1.00 24.78 LIG-0.27  OA
ENDBRANCH 16 17
ENDBRANCH 15 16
ENDBRANCH 14 15
BRANCH 14 22
ATOM     22  C   GLN Q   5      20.065  14.756  13.848  1.00 20.15 LIG 0.24  C 
ATOM     23 O    GLN Q   5      19.528  14.654  14.956  1.00 22.37 LIG-0.27  OA
ATOM     24  N   THR Q   6      20.287  15.933  13.278  1.00 20.72 LIG-0.34  N 
ATOM     25 H    THR Q   6      20.744  16.052  12.559  1.00 20.72 LIG 0.16  HD
BRANCH 24 26
ATOM     26  CA  THR Q   6      19.737  17.152  13.879  1.00 22.01 LIG 0.20  C 
BRANCH 26 27
ATOM     27  CB  THR Q   6      18.209  17.266  13.708  1.00 21.09 LIG 0.15  C 
ATOM     28  CG2 THR Q   6      17.768  18.729  13.659  1.00 22.53 LIG 0.04  C 
BRANCH 27 29
ATOM     29 OG1  THR Q   6      17.811  16.604  12.503  1.00 19.47 LIG-0.39  OA
ATOM     30 HG1  THR Q   6      17.783  17.159  11.874  1.00 19.47 LIG 0.21  HD
ENDBRANCH 27 29
ENDBRANCH 26 27
BRANCH 26 31
ATOM     31  C   THR Q   6      20.106  17.279  15.354  1.00 23.85 LIG 0.24  C 
ATOM     32  N   ALA Q   7      21.356  17.652  15.633  1.00 25.35 LIG-0.35  N 
ATOM     33 H    ALA Q   7      21.952  17.796  15.029  1.00 25.35 LIG 0.16  HD
ATOM     34 O    THR Q   6      19.254  17.066  16.225  1.00 25.66 LIG-0.27  OA
BRANCH 32 35
ATOM     35  CA  ALA Q   7      21.842  17.855  17.006  1.00 27.02 LIG 0.16  C 
ATOM     36  CB  ALA Q   7      23.126  17.062  17.236  1.00 27.03 LIG 0.04  C 
BRANCH 35 37
ATOM     37  C   ALA Q   7      22.063  19.336  17.333  1.00 28.43 LIG 0.22  C 
ATOM     38 O    ALA Q   7      21.514  20.226  16.665  1.00 30.23 LIG-0.29  OA
ENDBRANCH 35 37
ENDBRANCH 32 35
ENDBRANCH 26 31
ENDBRANCH 24 26
ENDBRANCH 14 22
ENDBRANCH 11 14
ENDBRANCH 1 10
BRANCH 1 39
ATOM     39  N   LYS Q   4      18.822  10.260  15.742  1.00 13.85 LIG-0.35  N 
ATOM     40 H    LYS Q   4      19.035  10.101  16.560  1.00 13.85 LIG 0.16  HD
ATOM     41  C   THR Q   3      17.596  10.601  15.342  1.00 13.84 LIG 0.24  C 
ATOM     42 O    THR Q   3      17.315  10.878  14.170  1.00 14.15 LIG-0.27  OA
BRANCH 41 43
ATOM     43  CA  THR Q   3      16.522  10.597  16.408  1.00 13.21 LIG 0.20  C 
BRANCH 43 44
ATOM     44  CB  THR Q   3      15.710   9.285  16.269  1.00 13.38 LIG 0.15  C 
ATOM     45  CG2 THR Q   3      16.529   8.165  15.672  1.00 13.96 LIG 0.04  C 
BRANCH 44 46
ATOM     46 OG1  THR Q   3      15.159   8.893  17.535  1.00 13.85 LIG-0.39  OA
ATOM     47 HG1  THR Q   3      14.466   8.436  17.409  1.00 13.85 LIG 0.21  HD
ENDBRANCH 44 46
ENDBRANCH 43 44
BRANCH 43 48
ATOM     48  N   THR Q   3      15.702  11.809  16.321  1.00 13.00 LIG-0.34  N 
ATOM     49  C   ARG Q   2      14.879  12.174  17.299  1.00 13.30 LIG 0.24  C 
ATOM     50 O    ARG Q   2      14.629  11.469  18.267  1.00 13.04 LIG-0.27  OA
ATOM     51 H    THR Q   3      15.804  12.252  15.591  1.00 13.00 LIG 0.16  HD
BRANCH 49 52
ATOM     52  CA  ARG Q   2      14.223  13.527  17.150  1.00 13.85 LIG 0.18  C 
BRANCH 52 53
ATOM     53  N   ARG Q   2      12.781  13.354  17.051  1.00 14.89 LIG-0.35  N 
ATOM     54 H    ARG Q   2      12.495  12.628  17.412  1.00 14.89 LIG 0.16  HD
ATOM     55  C   ALA Q   1      11.985  14.232  16.459  1.00 17.12 LIG 0.25  C 
ATOM     56 O    ALA Q   1      12.388  15.279  15.940  1.00 19.52 LIG-0.27  OA
BRANCH 55 57
ATOM     57  CA  ALA Q   1      10.502  13.881  16.475  1.00 17.93 LIG 0.27  C 
ATOM     58  CB  ALA Q   1       9.649  15.071  16.016  1.00 18.07 LIG 0.05  C 
BRANCH 57 59
ATOM     59  N   ALA Q   1      10.078  13.405  17.826  1.00 19.51 LIG-0.07  N 
ATOM     60 H1   ALA Q   1      10.513  13.863  18.453  1.00 19.51 LIG 0.28  HD
ATOM     61 H3   ALA Q   1      10.266  12.538  17.909  1.00 19.51 LIG 0.28  HD
ATOM     62 H2   ALA Q   1       9.202  13.529  17.923  1.00 19.51 LIG 0.28  HD
ENDBRANCH 57 59
ENDBRANCH 55 57
ENDBRANCH 52 53
BRANCH 52 63
ATOM     63  CB  ARG Q   2      14.578  14.397  18.361  1.00 13.50 LIG 0.04  C 
BRANCH 63 64
ATOM     64  CG  ARG Q   2      13.391  14.707  19.290  1.00 14.15 LIG 0.02  C 
BRANCH 64 65
ATOM     65  CD  ARG Q   2      13.880  15.078  20.682  1.00 12.93 LIG 0.14  C 
BRANCH 65 66
ATOM     66  NE  ARG Q   2      14.207  16.500  20.749  1.00 12.58 LIG-0.23  N 
ATOM     67 HE   ARG Q   2      15.039  16.710  20.796  1.00 12.58 LIG 0.18  HD
ATOM     68  CZ  ARG Q   2      13.321  17.506  20.743  1.00 11.80 LIG 0.67  C 
ATOM     69  NH2 ARG Q   2      13.758  18.753  20.768  1.00 12.39 LIG-0.23  N 
ATOM     70  NH1 ARG Q   2      12.014  17.281  20.725  1.00 13.65 LIG-0.23  N 
ATOM     71 2HH2 ARG Q   2      13.196  19.405  20.764  1.00 12.39 LIG 0.17  HD
ATOM     72 1HH2 ARG Q   2      14.603  18.913  20.788  1.00 12.39 LIG 0.17  HD
ATOM     73 2HH1 ARG Q   2      11.465  17.942  20.722  1.00 13.65 LIG 0.17  HD
ATOM     74 1HH1 ARG Q   2      11.717  16.473  20.718  1.00 13.65 LIG 0.17  HD
ENDBRANCH 65 66
ENDBRANCH 64 65
ENDBRANCH 63 64
ENDBRANCH 52 63
ENDBRANCH 49 52
ENDBRANCH 43 48
ENDBRANCH 41 43
ENDBRANCH 1 39
TORSDOF 30
ENDMDL
MODEL 8
USER: ADFR SOLUTION from run 143
USER: SCORE 20.734458 LL:  -4.273 LR: -19.918 RR:   0.000 FEB: -10.969
USER: RMSD 9.447835
USER: SEED 142
USER: STATUS no improvement in best in 9 clusters for 5 generations
USER: GENES 32
USER: genes 0 Translation |==|  0.53145 0.45361 0.46653
USER: genes 1 Rotation |==|  0.64455 0.37481 0.96002 0.54265
USER: genes 2 Torsion [C]-CA--CB-[CG] |==|  0.13042
USER: genes 3 Torsion [CA]-CB--CG-[CD] |==|  0.47448
USER: genes 4 Torsion [CB]-CG--CD-[CE] |==|  0.21885
USER: genes 5 Torsion [CG]-CD--CE-[NZ] |==|  0.50661
USER: genes 6 Torsion [CD]-CE--NZ-[HZ1] |==|  0.75973
USER: genes 7 Torsion [N]-CA--C-[N] |==|  0.27679
USER: genes 8 Torsion [C]-N--CA-[CB] |==|  0.22613
USER: genes 9 Torsion [N]-CA--CB-[CG] |==|  0.24889
USER: genes 10 Torsion [CA]-CB--CG-[CD] |==|  0.49553
USER: genes 11 Torsion [CB]-CG--CD-[OE1] |==|  0.13870
USER: genes 12 Torsion [N]-CA--C-[N] |==|  0.93892
USER: genes 13 Torsion [C]-N--CA-[CB] |==|  0.21594
USER: genes 14 Torsion [N]-CA--CB-[CG2] |==|  0.69465
USER: genes 15 Torsion [CA]-CB--OG1-[HG1] |==|  0.14098
USER: genes 16 Torsion [N]-CA--C-[N] |==|  0.88850
USER: genes 17 Torsion [C]-N--CA-[C] |==|  0.18361
USER: genes 18 Torsion [N]-CA--C-[O] |==|  0.05643
USER: genes 19 Torsion [CB]-CA--N-[C] |==|  0.52645
USER: genes 20 Torsion [N]-C--CA-[N] |==|  0.32502
USER: genes 21 Torsion [C]-CA--CB-[CG2] |==|  0.62426
USER: genes 22 Torsion [CA]-CB--OG1-[HG1] |==|  0.60471
USER: genes 23 Torsion [C]-CA--N-[C] |==|  0.89351
USER: genes 24 Torsion [N]-C--CA-[N] |==|  0.84167
USER: genes 25 Torsion [C]-CA--N-[C] |==|  0.20711
USER: genes 26 Torsion [N]-C--CA-[N] |==|  0.81737
USER: genes 27 Torsion [C]-CA--N-[H1] |==|  0.03173
USER: genes 28 Torsion [C]-CA--CB-[CG] |==|  0.39348
USER: genes 29 Torsion [CA]-CB--CG-[CD] |==|  0.37439
USER: genes 30 Torsion [CB]-CG--CD-[NE] |==|  0.03463
USER: genes 31 Torsion [CG]-CD--NE-[HE] |==|  0.18373
ROOT
ATOM      1  CA  LYS Q   4      16.346  10.250  15.558  1.00 15.20 LIG 0.18  C 
ENDROOT
BRANCH 1 2
ATOM      2  CB  LYS Q   4      17.323  10.276  14.386  1.00 14.69 LIG 0.04  C 
BRANCH 2 3
ATOM      3  CG  LYS Q   4      17.948   8.941  14.104  1.00 16.14 LIG 0.00  C 
BRANCH 3 4
ATOM      4  CD  LYS Q   4      18.723   8.965  12.818  1.00 18.10 LIG 0.03  C 
BRANCH 4 5
ATOM      5  CE  LYS Q   4      20.062   9.630  13.053  1.00 22.11 LIG 0.23  C 
BRANCH 5 6
ATOM      6  NZ  LYS Q   4      20.841   9.727  11.790  1.00 25.79 LIG-0.08  N 
ATOM      7 HZ1  LYS Q   4      21.302   8.976  11.667  1.00 25.79 LIG 0.27  HD
ATOM      8 HZ2  LYS Q   4      20.284   9.847  11.106  1.00 25.79 LIG 0.27  HD
ATOM      9 HZ3  LYS Q   4      21.403  10.415  11.840  1.00 25.79 LIG 0.27  HD
ENDBRANCH 5 6
ENDBRANCH 4 5
ENDBRANCH 3 4
ENDBRANCH 2 3
ENDBRANCH 1 2
BRANCH 1 10
ATOM     10  C   LYS Q   4      16.989   9.508  16.732  1.00 15.70 LIG 0.24  C 
ATOM     11  N   GLN Q   5      16.219   8.651  17.406  1.00 16.90 LIG-0.35  N 
ATOM     12 H    GLN Q   5      15.432   8.408  17.158  1.00 16.90 LIG 0.16  HD
ATOM     13 O    LYS Q   4      18.171   9.719  17.030  1.00 16.41 LIG-0.27  OA
BRANCH 11 14
ATOM     14  CA  GLN Q   5      16.682   8.045  18.660  1.00 18.58 LIG 0.18  C 
BRANCH 14 15
ATOM     15  CB  GLN Q   5      16.481   8.998  19.844  1.00 18.36 LIG 0.04  C 
BRANCH 15 16
ATOM     16  CG  GLN Q   5      15.131   8.877  20.547  1.00 19.34 LIG 0.10  C 
BRANCH 16 17
ATOM     17  CD  GLN Q   5      14.963   9.797  21.737  1.00 21.85 LIG 0.21  C 
ATOM     18  NE2 GLN Q   5      14.546   9.230  22.870  1.00 24.33 LIG-0.37  N 
ATOM     19 21HE GLN Q   5      14.380   8.387  22.894  1.00 24.33 LIG 0.16  HD
ATOM     20 22HE GLN Q   5      14.443   9.708  23.578  1.00 24.33 LIG 0.16  HD
ATOM     21 OE1  GLN Q   5      15.214  10.995  21.649  1.00 24.78 LIG-0.27  OA
ENDBRANCH 16 17
ENDBRANCH 15 16
ENDBRANCH 14 15
BRANCH 14 22
ATOM     22  C   GLN Q   5      16.008   6.711  18.939  1.00 20.15 LIG 0.24  C 
ATOM     23 O    GLN Q   5      16.543   5.896  19.698  1.00 22.37 LIG-0.27  OA
ATOM     24  N   THR Q   6      14.845   6.465  18.349  1.00 20.72 LIG-0.34  N 
ATOM     25 H    THR Q   6      14.393   7.040  17.896  1.00 20.72 LIG 0.16  HD
BRANCH 24 26
ATOM     26  CA  THR Q   6      14.241   5.133  18.447  1.00 22.01 LIG 0.20  C 
BRANCH 26 27
ATOM     27  CB  THR Q   6      13.562   4.883  19.807  1.00 21.09 LIG 0.15  C 
ATOM     28  CG2 THR Q   6      14.343   3.862  20.635  1.00 22.53 LIG 0.04  C 
BRANCH 27 29
ATOM     29 OG1  THR Q   6      13.468   6.115  20.530  1.00 19.47 LIG-0.39  OA
ATOM     30 HG1  THR Q   6      13.125   6.703  20.039  1.00 19.47 LIG 0.21  HD
ENDBRANCH 27 29
ENDBRANCH 26 27
BRANCH 26 31
ATOM     31  C   THR Q   6      13.252   4.869  17.315  1.00 23.85 LIG 0.24  C 
ATOM     32  N   ALA Q   7      12.461   5.881  16.959  1.00 25.35 LIG-0.35  N 
ATOM     33 H    ALA Q   7      12.470   6.648  17.349  1.00 25.35 LIG 0.16  HD
ATOM     34 O    THR Q   6      13.232   3.765  16.757  1.00 25.66 LIG-0.27  OA
BRANCH 32 35
ATOM     35  CA  ALA Q   7      11.489   5.786  15.859  1.00 27.02 LIG 0.16  C 
ATOM     36  CB  ALA Q   7      12.195   5.409  14.560  1.00 27.03 LIG 0.04  C 
BRANCH 35 37
ATOM     37  C   ALA Q   7      10.361   4.792  16.162  1.00 28.43 LIG 0.22  C 
ATOM     38 O    ALA Q   7      10.105   4.455  17.328  1.00 30.23 LIG-0.29  OA
ENDBRANCH 35 37
ENDBRANCH 32 35
ENDBRANCH 26 31
ENDBRANCH 24 26
ENDBRANCH 14 22
ENDBRANCH 11 14
ENDBRANCH 1 10
BRANCH 1 39
ATOM     39  N   LYS Q   4      15.936  11.609  15.909  1.00 13.85 LIG-0.35  N 
ATOM     40 H    LYS Q   4      16.183  12.212  15.349  1.00 13.85 LIG 0.16  HD
ATOM     41  C   THR Q   3      15.235  11.860  17.016  1.00 13.84 LIG 0.24  C 
ATOM     42 O    THR Q   3      14.841  10.977  17.788  1.00 14.15 LIG-0.27  OA
BRANCH 41 43
ATOM     43  CA  THR Q   3      14.966  13.318  17.317  1.00 13.21 LIG 0.20  C 
BRANCH 43 44
ATOM     44  CB  THR Q   3      15.641  13.664  18.668  1.00 13.38 LIG 0.15  C 
ATOM     45  CG2 THR Q   3      14.739  14.476  19.568  1.00 13.96 LIG 0.04  C 
BRANCH 44 46
ATOM     46 OG1  THR Q   3      16.083  12.472  19.334  1.00 13.85 LIG-0.39  OA
ATOM     47 HG1  THR Q   3      15.960  12.551  20.161  1.00 13.85 LIG 0.21  HD
ENDBRANCH 44 46
ENDBRANCH 43 44
BRANCH 43 48
ATOM     48  N   THR Q   3      13.526  13.594  17.291  1.00 13.00 LIG-0.34  N 
ATOM     49  C   ARG Q   2      12.717  13.027  16.402  1.00 13.30 LIG 0.24  C 
ATOM     50 O    ARG Q   2      13.116  12.358  15.458  1.00 13.04 LIG-0.27  OA
ATOM     51 H    THR Q   3      13.262  14.147  17.895  1.00 13.00 LIG 0.16  HD
BRANCH 49 52
ATOM     52  CA  ARG Q   2      11.237  13.269  16.594  1.00 13.85 LIG 0.18  C 
BRANCH 52 53
ATOM     53  N   ARG Q   2      10.844  12.822  17.921  1.00 14.89 LIG-0.35  N 
ATOM     54 H    ARG Q   2      10.404  12.083  17.921  1.00 14.89 LIG 0.16  HD
ATOM     55  C   ALA Q   1      11.137  13.490  19.028  1.00 17.12 LIG 0.25  C 
ATOM     56 O    ALA Q   1      11.772  14.550  19.038  1.00 19.52 LIG-0.27  OA
BRANCH 55 57
ATOM     57  CA  ALA Q   1      10.654  12.848  20.323  1.00 17.93 LIG 0.27  C 
ATOM     58  CB  ALA Q   1      11.235  11.438  20.489  1.00 18.07 LIG 0.05  C 
BRANCH 57 59
ATOM     59  N   ALA Q   1       9.161  12.825  20.386  1.00 19.51 LIG-0.07  N 
ATOM     60 H1   ALA Q   1       8.827  13.038  19.589  1.00 19.51 LIG 0.28  HD
ATOM     61 H3   ALA Q   1       8.880  13.414  20.992  1.00 19.51 LIG 0.28  HD
ATOM     62 H2   ALA Q   1       8.886  12.010  20.615  1.00 19.51 LIG 0.28  HD
ENDBRANCH 57 59
ENDBRANCH 55 57
ENDBRANCH 52 53
BRANCH 52 63
ATOM     63  CB  ARG Q   2      10.944  14.764  16.421  1.00 13.50 LIG 0.04  C 
BRANCH 63 64
ATOM     64  CG  ARG Q   2       9.626  15.073  15.690  1.00 14.15 LIG 0.02  C 
BRANCH 64 65
ATOM     65  CD  ARG Q   2       8.855  16.169  16.410  1.00 12.93 LIG 0.14  C 
BRANCH 65 66
ATOM     66  NE  ARG Q   2       9.700  16.820  17.408  1.00 12.58 LIG-0.23  N 
ATOM     67 HE   ARG Q   2      10.373  17.272  17.119  1.00 12.58 LIG 0.18  HD
ATOM     68  CZ  ARG Q   2       9.519  16.773  18.734  1.00 11.80 LIG 0.67  C 
ATOM     69  NH2 ARG Q   2      10.340  17.444  19.524  1.00 12.39 LIG-0.23  N 
ATOM     70  NH1 ARG Q   2       8.542  16.059  19.277  1.00 13.65 LIG-0.23  N 
ATOM     71 2HH2 ARG Q   2      10.230  17.420  20.377  1.00 12.39 LIG 0.17  HD
ATOM     72 1HH2 ARG Q   2      10.983  17.905  19.185  1.00 12.39 LIG 0.17  HD
ATOM     73 2HH1 ARG Q   2       8.445  16.045  20.132  1.00 13.65 LIG 0.17  HD
ATOM     74 1HH1 ARG Q   2       8.006  15.611  18.775  1.00 13.65 LIG 0.17  HD
ENDBRANCH 65 66
ENDBRANCH 64 65
ENDBRANCH 63 64
ENDBRANCH 52 63
ENDBRANCH 49 52
ENDBRANCH 43 48
ENDBRANCH 41 43
ENDBRANCH 1 39
TORSDOF 30
ENDMDL
MODEL 9
USER: ADFR SOLUTION from run 102
USER: SCORE 21.437936 LL:  -4.264 LR: -19.913 RR:   0.000 FEB: -10.964
USER: RMSD 4.808264
USER: SEED 101
USER: STATUS no improvement in best in 4 clusters for 5 generations
USER: GENES 32
USER: genes 0 Translation |==|  0.42316 0.59854 0.53527
USER: genes 1 Rotation |==|  0.50859 0.47191 0.49984 0.99914
USER: genes 2 Torsion [C]-CA--CB-[CG] |==|  0.07476
USER: genes 3 Torsion [CA]-CB--CG-[CD] |==|  0.24243
USER: genes 4 Torsion [CB]-CG--CD-[CE] |==|  0.49133
USER: genes 5 Torsion [CG]-CD--CE-[NZ] |==|  0.48599
USER: genes 6 Torsion [CD]-CE--NZ-[HZ1] |==|  0.71609
USER: genes 7 Torsion [N]-CA--C-[N] |==|  0.44115
USER: genes 8 Torsion [C]-N--CA-[CB] |==|  0.45920
USER: genes 9 Torsion [N]-CA--CB-[CG] |==|  0.14059
USER: genes 10 Torsion [CA]-CB--CG-[CD] |==|  0.29493
USER: genes 11 Torsion [CB]-CG--CD-[OE1] |==|  0.66222
USER: genes 12 Torsion [N]-CA--C-[N] |==|  0.90985
USER: genes 13 Torsion [C]-N--CA-[CB] |==|  0.86564
USER: genes 14 Torsion [N]-CA--CB-[CG2] |==|  0.45323
USER: genes 15 Torsion [CA]-CB--OG1-[HG1] |==|  0.46598
USER: genes 16 Torsion [N]-CA--C-[N] |==|  0.32778
USER: genes 17 Torsion [C]-N--CA-[C] |==|  0.17129
USER: genes 18 Torsion [N]-CA--C-[O] |==|  0.63644
USER: genes 19 Torsion [CB]-CA--N-[C] |==|  0.46326
USER: genes 20 Torsion [N]-C--CA-[N] |==|  0.42532
USER: genes 21 Torsion [C]-CA--CB-[CG2] |==|  0.67540
USER: genes 22 Torsion [CA]-CB--OG1-[HG1] |==|  0.45236
USER: genes 23 Torsion [C]-CA--N-[C] |==|  0.61135
USER: genes 24 Torsion [N]-C--CA-[N] |==|  0.43832
USER: genes 25 Torsion [C]-CA--N-[C] |==|  0.81279
USER: genes 26 Torsion [N]-C--CA-[N] |==|  0.22005
USER: genes 27 Torsion [C]-CA--N-[H1] |==|  0.22252
USER: genes 28 Torsion [C]-CA--CB-[CG] |==|  0.25771
USER: genes 29 Torsion [CA]-CB--CG-[CD] |==|  0.41456
USER: genes 30 Torsion [CB]-CG--CD-[NE] |==|  0.06811
USER: genes 31 Torsion [CG]-CD--NE-[HE] |==|  0.21094
ROOT
ATOM      1  CA  LYS Q   4      13.747  13.076  17.002  1.00 15.20 LIG 0.18  C 
ENDROOT
BRANCH 1 2
ATOM      2  CB  LYS Q   4      12.324  13.258  16.481  1.00 14.69 LIG 0.04  C 
BRANCH 2 3
ATOM      3  CG  LYS Q   4      11.409  13.921  17.469  1.00 16.14 LIG 0.00  C 
BRANCH 3 4
ATOM      4  CD  LYS Q   4      11.478  15.417  17.352  1.00 18.10 LIG 0.03  C 
BRANCH 4 5
ATOM      5  CE  LYS Q   4      10.486  16.040  18.310  1.00 22.11 LIG 0.23  C 
BRANCH 5 6
ATOM      6  NZ  LYS Q   4      10.604  17.522  18.316  1.00 25.79 LIG-0.08  N 
ATOM      7 HZ1  LYS Q   4      11.051  17.781  19.040  1.00 25.79 LIG 0.27  HD
ATOM      8 HZ2  LYS Q   4      11.041  17.788  17.587  1.00 25.79 LIG 0.27  HD
ATOM      9 HZ3  LYS Q   4       9.792  17.885  18.324  1.00 25.79 LIG 0.27  HD
ENDBRANCH 5 6
ENDBRANCH 4 5
ENDBRANCH 3 4
ENDBRANCH 2 3
ENDBRANCH 1 2
BRANCH 1 10
ATOM     10  C   LYS Q   4      13.714  12.986  18.529  1.00 15.70 LIG 0.24  C 
ATOM     11  N   GLN Q   5      13.581  14.130  19.204  1.00 16.90 LIG-0.35  N 
ATOM     12 H    GLN Q   5      13.401  14.889  18.842  1.00 16.90 LIG 0.16  HD
ATOM     13 O    LYS Q   4      13.821  11.889  19.091  1.00 16.41 LIG-0.27  OA
BRANCH 11 14
ATOM     14  CA  GLN Q   5      13.739  14.168  20.663  1.00 18.58 LIG 0.18  C 
BRANCH 14 15
ATOM     15  CB  GLN Q   5      13.902  15.607  21.166  1.00 18.36 LIG 0.04  C 
BRANCH 15 16
ATOM     16  CG  GLN Q   5      12.846  16.589  20.666  1.00 19.34 LIG 0.10  C 
BRANCH 16 17
ATOM     17  CD  GLN Q   5      11.826  16.992  21.708  1.00 21.85 LIG 0.21  C 
ATOM     18  NE2 GLN Q   5      12.302  17.575  22.809  1.00 24.33 LIG-0.37  N 
ATOM     19 21HE GLN Q   5      13.148  17.696  22.901  1.00 24.33 LIG 0.16  HD
ATOM     20 22HE GLN Q   5      11.763  17.832  23.428  1.00 24.33 LIG 0.16  HD
ATOM     21 OE1  GLN Q   5      10.628  16.796  21.528  1.00 24.78 LIG-0.27  OA
ENDBRANCH 16 17
ENDBRANCH 15 16
ENDBRANCH 14 15
BRANCH 14 22
ATOM     22  C   GLN Q   5      12.587  13.486  21.386  1.00 20.15 LIG 0.24  C 
ATOM     23 O    GLN Q   5      12.788  12.906  22.458  1.00 22.37 LIG-0.27  OA
ATOM     24  N   THR Q   6      11.383  13.544  20.831  1.00 20.72 LIG-0.34  N 
ATOM     25 H    THR Q   6      11.182  14.018  20.143  1.00 20.72 LIG 0.16  HD
BRANCH 24 26
ATOM     26  CA  THR Q   6      10.279  12.760  21.396  1.00 22.01 LIG 0.20  C 
BRANCH 26 27
ATOM     27  CB  THR Q   6      10.661  11.291  21.657  1.00 21.09 LIG 0.15  C 
ATOM     28  CG2 THR Q   6       9.665  10.622  22.604  1.00 22.53 LIG 0.04  C 
BRANCH 27 29
ATOM     29 OG1  THR Q   6      10.697  10.577  20.416  1.00 19.47 LIG-0.39  OA
ATOM     30 HG1  THR Q   6      11.063   9.830  20.533  1.00 19.47 LIG 0.21  HD
ENDBRANCH 27 29
ENDBRANCH 26 27
BRANCH 26 31
ATOM     31  C   THR Q   6       9.728  13.389  22.672  1.00 23.85 LIG 0.24  C 
ATOM     32  N   ALA Q   7       8.452  13.778  22.650  1.00 25.35 LIG-0.35  N 
ATOM     33 H    ALA Q   7       7.950  13.712  21.954  1.00 25.35 LIG 0.16  HD
ATOM     34 O    THR Q   6      10.448  13.492  23.672  1.00 25.66 LIG-0.27  OA
BRANCH 32 35
ATOM     35  CA  ALA Q   7       7.774  14.362  23.817  1.00 27.02 LIG 0.16  C 
ATOM     36  CB  ALA Q   7       7.737  13.357  24.965  1.00 27.03 LIG 0.04  C 
BRANCH 35 37
ATOM     37  C   ALA Q   7       8.426  15.672  24.275  1.00 28.43 LIG 0.22  C 
ATOM     38 O    ALA Q   7       8.715  15.858  25.467  1.00 30.23 LIG-0.29  OA
ENDBRANCH 35 37
ENDBRANCH 32 35
ENDBRANCH 26 31
ENDBRANCH 24 26
ENDBRANCH 14 22
ENDBRANCH 11 14
ENDBRANCH 1 10
BRANCH 1 39
ATOM     39  N   LYS Q   4      14.371  11.909  16.383  1.00 13.85 LIG-0.35  N 
ATOM     40 H    LYS Q   4      13.825  11.391  15.966  1.00 13.85 LIG 0.16  HD
ATOM     41  C   THR Q   3      15.684  11.692  16.473  1.00 13.84 LIG 0.24  C 
ATOM     42 O    THR Q   3      16.467  12.471  17.031  1.00 14.15 LIG-0.27  OA
BRANCH 41 43
ATOM     43  CA  THR Q   3      16.187  10.394  15.879  1.00 13.21 LIG 0.20  C 
BRANCH 43 44
ATOM     44  CB  THR Q   3      15.954   9.267  16.916  1.00 13.38 LIG 0.15  C 
ATOM     45  CG2 THR Q   3      17.247   8.645  17.387  1.00 13.96 LIG 0.04  C 
BRANCH 44 46
ATOM     46 OG1  THR Q   3      15.188   9.752  18.029  1.00 13.85 LIG-0.39  OA
ATOM     47 HG1  THR Q   3      14.872   9.102  18.456  1.00 13.85 LIG 0.21  HD
ENDBRANCH 44 46
ENDBRANCH 43 44
BRANCH 43 48
ATOM     48  N   THR Q   3      17.585  10.526  15.458  1.00 13.00 LIG-0.34  N 
ATOM     49  C   ARG Q   2      18.034   9.985  14.329  1.00 13.30 LIG 0.24  C 
ATOM     50 O    ARG Q   2      17.372   9.223  13.637  1.00 13.04 LIG-0.27  OA
ATOM     51 H    THR Q   3      18.076  10.978  16.001  1.00 13.00 LIG 0.16  HD
BRANCH 49 52
ATOM     52  CA  ARG Q   2      19.450  10.339  13.936  1.00 13.85 LIG 0.18  C 
BRANCH 52 53
ATOM     53  N   ARG Q   2      19.968   9.319  13.037  1.00 14.89 LIG-0.35  N 
ATOM     54 H    ARG Q   2      20.102   9.601  12.235  1.00 14.89 LIG 0.16  HD
ATOM     55  C   ALA Q   1      20.212   8.073  13.416  1.00 17.12 LIG 0.25  C 
ATOM     56 O    ALA Q   1      20.026   7.661  14.566  1.00 19.52 LIG-0.27  OA
BRANCH 55 57
ATOM     57  CA  ALA Q   1      20.770   7.160  12.333  1.00 17.93 LIG 0.27  C 
ATOM     58  CB  ALA Q   1      20.484   5.686  12.653  1.00 18.07 LIG 0.05  C 
BRANCH 57 59
ATOM     59  N   ALA Q   1      22.233   7.392  12.136  1.00 19.51 LIG-0.07  N 
ATOM     60 H1   ALA Q   1      22.690   6.966  12.770  1.00 19.51 LIG 0.28  HD
ATOM     61 H3   ALA Q   1      22.404   8.265  12.184  1.00 19.51 LIG 0.28  HD
ATOM     62 H2   ALA Q   1      22.478   7.085  11.337  1.00 19.51 LIG 0.28  HD
ENDBRANCH 57 59
ENDBRANCH 55 57
ENDBRANCH 52 53
BRANCH 52 63
ATOM     63  CB  ARG Q   2      19.457  11.711  13.254  1.00 13.50 LIG 0.04  C 
BRANCH 63 64
ATOM     64  CG  ARG Q   2      19.718  12.892  14.205  1.00 14.15 LIG 0.02  C 
BRANCH 64 65
ATOM     65  CD  ARG Q   2      20.436  14.019  13.479  1.00 12.93 LIG 0.14  C 
BRANCH 65 66
ATOM     66  NE  ARG Q   2      20.174  13.953  12.043  1.00 12.58 LIG-0.23  N 
ATOM     67 HE   ARG Q   2      19.403  14.221  11.771  1.00 12.58 LIG 0.18  HD
ATOM     68  CZ  ARG Q   2      21.031  13.512  11.113  1.00 11.80 LIG 0.67  C 
ATOM     69  NH2 ARG Q   2      20.678  13.544   9.839  1.00 12.39 LIG-0.23  N 
ATOM     70  NH1 ARG Q   2      22.223  13.030  11.439  1.00 13.65 LIG-0.23  N 
ATOM     71 2HH2 ARG Q   2      21.222  13.263   9.235  1.00 12.39 LIG 0.17  HD
ATOM     72 1HH2 ARG Q   2      19.904  13.846   9.614  1.00 12.39 LIG 0.17  HD
ATOM     73 2HH1 ARG Q   2      22.757  12.752  10.824  1.00 13.65 LIG 0.17  HD
ATOM     74 1HH1 ARG Q   2      22.462  12.996  12.265  1.00 13.65 LIG 0.17  HD
ENDBRANCH 65 66
ENDBRANCH 64 65
ENDBRANCH 63 64
ENDBRANCH 52 63
ENDBRANCH 49 52
ENDBRANCH 43 48
ENDBRANCH 41 43
ENDBRANCH 1 39
TORSDOF 30
ENDMDL
MODEL 10
USER: ADFR SOLUTION from run 13
USER: SCORE 22.105471 LL:  -4.341 LR: -19.881 RR:   0.000 FEB: -10.932
USER: RMSD 9.445562
USER: SEED 909577
USER: STATUS no improvement in best in 2 clusters for 5 generations
USER: GENES 32
USER: genes 0 Translation |==|  0.52164 0.43020 0.45501
USER: genes 1 Rotation |==|  0.59907 0.71201 0.05816 0.50377
USER: genes 2 Torsion [C]-CA--CB-[CG] |==|  0.44878
USER: genes 3 Torsion [CA]-CB--CG-[CD] |==|  0.72829
USER: genes 4 Torsion [CB]-CG--CD-[CE] |==|  0.66066
USER: genes 5 Torsion [CG]-CD--CE-[NZ] |==|  0.62448
USER: genes 6 Torsion [CD]-CE--NZ-[HZ1] |==|  0.33350
USER: genes 7 Torsion [N]-CA--C-[N] |==|  0.37001
USER: genes 8 Torsion [C]-N--CA-[CB] |==|  0.52908
USER: genes 9 Torsion [N]-CA--CB-[CG] |==|  0.64378
USER: genes 10 Torsion [CA]-CB--CG-[CD] |==|  0.19075
USER: genes 11 Torsion [CB]-CG--CD-[OE1] |==|  0.66113
USER: genes 12 Torsion [N]-CA--C-[N] |==|  0.41388
USER: genes 13 Torsion [C]-N--CA-[CB] |==|  0.82448
USER: genes 14 Torsion [N]-CA--CB-[CG2] |==|  0.57477
USER: genes 15 Torsion [CA]-CB--OG1-[HG1] |==|  0.94371
USER: genes 16 Torsion [N]-CA--C-[N] |==|  0.03974
USER: genes 17 Torsion [C]-N--CA-[C] |==|  0.58115
USER: genes 18 Torsion [N]-CA--C-[O] |==|  0.91782
USER: genes 19 Torsion [CB]-CA--N-[C] |==|  0.84180
USER: genes 20 Torsion [N]-C--CA-[N] |==|  0.26611
USER: genes 21 Torsion [C]-CA--CB-[CG2] |==|  0.76513
USER: genes 22 Torsion [CA]-CB--OG1-[HG1] |==|  0.78393
USER: genes 23 Torsion [C]-CA--N-[C] |==|  0.59444
USER: genes 24 Torsion [N]-C--CA-[N] |==|  0.31322
USER: genes 25 Torsion [C]-CA--N-[C] |==|  0.82674
USER: genes 26 Torsion [N]-C--CA-[N] |==|  0.77796
USER: genes 27 Torsion [C]-CA--N-[H1] |==|  0.49879
USER: genes 28 Torsion [C]-CA--CB-[CG] |==|  0.54649
USER: genes 29 Torsion [CA]-CB--CG-[CD] |==|  0.33885
USER: genes 30 Torsion [CB]-CG--CD-[NE] |==|  0.62951
USER: genes 31 Torsion [CG]-CD--NE-[HE] |==|  0.79707
ROOT
ATOM      1  CA  LYS Q   4      16.110   9.794  15.316  1.00 15.20 LIG 0.18  C 
ENDROOT
BRANCH 1 2
ATOM      2  CB  LYS Q   4      17.623   9.734  15.514  1.00 14.69 LIG 0.04  C 
BRANCH 2 3
ATOM      3  CG  LYS Q   4      18.391  10.449  14.440  1.00 16.14 LIG 0.00  C 
BRANCH 3 4
ATOM      4  CD  LYS Q   4      18.883   9.489  13.395  1.00 18.10 LIG 0.03  C 
BRANCH 4 5
ATOM      5  CE  LYS Q   4      20.389   9.588  13.295  1.00 22.11 LIG 0.23  C 
BRANCH 5 6
ATOM      6  NZ  LYS Q   4      20.830   9.630  11.875  1.00 25.79 LIG-0.08  N 
ATOM      7 HZ1  LYS Q   4      21.272  10.387  11.723  1.00 25.79 LIG 0.27  HD
ATOM      8 HZ2  LYS Q   4      21.365   8.938  11.709  1.00 25.79 LIG 0.27  HD
ATOM      9 HZ3  LYS Q   4      20.119   9.590  11.342  1.00 25.79 LIG 0.27  HD
ENDBRANCH 5 6
ENDBRANCH 4 5
ENDBRANCH 3 4
ENDBRANCH 2 3
ENDBRANCH 1 2
BRANCH 1 10
ATOM     10  C   LYS Q   4      15.452   8.693  16.151  1.00 15.70 LIG 0.24  C 
ATOM     11  N   GLN Q   5      15.022   7.610  15.501  1.00 16.90 LIG-0.35  N 
ATOM     12 H    GLN Q   5      15.190   7.442  14.674  1.00 16.90 LIG 0.16  HD
ATOM     13 O    LYS Q   4      15.324   8.831  17.374  1.00 16.41 LIG-0.27  OA
BRANCH 11 14
ATOM     14  CA  GLN Q   5      14.204   6.597  16.178  1.00 18.58 LIG 0.18  C 
BRANCH 14 15
ATOM     15  CB  GLN Q   5      14.052   5.339  15.317  1.00 18.36 LIG 0.04  C 
BRANCH 15 16
ATOM     16  CG  GLN Q   5      12.614   4.868  15.112  1.00 19.34 LIG 0.10  C 
BRANCH 16 17
ATOM     17  CD  GLN Q   5      11.772   5.789  14.256  1.00 21.85 LIG 0.21  C 
ATOM     18  NE2 GLN Q   5      12.214   6.017  13.018  1.00 24.33 LIG-0.37  N 
ATOM     19 21HE GLN Q   5      12.946   5.656  12.750  1.00 24.33 LIG 0.16  HD
ATOM     20 22HE GLN Q   5      11.767   6.526  12.489  1.00 24.33 LIG 0.16  HD
ATOM     21 OE1  GLN Q   5      10.733   6.279  14.689  1.00 24.78 LIG-0.27  OA
ENDBRANCH 16 17
ENDBRANCH 15 16
ENDBRANCH 14 15
BRANCH 14 22
ATOM     22  C   GLN Q   5      14.756   6.233  17.548  1.00 20.15 LIG 0.24  C 
ATOM     23 O    GLN Q   5      15.973   6.285  17.756  1.00 22.37 LIG-0.27  OA
ATOM     24  N   THR Q   6      13.895   5.870  18.490  1.00 20.72 LIG-0.34  N 
ATOM     25 H    THR Q   6      13.039   5.916  18.417  1.00 20.72 LIG 0.16  HD
BRANCH 24 26
ATOM     26  CA  THR Q   6      14.387   5.346  19.768  1.00 22.01 LIG 0.20  C 
BRANCH 26 27
ATOM     27  CB  THR Q   6      15.169   4.028  19.613  1.00 21.09 LIG 0.15  C 
ATOM     28  CG2 THR Q   6      15.092   3.188  20.888  1.00 22.53 LIG 0.04  C 
BRANCH 27 29
ATOM     29 OG1  THR Q   6      14.636   3.281  18.514  1.00 19.47 LIG-0.39  OA
ATOM     30 HG1  THR Q   6      13.858   3.547  18.345  1.00 19.47 LIG 0.21  HD
ENDBRANCH 27 29
ENDBRANCH 26 27
BRANCH 26 31
ATOM     31  C   THR Q   6      15.236   6.370  20.516  1.00 23.85 LIG 0.24  C 
ATOM     32  N   ALA Q   7      15.173   7.632  20.090  1.00 25.35 LIG-0.35  N 
ATOM     33 H    ALA Q   7      14.703   7.880  19.413  1.00 25.35 LIG 0.16  HD
ATOM     34 O    THR Q   6      15.918   6.017  21.485  1.00 25.66 LIG-0.27  OA
BRANCH 32 35
ATOM     35  CA  ALA Q   7      15.904   8.732  20.738  1.00 27.02 LIG 0.16  C 
ATOM     36  CB  ALA Q   7      17.324   8.823  20.185  1.00 27.03 LIG 0.04  C 
BRANCH 35 37
ATOM     37  C   ALA Q   7      15.185  10.078  20.588  1.00 28.43 LIG 0.22  C 
ATOM     38 O    ALA Q   7      14.472  10.314  19.600  1.00 30.23 LIG-0.29  OA
ENDBRANCH 35 37
ENDBRANCH 32 35
ENDBRANCH 26 31
ENDBRANCH 24 26
ENDBRANCH 14 22
ENDBRANCH 11 14
ENDBRANCH 1 10
BRANCH 1 39
ATOM     39  N   LYS Q   4      15.606  11.126  15.644  1.00 13.85 LIG-0.35  N 
ATOM     40 H    LYS Q   4      15.175  11.511  15.007  1.00 13.85 LIG 0.16  HD
ATOM     41  C   THR Q   3      15.814  11.673  16.842  1.00 13.84 LIG 0.24  C 
ATOM     42 O    THR Q   3      16.391  11.089  17.768  1.00 14.15 LIG-0.27  OA
BRANCH 41 43
ATOM     43  CA  THR Q   3      15.332  13.098  17.017  1.00 13.21 LIG 0.20  C 
BRANCH 43 44
ATOM     44  CB  THR Q   3      16.401  13.873  17.826  1.00 13.38 LIG 0.15  C 
ATOM     45  CG2 THR Q   3      16.235  13.690  19.316  1.00 13.96 LIG 0.04  C 
BRANCH 44 46
ATOM     46 OG1  THR Q   3      17.722  13.496  17.411  1.00 13.85 LIG-0.39  OA
ATOM     47 HG1  THR Q   3      17.921  12.754  17.750  1.00 13.85 LIG 0.21  HD
ENDBRANCH 44 46
ENDBRANCH 43 44
BRANCH 43 48
ATOM     48  N   THR Q   3      13.999  13.121  17.628  1.00 13.00 LIG-0.34  N 
ATOM     49  C   ARG Q   2      13.098  14.048  17.317  1.00 13.30 LIG 0.24  C 
ATOM     50 O    ARG Q   2      13.349  15.025  16.623  1.00 13.04 LIG-0.27  OA
ATOM     51 H    THR Q   3      13.860  12.490  18.195  1.00 13.00 LIG 0.16  HD
BRANCH 49 52
ATOM     52  CA  ARG Q   2      11.715  13.856  17.894  1.00 13.85 LIG 0.18  C 
BRANCH 52 53
ATOM     53  N   ARG Q   2      11.447  14.909  18.861  1.00 14.89 LIG-0.35  N 
ATOM     54 H    ARG Q   2      10.786  15.416  18.646  1.00 14.89 LIG 0.16  HD
ATOM     55  C   ALA Q   1      12.154  15.073  19.969  1.00 17.12 LIG 0.25  C 
ATOM     56 O    ALA Q   1      13.103  14.348  20.287  1.00 19.52 LIG-0.27  OA
BRANCH 55 57
ATOM     57  CA  ALA Q   1      11.705  16.221  20.865  1.00 17.93 LIG 0.27  C 
ATOM     58  CB  ALA Q   1      10.177  16.243  21.008  1.00 18.07 LIG 0.05  C 
BRANCH 57 59
ATOM     59  N   ALA Q   1      12.216  17.530  20.356  1.00 19.51 LIG-0.07  N 
ATOM     60 H1   ALA Q   1      11.937  18.185  20.889  1.00 19.51 LIG 0.28  HD
ATOM     61 H3   ALA Q   1      11.910  17.668  19.532  1.00 19.51 LIG 0.28  HD
ATOM     62 H2   ALA Q   1      13.106  17.517  20.343  1.00 19.51 LIG 0.28  HD
ENDBRANCH 57 59
ENDBRANCH 55 57
ENDBRANCH 52 53
BRANCH 52 63
ATOM     63  CB  ARG Q   2      10.685  13.893  16.759  1.00 13.50 LIG 0.04  C 
BRANCH 63 64
ATOM     64  CG  ARG Q   2       9.235  14.116  17.224  1.00 14.15 LIG 0.02  C 
BRANCH 64 65
ATOM     65  CD  ARG Q   2       8.645  15.357  16.573  1.00 12.93 LIG 0.14  C 
BRANCH 65 66
ATOM     66  NE  ARG Q   2       7.966  16.185  17.567  1.00 12.58 LIG-0.23  N 
ATOM     67 HE   ARG Q   2       7.213  15.899  17.868  1.00 12.58 LIG 0.18  HD
ATOM     68  CZ  ARG Q   2       8.415  17.351  18.049  1.00 11.80 LIG 0.67  C 
ATOM     69  NH2 ARG Q   2       7.716  17.980  18.979  1.00 12.39 LIG-0.23  N 
ATOM     70  NH1 ARG Q   2       9.539  17.900  17.608  1.00 13.65 LIG-0.23  N 
ATOM     71 2HH2 ARG Q   2       7.997  18.729  19.295  1.00 12.39 LIG 0.17  HD
ATOM     72 1HH2 ARG Q   2       6.980  17.639  19.268  1.00 12.39 LIG 0.17  HD
ATOM     73 2HH1 ARG Q   2       9.808  18.649  17.933  1.00 13.65 LIG 0.17  HD
ATOM     74 1HH1 ARG Q   2       9.999  17.505  16.997  1.00 13.65 LIG 0.17  HD
ENDBRANCH 65 66
ENDBRANCH 64 65
ENDBRANCH 63 64
ENDBRANCH 52 63
ENDBRANCH 49 52
ENDBRANCH 43 48
ENDBRANCH 41 43
ENDBRANCH 1 39
TORSDOF 30
ENDMDL
MODEL 11
USER: ADFR SOLUTION from run 1
USER: SCORE 20.864074 LL:  -3.497 LR: -19.842 RR:   0.000 FEB: -10.893
USER: RMSD 9.826570
USER: SEED 488331
USER: STATUS searching
USER: GENES 32
USER: genes 0 Translation |==|  0.54892 0.44153 0.42797
USER: genes 1 Rotation |==|  0.55965 0.74525 0.06976 0.53455
USER: genes 2 Torsion [C]-CA--CB-[CG] |==|  0.41354
USER: genes 3 Torsion [CA]-CB--CG-[CD] |==|  0.54796
USER: genes 4 Torsion [CB]-CG--CD-[CE] |==|  0.24362
USER: genes 5 Torsion [CG]-CD--CE-[NZ] |==|  0.47469
USER: genes 6 Torsion [CD]-CE--NZ-[HZ1] |==|  0.52324
USER: genes 7 Torsion [N]-CA--C-[N] |==|  0.13997
USER: genes 8 Torsion [C]-N--CA-[CB] |==|  0.77505
USER: genes 9 Torsion [N]-CA--CB-[CG] |==|  0.65023
USER: genes 10 Torsion [CA]-CB--CG-[CD] |==|  0.18818
USER: genes 11 Torsion [CB]-CG--CD-[OE1] |==|  0.72076
USER: genes 12 Torsion [N]-CA--C-[N] |==|  0.55485
USER: genes 13 Torsion [C]-N--CA-[CB] |==|  0.18850
USER: genes 14 Torsion [N]-CA--CB-[CG2] |==|  0.72117
USER: genes 15 Torsion [CA]-CB--OG1-[HG1] |==|  0.76943
USER: genes 16 Torsion [N]-CA--C-[N] |==|  0.02494
USER: genes 17 Torsion [C]-N--CA-[C] |==|  0.83549
USER: genes 18 Torsion [N]-CA--C-[O] |==|  0.84816
USER: genes 19 Torsion [CB]-CA--N-[C] |==|  0.77865
USER: genes 20 Torsion [N]-C--CA-[N] |==|  0.24153
USER: genes 21 Torsion [C]-CA--CB-[CG2] |==|  0.20179
USER: genes 22 Torsion [CA]-CB--OG1-[HG1] |==|  0.02808
USER: genes 23 Torsion [C]-CA--N-[C] |==|  0.58122
USER: genes 24 Torsion [N]-C--CA-[N] |==|  0.18889
USER: genes 25 Torsion [C]-CA--N-[C] |==|  0.11677
USER: genes 26 Torsion [N]-C--CA-[N] |==|  0.80258
USER: genes 27 Torsion [C]-CA--N-[H1] |==|  0.36999
USER: genes 28 Torsion [C]-CA--CB-[CG] |==|  0.67163
USER: genes 29 Torsion [CA]-CB--CG-[CD] |==|  0.28929
USER: genes 30 Torsion [CB]-CG--CD-[NE] |==|  0.32874
USER: genes 31 Torsion [CG]-CD--NE-[HE] |==|  0.73626
ROOT
ATOM      1  CA  LYS Q   4      16.765  10.015  14.748  1.00 15.20 LIG 0.18  C 
ENDROOT
BRANCH 1 2
ATOM      2  CB  LYS Q   4      18.271  10.247  14.835  1.00 14.69 LIG 0.04  C 
BRANCH 2 3
ATOM      3  CG  LYS Q   4      18.833  10.959  13.640  1.00 16.14 LIG 0.00  C 
BRANCH 3 4
ATOM      4  CD  LYS Q   4      20.324  10.799  13.564  1.00 18.10 LIG 0.03  C 
BRANCH 4 5
ATOM      5  CE  LYS Q   4      20.653   9.533  12.804  1.00 22.11 LIG 0.23  C 
BRANCH 5 6
ATOM      6  NZ  LYS Q   4      22.109   9.445  12.514  1.00 25.79 LIG-0.08  N 
ATOM      7 HZ1  LYS Q   4      22.262   8.760  11.966  1.00 25.79 LIG 0.27  HD
ATOM      8 HZ2  LYS Q   4      22.382  10.199  12.128  1.00 25.79 LIG 0.27  HD
ATOM      9 HZ3  LYS Q   4      22.556   9.322  13.274  1.00 25.79 LIG 0.27  HD
ENDBRANCH 5 6
ENDBRANCH 4 5
ENDBRANCH 3 4
ENDBRANCH 2 3
ENDBRANCH 1 2
BRANCH 1 10
ATOM     10  C   LYS Q   4      16.413   8.722  15.489  1.00 15.70 LIG 0.24  C 
ATOM     11  N   GLN Q   5      15.117   8.435  15.630  1.00 16.90 LIG-0.35  N 
ATOM     12 H    GLN Q   5      14.480   8.862  15.240  1.00 16.90 LIG 0.16  HD
ATOM     13 O    LYS Q   4      17.309   7.998  15.939  1.00 16.41 LIG-0.27  OA
BRANCH 11 14
ATOM     14  CA  GLN Q   5      14.678   7.332  16.492  1.00 18.58 LIG 0.18  C 
BRANCH 14 15
ATOM     15  CB  GLN Q   5      14.802   5.983  15.774  1.00 18.36 LIG 0.04  C 
BRANCH 15 16
ATOM     16  CG  GLN Q   5      13.523   5.150  15.742  1.00 19.34 LIG 0.10  C 
BRANCH 16 17
ATOM     17  CD  GLN Q   5      12.416   5.739  14.894  1.00 21.85 LIG 0.21  C 
ATOM     18  NE2 GLN Q   5      12.509   5.541  13.578  1.00 24.33 LIG-0.37  N 
ATOM     19 21HE GLN Q   5      13.176   5.107  13.254  1.00 24.33 LIG 0.16  HD
ATOM     20 22HE GLN Q   5      11.900   5.847  13.053  1.00 24.33 LIG 0.16  HD
ATOM     21 OE1  GLN Q   5      11.485   6.351  15.408  1.00 24.78 LIG-0.27  OA
ENDBRANCH 16 17
ENDBRANCH 15 16
ENDBRANCH 14 15
BRANCH 14 22
ATOM     22  C   GLN Q   5      15.433   7.296  17.812  1.00 20.15 LIG 0.24  C 
ATOM     23 O    GLN Q   5      16.016   8.308  18.217  1.00 22.37 LIG-0.27  OA
ATOM     24  N   THR Q   6      15.435   6.161  18.498  1.00 20.72 LIG-0.34  N 
ATOM     25 H    THR Q   6      14.962   5.469  18.303  1.00 20.72 LIG 0.16  HD
BRANCH 24 26
ATOM     26  CA  THR Q   6      16.286   6.024  19.684  1.00 22.01 LIG 0.20  C 
BRANCH 26 27
ATOM     27  CB  THR Q   6      15.833   6.921  20.852  1.00 21.09 LIG 0.15  C 
ATOM     28  CG2 THR Q   6      16.690   8.184  20.941  1.00 22.53 LIG 0.04  C 
BRANCH 27 29
ATOM     29 OG1  THR Q   6      14.460   7.284  20.673  1.00 19.47 LIG-0.39  OA
ATOM     30 HG1  THR Q   6      14.409   7.942  20.153  1.00 19.47 LIG 0.21  HD
ENDBRANCH 27 29
ENDBRANCH 26 27
BRANCH 26 31
ATOM     31  C   THR Q   6      16.386   4.574  20.151  1.00 23.85 LIG 0.24  C 
ATOM     32  N   ALA Q   7      15.869   3.645  19.346  1.00 25.35 LIG-0.35  N 
ATOM     33 H    ALA Q   7      15.471   3.829  18.605  1.00 25.35 LIG 0.16  HD
ATOM     34 O    THR Q   6      16.951   4.306  21.218  1.00 25.66 LIG-0.27  OA
BRANCH 32 35
ATOM     35  CA  ALA Q   7      15.928   2.206  19.645  1.00 27.02 LIG 0.16  C 
ATOM     36  CB  ALA Q   7      15.191   1.410  18.572  1.00 27.03 LIG 0.04  C 
BRANCH 35 37
ATOM     37  C   ALA Q   7      17.368   1.700  19.790  1.00 28.43 LIG 0.22  C 
ATOM     38 O    ALA Q   7      18.201   1.881  18.889  1.00 30.23 LIG-0.29  OA
ENDBRANCH 35 37
ENDBRANCH 32 35
ENDBRANCH 26 31
ENDBRANCH 24 26
ENDBRANCH 14 22
ENDBRANCH 11 14
ENDBRANCH 1 10
BRANCH 1 39
ATOM     39  N   LYS Q   4      16.040  11.174  15.265  1.00 13.85 LIG-0.35  N 
ATOM     40 H    LYS Q   4      15.735  11.703  14.659  1.00 13.85 LIG 0.16  HD
ATOM     41  C   THR Q   3      15.882  11.369  16.575  1.00 13.84 LIG 0.24  C 
ATOM     42 O    THR Q   3      16.283  10.575  17.435  1.00 14.15 LIG-0.27  OA
BRANCH 41 43
ATOM     43  CA  THR Q   3      15.205  12.661  16.979  1.00 13.21 LIG 0.20  C 
BRANCH 43 44
ATOM     44  CB  THR Q   3      15.794  13.108  18.341  1.00 13.38 LIG 0.15  C 
ATOM     45  CG2 THR Q   3      17.204  13.632  18.210  1.00 13.96 LIG 0.04  C 
BRANCH 44 46
ATOM     46 OG1  THR Q   3      14.945  14.082  18.965  1.00 13.85 LIG-0.39  OA
ATOM     47 HG1  THR Q   3      14.218  14.130  18.546  1.00 13.85 LIG 0.21  HD
ENDBRANCH 44 46
ENDBRANCH 43 44
BRANCH 43 48
ATOM     48  N   THR Q   3      13.748  12.499  16.992  1.00 13.00 LIG-0.34  N 
ATOM     49  C   ARG Q   2      12.925  13.514  16.747  1.00 13.30 LIG 0.24  C 
ATOM     50 O    ARG Q   2      13.299  14.674  16.641  1.00 13.04 LIG-0.27  OA
ATOM     51 H    THR Q   3      13.484  11.700  17.169  1.00 13.00 LIG 0.16  HD
BRANCH 49 52
ATOM     52  CA  ARG Q   2      11.458  13.171  16.629  1.00 13.85 LIG 0.18  C 
BRANCH 52 53
ATOM     53  N   ARG Q   2      10.955  12.751  17.928  1.00 14.89 LIG-0.35  N 
ATOM     54 H    ARG Q   2      10.431  12.070  17.892  1.00 14.89 LIG 0.16  HD
ATOM     55  C   ALA Q   1      11.275  13.360  19.060  1.00 17.12 LIG 0.25  C 
ATOM     56 O    ALA Q   1      12.031  14.336  19.121  1.00 19.52 LIG-0.27  OA
BRANCH 55 57
ATOM     57  CA  ALA Q   1      10.661  12.758  20.318  1.00 17.93 LIG 0.27  C 
ATOM     58  CB  ALA Q   1      10.953  11.254  20.409  1.00 18.07 LIG 0.05  C 
BRANCH 57 59
ATOM     59  N   ALA Q   1       9.192  13.025  20.380  1.00 19.51 LIG-0.07  N 
ATOM     60 H1   ALA Q   1       8.763  12.274  20.590  1.00 19.51 LIG 0.28  HD
ATOM     61 H3   ALA Q   1       8.910  13.316  19.587  1.00 19.51 LIG 0.28  HD
ATOM     62 H2   ALA Q   1       9.028  13.643  20.999  1.00 19.51 LIG 0.28  HD
ENDBRANCH 57 59
ENDBRANCH 55 57
ENDBRANCH 52 53
BRANCH 52 63
ATOM     63  CB  ARG Q   2      10.691  14.400  16.127  1.00 13.50 LIG 0.04  C 
BRANCH 63 64
ATOM     64  CG  ARG Q   2       9.628  14.929  17.106  1.00 14.15 LIG 0.02  C 
BRANCH 64 65
ATOM     65  CD  ARG Q   2      10.117  16.190  17.801  1.00 12.93 LIG 0.14  C 
BRANCH 65 66
ATOM     66  NE  ARG Q   2       9.247  17.320  17.485  1.00 12.58 LIG-0.23  N 
ATOM     67 HE   ARG Q   2       9.484  17.829  16.833  1.00 12.58 LIG 0.18  HD
ATOM     68  CZ  ARG Q   2       8.111  17.633  18.123  1.00 11.80 LIG 0.67  C 
ATOM     69  NH2 ARG Q   2       7.397  18.664  17.706  1.00 12.39 LIG-0.23  N 
ATOM     70  NH1 ARG Q   2       7.691  16.941  19.173  1.00 13.65 LIG-0.23  N 
ATOM     71 2HH2 ARG Q   2       6.666  18.872  18.110  1.00 12.39 LIG 0.17  HD
ATOM     72 1HH2 ARG Q   2       7.663  19.127  17.031  1.00 12.39 LIG 0.17  HD
ATOM     73 2HH1 ARG Q   2       6.959  17.160  19.567  1.00 13.65 LIG 0.17  HD
ATOM     74 1HH1 ARG Q   2       8.151  16.273  19.460  1.00 13.65 LIG 0.17  HD
ENDBRANCH 65 66
ENDBRANCH 64 65
ENDBRANCH 63 64
ENDBRANCH 52 63
ENDBRANCH 49 52
ENDBRANCH 43 48
ENDBRANCH 41 43
ENDBRANCH 1 39
TORSDOF 30
ENDMDL
MODEL 12
USER: ADFR SOLUTION from run 127
USER: SCORE 21.140536 LL:  -3.801 LR: -19.790 RR:   0.000 FEB: -10.841
USER: RMSD 9.813358
USER: SEED 126
USER: STATUS no improvement in best in 5 clusters for 5 generations
USER: GENES 32
USER: genes 0 Translation |==|  0.54889 0.44076 0.42895
USER: genes 1 Rotation |==|  0.50350 0.25720 0.93384 0.55306
USER: genes 2 Torsion [C]-CA--CB-[CG] |==|  0.58897
USER: genes 3 Torsion [CA]-CB--CG-[CD] |==|  0.50803
USER: genes 4 Torsion [CB]-CG--CD-[CE] |==|  0.01380
USER: genes 5 Torsion [CG]-CD--CE-[NZ] |==|  0.33609
USER: genes 6 Torsion [CD]-CE--NZ-[HZ1] |==|  0.76867
USER: genes 7 Torsion [N]-CA--C-[N] |==|  0.25744
USER: genes 8 Torsion [C]-N--CA-[CB] |==|  0.74117
USER: genes 9 Torsion [N]-CA--CB-[CG] |==|  0.69366
USER: genes 10 Torsion [CA]-CB--CG-[CD] |==|  0.11127
USER: genes 11 Torsion [CB]-CG--CD-[OE1] |==|  0.81773
USER: genes 12 Torsion [N]-CA--C-[N] |==|  0.18340
USER: genes 13 Torsion [C]-N--CA-[CB] |==|  0.52343
USER: genes 14 Torsion [N]-CA--CB-[CG2] |==|  0.62444
USER: genes 15 Torsion [CA]-CB--OG1-[HG1] |==|  0.11966
USER: genes 16 Torsion [N]-CA--C-[N] |==|  0.88812
USER: genes 17 Torsion [C]-N--CA-[C] |==|  0.69373
USER: genes 18 Torsion [N]-CA--C-[O] |==|  0.43702
USER: genes 19 Torsion [CB]-CA--N-[C] |==|  0.57507
USER: genes 20 Torsion [N]-C--CA-[N] |==|  0.43392
USER: genes 21 Torsion [C]-CA--CB-[CG2] |==|  0.96493
USER: genes 22 Torsion [CA]-CB--OG1-[HG1] |==|  0.21969
USER: genes 23 Torsion [C]-CA--N-[C] |==|  0.64437
USER: genes 24 Torsion [N]-C--CA-[N] |==|  0.34246
USER: genes 25 Torsion [C]-CA--N-[C] |==|  0.56668
USER: genes 26 Torsion [N]-C--CA-[N] |==|  0.11635
USER: genes 27 Torsion [C]-CA--N-[H1] |==|  0.45257
USER: genes 28 Torsion [C]-CA--CB-[CG] |==|  0.72148
USER: genes 29 Torsion [CA]-CB--CG-[CD] |==|  0.70635
USER: genes 30 Torsion [CB]-CG--CD-[NE] |==|  0.48190
USER: genes 31 Torsion [CG]-CD--NE-[HE] |==|  0.12052
ROOT
ATOM      1  CA  LYS Q   4      16.764  10.000  14.769  1.00 15.20 LIG 0.18  C 
ENDROOT
BRANCH 1 2
ATOM      2  CB  LYS Q   4      18.206   9.962  14.268  1.00 14.69 LIG 0.04  C 
BRANCH 2 3
ATOM      3  CG  LYS Q   4      18.816  11.325  14.113  1.00 16.14 LIG 0.00  C 
BRANCH 3 4
ATOM      4  CD  LYS Q   4      20.207  11.235  13.553  1.00 18.10 LIG 0.03  C 
BRANCH 4 5
ATOM      5  CE  LYS Q   4      20.514   9.796  13.204  1.00 22.11 LIG 0.23  C 
BRANCH 5 6
ATOM      6  NZ  LYS Q   4      20.843   9.653  11.761  1.00 25.79 LIG-0.08  N 
ATOM      7 HZ1  LYS Q   4      20.091   9.591  11.289  1.00 25.79 LIG 0.27  HD
ATOM      8 HZ2  LYS Q   4      21.305  10.364  11.489  1.00 25.79 LIG 0.27  HD
ATOM      9 HZ3  LYS Q   4      21.331   8.919  11.638  1.00 25.79 LIG 0.27  HD
ENDBRANCH 5 6
ENDBRANCH 4 5
ENDBRANCH 3 4
ENDBRANCH 2 3
ENDBRANCH 1 2
BRANCH 1 10
ATOM     10  C   LYS Q   4      16.497   8.757  15.622  1.00 15.70 LIG 0.24  C 
ATOM     11  N   GLN Q   5      15.279   8.216  15.545  1.00 16.90 LIG-0.35  N 
ATOM     12 H    GLN Q   5      14.681   8.448  14.972  1.00 16.90 LIG 0.16  HD
ATOM     13 O    LYS Q   4      17.385   8.301  16.353  1.00 16.41 LIG-0.27  OA
BRANCH 11 14
ATOM     14  CA  GLN Q   5      14.867   7.152  16.468  1.00 18.58 LIG 0.18  C 
BRANCH 14 15
ATOM     15  CB  GLN Q   5      15.133   5.766  15.871  1.00 18.36 LIG 0.04  C 
BRANCH 15 16
ATOM     16  CG  GLN Q   5      13.882   4.979  15.486  1.00 19.34 LIG 0.10  C 
BRANCH 16 17
ATOM     17  CD  GLN Q   5      12.793   5.812  14.846  1.00 21.85 LIG 0.21  C 
ATOM     18  NE2 GLN Q   5      12.500   5.529  13.575  1.00 24.33 LIG-0.37  N 
ATOM     19 21HE GLN Q   5      12.928   4.909  13.163  1.00 24.33 LIG 0.16  HD
ATOM     20 22HE GLN Q   5      11.882   5.968  13.169  1.00 24.33 LIG 0.16  HD
ATOM     21 OE1  GLN Q   5      12.213   6.687  15.480  1.00 24.78 LIG-0.27  OA
ENDBRANCH 16 17
ENDBRANCH 15 16
ENDBRANCH 14 15
BRANCH 14 22
ATOM     22  C   GLN Q   5      15.536   7.276  17.828  1.00 20.15 LIG 0.24  C 
ATOM     23 O    GLN Q   5      16.340   6.415  18.200  1.00 22.37 LIG-0.27  OA
ATOM     24  N   THR Q   6      15.232   8.327  18.578  1.00 20.72 LIG-0.34  N 
ATOM     25 H    THR Q   6      14.757   8.995  18.317  1.00 20.72 LIG 0.16  HD
BRANCH 24 26
ATOM     26  CA  THR Q   6      15.715   8.404  19.960  1.00 22.01 LIG 0.20  C 
BRANCH 26 27
ATOM     27  CB  THR Q   6      15.101   9.580  20.744  1.00 21.09 LIG 0.15  C 
ATOM     28  CG2 THR Q   6      16.168  10.326  21.545  1.00 22.53 LIG 0.04  C 
BRANCH 27 29
ATOM     29 OG1  THR Q   6      14.466  10.484  19.833  1.00 19.47 LIG-0.39  OA
ATOM     30 HG1  THR Q   6      14.032  10.047  19.261  1.00 19.47 LIG 0.21  HD
ENDBRANCH 27 29
ENDBRANCH 26 27
BRANCH 26 31
ATOM     31  C   THR Q   6      15.488   7.099  20.718  1.00 23.85 LIG 0.24  C 
ATOM     32  N   ALA Q   7      14.331   6.471  20.504  1.00 25.35 LIG-0.35  N 
ATOM     33 H    ALA Q   7      13.716   6.778  19.987  1.00 25.35 LIG 0.16  HD
ATOM     34 O    THR Q   6      16.369   6.658  21.467  1.00 25.66 LIG-0.27  OA
BRANCH 32 35
ATOM     35  CA  ALA Q   7      13.992   5.185  21.132  1.00 27.02 LIG 0.16  C 
ATOM     36  CB  ALA Q   7      12.654   5.287  21.859  1.00 27.03 LIG 0.04  C 
BRANCH 35 37
ATOM     37  C   ALA Q   7      13.965   4.032  20.122  1.00 28.43 LIG 0.22  C 
ATOM     38 O    ALA Q   7      14.115   2.857  20.492  1.00 30.23 LIG-0.29  OA
ENDBRANCH 35 37
ENDBRANCH 32 35
ENDBRANCH 26 31
ENDBRANCH 24 26
ENDBRANCH 14 22
ENDBRANCH 11 14
ENDBRANCH 1 10
BRANCH 1 39
ATOM     39  N   LYS Q   4      16.509  11.244  15.492  1.00 13.85 LIG-0.35  N 
ATOM     40 H    LYS Q   4      17.001  11.905  15.250  1.00 13.85 LIG 0.16  HD
ATOM     41  C   THR Q   3      15.579  11.316  16.446  1.00 13.84 LIG 0.24  C 
ATOM     42 O    THR Q   3      14.841  10.371  16.751  1.00 14.15 LIG-0.27  OA
BRANCH 41 43
ATOM     43  CA  THR Q   3      15.487  12.631  17.189  1.00 13.21 LIG 0.20  C 
BRANCH 43 44
ATOM     44  CB  THR Q   3      16.630  12.675  18.234  1.00 13.38 LIG 0.15  C 
ATOM     45  CG2 THR Q   3      17.284  11.327  18.424  1.00 13.96 LIG 0.04  C 
BRANCH 44 46
ATOM     46 OG1  THR Q   3      17.604  13.668  17.879  1.00 13.85 LIG-0.39  OA
ATOM     47 HG1  THR Q   3      17.320  14.428  18.096  1.00 13.85 LIG 0.21  HD
ENDBRANCH 44 46
ENDBRANCH 43 44
BRANCH 43 48
ATOM     48  N   THR Q   3      14.152  12.805  17.769  1.00 13.00 LIG-0.34  N 
ATOM     49  C   ARG Q   2      13.433  13.905  17.564  1.00 13.30 LIG 0.24  C 
ATOM     50 O    ARG Q   2      13.874  14.904  17.011  1.00 13.04 LIG-0.27  OA
ATOM     51 H    THR Q   3      13.885  12.141  18.245  1.00 13.00 LIG 0.16  HD
BRANCH 49 52
ATOM     52  CA  ARG Q   2      12.014  13.882  18.080  1.00 13.85 LIG 0.18  C 
BRANCH 52 53
ATOM     53  N   ARG Q   2      11.815  14.997  18.993  1.00 14.89 LIG-0.35  N 
ATOM     54 H    ARG Q   2      12.358  15.651  18.862  1.00 14.89 LIG 0.16  HD
ATOM     55  C   ALA Q   1      10.886  15.005  19.937  1.00 17.12 LIG 0.25  C 
ATOM     56 O    ALA Q   1      10.100  14.070  20.129  1.00 19.52 LIG-0.27  OA
BRANCH 55 57
ATOM     57  CA  ALA Q   1      10.823  16.273  20.780  1.00 17.93 LIG 0.27  C 
ATOM     58  CB  ALA Q   1       9.523  16.330  21.593  1.00 18.07 LIG 0.05  C 
BRANCH 57 59
ATOM     59  N   ALA Q   1      10.979  17.491  19.929  1.00 19.51 LIG-0.07  N 
ATOM     60 H1   ALA Q   1      10.699  18.205  20.379  1.00 19.51 LIG 0.28  HD
ATOM     61 H3   ALA Q   1      10.495  17.399  19.187  1.00 19.51 LIG 0.28  HD
ATOM     62 H2   ALA Q   1      11.836  17.594  19.712  1.00 19.51 LIG 0.28  HD
ENDBRANCH 57 59
ENDBRANCH 55 57
ENDBRANCH 52 53
BRANCH 52 63
ATOM     63  CB  ARG Q   2      11.044  13.976  16.897  1.00 13.50 LIG 0.04  C 
BRANCH 63 64
ATOM     64  CG  ARG Q   2      10.462  15.382  16.663  1.00 14.15 LIG 0.02  C 
BRANCH 64 65
ATOM     65  CD  ARG Q   2       9.011  15.445  17.114  1.00 12.93 LIG 0.14  C 
BRANCH 65 66
ATOM     66  NE  ARG Q   2       8.509  16.815  17.035  1.00 12.58 LIG-0.23  N 
ATOM     67 HE   ARG Q   2       8.711  17.268  16.332  1.00 12.58 LIG 0.18  HD
ATOM     68  CZ  ARG Q   2       7.760  17.427  17.962  1.00 11.80 LIG 0.67  C 
ATOM     69  NH2 ARG Q   2       7.339  18.661  17.743  1.00 12.39 LIG-0.23  N 
ATOM     70  NH1 ARG Q   2       7.441  16.830  19.102  1.00 13.65 LIG-0.23  N 
ATOM     71 2HH2 ARG Q   2       6.857  19.061  18.333  1.00 12.39 LIG 0.17  HD
ATOM     72 1HH2 ARG Q   2       7.546  19.063  17.011  1.00 12.39 LIG 0.17  HD
ATOM     73 2HH1 ARG Q   2       6.960  17.242  19.683  1.00 13.65 LIG 0.17  HD
ATOM     74 1HH1 ARG Q   2       7.717  16.030  19.260  1.00 13.65 LIG 0.17  HD
ENDBRANCH 65 66
ENDBRANCH 64 65
ENDBRANCH 63 64
ENDBRANCH 52 63
ENDBRANCH 49 52
ENDBRANCH 43 48
ENDBRANCH 41 43
ENDBRANCH 1 39
TORSDOF 30
ENDMDL
MODEL 13
USER: ADFR SOLUTION from run 6
USER: SCORE 21.056542 LL:  -3.847 LR: -19.691 RR:   0.000 FEB: -10.742
USER: RMSD 9.882461
USER: SEED 312954
USER: STATUS searching
USER: GENES 32
USER: genes 0 Translation |==|  0.55811 0.37745 0.48369
USER: genes 1 Rotation |==|  0.97365 0.57821 0.63965 0.50576
USER: genes 2 Torsion [C]-CA--CB-[CG] |==|  0.45754
USER: genes 3 Torsion [CA]-CB--CG-[CD] |==|  0.87083
USER: genes 4 Torsion [CB]-CG--CD-[CE] |==|  0.29481
USER: genes 5 Torsion [CG]-CD--CE-[NZ] |==|  0.24101
USER: genes 6 Torsion [CD]-CE--NZ-[HZ1] |==|  0.32020
USER: genes 7 Torsion [N]-CA--C-[N] |==|  0.27588
USER: genes 8 Torsion [C]-N--CA-[CB] |==|  0.82182
USER: genes 9 Torsion [N]-CA--CB-[CG] |==|  0.70489
USER: genes 10 Torsion [CA]-CB--CG-[CD] |==|  0.24007
USER: genes 11 Torsion [CB]-CG--CD-[OE1] |==|  0.15392
USER: genes 12 Torsion [N]-CA--C-[N] |==|  0.28576
USER: genes 13 Torsion [C]-N--CA-[CB] |==|  0.86033
USER: genes 14 Torsion [N]-CA--CB-[CG2] |==|  0.36129
USER: genes 15 Torsion [CA]-CB--OG1-[HG1] |==|  0.29155
USER: genes 16 Torsion [N]-CA--C-[N] |==|  0.39799
USER: genes 17 Torsion [C]-N--CA-[C] |==|  0.12575
USER: genes 18 Torsion [N]-CA--C-[O] |==|  0.31253
USER: genes 19 Torsion [CB]-CA--N-[C] |==|  0.81111
USER: genes 20 Torsion [N]-C--CA-[N] |==|  0.69692
USER: genes 21 Torsion [C]-CA--CB-[CG2] |==|  0.19356
USER: genes 22 Torsion [CA]-CB--OG1-[HG1] |==|  0.95439
USER: genes 23 Torsion [C]-CA--N-[C] |==|  0.56825
USER: genes 24 Torsion [N]-C--CA-[N] |==|  0.28929
USER: genes 25 Torsion [C]-CA--N-[C] |==|  0.67242
USER: genes 26 Torsion [N]-C--CA-[N] |==|  0.35127
USER: genes 27 Torsion [C]-CA--N-[H1] |==|  0.54692
USER: genes 28 Torsion [C]-CA--CB-[CG] |==|  0.51188
USER: genes 29 Torsion [CA]-CB--CG-[CD] |==|  0.21868
USER: genes 30 Torsion [CB]-CG--CD-[NE] |==|  0.35782
USER: genes 31 Torsion [CG]-CD--NE-[HE] |==|  0.89309
ROOT
ATOM      1  CA  LYS Q   4      16.986   8.765  15.918  1.00 15.20 LIG 0.18  C 
ENDROOT
BRANCH 1 2
ATOM      2  CB  LYS Q   4      15.668   8.139  15.469  1.00 14.69 LIG 0.04  C 
BRANCH 2 3
ATOM      3  CG  LYS Q   4      14.854   7.589  16.604  1.00 16.14 LIG 0.00  C 
BRANCH 3 4
ATOM      4  CD  LYS Q   4      15.704   6.771  17.535  1.00 18.10 LIG 0.03  C 
BRANCH 4 5
ATOM      5  CE  LYS Q   4      15.941   7.549  18.810  1.00 22.11 LIG 0.23  C 
BRANCH 5 6
ATOM      6  NZ  LYS Q   4      14.841   7.328  19.786  1.00 25.79 LIG-0.08  N 
ATOM      7 HZ1  LYS Q   4      15.160   6.911  20.504  1.00 25.79 LIG 0.27  HD
ATOM      8 HZ2  LYS Q   4      14.496   8.111  20.028  1.00 25.79 LIG 0.27  HD
ATOM      9 HZ3  LYS Q   4      14.208   6.828  19.411  1.00 25.79 LIG 0.27  HD
ENDBRANCH 5 6
ENDBRANCH 4 5
ENDBRANCH 3 4
ENDBRANCH 2 3
ENDBRANCH 1 2
BRANCH 1 10
ATOM     10  C   LYS Q   4      17.897   8.943  14.702  1.00 15.70 LIG 0.24  C 
ATOM     11  N   GLN Q   5      19.186   8.632  14.855  1.00 16.90 LIG-0.35  N 
ATOM     12 H    GLN Q   5      19.510   8.237  15.547  1.00 16.90 LIG 0.16  HD
ATOM     13 O    LYS Q   4      17.437   9.371  13.636  1.00 16.41 LIG-0.27  OA
BRANCH 11 14
ATOM     14  CA  GLN Q   5      20.170   8.956  13.816  1.00 18.58 LIG 0.18  C 
BRANCH 14 15
ATOM     15  CB  GLN Q   5      19.882   8.189  12.521  1.00 18.36 LIG 0.04  C 
BRANCH 15 16
ATOM     16  CG  GLN Q   5      20.838   7.035  12.228  1.00 19.34 LIG 0.10  C 
BRANCH 16 17
ATOM     17  CD  GLN Q   5      20.448   5.723  12.873  1.00 21.85 LIG 0.21  C 
ATOM     18  NE2 GLN Q   5      21.363   5.154  13.660  1.00 24.33 LIG-0.37  N 
ATOM     19 21HE GLN Q   5      22.128   5.530  13.771  1.00 24.33 LIG 0.16  HD
ATOM     20 22HE GLN Q   5      21.187   4.412  14.057  1.00 24.33 LIG 0.16  HD
ATOM     21 OE1  GLN Q   5      19.341   5.230  12.680  1.00 24.78 LIG-0.27  OA
ENDBRANCH 16 17
ENDBRANCH 15 16
ENDBRANCH 14 15
BRANCH 14 22
ATOM     22  C   GLN Q   5      20.244  10.450  13.537  1.00 20.15 LIG 0.24  C 
ATOM     23 O    GLN Q   5      19.364  10.995  12.862  1.00 22.37 LIG-0.27  OA
ATOM     24  N   THR Q   6      21.266  11.127  14.042  1.00 20.72 LIG-0.34  N 
ATOM     25 H    THR Q   6      21.842  10.808  14.596  1.00 20.72 LIG 0.16  HD
BRANCH 24 26
ATOM     26  CA  THR Q   6      21.475  12.528  13.661  1.00 22.01 LIG 0.20  C 
BRANCH 26 27
ATOM     27  CB  THR Q   6      21.454  12.742  12.136  1.00 21.09 LIG 0.15  C 
ATOM     28  CG2 THR Q   6      20.517  13.888  11.753  1.00 22.53 LIG 0.04  C 
BRANCH 27 29
ATOM     29 OG1  THR Q   6      22.778  13.030  11.673  1.00 19.47 LIG-0.39  OA
ATOM     30 HG1  THR Q   6      23.091  12.355  11.284  1.00 19.47 LIG 0.21  HD
ENDBRANCH 27 29
ENDBRANCH 26 27
BRANCH 26 31
ATOM     31  C   THR Q   6      20.469  13.458  14.332  1.00 23.85 LIG 0.24  C 
ATOM     32  N   ALA Q   7      20.916  14.657  14.711  1.00 25.35 LIG-0.35  N 
ATOM     33 H    ALA Q   7      21.733  14.908  14.615  1.00 25.35 LIG 0.16  HD
ATOM     34 O    THR Q   6      19.295  13.098  14.477  1.00 25.66 LIG-0.27  OA
BRANCH 32 35
ATOM     35  CA  ALA Q   7      20.051  15.672  15.331  1.00 27.02 LIG 0.16  C 
ATOM     36  CB  ALA Q   7      19.209  16.372  14.269  1.00 27.03 LIG 0.04  C 
BRANCH 35 37
ATOM     37  C   ALA Q   7      19.151  15.082  16.423  1.00 28.43 LIG 0.22  C 
ATOM     38 O    ALA Q   7      19.311  15.386  17.615  1.00 30.23 LIG-0.29  OA
ENDBRANCH 35 37
ENDBRANCH 32 35
ENDBRANCH 26 31
ENDBRANCH 24 26
ENDBRANCH 14 22
ENDBRANCH 11 14
ENDBRANCH 1 10
BRANCH 1 39
ATOM     39  N   LYS Q   4      16.738  10.021  16.624  1.00 13.85 LIG-0.35  N 
ATOM     40 H    LYS Q   4      16.924  10.002  17.463  1.00 13.85 LIG 0.16  HD
ATOM     41  C   THR Q   3      16.262  11.094  15.989  1.00 13.84 LIG 0.24  C 
ATOM     42 O    THR Q   3      16.046  11.125  14.772  1.00 14.15 LIG-0.27  OA
BRANCH 41 43
ATOM     43  CA  THR Q   3      15.950  12.296  16.855  1.00 13.21 LIG 0.20  C 
BRANCH 43 44
ATOM     44  CB  THR Q   3      16.649  12.098  18.223  1.00 13.38 LIG 0.15  C 
ATOM     45  CG2 THR Q   3      18.152  12.206  18.120  1.00 13.96 LIG 0.04  C 
BRANCH 44 46
ATOM     46 OG1  THR Q   3      16.138  13.026  19.192  1.00 13.85 LIG-0.39  OA
ATOM     47 HG1  THR Q   3      15.728  13.644  18.798  1.00 13.85 LIG 0.21  HD
ENDBRANCH 44 46
ENDBRANCH 43 44
BRANCH 43 48
ATOM     48  N   THR Q   3      14.502  12.498  16.957  1.00 13.00 LIG-0.34  N 
ATOM     49  C   ARG Q   2      13.974  13.688  17.226  1.00 13.30 LIG 0.24  C 
ATOM     50 O    ARG Q   2      14.640  14.662  17.553  1.00 13.04 LIG-0.27  OA
ATOM     51 H    THR Q   3      14.036  11.786  16.827  1.00 13.00 LIG 0.16  HD
BRANCH 49 52
ATOM     52  CA  ARG Q   2      12.469  13.788  17.137  1.00 13.85 LIG 0.18  C 
BRANCH 52 53
ATOM     53  N   ARG Q   2      11.908  13.809  18.479  1.00 14.89 LIG-0.35  N 
ATOM     54 H    ARG Q   2      12.160  14.485  18.948  1.00 14.89 LIG 0.16  HD
ATOM     55  C   ALA Q   1      11.086  12.876  18.936  1.00 17.12 LIG 0.25  C 
ATOM     56 O    ALA Q   1      10.716  11.905  18.267  1.00 19.52 LIG-0.27  OA
BRANCH 55 57
ATOM     57  CA  ALA Q   1      10.590  13.086  20.362  1.00 17.93 LIG 0.27  C 
ATOM     58  CB  ALA Q   1      11.213  12.060  21.318  1.00 18.07 LIG 0.05  C 
BRANCH 57 59
ATOM     59  N   ALA Q   1       9.098  13.041  20.423  1.00 19.51 LIG-0.07  N 
ATOM     60 H1   ALA Q   1       8.822  13.401  21.189  1.00 19.51 LIG 0.28  HD
ATOM     61 H3   ALA Q   1       8.824  12.196  20.377  1.00 19.51 LIG 0.28  HD
ATOM     62 H2   ALA Q   1       8.759  13.501  19.741  1.00 19.51 LIG 0.28  HD
ENDBRANCH 57 59
ENDBRANCH 55 57
ENDBRANCH 52 53
BRANCH 52 63
ATOM     63  CB  ARG Q   2      12.092  15.064  16.376  1.00 13.50 LIG 0.04  C 
BRANCH 63 64
ATOM     64  CG  ARG Q   2      10.579  15.338  16.305  1.00 14.15 LIG 0.02  C 
BRANCH 64 65
ATOM     65  CD  ARG Q   2      10.078  15.933  17.613  1.00 12.93 LIG 0.14  C 
BRANCH 65 66
ATOM     66  NE  ARG Q   2       9.310  17.150  17.362  1.00 12.58 LIG-0.23  N 
ATOM     67 HE   ARG Q   2       9.594  17.673  16.741  1.00 12.58 LIG 0.18  HD
ATOM     68  CZ  ARG Q   2       8.201  17.521  18.015  1.00 11.80 LIG 0.67  C 
ATOM     69  NH2 ARG Q   2       7.581  18.633  17.657  1.00 12.39 LIG-0.23  N 
ATOM     70  NH1 ARG Q   2       7.716  16.808  19.022  1.00 13.65 LIG-0.23  N 
ATOM     71 2HH2 ARG Q   2       6.868  18.879  18.071  1.00 12.39 LIG 0.17  HD
ATOM     72 1HH2 ARG Q   2       7.890  19.110  17.011  1.00 12.39 LIG 0.17  HD
ATOM     73 2HH1 ARG Q   2       7.002  17.066  19.426  1.00 13.65 LIG 0.17  HD
ATOM     74 1HH1 ARG Q   2       8.115  16.087  19.270  1.00 13.65 LIG 0.17  HD
ENDBRANCH 65 66
ENDBRANCH 64 65
ENDBRANCH 63 64
ENDBRANCH 52 63
ENDBRANCH 49 52
ENDBRANCH 43 48
ENDBRANCH 41 43
ENDBRANCH 1 39
TORSDOF 30
ENDMDL
MODEL 14
USER: ADFR SOLUTION from run 142
USER: SCORE 21.837905 LL:  -4.329 LR: -19.676 RR:   0.000 FEB: -10.727
USER: RMSD 9.734091
USER: SEED 141
USER: STATUS no improvement in best in 2 clusters for 5 generations
USER: GENES 32
USER: genes 0 Translation |==|  0.52074 0.40907 0.48104
USER: genes 1 Rotation |==|  0.64636 0.42028 0.96356 0.58565
USER: genes 2 Torsion [C]-CA--CB-[CG] |==|  0.80325
USER: genes 3 Torsion [CA]-CB--CG-[CD] |==|  0.56621
USER: genes 4 Torsion [CB]-CG--CD-[CE] |==|  0.64882
USER: genes 5 Torsion [CG]-CD--CE-[NZ] |==|  0.51036
USER: genes 6 Torsion [CD]-CE--NZ-[HZ1] |==|  0.61304
USER: genes 7 Torsion [N]-CA--C-[N] |==|  0.29187
USER: genes 8 Torsion [C]-N--CA-[CB] |==|  0.21555
USER: genes 9 Torsion [N]-CA--CB-[CG] |==|  0.32618
USER: genes 10 Torsion [CA]-CB--CG-[CD] |==|  0.67083
USER: genes 11 Torsion [CB]-CG--CD-[OE1] |==|  0.61640
USER: genes 12 Torsion [N]-CA--C-[N] |==|  0.94863
USER: genes 13 Torsion [C]-N--CA-[CB] |==|  0.21716
USER: genes 14 Torsion [N]-CA--CB-[CG2] |==|  0.26281
USER: genes 15 Torsion [CA]-CB--OG1-[HG1] |==|  0.10443
USER: genes 16 Torsion [N]-CA--C-[N] |==|  0.95398
USER: genes 17 Torsion [C]-N--CA-[C] |==|  0.55734
USER: genes 18 Torsion [N]-CA--C-[O] |==|  0.53144
USER: genes 19 Torsion [CB]-CA--N-[C] |==|  0.52779
USER: genes 20 Torsion [N]-C--CA-[N] |==|  0.42908
USER: genes 21 Torsion [C]-CA--CB-[CG2] |==|  0.85270
USER: genes 22 Torsion [CA]-CB--OG1-[HG1] |==|  0.86955
USER: genes 23 Torsion [C]-CA--N-[C] |==|  0.81548
USER: genes 24 Torsion [N]-C--CA-[N] |==|  0.46054
USER: genes 25 Torsion [C]-CA--N-[C] |==|  0.71607
USER: genes 26 Torsion [N]-C--CA-[N] |==|  0.23808
USER: genes 27 Torsion [C]-CA--N-[H1] |==|  0.13772
USER: genes 28 Torsion [C]-CA--CB-[CG] |==|  0.47669
USER: genes 29 Torsion [CA]-CB--CG-[CD] |==|  0.87157
USER: genes 30 Torsion [CB]-CG--CD-[NE] |==|  0.29436
USER: genes 31 Torsion [CG]-CD--NE-[HE] |==|  0.06787
ROOT
ATOM      1  CA  LYS Q   4      16.089   9.382  15.863  1.00 15.20 LIG 0.18  C 
ENDROOT
BRANCH 1 2
ATOM      2  CB  LYS Q   4      16.977   9.049  14.668  1.00 14.69 LIG 0.04  C 
BRANCH 2 3
ATOM      3  CG  LYS Q   4      18.249   9.845  14.632  1.00 16.14 LIG 0.00  C 
BRANCH 3 4
ATOM      4  CD  LYS Q   4      18.794   9.936  13.236  1.00 18.10 LIG 0.03  C 
BRANCH 4 5
ATOM      5  CE  LYS Q   4      20.233   9.468  13.229  1.00 22.11 LIG 0.23  C 
BRANCH 5 6
ATOM      6  NZ  LYS Q   4      20.841   9.626  11.881  1.00 25.79 LIG-0.08  N 
ATOM      7 HZ1  LYS Q   4      21.346   8.916  11.698  1.00 25.79 LIG 0.27  HD
ATOM      8 HZ2  LYS Q   4      20.197   9.696  11.270  1.00 25.79 LIG 0.27  HD
ATOM      9 HZ3  LYS Q   4      21.345  10.359  11.866  1.00 25.79 LIG 0.27  HD
ENDBRANCH 5 6
ENDBRANCH 4 5
ENDBRANCH 3 4
ENDBRANCH 2 3
ENDBRANCH 1 2
BRANCH 1 10
ATOM     10  C   LYS Q   4      16.741   8.843  17.139  1.00 15.70 LIG 0.24  C 
ATOM     11  N   GLN Q   5      15.966   8.144  17.970  1.00 16.90 LIG-0.35  N 
ATOM     12 H    GLN Q   5      15.168   7.883  17.785  1.00 16.90 LIG 0.16  HD
ATOM     13 O    LYS Q   4      17.934   9.071  17.372  1.00 16.41 LIG-0.27  OA
BRANCH 11 14
ATOM     14  CA  GLN Q   5      16.444   7.760  19.304  1.00 18.58 LIG 0.18  C 
BRANCH 14 15
ATOM     15  CB  GLN Q   5      16.382   8.942  20.277  1.00 18.36 LIG 0.04  C 
BRANCH 15 16
ATOM     16  CG  GLN Q   5      15.446   8.749  21.468  1.00 19.34 LIG 0.10  C 
BRANCH 16 17
ATOM     17  CD  GLN Q   5      14.311   9.748  21.537  1.00 21.85 LIG 0.21  C 
ATOM     18  NE2 GLN Q   5      13.698  10.029  20.386  1.00 24.33 LIG-0.37  N 
ATOM     19 21HE GLN Q   5      13.960   9.657  19.657  1.00 24.33 LIG 0.16  HD
ATOM     20 22HE GLN Q   5      13.041  10.584  20.373  1.00 24.33 LIG 0.16  HD
ATOM     21 OE1  GLN Q   5      13.978  10.251  22.605  1.00 24.78 LIG-0.27  OA
ENDBRANCH 16 17
ENDBRANCH 15 16
ENDBRANCH 14 15
BRANCH 14 22
ATOM     22  C   GLN Q   5      15.680   6.573  19.870  1.00 20.15 LIG 0.24  C 
ATOM     23 O    GLN Q   5      16.159   5.919  20.803  1.00 22.37 LIG-0.27  OA
ATOM     24  N   THR Q   6      14.503   6.277  19.335  1.00 20.72 LIG-0.34  N 
ATOM     25 H    THR Q   6      14.091   6.762  18.755  1.00 20.72 LIG 0.16  HD
BRANCH 24 26
ATOM     26  CA  THR Q   6      13.809   5.046  19.725  1.00 22.01 LIG 0.20  C 
BRANCH 26 27
ATOM     27  CB  THR Q   6      13.106   5.163  21.092  1.00 21.09 LIG 0.15  C 
ATOM     28  CG2 THR Q   6      11.639   5.556  20.925  1.00 22.53 LIG 0.04  C 
BRANCH 27 29
ATOM     29 OG1  THR Q   6      13.192   3.913  21.784  1.00 19.47 LIG-0.39  OA
ATOM     30 HG1  THR Q   6      13.942   3.564  21.639  1.00 19.47 LIG 0.21  HD
ENDBRANCH 27 29
ENDBRANCH 26 27
BRANCH 26 31
ATOM     31  C   THR Q   6      12.811   4.591  18.664  1.00 23.85 LIG 0.24  C 
ATOM     32  N   ALA Q   7      12.455   5.492  17.747  1.00 25.35 LIG-0.35  N 
ATOM     33 H    ALA Q   7      12.741   6.303  17.745  1.00 25.35 LIG 0.16  HD
ATOM     34 O    THR Q   6      12.393   3.427  18.667  1.00 25.66 LIG-0.27  OA
BRANCH 32 35
ATOM     35  CA  ALA Q   7      11.535   5.184  16.641  1.00 27.02 LIG 0.16  C 
ATOM     36  CB  ALA Q   7      10.094   5.154  17.144  1.00 27.03 LIG 0.04  C 
BRANCH 35 37
ATOM     37  C   ALA Q   7      11.673   6.172  15.476  1.00 28.43 LIG 0.22  C 
ATOM     38 O    ALA Q   7      10.840   6.193  14.557  1.00 30.23 LIG-0.29  OA
ENDBRANCH 35 37
ENDBRANCH 32 35
ENDBRANCH 26 31
ENDBRANCH 24 26
ENDBRANCH 14 22
ENDBRANCH 11 14
ENDBRANCH 1 10
BRANCH 1 39
ATOM     39  N   LYS Q   4      15.836  10.820  15.924  1.00 13.85 LIG-0.35  N 
ATOM     40 H    LYS Q   4      16.093  11.257  15.230  1.00 13.85 LIG 0.16  HD
ATOM     41  C   THR Q   3      15.252  11.379  16.985  1.00 13.84 LIG 0.24  C 
ATOM     42 O    THR Q   3      14.841  10.733  17.957  1.00 14.15 LIG-0.27  OA
BRANCH 41 43
ATOM     43  CA  THR Q   3      15.145  12.889  16.968  1.00 13.21 LIG 0.20  C 
BRANCH 43 44
ATOM     44  CB  THR Q   3      16.512  13.474  17.402  1.00 13.38 LIG 0.15  C 
ATOM     45  CG2 THR Q   3      16.989  12.901  18.716  1.00 13.96 LIG 0.04  C 
BRANCH 44 46
ATOM     46 OG1  THR Q   3      17.495  13.281  16.376  1.00 13.85 LIG-0.39  OA
ATOM     47 HG1  THR Q   3      17.462  12.488  16.101  1.00 13.85 LIG 0.21  HD
ENDBRANCH 44 46
ENDBRANCH 43 44
BRANCH 43 48
ATOM     48  N   THR Q   3      14.022  13.337  17.798  1.00 13.00 LIG-0.34  N 
ATOM     49  C   ARG Q   2      12.760  13.068  17.478  1.00 13.30 LIG 0.24  C 
ATOM     50 O    ARG Q   2      12.426  12.567  16.412  1.00 13.04 LIG-0.27  OA
ATOM     51 H    THR Q   3      14.255  13.780  18.497  1.00 13.00 LIG 0.16  HD
BRANCH 49 52
ATOM     52  CA  ARG Q   2      11.716  13.444  18.504  1.00 13.85 LIG 0.18  C 
BRANCH 52 53
ATOM     53  N   ARG Q   2      10.399  13.405  17.888  1.00 14.89 LIG-0.35  N 
ATOM     54 H    ARG Q   2      10.084  12.611  17.794  1.00 14.89 LIG 0.16  HD
ATOM     55  C   ALA Q   1       9.745  14.493  17.505  1.00 17.12 LIG 0.25  C 
ATOM     56 O    ALA Q   1      10.189  15.638  17.639  1.00 19.52 LIG-0.27  OA
BRANCH 55 57
ATOM     57  CA  ALA Q   1       8.370  14.246  16.897  1.00 17.93 LIG 0.27  C 
ATOM     58  CB  ALA Q   1       8.021  15.330  15.868  1.00 18.07 LIG 0.05  C 
BRANCH 57 59
ATOM     59  N   ALA Q   1       7.323  14.155  17.959  1.00 19.51 LIG-0.07  N 
ATOM     60 H1   ALA Q   1       7.398  14.848  18.511  1.00 19.51 LIG 0.28  HD
ATOM     61 H3   ALA Q   1       7.428  13.399  18.416  1.00 19.51 LIG 0.28  HD
ATOM     62 H2   ALA Q   1       6.516  14.163  17.581  1.00 19.51 LIG 0.28  HD
ENDBRANCH 57 59
ENDBRANCH 55 57
ENDBRANCH 52 53
BRANCH 52 63
ATOM     63  CB  ARG Q   2      11.788  12.462  19.680  1.00 13.50 LIG 0.04  C 
BRANCH 63 64
ATOM     64  CG  ARG Q   2      10.916  12.851  20.887  1.00 14.15 LIG 0.02  C 
BRANCH 64 65
ATOM     65  CD  ARG Q   2      11.092  14.323  21.226  1.00 12.93 LIG 0.14  C 
BRANCH 65 66
ATOM     66  NE  ARG Q   2       9.919  15.089  20.813  1.00 12.58 LIG-0.23  N 
ATOM     67 HE   ARG Q   2       9.175  14.663  20.744  1.00 12.58 LIG 0.18  HD
ATOM     68  CZ  ARG Q   2       9.902  16.398  20.530  1.00 11.80 LIG 0.67  C 
ATOM     69  NH2 ARG Q   2       8.758  16.976  20.205  1.00 12.39 LIG-0.23  N 
ATOM     70  NH1 ARG Q   2      11.009  17.129  20.556  1.00 13.65 LIG-0.23  N 
ATOM     71 2HH2 ARG Q   2       8.738  17.817  20.023  1.00 12.39 LIG 0.17  HD
ATOM     72 1HH2 ARG Q   2       8.034  16.512  20.177  1.00 12.39 LIG 0.17  HD
ATOM     73 2HH1 ARG Q   2      10.973  17.969  20.371  1.00 13.65 LIG 0.17  HD
ATOM     74 1HH1 ARG Q   2      11.761  16.764  20.757  1.00 13.65 LIG 0.17  HD
ENDBRANCH 65 66
ENDBRANCH 64 65
ENDBRANCH 63 64
ENDBRANCH 52 63
ENDBRANCH 49 52
ENDBRANCH 43 48
ENDBRANCH 41 43
ENDBRANCH 1 39
TORSDOF 30
ENDMDL
MODEL 15
USER: ADFR SOLUTION from run 162
USER: SCORE 21.589213 LL:  -3.585 LR: -19.650 RR:   0.000 FEB: -10.701
USER: RMSD 10.329796
USER: SEED 161
USER: STATUS 1 or 2 clusters left
USER: GENES 32
USER: genes 0 Translation |==|  0.58172 0.49046 0.49717
USER: genes 1 Rotation |==|  0.84836 0.63900 0.82917 0.53117
USER: genes 2 Torsion [C]-CA--CB-[CG] |==|  0.93884
USER: genes 3 Torsion [CA]-CB--CG-[CD] |==|  0.35698
USER: genes 4 Torsion [CB]-CG--CD-[CE] |==|  0.61537
USER: genes 5 Torsion [CG]-CD--CE-[NZ] |==|  0.77824
USER: genes 6 Torsion [CD]-CE--NZ-[HZ1] |==|  0.49496
USER: genes 7 Torsion [N]-CA--C-[N] |==|  0.96615
USER: genes 8 Torsion [C]-N--CA-[CB] |==|  0.17011
USER: genes 9 Torsion [N]-CA--CB-[CG] |==|  0.16260
USER: genes 10 Torsion [CA]-CB--CG-[CD] |==|  0.31855
USER: genes 11 Torsion [CB]-CG--CD-[OE1] |==|  0.21260
USER: genes 12 Torsion [N]-CA--C-[N] |==|  0.10642
USER: genes 13 Torsion [C]-N--CA-[CB] |==|  0.87222
USER: genes 14 Torsion [N]-CA--CB-[CG2] |==|  0.49339
USER: genes 15 Torsion [CA]-CB--OG1-[HG1] |==|  0.18892
USER: genes 16 Torsion [N]-CA--C-[N] |==|  0.31309
USER: genes 17 Torsion [C]-N--CA-[C] |==|  0.14758
USER: genes 18 Torsion [N]-CA--C-[O] |==|  0.40266
USER: genes 19 Torsion [CB]-CA--N-[C] |==|  0.25765
USER: genes 20 Torsion [N]-C--CA-[N] |==|  0.43107
USER: genes 21 Torsion [C]-CA--CB-[CG2] |==|  0.79611
USER: genes 22 Torsion [CA]-CB--OG1-[HG1] |==|  0.36488
USER: genes 23 Torsion [C]-CA--N-[C] |==|  0.61242
USER: genes 24 Torsion [N]-C--CA-[N] |==|  0.14226
USER: genes 25 Torsion [C]-CA--N-[C] |==|  0.12922
USER: genes 26 Torsion [N]-C--CA-[N] |==|  0.66979
USER: genes 27 Torsion [C]-CA--N-[H1] |==|  0.33991
USER: genes 28 Torsion [C]-CA--CB-[CG] |==|  0.84831
USER: genes 29 Torsion [CA]-CB--CG-[CD] |==|  0.61102
USER: genes 30 Torsion [CB]-CG--CD-[NE] |==|  0.34413
USER: genes 31 Torsion [CG]-CD--NE-[HE] |==|  0.79081
ROOT
ATOM      1  CA  LYS Q   4      17.552  10.969  16.202  1.00 15.20 LIG 0.18  C 
ENDROOT
BRANCH 1 2
ATOM      2  CB  LYS Q   4      17.288  10.038  15.022  1.00 14.69 LIG 0.04  C 
BRANCH 2 3
ATOM      3  CG  LYS Q   4      18.214  10.268  13.863  1.00 16.14 LIG 0.00  C 
BRANCH 3 4
ATOM      4  CD  LYS Q   4      18.856   8.985  13.418  1.00 18.10 LIG 0.03  C 
BRANCH 4 5
ATOM      5  CE  LYS Q   4      20.316   9.237  13.110  1.00 22.11 LIG 0.23  C 
BRANCH 5 6
ATOM      6  NZ  LYS Q   4      20.481   9.850  11.765  1.00 25.79 LIG-0.08  N 
ATOM      7 HZ1  LYS Q   4      21.343  10.013  11.617  1.00 25.79 LIG 0.27  HD
ATOM      8 HZ2  LYS Q   4      20.174   9.291  11.144  1.00 25.79 LIG 0.27  HD
ATOM      9 HZ3  LYS Q   4      20.025  10.613  11.728  1.00 25.79 LIG 0.27  HD
ENDBRANCH 5 6
ENDBRANCH 4 5
ENDBRANCH 3 4
ENDBRANCH 2 3
ENDBRANCH 1 2
BRANCH 1 10
ATOM     10  C   LYS Q   4      18.989  11.491  16.116  1.00 15.70 LIG 0.24  C 
ATOM     11  N   GLN Q   5      19.150  12.785  15.832  1.00 16.90 LIG-0.35  N 
ATOM     12 H    GLN Q   5      18.510  13.360  15.806  1.00 16.90 LIG 0.16  HD
ATOM     13 O    LYS Q   4      19.942  10.724  16.295  1.00 16.41 LIG-0.27  OA
BRANCH 11 14
ATOM     14  CA  GLN Q   5      20.478  13.333  15.532  1.00 18.58 LIG 0.18  C 
BRANCH 14 15
ATOM     15  CB  GLN Q   5      21.085  12.671  14.290  1.00 18.36 LIG 0.04  C 
BRANCH 15 16
ATOM     16  CG  GLN Q   5      20.255  12.809  13.016  1.00 19.34 LIG 0.10  C 
BRANCH 16 17
ATOM     17  CD  GLN Q   5      20.913  13.632  11.930  1.00 21.85 LIG 0.21  C 
ATOM     18  NE2 GLN Q   5      20.463  14.879  11.776  1.00 24.33 LIG-0.37  N 
ATOM     19 21HE GLN Q   5      19.827  15.171  12.275  1.00 24.33 LIG 0.16  HD
ATOM     20 22HE GLN Q   5      20.810  15.391  11.179  1.00 24.33 LIG 0.16  HD
ATOM     21 OE1  GLN Q   5      21.818  13.166  11.245  1.00 24.78 LIG-0.27  OA
ENDBRANCH 16 17
ENDBRANCH 15 16
ENDBRANCH 14 15
BRANCH 14 22
ATOM     22  C   GLN Q   5      20.454  14.845  15.364  1.00 20.15 LIG 0.24  C 
ATOM     23 O    GLN Q   5      21.153  15.380  14.496  1.00 22.37 LIG-0.27  OA
ATOM     24  N   THR Q   6      19.666  15.548  16.166  1.00 20.72 LIG-0.34  N 
ATOM     25 H    THR Q   6      19.093  15.210  16.712  1.00 20.72 LIG 0.16  HD
BRANCH 24 26
ATOM     26  CA  THR Q   6      19.735  17.012  16.161  1.00 22.01 LIG 0.20  C 
BRANCH 26 27
ATOM     27  CB  THR Q   6      21.182  17.543  16.197  1.00 21.09 LIG 0.15  C 
ATOM     28  CG2 THR Q   6      21.211  19.069  16.131  1.00 22.53 LIG 0.04  C 
BRANCH 27 29
ATOM     29 OG1  THR Q   6      21.824  17.102  17.398  1.00 19.47 LIG-0.39  OA
ATOM     30 HG1  THR Q   6      21.932  16.269  17.369  1.00 19.47 LIG 0.21  HD
ENDBRANCH 27 29
ENDBRANCH 26 27
BRANCH 26 31
ATOM     31  C   THR Q   6      18.990  17.615  14.973  1.00 23.85 LIG 0.24  C 
ATOM     32  N   ALA Q   7      17.891  18.320  15.246  1.00 25.35 LIG-0.35  N 
ATOM     33 H    ALA Q   7      17.583  18.425  16.042  1.00 25.35 LIG 0.16  HD
ATOM     34 O    THR Q   6      19.427  17.461  13.827  1.00 25.66 LIG-0.27  OA
BRANCH 32 35
ATOM     35  CA  ALA Q   7      17.095  18.992  14.208  1.00 27.02 LIG 0.16  C 
ATOM     36  CB  ALA Q   7      17.860  20.187  13.644  1.00 27.03 LIG 0.04  C 
BRANCH 35 37
ATOM     37  C   ALA Q   7      16.686  18.039  13.079  1.00 28.43 LIG 0.22  C 
ATOM     38 O    ALA Q   7      15.589  18.157  12.511  1.00 30.23 LIG-0.29  OA
ENDBRANCH 35 37
ENDBRANCH 32 35
ENDBRANCH 26 31
ENDBRANCH 24 26
ENDBRANCH 14 22
ENDBRANCH 11 14
ENDBRANCH 1 10
BRANCH 1 39
ATOM     39  N   LYS Q   4      16.563  12.045  16.233  1.00 13.85 LIG-0.35  N 
ATOM     40 H    LYS Q   4      16.769  12.732  15.759  1.00 13.85 LIG 0.16  HD
ATOM     41  C   THR Q   3      15.442  11.939  16.948  1.00 13.84 LIG 0.24  C 
ATOM     42 O    THR Q   3      15.134  10.924  17.585  1.00 14.15 LIG-0.27  OA
BRANCH 41 43
ATOM     43  CA  THR Q   3      14.554  13.164  16.979  1.00 13.21 LIG 0.20  C 
BRANCH 43 44
ATOM     44  CB  THR Q   3      15.144  14.161  18.008  1.00 13.38 LIG 0.15  C 
ATOM     45  CG2 THR Q   3      14.920  13.713  19.433  1.00 13.96 LIG 0.04  C 
BRANCH 44 46
ATOM     46 OG1  THR Q   3      16.540  14.381  17.758  1.00 13.85 LIG-0.39  OA
ATOM     47 HG1  THR Q   3      16.698  15.206  17.755  1.00 13.85 LIG 0.21  HD
ENDBRANCH 44 46
ENDBRANCH 43 44
BRANCH 43 48
ATOM     48  N   THR Q   3      13.164  12.788  17.255  1.00 13.00 LIG-0.34  N 
ATOM     49  C   ARG Q   2      12.142  13.362  16.627  1.00 13.30 LIG 0.24  C 
ATOM     50 O    ARG Q   2      12.262  14.334  15.893  1.00 13.04 LIG-0.27  OA
ATOM     51 H    THR Q   3      13.076  12.173  17.849  1.00 13.00 LIG 0.16  HD
BRANCH 49 52
ATOM     52  CA  ARG Q   2      10.779  12.764  16.885  1.00 13.85 LIG 0.18  C 
BRANCH 52 53
ATOM     53  N   ARG Q   2      10.563  12.657  18.319  1.00 14.89 LIG-0.35  N 
ATOM     54 H    ARG Q   2      10.251  11.894  18.566  1.00 14.89 LIG 0.16  HD
ATOM     55  C   ALA Q   1      10.824  13.640  19.168  1.00 17.12 LIG 0.25  C 
ATOM     56 O    ALA Q   1      11.277  14.737  18.822  1.00 19.52 LIG-0.27  OA
BRANCH 55 57
ATOM     57  CA  ALA Q   1      10.550  13.327  20.633  1.00 17.93 LIG 0.27  C 
ATOM     58  CB  ALA Q   1      10.141  11.859  20.815  1.00 18.07 LIG 0.05  C 
BRANCH 57 59
ATOM     59  N   ALA Q   1       9.514  14.247  21.194  1.00 19.51 LIG-0.07  N 
ATOM     60 H1   ALA Q   1       8.834  13.770  21.511  1.00 19.51 LIG 0.28  HD
ATOM     61 H3   ALA Q   1       9.222  14.791  20.553  1.00 19.51 LIG 0.28  HD
ATOM     62 H2   ALA Q   1       9.871  14.729  21.852  1.00 19.51 LIG 0.28  HD
ENDBRANCH 57 59
ENDBRANCH 55 57
ENDBRANCH 52 53
BRANCH 52 63
ATOM     63  CB  ARG Q   2       9.708  13.655  16.245  1.00 13.50 LIG 0.04  C 
BRANCH 63 64
ATOM     64  CG  ARG Q   2       9.762  15.129  16.685  1.00 14.15 LIG 0.02  C 
BRANCH 64 65
ATOM     65  CD  ARG Q   2       8.360  15.681  16.890  1.00 12.93 LIG 0.14  C 
BRANCH 65 66
ATOM     66  NE  ARG Q   2       8.213  16.218  18.241  1.00 12.58 LIG-0.23  N 
ATOM     67 HE   ARG Q   2       8.131  15.651  18.882  1.00 12.58 LIG 0.18  HD
ATOM     68  CZ  ARG Q   2       8.195  17.517  18.566  1.00 11.80 LIG 0.67  C 
ATOM     69  NH2 ARG Q   2       8.095  17.865  19.838  1.00 12.39 LIG-0.23  N 
ATOM     70  NH1 ARG Q   2       8.261  18.466  17.642  1.00 13.65 LIG-0.23  N 
ATOM     71 2HH2 ARG Q   2       8.082  18.698  20.056  1.00 12.39 LIG 0.17  HD
ATOM     72 1HH2 ARG Q   2       8.042  17.260  20.447  1.00 12.39 LIG 0.17  HD
ATOM     73 2HH1 ARG Q   2       8.248  19.294  17.874  1.00 13.65 LIG 0.17  HD
ATOM     74 1HH1 ARG Q   2       8.318  18.253  16.810  1.00 13.65 LIG 0.17  HD
ENDBRANCH 65 66
ENDBRANCH 64 65
ENDBRANCH 63 64
ENDBRANCH 52 63
ENDBRANCH 49 52
ENDBRANCH 43 48
ENDBRANCH 41 43
ENDBRANCH 1 39
TORSDOF 30
ENDMDL
MODEL 16
USER: ADFR SOLUTION from run 190
USER: SCORE 21.369153 LL:  -4.700 LR: -19.630 RR:   0.000 FEB: -10.681
USER: RMSD 6.322841
USER: SEED 189
USER: STATUS searching
USER: GENES 32
USER: genes 0 Translation |==|  0.38568 0.61138 0.52690
USER: genes 1 Rotation |==|  0.54263 0.40202 0.50199 0.98845
USER: genes 2 Torsion [C]-CA--CB-[CG] |==|  0.24501
USER: genes 3 Torsion [CA]-CB--CG-[CD] |==|  0.91549
USER: genes 4 Torsion [CB]-CG--CD-[CE] |==|  0.65790
USER: genes 5 Torsion [CG]-CD--CE-[NZ] |==|  0.65423
USER: genes 6 Torsion [CD]-CE--NZ-[HZ1] |==|  0.49477
USER: genes 7 Torsion [N]-CA--C-[N] |==|  0.69165
USER: genes 8 Torsion [C]-N--CA-[CB] |==|  0.83480
USER: genes 9 Torsion [N]-CA--CB-[CG] |==|  0.62202
USER: genes 10 Torsion [CA]-CB--CG-[CD] |==|  0.79609
USER: genes 11 Torsion [CB]-CG--CD-[OE1] |==|  0.93836
USER: genes 12 Torsion [N]-CA--C-[N] |==|  0.37952
USER: genes 13 Torsion [C]-N--CA-[CB] |==|  0.23227
USER: genes 14 Torsion [N]-CA--CB-[CG2] |==|  0.29965
USER: genes 15 Torsion [CA]-CB--OG1-[HG1] |==|  0.42727
USER: genes 16 Torsion [N]-CA--C-[N] |==|  0.96706
USER: genes 17 Torsion [C]-N--CA-[C] |==|  0.17850
USER: genes 18 Torsion [N]-CA--C-[O] |==|  0.98480
USER: genes 19 Torsion [CB]-CA--N-[C] |==|  0.42293
USER: genes 20 Torsion [N]-C--CA-[N] |==|  0.45425
USER: genes 21 Torsion [C]-CA--CB-[CG2] |==|  0.55370
USER: genes 22 Torsion [CA]-CB--OG1-[HG1] |==|  0.41545
USER: genes 23 Torsion [C]-CA--N-[C] |==|  0.60718
USER: genes 24 Torsion [N]-C--CA-[N] |==|  0.80664
USER: genes 25 Torsion [C]-CA--N-[C] |==|  0.63371
USER: genes 26 Torsion [N]-C--CA-[N] |==|  0.69052
USER: genes 27 Torsion [C]-CA--N-[H1] |==|  0.66926
USER: genes 28 Torsion [C]-CA--CB-[CG] |==|  0.27033
USER: genes 29 Torsion [CA]-CB--CG-[CD] |==|  0.89752
USER: genes 30 Torsion [CB]-CG--CD-[NE] |==|  0.32991
USER: genes 31 Torsion [CG]-CD--NE-[HE] |==|  0.20120
ROOT
ATOM      1  CA  LYS Q   4      12.847  13.327  16.826  1.00 15.20 LIG 0.18  C 
ENDROOT
BRANCH 1 2
ATOM      2  CB  LYS Q   4      11.620  13.588  15.957  1.00 14.69 LIG 0.04  C 
BRANCH 2 3
ATOM      3  CG  LYS Q   4      11.189  15.026  15.955  1.00 16.14 LIG 0.00  C 
BRANCH 3 4
ATOM      4  CD  LYS Q   4      11.521  15.694  17.259  1.00 18.10 LIG 0.03  C 
BRANCH 4 5
ATOM      5  CE  LYS Q   4      10.257  16.265  17.864  1.00 22.11 LIG 0.23  C 
BRANCH 5 6
ATOM      6  NZ  LYS Q   4      10.404  17.719  18.139  1.00 25.79 LIG-0.08  N 
ATOM      7 HZ1  LYS Q   4       9.642  18.038  18.469  1.00 25.79 LIG 0.27  HD
ATOM      8 HZ2  LYS Q   4      11.058  17.845  18.731  1.00 25.79 LIG 0.27  HD
ATOM      9 HZ3  LYS Q   4      10.602  18.146  17.384  1.00 25.79 LIG 0.27  HD
ENDBRANCH 5 6
ENDBRANCH 4 5
ENDBRANCH 3 4
ENDBRANCH 2 3
ENDBRANCH 1 2
BRANCH 1 10
ATOM     10  C   LYS Q   4      12.395  13.030  18.258  1.00 15.70 LIG 0.24  C 
ATOM     11  N   GLN Q   5      11.093  12.804  18.451  1.00 16.90 LIG-0.35  N 
ATOM     12 H    GLN Q   5      10.520  12.704  17.818  1.00 16.90 LIG 0.16  HD
ATOM     13 O    LYS Q   4      13.218  13.017  19.181  1.00 16.41 LIG-0.27  OA
BRANCH 11 14
ATOM     14  CA  GLN Q   5      10.536  12.709  19.805  1.00 18.58 LIG 0.18  C 
BRANCH 14 15
ATOM     15  CB  GLN Q   5      11.196  11.576  20.598  1.00 18.36 LIG 0.04  C 
BRANCH 15 16
ATOM     16  CG  GLN Q   5      10.232  10.705  21.401  1.00 19.34 LIG 0.10  C 
BRANCH 16 17
ATOM     17  CD  GLN Q   5       9.671  11.372  22.638  1.00 21.85 LIG 0.21  C 
ATOM     18  NE2 GLN Q   5       8.532  10.870  23.118  1.00 24.33 LIG-0.37  N 
ATOM     19 21HE GLN Q   5       8.152  10.209  22.720  1.00 24.33 LIG 0.16  HD
ATOM     20 22HE GLN Q   5       8.177  11.207  23.825  1.00 24.33 LIG 0.16  HD
ATOM     21 OE1  GLN Q   5      10.254  12.314  23.166  1.00 24.78 LIG-0.27  OA
ENDBRANCH 16 17
ENDBRANCH 15 16
ENDBRANCH 14 15
BRANCH 14 22
ATOM     22  C   GLN Q   5      10.649  14.020  20.568  1.00 20.15 LIG 0.24  C 
ATOM     23 O    GLN Q   5      11.695  14.677  20.513  1.00 22.37 LIG-0.27  OA
ATOM     24  N   THR Q   6       9.601  14.422  21.274  1.00 20.72 LIG-0.34  N 
ATOM     25 H    THR Q   6       8.826  14.048  21.259  1.00 20.72 LIG 0.16  HD
BRANCH 24 26
ATOM     26  CA  THR Q   6       9.718  15.584  22.160  1.00 22.01 LIG 0.20  C 
BRANCH 26 27
ATOM     27  CB  THR Q   6       9.528  16.922  21.420  1.00 21.09 LIG 0.15  C 
ATOM     28  CG2 THR Q   6       8.187  17.564  21.777  1.00 22.53 LIG 0.04  C 
BRANCH 27 29
ATOM     29 OG1  THR Q   6      10.593  17.815  21.763  1.00 19.47 LIG-0.39  OA
ATOM     30 HG1  THR Q   6      10.709  18.366  21.139  1.00 19.47 LIG 0.21  HD
ENDBRANCH 27 29
ENDBRANCH 26 27
BRANCH 26 31
ATOM     31  C   THR Q   6       8.754  15.501  23.341  1.00 23.85 LIG 0.24  C 
ATOM     32  N   ALA Q   7       7.807  14.564  23.280  1.00 25.35 LIG-0.35  N 
ATOM     33 H    ALA Q   7       7.707  14.036  22.609  1.00 25.35 LIG 0.16  HD
ATOM     34 O    THR Q   6       8.891  16.263  24.305  1.00 25.66 LIG-0.27  OA
BRANCH 32 35
ATOM     35  CA  ALA Q   7       6.835  14.341  24.361  1.00 27.02 LIG 0.16  C 
ATOM     36  CB  ALA Q   7       7.557  13.989  25.659  1.00 27.03 LIG 0.04  C 
BRANCH 35 37
ATOM     37  C   ALA Q   7       5.912  15.547  24.574  1.00 28.43 LIG 0.22  C 
ATOM     38 O    ALA Q   7       6.088  16.603  23.948  1.00 30.23 LIG-0.29  OA
ENDBRANCH 35 37
ENDBRANCH 32 35
ENDBRANCH 26 31
ENDBRANCH 24 26
ENDBRANCH 14 22
ENDBRANCH 11 14
ENDBRANCH 1 10
BRANCH 1 39
ATOM     39  N   LYS Q   4      13.654  12.249  16.256  1.00 13.85 LIG-0.35  N 
ATOM     40 H    LYS Q   4      13.210  11.680  15.790  1.00 13.85 LIG 0.16  HD
ATOM     41  C   THR Q   3      14.971  12.183  16.461  1.00 13.84 LIG 0.24  C 
ATOM     42 O    THR Q   3      15.606  13.037  17.091  1.00 14.15 LIG-0.27  OA
BRANCH 41 43
ATOM     43  CA  THR Q   3      15.670  10.962  15.905  1.00 13.21 LIG 0.20  C 
BRANCH 43 44
ATOM     44  CB  THR Q   3      15.262   9.739  16.764  1.00 13.38 LIG 0.15  C 
ATOM     45  CG2 THR Q   3      16.226   8.586  16.614  1.00 13.96 LIG 0.04  C 
BRANCH 44 46
ATOM     46 OG1  THR Q   3      15.127  10.112  18.144  1.00 13.85 LIG-0.39  OA
ATOM     47 HG1  THR Q   3      14.546   9.628  18.509  1.00 13.85 LIG 0.21  HD
ENDBRANCH 44 46
ENDBRANCH 43 44
BRANCH 43 48
ATOM     48  N   THR Q   3      17.119  11.180  15.841  1.00 13.00 LIG-0.34  N 
ATOM     49  C   ARG Q   2      17.854  10.733  14.828  1.00 13.30 LIG 0.24  C 
ATOM     50 O    ARG Q   2      17.421   9.990  13.957  1.00 13.04 LIG-0.27  OA
ATOM     51 H    THR Q   3      17.439  11.617  16.509  1.00 13.00 LIG 0.16  HD
BRANCH 49 52
ATOM     52  CA  ARG Q   2      19.300  11.171  14.807  1.00 13.85 LIG 0.18  C 
BRANCH 52 53
ATOM     53  N   ARG Q   2      19.368  12.594  14.512  1.00 14.89 LIG-0.35  N 
ATOM     54 H    ARG Q   2      18.831  13.071  14.985  1.00 14.89 LIG 0.16  HD
ATOM     55  C   ALA Q   1      20.180  13.107  13.599  1.00 17.12 LIG 0.25  C 
ATOM     56 O    ALA Q   1      20.957  12.430  12.917  1.00 19.52 LIG-0.27  OA
BRANCH 55 57
ATOM     57  CA  ALA Q   1      20.118  14.622  13.450  1.00 17.93 LIG 0.27  C 
ATOM     58  CB  ALA Q   1      19.346  15.259  14.615  1.00 18.07 LIG 0.05  C 
BRANCH 57 59
ATOM     59  N   ALA Q   1      19.521  15.009  12.136  1.00 19.51 LIG-0.07  N 
ATOM     60 H1   ALA Q   1      20.115  15.477  11.667  1.00 19.51 LIG 0.28  HD
ATOM     61 H3   ALA Q   1      18.795  15.505  12.274  1.00 19.51 LIG 0.28  HD
ATOM     62 H2   ALA Q   1      19.298  14.275  11.684  1.00 19.51 LIG 0.28  HD
ENDBRANCH 57 59
ENDBRANCH 55 57
ENDBRANCH 52 53
BRANCH 52 63
ATOM     63  CB  ARG Q   2      19.938  10.874  16.169  1.00 13.50 LIG 0.04  C 
BRANCH 63 64
ATOM     64  CG  ARG Q   2      20.732   9.557  16.225  1.00 14.15 LIG 0.02  C 
BRANCH 64 65
ATOM     65  CD  ARG Q   2      20.051   8.481  15.393  1.00 12.93 LIG 0.14  C 
BRANCH 65 66
ATOM     66  NE  ARG Q   2      20.930   8.034  14.315  1.00 12.58 LIG-0.23  N 
ATOM     67 HE   ARG Q   2      21.604   7.547  14.534  1.00 12.58 LIG 0.18  HD
ATOM     68  CZ  ARG Q   2      20.774   8.315  13.014  1.00 11.80 LIG 0.67  C 
ATOM     69  NH2 ARG Q   2      21.624   7.810  12.136  1.00 12.39 LIG-0.23  N 
ATOM     70  NH1 ARG Q   2      19.795   9.100  12.585  1.00 13.65 LIG-0.23  N 
ATOM     71 2HH2 ARG Q   2      21.532   7.985  11.299  1.00 12.39 LIG 0.17  HD
ATOM     72 1HH2 ARG Q   2      22.269   7.306  12.402  1.00 12.39 LIG 0.17  HD
ATOM     73 2HH1 ARG Q   2      19.715   9.266  11.745  1.00 13.65 LIG 0.17  HD
ATOM     74 1HH1 ARG Q   2      19.241   9.442  13.147  1.00 13.65 LIG 0.17  HD
ENDBRANCH 65 66
ENDBRANCH 64 65
ENDBRANCH 63 64
ENDBRANCH 52 63
ENDBRANCH 49 52
ENDBRANCH 43 48
ENDBRANCH 41 43
ENDBRANCH 1 39
TORSDOF 30
ENDMDL
MODEL 17
USER: ADFR SOLUTION from run 104
USER: SCORE 21.225121 LL:  -4.997 LR: -19.613 RR:   0.000 FEB: -10.664
USER: RMSD 7.468021
USER: SEED 103
USER: STATUS no improvement in best in 4 clusters for 5 generations
USER: GENES 32
USER: genes 0 Translation |==|  0.64662 0.48775 0.39001
USER: genes 1 Rotation |==|  0.34145 0.24122 0.85989 0.66846
USER: genes 2 Torsion [C]-CA--CB-[CG] |==|  0.28338
USER: genes 3 Torsion [CA]-CB--CG-[CD] |==|  0.72718
USER: genes 4 Torsion [CB]-CG--CD-[CE] |==|  0.76370
USER: genes 5 Torsion [CG]-CD--CE-[NZ] |==|  0.83390
USER: genes 6 Torsion [CD]-CE--NZ-[HZ1] |==|  0.17252
USER: genes 7 Torsion [N]-CA--C-[N] |==|  0.02778
USER: genes 8 Torsion [C]-N--CA-[CB] |==|  0.17486
USER: genes 9 Torsion [N]-CA--CB-[CG] |==|  0.50282
USER: genes 10 Torsion [CA]-CB--CG-[CD] |==|  0.23150
USER: genes 11 Torsion [CB]-CG--CD-[OE1] |==|  0.97389
USER: genes 12 Torsion [N]-CA--C-[N] |==|  0.22089
USER: genes 13 Torsion [C]-N--CA-[CB] |==|  0.23232
USER: genes 14 Torsion [N]-CA--CB-[CG2] |==|  0.69104
USER: genes 15 Torsion [CA]-CB--OG1-[HG1] |==|  0.89992
USER: genes 16 Torsion [N]-CA--C-[N] |==|  0.61722
USER: genes 17 Torsion [C]-N--CA-[C] |==|  0.78732
USER: genes 18 Torsion [N]-CA--C-[O] |==|  0.89939
USER: genes 19 Torsion [CB]-CA--N-[C] |==|  0.82098
USER: genes 20 Torsion [N]-C--CA-[N] |==|  0.87578
USER: genes 21 Torsion [C]-CA--CB-[CG2] |==|  0.19846
USER: genes 22 Torsion [CA]-CB--OG1-[HG1] |==|  0.84459
USER: genes 23 Torsion [C]-CA--N-[C] |==|  0.20941
USER: genes 24 Torsion [N]-C--CA-[N] |==|  0.36871
USER: genes 25 Torsion [C]-CA--N-[C] |==|  0.81476
USER: genes 26 Torsion [N]-C--CA-[N] |==|  0.40768
USER: genes 27 Torsion [C]-CA--N-[H1] |==|  0.69650
USER: genes 28 Torsion [C]-CA--CB-[CG] |==|  0.79858
USER: genes 29 Torsion [CA]-CB--CG-[CD] |==|  0.26270
USER: genes 30 Torsion [CB]-CG--CD-[NE] |==|  0.52412
USER: genes 31 Torsion [CG]-CD--NE-[HE] |==|  0.65504
ROOT
ATOM      1  CA  LYS Q   4      19.110  10.916  13.951  1.00 15.20 LIG 0.18  C 
ENDROOT
BRANCH 1 2
ATOM      2  CB  LYS Q   4      20.220   9.872  13.856  1.00 14.69 LIG 0.04  C 
BRANCH 2 3
ATOM      3  CG  LYS Q   4      20.528   9.460  12.446  1.00 16.14 LIG 0.00  C 
BRANCH 3 4
ATOM      4  CD  LYS Q   4      19.836   8.174  12.093  1.00 18.10 LIG 0.03  C 
BRANCH 4 5
ATOM      5  CE  LYS Q   4      20.686   7.008  12.549  1.00 22.11 LIG 0.23  C 
BRANCH 5 6
ATOM      6  NZ  LYS Q   4      22.022   7.031  11.897  1.00 25.79 LIG-0.08  N 
ATOM      7 HZ1  LYS Q   4      22.454   7.773  12.131  1.00 25.79 LIG 0.27  HD
ATOM      8 HZ2  LYS Q   4      22.492   6.321  12.157  1.00 25.79 LIG 0.27  HD
ATOM      9 HZ3  LYS Q   4      21.921   7.013  11.013  1.00 25.79 LIG 0.27  HD
ENDBRANCH 5 6
ENDBRANCH 4 5
ENDBRANCH 3 4
ENDBRANCH 2 3
ENDBRANCH 1 2
BRANCH 1 10
ATOM     10  C   LYS Q   4      17.809  10.228  14.374  1.00 15.70 LIG 0.24  C 
ATOM     11  N   GLN Q   5      17.107  10.803  15.353  1.00 16.90 LIG-0.35  N 
ATOM     12 H    GLN Q   5      17.275  11.581  15.678  1.00 16.90 LIG 0.16  HD
ATOM     13 O    LYS Q   4      17.452   9.179  13.824  1.00 16.41 LIG-0.27  OA
BRANCH 11 14
ATOM     14  CA  GLN Q   5      15.960  10.118  15.960  1.00 18.58 LIG 0.18  C 
BRANCH 14 15
ATOM     15  CB  GLN Q   5      16.391   8.824  16.659  1.00 18.36 LIG 0.04  C 
BRANCH 15 16
ATOM     16  CG  GLN Q   5      15.257   8.030  17.302  1.00 19.34 LIG 0.10  C 
BRANCH 16 17
ATOM     17  CD  GLN Q   5      14.510   7.124  16.346  1.00 21.85 LIG 0.21  C 
ATOM     18  NE2 GLN Q   5      13.634   6.280  16.892  1.00 24.33 LIG-0.37  N 
ATOM     19 21HE GLN Q   5      13.525   6.265  17.745  1.00 24.33 LIG 0.16  HD
ATOM     20 22HE GLN Q   5      13.177   5.751  16.391  1.00 24.33 LIG 0.16  HD
ATOM     21 OE1  GLN Q   5      14.704   7.187  15.136  1.00 24.78 LIG-0.27  OA
ENDBRANCH 16 17
ENDBRANCH 15 16
ENDBRANCH 14 15
BRANCH 14 22
ATOM     22  C   GLN Q   5      15.203  11.013  16.931  1.00 20.15 LIG 0.24  C 
ATOM     23 O    GLN Q   5      15.390  10.900  18.147  1.00 22.37 LIG-0.27  OA
ATOM     24  N   THR Q   6      14.357  11.902  16.428  1.00 20.72 LIG-0.34  N 
ATOM     25 H    THR Q   6      14.272  12.079  15.590  1.00 20.72 LIG 0.16  HD
BRANCH 24 26
ATOM     26  CA  THR Q   6      13.480  12.665  17.321  1.00 22.01 LIG 0.20  C 
BRANCH 26 27
ATOM     27  CB  THR Q   6      14.171  13.905  17.921  1.00 21.09 LIG 0.15  C 
ATOM     28  CG2 THR Q   6      14.400  13.735  19.423  1.00 22.53 LIG 0.04  C 
BRANCH 27 29
ATOM     29 OG1  THR Q   6      15.426  14.119  17.266  1.00 19.47 LIG-0.39  OA
ATOM     30 HG1  THR Q   6      15.777  13.378  17.084  1.00 19.47 LIG 0.21  HD
ENDBRANCH 27 29
ENDBRANCH 26 27
BRANCH 26 31
ATOM     31  C   THR Q   6      12.181  13.076  16.633  1.00 23.85 LIG 0.24  C 
ATOM     32  N   ALA Q   7      11.746  14.316  16.858  1.00 25.35 LIG-0.35  N 
ATOM     33 H    ALA Q   7      12.147  14.870  17.380  1.00 25.35 LIG 0.16  HD
ATOM     34 O    THR Q   6      11.600  12.280  15.886  1.00 25.66 LIG-0.27  OA
BRANCH 32 35
ATOM     35  CA  ALA Q   7      10.534  14.863  16.231  1.00 27.02 LIG 0.16  C 
ATOM     36  CB  ALA Q   7      10.021  16.062  17.024  1.00 27.03 LIG 0.04  C 
BRANCH 35 37
ATOM     37  C   ALA Q   7      10.759  15.251  14.764  1.00 28.43 LIG 0.22  C 
ATOM     38 O    ALA Q   7      11.839  15.735  14.392  1.00 30.23 LIG-0.29  OA
ENDBRANCH 35 37
ENDBRANCH 32 35
ENDBRANCH 26 31
ENDBRANCH 24 26
ENDBRANCH 14 22
ENDBRANCH 11 14
ENDBRANCH 1 10
BRANCH 1 39
ATOM     39  N   LYS Q   4      19.499  11.991  14.862  1.00 13.85 LIG-0.35  N 
ATOM     40 H    LYS Q   4      19.584  12.761  14.488  1.00 13.85 LIG 0.16  HD
ATOM     41  C   THR Q   3      19.697  11.765  16.161  1.00 13.84 LIG 0.24  C 
ATOM     42 O    THR Q   3      19.521  10.663  16.696  1.00 14.15 LIG-0.27  OA
BRANCH 41 43
ATOM     43  CA  THR Q   3      20.199  12.940  16.973  1.00 13.21 LIG 0.20  C 
BRANCH 43 44
ATOM     44  CB  THR Q   3      18.988  13.848  17.306  1.00 13.38 LIG 0.15  C 
ATOM     45  CG2 THR Q   3      18.067  13.222  18.325  1.00 13.96 LIG 0.04  C 
BRANCH 44 46
ATOM     46 OG1  THR Q   3      19.430  15.141  17.745  1.00 13.85 LIG-0.39  OA
ATOM     47 HG1  THR Q   3      19.948  15.052  18.400  1.00 13.85 LIG 0.21  HD
ENDBRANCH 44 46
ENDBRANCH 43 44
BRANCH 43 48
ATOM     48  N   THR Q   3      21.278  13.635  16.264  1.00 13.00 LIG-0.34  N 
ATOM     49  C   ARG Q   2      21.040  14.430  15.225  1.00 13.30 LIG 0.24  C 
ATOM     50 O    ARG Q   2      19.943  14.531  14.691  1.00 13.04 LIG-0.27  OA
ATOM     51 H    THR Q   3      22.063  13.481  16.578  1.00 13.00 LIG 0.16  HD
BRANCH 49 52
ATOM     52  CA  ARG Q   2      22.221  15.210  14.696  1.00 13.85 LIG 0.18  C 
BRANCH 52 53
ATOM     53  N   ARG Q   2      22.270  15.086  13.247  1.00 14.89 LIG-0.35  N 
ATOM     54 H    ARG Q   2      22.119  15.824  12.832  1.00 14.89 LIG 0.16  HD
ATOM     55  C   ALA Q   1      22.523  13.944  12.625  1.00 17.12 LIG 0.25  C 
ATOM     56 O    ALA Q   1      22.745  12.880  13.215  1.00 19.52 LIG-0.27  OA
BRANCH 55 57
ATOM     57  CA  ALA Q   1      22.550  14.022  11.104  1.00 17.93 LIG 0.27  C 
ATOM     58  CB  ALA Q   1      21.153  13.783  10.515  1.00 18.07 LIG 0.05  C 
BRANCH 57 59
ATOM     59  N   ALA Q   1      23.544  13.064  10.535  1.00 19.51 LIG-0.07  N 
ATOM     60 H1   ALA Q   1      24.237  13.515  10.205  1.00 19.51 LIG 0.28  HD
ATOM     61 H3   ALA Q   1      23.162  12.590   9.885  1.00 19.51 LIG 0.28  HD
ATOM     62 H2   ALA Q   1      23.827  12.514  11.175  1.00 19.51 LIG 0.28  HD
ENDBRANCH 57 59
ENDBRANCH 55 57
ENDBRANCH 52 53
BRANCH 52 63
ATOM     63  CB  ARG Q   2      22.079  16.681  15.105  1.00 13.50 LIG 0.04  C 
BRANCH 63 64
ATOM     64  CG  ARG Q   2      20.987  17.451  14.341  1.00 14.15 LIG 0.02  C 
BRANCH 64 65
ATOM     65  CD  ARG Q   2      19.681  17.447  15.120  1.00 12.93 LIG 0.14  C 
BRANCH 65 66
ATOM     66  NE  ARG Q   2      18.598  17.996  14.307  1.00 12.58 LIG-0.23  N 
ATOM     67 HE   ARG Q   2      18.161  18.662  14.633  1.00 12.58 LIG 0.18  HD
ATOM     68  CZ  ARG Q   2      18.226  17.553  13.099  1.00 11.80 LIG 0.67  C 
ATOM     69  NH2 ARG Q   2      17.251  18.169  12.454  1.00 12.39 LIG-0.23  N 
ATOM     70  NH1 ARG Q   2      18.805  16.499  12.538  1.00 13.65 LIG-0.23  N 
ATOM     71 2HH2 ARG Q   2      17.006  17.891  11.677  1.00 12.39 LIG 0.17  HD
ATOM     72 1HH2 ARG Q   2      16.862  18.849  12.810  1.00 12.39 LIG 0.17  HD
ATOM     73 2HH1 ARG Q   2      18.550  16.232  11.761  1.00 13.65 LIG 0.17  HD
ATOM     74 1HH1 ARG Q   2      19.435  16.083  12.951  1.00 13.65 LIG 0.17  HD
ENDBRANCH 65 66
ENDBRANCH 64 65
ENDBRANCH 63 64
ENDBRANCH 52 63
ENDBRANCH 49 52
ENDBRANCH 43 48
ENDBRANCH 41 43
ENDBRANCH 1 39
TORSDOF 30
ENDMDL
MODEL 18
USER: ADFR SOLUTION from run 1
USER: SCORE 20.446986 LL:  -3.390 LR: -19.597 RR:   0.000 FEB: -10.648
USER: RMSD 10.081826
USER: SEED 488331
USER: STATUS searching
USER: GENES 32
USER: genes 0 Translation |==|  0.52609 0.43525 0.45343
USER: genes 1 Rotation |==|  0.58307 0.70628 0.05279 0.52354
USER: genes 2 Torsion [C]-CA--CB-[CG] |==|  0.42499
USER: genes 3 Torsion [CA]-CB--CG-[CD] |==|  0.73110
USER: genes 4 Torsion [CB]-CG--CD-[CE] |==|  0.66387
USER: genes 5 Torsion [CG]-CD--CE-[NZ] |==|  0.64824
USER: genes 6 Torsion [CD]-CE--NZ-[HZ1] |==|  0.34056
USER: genes 7 Torsion [N]-CA--C-[N] |==|  0.68899
USER: genes 8 Torsion [C]-N--CA-[CB] |==|  0.73849
USER: genes 9 Torsion [N]-CA--CB-[CG] |==|  0.55613
USER: genes 10 Torsion [CA]-CB--CG-[CD] |==|  0.12562
USER: genes 11 Torsion [CB]-CG--CD-[OE1] |==|  0.63232
USER: genes 12 Torsion [N]-CA--C-[N] |==|  0.62778
USER: genes 13 Torsion [C]-N--CA-[CB] |==|  0.18856
USER: genes 14 Torsion [N]-CA--CB-[CG2] |==|  0.72796
USER: genes 15 Torsion [CA]-CB--OG1-[HG1] |==|  0.80650
USER: genes 16 Torsion [N]-CA--C-[N] |==|  0.06233
USER: genes 17 Torsion [C]-N--CA-[C] |==|  0.83494
USER: genes 18 Torsion [N]-CA--C-[O] |==|  0.67298
USER: genes 19 Torsion [CB]-CA--N-[C] |==|  0.74424
USER: genes 20 Torsion [N]-C--CA-[N] |==|  0.30472
USER: genes 21 Torsion [C]-CA--CB-[CG2] |==|  0.23943
USER: genes 22 Torsion [CA]-CB--OG1-[HG1] |==|  0.02961
USER: genes 23 Torsion [C]-CA--N-[C] |==|  0.57971
USER: genes 24 Torsion [N]-C--CA-[N] |==|  0.12074
USER: genes 25 Torsion [C]-CA--N-[C] |==|  0.17205
USER: genes 26 Torsion [N]-C--CA-[N] |==|  0.79365
USER: genes 27 Torsion [C]-CA--N-[H1] |==|  0.11369
USER: genes 28 Torsion [C]-CA--CB-[CG] |==|  0.36535
USER: genes 29 Torsion [CA]-CB--CG-[CD] |==|  0.55043
USER: genes 30 Torsion [CB]-CG--CD-[NE] |==|  0.78751
USER: genes 31 Torsion [CG]-CD--NE-[HE] |==|  0.73703
ROOT
ATOM      1  CA  LYS Q   4      16.217   9.892  15.283  1.00 15.20 LIG 0.18  C 
ENDROOT
BRANCH 1 2
ATOM      2  CB  LYS Q   4      17.733   9.981  15.439  1.00 14.69 LIG 0.04  C 
BRANCH 2 3
ATOM      3  CG  LYS Q   4      18.424  10.527  14.224  1.00 16.14 LIG 0.00  C 
BRANCH 3 4
ATOM      4  CD  LYS Q   4      18.948   9.421  13.354  1.00 18.10 LIG 0.03  C 
BRANCH 4 5
ATOM      5  CE  LYS Q   4      20.446   9.570  13.202  1.00 22.11 LIG 0.23  C 
BRANCH 5 6
ATOM      6  NZ  LYS Q   4      20.841   9.583  11.769  1.00 25.79 LIG-0.08  N 
ATOM      7 HZ1  LYS Q   4      21.282  10.335  11.590  1.00 25.79 LIG 0.27  HD
ATOM      8 HZ2  LYS Q   4      21.365   8.885  11.598  1.00 25.79 LIG 0.27  HD
ATOM      9 HZ3  LYS Q   4      20.113   9.539  11.260  1.00 25.79 LIG 0.27  HD
ENDBRANCH 5 6
ENDBRANCH 4 5
ENDBRANCH 3 4
ENDBRANCH 2 3
ENDBRANCH 1 2
BRANCH 1 10
ATOM     10  C   LYS Q   4      15.684   8.776  16.185  1.00 15.70 LIG 0.24  C 
ATOM     11  N   GLN Q   5      16.531   8.257  17.077  1.00 16.90 LIG-0.35  N 
ATOM     12 H    GLN Q   5      17.308   8.581  17.253  1.00 16.90 LIG 0.16  HD
ATOM     13 O    LYS Q   4      14.519   8.381  16.064  1.00 16.41 LIG-0.27  OA
BRANCH 11 14
ATOM     14  CA  GLN Q   5      16.178   7.057  17.843  1.00 18.58 LIG 0.18  C 
BRANCH 14 15
ATOM     15  CB  GLN Q   5      15.565   7.424  19.199  1.00 18.36 LIG 0.04  C 
BRANCH 15 16
ATOM     16  CG  GLN Q   5      15.609   6.315  20.248  1.00 19.34 LIG 0.10  C 
BRANCH 16 17
ATOM     17  CD  GLN Q   5      16.940   5.602  20.346  1.00 21.85 LIG 0.21  C 
ATOM     18  NE2 GLN Q   5      18.024   6.377  20.421  1.00 24.33 LIG-0.37  N 
ATOM     19 21HE GLN Q   5      17.943   7.232  20.403  1.00 24.33 LIG 0.16  HD
ATOM     20 22HE GLN Q   5      18.804   6.020  20.487  1.00 24.33 LIG 0.16  HD
ATOM     21 OE1  GLN Q   5      17.000   4.376  20.367  1.00 24.78 LIG-0.27  OA
ENDBRANCH 16 17
ENDBRANCH 15 16
ENDBRANCH 14 15
BRANCH 14 22
ATOM     22  C   GLN Q   5      15.242   6.137  17.074  1.00 20.15 LIG 0.24  C 
ATOM     23 O    GLN Q   5      15.479   5.865  15.892  1.00 22.37 LIG-0.27  OA
ATOM     24  N   THR Q   6      14.189   5.645  17.712  1.00 20.72 LIG-0.34  N 
ATOM     25 H    THR Q   6      14.043   5.728  18.556  1.00 20.72 LIG 0.16  HD
BRANCH 24 26
ATOM     26  CA  THR Q   6      13.168   4.897  16.972  1.00 22.01 LIG 0.20  C 
BRANCH 26 27
ATOM     27  CB  THR Q   6      13.685   3.545  16.442  1.00 21.09 LIG 0.15  C 
ATOM     28  CG2 THR Q   6      14.102   3.651  14.976  1.00 22.53 LIG 0.04  C 
BRANCH 27 29
ATOM     29 OG1  THR Q   6      14.801   3.116  17.229  1.00 19.47 LIG-0.39  OA
ATOM     30 HG1  THR Q   6      15.459   3.616  17.077  1.00 19.47 LIG 0.21  HD
ENDBRANCH 27 29
ENDBRANCH 26 27
BRANCH 26 31
ATOM     31  C   THR Q   6      11.904   4.682  17.801  1.00 23.85 LIG 0.24  C 
ATOM     32  N   ALA Q   7      11.693   5.530  18.808  1.00 25.35 LIG-0.35  N 
ATOM     33 H    ALA Q   7      12.239   6.161  19.017  1.00 25.35 LIG 0.16  HD
ATOM     34 O    THR Q   6      11.120   3.772  17.507  1.00 25.66 LIG-0.27  OA
BRANCH 32 35
ATOM     35  CA  ALA Q   7      10.499   5.470  19.665  1.00 27.02 LIG 0.16  C 
ATOM     36  CB  ALA Q   7      10.586   6.521  20.768  1.00 27.03 LIG 0.04  C 
BRANCH 35 37
ATOM     37  C   ALA Q   7       9.200   5.639  18.868  1.00 28.43 LIG 0.22  C 
ATOM     38 O    ALA Q   7       8.442   6.597  19.080  1.00 30.23 LIG-0.29  OA
ENDBRANCH 35 37
ENDBRANCH 32 35
ENDBRANCH 26 31
ENDBRANCH 24 26
ENDBRANCH 14 22
ENDBRANCH 11 14
ENDBRANCH 1 10
BRANCH 1 39
ATOM     39  N   LYS Q   4      15.600  11.187  15.566  1.00 13.85 LIG-0.35  N 
ATOM     40 H    LYS Q   4      15.540  11.710  14.886  1.00 13.85 LIG 0.16  HD
ATOM     41  C   THR Q   3      15.172  11.501  16.790  1.00 13.84 LIG 0.24  C 
ATOM     42 O    THR Q   3      15.217  10.721  17.749  1.00 14.15 LIG-0.27  OA
BRANCH 41 43
ATOM     43  CA  THR Q   3      14.650  12.910  16.971  1.00 13.21 LIG 0.20  C 
BRANCH 43 44
ATOM     44  CB  THR Q   3      15.430  13.567  18.137  1.00 13.38 LIG 0.15  C 
ATOM     45  CG2 THR Q   3      16.721  14.202  17.676  1.00 13.96 LIG 0.04  C 
BRANCH 44 46
ATOM     46 OG1  THR Q   3      14.609  14.525  18.821  1.00 13.85 LIG-0.39  OA
ATOM     47 HG1  THR Q   3      13.814  14.450  18.559  1.00 13.85 LIG 0.21  HD
ENDBRANCH 44 46
ENDBRANCH 43 44
BRANCH 43 48
ATOM     48  N   THR Q   3      13.197  12.901  17.167  1.00 13.00 LIG-0.34  N 
ATOM     49  C   ARG Q   2      12.431  13.925  16.802  1.00 13.30 LIG 0.24  C 
ATOM     50 O    ARG Q   2      12.879  14.998  16.420  1.00 13.04 LIG-0.27  OA
ATOM     51 H    THR Q   3      12.895  12.184  17.532  1.00 13.00 LIG 0.16  HD
BRANCH 49 52
ATOM     52  CA  ARG Q   2      10.939  13.715  16.908  1.00 13.85 LIG 0.18  C 
BRANCH 52 53
ATOM     53  N   ARG Q   2      10.634  13.051  18.167  1.00 14.89 LIG-0.35  N 
ATOM     54 H    ARG Q   2      10.266  12.280  18.070  1.00 14.89 LIG 0.16  HD
ATOM     55  C   ALA Q   1      10.898  13.584  19.350  1.00 17.12 LIG 0.25  C 
ATOM     56 O    ALA Q   1      11.430  14.690  19.498  1.00 19.52 LIG-0.27  OA
BRANCH 55 57
ATOM     57  CA  ALA Q   1      10.522  12.725  20.551  1.00 17.93 LIG 0.27  C 
ATOM     58  CB  ALA Q   1      11.068  11.299  20.400  1.00 18.07 LIG 0.05  C 
BRANCH 57 59
ATOM     59  N   ALA Q   1       9.042  12.715  20.760  1.00 19.51 LIG-0.07  N 
ATOM     60 H1   ALA Q   1       8.631  12.655  19.973  1.00 19.51 LIG 0.28  HD
ATOM     61 H3   ALA Q   1       8.795  13.467  21.168  1.00 19.51 LIG 0.28  HD
ATOM     62 H2   ALA Q   1       8.819  12.016  21.265  1.00 19.51 LIG 0.28  HD
ENDBRANCH 57 59
ENDBRANCH 55 57
ENDBRANCH 52 53
BRANCH 52 63
ATOM     63  CB  ARG Q   2      10.231  15.072  16.831  1.00 13.50 LIG 0.04  C 
BRANCH 63 64
ATOM     64  CG  ARG Q   2       9.054  15.120  15.841  1.00 14.15 LIG 0.02  C 
BRANCH 64 65
ATOM     65  CD  ARG Q   2       8.702  16.558  15.492  1.00 12.93 LIG 0.14  C 
BRANCH 65 66
ATOM     66  NE  ARG Q   2       7.962  17.185  16.584  1.00 12.58 LIG-0.23  N 
ATOM     67 HE   ARG Q   2       7.103  17.171  16.536  1.00 12.58 LIG 0.18  HD
ATOM     68  CZ  ARG Q   2       8.505  17.779  17.655  1.00 11.80 LIG 0.67  C 
ATOM     69  NH2 ARG Q   2       7.714  18.273  18.592  1.00 12.39 LIG-0.23  N 
ATOM     70  NH1 ARG Q   2       9.819  17.897  17.792  1.00 13.65 LIG-0.23  N 
ATOM     71 2HH2 ARG Q   2       8.054  18.657  19.283  1.00 12.39 LIG 0.17  HD
ATOM     72 1HH2 ARG Q   2       6.860  18.211  18.511  1.00 12.39 LIG 0.17  HD
ATOM     73 2HH1 ARG Q   2      10.145  18.283  18.488  1.00 13.65 LIG 0.17  HD
ATOM     74 1HH1 ARG Q   2      10.344  17.588  17.185  1.00 13.65 LIG 0.17  HD
ENDBRANCH 65 66
ENDBRANCH 64 65
ENDBRANCH 63 64
ENDBRANCH 52 63
ENDBRANCH 49 52
ENDBRANCH 43 48
ENDBRANCH 41 43
ENDBRANCH 1 39
TORSDOF 30
ENDMDL
MODEL 19
USER: ADFR SOLUTION from run 126
USER: SCORE 20.146112 LL:  -4.259 LR: -19.542 RR:   0.000 FEB: -10.593
USER: RMSD 9.822497
USER: SEED 125
USER: STATUS no improvement in best in 2 clusters for 5 generations
USER: GENES 32
USER: genes 0 Translation |==|  0.67195 0.44795 0.40815
USER: genes 1 Rotation |==|  0.20273 0.50551 0.16349 0.71992
USER: genes 2 Torsion [C]-CA--CB-[CG] |==|  0.06678
USER: genes 3 Torsion [CA]-CB--CG-[CD] |==|  0.69551
USER: genes 4 Torsion [CB]-CG--CD-[CE] |==|  0.56122
USER: genes 5 Torsion [CG]-CD--CE-[NZ] |==|  0.24938
USER: genes 6 Torsion [CD]-CE--NZ-[HZ1] |==|  0.03291
USER: genes 7 Torsion [N]-CA--C-[N] |==|  0.84203
USER: genes 8 Torsion [C]-N--CA-[CB] |==|  0.16111
USER: genes 9 Torsion [N]-CA--CB-[CG] |==|  0.43727
USER: genes 10 Torsion [CA]-CB--CG-[CD] |==|  0.68577
USER: genes 11 Torsion [CB]-CG--CD-[OE1] |==|  0.84936
USER: genes 12 Torsion [N]-CA--C-[N] |==|  0.81972
USER: genes 13 Torsion [C]-N--CA-[CB] |==|  0.20360
USER: genes 14 Torsion [N]-CA--CB-[CG2] |==|  0.61460
USER: genes 15 Torsion [CA]-CB--OG1-[HG1] |==|  0.41650
USER: genes 16 Torsion [N]-CA--C-[N] |==|  0.48270
USER: genes 17 Torsion [C]-N--CA-[C] |==|  0.54287
USER: genes 18 Torsion [N]-CA--C-[O] |==|  0.75558
USER: genes 19 Torsion [CB]-CA--N-[C] |==|  0.16379
USER: genes 20 Torsion [N]-C--CA-[N] |==|  0.23812
USER: genes 21 Torsion [C]-CA--CB-[CG2] |==|  0.18572
USER: genes 22 Torsion [CA]-CB--OG1-[HG1] |==|  0.79348
USER: genes 23 Torsion [C]-CA--N-[C] |==|  0.59103
USER: genes 24 Torsion [N]-C--CA-[N] |==|  0.28361
USER: genes 25 Torsion [C]-CA--N-[C] |==|  0.52904
USER: genes 26 Torsion [N]-C--CA-[N] |==|  0.10798
USER: genes 27 Torsion [C]-CA--N-[H1] |==|  0.29804
USER: genes 28 Torsion [C]-CA--CB-[CG] |==|  0.79368
USER: genes 29 Torsion [CA]-CB--CG-[CD] |==|  0.72570
USER: genes 30 Torsion [CB]-CG--CD-[NE] |==|  0.74780
USER: genes 31 Torsion [CG]-CD--NE-[HE] |==|  0.94933
ROOT
ATOM      1  CA  LYS Q   4      19.718  10.140  14.332  1.00 15.20 LIG 0.18  C 
ENDROOT
BRANCH 1 2
ATOM      2  CB  LYS Q   4      19.380  10.745  12.972  1.00 14.69 LIG 0.04  C 
BRANCH 2 3
ATOM      3  CG  LYS Q   4      20.554  11.401  12.306  1.00 16.14 LIG 0.00  C 
BRANCH 3 4
ATOM      4  CD  LYS Q   4      20.401  12.895  12.283  1.00 18.10 LIG 0.03  C 
BRANCH 4 5
ATOM      5  CE  LYS Q   4      21.263  13.469  11.180  1.00 22.11 LIG 0.23  C 
BRANCH 5 6
ATOM      6  NZ  LYS Q   4      20.513  13.546   9.899  1.00 25.79 LIG-0.08  N 
ATOM      7 HZ1  LYS Q   4      19.648  13.402  10.052  1.00 25.79 LIG 0.27  HD
ATOM      8 HZ2  LYS Q   4      20.619  14.353   9.539  1.00 25.79 LIG 0.27  HD
ATOM      9 HZ3  LYS Q   4      20.820  12.928   9.337  1.00 25.79 LIG 0.27  HD
ENDBRANCH 5 6
ENDBRANCH 4 5
ENDBRANCH 3 4
ENDBRANCH 2 3
ENDBRANCH 1 2
BRANCH 1 10
ATOM     10  C   LYS Q   4      20.943  10.854  14.909  1.00 15.70 LIG 0.24  C 
ATOM     11  N   GLN Q   5      20.803  12.141  15.230  1.00 16.90 LIG-0.35  N 
ATOM     12 H    GLN Q   5      20.051  12.559  15.242  1.00 16.90 LIG 0.16  HD
ATOM     13 O    LYS Q   4      22.010  10.244  15.049  1.00 16.41 LIG-0.27  OA
BRANCH 11 14
ATOM     14  CA  GLN Q   5      21.964  12.959  15.600  1.00 18.58 LIG 0.18  C 
BRANCH 14 15
ATOM     15  CB  GLN Q   5      23.010  12.976  14.479  1.00 18.36 LIG 0.04  C 
BRANCH 15 16
ATOM     16  CG  GLN Q   5      23.962  14.169  14.504  1.00 19.34 LIG 0.10  C 
BRANCH 16 17
ATOM     17  CD  GLN Q   5      23.801  15.120  13.338  1.00 21.85 LIG 0.21  C 
ATOM     18  NE2 GLN Q   5      23.612  16.405  13.642  1.00 24.33 LIG-0.37  N 
ATOM     19 21HE GLN Q   5      23.579  16.652  14.465  1.00 24.33 LIG 0.16  HD
ATOM     20 22HE GLN Q   5      23.525  16.987  13.015  1.00 24.33 LIG 0.16  HD
ATOM     21 OE1  GLN Q   5      23.858  14.715  12.181  1.00 24.78 LIG-0.27  OA
ENDBRANCH 16 17
ENDBRANCH 15 16
ENDBRANCH 14 15
BRANCH 14 22
ATOM     22  C   GLN Q   5      21.573  14.379  15.976  1.00 20.15 LIG 0.24  C 
ATOM     23 O    GLN Q   5      21.753  14.783  17.130  1.00 22.37 LIG-0.27  OA
ATOM     24  N   THR Q   6      21.047  15.151  15.034  1.00 20.72 LIG-0.34  N 
ATOM     25 H    THR Q   6      20.997  14.943  14.201  1.00 20.72 LIG 0.16  HD
BRANCH 24 26
ATOM     26  CA  THR Q   6      20.497  16.464  15.386  1.00 22.01 LIG 0.20  C 
BRANCH 26 27
ATOM     27  CB  THR Q   6      21.588  17.503  15.705  1.00 21.09 LIG 0.15  C 
ATOM     28  CG2 THR Q   6      21.199  18.359  16.910  1.00 22.53 LIG 0.04  C 
BRANCH 27 29
ATOM     29 OG1  THR Q   6      22.825  16.834  15.972  1.00 19.47 LIG-0.39  OA
ATOM     30 HG1  THR Q   6      23.466  17.327  15.745  1.00 19.47 LIG 0.21  HD
ENDBRANCH 27 29
ENDBRANCH 26 27
BRANCH 26 31
ATOM     31  C   THR Q   6      19.566  17.002  14.303  1.00 23.85 LIG 0.24  C 
ATOM     32  N   ALA Q   7      18.911  18.131  14.577  1.00 25.35 LIG-0.35  N 
ATOM     33 H    ALA Q   7      18.973  18.542  15.330  1.00 25.35 LIG 0.16  HD
ATOM     34 O    THR Q   6      19.469  16.410  13.221  1.00 25.66 LIG-0.27  OA
BRANCH 32 35
ATOM     35  CA  ALA Q   7      18.014  18.787  13.615  1.00 27.02 LIG 0.16  C 
ATOM     36  CB  ALA Q   7      16.729  17.979  13.451  1.00 27.03 LIG 0.04  C 
BRANCH 35 37
ATOM     37  C   ALA Q   7      17.688  20.232  14.013  1.00 28.43 LIG 0.22  C 
ATOM     38 O    ALA Q   7      16.731  20.486  14.761  1.00 30.23 LIG-0.29  OA
ENDBRANCH 35 37
ENDBRANCH 32 35
ENDBRANCH 26 31
ENDBRANCH 24 26
ENDBRANCH 14 22
ENDBRANCH 11 14
ENDBRANCH 1 10
BRANCH 1 39
ATOM     39  N   LYS Q   4      18.559  10.206  15.221  1.00 13.85 LIG-0.35  N 
ATOM     40 H    LYS Q   4      18.691  10.646  15.947  1.00 13.85 LIG 0.16  HD
ATOM     41  C   THR Q   3      17.404   9.620  14.902  1.00 13.84 LIG 0.24  C 
ATOM     42 O    THR Q   3      17.210   9.033  13.830  1.00 14.15 LIG-0.27  OA
BRANCH 41 43
ATOM     43  CA  THR Q   3      16.318   9.673  15.955  1.00 13.21 LIG 0.20  C 
BRANCH 43 44
ATOM     44  CB  THR Q   3      15.446   8.401  15.812  1.00 13.38 LIG 0.15  C 
ATOM     45  CG2 THR Q   3      16.206   7.144  16.164  1.00 13.96 LIG 0.04  C 
BRANCH 44 46
ATOM     46 OG1  THR Q   3      14.253   8.512  16.602  1.00 13.85 LIG-0.39  OA
ATOM     47 HG1  THR Q   3      14.444   8.413  17.414  1.00 13.85 LIG 0.21  HD
ENDBRANCH 44 46
ENDBRANCH 43 44
BRANCH 43 48
ATOM     48  N   THR Q   3      15.557  10.922  15.850  1.00 13.00 LIG-0.34  N 
ATOM     49  C   ARG Q   2      15.039  11.522  16.918  1.00 13.30 LIG 0.24  C 
ATOM     50 O    ARG Q   2      15.023  11.017  18.033  1.00 13.04 LIG-0.27  OA
ATOM     51 H    THR Q   3      15.481  11.223  15.049  1.00 13.00 LIG 0.16  HD
BRANCH 49 52
ATOM     52  CA  ARG Q   2      14.425  12.883  16.688  1.00 13.85 LIG 0.18  C 
BRANCH 52 53
ATOM     53  N   ARG Q   2      12.977  12.757  16.641  1.00 14.89 LIG-0.35  N 
ATOM     54 H    ARG Q   2      12.689  11.985  16.888  1.00 14.89 LIG 0.16  HD
ATOM     55  C   ALA Q   1      12.175  13.739  16.256  1.00 17.12 LIG 0.25  C 
ATOM     56 O    ALA Q   1      12.580  14.853  15.904  1.00 19.52 LIG-0.27  OA
BRANCH 55 57
ATOM     57  CA  ALA Q   1      10.686  13.418  16.294  1.00 17.93 LIG 0.27  C 
ATOM     58  CB  ALA Q   1       9.845  14.701  16.245  1.00 18.07 LIG 0.05  C 
BRANCH 57 59
ATOM     59  N   ALA Q   1      10.345  12.597  17.495  1.00 19.51 LIG-0.07  N 
ATOM     60 H1   ALA Q   1       9.904  13.099  18.083  1.00 19.51 LIG 0.28  HD
ATOM     61 H3   ALA Q   1      11.093  12.291  17.868  1.00 19.51 LIG 0.28  HD
ATOM     62 H2   ALA Q   1       9.834  11.910  17.249  1.00 19.51 LIG 0.28  HD
ENDBRANCH 57 59
ENDBRANCH 55 57
ENDBRANCH 52 53
BRANCH 52 63
ATOM     63  CB  ARG Q   2      14.847  13.825  17.821  1.00 13.50 LIG 0.04  C 
BRANCH 63 64
ATOM     64  CG  ARG Q   2      14.135  13.565  19.161  1.00 14.15 LIG 0.02  C 
BRANCH 64 65
ATOM     65  CD  ARG Q   2      12.979  14.534  19.354  1.00 12.93 LIG 0.14  C 
BRANCH 65 66
ATOM     66  NE  ARG Q   2      13.428  15.736  20.053  1.00 12.58 LIG-0.23  N 
ATOM     67 HE   ARG Q   2      14.170  15.685  20.484  1.00 12.58 LIG 0.18  HD
ATOM     68  CZ  ARG Q   2      12.782  16.909  20.082  1.00 11.80 LIG 0.67  C 
ATOM     69  NH2 ARG Q   2      13.323  17.930  20.724  1.00 12.39 LIG-0.23  N 
ATOM     70  NH1 ARG Q   2      11.604  17.068  19.493  1.00 13.65 LIG-0.23  N 
ATOM     71 2HH2 ARG Q   2      12.915  18.688  20.747  1.00 12.39 LIG 0.17  HD
ATOM     72 1HH2 ARG Q   2      14.082  17.838  21.118  1.00 12.39 LIG 0.17  HD
ATOM     73 2HH1 ARG Q   2      11.208  17.831  19.524  1.00 13.65 LIG 0.17  HD
ATOM     74 1HH1 ARG Q   2      11.238  16.409  19.079  1.00 13.65 LIG 0.17  HD
ENDBRANCH 65 66
ENDBRANCH 64 65
ENDBRANCH 63 64
ENDBRANCH 52 63
ENDBRANCH 49 52
ENDBRANCH 43 48
ENDBRANCH 41 43
ENDBRANCH 1 39
TORSDOF 30
ENDMDL
MODEL 20
USER: ADFR SOLUTION from run 54
USER: SCORE 19.837767 LL:  -3.588 LR: -19.510 RR:   0.000 FEB: -10.561
USER: RMSD 10.423825
USER: SEED 53
USER: STATUS no improvement in best in 2 clusters for 5 generations
USER: GENES 32
USER: genes 0 Translation |==|  0.55167 0.41628 0.47457
USER: genes 1 Rotation |==|  0.94008 0.65710 0.64520 0.60276
USER: genes 2 Torsion [C]-CA--CB-[CG] |==|  0.26786
USER: genes 3 Torsion [CA]-CB--CG-[CD] |==|  0.53745
USER: genes 4 Torsion [CB]-CG--CD-[CE] |==|  0.80632
USER: genes 5 Torsion [CG]-CD--CE-[NZ] |==|  0.74194
USER: genes 6 Torsion [CD]-CE--NZ-[HZ1] |==|  0.49232
USER: genes 7 Torsion [N]-CA--C-[N] |==|  0.43023
USER: genes 8 Torsion [C]-N--CA-[CB] |==|  0.78687
USER: genes 9 Torsion [N]-CA--CB-[CG] |==|  0.66208
USER: genes 10 Torsion [CA]-CB--CG-[CD] |==|  0.14413
USER: genes 11 Torsion [CB]-CG--CD-[OE1] |==|  0.19056
USER: genes 12 Torsion [N]-CA--C-[N] |==|  0.12227
USER: genes 13 Torsion [C]-N--CA-[CB] |==|  0.79924
USER: genes 14 Torsion [N]-CA--CB-[CG2] |==|  0.55941
USER: genes 15 Torsion [CA]-CB--OG1-[HG1] |==|  0.33987
USER: genes 16 Torsion [N]-CA--C-[N] |==|  0.70376
USER: genes 17 Torsion [C]-N--CA-[C] |==|  0.18530
USER: genes 18 Torsion [N]-CA--C-[O] |==|  0.85538
USER: genes 19 Torsion [CB]-CA--N-[C] |==|  0.19224
USER: genes 20 Torsion [N]-C--CA-[N] |==|  0.41781
USER: genes 21 Torsion [C]-CA--CB-[CG2] |==|  0.77440
USER: genes 22 Torsion [CA]-CB--OG1-[HG1] |==|  0.27504
USER: genes 23 Torsion [C]-CA--N-[C] |==|  0.55177
USER: genes 24 Torsion [N]-C--CA-[N] |==|  0.33957
USER: genes 25 Torsion [C]-CA--N-[C] |==|  0.61972
USER: genes 26 Torsion [N]-C--CA-[N] |==|  0.94881
USER: genes 27 Torsion [C]-CA--N-[H1] |==|  0.86723
USER: genes 28 Torsion [C]-CA--CB-[CG] |==|  0.53334
USER: genes 29 Torsion [CA]-CB--CG-[CD] |==|  0.37279
USER: genes 30 Torsion [CB]-CG--CD-[NE] |==|  0.63756
USER: genes 31 Torsion [CG]-CD--NE-[HE] |==|  0.75723
ROOT
ATOM      1  CA  LYS Q   4      16.831   9.522  15.727  1.00 15.20 LIG 0.18  C 
ENDROOT
BRANCH 1 2
ATOM      2  CB  LYS Q   4      15.736   8.479  15.526  1.00 14.69 LIG 0.04  C 
BRANCH 2 3
ATOM      3  CG  LYS Q   4      15.933   7.243  16.355  1.00 16.14 LIG 0.00  C 
BRANCH 3 4
ATOM      4  CD  LYS Q   4      15.036   6.130  15.893  1.00 18.10 LIG 0.03  C 
BRANCH 4 5
ATOM      5  CE  LYS Q   4      13.601   6.471  16.233  1.00 22.11 LIG 0.23  C 
BRANCH 5 6
ATOM      6  NZ  LYS Q   4      13.216   5.905  17.553  1.00 25.79 LIG-0.08  N 
ATOM      7 HZ1  LYS Q   4      12.384   6.151  17.750  1.00 25.79 LIG 0.27  HD
ATOM      8 HZ2  LYS Q   4      13.262   5.017  17.521  1.00 25.79 LIG 0.27  HD
ATOM      9 HZ3  LYS Q   4      13.770   6.208  18.180  1.00 25.79 LIG 0.27  HD
ENDBRANCH 5 6
ENDBRANCH 4 5
ENDBRANCH 3 4
ENDBRANCH 2 3
ENDBRANCH 1 2
BRANCH 1 10
ATOM     10  C   LYS Q   4      17.879   9.370  14.621  1.00 15.70 LIG 0.24  C 
ATOM     11  N   GLN Q   5      18.809   8.428  14.790  1.00 16.90 LIG-0.35  N 
ATOM     12 H    GLN Q   5      18.793   7.836  15.413  1.00 16.90 LIG 0.16  HD
ATOM     13 O    LYS Q   4      17.849  10.109  13.629  1.00 16.41 LIG-0.27  OA
BRANCH 11 14
ATOM     14  CA  GLN Q   5      19.965   8.339  13.890  1.00 18.58 LIG 0.18  C 
BRANCH 14 15
ATOM     15  CB  GLN Q   5      19.576   7.708  12.548  1.00 18.36 LIG 0.04  C 
BRANCH 15 16
ATOM     16  CG  GLN Q   5      20.350   6.444  12.182  1.00 19.34 LIG 0.10  C 
BRANCH 16 17
ATOM     17  CD  GLN Q   5      20.356   5.382  13.260  1.00 21.85 LIG 0.21  C 
ATOM     18  NE2 GLN Q   5      21.522   5.160  13.868  1.00 24.33 LIG-0.37  N 
ATOM     19 21HE GLN Q   5      22.220   5.604  13.634  1.00 24.33 LIG 0.16  HD
ATOM     20 22HE GLN Q   5      21.577   4.573  14.494  1.00 24.33 LIG 0.16  HD
ATOM     21 OE1  GLN Q   5      19.329   4.777  13.556  1.00 24.78 LIG-0.27  OA
ENDBRANCH 16 17
ENDBRANCH 15 16
ENDBRANCH 14 15
BRANCH 14 22
ATOM     22  C   GLN Q   5      20.625   9.691  13.664  1.00 20.15 LIG 0.24  C 
ATOM     23 O    GLN Q   5      20.961  10.030  12.524  1.00 22.37 LIG-0.27  OA
ATOM     24  N   THR Q   6      20.815  10.475  14.716  1.00 20.72 LIG-0.34  N 
ATOM     25 H    THR Q   6      20.508  10.321  15.505  1.00 20.72 LIG 0.16  HD
BRANCH 24 26
ATOM     26  CA  THR Q   6      21.598  11.707  14.580  1.00 22.01 LIG 0.20  C 
BRANCH 26 27
ATOM     27  CB  THR Q   6      23.107  11.441  14.409  1.00 21.09 LIG 0.15  C 
ATOM     28  CG2 THR Q   6      23.930  12.670  14.792  1.00 22.53 LIG 0.04  C 
BRANCH 27 29
ATOM     29 OG1  THR Q   6      23.493  10.331  15.227  1.00 19.47 LIG-0.39  OA
ATOM     30 HG1  THR Q   6      23.838   9.735  14.745  1.00 19.47 LIG 0.21  HD
ENDBRANCH 27 29
ENDBRANCH 26 27
BRANCH 26 31
ATOM     31  C   THR Q   6      21.092  12.582  13.437  1.00 23.85 LIG 0.24  C 
ATOM     32  N   ALA Q   7      21.842  12.627  12.335  1.00 25.35 LIG-0.35  N 
ATOM     33 H    ALA Q   7      22.591  12.213  12.256  1.00 25.35 LIG 0.16  HD
ATOM     34 O    THR Q   6      20.018  13.185  13.549  1.00 25.66 LIG-0.27  OA
BRANCH 32 35
ATOM     35  CA  ALA Q   7      21.459  13.395  11.140  1.00 27.02 LIG 0.16  C 
ATOM     36  CB  ALA Q   7      20.091  12.944  10.636  1.00 27.03 LIG 0.04  C 
BRANCH 35 37
ATOM     37  C   ALA Q   7      21.463  14.907  11.392  1.00 28.43 LIG 0.22  C 
ATOM     38 O    ALA Q   7      20.845  15.396  12.350  1.00 30.23 LIG-0.29  OA
ENDBRANCH 35 37
ENDBRANCH 32 35
ENDBRANCH 26 31
ENDBRANCH 24 26
ENDBRANCH 14 22
ENDBRANCH 11 14
ENDBRANCH 1 10
BRANCH 1 39
ATOM     39  N   LYS Q   4      16.253  10.864  15.773  1.00 13.85 LIG-0.35  N 
ATOM     40 H    LYS Q   4      16.443  11.358  15.095  1.00 13.85 LIG 0.16  HD
ATOM     41  C   THR Q   3      15.497  11.262  16.798  1.00 13.84 LIG 0.24  C 
ATOM     42 O    THR Q   3      15.189  10.525  17.743  1.00 14.15 LIG-0.27  OA
BRANCH 41 43
ATOM     43  CA  THR Q   3      15.049  12.707  16.774  1.00 13.21 LIG 0.20  C 
BRANCH 43 44
ATOM     44  CB  THR Q   3      16.179  13.572  17.384  1.00 13.38 LIG 0.15  C 
ATOM     45  CG2 THR Q   3      16.155  13.564  18.894  1.00 13.96 LIG 0.04  C 
BRANCH 44 46
ATOM     46 OG1  THR Q   3      17.461  13.151  16.894  1.00 13.85 LIG-0.39  OA
ATOM     47 HG1  THR Q   3      17.703  13.660  16.271  1.00 13.85 LIG 0.21  HD
ENDBRANCH 44 46
ENDBRANCH 43 44
BRANCH 43 48
ATOM     48  N   THR Q   3      13.759  12.859  17.453  1.00 13.00 LIG-0.34  N 
ATOM     49  C   ARG Q   2      12.984  13.923  17.263  1.00 13.30 LIG 0.24  C 
ATOM     50 O    ARG Q   2      13.340  14.912  16.636  1.00 13.04 LIG-0.27  OA
ATOM     51 H    THR Q   3      13.556  12.207  17.975  1.00 13.00 LIG 0.16  HD
BRANCH 49 52
ATOM     52  CA  ARG Q   2      11.612  13.873  17.894  1.00 13.85 LIG 0.18  C 
BRANCH 52 53
ATOM     53  N   ARG Q   2      11.454  15.006  18.793  1.00 14.89 LIG-0.35  N 
ATOM     54 H    ARG Q   2      11.751  15.746  18.471  1.00 14.89 LIG 0.16  HD
ATOM     55  C   ALA Q   1      10.905  14.907  19.994  1.00 17.12 LIG 0.25  C 
ATOM     56 O    ALA Q   1      10.472  13.848  20.462  1.00 19.52 LIG-0.27  OA
BRANCH 55 57
ATOM     57  CA  ALA Q   1      10.812  16.210  20.777  1.00 17.93 LIG 0.27  C 
ATOM     58  CB  ALA Q   1       9.369  16.734  20.807  1.00 18.07 LIG 0.05  C 
BRANCH 57 59
ATOM     59  N   ALA Q   1      11.745  17.238  20.223  1.00 19.51 LIG-0.07  N 
ATOM     60 H1   ALA Q   1      12.549  16.876  20.106  1.00 19.51 LIG 0.28  HD
ATOM     61 H3   ALA Q   1      11.807  17.920  20.791  1.00 19.51 LIG 0.28  HD
ATOM     62 H2   ALA Q   1      11.434  17.530  19.442  1.00 19.51 LIG 0.28  HD
ENDBRANCH 57 59
ENDBRANCH 55 57
ENDBRANCH 52 53
BRANCH 52 63
ATOM     63  CB  ARG Q   2      10.548  13.909  16.792  1.00 13.50 LIG 0.04  C 
BRANCH 63 64
ATOM     64  CG  ARG Q   2       9.116  14.155  17.299  1.00 14.15 LIG 0.02  C 
BRANCH 64 65
ATOM     65  CD  ARG Q   2       8.415  15.200  16.444  1.00 12.93 LIG 0.14  C 
BRANCH 65 66
ATOM     66  NE  ARG Q   2       7.801  16.224  17.287  1.00 12.58 LIG-0.23  N 
ATOM     67 HE   ARG Q   2       7.003  16.073  17.570  1.00 12.58 LIG 0.18  HD
ATOM     68  CZ  ARG Q   2       8.375  17.376  17.656  1.00 11.80 LIG 0.67  C 
ATOM     69  NH2 ARG Q   2       7.719  18.199  18.457  1.00 12.39 LIG-0.23  N 
ATOM     70  NH1 ARG Q   2       9.582  17.721  17.227  1.00 13.65 LIG-0.23  N 
ATOM     71 2HH2 ARG Q   2       8.080  18.941  18.700  1.00 12.39 LIG 0.17  HD
ATOM     72 1HH2 ARG Q   2       6.932  17.991  18.736  1.00 12.39 LIG 0.17  HD
ATOM     73 2HH1 ARG Q   2       9.930  18.467  17.478  1.00 13.65 LIG 0.17  HD
ATOM     74 1HH1 ARG Q   2      10.015  17.199  16.698  1.00 13.65 LIG 0.17  HD
ENDBRANCH 65 66
ENDBRANCH 64 65
ENDBRANCH 63 64
ENDBRANCH 52 63
ENDBRANCH 49 52
ENDBRANCH 43 48
ENDBRANCH 41 43
ENDBRANCH 1 39
TORSDOF 30
ENDMDL
MODEL 21
USER: ADFR SOLUTION from run 23
USER: SCORE 20.353338 LL:  -3.803 LR: -19.408 RR:   0.000 FEB: -10.459
USER: RMSD 5.453343
USER: SEED 22
USER: STATUS no improvement in best in 3 clusters for 5 generations
USER: GENES 32
USER: genes 0 Translation |==|  0.42927 0.60876 0.56237
USER: genes 1 Rotation |==|  0.61227 0.26611 0.33705 0.89515
USER: genes 2 Torsion [C]-CA--CB-[CG] |==|  0.98962
USER: genes 3 Torsion [CA]-CB--CG-[CD] |==|  0.70748
USER: genes 4 Torsion [CB]-CG--CD-[CE] |==|  0.48165
USER: genes 5 Torsion [CG]-CD--CE-[NZ] |==|  0.29182
USER: genes 6 Torsion [CD]-CE--NZ-[HZ1] |==|  0.31338
USER: genes 7 Torsion [N]-CA--C-[N] |==|  0.35688
USER: genes 8 Torsion [C]-N--CA-[CB] |==|  0.41482
USER: genes 9 Torsion [N]-CA--CB-[CG] |==|  0.63910
USER: genes 10 Torsion [CA]-CB--CG-[CD] |==|  0.05589
USER: genes 11 Torsion [CB]-CG--CD-[OE1] |==|  0.20062
USER: genes 12 Torsion [N]-CA--C-[N] |==|  0.95293
USER: genes 13 Torsion [C]-N--CA-[CB] |==|  0.84619
USER: genes 14 Torsion [N]-CA--CB-[CG2] |==|  0.59973
USER: genes 15 Torsion [CA]-CB--OG1-[HG1] |==|  0.00352
USER: genes 16 Torsion [N]-CA--C-[N] |==|  0.40000
USER: genes 17 Torsion [C]-N--CA-[C] |==|  0.57594
USER: genes 18 Torsion [N]-CA--C-[O] |==|  0.42051
USER: genes 19 Torsion [CB]-CA--N-[C] |==|  0.24637
USER: genes 20 Torsion [N]-C--CA-[N] |==|  0.49417
USER: genes 21 Torsion [C]-CA--CB-[CG2] |==|  0.56819
USER: genes 22 Torsion [CA]-CB--OG1-[HG1] |==|  0.48000
USER: genes 23 Torsion [C]-CA--N-[C] |==|  0.59934
USER: genes 24 Torsion [N]-C--CA-[N] |==|  0.45967
USER: genes 25 Torsion [C]-CA--N-[C] |==|  0.68507
USER: genes 26 Torsion [N]-C--CA-[N] |==|  0.28752
USER: genes 27 Torsion [C]-CA--N-[H1] |==|  0.89123
USER: genes 28 Torsion [C]-CA--CB-[CG] |==|  0.54203
USER: genes 29 Torsion [CA]-CB--CG-[CD] |==|  0.49907
USER: genes 30 Torsion [CB]-CG--CD-[NE] |==|  0.63870
USER: genes 31 Torsion [CG]-CD--NE-[HE] |==|  0.76938
ROOT
ATOM      1  CA  LYS Q   4      13.894  13.276  17.571  1.00 15.20 LIG 0.18  C 
ENDROOT
BRANCH 1 2
ATOM      2  CB  LYS Q   4      13.751  14.476  16.638  1.00 14.69 LIG 0.04  C 
BRANCH 2 3
ATOM      3  CG  LYS Q   4      12.373  15.070  16.642  1.00 16.14 LIG 0.00  C 
BRANCH 3 4
ATOM      4  CD  LYS Q   4      11.624  14.713  15.389  1.00 18.10 LIG 0.03  C 
BRANCH 4 5
ATOM      5  CE  LYS Q   4      10.194  15.192  15.508  1.00 22.11 LIG 0.23  C 
BRANCH 5 6
ATOM      6  NZ  LYS Q   4       9.965  16.405  14.678  1.00 25.79 LIG-0.08  N 
ATOM      7 HZ1  LYS Q   4       9.410  16.208  14.011  1.00 25.79 LIG 0.27  HD
ATOM      8 HZ2  LYS Q   4       9.608  17.047  15.181  1.00 25.79 LIG 0.27  HD
ATOM      9 HZ3  LYS Q   4      10.741  16.687  14.344  1.00 25.79 LIG 0.27  HD
ENDBRANCH 5 6
ENDBRANCH 4 5
ENDBRANCH 3 4
ENDBRANCH 2 3
ENDBRANCH 1 2
BRANCH 1 10
ATOM     10  C   LYS Q   4      12.581  13.073  18.332  1.00 15.70 LIG 0.24  C 
ATOM     11  N   GLN Q   5      12.577  13.375  19.632  1.00 16.90 LIG-0.35  N 
ATOM     12 H    GLN Q   5      13.220  13.777  20.038  1.00 16.90 LIG 0.16  HD
ATOM     13 O    LYS Q   4      11.583  12.634  17.746  1.00 16.41 LIG-0.27  OA
BRANCH 11 14
ATOM     14  CA  GLN Q   5      11.434  13.028  20.484  1.00 18.58 LIG 0.18  C 
BRANCH 14 15
ATOM     15  CB  GLN Q   5      11.879  12.752  21.925  1.00 18.36 LIG 0.04  C 
BRANCH 15 16
ATOM     16  CG  GLN Q   5      11.358  11.448  22.522  1.00 19.34 LIG 0.10  C 
BRANCH 16 17
ATOM     17  CD  GLN Q   5      10.907  10.429  21.497  1.00 21.85 LIG 0.21  C 
ATOM     18  NE2 GLN Q   5       9.591  10.243  21.385  1.00 24.33 LIG-0.37  N 
ATOM     19 21HE GLN Q   5       9.050  10.685  21.886  1.00 24.33 LIG 0.16  HD
ATOM     20 22HE GLN Q   5       9.283   9.682  20.811  1.00 24.33 LIG 0.16  HD
ATOM     21 OE1  GLN Q   5      11.723   9.825  20.807  1.00 24.78 LIG-0.27  OA
ENDBRANCH 16 17
ENDBRANCH 15 16
ENDBRANCH 14 15
BRANCH 14 22
ATOM     22  C   GLN Q   5      10.354  14.099  20.464  1.00 20.15 LIG 0.24  C 
ATOM     23 O    GLN Q   5       9.216  13.835  20.866  1.00 22.37 LIG-0.27  OA
ATOM     24  N   THR Q   6      10.679  15.302  20.010  1.00 20.72 LIG-0.34  N 
ATOM     25 H    THR Q   6      11.478  15.554  19.815  1.00 20.72 LIG 0.16  HD
BRANCH 24 26
ATOM     26  CA  THR Q   6       9.638  16.315  19.808  1.00 22.01 LIG 0.20  C 
BRANCH 26 27
ATOM     27  CB  THR Q   6       8.504  15.830  18.884  1.00 21.09 LIG 0.15  C 
ATOM     28  CG2 THR Q   6       7.981  16.970  18.010  1.00 22.53 LIG 0.04  C 
BRANCH 27 29
ATOM     29 OG1  THR Q   6       8.984  14.769  18.052  1.00 19.47 LIG-0.39  OA
ATOM     30 HG1  THR Q   6       9.785  14.604  18.242  1.00 19.47 LIG 0.21  HD
ENDBRANCH 27 29
ENDBRANCH 26 27
BRANCH 26 31
ATOM     31  C   THR Q   6       9.057  16.807  21.131  1.00 23.85 LIG 0.24  C 
ATOM     32  N   ALA Q   7       8.722  18.096  21.199  1.00 25.35 LIG-0.35  N 
ATOM     33 H    ALA Q   7       8.841  18.650  20.552  1.00 25.35 LIG 0.16  HD
ATOM     34 O    THR Q   6       8.890  16.015  22.066  1.00 25.66 LIG-0.27  OA
BRANCH 32 35
ATOM     35  CA  ALA Q   7       8.114  18.701  22.394  1.00 27.02 LIG 0.16  C 
ATOM     36  CB  ALA Q   7       9.195  19.090  23.400  1.00 27.03 LIG 0.04  C 
BRANCH 35 37
ATOM     37  C   ALA Q   7       7.241  19.915  22.053  1.00 28.43 LIG 0.22  C 
ATOM     38 O    ALA Q   7       6.274  20.225  22.766  1.00 30.23 LIG-0.29  OA
ENDBRANCH 35 37
ENDBRANCH 32 35
ENDBRANCH 26 31
ENDBRANCH 24 26
ENDBRANCH 14 22
ENDBRANCH 11 14
ENDBRANCH 1 10
BRANCH 1 39
ATOM     39  N   LYS Q   4      14.296  12.090  16.817  1.00 13.85 LIG-0.35  N 
ATOM     40 H    LYS Q   4      13.642  11.611  16.531  1.00 13.85 LIG 0.16  HD
ATOM     41  C   THR Q   3      15.581  11.802  16.607  1.00 13.84 LIG 0.24  C 
ATOM     42 O    THR Q   3      16.512  12.527  16.980  1.00 14.15 LIG-0.27  OA
BRANCH 41 43
ATOM     43  CA  THR Q   3      15.864  10.492  15.905  1.00 13.21 LIG 0.20  C 
BRANCH 43 44
ATOM     44  CB  THR Q   3      15.217   9.352  16.731  1.00 13.38 LIG 0.15  C 
ATOM     45  CG2 THR Q   3      15.893   8.022  16.499  1.00 13.96 LIG 0.04  C 
BRANCH 44 46
ATOM     46 OG1  THR Q   3      15.209   9.681  18.128  1.00 13.85 LIG-0.39  OA
ATOM     47 HG1  THR Q   3      14.769   9.102  18.549  1.00 13.85 LIG 0.21  HD
ENDBRANCH 44 46
ENDBRANCH 43 44
BRANCH 43 48
ATOM     48  N   THR Q   3      17.304  10.320  15.692  1.00 13.00 LIG-0.34  N 
ATOM     49  C   ARG Q   2      17.790   9.733  14.602  1.00 13.30 LIG 0.24  C 
ATOM     50 O    ARG Q   2      17.090   9.165  13.774  1.00 13.04 LIG-0.27  OA
ATOM     51 H    THR Q   3      17.794  10.629  16.327  1.00 13.00 LIG 0.16  HD
BRANCH 49 52
ATOM     52  CA  ARG Q   2      19.291   9.772  14.434  1.00 13.85 LIG 0.18  C 
BRANCH 52 53
ATOM     53  N   ARG Q   2      19.686   8.816  13.410  1.00 14.89 LIG-0.35  N 
ATOM     54 H    ARG Q   2      19.410   9.021  12.621  1.00 14.89 LIG 0.16  HD
ATOM     55  C   ALA Q   1      20.402   7.732  13.668  1.00 17.12 LIG 0.25  C 
ATOM     56 O    ALA Q   1      20.805   7.432  14.797  1.00 19.52 LIG-0.27  OA
BRANCH 55 57
ATOM     57  CA  ALA Q   1      20.730   6.865  12.458  1.00 17.93 LIG 0.27  C 
ATOM     58  CB  ALA Q   1      20.437   5.386  12.745  1.00 18.07 LIG 0.05  C 
BRANCH 57 59
ATOM     59  N   ALA Q   1      22.148   7.059  12.028  1.00 19.51 LIG-0.07  N 
ATOM     60 H1   ALA Q   1      22.365   7.919  12.101  1.00 19.51 LIG 0.28  HD
ATOM     61 H3   ALA Q   1      22.238   6.801  11.180  1.00 19.51 LIG 0.28  HD
ATOM     62 H2   ALA Q   1      22.684   6.572  12.545  1.00 19.51 LIG 0.28  HD
ENDBRANCH 57 59
ENDBRANCH 55 57
ENDBRANCH 52 53
BRANCH 52 63
ATOM     63  CB  ARG Q   2      19.718  11.190  14.039  1.00 13.50 LIG 0.04  C 
BRANCH 63 64
ATOM     64  CG  ARG Q   2      21.150  11.291  13.484  1.00 14.15 LIG 0.02  C 
BRANCH 64 65
ATOM     65  CD  ARG Q   2      21.484  12.727  13.113  1.00 12.93 LIG 0.14  C 
BRANCH 65 66
ATOM     66  NE  ARG Q   2      22.036  12.793  11.762  1.00 12.58 LIG-0.23  N 
ATOM     67 HE   ARG Q   2      22.875  12.629  11.672  1.00 12.58 LIG 0.18  HD
ATOM     68  CZ  ARG Q   2      21.347  13.086  10.651  1.00 11.80 LIG 0.67  C 
ATOM     69  NH2 ARG Q   2      21.966  13.072   9.482  1.00 12.39 LIG-0.23  N 
ATOM     70  NH1 ARG Q   2      20.060  13.405  10.694  1.00 13.65 LIG-0.23  N 
ATOM     71 2HH2 ARG Q   2      21.531  13.259   8.764  1.00 12.39 LIG 0.17  HD
ATOM     72 1HH2 ARG Q   2      22.803  12.875   9.441  1.00 12.39 LIG 0.17  HD
ATOM     73 2HH1 ARG Q   2      19.639  13.590   9.968  1.00 13.65 LIG 0.17  HD
ATOM     74 1HH1 ARG Q   2      19.648  13.427  11.449  1.00 13.65 LIG 0.17  HD
ENDBRANCH 65 66
ENDBRANCH 64 65
ENDBRANCH 63 64
ENDBRANCH 52 63
ENDBRANCH 49 52
ENDBRANCH 43 48
ENDBRANCH 41 43
ENDBRANCH 1 39
TORSDOF 30
ENDMDL
MODEL 22
USER: ADFR SOLUTION from run 104
USER: SCORE 21.383260 LL:  -4.799 LR: -19.367 RR:   0.000 FEB: -10.418
USER: RMSD 7.608001
USER: SEED 103
USER: STATUS no improvement in best in 4 clusters for 5 generations
USER: GENES 32
USER: genes 0 Translation |==|  0.64543 0.49224 0.38621
USER: genes 1 Rotation |==|  0.34413 0.24507 0.86836 0.65820
USER: genes 2 Torsion [C]-CA--CB-[CG] |==|  0.27949
USER: genes 3 Torsion [CA]-CB--CG-[CD] |==|  0.73798
USER: genes 4 Torsion [CB]-CG--CD-[CE] |==|  0.76005
USER: genes 5 Torsion [CG]-CD--CE-[NZ] |==|  0.82843
USER: genes 6 Torsion [CD]-CE--NZ-[HZ1] |==|  0.17592
USER: genes 7 Torsion [N]-CA--C-[N] |==|  0.02599
USER: genes 8 Torsion [C]-N--CA-[CB] |==|  0.17055
USER: genes 9 Torsion [N]-CA--CB-[CG] |==|  0.50200
USER: genes 10 Torsion [CA]-CB--CG-[CD] |==|  0.22909
USER: genes 11 Torsion [CB]-CG--CD-[OE1] |==|  0.97556
USER: genes 12 Torsion [N]-CA--C-[N] |==|  0.21610
USER: genes 13 Torsion [C]-N--CA-[CB] |==|  0.23133
USER: genes 14 Torsion [N]-CA--CB-[CG2] |==|  0.68864
USER: genes 15 Torsion [CA]-CB--OG1-[HG1] |==|  0.89961
USER: genes 16 Torsion [N]-CA--C-[N] |==|  0.61939
USER: genes 17 Torsion [C]-N--CA-[C] |==|  0.78737
USER: genes 18 Torsion [N]-CA--C-[O] |==|  0.89986
USER: genes 19 Torsion [CB]-CA--N-[C] |==|  0.82745
USER: genes 20 Torsion [N]-C--CA-[N] |==|  0.92021
USER: genes 21 Torsion [C]-CA--CB-[CG2] |==|  0.19388
USER: genes 22 Torsion [CA]-CB--OG1-[HG1] |==|  0.84414
USER: genes 23 Torsion [C]-CA--N-[C] |==|  0.85555
USER: genes 24 Torsion [N]-C--CA-[N] |==|  0.95281
USER: genes 25 Torsion [C]-CA--N-[C] |==|  0.81651
USER: genes 26 Torsion [N]-C--CA-[N] |==|  0.41105
USER: genes 27 Torsion [C]-CA--N-[H1] |==|  0.68990
USER: genes 28 Torsion [C]-CA--CB-[CG] |==|  0.11293
USER: genes 29 Torsion [CA]-CB--CG-[CD] |==|  0.23610
USER: genes 30 Torsion [CB]-CG--CD-[NE] |==|  0.86494
USER: genes 31 Torsion [CG]-CD--NE-[HE] |==|  0.80027
ROOT
ATOM      1  CA  LYS Q   4      19.081  11.004  13.871  1.00 15.20 LIG 0.18  C 
ENDROOT
BRANCH 1 2
ATOM      2  CB  LYS Q   4      20.233  10.004  13.812  1.00 14.69 LIG 0.04  C 
BRANCH 2 3
ATOM      3  CG  LYS Q   4      20.534   9.526  12.422  1.00 16.14 LIG 0.00  C 
BRANCH 3 4
ATOM      4  CD  LYS Q   4      19.817   8.241  12.122  1.00 18.10 LIG 0.03  C 
BRANCH 4 5
ATOM      5  CE  LYS Q   4      20.657   7.076  12.600  1.00 22.11 LIG 0.23  C 
BRANCH 5 6
ATOM      6  NZ  LYS Q   4      21.962   7.031  11.889  1.00 25.79 LIG-0.08  N 
ATOM      7 HZ1  LYS Q   4      22.430   7.763  12.079  1.00 25.79 LIG 0.27  HD
ATOM      8 HZ2  LYS Q   4      22.418   6.312  12.151  1.00 25.79 LIG 0.27  HD
ATOM      9 HZ3  LYS Q   4      21.821   6.989  11.012  1.00 25.79 LIG 0.27  HD
ENDBRANCH 5 6
ENDBRANCH 4 5
ENDBRANCH 3 4
ENDBRANCH 2 3
ENDBRANCH 1 2
BRANCH 1 10
ATOM     10  C   LYS Q   4      17.811  10.279  14.324  1.00 15.70 LIG 0.24  C 
ATOM     11  N   GLN Q   5      17.094  10.854  15.292  1.00 16.90 LIG-0.35  N 
ATOM     12 H    GLN Q   5      17.235  11.647  15.593  1.00 16.90 LIG 0.16  HD
ATOM     13 O    LYS Q   4      17.491   9.202  13.807  1.00 16.41 LIG-0.27  OA
BRANCH 11 14
ATOM     14  CA  GLN Q   5      15.978  10.144  15.928  1.00 18.58 LIG 0.18  C 
BRANCH 14 15
ATOM     15  CB  GLN Q   5      16.459   8.868  16.627  1.00 18.36 LIG 0.04  C 
BRANCH 15 16
ATOM     16  CG  GLN Q   5      15.361   8.051  17.305  1.00 19.34 LIG 0.10  C 
BRANCH 16 17
ATOM     17  CD  GLN Q   5      14.600   7.134  16.372  1.00 21.85 LIG 0.21  C 
ATOM     18  NE2 GLN Q   5      13.748   6.282  16.944  1.00 24.33 LIG-0.37  N 
ATOM     19 21HE GLN Q   5      13.661   6.268  17.799  1.00 24.33 LIG 0.16  HD
ATOM     20 22HE GLN Q   5      13.284   5.746  16.457  1.00 24.33 LIG 0.16  HD
ATOM     21 OE1  GLN Q   5      14.761   7.195  15.157  1.00 24.78 LIG-0.27  OA
ENDBRANCH 16 17
ENDBRANCH 15 16
ENDBRANCH 14 15
BRANCH 14 22
ATOM     22  C   GLN Q   5      15.218  11.026  16.907  1.00 20.15 LIG 0.24  C 
ATOM     23 O    GLN Q   5      15.409  10.906  18.122  1.00 22.37 LIG-0.27  OA
ATOM     24  N   THR Q   6      14.363  11.911  16.413  1.00 20.72 LIG-0.34  N 
ATOM     25 H    THR Q   6      14.275  12.095  15.577  1.00 20.72 LIG 0.16  HD
BRANCH 24 26
ATOM     26  CA  THR Q   6      13.483  12.662  17.314  1.00 22.01 LIG 0.20  C 
BRANCH 26 27
ATOM     27  CB  THR Q   6      14.169  13.897  17.928  1.00 21.09 LIG 0.15  C 
ATOM     28  CG2 THR Q   6      14.380  13.721  19.432  1.00 22.53 LIG 0.04  C 
BRANCH 27 29
ATOM     29 OG1  THR Q   6      15.432  14.112  17.289  1.00 19.47 LIG-0.39  OA
ATOM     30 HG1  THR Q   6      15.785  13.371  17.110  1.00 19.47 LIG 0.21  HD
ENDBRANCH 27 29
ENDBRANCH 26 27
BRANCH 26 31
ATOM     31  C   THR Q   6      12.183  13.075  16.630  1.00 23.85 LIG 0.24  C 
ATOM     32  N   ALA Q   7      11.752  14.317  16.856  1.00 25.35 LIG-0.35  N 
ATOM     33 H    ALA Q   7      12.155  14.870  17.377  1.00 25.35 LIG 0.16  HD
ATOM     34 O    THR Q   6      11.597  12.280  15.886  1.00 25.66 LIG-0.27  OA
BRANCH 32 35
ATOM     35  CA  ALA Q   7      10.538  14.866  16.233  1.00 27.02 LIG 0.16  C 
ATOM     36  CB  ALA Q   7      10.031  16.066  17.027  1.00 27.03 LIG 0.04  C 
BRANCH 35 37
ATOM     37  C   ALA Q   7      10.760  15.251  14.765  1.00 28.43 LIG 0.22  C 
ATOM     38 O    ALA Q   7      11.841  15.730  14.388  1.00 30.23 LIG-0.29  OA
ENDBRANCH 35 37
ENDBRANCH 32 35
ENDBRANCH 26 31
ENDBRANCH 24 26
ENDBRANCH 14 22
ENDBRANCH 11 14
ENDBRANCH 1 10
BRANCH 1 39
ATOM     39  N   LYS Q   4      19.427  12.128  14.739  1.00 13.85 LIG-0.35  N 
ATOM     40 H    LYS Q   4      19.449  12.891  14.343  1.00 13.85 LIG 0.16  HD
ATOM     41  C   THR Q   3      19.681  11.953  16.037  1.00 13.84 LIG 0.24  C 
ATOM     42 O    THR Q   3      19.596  10.858  16.606  1.00 14.15 LIG-0.27  OA
BRANCH 41 43
ATOM     43  CA  THR Q   3      20.129  13.181  16.799  1.00 13.21 LIG 0.20  C 
BRANCH 43 44
ATOM     44  CB  THR Q   3      18.888  13.796  17.494  1.00 13.38 LIG 0.15  C 
ATOM     45  CG2 THR Q   3      18.379  12.935  18.625  1.00 13.96 LIG 0.04  C 
BRANCH 44 46
ATOM     46 OG1  THR Q   3      19.172  15.125  17.955  1.00 13.85 LIG-0.39  OA
ATOM     47 HG1  THR Q   3      19.841  15.108  18.464  1.00 13.85 LIG 0.21  HD
ENDBRANCH 44 46
ENDBRANCH 43 44
BRANCH 43 48
ATOM     48  N   THR Q   3      20.829  14.114  15.911  1.00 13.00 LIG-0.34  N 
ATOM     49  C   ARG Q   2      21.842  13.727  15.141  1.00 13.30 LIG 0.24  C 
ATOM     50 O    ARG Q   2      22.362  12.622  15.217  1.00 13.04 LIG-0.27  OA
ATOM     51 H    THR Q   3      20.527  14.919  15.935  1.00 13.00 LIG 0.16  HD
BRANCH 49 52
ATOM     52  CA  ARG Q   2      22.361  14.749  14.155  1.00 13.85 LIG 0.18  C 
BRANCH 52 53
ATOM     53  N   ARG Q   2      21.373  15.804  13.991  1.00 14.89 LIG-0.35  N 
ATOM     54 H    ARG Q   2      21.634  16.570  14.284  1.00 14.89 LIG 0.16  HD
ATOM     55  C   ALA Q   1      20.184  15.606  13.443  1.00 17.12 LIG 0.25  C 
ATOM     56 O    ALA Q   1      19.803  14.510  13.016  1.00 19.52 LIG-0.27  OA
BRANCH 55 57
ATOM     57  CA  ALA Q   1      19.298  16.842  13.343  1.00 17.93 LIG 0.27  C 
ATOM     58  CB  ALA Q   1      18.468  17.029  14.620  1.00 18.07 LIG 0.05  C 
BRANCH 57 59
ATOM     59  N   ALA Q   1      18.420  16.776  12.136  1.00 19.51 LIG-0.07  N 
ATOM     60 H1   ALA Q   1      18.672  17.397  11.551  1.00 19.51 LIG 0.28  HD
ATOM     61 H3   ALA Q   1      17.574  16.921  12.376  1.00 19.51 LIG 0.28  HD
ATOM     62 H2   ALA Q   1      18.488  15.971  11.762  1.00 19.51 LIG 0.28  HD
ENDBRANCH 57 59
ENDBRANCH 55 57
ENDBRANCH 52 53
BRANCH 52 63
ATOM     63  CB  ARG Q   2      23.683  15.325  14.674  1.00 13.50 LIG 0.04  C 
BRANCH 63 64
ATOM     64  CG  ARG Q   2      24.623  14.286  15.311  1.00 14.15 LIG 0.02  C 
BRANCH 64 65
ATOM     65  CD  ARG Q   2      25.466  13.600  14.247  1.00 12.93 LIG 0.14  C 
BRANCH 65 66
ATOM     66  NE  ARG Q   2      24.627  13.146  13.141  1.00 12.58 LIG-0.23  N 
ATOM     67 HE   ARG Q   2      24.112  12.473  13.288  1.00 12.58 LIG 0.18  HD
ATOM     68  CZ  ARG Q   2      24.589  13.689  11.917  1.00 11.80 LIG 0.67  C 
ATOM     69  NH2 ARG Q   2      23.750  13.202  11.018  1.00 12.39 LIG-0.23  N 
ATOM     70  NH1 ARG Q   2      25.382  14.696  11.578  1.00 13.65 LIG-0.23  N 
ATOM     71 2HH2 ARG Q   2      23.719  13.545  10.229  1.00 12.39 LIG 0.17  HD
ATOM     72 1HH2 ARG Q   2      23.235  12.543  11.222  1.00 12.39 LIG 0.17  HD
ATOM     73 2HH1 ARG Q   2      25.340  15.029  10.786  1.00 13.65 LIG 0.17  HD
ATOM     74 1HH1 ARG Q   2      25.939  15.016  12.151  1.00 13.65 LIG 0.17  HD
ENDBRANCH 65 66
ENDBRANCH 64 65
ENDBRANCH 63 64
ENDBRANCH 52 63
ENDBRANCH 49 52
ENDBRANCH 43 48
ENDBRANCH 41 43
ENDBRANCH 1 39
TORSDOF 30
ENDMDL
MODEL 23
USER: ADFR SOLUTION from run 9
USER: SCORE 20.585529 LL:  -4.401 LR: -19.335 RR:   0.000 FEB: -10.386
USER: RMSD 3.710633
USER: SEED 32781
USER: STATUS no improvement in best in 1 clusters for 5 generations
USER: GENES 32
USER: genes 0 Translation |==|  0.42285 0.61147 0.53510
USER: genes 1 Rotation |==|  0.49568 0.52967 0.52554 0.99845
USER: genes 2 Torsion [C]-CA--CB-[CG] |==|  0.26691
USER: genes 3 Torsion [CA]-CB--CG-[CD] |==|  0.80264
USER: genes 4 Torsion [CB]-CG--CD-[CE] |==|  0.60293
USER: genes 5 Torsion [CG]-CD--CE-[NZ] |==|  0.52972
USER: genes 6 Torsion [CD]-CE--NZ-[HZ1] |==|  0.49621
USER: genes 7 Torsion [N]-CA--C-[N] |==|  0.92947
USER: genes 8 Torsion [C]-N--CA-[CB] |==|  0.20324
USER: genes 9 Torsion [N]-CA--CB-[CG] |==|  0.16958
USER: genes 10 Torsion [CA]-CB--CG-[CD] |==|  0.64331
USER: genes 11 Torsion [CB]-CG--CD-[OE1] |==|  0.68253
USER: genes 12 Torsion [N]-CA--C-[N] |==|  0.55782
USER: genes 13 Torsion [C]-N--CA-[CB] |==|  0.50182
USER: genes 14 Torsion [N]-CA--CB-[CG2] |==|  0.70506
USER: genes 15 Torsion [CA]-CB--OG1-[HG1] |==|  0.91034
USER: genes 16 Torsion [N]-CA--C-[N] |==|  0.37893
USER: genes 17 Torsion [C]-N--CA-[C] |==|  0.53363
USER: genes 18 Torsion [N]-CA--C-[O] |==|  0.02342
USER: genes 19 Torsion [CB]-CA--N-[C] |==|  0.50595
USER: genes 20 Torsion [N]-C--CA-[N] |==|  0.43333
USER: genes 21 Torsion [C]-CA--CB-[CG2] |==|  0.70460
USER: genes 22 Torsion [CA]-CB--OG1-[HG1] |==|  0.47552
USER: genes 23 Torsion [C]-CA--N-[C] |==|  0.57489
USER: genes 24 Torsion [N]-C--CA-[N] |==|  0.46741
USER: genes 25 Torsion [C]-CA--N-[C] |==|  0.76839
USER: genes 26 Torsion [N]-C--CA-[N] |==|  0.28033
USER: genes 27 Torsion [C]-CA--N-[H1] |==|  0.85364
USER: genes 28 Torsion [C]-CA--CB-[CG] |==|  0.27254
USER: genes 29 Torsion [CA]-CB--CG-[CD] |==|  0.42827
USER: genes 30 Torsion [CB]-CG--CD-[NE] |==|  0.04302
USER: genes 31 Torsion [CG]-CD--NE-[HE] |==|  0.22212
ROOT
ATOM      1  CA  LYS Q   4      13.739  13.329  16.998  1.00 15.20 LIG 0.18  C 
ENDROOT
BRANCH 1 2
ATOM      2  CB  LYS Q   4      12.225  13.336  16.811  1.00 14.69 LIG 0.04  C 
BRANCH 2 3
ATOM      3  CG  LYS Q   4      11.661  14.708  16.580  1.00 16.14 LIG 0.00  C 
BRANCH 3 4
ATOM      4  CD  LYS Q   4      11.714  15.534  17.833  1.00 18.10 LIG 0.03  C 
BRANCH 4 5
ATOM      5  CE  LYS Q   4      10.475  16.399  17.915  1.00 22.11 LIG 0.23  C 
BRANCH 5 6
ATOM      6  NZ  LYS Q   4      10.601  17.414  18.994  1.00 25.79 LIG-0.08  N 
ATOM      7 HZ1  LYS Q   4       9.871  17.922  19.010  1.00 25.79 LIG 0.27  HD
ATOM      8 HZ2  LYS Q   4      10.693  17.004  19.779  1.00 25.79 LIG 0.27  HD
ATOM      9 HZ3  LYS Q   4      11.314  17.924  18.841  1.00 25.79 LIG 0.27  HD
ENDBRANCH 5 6
ENDBRANCH 4 5
ENDBRANCH 3 4
ENDBRANCH 2 3
ENDBRANCH 1 2
BRANCH 1 10
ATOM     10  C   LYS Q   4      14.060  13.340  18.495  1.00 15.70 LIG 0.24  C 
ATOM     11  N   GLN Q   5      14.333  12.167  19.068  1.00 16.90 LIG-0.35  N 
ATOM     12 H    GLN Q   5      14.452  11.432  18.637  1.00 16.90 LIG 0.16  HD
ATOM     13 O    LYS Q   4      14.046  14.404  19.127  1.00 16.41 LIG-0.27  OA
BRANCH 11 14
ATOM     14  CA  GLN Q   5      14.455  12.049  20.526  1.00 18.58 LIG 0.18  C 
BRANCH 14 15
ATOM     15  CB  GLN Q   5      13.085  12.140  21.207  1.00 18.36 LIG 0.04  C 
BRANCH 15 16
ATOM     16  CG  GLN Q   5      12.093  11.051  20.808  1.00 19.34 LIG 0.10  C 
BRANCH 16 17
ATOM     17  CD  GLN Q   5      10.743  11.569  20.362  1.00 21.85 LIG 0.21  C 
ATOM     18  NE2 GLN Q   5      10.722  12.271  19.228  1.00 24.33 LIG-0.37  N 
ATOM     19 21HE GLN Q   5      11.452  12.415  18.798  1.00 24.33 LIG 0.16  HD
ATOM     20 22HE GLN Q   5       9.978  12.580  18.927  1.00 24.33 LIG 0.16  HD
ATOM     21 OE1  GLN Q   5       9.730  11.335  21.014  1.00 24.78 LIG-0.27  OA
ENDBRANCH 16 17
ENDBRANCH 15 16
ENDBRANCH 14 15
BRANCH 14 22
ATOM     22  C   GLN Q   5      15.165  10.770  20.943  1.00 20.15 LIG 0.24  C 
ATOM     23 O    GLN Q   5      15.892  10.177  20.138  1.00 22.37 LIG-0.27  OA
ATOM     24  N   THR Q   6      14.979  10.329  22.181  1.00 20.72 LIG-0.34  N 
ATOM     25 H    THR Q   6      14.564  10.761  22.798  1.00 20.72 LIG 0.16  HD
BRANCH 24 26
ATOM     26  CA  THR Q   6      15.500   9.017  22.576  1.00 22.01 LIG 0.20  C 
BRANCH 26 27
ATOM     27  CB  THR Q   6      15.177   8.663  24.041  1.00 21.09 LIG 0.15  C 
ATOM     28  CG2 THR Q   6      16.422   8.774  24.922  1.00 22.53 LIG 0.04  C 
BRANCH 27 29
ATOM     29 OG1  THR Q   6      14.160   9.542  24.534  1.00 19.47 LIG-0.39  OA
ATOM     30 HG1  THR Q   6      14.238  10.294  24.168  1.00 19.47 LIG 0.21  HD
ENDBRANCH 27 29
ENDBRANCH 26 27
BRANCH 26 31
ATOM     31  C   THR Q   6      15.009   7.906  21.653  1.00 23.85 LIG 0.24  C 
ATOM     32  N   ALA Q   7      15.911   7.002  21.266  1.00 25.35 LIG-0.35  N 
ATOM     33 H    ALA Q   7      16.740   7.035  21.493  1.00 25.35 LIG 0.16  HD
ATOM     34 O    THR Q   6      13.819   7.859  21.320  1.00 25.66 LIG-0.27  OA
BRANCH 32 35
ATOM     35  CA  ALA Q   7      15.574   5.854  20.411  1.00 27.02 LIG 0.16  C 
ATOM     36  CB  ALA Q   7      15.219   6.327  19.004  1.00 27.03 LIG 0.04  C 
BRANCH 35 37
ATOM     37  C   ALA Q   7      16.702   4.816  20.357  1.00 28.43 LIG 0.22  C 
ATOM     38 O    ALA Q   7      17.688   4.907  21.104  1.00 30.23 LIG-0.29  OA
ENDBRANCH 35 37
ENDBRANCH 32 35
ENDBRANCH 26 31
ENDBRANCH 24 26
ENDBRANCH 14 22
ENDBRANCH 11 14
ENDBRANCH 1 10
BRANCH 1 39
ATOM     39  N   LYS Q   4      14.333  12.187  16.305  1.00 13.85 LIG-0.35  N 
ATOM     40 H    LYS Q   4      13.771  11.702  15.871  1.00 13.85 LIG 0.16  HD
ATOM     41  C   THR Q   3      15.644  11.944  16.360  1.00 13.84 LIG 0.24  C 
ATOM     42 O    THR Q   3      16.449  12.679  16.945  1.00 14.15 LIG-0.27  OA
BRANCH 41 43
ATOM     43  CA  THR Q   3      16.114  10.673  15.687  1.00 13.21 LIG 0.20  C 
BRANCH 43 44
ATOM     44  CB  THR Q   3      15.812   9.486  16.635  1.00 13.38 LIG 0.15  C 
ATOM     45  CG2 THR Q   3      17.060   8.944  17.290  1.00 13.96 LIG 0.04  C 
BRANCH 44 46
ATOM     46 OG1  THR Q   3      14.841   9.860  17.623  1.00 13.85 LIG-0.39  OA
ATOM     47 HG1  THR Q   3      14.599   9.179  18.051  1.00 13.85 LIG 0.21  HD
ENDBRANCH 44 46
ENDBRANCH 43 44
BRANCH 43 48
ATOM     48  N   THR Q   3      17.527  10.780  15.310  1.00 13.00 LIG-0.34  N 
ATOM     49  C   ARG Q   2      18.038  10.092  14.294  1.00 13.30 LIG 0.24  C 
ATOM     50 O    ARG Q   2      17.425   9.218  13.696  1.00 13.04 LIG-0.27  OA
ATOM     51 H    THR Q   3      17.983  11.321  15.799  1.00 13.00 LIG 0.16  HD
BRANCH 49 52
ATOM     52  CA  ARG Q   2      19.462  10.423  13.912  1.00 13.85 LIG 0.18  C 
BRANCH 52 53
ATOM     53  N   ARG Q   2      19.961   9.413  12.991  1.00 14.89 LIG-0.35  N 
ATOM     54 H    ARG Q   2      19.898   9.639  12.163  1.00 14.89 LIG 0.16  HD
ATOM     55  C   ALA Q   1      20.463   8.253  13.388  1.00 17.12 LIG 0.25  C 
ATOM     56 O    ALA Q   1      20.560   7.922  14.575  1.00 19.52 LIG-0.27  OA
BRANCH 55 57
ATOM     57  CA  ALA Q   1      20.950   7.337  12.272  1.00 17.93 LIG 0.27  C 
ATOM     58  CB  ALA Q   1      20.477   5.895  12.498  1.00 18.07 LIG 0.05  C 
BRANCH 57 59
ATOM     59  N   ALA Q   1      22.437   7.400  12.136  1.00 19.51 LIG-0.07  N 
ATOM     60 H1   ALA Q   1      22.692   8.249  12.053  1.00 19.51 LIG 0.28  HD
ATOM     61 H3   ALA Q   1      22.688   6.943  11.415  1.00 19.51 LIG 0.28  HD
ATOM     62 H2   ALA Q   1      22.816   7.046  12.859  1.00 19.51 LIG 0.28  HD
ENDBRANCH 57 59
ENDBRANCH 55 57
ENDBRANCH 52 53
BRANCH 52 63
ATOM     63  CB  ARG Q   2      19.501  11.810  13.261  1.00 13.50 LIG 0.04  C 
BRANCH 63 64
ATOM     64  CG  ARG Q   2      19.913  12.947  14.213  1.00 14.15 LIG 0.02  C 
BRANCH 64 65
ATOM     65  CD  ARG Q   2      20.532  14.100  13.439  1.00 12.93 LIG 0.14  C 
BRANCH 65 66
ATOM     66  NE  ARG Q   2      20.236  13.978  12.013  1.00 12.58 LIG-0.23  N 
ATOM     67 HE   ARG Q   2      19.459  14.235  11.749  1.00 12.58 LIG 0.18  HD
ATOM     68  CZ  ARG Q   2      21.071  13.499  11.081  1.00 11.80 LIG 0.67  C 
ATOM     69  NH2 ARG Q   2      20.688  13.481   9.816  1.00 12.39 LIG-0.23  N 
ATOM     70  NH1 ARG Q   2      22.271  13.030  11.398  1.00 13.65 LIG-0.23  N 
ATOM     71 2HH2 ARG Q   2      21.218  13.176   9.211  1.00 12.39 LIG 0.17  HD
ATOM     72 1HH2 ARG Q   2      19.909  13.775   9.598  1.00 12.39 LIG 0.17  HD
ATOM     73 2HH1 ARG Q   2      22.790  12.728  10.782  1.00 13.65 LIG 0.17  HD
ATOM     74 1HH1 ARG Q   2      22.528  13.028  12.219  1.00 13.65 LIG 0.17  HD
ENDBRANCH 65 66
ENDBRANCH 64 65
ENDBRANCH 63 64
ENDBRANCH 52 63
ENDBRANCH 49 52
ENDBRANCH 43 48
ENDBRANCH 41 43
ENDBRANCH 1 39
TORSDOF 30
ENDMDL
MODEL 24
USER: ADFR SOLUTION from run 127
USER: SCORE 21.541292 LL:  -4.016 LR: -19.287 RR:   0.000 FEB: -10.338
USER: RMSD 9.331371
USER: SEED 126
USER: STATUS no improvement in best in 5 clusters for 5 generations
USER: GENES 32
USER: genes 0 Translation |==|  0.54921 0.44368 0.42959
USER: genes 1 Rotation |==|  0.50506 0.26352 0.93754 0.55111
USER: genes 2 Torsion [C]-CA--CB-[CG] |==|  0.58569
USER: genes 3 Torsion [CA]-CB--CG-[CD] |==|  0.50658
USER: genes 4 Torsion [CB]-CG--CD-[CE] |==|  0.01730
USER: genes 5 Torsion [CG]-CD--CE-[NZ] |==|  0.33475
USER: genes 6 Torsion [CD]-CE--NZ-[HZ1] |==|  0.76621
USER: genes 7 Torsion [N]-CA--C-[N] |==|  0.24403
USER: genes 8 Torsion [C]-N--CA-[CB] |==|  0.75036
USER: genes 9 Torsion [N]-CA--CB-[CG] |==|  0.68607
USER: genes 10 Torsion [CA]-CB--CG-[CD] |==|  0.14571
USER: genes 11 Torsion [CB]-CG--CD-[OE1] |==|  0.81948
USER: genes 12 Torsion [N]-CA--C-[N] |==|  0.19370
USER: genes 13 Torsion [C]-N--CA-[CB] |==|  0.20578
USER: genes 14 Torsion [N]-CA--CB-[CG2] |==|  0.04251
USER: genes 15 Torsion [CA]-CB--OG1-[HG1] |==|  0.35237
USER: genes 16 Torsion [N]-CA--C-[N] |==|  0.00125
USER: genes 17 Torsion [C]-N--CA-[C] |==|  0.55262
USER: genes 18 Torsion [N]-CA--C-[O] |==|  0.42697
USER: genes 19 Torsion [CB]-CA--N-[C] |==|  0.57377
USER: genes 20 Torsion [N]-C--CA-[N] |==|  0.44188
USER: genes 21 Torsion [C]-CA--CB-[CG2] |==|  0.75826
USER: genes 22 Torsion [CA]-CB--OG1-[HG1] |==|  0.22017
USER: genes 23 Torsion [C]-CA--N-[C] |==|  0.65335
USER: genes 24 Torsion [N]-C--CA-[N] |==|  0.33340
USER: genes 25 Torsion [C]-CA--N-[C] |==|  0.55563
USER: genes 26 Torsion [N]-C--CA-[N] |==|  0.11428
USER: genes 27 Torsion [C]-CA--N-[H1] |==|  0.44195
USER: genes 28 Torsion [C]-CA--CB-[CG] |==|  0.73220
USER: genes 29 Torsion [CA]-CB--CG-[CD] |==|  0.69745
USER: genes 30 Torsion [CB]-CG--CD-[NE] |==|  0.47229
USER: genes 31 Torsion [CG]-CD--NE-[HE] |==|  0.12411
ROOT
ATOM      1  CA  LYS Q   4      16.772  10.057  14.782  1.00 15.20 LIG 0.18  C 
ENDROOT
BRANCH 1 2
ATOM      2  CB  LYS Q   4      18.211  10.022  14.276  1.00 14.69 LIG 0.04  C 
BRANCH 2 3
ATOM      3  CG  LYS Q   4      18.796  11.386  14.054  1.00 16.14 LIG 0.00  C 
BRANCH 3 4
ATOM      4  CD  LYS Q   4      20.191  11.295  13.503  1.00 18.10 LIG 0.03  C 
BRANCH 4 5
ATOM      5  CE  LYS Q   4      20.516   9.849  13.200  1.00 22.11 LIG 0.23  C 
BRANCH 5 6
ATOM      6  NZ  LYS Q   4      20.842   9.663  11.761  1.00 25.79 LIG-0.08  N 
ATOM      7 HZ1  LYS Q   4      20.090   9.563  11.296  1.00 25.79 LIG 0.27  HD
ATOM      8 HZ2  LYS Q   4      21.282  10.377  11.461  1.00 25.79 LIG 0.27  HD
ATOM      9 HZ3  LYS Q   4      21.350   8.939  11.663  1.00 25.79 LIG 0.27  HD
ENDBRANCH 5 6
ENDBRANCH 4 5
ENDBRANCH 3 4
ENDBRANCH 2 3
ENDBRANCH 1 2
BRANCH 1 10
ATOM     10  C   LYS Q   4      16.523   8.836  15.671  1.00 15.70 LIG 0.24  C 
ATOM     11  N   GLN Q   5      15.284   8.339  15.691  1.00 16.90 LIG-0.35  N 
ATOM     12 H    GLN Q   5      14.655   8.585  15.158  1.00 16.90 LIG 0.16  HD
ATOM     13 O    LYS Q   4      17.444   8.356  16.344  1.00 16.41 LIG-0.27  OA
BRANCH 11 14
ATOM     14  CA  GLN Q   5      14.901   7.303  16.656  1.00 18.58 LIG 0.18  C 
BRANCH 14 15
ATOM     15  CB  GLN Q   5      15.150   5.900  16.093  1.00 18.36 LIG 0.04  C 
BRANCH 15 16
ATOM     16  CG  GLN Q   5      13.891   5.077  15.832  1.00 19.34 LIG 0.10  C 
BRANCH 16 17
ATOM     17  CD  GLN Q   5      12.853   5.777  14.983  1.00 21.85 LIG 0.21  C 
ATOM     18  NE2 GLN Q   5      12.589   5.228  13.796  1.00 24.33 LIG-0.37  N 
ATOM     19 21HE GLN Q   5      13.007   4.519  13.547  1.00 24.33 LIG 0.16  HD
ATOM     20 22HE GLN Q   5      12.000   5.583  13.279  1.00 24.33 LIG 0.16  HD
ATOM     21 OE1  GLN Q   5      12.285   6.788  15.386  1.00 24.78 LIG-0.27  OA
ENDBRANCH 16 17
ENDBRANCH 15 16
ENDBRANCH 14 15
BRANCH 14 22
ATOM     22  C   GLN Q   5      15.612   7.468  17.991  1.00 20.15 LIG 0.24  C 
ATOM     23 O    GLN Q   5      16.478   6.655  18.333  1.00 22.37 LIG-0.27  OA
ATOM     24  N   THR Q   6      15.275   8.500  18.753  1.00 20.72 LIG-0.34  N 
ATOM     25 H    THR Q   6      14.753   9.140  18.510  1.00 20.72 LIG 0.16  HD
BRANCH 24 26
ATOM     26  CA  THR Q   6      15.803   8.608  20.116  1.00 22.01 LIG 0.20  C 
BRANCH 26 27
ATOM     27  CB  THR Q   6      17.288   9.017  20.151  1.00 21.09 LIG 0.15  C 
ATOM     28  CG2 THR Q   6      17.740   9.570  18.800  1.00 22.53 LIG 0.04  C 
BRANCH 27 29
ATOM     29 OG1  THR Q   6      17.490  10.006  21.166  1.00 19.47 LIG-0.39  OA
ATOM     30 HG1  THR Q   6      18.107   9.759  21.680  1.00 19.47 LIG 0.21  HD
ENDBRANCH 27 29
ENDBRANCH 26 27
BRANCH 26 31
ATOM     31  C   THR Q   6      14.980   9.564  20.974  1.00 23.85 LIG 0.24  C 
ATOM     32  N   ALA Q   7      13.927  10.141  20.393  1.00 25.35 LIG-0.35  N 
ATOM     33 H    ALA Q   7      13.716  10.017  19.568  1.00 25.35 LIG 0.16  HD
ATOM     34 O    THR Q   6      15.285   9.750  22.158  1.00 25.66 LIG-0.27  OA
BRANCH 32 35
ATOM     35  CA  ALA Q   7      13.020  11.052  21.107  1.00 27.02 LIG 0.16  C 
ATOM     36  CB  ALA Q   7      13.681  12.414  21.301  1.00 27.03 LIG 0.04  C 
BRANCH 35 37
ATOM     37  C   ALA Q   7      11.672  11.210  20.394  1.00 28.43 LIG 0.22  C 
ATOM     38 O    ALA Q   7      10.648  11.510  21.026  1.00 30.23 LIG-0.29  OA
ENDBRANCH 35 37
ENDBRANCH 32 35
ENDBRANCH 26 31
ENDBRANCH 24 26
ENDBRANCH 14 22
ENDBRANCH 11 14
ENDBRANCH 1 10
BRANCH 1 39
ATOM     39  N   LYS Q   4      16.505  11.318  15.471  1.00 13.85 LIG-0.35  N 
ATOM     40 H    LYS Q   4      16.993  11.976  15.212  1.00 13.85 LIG 0.16  HD
ATOM     41  C   THR Q   3      15.572  11.409  16.420  1.00 13.84 LIG 0.24  C 
ATOM     42 O    THR Q   3      14.840  10.466  16.749  1.00 14.15 LIG-0.27  OA
BRANCH 41 43
ATOM     43  CA  THR Q   3      15.468  12.743  17.127  1.00 13.21 LIG 0.20  C 
BRANCH 43 44
ATOM     44  CB  THR Q   3      16.650  12.854  18.122  1.00 13.38 LIG 0.15  C 
ATOM     45  CG2 THR Q   3      16.328  12.242  19.464  1.00 13.96 LIG 0.04  C 
BRANCH 44 46
ATOM     46 OG1  THR Q   3      17.837  12.268  17.568  1.00 13.85 LIG-0.39  OA
ATOM     47 HG1  THR Q   3      18.189  12.806  17.028  1.00 13.85 LIG 0.21  HD
ENDBRANCH 44 46
ENDBRANCH 43 44
BRANCH 43 48
ATOM     48  N   THR Q   3      14.153  12.893  17.756  1.00 13.00 LIG-0.34  N 
ATOM     49  C   ARG Q   2      13.364  13.933  17.500  1.00 13.30 LIG 0.24  C 
ATOM     50 O    ARG Q   2      13.722  14.905  16.848  1.00 13.04 LIG-0.27  OA
ATOM     51 H    THR Q   3      13.945  12.257  18.296  1.00 13.00 LIG 0.16  HD
BRANCH 49 52
ATOM     52  CA  ARG Q   2      11.972  13.877  18.086  1.00 13.85 LIG 0.18  C 
BRANCH 52 53
ATOM     53  N   ARG Q   2      11.780  15.011  18.976  1.00 14.89 LIG-0.35  N 
ATOM     54 H    ARG Q   2      12.329  15.658  18.836  1.00 14.89 LIG 0.16  HD
ATOM     55  C   ALA Q   1      10.846  15.045  19.916  1.00 17.12 LIG 0.25  C 
ATOM     56 O    ALA Q   1      10.050  14.122  20.122  1.00 19.52 LIG-0.27  OA
BRANCH 55 57
ATOM     57  CA  ALA Q   1      10.791  16.329  20.734  1.00 17.93 LIG 0.27  C 
ATOM     58  CB  ALA Q   1       9.479  16.422  21.525  1.00 18.07 LIG 0.05  C 
BRANCH 57 59
ATOM     59  N   ALA Q   1      10.980  17.529  19.863  1.00 19.51 LIG-0.07  N 
ATOM     60 H1   ALA Q   1      10.653  18.248  20.273  1.00 19.51 LIG 0.28  HD
ATOM     61 H3   ALA Q   1      10.551  17.407  19.092  1.00 19.51 LIG 0.28  HD
ATOM     62 H2   ALA Q   1      11.847  17.647  19.704  1.00 19.51 LIG 0.28  HD
ENDBRANCH 57 59
ENDBRANCH 55 57
ENDBRANCH 52 53
BRANCH 52 63
ATOM     63  CB  ARG Q   2      10.944  13.905  16.949  1.00 13.50 LIG 0.04  C 
BRANCH 63 64
ATOM     64  CG  ARG Q   2      10.372  15.301  16.644  1.00 14.15 LIG 0.02  C 
BRANCH 64 65
ATOM     65  CD  ARG Q   2       8.922  15.398  17.092  1.00 12.93 LIG 0.14  C 
BRANCH 65 66
ATOM     66  NE  ARG Q   2       8.454  16.780  17.020  1.00 12.58 LIG-0.23  N 
ATOM     67 HE   ARG Q   2       8.655  17.226  16.313  1.00 12.58 LIG 0.18  HD
ATOM     68  CZ  ARG Q   2       7.740  17.412  17.960  1.00 11.80 LIG 0.67  C 
ATOM     69  NH2 ARG Q   2       7.346  18.656  17.747  1.00 12.39 LIG-0.23  N 
ATOM     70  NH1 ARG Q   2       7.426  16.824  19.107  1.00 13.65 LIG-0.23  N 
ATOM     71 2HH2 ARG Q   2       6.887  19.070  18.346  1.00 12.39 LIG 0.17  HD
ATOM     72 1HH2 ARG Q   2       7.550  19.052  17.011  1.00 12.39 LIG 0.17  HD
ATOM     73 2HH1 ARG Q   2       6.966  17.249  19.696  1.00 13.65 LIG 0.17  HD
ATOM     74 1HH1 ARG Q   2       7.683  16.018  19.261  1.00 13.65 LIG 0.17  HD
ENDBRANCH 65 66
ENDBRANCH 64 65
ENDBRANCH 63 64
ENDBRANCH 52 63
ENDBRANCH 49 52
ENDBRANCH 43 48
ENDBRANCH 41 43
ENDBRANCH 1 39
TORSDOF 30
ENDMDL
MODEL 25
USER: ADFR SOLUTION from run 127
USER: SCORE 21.725997 LL:  -3.988 LR: -19.278 RR:   0.000 FEB: -10.329
USER: RMSD 9.368917
USER: SEED 126
USER: STATUS no improvement in best in 5 clusters for 5 generations
USER: GENES 32
USER: genes 0 Translation |==|  0.54912 0.44383 0.42926
USER: genes 1 Rotation |==|  0.50393 0.26380 0.93776 0.55061
USER: genes 2 Torsion [C]-CA--CB-[CG] |==|  0.58585
USER: genes 3 Torsion [CA]-CB--CG-[CD] |==|  0.50724
USER: genes 4 Torsion [CB]-CG--CD-[CE] |==|  0.01758
USER: genes 5 Torsion [CG]-CD--CE-[NZ] |==|  0.33463
USER: genes 6 Torsion [CD]-CE--NZ-[HZ1] |==|  0.76633
USER: genes 7 Torsion [N]-CA--C-[N] |==|  0.24654
USER: genes 8 Torsion [C]-N--CA-[CB] |==|  0.75008
USER: genes 9 Torsion [N]-CA--CB-[CG] |==|  0.68256
USER: genes 10 Torsion [CA]-CB--CG-[CD] |==|  0.14435
USER: genes 11 Torsion [CB]-CG--CD-[OE1] |==|  0.81941
USER: genes 12 Torsion [N]-CA--C-[N] |==|  0.18885
USER: genes 13 Torsion [C]-N--CA-[CB] |==|  0.86658
USER: genes 14 Torsion [N]-CA--CB-[CG2] |==|  0.51521
USER: genes 15 Torsion [CA]-CB--OG1-[HG1] |==|  0.11626
USER: genes 16 Torsion [N]-CA--C-[N] |==|  0.90198
USER: genes 17 Torsion [C]-N--CA-[C] |==|  0.62605
USER: genes 18 Torsion [N]-CA--C-[O] |==|  0.45179
USER: genes 19 Torsion [CB]-CA--N-[C] |==|  0.57507
USER: genes 20 Torsion [N]-C--CA-[N] |==|  0.44212
USER: genes 21 Torsion [C]-CA--CB-[CG2] |==|  0.97457
USER: genes 22 Torsion [CA]-CB--OG1-[HG1] |==|  0.21999
USER: genes 23 Torsion [C]-CA--N-[C] |==|  0.65295
USER: genes 24 Torsion [N]-C--CA-[N] |==|  0.33304
USER: genes 25 Torsion [C]-CA--N-[C] |==|  0.55556
USER: genes 26 Torsion [N]-C--CA-[N] |==|  0.11416
USER: genes 27 Torsion [C]-CA--N-[H1] |==|  0.43703
USER: genes 28 Torsion [C]-CA--CB-[CG] |==|  0.73282
USER: genes 29 Torsion [CA]-CB--CG-[CD] |==|  0.69938
USER: genes 30 Torsion [CB]-CG--CD-[NE] |==|  0.47303
USER: genes 31 Torsion [CG]-CD--NE-[HE] |==|  0.12112
ROOT
ATOM      1  CA  LYS Q   4      16.770  10.060  14.776  1.00 15.20 LIG 0.18  C 
ENDROOT
BRANCH 1 2
ATOM      2  CB  LYS Q   4      18.212  10.023  14.277  1.00 14.69 LIG 0.04  C 
BRANCH 2 3
ATOM      3  CG  LYS Q   4      18.799  11.387  14.055  1.00 16.14 LIG 0.00  C 
BRANCH 3 4
ATOM      4  CD  LYS Q   4      20.194  11.295  13.506  1.00 18.10 LIG 0.03  C 
BRANCH 4 5
ATOM      5  CE  LYS Q   4      20.516   9.849  13.200  1.00 22.11 LIG 0.23  C 
BRANCH 5 6
ATOM      6  NZ  LYS Q   4      20.843   9.666  11.761  1.00 25.79 LIG-0.08  N 
ATOM      7 HZ1  LYS Q   4      20.091   9.568  11.296  1.00 25.79 LIG 0.27  HD
ATOM      8 HZ2  LYS Q   4      21.285  10.379  11.463  1.00 25.79 LIG 0.27  HD
ATOM      9 HZ3  LYS Q   4      21.349   8.941  11.661  1.00 25.79 LIG 0.27  HD
ENDBRANCH 5 6
ENDBRANCH 4 5
ENDBRANCH 3 4
ENDBRANCH 2 3
ENDBRANCH 1 2
BRANCH 1 10
ATOM     10  C   LYS Q   4      16.516   8.840  15.666  1.00 15.70 LIG 0.24  C 
ATOM     11  N   GLN Q   5      15.282   8.333  15.666  1.00 16.90 LIG-0.35  N 
ATOM     12 H    GLN Q   5      14.659   8.571  15.121  1.00 16.90 LIG 0.16  HD
ATOM     13 O    LYS Q   4      17.429   8.372  16.356  1.00 16.41 LIG-0.27  OA
BRANCH 11 14
ATOM     14  CA  GLN Q   5      14.891   7.297  16.629  1.00 18.58 LIG 0.18  C 
BRANCH 14 15
ATOM     15  CB  GLN Q   5      15.160   5.894  16.076  1.00 18.36 LIG 0.04  C 
BRANCH 15 16
ATOM     16  CG  GLN Q   5      13.913   5.049  15.826  1.00 19.34 LIG 0.10  C 
BRANCH 16 17
ATOM     17  CD  GLN Q   5      12.856   5.731  14.985  1.00 21.85 LIG 0.21  C 
ATOM     18  NE2 GLN Q   5      12.591   5.177  13.801  1.00 24.33 LIG-0.37  N 
ATOM     19 21HE GLN Q   5      13.020   4.476  13.549  1.00 24.33 LIG 0.16  HD
ATOM     20 22HE GLN Q   5      11.992   5.521  13.289  1.00 24.33 LIG 0.16  HD
ATOM     21 OE1  GLN Q   5      12.274   6.732  15.393  1.00 24.78 LIG-0.27  OA
ENDBRANCH 16 17
ENDBRANCH 15 16
ENDBRANCH 14 15
BRANCH 14 22
ATOM     22  C   GLN Q   5      15.579   7.473  17.975  1.00 20.15 LIG 0.24  C 
ATOM     23 O    GLN Q   5      16.422   6.650  18.348  1.00 22.37 LIG-0.27  OA
ATOM     24  N   THR Q   6      15.247   8.525  18.711  1.00 20.72 LIG-0.34  N 
ATOM     25 H    THR Q   6      14.743   9.170  18.447  1.00 20.72 LIG 0.16  HD
BRANCH 24 26
ATOM     26  CA  THR Q   6      15.751   8.647  20.082  1.00 22.01 LIG 0.20  C 
BRANCH 26 27
ATOM     27  CB  THR Q   6      15.571   7.355  20.903  1.00 21.09 LIG 0.15  C 
ATOM     28  CG2 THR Q   6      15.983   7.565  22.359  1.00 22.53 LIG 0.04  C 
BRANCH 27 29
ATOM     29 OG1  THR Q   6      14.203   6.938  20.847  1.00 19.47 LIG-0.39  OA
ATOM     30 HG1  THR Q   6      13.913   7.033  20.064  1.00 19.47 LIG 0.21  HD
ENDBRANCH 27 29
ENDBRANCH 26 27
BRANCH 26 31
ATOM     31  C   THR Q   6      17.212   9.086  20.117  1.00 23.85 LIG 0.24  C 
ATOM     32  N   ALA Q   7      18.003   8.627  19.145  1.00 25.35 LIG-0.35  N 
ATOM     33 H    ALA Q   7      17.732   8.089  18.531  1.00 25.35 LIG 0.16  HD
ATOM     34 O    THR Q   6      17.606   9.855  21.002  1.00 25.66 LIG-0.27  OA
BRANCH 32 35
ATOM     35  CA  ALA Q   7      19.421   8.998  19.028  1.00 27.02 LIG 0.16  C 
ATOM     36  CB  ALA Q   7      20.308   7.871  19.550  1.00 27.03 LIG 0.04  C 
BRANCH 35 37
ATOM     37  C   ALA Q   7      19.811   9.361  17.590  1.00 28.43 LIG 0.22  C 
ATOM     38 O    ALA Q   7      20.851   9.994  17.352  1.00 30.23 LIG-0.29  OA
ENDBRANCH 35 37
ENDBRANCH 32 35
ENDBRANCH 26 31
ENDBRANCH 24 26
ENDBRANCH 14 22
ENDBRANCH 11 14
ENDBRANCH 1 10
BRANCH 1 39
ATOM     39  N   LYS Q   4      16.500  11.322  15.461  1.00 13.85 LIG-0.35  N 
ATOM     40 H    LYS Q   4      16.985  11.981  15.198  1.00 13.85 LIG 0.16  HD
ATOM     41  C   THR Q   3      15.568  11.413  16.411  1.00 13.84 LIG 0.24  C 
ATOM     42 O    THR Q   3      14.841  10.469  16.745  1.00 14.15 LIG-0.27  OA
BRANCH 41 43
ATOM     43  CA  THR Q   3      15.462  12.749  17.114  1.00 13.21 LIG 0.20  C 
BRANCH 43 44
ATOM     44  CB  THR Q   3      16.647  12.869  18.105  1.00 13.38 LIG 0.15  C 
ATOM     45  CG2 THR Q   3      17.409  11.572  18.245  1.00 13.96 LIG 0.04  C 
BRANCH 44 46
ATOM     46 OG1  THR Q   3      17.525  13.936  17.718  1.00 13.85 LIG-0.39  OA
ATOM     47 HG1  THR Q   3      17.197  14.670  17.960  1.00 13.85 LIG 0.21  HD
ENDBRANCH 44 46
ENDBRANCH 43 44
BRANCH 43 48
ATOM     48  N   THR Q   3      14.148  12.896  17.748  1.00 13.00 LIG-0.34  N 
ATOM     49  C   ARG Q   2      13.355  13.932  17.493  1.00 13.30 LIG 0.24  C 
ATOM     50 O    ARG Q   2      13.708  14.905  16.839  1.00 13.04 LIG-0.27  OA
ATOM     51 H    THR Q   3      13.944  12.259  18.289  1.00 13.00 LIG 0.16  HD
BRANCH 49 52
ATOM     52  CA  ARG Q   2      11.966  13.873  18.083  1.00 13.85 LIG 0.18  C 
BRANCH 52 53
ATOM     53  N   ARG Q   2      11.773  15.006  18.976  1.00 14.89 LIG-0.35  N 
ATOM     54 H    ARG Q   2      12.321  15.654  18.834  1.00 14.89 LIG 0.16  HD
ATOM     55  C   ALA Q   1      10.843  15.037  19.918  1.00 17.12 LIG 0.25  C 
ATOM     56 O    ALA Q   1      10.049  14.112  20.125  1.00 19.52 LIG-0.27  OA
BRANCH 55 57
ATOM     57  CA  ALA Q   1      10.787  16.320  20.737  1.00 17.93 LIG 0.27  C 
ATOM     58  CB  ALA Q   1       9.477  16.411  21.532  1.00 18.07 LIG 0.05  C 
BRANCH 57 59
ATOM     59  N   ALA Q   1      10.972  17.521  19.867  1.00 19.51 LIG-0.07  N 
ATOM     60 H1   ALA Q   1      10.622  18.235  20.268  1.00 19.51 LIG 0.28  HD
ATOM     61 H3   ALA Q   1      10.563  17.388  19.087  1.00 19.51 LIG 0.28  HD
ATOM     62 H2   ALA Q   1      11.841  17.656  19.727  1.00 19.51 LIG 0.28  HD
ENDBRANCH 57 59
ENDBRANCH 55 57
ENDBRANCH 52 53
BRANCH 52 63
ATOM     63  CB  ARG Q   2      10.934  13.899  16.951  1.00 13.50 LIG 0.04  C 
BRANCH 63 64
ATOM     64  CG  ARG Q   2      10.361  15.295  16.645  1.00 14.15 LIG 0.02  C 
BRANCH 64 65
ATOM     65  CD  ARG Q   2       8.918  15.399  17.113  1.00 12.93 LIG 0.14  C 
BRANCH 65 66
ATOM     66  NE  ARG Q   2       8.451  16.781  17.033  1.00 12.58 LIG-0.23  N 
ATOM     67 HE   ARG Q   2       8.655  17.224  16.324  1.00 12.58 LIG 0.18  HD
ATOM     68  CZ  ARG Q   2       7.734  17.418  17.968  1.00 11.80 LIG 0.67  C 
ATOM     69  NH2 ARG Q   2       7.342  18.662  17.749  1.00 12.39 LIG-0.23  N 
ATOM     70  NH1 ARG Q   2       7.417  16.836  19.117  1.00 13.65 LIG-0.23  N 
ATOM     71 2HH2 ARG Q   2       6.881  19.078  18.344  1.00 12.39 LIG 0.17  HD
ATOM     72 1HH2 ARG Q   2       7.549  19.054  17.011  1.00 12.39 LIG 0.17  HD
ATOM     73 2HH1 ARG Q   2       6.955  17.264  19.702  1.00 13.65 LIG 0.17  HD
ATOM     74 1HH1 ARG Q   2       7.673  16.030  19.275  1.00 13.65 LIG 0.17  HD
ENDBRANCH 65 66
ENDBRANCH 64 65
ENDBRANCH 63 64
ENDBRANCH 52 63
ENDBRANCH 49 52
ENDBRANCH 43 48
ENDBRANCH 41 43
ENDBRANCH 1 39
TORSDOF 30
ENDMDL
MODEL 26
USER: ADFR SOLUTION from run 79
USER: SCORE 20.114176 LL:  -4.252 LR: -19.207 RR:   0.000 FEB: -10.258
USER: RMSD 7.568694
USER: SEED 78
USER: STATUS no improvement in best in 1 clusters for 5 generations
USER: GENES 32
USER: genes 0 Translation |==|  0.68375 0.47341 0.35663
USER: genes 1 Rotation |==|  0.29670 0.28545 0.86100 0.67977
USER: genes 2 Torsion [C]-CA--CB-[CG] |==|  0.94652
USER: genes 3 Torsion [CA]-CB--CG-[CD] |==|  0.38345
USER: genes 4 Torsion [CB]-CG--CD-[CE] |==|  0.93422
USER: genes 5 Torsion [CG]-CD--CE-[NZ] |==|  0.27328
USER: genes 6 Torsion [CD]-CE--NZ-[HZ1] |==|  0.78933
USER: genes 7 Torsion [N]-CA--C-[N] |==|  0.01645
USER: genes 8 Torsion [C]-N--CA-[CB] |==|  0.18889
USER: genes 9 Torsion [N]-CA--CB-[CG] |==|  0.74974
USER: genes 10 Torsion [CA]-CB--CG-[CD] |==|  0.69879
USER: genes 11 Torsion [CB]-CG--CD-[OE1] |==|  0.58466
USER: genes 12 Torsion [N]-CA--C-[N] |==|  0.41543
USER: genes 13 Torsion [C]-N--CA-[CB] |==|  0.46765
USER: genes 14 Torsion [N]-CA--CB-[CG2] |==|  0.66445
USER: genes 15 Torsion [CA]-CB--OG1-[HG1] |==|  0.94705
USER: genes 16 Torsion [N]-CA--C-[N] |==|  0.40954
USER: genes 17 Torsion [C]-N--CA-[C] |==|  0.81966
USER: genes 18 Torsion [N]-CA--C-[O] |==|  0.60525
USER: genes 19 Torsion [CB]-CA--N-[C] |==|  0.82144
USER: genes 20 Torsion [N]-C--CA-[N] |==|  0.02341
USER: genes 21 Torsion [C]-CA--CB-[CG2] |==|  0.64268
USER: genes 22 Torsion [CA]-CB--OG1-[HG1] |==|  0.72041
USER: genes 23 Torsion [C]-CA--N-[C] |==|  0.65002
USER: genes 24 Torsion [N]-C--CA-[N] |==|  0.67092
USER: genes 25 Torsion [C]-CA--N-[C] |==|  0.17116
USER: genes 26 Torsion [N]-C--CA-[N] |==|  0.60394
USER: genes 27 Torsion [C]-CA--N-[H1] |==|  0.65917
USER: genes 28 Torsion [C]-CA--CB-[CG] |==|  0.21499
USER: genes 29 Torsion [CA]-CB--CG-[CD] |==|  0.59035
USER: genes 30 Torsion [CB]-CG--CD-[NE] |==|  0.70665
USER: genes 31 Torsion [CG]-CD--NE-[HE] |==|  0.20002
ROOT
ATOM      1  CA  LYS Q   4      20.001  10.636  13.250  1.00 15.20 LIG 0.18  C 
ENDROOT
BRANCH 1 2
ATOM      2  CB  LYS Q   4      20.904   9.415  13.401  1.00 14.69 LIG 0.04  C 
BRANCH 2 3
ATOM      3  CG  LYS Q   4      20.352   8.380  14.336  1.00 16.14 LIG 0.00  C 
BRANCH 3 4
ATOM      4  CD  LYS Q   4      20.549   6.994  13.790  1.00 18.10 LIG 0.03  C 
BRANCH 4 5
ATOM      5  CE  LYS Q   4      20.689   7.065  12.285  1.00 22.11 LIG 0.23  C 
BRANCH 5 6
ATOM      6  NZ  LYS Q   4      22.119   7.030  11.878  1.00 25.79 LIG-0.08  N 
ATOM      7 HZ1  LYS Q   4      22.492   7.823  12.035  1.00 25.79 LIG 0.27  HD
ATOM      8 HZ2  LYS Q   4      22.546   6.405  12.345  1.00 25.79 LIG 0.27  HD
ATOM      9 HZ3  LYS Q   4      22.176   6.843  11.010  1.00 25.79 LIG 0.27  HD
ENDBRANCH 5 6
ENDBRANCH 4 5
ENDBRANCH 3 4
ENDBRANCH 2 3
ENDBRANCH 1 2
BRANCH 1 10
ATOM     10  C   LYS Q   4      18.585  10.273  13.705  1.00 15.70 LIG 0.24  C 
ATOM     11  N   GLN Q   5      18.004  11.082  14.593  1.00 16.90 LIG-0.35  N 
ATOM     12 H    GLN Q   5      18.322  11.843  14.836  1.00 16.90 LIG 0.16  HD
ATOM     13 O    LYS Q   4      18.030   9.259  13.263  1.00 16.41 LIG-0.27  OA
BRANCH 11 14
ATOM     14  CA  GLN Q   5      16.738  10.712  15.236  1.00 18.58 LIG 0.18  C 
BRANCH 14 15
ATOM     15  CB  GLN Q   5      16.923   9.521  16.183  1.00 18.36 LIG 0.04  C 
BRANCH 15 16
ATOM     16  CG  GLN Q   5      16.724   8.150  15.540  1.00 19.34 LIG 0.10  C 
BRANCH 16 17
ATOM     17  CD  GLN Q   5      15.456   7.442  15.963  1.00 21.85 LIG 0.21  C 
ATOM     18  NE2 GLN Q   5      14.413   8.219  16.261  1.00 24.33 LIG-0.37  N 
ATOM     19 21HE GLN Q   5      14.487   9.074  16.216  1.00 24.33 LIG 0.16  HD
ATOM     20 22HE GLN Q   5      13.666   7.865  16.498  1.00 24.33 LIG 0.16  HD
ATOM     21 OE1  GLN Q   5      15.403   6.216  16.011  1.00 24.78 LIG-0.27  OA
ENDBRANCH 16 17
ENDBRANCH 15 16
ENDBRANCH 14 15
BRANCH 14 22
ATOM     22  C   GLN Q   5      16.106  11.880  15.978  1.00 20.15 LIG 0.24  C 
ATOM     23 O    GLN Q   5      16.822  12.758  16.472  1.00 22.37 LIG-0.27  OA
ATOM     24  N   THR Q   6      14.783  11.919  16.066  1.00 20.72 LIG-0.34  N 
ATOM     25 H    THR Q   6      14.247  11.386  15.655  1.00 20.72 LIG 0.16  HD
BRANCH 24 26
ATOM     26  CA  THR Q   6      14.135  12.925  16.914  1.00 22.01 LIG 0.20  C 
BRANCH 26 27
ATOM     27  CB  THR Q   6      12.614  13.013  16.681  1.00 21.09 LIG 0.15  C 
ATOM     28  CG2 THR Q   6      12.205  14.417  16.235  1.00 22.53 LIG 0.04  C 
BRANCH 27 29
ATOM     29 OG1  THR Q   6      12.226  12.062  15.685  1.00 19.47 LIG-0.39  OA
ATOM     30 HG1  THR Q   6      12.900  11.830  15.240  1.00 19.47 LIG 0.21  HD
ENDBRANCH 27 29
ENDBRANCH 26 27
BRANCH 26 31
ATOM     31  C   THR Q   6      14.422  12.695  18.395  1.00 23.85 LIG 0.24  C 
ATOM     32  N   ALA Q   7      14.502  13.779  19.168  1.00 25.35 LIG-0.35  N 
ATOM     33 H    ALA Q   7      14.424  14.581  18.868  1.00 25.35 LIG 0.16  HD
ATOM     34 O    THR Q   6      14.542  11.544  18.829  1.00 25.66 LIG-0.27  OA
BRANCH 32 35
ATOM     35  CA  ALA Q   7      14.732  13.709  20.619  1.00 27.02 LIG 0.16  C 
ATOM     36  CB  ALA Q   7      14.982  15.104  21.184  1.00 27.03 LIG 0.04  C 
BRANCH 35 37
ATOM     37  C   ALA Q   7      13.574  13.032  21.362  1.00 28.43 LIG 0.22  C 
ATOM     38 O    ALA Q   7      13.204  13.440  22.473  1.00 30.23 LIG-0.29  OA
ENDBRANCH 35 37
ENDBRANCH 32 35
ENDBRANCH 26 31
ENDBRANCH 24 26
ENDBRANCH 14 22
ENDBRANCH 11 14
ENDBRANCH 1 10
BRANCH 1 39
ATOM     39  N   LYS Q   4      20.553  11.772  13.986  1.00 13.85 LIG-0.35  N 
ATOM     40 H    LYS Q   4      20.786  12.437  13.493  1.00 13.85 LIG 0.16  HD
ATOM     41  C   THR Q   3      20.673  11.749  15.314  1.00 13.84 LIG 0.24  C 
ATOM     42 O    THR Q   3      20.288  10.806  16.017  1.00 14.15 LIG-0.27  OA
BRANCH 41 43
ATOM     43  CA  THR Q   3      21.357  12.944  15.942  1.00 13.21 LIG 0.20  C 
BRANCH 43 44
ATOM     44  CB  THR Q   3      20.508  13.403  17.154  1.00 13.38 LIG 0.15  C 
ATOM     45  CG2 THR Q   3      20.198  14.881  17.108  1.00 13.96 LIG 0.04  C 
BRANCH 44 46
ATOM     46 OG1  THR Q   3      19.302  12.633  17.249  1.00 13.85 LIG-0.39  OA
ATOM     47 HG1  THR Q   3      18.661  13.076  16.934  1.00 13.85 LIG 0.21  HD
ENDBRANCH 44 46
ENDBRANCH 43 44
BRANCH 43 48
ATOM     48  N   THR Q   3      21.578  13.996  14.945  1.00 13.00 LIG-0.34  N 
ATOM     49  C   ARG Q   2      22.780  14.521  14.730  1.00 13.30 LIG 0.24  C 
ATOM     50 O    ARG Q   2      23.754  14.284  15.432  1.00 13.04 LIG-0.27  OA
ATOM     51 H    THR Q   3      20.868  14.235  14.522  1.00 13.00 LIG 0.16  HD
BRANCH 49 52
ATOM     52  CA  ARG Q   2      22.894  15.474  13.563  1.00 13.85 LIG 0.18  C 
BRANCH 52 53
ATOM     53  N   ARG Q   2      23.839  14.938  12.595  1.00 14.89 LIG-0.35  N 
ATOM     54 H    ARG Q   2      24.525  15.441  12.467  1.00 14.89 LIG 0.16  HD
ATOM     55  C   ALA Q   1      23.661  13.784  11.969  1.00 17.12 LIG 0.25  C 
ATOM     56 O    ALA Q   1      22.680  13.054  12.150  1.00 19.52 LIG-0.27  OA
BRANCH 55 57
ATOM     57  CA  ALA Q   1      24.772  13.386  11.006  1.00 17.93 LIG 0.27  C 
ATOM     58  CB  ALA Q   1      25.632  14.599  10.626  1.00 18.07 LIG 0.05  C 
BRANCH 57 59
ATOM     59  N   ALA Q   1      24.216  12.719   9.790  1.00 19.51 LIG-0.07  N 
ATOM     60 H1   ALA Q   1      24.578  11.910   9.704  1.00 19.51 LIG 0.28  HD
ATOM     61 H3   ALA Q   1      24.406  13.207   9.070  1.00 19.51 LIG 0.28  HD
ATOM     62 H2   ALA Q   1      23.333  12.642   9.871  1.00 19.51 LIG 0.28  HD
ENDBRANCH 57 59
ENDBRANCH 55 57
ENDBRANCH 52 53
BRANCH 52 63
ATOM     63  CB  ARG Q   2      21.514  15.656  12.922  1.00 13.50 LIG 0.04  C 
BRANCH 63 64
ATOM     64  CG  ARG Q   2      20.572  16.594  13.698  1.00 14.15 LIG 0.02  C 
BRANCH 64 65
ATOM     65  CD  ARG Q   2      19.125  16.151  13.545  1.00 12.93 LIG 0.14  C 
BRANCH 65 66
ATOM     66  NE  ARG Q   2      18.408  17.044  12.638  1.00 12.58 LIG-0.23  N 
ATOM     67 HE   ARG Q   2      18.601  16.991  11.802  1.00 12.58 LIG 0.18  HD
ATOM     68  CZ  ARG Q   2      17.478  17.938  12.997  1.00 11.80 LIG 0.67  C 
ATOM     69  NH2 ARG Q   2      16.877  18.657  12.065  1.00 12.39 LIG-0.23  N 
ATOM     70  NH1 ARG Q   2      17.151  18.129  14.268  1.00 13.65 LIG-0.23  N 
ATOM     71 2HH2 ARG Q   2      16.278  19.234  12.286  1.00 12.39 LIG 0.17  HD
ATOM     72 1HH2 ARG Q   2      17.085  18.549  11.237  1.00 12.39 LIG 0.17  HD
ATOM     73 2HH1 ARG Q   2      16.551  18.708  14.475  1.00 13.65 LIG 0.17  HD
ATOM     74 1HH1 ARG Q   2      17.541  17.673  14.885  1.00 13.65 LIG 0.17  HD
ENDBRANCH 65 66
ENDBRANCH 64 65
ENDBRANCH 63 64
ENDBRANCH 52 63
ENDBRANCH 49 52
ENDBRANCH 43 48
ENDBRANCH 41 43
ENDBRANCH 1 39
TORSDOF 30
ENDMDL
MODEL 27
USER: ADFR SOLUTION from run 163
USER: SCORE 22.626046 LL:  -5.170 LR: -19.179 RR:   0.000 FEB: -10.230
USER: RMSD 4.964727
USER: SEED 162
USER: STATUS no improvement in best in 4 clusters for 5 generations
USER: GENES 32
USER: genes 0 Translation |==|  0.38957 0.60785 0.50194
USER: genes 1 Rotation |==|  0.45477 0.45440 0.53954 0.99428
USER: genes 2 Torsion [C]-CA--CB-[CG] |==|  0.13974
USER: genes 3 Torsion [CA]-CB--CG-[CD] |==|  0.72557
USER: genes 4 Torsion [CB]-CG--CD-[CE] |==|  0.61827
USER: genes 5 Torsion [CG]-CD--CE-[NZ] |==|  0.54129
USER: genes 6 Torsion [CD]-CE--NZ-[HZ1] |==|  0.54874
USER: genes 7 Torsion [N]-CA--C-[N] |==|  0.44988
USER: genes 8 Torsion [C]-N--CA-[CB] |==|  0.47883
USER: genes 9 Torsion [N]-CA--CB-[CG] |==|  0.04719
USER: genes 10 Torsion [CA]-CB--CG-[CD] |==|  0.20210
USER: genes 11 Torsion [CB]-CG--CD-[OE1] |==|  0.03600
USER: genes 12 Torsion [N]-CA--C-[N] |==|  0.44275
USER: genes 13 Torsion [C]-N--CA-[CB] |==|  0.86650
USER: genes 14 Torsion [N]-CA--CB-[CG2] |==|  0.57752
USER: genes 15 Torsion [CA]-CB--OG1-[HG1] |==|  0.31076
USER: genes 16 Torsion [N]-CA--C-[N] |==|  0.89917
USER: genes 17 Torsion [C]-N--CA-[C] |==|  0.16428
USER: genes 18 Torsion [N]-CA--C-[O] |==|  0.39093
USER: genes 19 Torsion [CB]-CA--N-[C] |==|  0.50000
USER: genes 20 Torsion [N]-C--CA-[N] |==|  0.43831
USER: genes 21 Torsion [C]-CA--CB-[CG2] |==|  0.52479
USER: genes 22 Torsion [CA]-CB--OG1-[HG1] |==|  0.17971
USER: genes 23 Torsion [C]-CA--N-[C] |==|  0.68893
USER: genes 24 Torsion [N]-C--CA-[N] |==|  0.42737
USER: genes 25 Torsion [C]-CA--N-[C] |==|  0.83150
USER: genes 26 Torsion [N]-C--CA-[N] |==|  0.85892
USER: genes 27 Torsion [C]-CA--N-[H1] |==|  0.23798
USER: genes 28 Torsion [C]-CA--CB-[CG] |==|  0.74442
USER: genes 29 Torsion [CA]-CB--CG-[CD] |==|  0.75334
USER: genes 30 Torsion [CB]-CG--CD-[NE] |==|  0.40371
USER: genes 31 Torsion [CG]-CD--NE-[HE] |==|  0.69479
ROOT
ATOM      1  CA  LYS Q   4      12.941  13.258  16.302  1.00 15.20 LIG 0.18  C 
ENDROOT
BRANCH 1 2
ATOM      2  CB  LYS Q   4      11.558  13.104  15.673  1.00 14.69 LIG 0.04  C 
BRANCH 2 3
ATOM      3  CG  LYS Q   4      10.609  14.204  16.049  1.00 16.14 LIG 0.00  C 
BRANCH 3 4
ATOM      4  CD  LYS Q   4       9.696  13.776  17.163  1.00 18.10 LIG 0.03  C 
BRANCH 4 5
ATOM      5  CE  LYS Q   4       8.289  14.248  16.865  1.00 22.11 LIG 0.23  C 
BRANCH 5 6
ATOM      6  NZ  LYS Q   4       7.431  14.169  18.077  1.00 25.79 LIG-0.08  N 
ATOM      7 HZ1  LYS Q   4       6.575  14.201  17.837  1.00 25.79 LIG 0.27  HD
ATOM      8 HZ2  LYS Q   4       7.590  13.405  18.505  1.00 25.79 LIG 0.27  HD
ATOM      9 HZ3  LYS Q   4       7.613  14.854  18.615  1.00 25.79 LIG 0.27  HD
ENDBRANCH 5 6
ENDBRANCH 4 5
ENDBRANCH 3 4
ENDBRANCH 2 3
ENDBRANCH 1 2
BRANCH 1 10
ATOM     10  C   LYS Q   4      12.784  13.496  17.806  1.00 15.70 LIG 0.24  C 
ATOM     11  N   GLN Q   5      12.375  14.706  18.192  1.00 16.90 LIG-0.35  N 
ATOM     12 H    GLN Q   5      12.089  15.315  17.656  1.00 16.90 LIG 0.16  HD
ATOM     13 O    LYS Q   4      13.045  12.592  18.610  1.00 16.41 LIG-0.27  OA
BRANCH 11 14
ATOM     14  CA  GLN Q   5      12.387  15.091  19.608  1.00 18.58 LIG 0.18  C 
BRANCH 14 15
ATOM     15  CB  GLN Q   5      12.055  16.577  19.782  1.00 18.36 LIG 0.04  C 
BRANCH 15 16
ATOM     16  CG  GLN Q   5      11.399  17.237  18.572  1.00 19.34 LIG 0.10  C 
BRANCH 16 17
ATOM     17  CD  GLN Q   5       9.959  16.832  18.344  1.00 21.85 LIG 0.21  C 
ATOM     18  NE2 GLN Q   5       9.433  17.151  17.160  1.00 24.33 LIG-0.37  N 
ATOM     19 21HE GLN Q   5       9.906  17.573  16.579  1.00 24.33 LIG 0.16  HD
ATOM     20 22HE GLN Q   5       8.621  16.935  16.978  1.00 24.33 LIG 0.16  HD
ATOM     21 OE1  GLN Q   5       9.329  16.230  19.208  1.00 24.78 LIG-0.27  OA
ENDBRANCH 16 17
ENDBRANCH 15 16
ENDBRANCH 14 15
BRANCH 14 22
ATOM     22  C   GLN Q   5      11.444  14.240  20.445  1.00 20.15 LIG 0.24  C 
ATOM     23 O    GLN Q   5      10.522  13.623  19.899  1.00 22.37 LIG-0.27  OA
ATOM     24  N   THR Q   6      11.651  14.185  21.754  1.00 20.72 LIG-0.34  N 
ATOM     25 H    THR Q   6      12.335  14.516  22.157  1.00 20.72 LIG 0.16  HD
BRANCH 24 26
ATOM     26  CA  THR Q   6      10.673  13.521  22.622  1.00 22.01 LIG 0.20  C 
BRANCH 26 27
ATOM     27  CB  THR Q   6       9.225  13.964  22.338  1.00 21.09 LIG 0.15  C 
ATOM     28  CG2 THR Q   6       8.356  13.843  23.590  1.00 22.53 LIG 0.04  C 
BRANCH 27 29
ATOM     29 OG1  THR Q   6       9.218  15.320  21.879  1.00 19.47 LIG-0.39  OA
ATOM     30 HG1  THR Q   6       8.987  15.341  21.071  1.00 19.47 LIG 0.21  HD
ENDBRANCH 27 29
ENDBRANCH 26 27
BRANCH 26 31
ATOM     31  C   THR Q   6      10.778  12.001  22.542  1.00 23.85 LIG 0.24  C 
ATOM     32  N   ALA Q   7      11.069  11.478  21.350  1.00 25.35 LIG-0.35  N 
ATOM     33 H    ALA Q   7      11.174  11.952  20.640  1.00 25.35 LIG 0.16  HD
ATOM     34 O    THR Q   6      10.622  11.317  23.561  1.00 25.66 LIG-0.27  OA
BRANCH 32 35
ATOM     35  CA  ALA Q   7      11.242  10.034  21.132  1.00 27.02 LIG 0.16  C 
ATOM     36  CB  ALA Q   7      12.451   9.522  21.910  1.00 27.03 LIG 0.04  C 
BRANCH 35 37
ATOM     37  C   ALA Q   7       9.989   9.234  21.505  1.00 28.43 LIG 0.22  C 
ATOM     38 O    ALA Q   7       9.618   8.271  20.817  1.00 30.23 LIG-0.29  OA
ENDBRANCH 35 37
ENDBRANCH 32 35
ENDBRANCH 26 31
ENDBRANCH 24 26
ENDBRANCH 14 22
ENDBRANCH 11 14
ENDBRANCH 1 10
BRANCH 1 39
ATOM     39  N   LYS Q   4      13.770  12.093  16.000  1.00 13.85 LIG-0.35  N 
ATOM     40 H    LYS Q   4      13.382  11.493  15.522  1.00 13.85 LIG 0.16  HD
ATOM     41  C   THR Q   3      15.025  11.998  16.443  1.00 13.84 LIG 0.24  C 
ATOM     42 O    THR Q   3      15.589  12.892  17.087  1.00 14.15 LIG-0.27  OA
BRANCH 41 43
ATOM     43  CA  THR Q   3      15.738  10.696  16.150  1.00 13.21 LIG 0.20  C 
BRANCH 43 44
ATOM     44  CB  THR Q   3      15.218   9.628  17.144  1.00 13.38 LIG 0.15  C 
ATOM     45  CG2 THR Q   3      16.019   8.349  17.080  1.00 13.96 LIG 0.04  C 
BRANCH 44 46
ATOM     46 OG1  THR Q   3      15.196  10.147  18.482  1.00 13.85 LIG-0.39  OA
ATOM     47 HG1  THR Q   3      14.641  10.776  18.529  1.00 13.85 LIG 0.21  HD
ENDBRANCH 44 46
ENDBRANCH 43 44
BRANCH 43 48
ATOM     48  N   THR Q   3      17.192  10.882  16.193  1.00 13.00 LIG-0.34  N 
ATOM     49  C   ARG Q   2      17.945  10.793  15.101  1.00 13.30 LIG 0.24  C 
ATOM     50 O    ARG Q   2      17.521  10.410  14.019  1.00 13.04 LIG-0.27  OA
ATOM     51 H    THR Q   3      17.503  11.052  16.977  1.00 13.00 LIG 0.16  HD
BRANCH 49 52
ATOM     52  CA  ARG Q   2      19.400  11.171  15.260  1.00 13.85 LIG 0.18  C 
BRANCH 52 53
ATOM     53  N   ARG Q   2      20.190  10.474  14.257  1.00 14.89 LIG-0.35  N 
ATOM     54 H    ARG Q   2      20.610  11.000  13.721  1.00 14.89 LIG 0.16  HD
ATOM     55  C   ALA Q   1      20.259   9.153  14.177  1.00 17.12 LIG 0.25  C 
ATOM     56 O    ALA Q   1      19.663   8.391  14.946  1.00 19.52 LIG-0.27  OA
BRANCH 55 57
ATOM     57  CA  ALA Q   1      21.156   8.613  13.070  1.00 17.93 LIG 0.27  C 
ATOM     58  CB  ALA Q   1      22.638   8.805  13.419  1.00 18.07 LIG 0.05  C 
BRANCH 57 59
ATOM     59  N   ALA Q   1      20.827   9.245  11.757  1.00 19.51 LIG-0.07  N 
ATOM     60 H1   ALA Q   1      21.271  10.012  11.677  1.00 19.51 LIG 0.28  HD
ATOM     61 H3   ALA Q   1      19.952   9.403  11.714  1.00 19.51 LIG 0.28  HD
ATOM     62 H2   ALA Q   1      21.061   8.696  11.096  1.00 19.51 LIG 0.28  HD
ENDBRANCH 57 59
ENDBRANCH 55 57
ENDBRANCH 52 53
BRANCH 52 63
ATOM     63  CB  ARG Q   2      19.548  12.688  15.102  1.00 13.50 LIG 0.04  C 
BRANCH 63 64
ATOM     64  CG  ARG Q   2      19.850  13.151  13.666  1.00 14.15 LIG 0.02  C 
BRANCH 64 65
ATOM     65  CD  ARG Q   2      21.349  13.176  13.413  1.00 12.93 LIG 0.14  C 
BRANCH 65 66
ATOM     66  NE  ARG Q   2      21.643  12.801  12.031  1.00 12.58 LIG-0.23  N 
ATOM     67 HE   ARG Q   2      22.020  12.039  11.903  1.00 12.58 LIG 0.18  HD
ATOM     68  CZ  ARG Q   2      21.374  13.541  10.948  1.00 11.80 LIG 0.67  C 
ATOM     69  NH2 ARG Q   2      21.657  13.062   9.749  1.00 12.39 LIG-0.23  N 
ATOM     70  NH1 ARG Q   2      20.841  14.752  11.048  1.00 13.65 LIG-0.23  N 
ATOM     71 2HH2 ARG Q   2      21.488  13.531   9.047  1.00 12.39 LIG 0.17  HD
ATOM     72 1HH2 ARG Q   2      22.011  12.281   9.670  1.00 12.39 LIG 0.17  HD
ATOM     73 2HH1 ARG Q   2      20.677  15.209  10.338  1.00 13.65 LIG 0.17  HD
ATOM     74 1HH1 ARG Q   2      20.660  15.079  11.823  1.00 13.65 LIG 0.17  HD
ENDBRANCH 65 66
ENDBRANCH 64 65
ENDBRANCH 63 64
ENDBRANCH 52 63
ENDBRANCH 49 52
ENDBRANCH 43 48
ENDBRANCH 41 43
ENDBRANCH 1 39
TORSDOF 30
ENDMDL
