MODEL 1
USER: ADFR SOLUTION from run 130
USER: SCORE 13.782407 LL:  -2.491 LR: -11.539 RR:   0.000 FEB:  -7.661
USER: RMSD 1.524584
USER: SEED 129
USER: STATUS no improvement in best in 7 clusters for 5 generations
USER: GENES 15
USER: genes 0 Translation |==|  0.48755 0.48936 0.48319
USER: genes 1 Rotation |==|  0.51960 0.52203 0.42364 0.99325
USER: genes 2 Torsion [C]-N--CA-[C] |==|  0.81809
USER: genes 3 Torsion [N]-CA--C-[N] |==|  0.35823
USER: genes 4 Torsion [C]-N--CA-[CB] |==|  0.29333
USER: genes 5 Torsion [N]-CA--CB-[CG1] |==|  0.83855
USER: genes 6 Torsion [N]-CA--C-[OXT] |==|  0.45358
USER: genes 7 Torsion [N]-CA--CB-[CG] |==|  0.58920
USER: genes 8 Torsion [CA]-CB--CG-[CD1] |==|  0.78106
USER: genes 9 Torsion [N]-C--CA-[N] |==|  0.30000
USER: genes 10 Torsion [C]-CA--CB-[CG2] |==|  0.50567
USER: genes 11 Torsion [CA]-CB--OG1-[HG1] |==|  0.90902
USER: genes 12 Torsion [C]-CA--N-[C] |==|  0.78020
USER: genes 13 Torsion [N]-C--CA-[N] |==|  0.88955
USER: genes 14 Torsion [C]-CA--CB-[CG1] |==|  0.47184
ROOT
ATOM      1  C   THR B 103     -25.630   8.826  -1.123  1.00  4.93 LIG 0.24  C 
ATOM      2 O    THR B 103     -24.541   8.252  -1.101  1.00  4.94 LIG-0.27  OA
ATOM      3  N   LEU B 104     -26.400   8.951  -0.048  1.00  4.18 LIG-0.35  N 
ATOM      4 H    LEU B 104     -27.156   9.361  -0.039  1.00  4.18 LIG 0.16  HD
ENDROOT
BRANCH 3 5
ATOM      5  CA  LEU B 104     -26.002   8.385   1.230  1.00  5.70 LIG 0.18  C 
BRANCH 5 6
ATOM      6  C   LEU B 104     -25.964   6.874   1.141  1.00  6.53 LIG 0.24  C 
ATOM      7 O    LEU B 104     -26.931   6.247   0.704  1.00  8.21 LIG-0.27  OA
ATOM      8  N   VAL B 105     -24.852   6.291   1.564  1.00  6.80 LIG-0.34  N 
ATOM      9 H    VAL B 105     -24.158   6.720   1.837  1.00  6.80 LIG 0.16  HD
BRANCH 8 10
ATOM     10  CA  VAL B 105     -24.715   4.841   1.599  1.00  6.91 LIG 0.19  C 
BRANCH 10 11
ATOM     11  CB  VAL B 105     -23.810   4.320   0.468  1.00  6.78 LIG 0.01  C 
ATOM     12  CG1 VAL B 105     -24.353   4.733  -0.890  1.00  6.96 LIG 0.01  C 
ATOM     13  CG2 VAL B 105     -22.387   4.842   0.645  1.00  7.27 LIG 0.01  C 
ENDBRANCH 10 11
BRANCH 10 14
ATOM     14  C   VAL B 105     -24.138   4.410   2.941  1.00  6.40 LIG 0.20  C 
ATOM     15 OXT  VAL B 105     -24.225   3.232   3.304  1.00  6.01 LIG-0.65  OA
ATOM     16 O    VAL B 105     -23.567   5.232   3.680  1.00  5.94 LIG-0.65  OA
ENDBRANCH 10 14
ENDBRANCH 8 10
ENDBRANCH 5 6
BRANCH 5 17
ATOM     17  CB  LEU B 104     -26.972   8.806   2.339  1.00  7.33 LIG 0.04  C 
BRANCH 17 18
ATOM     18  CG  LEU B 104     -26.387   8.980   3.746  1.00 10.28 LIG-0.02  C 
ATOM     19  CD2 LEU B 104     -25.078   9.769   3.686  1.00 13.23 LIG 0.01  C 
ATOM     20  CD1 LEU B 104     -26.183   7.640   4.455  1.00 11.40 LIG 0.01  C 
ENDBRANCH 17 18
ENDBRANCH 5 17
ENDBRANCH 3 5
BRANCH 1 21
ATOM     21  CA  THR B 103     -26.143   9.456  -2.406  1.00  5.29 LIG 0.20  C 
BRANCH 21 22
ATOM     22  CB  THR B 103     -26.034   8.425  -3.542  1.00  5.94 LIG 0.15  C 
ATOM     23  CG2 THR B 103     -26.493   9.029  -4.874  1.00  6.62 LIG 0.04  C 
BRANCH 22 24
ATOM     24 OG1  THR B 103     -24.678   7.972  -3.649  1.00  6.95 LIG-0.39  OA
ATOM     25 HG1  THR B 103     -24.156   8.598  -3.443  1.00  6.95 LIG 0.21  HD
ENDBRANCH 22 24
ENDBRANCH 21 22
BRANCH 21 26
ATOM     26  N   THR B 103     -25.344  10.640  -2.706  1.00  6.31 LIG-0.34  N 
ATOM     27  C   VAL B 102     -25.542  11.800  -2.092  1.00  9.59 LIG 0.26  C 
ATOM     28 O    VAL B 102     -26.414  11.960  -1.245  1.00 11.78 LIG-0.27  OA
ATOM     29 H    THR B 103     -24.742  10.515  -3.309  1.00  6.31 LIG 0.16  HD
BRANCH 27 30
ATOM     30  CA  VAL B 102     -24.629  12.954  -2.507  1.00 12.05 LIG 0.40  C 
ATOM     31  N   VAL B 102     -23.260  12.490  -2.712  1.00 12.38 LIG 0.61  N 
BRANCH 30 32
ATOM     32  CB  VAL B 102     -25.185  13.636  -3.776  1.00 15.16 LIG 0.03  C 
ATOM     33  CG1 VAL B 102     -24.434  14.925  -4.050  1.00 16.31 LIG 0.01  C 
ATOM     34  CG2 VAL B 102     -25.073  12.708  -4.970  1.00 16.97 LIG 0.01  C 
ENDBRANCH 30 32
ENDBRANCH 27 30
ENDBRANCH 21 26
ENDBRANCH 1 21
TORSDOF 13
ENDMDL
MODEL 2
USER: ADFR SOLUTION from run 59
USER: SCORE 13.055835 LL:  -2.507 LR: -11.008 RR:   0.000 FEB:  -7.130
USER: RMSD 2.058874
USER: SEED 58
USER: STATUS no improvement in best in 6 clusters for 5 generations
USER: GENES 15
USER: genes 0 Translation |==|  0.48404 0.45805 0.41259
USER: genes 1 Rotation |==|  0.47813 0.54829 0.47626 0.99661
USER: genes 2 Torsion [C]-N--CA-[C] |==|  0.78333
USER: genes 3 Torsion [N]-CA--C-[N] |==|  0.44999
USER: genes 4 Torsion [C]-N--CA-[CB] |==|  0.26001
USER: genes 5 Torsion [N]-CA--CB-[CG1] |==|  0.79292
USER: genes 6 Torsion [N]-CA--C-[OXT] |==|  0.46846
USER: genes 7 Torsion [N]-CA--CB-[CG] |==|  0.51232
USER: genes 8 Torsion [CA]-CB--CG-[CD1] |==|  0.36913
USER: genes 9 Torsion [N]-C--CA-[N] |==|  0.32419
USER: genes 10 Torsion [C]-CA--CB-[CG2] |==|  0.17657
USER: genes 11 Torsion [CA]-CB--OG1-[HG1] |==|  0.58365
USER: genes 12 Torsion [C]-CA--N-[C] |==|  0.56720
USER: genes 13 Torsion [N]-C--CA-[N] |==|  0.85878
USER: genes 14 Torsion [C]-CA--CB-[CG1] |==|  0.07272
ROOT
ATOM      1  C   THR B 103     -25.680   8.216  -2.393  1.00  4.93 LIG 0.24  C 
ATOM      2 O    THR B 103     -24.493   7.893  -2.447  1.00  4.94 LIG-0.27  OA
ATOM      3  N   LEU B 104     -26.343   8.337  -1.249  1.00  4.18 LIG-0.35  N 
ATOM      4 H    LEU B 104     -27.167   8.574  -1.190  1.00  4.18 LIG 0.16  HD
ENDROOT
BRANCH 3 5
ATOM      5  CA  LEU B 104     -25.696   8.066   0.025  1.00  5.70 LIG 0.18  C 
BRANCH 5 6
ATOM      6  C   LEU B 104     -25.603   6.573   0.254  1.00  6.53 LIG 0.24  C 
ATOM      7 O    LEU B 104     -26.317   5.794  -0.381  1.00  8.21 LIG-0.27  OA
ATOM      8  N   VAL B 105     -24.730   6.175   1.168  1.00  6.80 LIG-0.34  N 
ATOM      9 H    VAL B 105     -24.202   6.705   1.591  1.00  6.80 LIG 0.16  HD
BRANCH 8 10
ATOM     10  CA  VAL B 105     -24.595   4.771   1.535  1.00  6.91 LIG 0.19  C 
BRANCH 10 11
ATOM     11  CB  VAL B 105     -23.493   4.067   0.724  1.00  6.78 LIG 0.01  C 
ATOM     12  CG1 VAL B 105     -23.956   3.805  -0.699  1.00  6.96 LIG 0.01  C 
ATOM     13  CG2 VAL B 105     -22.220   4.909   0.716  1.00  7.27 LIG 0.01  C 
ENDBRANCH 10 11
BRANCH 10 14
ATOM     14  C   VAL B 105     -24.275   4.655   3.021  1.00  6.40 LIG 0.20  C 
ATOM     15 OXT  VAL B 105     -24.326   3.556   3.582  1.00  6.01 LIG-0.65  OA
ATOM     16 O    VAL B 105     -23.951   5.659   3.680  1.00  5.94 LIG-0.65  OA
ENDBRANCH 10 14
ENDBRANCH 8 10
ENDBRANCH 5 6
BRANCH 5 17
ATOM     17  CB  LEU B 104     -26.472   8.711   1.178  1.00  7.33 LIG 0.04  C 
BRANCH 17 18
ATOM     18  CG  LEU B 104     -25.855   8.602   2.578  1.00 10.28 LIG-0.02  C 
ATOM     19  CD2 LEU B 104     -26.575   7.529   3.396  1.00 13.23 LIG 0.01  C 
ATOM     20  CD1 LEU B 104     -25.859   9.942   3.315  1.00 11.40 LIG 0.01  C 
ENDBRANCH 17 18
ENDBRANCH 5 17
ENDBRANCH 3 5
BRANCH 1 21
ATOM     21  CA  THR B 103     -26.452   8.523  -3.664  1.00  5.29 LIG 0.20  C 
BRANCH 21 22
ATOM     22  CB  THR B 103     -26.411   7.288  -4.580  1.00  5.94 LIG 0.15  C 
ATOM     23  CG2 THR B 103     -27.122   6.098  -3.925  1.00  6.62 LIG 0.04  C 
BRANCH 22 24
ATOM     24 OG1  THR B 103     -27.031   7.601  -5.834  1.00  6.95 LIG-0.39  OA
ATOM     25 HG1  THR B 103     -27.379   6.907  -6.156  1.00  6.95 LIG 0.21  HD
ENDBRANCH 22 24
ENDBRANCH 21 22
BRANCH 21 26
ATOM     26  N   THR B 103     -25.843   9.673  -4.324  1.00  6.31 LIG-0.34  N 
ATOM     27  C   VAL B 102     -26.524  10.453  -5.155  1.00  9.59 LIG 0.26  C 
ATOM     28 O    VAL B 102     -27.701  10.255  -5.434  1.00 11.78 LIG-0.27  OA
ATOM     29 H    THR B 103     -25.015   9.795  -4.125  1.00  6.31 LIG 0.16  HD
BRANCH 27 30
ATOM     30  CA  VAL B 102     -25.757  11.624  -5.772  1.00 12.05 LIG 0.40  C 
ATOM     31  N   VAL B 102     -25.073  12.401  -4.742  1.00 12.38 LIG 0.61  N 
BRANCH 30 32
ATOM     32  CB  VAL B 102     -24.763  11.102  -6.831  1.00 15.16 LIG 0.03  C 
ATOM     33  CG1 VAL B 102     -25.250   9.784  -7.404  1.00 16.31 LIG 0.01  C 
ATOM     34  CG2 VAL B 102     -24.591  12.117  -7.944  1.00 16.97 LIG 0.01  C 
ENDBRANCH 30 32
ENDBRANCH 27 30
ENDBRANCH 21 26
ENDBRANCH 1 21
TORSDOF 13
ENDMDL
MODEL 3
USER: ADFR SOLUTION from run 193
USER: SCORE 13.016374 LL:  -2.420 LR: -10.881 RR:   0.000 FEB:  -7.003
USER: RMSD 8.697102
USER: SEED 192
USER: STATUS no improvement in best in 12 clusters for 5 generations
USER: GENES 15
USER: genes 0 Translation |==|  0.50083 0.44182 0.40492
USER: genes 1 Rotation |==|  0.98282 0.38139 0.45558 0.52907
USER: genes 2 Torsion [C]-N--CA-[C] |==|  0.64444
USER: genes 3 Torsion [N]-CA--C-[N] |==|  0.33630
USER: genes 4 Torsion [C]-N--CA-[CB] |==|  0.30495
USER: genes 5 Torsion [N]-CA--CB-[CG1] |==|  0.55187
USER: genes 6 Torsion [N]-CA--C-[OXT] |==|  0.83347
USER: genes 7 Torsion [N]-CA--CB-[CG] |==|  0.07754
USER: genes 8 Torsion [CA]-CB--CG-[CD1] |==|  0.31309
USER: genes 9 Torsion [N]-C--CA-[N] |==|  0.44698
USER: genes 10 Torsion [C]-CA--CB-[CG2] |==|  0.23619
USER: genes 11 Torsion [CA]-CB--OG1-[HG1] |==|  0.17134
USER: genes 12 Torsion [C]-CA--N-[C] |==|  0.81634
USER: genes 13 Torsion [N]-C--CA-[N] |==|  0.86954
USER: genes 14 Torsion [C]-CA--CB-[CG1] |==|  0.25379
ROOT
ATOM      1  C   THR B 103     -25.441   7.900  -2.531  1.00  4.93 LIG 0.24  C 
ATOM      2 O    THR B 103     -24.328   7.513  -2.889  1.00  4.94 LIG-0.27  OA
ATOM      3  N   LEU B 104     -26.381   8.280  -3.388  1.00  4.18 LIG-0.35  N 
ATOM      4 H    LEU B 104     -27.168   8.540  -3.160  1.00  4.18 LIG 0.16  HD
ENDROOT
BRANCH 3 5
ATOM      5  CA  LEU B 104     -26.134   8.284  -4.821  1.00  5.70 LIG 0.18  C 
BRANCH 5 6
ATOM      6  C   LEU B 104     -26.491   9.634  -5.407  1.00  6.53 LIG 0.24  C 
ATOM      7 O    LEU B 104     -27.636  10.079  -5.307  1.00  8.21 LIG-0.27  OA
ATOM      8  N   VAL B 105     -25.513  10.280  -6.025  1.00  6.80 LIG-0.34  N 
ATOM      9 H    VAL B 105     -24.702   9.996  -6.070  1.00  6.80 LIG 0.16  HD
BRANCH 8 10
ATOM     10  CA  VAL B 105     -25.743  11.553  -6.694  1.00  6.91 LIG 0.19  C 
BRANCH 10 11
ATOM     11  CB  VAL B 105     -25.078  12.724  -5.949  1.00  6.78 LIG 0.01  C 
ATOM     12  CG1 VAL B 105     -25.689  14.049  -6.375  1.00  6.96 LIG 0.01  C 
ATOM     13  CG2 VAL B 105     -25.220  12.541  -4.440  1.00  7.27 LIG 0.01  C 
ENDBRANCH 10 11
BRANCH 10 14
ATOM     14  C   VAL B 105     -25.200  11.493  -8.117  1.00  6.40 LIG 0.20  C 
ATOM     15 OXT  VAL B 105     -24.001  11.270  -8.315  1.00  6.01 LIG-0.65  OA
ATOM     16 O    VAL B 105     -25.956  11.659  -9.092  1.00  5.94 LIG-0.65  OA
ENDBRANCH 10 14
ENDBRANCH 8 10
ENDBRANCH 5 6
BRANCH 5 17
ATOM     17  CB  LEU B 104     -26.953   7.194  -5.519  1.00  7.33 LIG 0.04  C 
BRANCH 17 18
ATOM     18  CG  LEU B 104     -28.272   6.781  -4.853  1.00 10.28 LIG-0.02  C 
ATOM     19  CD2 LEU B 104     -28.277   5.280  -4.564  1.00 13.23 LIG 0.01  C 
ATOM     20  CD1 LEU B 104     -29.489   7.179  -5.691  1.00 11.40 LIG 0.01  C 
ENDBRANCH 17 18
ENDBRANCH 5 17
ENDBRANCH 3 5
BRANCH 1 21
ATOM     21  CA  THR B 103     -25.806   7.935  -1.058  1.00  5.29 LIG 0.20  C 
BRANCH 21 22
ATOM     22  CB  THR B 103     -25.727   9.388  -0.562  1.00  5.94 LIG 0.15  C 
ATOM     23  CG2 THR B 103     -27.036  10.134  -0.844  1.00  6.62 LIG 0.04  C 
BRANCH 22 24
ATOM     24 OG1  THR B 103     -25.447   9.400   0.844  1.00  6.95 LIG-0.39  OA
ATOM     25 HG1  THR B 103     -24.704   9.035   0.985  1.00  6.95 LIG 0.21  HD
ENDBRANCH 22 24
ENDBRANCH 21 22
BRANCH 21 26
ATOM     26  N   THR B 103     -24.878   7.086  -0.318  1.00  6.31 LIG-0.34  N 
ATOM     27  C   VAL B 102     -24.838   5.770  -0.484  1.00  9.59 LIG 0.26  C 
ATOM     28 O    VAL B 102     -25.585   5.177  -1.256  1.00 11.78 LIG-0.27  OA
ATOM     29 H    THR B 103     -24.367   7.514   0.226  1.00  6.31 LIG 0.16  HD
BRANCH 27 30
ATOM     30  CA  VAL B 102     -23.814   5.008   0.357  1.00 12.05 LIG 0.40  C 
ATOM     31  N   VAL B 102     -22.508   5.659   0.305  1.00 12.38 LIG 0.61  N 
BRANCH 30 32
ATOM     32  CB  VAL B 102     -24.317   4.879   1.811  1.00 15.16 LIG 0.03  C 
ATOM     33  CG1 VAL B 102     -25.100   3.592   1.983  1.00 16.31 LIG 0.01  C 
ATOM     34  CG2 VAL B 102     -23.151   4.909   2.781  1.00 16.97 LIG 0.01  C 
ENDBRANCH 30 32
ENDBRANCH 27 30
ENDBRANCH 21 26
ENDBRANCH 1 21
TORSDOF 13
ENDMDL
MODEL 4
USER: ADFR SOLUTION from run 68
USER: SCORE 12.936925 LL:  -2.811 LR: -10.724 RR:   0.000 FEB:  -6.847
USER: RMSD 3.797750
USER: SEED 67
USER: STATUS no improvement in best in 4 clusters for 5 generations
USER: GENES 15
USER: genes 0 Translation |==|  0.49998 0.47301 0.44128
USER: genes 1 Rotation |==|  0.48900 0.50099 0.40826 0.99139
USER: genes 2 Torsion [C]-N--CA-[C] |==|  0.83230
USER: genes 3 Torsion [N]-CA--C-[N] |==|  0.38347
USER: genes 4 Torsion [C]-N--CA-[CB] |==|  0.26762
USER: genes 5 Torsion [N]-CA--CB-[CG1] |==|  0.81342
USER: genes 6 Torsion [N]-CA--C-[OXT] |==|  0.96833
USER: genes 7 Torsion [N]-CA--CB-[CG] |==|  0.55386
USER: genes 8 Torsion [CA]-CB--CG-[CD1] |==|  0.75569
USER: genes 9 Torsion [N]-C--CA-[N] |==|  0.82430
USER: genes 10 Torsion [C]-CA--CB-[CG2] |==|  0.10143
USER: genes 11 Torsion [CA]-CB--OG1-[HG1] |==|  0.81271
USER: genes 12 Torsion [C]-CA--N-[C] |==|  0.61119
USER: genes 13 Torsion [N]-C--CA-[N] |==|  0.40371
USER: genes 14 Torsion [C]-CA--CB-[CG1] |==|  0.03115
ROOT
ATOM      1  C   THR B 103     -25.453   8.508  -1.877  1.00  4.93 LIG 0.24  C 
ATOM      2 O    THR B 103     -24.406   7.882  -1.708  1.00  4.94 LIG-0.27  OA
ATOM      3  N   LEU B 104     -26.273   8.822  -0.882  1.00  4.18 LIG-0.35  N 
ATOM      4 H    LEU B 104     -27.001   9.270  -0.977  1.00  4.18 LIG 0.16  HD
ENDROOT
BRANCH 3 5
ATOM      5  CA  LEU B 104     -25.986   8.415   0.485  1.00  5.70 LIG 0.18  C 
BRANCH 5 6
ATOM      6  C   LEU B 104     -25.916   6.906   0.574  1.00  6.53 LIG 0.24  C 
ATOM      7 O    LEU B 104     -26.739   6.202  -0.015  1.00  8.21 LIG-0.27  OA
ATOM      8  N   VAL B 105     -24.939   6.409   1.319  1.00  6.80 LIG-0.34  N 
ATOM      9 H    VAL B 105     -24.338   6.888   1.705  1.00  6.80 LIG 0.16  HD
BRANCH 8 10
ATOM     10  CA  VAL B 105     -24.804   4.977   1.546  1.00  6.91 LIG 0.19  C 
BRANCH 10 11
ATOM     11  CB  VAL B 105     -23.800   4.331   0.574  1.00  6.78 LIG 0.01  C 
ATOM     12  CG1 VAL B 105     -24.328   4.371  -0.850  1.00  6.96 LIG 0.01  C 
ATOM     13  CG2 VAL B 105     -22.452   5.042   0.655  1.00  7.27 LIG 0.01  C 
ENDBRANCH 10 11
BRANCH 10 14
ATOM     14  C   VAL B 105     -24.349   4.722   2.978  1.00  6.40 LIG 0.20  C 
ATOM     15 OXT  VAL B 105     -23.953   5.659   3.679  1.00  6.01 LIG-0.65  OA
ATOM     16 O    VAL B 105     -24.380   3.575   3.459  1.00  5.94 LIG-0.65  OA
ENDBRANCH 10 14
ENDBRANCH 8 10
ENDBRANCH 5 6
BRANCH 5 17
ATOM     17  CB  LEU B 104     -27.062   8.933   1.445  1.00  7.33 LIG 0.04  C 
BRANCH 17 18
ATOM     18  CG  LEU B 104     -26.693   8.997   2.933  1.00 10.28 LIG-0.02  C 
ATOM     19  CD2 LEU B 104     -25.226   9.394   3.102  1.00 13.23 LIG 0.01  C 
ATOM     20  CD1 LEU B 104     -26.988   7.681   3.656  1.00 11.40 LIG 0.01  C 
ENDBRANCH 17 18
ENDBRANCH 5 17
ENDBRANCH 3 5
BRANCH 1 21
ATOM     21  CA  THR B 103     -25.850   8.982  -3.264  1.00  5.29 LIG 0.20  C 
BRANCH 21 22
ATOM     22  CB  THR B 103     -26.004  10.512  -3.239  1.00  5.94 LIG 0.15  C 
ATOM     23  CG2 THR B 103     -24.958  11.152  -2.320  1.00  6.62 LIG 0.04  C 
BRANCH 22 24
ATOM     24 OG1  THR B 103     -25.870  11.028  -4.570  1.00  6.95 LIG-0.39  OA
ATOM     25 HG1  THR B 103     -25.080  10.918  -4.836  1.00  6.95 LIG 0.21  HD
ENDBRANCH 22 24
ENDBRANCH 21 22
BRANCH 21 26
ATOM     26  N   THR B 103     -27.106   8.344  -3.642  1.00  6.31 LIG-0.34  N 
ATOM     27  C   VAL B 102     -27.330   7.899  -4.873  1.00  9.59 LIG 0.26  C 
ATOM     28 O    VAL B 102     -26.506   8.005  -5.775  1.00 11.78 LIG-0.27  OA
ATOM     29 H    THR B 103     -27.678   8.285  -3.002  1.00  6.31 LIG 0.16  HD
BRANCH 27 30
ATOM     30  CA  VAL B 102     -28.692   7.251  -5.125  1.00 12.05 LIG 0.40  C 
ATOM     31  N   VAL B 102     -29.165   7.537  -6.477  1.00 12.38 LIG 0.61  N 
BRANCH 30 32
ATOM     32  CB  VAL B 102     -28.606   5.730  -4.874  1.00 15.16 LIG 0.03  C 
ATOM     33  CG1 VAL B 102     -27.294   5.384  -4.195  1.00 16.31 LIG 0.01  C 
ATOM     34  CG2 VAL B 102     -29.769   5.267  -4.018  1.00 16.97 LIG 0.01  C 
ENDBRANCH 30 32
ENDBRANCH 27 30
ENDBRANCH 21 26
ENDBRANCH 1 21
TORSDOF 13
ENDMDL
MODEL 5
USER: ADFR SOLUTION from run 11
USER: SCORE 13.354272 LL:  -2.924 LR: -10.551 RR:   0.000 FEB:  -6.673
USER: RMSD 5.305593
USER: SEED 257472
USER: STATUS no improvement in best in 7 clusters for 5 generations
USER: GENES 15
USER: genes 0 Translation |==|  0.51103 0.37171 0.46337
USER: genes 1 Rotation |==|  0.48526 0.80871 0.25040 0.80362
USER: genes 2 Torsion [C]-N--CA-[C] |==|  0.77891
USER: genes 3 Torsion [N]-CA--C-[N] |==|  0.89742
USER: genes 4 Torsion [C]-N--CA-[CB] |==|  0.85412
USER: genes 5 Torsion [N]-CA--CB-[CG1] |==|  0.28568
USER: genes 6 Torsion [N]-CA--C-[OXT] |==|  0.01891
USER: genes 7 Torsion [N]-CA--CB-[CG] |==|  0.49282
USER: genes 8 Torsion [CA]-CB--CG-[CD1] |==|  0.35963
USER: genes 9 Torsion [N]-C--CA-[N] |==|  0.91519
USER: genes 10 Torsion [C]-CA--CB-[CG2] |==|  0.32202
USER: genes 11 Torsion [CA]-CB--OG1-[HG1] |==|  0.46011
USER: genes 12 Torsion [C]-CA--N-[C] |==|  0.82463
USER: genes 13 Torsion [N]-C--CA-[N] |==|  0.37272
USER: genes 14 Torsion [C]-CA--CB-[CG1] |==|  0.44407
ROOT
ATOM      1  C   THR B 103     -25.296   6.532  -1.479  1.00  4.93 LIG 0.24  C 
ATOM      2 O    THR B 103     -25.610   5.563  -2.171  1.00  4.94 LIG-0.27  OA
ATOM      3  N   LEU B 104     -24.317   6.491  -0.584  1.00  4.18 LIG-0.35  N 
ATOM      4 H    LEU B 104     -24.073   7.160  -0.102  1.00  4.18 LIG 0.16  HD
ENDROOT
BRANCH 3 5
ATOM      5  CA  LEU B 104     -23.565   5.269  -0.349  1.00  5.70 LIG 0.18  C 
BRANCH 5 6
ATOM      6  C   LEU B 104     -24.355   4.335   0.543  1.00  6.53 LIG 0.24  C 
ATOM      7 O    LEU B 104     -24.328   3.117   0.358  1.00  8.21 LIG-0.27  OA
ATOM      8  N   VAL B 105     -25.064   4.907   1.506  1.00  6.80 LIG-0.34  N 
ATOM      9 H    VAL B 105     -25.062   5.752   1.667  1.00  6.80 LIG 0.16  HD
BRANCH 8 10
ATOM     10  CA  VAL B 105     -25.923   4.128   2.386  1.00  6.91 LIG 0.19  C 
BRANCH 10 11
ATOM     11  CB  VAL B 105     -26.897   3.233   1.598  1.00  6.78 LIG 0.01  C 
ATOM     12  CG1 VAL B 105     -26.423   1.789   1.601  1.00  6.96 LIG 0.01  C 
ATOM     13  CG2 VAL B 105     -28.300   3.326   2.191  1.00  7.27 LIG 0.01  C 
ENDBRANCH 10 11
BRANCH 10 14
ATOM     14  C   VAL B 105     -25.070   3.255   3.300  1.00  6.40 LIG 0.20  C 
ATOM     15 OXT  VAL B 105     -23.841   3.378   3.305  1.00  6.01 LIG-0.65  OA
ATOM     16 O    VAL B 105     -25.600   2.420   4.055  1.00  5.94 LIG-0.65  OA
ENDBRANCH 10 14
ENDBRANCH 8 10
ENDBRANCH 5 6
BRANCH 5 17
ATOM     17  CB  LEU B 104     -22.214   5.577   0.305  1.00  7.33 LIG 0.04  C 
BRANCH 17 18
ATOM     18  CG  LEU B 104     -21.330   4.379   0.671  1.00 10.28 LIG-0.02  C 
ATOM     19  CD2 LEU B 104     -21.329   4.159   2.185  1.00 13.23 LIG 0.01  C 
ATOM     20  CD1 LEU B 104     -19.902   4.534   0.143  1.00 11.40 LIG 0.01  C 
ENDBRANCH 17 18
ENDBRANCH 5 17
ENDBRANCH 3 5
BRANCH 1 21
ATOM     21  CA  THR B 103     -26.016   7.859  -1.643  1.00  5.29 LIG 0.20  C 
BRANCH 21 22
ATOM     22  CB  THR B 103     -25.299   8.682  -2.727  1.00  5.94 LIG 0.15  C 
ATOM     23  CG2 THR B 103     -26.217   8.915  -3.932  1.00  6.62 LIG 0.04  C 
BRANCH 22 24
ATOM     24 OG1  THR B 103     -24.881   9.938  -2.177  1.00  6.95 LIG-0.39  OA
ATOM     25 HG1  THR B 103     -24.328  10.301  -2.695  1.00  6.95 LIG 0.21  HD
ENDBRANCH 22 24
ENDBRANCH 21 22
BRANCH 21 26
ATOM     26  N   THR B 103     -26.003   8.567  -0.367  1.00  6.31 LIG-0.34  N 
ATOM     27  C   VAL B 102     -26.607   8.086   0.713  1.00  9.59 LIG 0.26  C 
ATOM     28 O    VAL B 102     -27.224   7.026   0.710  1.00 11.78 LIG-0.27  OA
ATOM     29 H    THR B 103     -25.575   9.313  -0.382  1.00  6.31 LIG 0.16  HD
BRANCH 27 30
ATOM     30  CA  VAL B 102     -26.510   8.935   1.981  1.00 12.05 LIG 0.40  C 
ATOM     31  N   VAL B 102     -27.810   9.046   2.636  1.00 12.38 LIG 0.61  N 
BRANCH 30 32
ATOM     32  CB  VAL B 102     -25.453   8.337   2.935  1.00 15.16 LIG 0.03  C 
ATOM     33  CG1 VAL B 102     -24.990   9.387   3.928  1.00 16.31 LIG 0.01  C 
ATOM     34  CG2 VAL B 102     -26.020   7.141   3.674  1.00 16.97 LIG 0.01  C 
ENDBRANCH 30 32
ENDBRANCH 27 30
ENDBRANCH 21 26
ENDBRANCH 1 21
TORSDOF 13
ENDMDL
MODEL 6
USER: ADFR SOLUTION from run 171
USER: SCORE 12.864632 LL:  -2.616 LR: -10.500 RR:   0.000 FEB:  -6.622
USER: RMSD 3.642449
USER: SEED 170
USER: STATUS no improvement in best in 6 clusters for 5 generations
USER: GENES 15
USER: genes 0 Translation |==|  0.44476 0.48837 0.56491
USER: genes 1 Rotation |==|  0.50110 0.59639 0.03649 0.66083
USER: genes 2 Torsion [C]-N--CA-[C] |==|  0.18333
USER: genes 3 Torsion [N]-CA--C-[N] |==|  0.06715
USER: genes 4 Torsion [C]-N--CA-[CB] |==|  0.47633
USER: genes 5 Torsion [N]-CA--CB-[CG1] |==|  0.84684
USER: genes 6 Torsion [N]-CA--C-[OXT] |==|  0.45105
USER: genes 7 Torsion [N]-CA--CB-[CG] |==|  0.55970
USER: genes 8 Torsion [CA]-CB--CG-[CD1] |==|  0.01857
USER: genes 9 Torsion [N]-C--CA-[N] |==|  0.41957
USER: genes 10 Torsion [C]-CA--CB-[CG2] |==|  0.45206
USER: genes 11 Torsion [CA]-CB--OG1-[HG1] |==|  0.71839
USER: genes 12 Torsion [C]-CA--N-[C] |==|  0.70736
USER: genes 13 Torsion [N]-C--CA-[N] |==|  0.81140
USER: genes 14 Torsion [C]-CA--CB-[CG1] |==|  0.13131
ROOT
ATOM      1  C   THR B 103     -26.240   8.807   0.348  1.00  4.93 LIG 0.24  C 
ATOM      2 O    THR B 103     -27.303   8.188   0.414  1.00  4.94 LIG-0.27  OA
ATOM      3  N   LEU B 104     -25.455   9.003   1.401  1.00  4.18 LIG-0.35  N 
ATOM      4 H    LEU B 104     -24.704   9.420   1.373  1.00  4.18 LIG 0.16  HD
ENDROOT
BRANCH 3 5
ATOM      5  CA  LEU B 104     -25.826   8.509   2.717  1.00  5.70 LIG 0.18  C 
BRANCH 5 6
ATOM      6  C   LEU B 104     -25.836   6.995   2.720  1.00  6.53 LIG 0.24  C 
ATOM      7 O    LEU B 104     -26.513   6.373   3.541  1.00  8.21 LIG-0.27  OA
ATOM      8  N   VAL B 105     -25.078   6.404   1.808  1.00  6.80 LIG-0.34  N 
ATOM      9 H    VAL B 105     -24.630   6.827   1.208  1.00  6.80 LIG 0.16  HD
BRANCH 8 10
ATOM     10  CA  VAL B 105     -24.942   4.955   1.751  1.00  6.91 LIG 0.19  C 
BRANCH 10 11
ATOM     11  CB  VAL B 105     -24.188   4.495   0.491  1.00  6.78 LIG 0.01  C 
ATOM     12  CG1 VAL B 105     -24.855   5.037  -0.763  1.00  6.96 LIG 0.01  C 
ATOM     13  CG2 VAL B 105     -22.732   4.950   0.549  1.00  7.27 LIG 0.01  C 
ENDBRANCH 10 11
BRANCH 10 14
ATOM     14  C   VAL B 105     -24.202   4.457   2.987  1.00  6.40 LIG 0.20  C 
ATOM     15 OXT  VAL B 105     -24.259   3.265   3.307  1.00  6.01 LIG-0.65  OA
ATOM     16 O    VAL B 105     -23.527   5.239   3.680  1.00  5.94 LIG-0.65  OA
ENDBRANCH 10 14
ENDBRANCH 8 10
ENDBRANCH 5 6
BRANCH 5 17
ATOM     17  CB  LEU B 104     -27.209   9.028   3.124  1.00  7.33 LIG 0.04  C 
BRANCH 17 18
ATOM     18  CG  LEU B 104     -27.534   9.038   4.623  1.00 10.28 LIG-0.02  C 
ATOM     19  CD2 LEU B 104     -28.094  10.399   5.039  1.00 13.23 LIG 0.01  C 
ATOM     20  CD1 LEU B 104     -26.321   8.665   5.478  1.00 11.40 LIG 0.01  C 
ENDBRANCH 17 18
ENDBRANCH 5 17
ENDBRANCH 3 5
BRANCH 1 21
ATOM     21  CA  THR B 103     -25.756   9.366  -0.978  1.00  5.29 LIG 0.20  C 
BRANCH 21 22
ATOM     22  CB  THR B 103     -26.245  10.818  -1.113  1.00  5.94 LIG 0.15  C 
ATOM     23  CG2 THR B 103     -25.454  11.562  -2.194  1.00  6.62 LIG 0.04  C 
BRANCH 22 24
ATOM     24 OG1  THR B 103     -27.642  10.824  -1.433  1.00  6.95 LIG-0.39  OA
ATOM     25 HG1  THR B 103     -27.740  10.970  -2.255  1.00  6.95 LIG 0.21  HD
ENDBRANCH 22 24
ENDBRANCH 21 22
BRANCH 21 26
ATOM     26  N   THR B 103     -26.283   8.542  -2.061  1.00  6.31 LIG-0.34  N 
ATOM     27  C   VAL B 102     -25.522   7.684  -2.730  1.00  9.59 LIG 0.26  C 
ATOM     28 O    VAL B 102     -24.328   7.534  -2.493  1.00 11.78 LIG-0.27  OA
ATOM     29 H    THR B 103     -27.119   8.664  -2.221  1.00  6.31 LIG 0.16  HD
BRANCH 27 30
ATOM     30  CA  VAL B 102     -26.209   6.886  -3.838  1.00 12.05 LIG 0.40  C 
ATOM     31  N   VAL B 102     -27.177   5.945  -3.282  1.00 12.38 LIG 0.61  N 
BRANCH 30 32
ATOM     32  CB  VAL B 102     -26.879   7.848  -4.843  1.00 15.16 LIG 0.03  C 
ATOM     33  CG1 VAL B 102     -25.916   8.955  -5.230  1.00 16.31 LIG 0.01  C 
ATOM     34  CG2 VAL B 102     -27.328   7.097  -6.080  1.00 16.97 LIG 0.01  C 
ENDBRANCH 30 32
ENDBRANCH 27 30
ENDBRANCH 21 26
ENDBRANCH 1 21
TORSDOF 13
ENDMDL
MODEL 7
USER: ADFR SOLUTION from run 32
USER: SCORE 13.188555 LL:  -2.944 LR: -10.464 RR:   0.000 FEB:  -6.586
USER: RMSD 5.716282
USER: SEED 31
USER: STATUS no improvement in best in 11 clusters for 5 generations
USER: GENES 15
USER: genes 0 Translation |==|  0.46381 0.34906 0.51239
USER: genes 1 Rotation |==|  0.54562 0.80294 0.16854 0.71512
USER: genes 2 Torsion [C]-N--CA-[C] |==|  0.76031
USER: genes 3 Torsion [N]-CA--C-[N] |==|  0.29535
USER: genes 4 Torsion [C]-N--CA-[CB] |==|  0.88229
USER: genes 5 Torsion [N]-CA--CB-[CG1] |==|  0.48460
USER: genes 6 Torsion [N]-CA--C-[OXT] |==|  0.94020
USER: genes 7 Torsion [N]-CA--CB-[CG] |==|  0.05391
USER: genes 8 Torsion [CA]-CB--CG-[CD1] |==|  0.28786
USER: genes 9 Torsion [N]-C--CA-[N] |==|  0.91164
USER: genes 10 Torsion [C]-CA--CB-[CG2] |==|  0.16017
USER: genes 11 Torsion [CA]-CB--OG1-[HG1] |==|  0.56291
USER: genes 12 Torsion [C]-CA--N-[C] |==|  0.80206
USER: genes 13 Torsion [N]-C--CA-[N] |==|  0.33093
USER: genes 14 Torsion [C]-CA--CB-[CG1] |==|  0.76884
ROOT
ATOM      1  C   THR B 103     -25.969   6.091  -0.597  1.00  4.93 LIG 0.24  C 
ATOM      2 O    THR B 103     -26.789   5.379  -1.177  1.00  4.94 LIG-0.27  OA
ATOM      3  N   LEU B 104     -25.065   5.608   0.247  1.00  4.18 LIG-0.35  N 
ATOM      4 H    LEU B 104     -24.475   6.086   0.651  1.00  4.18 LIG 0.16  HD
ENDROOT
BRANCH 3 5
ATOM      5  CA  LEU B 104     -25.010   4.188   0.557  1.00  5.70 LIG 0.18  C 
BRANCH 5 6
ATOM      6  C   LEU B 104     -25.962   3.866   1.689  1.00  6.53 LIG 0.24  C 
ATOM      7 O    LEU B 104     -25.691   4.187   2.848  1.00  8.21 LIG-0.27  OA
ATOM      8  N   VAL B 105     -27.071   3.222   1.355  1.00  6.80 LIG-0.34  N 
ATOM      9 H    VAL B 105     -27.287   3.025   0.547  1.00  6.80 LIG 0.16  HD
BRANCH 8 10
ATOM     10  CA  VAL B 105     -28.034   2.789   2.359  1.00  6.91 LIG 0.19  C 
BRANCH 10 11
ATOM     11  CB  VAL B 105     -27.346   2.187   3.597  1.00  6.78 LIG 0.01  C 
ATOM     12  CG1 VAL B 105     -28.366   1.871   4.678  1.00  6.96 LIG 0.01  C 
ATOM     13  CG2 VAL B 105     -26.578   0.924   3.214  1.00  7.27 LIG 0.01  C 
ENDBRANCH 10 11
BRANCH 10 14
ATOM     14  C   VAL B 105     -28.895   3.971   2.790  1.00  6.40 LIG 0.20  C 
ATOM     15 OXT  VAL B 105     -28.492   5.126   2.623  1.00  6.01 LIG-0.65  OA
ATOM     16 O    VAL B 105     -30.013   3.786   3.305  1.00  5.94 LIG-0.65  OA
ENDBRANCH 10 14
ENDBRANCH 8 10
ENDBRANCH 5 6
BRANCH 5 17
ATOM     17  CB  LEU B 104     -23.590   3.771   0.951  1.00  7.33 LIG 0.04  C 
BRANCH 17 18
ATOM     18  CG  LEU B 104     -22.636   4.886   1.397  1.00 10.28 LIG-0.02  C 
ATOM     19  CD2 LEU B 104     -21.289   4.753   0.684  1.00 13.23 LIG 0.01  C 
ATOM     20  CD1 LEU B 104     -22.448   4.909   2.916  1.00 11.40 LIG 0.01  C 
ENDBRANCH 17 18
ENDBRANCH 5 17
ENDBRANCH 3 5
BRANCH 1 21
ATOM     21  CA  THR B 103     -25.937   7.588  -0.848  1.00  5.29 LIG 0.20  C 
BRANCH 21 22
ATOM     22  CB  THR B 103     -24.982   7.874  -2.019  1.00  5.94 LIG 0.15  C 
ATOM     23  CG2 THR B 103     -25.419   7.116  -3.278  1.00  6.62 LIG 0.04  C 
BRANCH 22 24
ATOM     24 OG1  THR B 103     -24.953   9.283  -2.280  1.00  6.95 LIG-0.39  OA
ATOM     25 HG1  THR B 103     -24.703   9.418  -3.071  1.00  6.95 LIG 0.21  HD
ENDBRANCH 22 24
ENDBRANCH 21 22
BRANCH 21 26
ATOM     26  N   THR B 103     -25.482   8.263   0.364  1.00  6.31 LIG-0.34  N 
ATOM     27  C   VAL B 102     -26.239   8.348   1.451  1.00  9.59 LIG 0.26  C 
ATOM     28 O    VAL B 102     -27.371   7.879   1.508  1.00 11.78 LIG-0.27  OA
ATOM     29 H    THR B 103     -24.691   8.594   0.306  1.00  6.31 LIG 0.16  HD
BRANCH 27 30
ATOM     30  CA  VAL B 102     -25.632   9.083   2.647  1.00 12.05 LIG 0.40  C 
ATOM     31  N   VAL B 102     -26.435  10.248   3.006  1.00 12.38 LIG 0.61  N 
BRANCH 30 32
ATOM     32  CB  VAL B 102     -25.486   8.115   3.841  1.00 15.16 LIG 0.03  C 
ATOM     33  CG1 VAL B 102     -26.797   8.011   4.596  1.00 16.31 LIG 0.01  C 
ATOM     34  CG2 VAL B 102     -25.055   6.742   3.362  1.00 16.97 LIG 0.01  C 
ENDBRANCH 30 32
ENDBRANCH 27 30
ENDBRANCH 21 26
ENDBRANCH 1 21
TORSDOF 13
ENDMDL
MODEL 8
USER: ADFR SOLUTION from run 129
USER: SCORE 12.073725 LL:  -2.305 LR: -10.403 RR:   0.000 FEB:  -6.525
USER: RMSD 4.460576
USER: SEED 128
USER: STATUS no improvement in best in 7 clusters for 5 generations
USER: GENES 15
USER: genes 0 Translation |==|  0.50475 0.33247 0.41317
USER: genes 1 Rotation |==|  0.59312 0.65523 0.44834 0.96321
USER: genes 2 Torsion [C]-N--CA-[C] |==|  0.62222
USER: genes 3 Torsion [N]-CA--C-[N] |==|  0.88916
USER: genes 4 Torsion [C]-N--CA-[CB] |==|  0.23510
USER: genes 5 Torsion [N]-CA--CB-[CG1] |==|  0.64372
USER: genes 6 Torsion [N]-CA--C-[OXT] |==|  0.27208
USER: genes 7 Torsion [N]-CA--CB-[CG] |==|  0.49150
USER: genes 8 Torsion [CA]-CB--CG-[CD1] |==|  0.28281
USER: genes 9 Torsion [N]-C--CA-[N] |==|  0.11183
USER: genes 10 Torsion [C]-CA--CB-[CG2] |==|  0.37300
USER: genes 11 Torsion [CA]-CB--OG1-[HG1] |==|  0.33514
USER: genes 12 Torsion [C]-CA--N-[C] |==|  0.13442
USER: genes 13 Torsion [N]-C--CA-[N] |==|  0.38995
USER: genes 14 Torsion [C]-CA--CB-[CG1] |==|  0.92570
ROOT
ATOM      1  C   THR B 103     -25.385   5.767  -2.383  1.00  4.93 LIG 0.24  C 
ATOM      2 O    THR B 103     -24.422   5.419  -3.067  1.00  4.94 LIG-0.27  OA
ATOM      3  N   LEU B 104     -25.551   5.382  -1.123  1.00  4.18 LIG-0.35  N 
ATOM      4 H    LEU B 104     -26.209   5.626  -0.625  1.00  4.18 LIG 0.16  HD
ENDROOT
BRANCH 3 5
ATOM      5  CA  LEU B 104     -24.599   4.493  -0.478  1.00  5.70 LIG 0.18  C 
BRANCH 5 6
ATOM      6  C   LEU B 104     -25.332   3.425   0.305  1.00  6.53 LIG 0.24  C 
ATOM      7 O    LEU B 104     -24.932   2.259   0.305  1.00  8.21 LIG-0.27  OA
ATOM      8  N   VAL B 105     -26.411   3.822   0.965  1.00  6.80 LIG-0.34  N 
ATOM      9 H    VAL B 105     -26.679   4.638   1.002  1.00  6.80 LIG 0.16  HD
BRANCH 8 10
ATOM     10  CA  VAL B 105     -27.246   2.880   1.698  1.00  6.91 LIG 0.19  C 
BRANCH 10 11
ATOM     11  CB  VAL B 105     -26.709   2.614   3.115  1.00  6.78 LIG 0.01  C 
ATOM     12  CG1 VAL B 105     -26.578   1.121   3.369  1.00  6.96 LIG 0.01  C 
ATOM     13  CG2 VAL B 105     -25.359   3.299   3.308  1.00  7.27 LIG 0.01  C 
ENDBRANCH 10 11
BRANCH 10 14
ATOM     14  C   VAL B 105     -28.668   3.420   1.796  1.00  6.40 LIG 0.20  C 
ATOM     15 OXT  VAL B 105     -29.535   3.033   1.004  1.00  6.01 LIG-0.65  OA
ATOM     16 O    VAL B 105     -28.974   4.246   2.675  1.00  5.94 LIG-0.65  OA
ENDBRANCH 10 14
ENDBRANCH 8 10
ENDBRANCH 5 6
BRANCH 5 17
ATOM     17  CB  LEU B 104     -23.676   5.272   0.464  1.00  7.33 LIG 0.04  C 
BRANCH 17 18
ATOM     18  CG  LEU B 104     -22.661   4.457   1.275  1.00 10.28 LIG-0.02  C 
ATOM     19  CD2 LEU B 104     -22.659   4.909   2.736  1.00 13.23 LIG 0.01  C 
ATOM     20  CD1 LEU B 104     -21.254   4.534   0.679  1.00 11.40 LIG 0.01  C 
ENDBRANCH 17 18
ENDBRANCH 5 17
ENDBRANCH 3 5
BRANCH 1 21
ATOM     21  CA  THR B 103     -26.440   6.697  -2.957  1.00  5.29 LIG 0.20  C 
BRANCH 21 22
ATOM     22  CB  THR B 103     -25.861   7.397  -4.198  1.00  5.94 LIG 0.15  C 
ATOM     23  CG2 THR B 103     -26.866   7.376  -5.355  1.00  6.62 LIG 0.04  C 
BRANCH 22 24
ATOM     24 OG1  THR B 103     -25.519   8.749  -3.868  1.00  6.95 LIG-0.39  OA
ATOM     25 HG1  THR B 103     -24.699   8.873  -4.004  1.00  6.95 LIG 0.21  HD
ENDBRANCH 22 24
ENDBRANCH 21 22
BRANCH 21 26
ATOM     26  N   THR B 103     -26.814   7.675  -1.941  1.00  6.31 LIG-0.34  N 
ATOM     27  C   VAL B 102     -25.909   8.353  -1.246  1.00  9.59 LIG 0.26  C 
ATOM     28 O    VAL B 102     -24.703   8.197  -1.400  1.00 11.78 LIG-0.27  OA
ATOM     29 H    THR B 103     -27.663   7.767  -1.837  1.00  6.31 LIG 0.16  HD
BRANCH 27 30
ATOM     30  CA  VAL B 102     -26.447   9.346  -0.215  1.00 12.05 LIG 0.40  C 
ATOM     31  N   VAL B 102     -25.643   9.321   1.004  1.00 12.38 LIG 0.61  N 
BRANCH 30 32
ATOM     32  CB  VAL B 102     -26.494  10.764  -0.824  1.00 15.16 LIG 0.03  C 
ATOM     33  CG1 VAL B 102     -25.453  10.900  -1.918  1.00 16.31 LIG 0.01  C 
ATOM     34  CG2 VAL B 102     -27.873  11.056  -1.383  1.00 16.97 LIG 0.01  C 
ENDBRANCH 30 32
ENDBRANCH 27 30
ENDBRANCH 21 26
ENDBRANCH 1 21
TORSDOF 13
ENDMDL
MODEL 9
USER: ADFR SOLUTION from run 156
USER: SCORE 12.137734 LL:  -2.372 LR: -10.368 RR:   0.000 FEB:  -6.490
USER: RMSD 2.088360
USER: SEED 155
USER: STATUS no improvement in best in 14 clusters for 5 generations
USER: GENES 15
USER: genes 0 Translation |==|  0.43467 0.46708 0.54573
USER: genes 1 Rotation |==|  0.45780 0.54747 0.02291 0.63545
USER: genes 2 Torsion [C]-N--CA-[C] |==|  0.16520
USER: genes 3 Torsion [N]-CA--C-[N] |==|  0.11103
USER: genes 4 Torsion [C]-N--CA-[CB] |==|  0.37696
USER: genes 5 Torsion [N]-CA--CB-[CG1] |==|  0.20088
USER: genes 6 Torsion [N]-CA--C-[OXT] |==|  0.02295
USER: genes 7 Torsion [N]-CA--CB-[CG] |==|  0.60687
USER: genes 8 Torsion [CA]-CB--CG-[CD1] |==|  0.48788
USER: genes 9 Torsion [N]-C--CA-[N] |==|  0.88750
USER: genes 10 Torsion [C]-CA--CB-[CG2] |==|  0.48993
USER: genes 11 Torsion [CA]-CB--OG1-[HG1] |==|  0.11912
USER: genes 12 Torsion [C]-CA--N-[C] |==|  0.62226
USER: genes 13 Torsion [N]-C--CA-[N] |==|  0.42324
USER: genes 14 Torsion [C]-CA--CB-[CG1] |==|  0.52196
ROOT
ATOM      1  C   THR B 103     -26.384   8.392   0.003  1.00  4.93 LIG 0.24  C 
ATOM      2 O    THR B 103     -27.467   7.908   0.333  1.00  4.94 LIG-0.27  OA
ATOM      3  N   LEU B 104     -25.462   8.762   0.884  1.00  4.18 LIG-0.35  N 
ATOM      4 H    LEU B 104     -24.695   9.089   0.673  1.00  4.18 LIG 0.16  HD
ENDROOT
BRANCH 3 5
ATOM      5  CA  LEU B 104     -25.695   8.635   2.313  1.00  5.70 LIG 0.18  C 
BRANCH 5 6
ATOM      6  C   LEU B 104     -25.959   7.187   2.670  1.00  6.53 LIG 0.24  C 
ATOM      7 O    LEU B 104     -26.817   6.893   3.505  1.00  8.21 LIG-0.27  OA
ATOM      8  N   VAL B 105     -25.216   6.286   2.045  1.00  6.80 LIG-0.34  N 
ATOM      9 H    VAL B 105     -24.640   6.477   1.436  1.00  6.80 LIG 0.16  HD
BRANCH 8 10
ATOM     10  CA  VAL B 105     -25.321   4.866   2.351  1.00  6.91 LIG 0.19  C 
BRANCH 10 11
ATOM     11  CB  VAL B 105     -25.350   4.002   1.077  1.00  6.78 LIG 0.01  C 
ATOM     12  CG1 VAL B 105     -23.979   3.964   0.421  1.00  6.96 LIG 0.01  C 
ATOM     13  CG2 VAL B 105     -25.813   2.586   1.407  1.00  7.27 LIG 0.01  C 
ENDBRANCH 10 11
BRANCH 10 14
ATOM     14  C   VAL B 105     -24.144   4.437   3.219  1.00  6.40 LIG 0.20  C 
ATOM     15 OXT  VAL B 105     -23.371   5.284   3.679  1.00  6.01 LIG-0.65  OA
ATOM     16 O    VAL B 105     -23.953   3.236   3.481  1.00  5.94 LIG-0.65  OA
ENDBRANCH 10 14
ENDBRANCH 8 10
ENDBRANCH 5 6
BRANCH 5 17
ATOM     17  CB  LEU B 104     -26.887   9.492   2.750  1.00  7.33 LIG 0.04  C 
BRANCH 17 18
ATOM     18  CG  LEU B 104     -26.770  10.208   4.102  1.00 10.28 LIG-0.02  C 
ATOM     19  CD2 LEU B 104     -26.584   9.191   5.229  1.00 13.23 LIG 0.01  C 
ATOM     20  CD1 LEU B 104     -27.971  11.115   4.379  1.00 11.40 LIG 0.01  C 
ENDBRANCH 17 18
ENDBRANCH 5 17
ENDBRANCH 3 5
BRANCH 1 21
ATOM     21  CA  THR B 103     -26.036   8.569  -1.464  1.00  5.29 LIG 0.20  C 
BRANCH 21 22
ATOM     22  CB  THR B 103     -25.146   7.395  -1.907  1.00  5.94 LIG 0.15  C 
ATOM     23  CG2 THR B 103     -24.840   7.478  -3.407  1.00  6.62 LIG 0.04  C 
BRANCH 22 24
ATOM     24 OG1  THR B 103     -23.927   7.408  -1.155  1.00  6.95 LIG-0.39  OA
ATOM     25 HG1  THR B 103     -24.097   7.568  -0.347  1.00  6.95 LIG 0.21  HD
ENDBRANCH 22 24
ENDBRANCH 21 22
BRANCH 21 26
ATOM     26  N   THR B 103     -25.338   9.838  -1.637  1.00  6.31 LIG-0.34  N 
ATOM     27  C   VAL B 102     -25.620  10.670  -2.633  1.00  9.59 LIG 0.26  C 
ATOM     28 O    VAL B 102     -26.473  10.424  -3.479  1.00 11.78 LIG-0.27  OA
ATOM     29 H    THR B 103     -24.736   9.993  -1.042  1.00  6.31 LIG 0.16  HD
BRANCH 27 30
ATOM     30  CA  VAL B 102     -24.809  11.965  -2.688  1.00 12.05 LIG 0.40  C 
ATOM     31  N   VAL B 102     -24.704  12.457  -4.059  1.00 12.38 LIG 0.61  N 
BRANCH 30 32
ATOM     32  CB  VAL B 102     -25.443  13.024  -1.761  1.00 15.16 LIG 0.03  C 
ATOM     33  CG1 VAL B 102     -24.764  14.366  -1.956  1.00 16.31 LIG 0.01  C 
ATOM     34  CG2 VAL B 102     -26.928  13.151  -2.036  1.00 16.97 LIG 0.01  C 
ENDBRANCH 30 32
ENDBRANCH 27 30
ENDBRANCH 21 26
ENDBRANCH 1 21
TORSDOF 13
ENDMDL
MODEL 10
USER: ADFR SOLUTION from run 192
USER: SCORE 11.691200 LL:  -2.569 LR: -10.361 RR:   0.000 FEB:  -6.483
USER: RMSD 8.490066
USER: SEED 191
USER: STATUS no improvement in best in 4 clusters for 5 generations
USER: GENES 15
USER: genes 0 Translation |==|  0.49701 0.50414 0.45134
USER: genes 1 Rotation |==|  0.10373 0.74097 0.60618 0.65371
USER: genes 2 Torsion [C]-N--CA-[C] |==|  0.62862
USER: genes 3 Torsion [N]-CA--C-[N] |==|  0.80678
USER: genes 4 Torsion [C]-N--CA-[CB] |==|  0.25414
USER: genes 5 Torsion [N]-CA--CB-[CG1] |==|  0.76813
USER: genes 6 Torsion [N]-CA--C-[OXT] |==|  0.51384
USER: genes 7 Torsion [N]-CA--CB-[CG] |==|  0.63410
USER: genes 8 Torsion [CA]-CB--CG-[CD1] |==|  0.82718
USER: genes 9 Torsion [N]-C--CA-[N] |==|  0.58110
USER: genes 10 Torsion [C]-CA--CB-[CG2] |==|  0.31846
USER: genes 11 Torsion [CA]-CB--OG1-[HG1] |==|  0.08103
USER: genes 12 Torsion [C]-CA--N-[C] |==|  0.65785
USER: genes 13 Torsion [N]-C--CA-[N] |==|  0.92176
USER: genes 14 Torsion [C]-CA--CB-[CG1] |==|  0.61148
ROOT
ATOM      1  C   THR B 103     -25.496   9.115  -1.696  1.00  4.93 LIG 0.24  C 
ATOM      2 O    THR B 103     -24.776   8.534  -2.509  1.00  4.94 LIG-0.27  OA
ATOM      3  N   LEU B 104     -25.883  10.375  -1.849  1.00  4.18 LIG-0.35  N 
ATOM      4 H    LEU B 104     -26.396  10.794  -1.300  1.00  4.18 LIG 0.16  HD
ENDROOT
BRANCH 3 5
ATOM      5  CA  LEU B 104     -25.451  11.160  -2.994  1.00  5.70 LIG 0.18  C 
BRANCH 5 6
ATOM      6  C   LEU B 104     -24.984  12.527  -2.541  1.00  6.53 LIG 0.24  C 
ATOM      7 O    LEU B 104     -23.790  12.832  -2.588  1.00  8.21 LIG-0.27  OA
ATOM      8  N   VAL B 105     -25.924  13.347  -2.093  1.00  6.80 LIG-0.34  N 
ATOM      9 H    VAL B 105     -26.763  13.160  -2.089  1.00  6.80 LIG 0.16  HD
BRANCH 8 10
ATOM     10  CA  VAL B 105     -25.598  14.664  -1.560  1.00  6.91 LIG 0.19  C 
BRANCH 10 11
ATOM     11  CB  VAL B 105     -25.638  15.752  -2.648  1.00  6.78 LIG 0.01  C 
ATOM     12  CG1 VAL B 105     -24.326  15.795  -3.414  1.00  6.96 LIG 0.01  C 
ATOM     13  CG2 VAL B 105     -26.798  15.500  -3.608  1.00  7.27 LIG 0.01  C 
ENDBRANCH 10 11
BRANCH 10 14
ATOM     14  C   VAL B 105     -26.579  15.028  -0.452  1.00  6.40 LIG 0.20  C 
ATOM     15 OXT  VAL B 105     -26.535  16.146   0.072  1.00  6.01 LIG-0.65  OA
ATOM     16 O    VAL B 105     -27.437  14.212  -0.070  1.00  5.94 LIG-0.65  OA
ENDBRANCH 10 14
ENDBRANCH 8 10
ENDBRANCH 5 6
BRANCH 5 17
ATOM     17  CB  LEU B 104     -26.589  11.321  -4.006  1.00  7.33 LIG 0.04  C 
BRANCH 17 18
ATOM     18  CG  LEU B 104     -26.259  11.029  -5.475  1.00 10.28 LIG-0.02  C 
ATOM     19  CD2 LEU B 104     -25.828   9.572  -5.647  1.00 13.23 LIG 0.01  C 
ATOM     20  CD1 LEU B 104     -25.194  11.980  -6.026  1.00 11.40 LIG 0.01  C 
ENDBRANCH 17 18
ENDBRANCH 5 17
ENDBRANCH 3 5
BRANCH 1 21
ATOM     21  CA  THR B 103     -26.006   8.389  -0.464  1.00  5.29 LIG 0.20  C 
BRANCH 21 22
ATOM     22  CB  THR B 103     -26.214   9.412   0.665  1.00  5.94 LIG 0.15  C 
ATOM     23  CG2 THR B 103     -27.698   9.527   1.031  1.00  6.62 LIG 0.04  C 
BRANCH 22 24
ATOM     24 OG1  THR B 103     -25.453   9.019   1.814  1.00  6.95 LIG-0.39  OA
ATOM     25 HG1  THR B 103     -24.773   8.591   1.567  1.00  6.95 LIG 0.21  HD
ENDBRANCH 22 24
ENDBRANCH 21 22
BRANCH 21 26
ATOM     26  N   THR B 103     -25.029   7.379  -0.070  1.00  6.31 LIG-0.34  N 
ATOM     27  C   VAL B 102     -25.347   6.094   0.042  1.00  9.59 LIG 0.26  C 
ATOM     28 O    VAL B 102     -26.479   5.672  -0.166  1.00 11.78 LIG-0.27  OA
ATOM     29 H    THR B 103     -24.242   7.690   0.081  1.00  6.31 LIG 0.16  HD
BRANCH 27 30
ATOM     30  CA  VAL B 102     -24.221   5.149   0.462  1.00 12.05 LIG 0.40  C 
ATOM     31  N   VAL B 102     -22.922   5.663   0.040  1.00 12.38 LIG 0.61  N 
BRANCH 30 32
ATOM     32  CB  VAL B 102     -24.264   4.925   1.989  1.00 15.16 LIG 0.03  C 
ATOM     33  CG1 VAL B 102     -22.857   4.909   2.557  1.00 16.31 LIG 0.01  C 
ATOM     34  CG2 VAL B 102     -25.080   6.011   2.663  1.00 16.97 LIG 0.01  C 
ENDBRANCH 30 32
ENDBRANCH 27 30
ENDBRANCH 21 26
ENDBRANCH 1 21
TORSDOF 13
ENDMDL
MODEL 11
USER: ADFR SOLUTION from run 65
USER: SCORE 12.550679 LL:  -2.277 LR: -10.338 RR:   0.000 FEB:  -6.460
USER: RMSD 4.769542
USER: SEED 64
USER: STATUS no improvement in best in 12 clusters for 5 generations
USER: GENES 15
USER: genes 0 Translation |==|  0.47778 0.39510 0.52983
USER: genes 1 Rotation |==|  0.57107 0.84872 0.18754 0.66035
USER: genes 2 Torsion [C]-N--CA-[C] |==|  0.78827
USER: genes 3 Torsion [N]-CA--C-[N] |==|  0.45268
USER: genes 4 Torsion [C]-N--CA-[CB] |==|  0.84372
USER: genes 5 Torsion [N]-CA--CB-[CG1] |==|  0.56082
USER: genes 6 Torsion [N]-CA--C-[OXT] |==|  0.20842
USER: genes 7 Torsion [N]-CA--CB-[CG] |==|  0.08016
USER: genes 8 Torsion [CA]-CB--CG-[CD1] |==|  0.19385
USER: genes 9 Torsion [N]-C--CA-[N] |==|  0.41094
USER: genes 10 Torsion [C]-CA--CB-[CG2] |==|  0.86622
USER: genes 11 Torsion [CA]-CB--OG1-[HG1] |==|  0.92199
USER: genes 12 Torsion [C]-CA--N-[C] |==|  0.82507
USER: genes 13 Torsion [N]-C--CA-[N] |==|  0.20330
USER: genes 14 Torsion [C]-CA--CB-[CG1] |==|  0.24990
ROOT
ATOM      1  C   THR B 103     -25.770   6.989  -0.283  1.00  4.93 LIG 0.24  C 
ATOM      2 O    THR B 103     -26.762   6.558  -0.871  1.00  4.94 LIG-0.27  OA
ATOM      3  N   LEU B 104     -24.870   6.196   0.287  1.00  4.18 LIG-0.35  N 
ATOM      4 H    LEU B 104     -24.163   6.477   0.689  1.00  4.18 LIG 0.16  HD
ENDROOT
BRANCH 3 5
ATOM      5  CA  LEU B 104     -25.023   4.751   0.268  1.00  5.70 LIG 0.18  C 
BRANCH 5 6
ATOM      6  C   LEU B 104     -26.068   4.325   1.277  1.00  6.53 LIG 0.24  C 
ATOM      7 O    LEU B 104     -26.418   5.089   2.179  1.00  8.21 LIG-0.27  OA
ATOM      8  N   VAL B 105     -26.559   3.103   1.130  1.00  6.80 LIG-0.34  N 
ATOM      9 H    VAL B 105     -26.349   2.575   0.484  1.00  6.80 LIG 0.16  HD
BRANCH 8 10
ATOM     10  CA  VAL B 105     -27.517   2.546   2.076  1.00  6.91 LIG 0.19  C 
BRANCH 10 11
ATOM     11  CB  VAL B 105     -26.978   2.560   3.518  1.00  6.78 LIG 0.01  C 
ATOM     12  CG1 VAL B 105     -27.703   1.535   4.374  1.00  6.96 LIG 0.01  C 
ATOM     13  CG2 VAL B 105     -25.477   2.284   3.526  1.00  7.27 LIG 0.01  C 
ENDBRANCH 10 11
BRANCH 10 14
ATOM     14  C   VAL B 105     -28.817   3.338   2.020  1.00  6.40 LIG 0.20  C 
ATOM     15 OXT  VAL B 105     -29.594   3.190   1.071  1.00  6.01 LIG-0.65  OA
ATOM     16 O    VAL B 105     -29.116   4.133   2.930  1.00  5.94 LIG-0.65  OA
ENDBRANCH 10 14
ENDBRANCH 8 10
ENDBRANCH 5 6
BRANCH 5 17
ATOM     17  CB  LEU B 104     -23.695   4.057   0.587  1.00  7.33 LIG 0.04  C 
BRANCH 17 18
ATOM     18  CG  LEU B 104     -22.712   4.818   1.486  1.00 10.28 LIG-0.02  C 
ATOM     19  CD2 LEU B 104     -21.327   4.170   1.431  1.00 13.23 LIG 0.01  C 
ATOM     20  CD1 LEU B 104     -23.210   4.916   2.930  1.00 11.40 LIG 0.01  C 
ENDBRANCH 17 18
ENDBRANCH 5 17
ENDBRANCH 3 5
BRANCH 1 21
ATOM     21  CA  THR B 103     -25.511   8.483  -0.204  1.00  5.29 LIG 0.20  C 
BRANCH 21 22
ATOM     22  CB  THR B 103     -26.193   9.038   1.058  1.00  5.94 LIG 0.15  C 
ATOM     23  CG2 THR B 103     -27.640   8.543   1.159  1.00  6.62 LIG 0.04  C 
BRANCH 22 24
ATOM     24 OG1  THR B 103     -25.453   8.636   2.218  1.00  6.95 LIG-0.39  OA
ATOM     25 HG1  THR B 103     -25.058   7.910   2.061  1.00  6.95 LIG 0.21  HD
ENDBRANCH 22 24
ENDBRANCH 21 22
BRANCH 21 26
ATOM     26  N   THR B 103     -26.046   9.121  -1.402  1.00  6.31 LIG-0.34  N 
ATOM     27  C   VAL B 102     -25.582   8.848  -2.616  1.00  9.59 LIG 0.26  C 
ATOM     28 O    VAL B 102     -24.668   8.053  -2.811  1.00 11.78 LIG-0.27  OA
ATOM     29 H    THR B 103     -26.680   9.682  -1.249  1.00  6.31 LIG 0.16  HD
BRANCH 27 30
ATOM     30  CA  VAL B 102     -26.239   9.591  -3.779  1.00 12.05 LIG 0.40  C 
ATOM     31  N   VAL B 102     -25.826  10.991  -3.805  1.00 12.38 LIG 0.61  N 
BRANCH 30 32
ATOM     32  CB  VAL B 102     -25.905   8.885  -5.111  1.00 15.16 LIG 0.03  C 
ATOM     33  CG1 VAL B 102     -26.953   7.834  -5.425  1.00 16.31 LIG 0.01  C 
ATOM     34  CG2 VAL B 102     -25.828   9.892  -6.242  1.00 16.97 LIG 0.01  C 
ENDBRANCH 30 32
ENDBRANCH 27 30
ENDBRANCH 21 26
ENDBRANCH 1 21
TORSDOF 13
ENDMDL
MODEL 12
USER: ADFR SOLUTION from run 193
USER: SCORE 11.499014 LL:  -2.297 LR: -10.280 RR:   0.000 FEB:  -6.402
USER: RMSD 8.110289
USER: SEED 192
USER: STATUS no improvement in best in 12 clusters for 5 generations
USER: GENES 15
USER: genes 0 Translation |==|  0.47253 0.49865 0.48637
USER: genes 1 Rotation |==|  0.02927 0.61345 0.55081 0.61383
USER: genes 2 Torsion [C]-N--CA-[C] |==|  0.18469
USER: genes 3 Torsion [N]-CA--C-[N] |==|  0.43468
USER: genes 4 Torsion [C]-N--CA-[CB] |==|  0.22606
USER: genes 5 Torsion [N]-CA--CB-[CG1] |==|  0.75944
USER: genes 6 Torsion [N]-CA--C-[OXT] |==|  0.77556
USER: genes 7 Torsion [N]-CA--CB-[CG] |==|  0.63491
USER: genes 8 Torsion [CA]-CB--CG-[CD1] |==|  0.50059
USER: genes 9 Torsion [N]-C--CA-[N] |==|  0.47778
USER: genes 10 Torsion [C]-CA--CB-[CG2] |==|  0.41012
USER: genes 11 Torsion [CA]-CB--OG1-[HG1] |==|  0.09105
USER: genes 12 Torsion [C]-CA--N-[C] |==|  0.77757
USER: genes 13 Torsion [N]-C--CA-[N] |==|  0.77106
USER: genes 14 Torsion [C]-CA--CB-[CG1] |==|  0.23402
ROOT
ATOM      1  C   THR B 103     -25.845   9.008  -1.065  1.00  4.93 LIG 0.24  C 
ATOM      2 O    THR B 103     -24.703   8.792  -1.474  1.00  4.94 LIG-0.27  OA
ATOM      3  N   LEU B 104     -26.676   9.852  -1.664  1.00  4.18 LIG-0.35  N 
ATOM      4 H    LEU B 104     -27.481  10.006  -1.402  1.00  4.18 LIG 0.16  HD
ENDROOT
BRANCH 3 5
ATOM      5  CA  LEU B 104     -26.268  10.599  -2.842  1.00  5.70 LIG 0.18  C 
BRANCH 5 6
ATOM      6  C   LEU B 104     -26.044   9.655  -4.005  1.00  6.53 LIG 0.24  C 
ATOM      7 O    LEU B 104     -25.775   8.468  -3.807  1.00  8.21 LIG-0.27  OA
ATOM      8  N   VAL B 105     -26.145  10.184  -5.215  1.00  6.80 LIG-0.34  N 
ATOM      9 H    VAL B 105     -26.367  11.001  -5.366  1.00  6.80 LIG 0.16  HD
BRANCH 8 10
ATOM     10  CA  VAL B 105     -25.881   9.401  -6.415  1.00  6.91 LIG 0.19  C 
BRANCH 10 11
ATOM     11  CB  VAL B 105     -27.092   8.541  -6.821  1.00  6.78 LIG 0.01  C 
ATOM     12  CG1 VAL B 105     -27.071   7.206  -6.095  1.00  6.96 LIG 0.01  C 
ATOM     13  CG2 VAL B 105     -28.392   9.282  -6.521  1.00  7.27 LIG 0.01  C 
ENDBRANCH 10 11
BRANCH 10 14
ATOM     14  C   VAL B 105     -25.519  10.330  -7.568  1.00  6.40 LIG 0.20  C 
ATOM     15 OXT  VAL B 105     -26.407  10.909  -8.201  1.00  6.01 LIG-0.65  OA
ATOM     16 O    VAL B 105     -24.329  10.522  -7.877  1.00  5.94 LIG-0.65  OA
ENDBRANCH 10 14
ENDBRANCH 8 10
ENDBRANCH 5 6
BRANCH 5 17
ATOM     17  CB  LEU B 104     -24.983  11.387  -2.571  1.00  7.33 LIG 0.04  C 
BRANCH 17 18
ATOM     18  CG  LEU B 104     -24.975  12.866  -2.979  1.00 10.28 LIG-0.02  C 
ATOM     19  CD2 LEU B 104     -25.323  13.012  -4.461  1.00 13.23 LIG 0.01  C 
ATOM     20  CD1 LEU B 104     -23.640  13.543  -2.664  1.00 11.40 LIG 0.01  C 
ENDBRANCH 17 18
ENDBRANCH 5 17
ENDBRANCH 3 5
BRANCH 1 21
ATOM     21  CA  THR B 103     -26.374   8.280   0.158  1.00  5.29 LIG 0.20  C 
BRANCH 21 22
ATOM     22  CB  THR B 103     -26.596   9.302   1.285  1.00  5.94 LIG 0.15  C 
ATOM     23  CG2 THR B 103     -27.779   8.891   2.170  1.00  6.62 LIG 0.04  C 
BRANCH 22 24
ATOM     24 OG1  THR B 103     -25.405   9.409   2.076  1.00  6.95 LIG-0.39  OA
ATOM     25 HG1  THR B 103     -24.732   9.291   1.587  1.00  6.95 LIG 0.21  HD
ENDBRANCH 22 24
ENDBRANCH 21 22
BRANCH 21 26
ATOM     26  N   THR B 103     -25.405   7.267   0.564  1.00  6.31 LIG-0.34  N 
ATOM     27  C   VAL B 102     -25.319   6.089  -0.042  1.00  9.59 LIG 0.26  C 
ATOM     28 O    VAL B 102     -26.052   5.767  -0.971  1.00 11.78 LIG-0.27  OA
ATOM     29 H    THR B 103     -24.904   7.503   1.222  1.00  6.31 LIG 0.16  HD
BRANCH 27 30
ATOM     30  CA  VAL B 102     -24.256   5.127   0.489  1.00 12.05 LIG 0.40  C 
ATOM     31  N   VAL B 102     -22.945   5.432  -0.076  1.00 12.38 LIG 0.61  N 
BRANCH 30 32
ATOM     32  CB  VAL B 102     -24.225   5.175   2.032  1.00 15.16 LIG 0.03  C 
ATOM     33  CG1 VAL B 102     -25.282   4.253   2.607  1.00 16.31 LIG 0.01  C 
ATOM     34  CG2 VAL B 102     -22.856   4.778   2.548  1.00 16.97 LIG 0.01  C 
ENDBRANCH 30 32
ENDBRANCH 27 30
ENDBRANCH 21 26
ENDBRANCH 1 21
TORSDOF 13
ENDMDL
MODEL 13
USER: ADFR SOLUTION from run 53
USER: SCORE 11.312013 LL:  -2.346 LR: -10.271 RR:   0.000 FEB:  -6.393
USER: RMSD 8.283704
USER: SEED 52
USER: STATUS no improvement in best in 12 clusters for 5 generations
USER: GENES 15
USER: genes 0 Translation |==|  0.43764 0.43872 0.58795
USER: genes 1 Rotation |==|  0.56134 0.97328 0.62934 0.57425
USER: genes 2 Torsion [C]-N--CA-[C] |==|  0.19184
USER: genes 3 Torsion [N]-CA--C-[N] |==|  0.44636
USER: genes 4 Torsion [C]-N--CA-[CB] |==|  0.39618
USER: genes 5 Torsion [N]-CA--CB-[CG1] |==|  0.35147
USER: genes 6 Torsion [N]-CA--C-[OXT] |==|  0.90480
USER: genes 7 Torsion [N]-CA--CB-[CG] |==|  0.67087
USER: genes 8 Torsion [CA]-CB--CG-[CD1] |==|  0.20619
USER: genes 9 Torsion [N]-C--CA-[N] |==|  0.91774
USER: genes 10 Torsion [C]-CA--CB-[CG2] |==|  0.51262
USER: genes 11 Torsion [CA]-CB--OG1-[HG1] |==|  0.02224
USER: genes 12 Torsion [C]-CA--N-[C] |==|  0.66140
USER: genes 13 Torsion [N]-C--CA-[N] |==|  0.55347
USER: genes 14 Torsion [C]-CA--CB-[CG1] |==|  0.49369
ROOT
ATOM      1  C   THR B 103     -26.342   7.839   0.763  1.00  4.93 LIG 0.24  C 
ATOM      2 O    THR B 103     -27.435   8.103   0.262  1.00  4.94 LIG-0.27  OA
ATOM      3  N   LEU B 104     -25.196   7.982   0.108  1.00  4.18 LIG-0.35  N 
ATOM      4 H    LEU B 104     -24.422   7.816   0.445  1.00  4.18 LIG 0.16  HD
ENDROOT
BRANCH 3 5
ATOM      5  CA  LEU B 104     -25.171   8.444  -1.270  1.00  5.70 LIG 0.18  C 
BRANCH 5 6
ATOM      6  C   LEU B 104     -25.585   9.899  -1.338  1.00  6.53 LIG 0.24  C 
ATOM      7 O    LEU B 104     -26.216  10.417  -0.415  1.00  8.21 LIG-0.27  OA
ATOM      8  N   VAL B 105     -25.236  10.555  -2.436  1.00  6.80 LIG-0.34  N 
ATOM      9 H    VAL B 105     -24.765  10.215  -3.070  1.00  6.80 LIG 0.16  HD
BRANCH 8 10
ATOM     10  CA  VAL B 105     -25.635  11.938  -2.658  1.00  6.91 LIG 0.19  C 
BRANCH 10 11
ATOM     11  CB  VAL B 105     -24.528  12.753  -3.350  1.00  6.78 LIG 0.01  C 
ATOM     12  CG1 VAL B 105     -25.065  13.437  -4.597  1.00  6.96 LIG 0.01  C 
ATOM     13  CG2 VAL B 105     -23.953  13.790  -2.389  1.00  7.27 LIG 0.01  C 
ENDBRANCH 10 11
BRANCH 10 14
ATOM     14  C   VAL B 105     -26.897  11.981  -3.511  1.00  6.40 LIG 0.20  C 
ATOM     15 OXT  VAL B 105     -27.079  11.133  -4.392  1.00  6.01 LIG-0.65  OA
ATOM     16 O    VAL B 105     -27.758  12.859  -3.327  1.00  5.94 LIG-0.65  OA
ENDBRANCH 10 14
ENDBRANCH 8 10
ENDBRANCH 5 6
BRANCH 5 17
ATOM     17  CB  LEU B 104     -26.111   7.607  -2.143  1.00  7.33 LIG 0.04  C 
BRANCH 17 18
ATOM     18  CG  LEU B 104     -25.474   6.824  -3.298  1.00 10.28 LIG-0.02  C 
ATOM     19  CD2 LEU B 104     -26.537   6.424  -4.323  1.00 13.23 LIG 0.01  C 
ATOM     20  CD1 LEU B 104     -24.703   5.597  -2.807  1.00 11.40 LIG 0.01  C 
ENDBRANCH 17 18
ENDBRANCH 5 17
ENDBRANCH 3 5
BRANCH 1 21
ATOM     21  CA  THR B 103     -26.251   7.350   2.198  1.00  5.29 LIG 0.20  C 
BRANCH 21 22
ATOM     22  CB  THR B 103     -26.158   8.568   3.132  1.00  5.94 LIG 0.15  C 
ATOM     23  CG2 THR B 103     -25.952   8.127   4.585  1.00  6.62 LIG 0.04  C 
BRANCH 22 24
ATOM     24 OG1  THR B 103     -25.076   9.409   2.715  1.00  6.95 LIG-0.39  OA
ATOM     25 HG1  THR B 103     -24.773   9.134   1.981  1.00  6.95 LIG 0.21  HD
ENDBRANCH 22 24
ENDBRANCH 21 22
BRANCH 21 26
ATOM     26  N   THR B 103     -25.072   6.502   2.337  1.00  6.31 LIG-0.34  N 
ATOM     27  C   VAL B 102     -25.151   5.243   2.750  1.00  9.59 LIG 0.26  C 
ATOM     28 O    VAL B 102     -26.214   4.712   3.054  1.00 11.78 LIG-0.27  OA
ATOM     29 H    THR B 103     -24.333   6.891   2.129  1.00  6.31 LIG 0.16  HD
BRANCH 27 30
ATOM     30  CA  VAL B 102     -23.833   4.474   2.847  1.00 12.05 LIG 0.40  C 
ATOM     31  N   VAL B 102     -24.069   3.034   2.862  1.00 12.38 LIG 0.61  N 
BRANCH 30 32
ATOM     32  CB  VAL B 102     -22.902   4.877   1.684  1.00 15.16 LIG 0.03  C 
ATOM     33  CG1 VAL B 102     -21.571   4.159   1.805  1.00 16.31 LIG 0.01  C 
ATOM     34  CG2 VAL B 102     -23.545   4.550   0.350  1.00 16.97 LIG 0.01  C 
ENDBRANCH 30 32
ENDBRANCH 27 30
ENDBRANCH 21 26
ENDBRANCH 1 21
TORSDOF 13
ENDMDL
MODEL 14
USER: ADFR SOLUTION from run 21
USER: SCORE 11.500789 LL:  -2.186 LR: -10.225 RR:   0.000 FEB:  -6.347
USER: RMSD 3.500548
USER: SEED 20
USER: STATUS no improvement in best in 14 clusters for 5 generations
USER: GENES 15
USER: genes 0 Translation |==|  0.49521 0.43914 0.45012
USER: genes 1 Rotation |==|  0.68239 0.42475 0.65240 0.93341
USER: genes 2 Torsion [C]-N--CA-[C] |==|  0.22098
USER: genes 3 Torsion [N]-CA--C-[N] |==|  0.82333
USER: genes 4 Torsion [C]-N--CA-[CB] |==|  0.85612
USER: genes 5 Torsion [N]-CA--CB-[CG1] |==|  0.54030
USER: genes 6 Torsion [N]-CA--C-[OXT] |==|  0.53776
USER: genes 7 Torsion [N]-CA--CB-[CG] |==|  0.54284
USER: genes 8 Torsion [CA]-CB--CG-[CD1] |==|  0.69654
USER: genes 9 Torsion [N]-C--CA-[N] |==|  0.47611
USER: genes 10 Torsion [C]-CA--CB-[CG2] |==|  0.27239
USER: genes 11 Torsion [CA]-CB--OG1-[HG1] |==|  0.12377
USER: genes 12 Torsion [C]-CA--N-[C] |==|  0.69980
USER: genes 13 Torsion [N]-C--CA-[N] |==|  0.97693
USER: genes 14 Torsion [C]-CA--CB-[CG1] |==|  0.46280
ROOT
ATOM      1  C   THR B 103     -25.521   7.847  -1.718  1.00  4.93 LIG 0.24  C 
ATOM      2 O    THR B 103     -24.466   8.122  -1.145  1.00  4.94 LIG-0.27  OA
ATOM      3  N   LEU B 104     -26.202   6.733  -1.479  1.00  4.18 LIG-0.35  N 
ATOM      4 H    LEU B 104     -26.947   6.530  -1.858  1.00  4.18 LIG 0.16  HD
ENDROOT
BRANCH 3 5
ATOM      5  CA  LEU B 104     -25.717   5.747  -0.526  1.00  5.70 LIG 0.18  C 
BRANCH 5 6
ATOM      6  C   LEU B 104     -26.035   6.188   0.887  1.00  6.53 LIG 0.24  C 
ATOM      7 O    LEU B 104     -26.803   5.530   1.592  1.00  8.21 LIG-0.27  OA
ATOM      8  N   VAL B 105     -25.453   7.305   1.296  1.00  6.80 LIG-0.34  N 
ATOM      9 H    VAL B 105     -24.888   7.753   0.826  1.00  6.80 LIG 0.16  HD
BRANCH 8 10
ATOM     10  CA  VAL B 105     -25.731   7.876   2.606  1.00  6.91 LIG 0.19  C 
BRANCH 10 11
ATOM     11  CB  VAL B 105     -27.241   8.040   2.855  1.00  6.78 LIG 0.01  C 
ATOM     12  CG1 VAL B 105     -27.495   8.947   4.048  1.00  6.96 LIG 0.01  C 
ATOM     13  CG2 VAL B 105     -27.925   8.604   1.612  1.00  7.27 LIG 0.01  C 
ENDBRANCH 10 11
BRANCH 10 14
ATOM     14  C   VAL B 105     -25.139   6.987   3.693  1.00  6.40 LIG 0.20  C 
ATOM     15 OXT  VAL B 105     -25.469   7.145   4.873  1.00  6.01 LIG-0.65  OA
ATOM     16 O    VAL B 105     -24.328   6.088   3.405  1.00  5.94 LIG-0.65  OA
ENDBRANCH 10 14
ENDBRANCH 8 10
ENDBRANCH 5 6
BRANCH 5 17
ATOM     17  CB  LEU B 104     -24.205   5.548  -0.669  1.00  7.33 LIG 0.04  C 
BRANCH 17 18
ATOM     18  CG  LEU B 104     -23.602   4.303  -0.007  1.00 10.28 LIG-0.02  C 
ATOM     19  CD2 LEU B 104     -24.703   3.308   0.362  1.00 13.23 LIG 0.01  C 
ATOM     20  CD1 LEU B 104     -22.754   4.655   1.217  1.00 11.40 LIG 0.01  C 
ENDBRANCH 17 18
ENDBRANCH 5 17
ENDBRANCH 3 5
BRANCH 1 21
ATOM     21  CA  THR B 103     -26.119   8.808  -2.731  1.00  5.29 LIG 0.20  C 
BRANCH 21 22
ATOM     22  CB  THR B 103     -26.065   8.157  -4.123  1.00  5.94 LIG 0.15  C 
ATOM     23  CG2 THR B 103     -27.413   7.520  -4.481  1.00  6.62 LIG 0.04  C 
BRANCH 22 24
ATOM     24 OG1  THR B 103     -25.713   9.144  -5.100  1.00  6.95 LIG-0.39  OA
ATOM     25 HG1  THR B 103     -25.078   9.612  -4.810  1.00  6.95 LIG 0.21  HD
ENDBRANCH 22 24
ENDBRANCH 21 22
BRANCH 21 26
ATOM     26  N   THR B 103     -25.355  10.051  -2.714  1.00  6.31 LIG-0.34  N 
ATOM     27  C   VAL B 102     -25.844  11.173  -2.200  1.00  9.59 LIG 0.26  C 
ATOM     28 O    VAL B 102     -26.970  11.245  -1.718  1.00 11.78 LIG-0.27  OA
ATOM     29 H    THR B 103     -24.572   9.988  -3.063  1.00  6.31 LIG 0.16  HD
BRANCH 27 30
ATOM     30  CA  VAL B 102     -24.931  12.399  -2.249  1.00 12.05 LIG 0.40  C 
ATOM     31  N   VAL B 102     -23.590  12.034  -2.695  1.00 12.38 LIG 0.61  N 
BRANCH 30 32
ATOM     32  CB  VAL B 102     -25.549  13.479  -3.163  1.00 15.16 LIG 0.03  C 
ATOM     33  CG1 VAL B 102     -24.837  14.804  -2.964  1.00 16.31 LIG 0.01  C 
ATOM     34  CG2 VAL B 102     -25.463  13.059  -4.617  1.00 16.97 LIG 0.01  C 
ENDBRANCH 30 32
ENDBRANCH 27 30
ENDBRANCH 21 26
ENDBRANCH 1 21
TORSDOF 13
ENDMDL
MODEL 15
USER: ADFR SOLUTION from run 147
USER: SCORE 12.082376 LL:  -2.371 LR: -10.207 RR:   0.000 FEB:  -6.329
USER: RMSD 8.409603
USER: SEED 146
USER: STATUS no improvement in best in 7 clusters for 5 generations
USER: GENES 15
USER: genes 0 Translation |==|  0.43752 0.48526 0.37553
USER: genes 1 Rotation |==|  0.32269 0.21449 0.15482 0.63377
USER: genes 2 Torsion [C]-N--CA-[C] |==|  0.64551
USER: genes 3 Torsion [N]-CA--C-[N] |==|  0.86360
USER: genes 4 Torsion [C]-N--CA-[CB] |==|  0.26490
USER: genes 5 Torsion [N]-CA--CB-[CG1] |==|  0.53011
USER: genes 6 Torsion [N]-CA--C-[OXT] |==|  0.61632
USER: genes 7 Torsion [N]-CA--CB-[CG] |==|  0.54702
USER: genes 8 Torsion [CA]-CB--CG-[CD1] |==|  0.69683
USER: genes 9 Torsion [N]-C--CA-[N] |==|  0.36614
USER: genes 10 Torsion [C]-CA--CB-[CG2] |==|  0.22183
USER: genes 11 Torsion [CA]-CB--OG1-[HG1] |==|  0.67298
USER: genes 12 Torsion [C]-CA--N-[C] |==|  0.85394
USER: genes 13 Torsion [N]-C--CA-[N] |==|  0.93086
USER: genes 14 Torsion [C]-CA--CB-[CG1] |==|  0.42039
ROOT
ATOM      1  C   THR B 103     -26.343   8.746  -3.061  1.00  4.93 LIG 0.24  C 
ATOM      2 O    THR B 103     -27.208   8.985  -2.216  1.00  4.94 LIG-0.27  OA
ATOM      3  N   LEU B 104     -25.667   9.701  -3.687  1.00  4.18 LIG-0.35  N 
ATOM      4 H    LEU B 104     -25.050   9.556  -4.269  1.00  4.18 LIG 0.16  HD
ENDROOT
BRANCH 3 5
ATOM      5  CA  LEU B 104     -25.932  11.106  -3.424  1.00  5.70 LIG 0.18  C 
BRANCH 5 6
ATOM      6  C   LEU B 104     -26.187  11.840  -4.723  1.00  6.53 LIG 0.24  C 
ATOM      7 O    LEU B 104     -27.172  12.570  -4.850  1.00  8.21 LIG-0.27  OA
ATOM      8  N   VAL B 105     -25.304  11.639  -5.691  1.00  6.80 LIG-0.34  N 
ATOM      9 H    VAL B 105     -24.595  11.161  -5.603  1.00  6.80 LIG 0.16  HD
BRANCH 8 10
ATOM     10  CA  VAL B 105     -25.472  12.228  -7.013  1.00  6.91 LIG 0.19  C 
BRANCH 10 11
ATOM     11  CB  VAL B 105     -24.703  13.554  -7.155  1.00  6.78 LIG 0.01  C 
ATOM     12  CG1 VAL B 105     -25.105  14.274  -8.432  1.00  6.96 LIG 0.01  C 
ATOM     13  CG2 VAL B 105     -24.959  14.448  -5.945  1.00  7.27 LIG 0.01  C 
ENDBRANCH 10 11
BRANCH 10 14
ATOM     14  C   VAL B 105     -24.989  11.252  -8.078  1.00  6.40 LIG 0.20  C 
ATOM     15 OXT  VAL B 105     -24.325  11.659  -9.038  1.00  6.01 LIG-0.65  OA
ATOM     16 O    VAL B 105     -25.247  10.038  -7.990  1.00  5.94 LIG-0.65  OA
ENDBRANCH 10 14
ENDBRANCH 8 10
ENDBRANCH 5 6
BRANCH 5 17
ATOM     17  CB  LEU B 104     -24.752  11.757  -2.695  1.00  7.33 LIG 0.04  C 
BRANCH 17 18
ATOM     18  CG  LEU B 104     -25.019  13.096  -1.998  1.00 10.28 LIG-0.02  C 
ATOM     19  CD2 LEU B 104     -26.523  13.338  -1.863  1.00 13.23 LIG 0.01  C 
ATOM     20  CD1 LEU B 104     -24.342  14.265  -2.717  1.00 11.40 LIG 0.01  C 
ENDBRANCH 17 18
ENDBRANCH 5 17
ENDBRANCH 3 5
BRANCH 1 21
ATOM     21  CA  THR B 103     -25.986   7.313  -3.412  1.00  5.29 LIG 0.20  C 
BRANCH 21 22
ATOM     22  CB  THR B 103     -27.121   6.712  -4.257  1.00  5.94 LIG 0.15  C 
ATOM     23  CG2 THR B 103     -27.013   7.163  -5.718  1.00  6.62 LIG 0.04  C 
BRANCH 22 24
ATOM     24 OG1  THR B 103     -27.069   5.281  -4.179  1.00  6.95 LIG-0.39  OA
ATOM     25 HG1  THR B 103     -26.929   4.964  -4.944  1.00  6.95 LIG 0.21  HD
ENDBRANCH 22 24
ENDBRANCH 21 22
BRANCH 21 26
ATOM     26  N   THR B 103     -25.803   6.554  -2.179  1.00  6.31 LIG-0.34  N 
ATOM     27  C   VAL B 102     -24.989   6.961  -1.213  1.00  9.59 LIG 0.26  C 
ATOM     28 O    VAL B 102     -24.328   7.991  -1.294  1.00 11.78 LIG-0.27  OA
ATOM     29 H    THR B 103     -26.265   5.829  -2.140  1.00  6.31 LIG 0.16  HD
BRANCH 27 30
ATOM     30  CA  VAL B 102     -24.897   6.065   0.023  1.00 12.05 LIG 0.40  C 
ATOM     31  N   VAL B 102     -26.108   5.265   0.179  1.00 12.38 LIG 0.61  N 
BRANCH 30 32
ATOM     32  CB  VAL B 102     -23.643   5.169  -0.068  1.00 15.16 LIG 0.03  C 
ATOM     33  CG1 VAL B 102     -23.140   4.829   1.322  1.00 16.31 LIG 0.01  C 
ATOM     34  CG2 VAL B 102     -23.953   3.897  -0.832  1.00 16.97 LIG 0.01  C 
ENDBRANCH 30 32
ENDBRANCH 27 30
ENDBRANCH 21 26
ENDBRANCH 1 21
TORSDOF 13
ENDMDL
MODEL 16
USER: ADFR SOLUTION from run 93
USER: SCORE 12.535085 LL:  -2.457 LR: -10.208 RR:   0.000 FEB:  -6.330
USER: RMSD 6.691373
USER: SEED 92
USER: STATUS no improvement in best in 12 clusters for 5 generations
USER: GENES 15
USER: genes 0 Translation |==|  0.41996 0.46380 0.67509
USER: genes 1 Rotation |==|  0.61223 0.01479 0.54396 0.50638
USER: genes 2 Torsion [C]-N--CA-[C] |==|  0.80010
USER: genes 3 Torsion [N]-CA--C-[N] |==|  0.91846
USER: genes 4 Torsion [C]-N--CA-[CB] |==|  0.25720
USER: genes 5 Torsion [N]-CA--CB-[CG1] |==|  0.78690
USER: genes 6 Torsion [N]-CA--C-[OXT] |==|  0.36467
USER: genes 7 Torsion [N]-CA--CB-[CG] |==|  0.53550
USER: genes 8 Torsion [CA]-CB--CG-[CD1] |==|  0.75610
USER: genes 9 Torsion [N]-C--CA-[N] |==|  0.43061
USER: genes 10 Torsion [C]-CA--CB-[CG2] |==|  0.68066
USER: genes 11 Torsion [CA]-CB--OG1-[HG1] |==|  0.20903
USER: genes 12 Torsion [C]-CA--N-[C] |==|  0.63772
USER: genes 13 Torsion [N]-C--CA-[N] |==|  0.84609
USER: genes 14 Torsion [C]-CA--CB-[CG1] |==|  0.20097
ROOT
ATOM      1  C   THR B 103     -26.594   8.328   2.332  1.00  4.93 LIG 0.24  C 
ATOM      2 O    THR B 103     -27.579   7.591   2.291  1.00  4.94 LIG-0.27  OA
ATOM      3  N   LEU B 104     -25.773   8.489   1.301  1.00  4.18 LIG-0.35  N 
ATOM      4 H    LEU B 104     -25.088   9.009   1.304  1.00  4.18 LIG 0.16  HD
ENDROOT
BRANCH 3 5
ATOM      5  CA  LEU B 104     -25.984   7.773   0.053  1.00  5.70 LIG 0.18  C 
BRANCH 5 6
ATOM      6  C   LEU B 104     -25.647   6.308   0.232  1.00  6.53 LIG 0.24  C 
ATOM      7 O    LEU B 104     -26.223   5.445  -0.435  1.00  8.21 LIG-0.27  OA
ATOM      8  N   VAL B 105     -24.721   6.027   1.137  1.00  6.80 LIG-0.34  N 
ATOM      9 H    VAL B 105     -24.287   6.622   1.582  1.00  6.80 LIG 0.16  HD
BRANCH 8 10
ATOM     10  CA  VAL B 105     -24.358   4.653   1.456  1.00  6.91 LIG 0.19  C 
BRANCH 10 11
ATOM     11  CB  VAL B 105     -23.170   4.159   0.611  1.00  6.78 LIG 0.01  C 
ATOM     12  CG1 VAL B 105     -23.618   3.820  -0.801  1.00  6.96 LIG 0.01  C 
ATOM     13  CG2 VAL B 105     -22.070   5.217   0.573  1.00  7.27 LIG 0.01  C 
ENDBRANCH 10 11
BRANCH 10 14
ATOM     14  C   VAL B 105     -24.000   4.544   2.934  1.00  6.40 LIG 0.20  C 
ATOM     15 OXT  VAL B 105     -24.493   3.649   3.628  1.00  6.01 LIG-0.65  OA
ATOM     16 O    VAL B 105     -23.203   5.345   3.454  1.00  5.94 LIG-0.65  OA
ENDBRANCH 10 14
ENDBRANCH 8 10
ENDBRANCH 5 6
BRANCH 5 17
ATOM     17  CB  LEU B 104     -25.120   8.361  -1.066  1.00  7.33 LIG 0.04  C 
BRANCH 17 18
ATOM     18  CG  LEU B 104     -25.444   7.921  -2.499  1.00 10.28 LIG-0.02  C 
ATOM     19  CD2 LEU B 104     -26.954   7.751  -2.677  1.00 13.23 LIG 0.01  C 
ATOM     20  CD1 LEU B 104     -24.703   6.641  -2.891  1.00 11.40 LIG 0.01  C 
ENDBRANCH 17 18
ENDBRANCH 5 17
ENDBRANCH 3 5
BRANCH 1 21
ATOM     21  CA  THR B 103     -26.280   9.125   3.585  1.00  5.29 LIG 0.20  C 
BRANCH 21 22
ATOM     22  CB  THR B 103     -25.237   8.356   4.414  1.00  5.94 LIG 0.15  C 
ATOM     23  CG2 THR B 103     -25.828   7.905   5.754  1.00  6.62 LIG 0.04  C 
BRANCH 22 24
ATOM     24 OG1  THR B 103     -24.780   7.219   3.671  1.00  6.95 LIG-0.39  OA
ATOM     25 HG1  THR B 103     -24.255   7.471   3.065  1.00  6.95 LIG 0.21  HD
ENDBRANCH 22 24
ENDBRANCH 21 22
BRANCH 21 26
ATOM     26  N   THR B 103     -27.509   9.311   4.349  1.00  6.31 LIG-0.34  N 
ATOM     27  C   VAL B 102     -27.887  10.501   4.801  1.00  9.59 LIG 0.26  C 
ATOM     28 O    VAL B 102     -27.226  11.519   4.618  1.00 11.78 LIG-0.27  OA
ATOM     29 H    THR B 103     -27.957   8.588   4.477  1.00  6.31 LIG 0.16  HD
BRANCH 27 30
ATOM     30  CA  VAL B 102     -29.199  10.547   5.585  1.00 12.05 LIG 0.40  C 
ATOM     31  N   VAL B 102     -30.295   9.982   4.804  1.00 12.38 LIG 0.61  N 
BRANCH 30 32
ATOM     32  CB  VAL B 102     -29.033   9.809   6.931  1.00 15.16 LIG 0.03  C 
ATOM     33  CG1 VAL B 102     -28.175  10.629   7.876  1.00 16.31 LIG 0.01  C 
ATOM     34  CG2 VAL B 102     -30.386   9.543   7.561  1.00 16.97 LIG 0.01  C 
ENDBRANCH 30 32
ENDBRANCH 27 30
ENDBRANCH 21 26
ENDBRANCH 1 21
TORSDOF 13
ENDMDL
MODEL 17
USER: ADFR SOLUTION from run 52
USER: SCORE 12.407962 LL:  -3.186 LR: -10.200 RR:   0.000 FEB:  -6.322
USER: RMSD 6.435255
USER: SEED 51
USER: STATUS no improvement in best in 11 clusters for 5 generations
USER: GENES 15
USER: genes 0 Translation |==|  0.53662 0.24489 0.65837
USER: genes 1 Rotation |==|  0.45686 0.18022 0.52295 0.88125
USER: genes 2 Torsion [C]-N--CA-[C] |==|  0.21903
USER: genes 3 Torsion [N]-CA--C-[N] |==|  0.95866
USER: genes 4 Torsion [C]-N--CA-[CB] |==|  0.32637
USER: genes 5 Torsion [N]-CA--CB-[CG1] |==|  0.11312
USER: genes 6 Torsion [N]-CA--C-[OXT] |==|  0.30467
USER: genes 7 Torsion [N]-CA--CB-[CG] |==|  0.80858
USER: genes 8 Torsion [CA]-CB--CG-[CD1] |==|  0.08110
USER: genes 9 Torsion [N]-C--CA-[N] |==|  0.15715
USER: genes 10 Torsion [C]-CA--CB-[CG2] |==|  0.49489
USER: genes 11 Torsion [CA]-CB--OG1-[HG1] |==|  0.91708
USER: genes 12 Torsion [C]-CA--N-[C] |==|  0.74444
USER: genes 13 Torsion [N]-C--CA-[N] |==|  0.47585
USER: genes 14 Torsion [C]-CA--CB-[CG1] |==|  0.48291
ROOT
ATOM      1  C   THR B 103     -24.931   4.059   2.031  1.00  4.93 LIG 0.24  C 
ATOM      2 O    THR B 103     -24.878   4.079   3.261  1.00  4.94 LIG-0.27  OA
ATOM      3  N   LEU B 104     -26.070   3.928   1.361  1.00  4.18 LIG-0.35  N 
ATOM      4 H    LEU B 104     -26.129   3.926   0.503  1.00  4.18 LIG 0.16  HD
ENDROOT
BRANCH 3 5
ATOM      5  CA  LEU B 104     -27.337   3.774   2.056  1.00  5.70 LIG 0.18  C 
BRANCH 5 6
ATOM      6  C   LEU B 104     -27.824   5.118   2.555  1.00  6.53 LIG 0.24  C 
ATOM      7 O    LEU B 104     -28.992   5.268   2.919  1.00  8.21 LIG-0.27  OA
ATOM      8  N   VAL B 105     -26.931   6.097   2.563  1.00  6.80 LIG-0.34  N 
ATOM      9 H    VAL B 105     -26.104   5.996   2.346  1.00  6.80 LIG 0.16  HD
BRANCH 8 10
ATOM     10  CA  VAL B 105     -27.289   7.455   2.951  1.00  6.91 LIG 0.19  C 
BRANCH 10 11
ATOM     11  CB  VAL B 105     -26.526   7.917   4.205  1.00  6.78 LIG 0.01  C 
ATOM     12  CG1 VAL B 105     -25.078   7.459   4.153  1.00  6.96 LIG 0.01  C 
ATOM     13  CG2 VAL B 105     -26.592   9.436   4.336  1.00  7.27 LIG 0.01  C 
ENDBRANCH 10 11
BRANCH 10 14
ATOM     14  C   VAL B 105     -26.994   8.414   1.804  1.00  6.40 LIG 0.20  C 
ATOM     15 OXT  VAL B 105     -27.921   8.936   1.177  1.00  6.01 LIG-0.65  OA
ATOM     16 O    VAL B 105     -25.821   8.687   1.492  1.00  5.94 LIG-0.65  OA
ENDBRANCH 10 14
ENDBRANCH 8 10
ENDBRANCH 5 6
BRANCH 5 17
ATOM     17  CB  LEU B 104     -27.196   2.813   3.241  1.00  7.33 LIG 0.04  C 
BRANCH 17 18
ATOM     18  CG  LEU B 104     -26.953   1.334   2.911  1.00 10.28 LIG-0.02  C 
ATOM     19  CD2 LEU B 104     -26.204   0.649   4.055  1.00 13.23 LIG 0.01  C 
ATOM     20  CD1 LEU B 104     -26.208   1.154   1.587  1.00 11.40 LIG 0.01  C 
ENDBRANCH 17 18
ENDBRANCH 5 17
ENDBRANCH 3 5
BRANCH 1 21
ATOM     21  CA  THR B 103     -23.667   4.214   1.204  1.00  5.29 LIG 0.20  C 
BRANCH 21 22
ATOM     22  CB  THR B 103     -22.475   4.417   2.154  1.00  5.94 LIG 0.15  C 
ATOM     23  CG2 THR B 103     -21.164   4.534   1.369  1.00  6.62 LIG 0.04  C 
BRANCH 22 24
ATOM     24 OG1  THR B 103     -22.685   5.599   2.939  1.00  6.95 LIG-0.39  OA
ATOM     25 HG1  THR B 103     -23.143   6.149   2.500  1.00  6.95 LIG 0.21  HD
ENDBRANCH 22 24
ENDBRANCH 21 22
BRANCH 21 26
ATOM     26  N   THR B 103     -23.818   5.361   0.315  1.00  6.31 LIG-0.34  N 
ATOM     27  C   VAL B 102     -24.290   5.240  -0.920  1.00  9.59 LIG 0.26  C 
ATOM     28 O    VAL B 102     -24.618   4.160  -1.401  1.00 11.78 LIG-0.27  OA
ATOM     29 H    THR B 103     -23.576   6.110   0.662  1.00  6.31 LIG 0.16  HD
BRANCH 27 30
ATOM     30  CA  VAL B 102     -24.396   6.528  -1.738  1.00 12.05 LIG 0.40  C 
ATOM     31  N   VAL B 102     -24.729   6.237  -3.129  1.00 12.38 LIG 0.61  N 
BRANCH 30 32
ATOM     32  CB  VAL B 102     -25.436   7.473  -1.099  1.00 15.16 LIG 0.03  C 
ATOM     33  CG1 VAL B 102     -25.437   8.811  -1.815  1.00 16.31 LIG 0.01  C 
ATOM     34  CG2 VAL B 102     -26.819   6.856  -1.154  1.00 16.97 LIG 0.01  C 
ENDBRANCH 30 32
ENDBRANCH 27 30
ENDBRANCH 21 26
ENDBRANCH 1 21
TORSDOF 13
ENDMDL
MODEL 18
USER: ADFR SOLUTION from run 111
USER: SCORE 12.642157 LL:  -2.523 LR: -10.167 RR:   0.000 FEB:  -6.289
USER: RMSD 4.677640
USER: SEED 110
USER: STATUS no improvement in best in 12 clusters for 5 generations
USER: GENES 15
USER: genes 0 Translation |==|  0.46450 0.40481 0.45773
USER: genes 1 Rotation |==|  0.50786 0.76350 0.07861 0.55423
USER: genes 2 Torsion [C]-N--CA-[C] |==|  0.77331
USER: genes 3 Torsion [N]-CA--C-[N] |==|  0.95617
USER: genes 4 Torsion [C]-N--CA-[CB] |==|  0.84467
USER: genes 5 Torsion [N]-CA--CB-[CG1] |==|  0.55895
USER: genes 6 Torsion [N]-CA--C-[OXT] |==|  0.02586
USER: genes 7 Torsion [N]-CA--CB-[CG] |==|  0.25562
USER: genes 8 Torsion [CA]-CB--CG-[CD1] |==|  0.29973
USER: genes 9 Torsion [N]-C--CA-[N] |==|  0.37242
USER: genes 10 Torsion [C]-CA--CB-[CG2] |==|  0.06754
USER: genes 11 Torsion [CA]-CB--OG1-[HG1] |==|  0.06404
USER: genes 12 Torsion [C]-CA--N-[C] |==|  0.85000
USER: genes 13 Torsion [N]-C--CA-[N] |==|  0.70986
USER: genes 14 Torsion [C]-CA--CB-[CG1] |==|  0.22576
ROOT
ATOM      1  C   THR B 103     -25.959   7.178  -1.581  1.00  4.93 LIG 0.24  C 
ATOM      2 O    THR B 103     -27.162   6.929  -1.493  1.00  4.94 LIG-0.27  OA
ATOM      3  N   LEU B 104     -25.028   6.453  -0.973  1.00  4.18 LIG-0.35  N 
ATOM      4 H    LEU B 104     -24.183   6.602  -1.033  1.00  4.18 LIG 0.16  HD
ENDROOT
BRANCH 3 5
ATOM      5  CA  LEU B 104     -25.386   5.320  -0.136  1.00  5.70 LIG 0.18  C 
BRANCH 5 6
ATOM      6  C   LEU B 104     -25.785   5.798   1.244  1.00  6.53 LIG 0.24  C 
ATOM      7 O    LEU B 104     -26.400   5.056   2.013  1.00  8.21 LIG-0.27  OA
ATOM      8  N   VAL B 105     -25.441   7.040   1.554  1.00  6.80 LIG-0.34  N 
ATOM      9 H    VAL B 105     -24.981   7.554   1.041  1.00  6.80 LIG 0.16  HD
BRANCH 8 10
ATOM     10  CA  VAL B 105     -25.828   7.645   2.822  1.00  6.91 LIG 0.19  C 
BRANCH 10 11
ATOM     11  CB  VAL B 105     -27.352   7.608   3.038  1.00  6.78 LIG 0.01  C 
ATOM     12  CG1 VAL B 105     -27.777   8.659   4.050  1.00  6.96 LIG 0.01  C 
ATOM     13  CG2 VAL B 105     -28.080   7.828   1.714  1.00  7.27 LIG 0.01  C 
ENDBRANCH 10 11
BRANCH 10 14
ATOM     14  C   VAL B 105     -25.142   6.916   3.972  1.00  6.40 LIG 0.20  C 
ATOM     15 OXT  VAL B 105     -24.261   6.082   3.740  1.00  6.01 LIG-0.65  OA
ATOM     16 O    VAL B 105     -25.453   7.159   5.152  1.00  5.94 LIG-0.65  OA
ENDBRANCH 10 14
ENDBRANCH 8 10
ENDBRANCH 5 6
BRANCH 5 17
ATOM     17  CB  LEU B 104     -24.215   4.339  -0.016  1.00  7.33 LIG 0.04  C 
BRANCH 17 18
ATOM     18  CG  LEU B 104     -23.261   4.536   1.168  1.00 10.28 LIG-0.02  C 
ATOM     19  CD2 LEU B 104     -21.812   4.600   0.682  1.00 13.23 LIG 0.01  C 
ATOM     20  CD1 LEU B 104     -23.430   3.450   2.232  1.00 11.40 LIG 0.01  C 
ENDBRANCH 17 18
ENDBRANCH 5 17
ENDBRANCH 3 5
BRANCH 1 21
ATOM     21  CA  THR B 103     -25.474   8.339  -2.431  1.00  5.29 LIG 0.20  C 
BRANCH 21 22
ATOM     22  CB  THR B 103     -25.745   9.652  -1.678  1.00  5.94 LIG 0.15  C 
ATOM     23  CG2 THR B 103     -25.830   9.408  -0.167  1.00  6.62 LIG 0.04  C 
BRANCH 22 24
ATOM     24 OG1  THR B 103     -24.703  10.593  -1.966  1.00  6.95 LIG-0.39  OA
ATOM     25 HG1  THR B 103     -24.337  10.392  -2.696  1.00  6.95 LIG 0.21  HD
ENDBRANCH 22 24
ENDBRANCH 21 22
BRANCH 21 26
ATOM     26  N   THR B 103     -26.181   8.321  -3.707  1.00  6.31 LIG-0.34  N 
ATOM     27  C   VAL B 102     -26.207   7.246  -4.485  1.00  9.59 LIG 0.26  C 
ATOM     28 O    VAL B 102     -25.631   6.203  -4.193  1.00 11.78 LIG-0.27  OA
ATOM     29 H    THR B 103     -26.572   9.061  -3.903  1.00  6.31 LIG 0.16  HD
BRANCH 27 30
ATOM     30  CA  VAL B 102     -26.988   7.371  -5.794  1.00 12.05 LIG 0.40  C 
ATOM     31  N   VAL B 102     -28.269   6.675  -5.706  1.00 12.38 LIG 0.61  N 
BRANCH 30 32
ATOM     32  CB  VAL B 102     -27.184   8.860  -6.150  1.00 15.16 LIG 0.03  C 
ATOM     33  CG1 VAL B 102     -25.936   9.409  -6.814  1.00 16.31 LIG 0.01  C 
ATOM     34  CG2 VAL B 102     -28.378   9.035  -7.068  1.00 16.97 LIG 0.01  C 
ENDBRANCH 30 32
ENDBRANCH 27 30
ENDBRANCH 21 26
ENDBRANCH 1 21
TORSDOF 13
ENDMDL
MODEL 19
USER: ADFR SOLUTION from run 32
USER: SCORE 12.198124 LL:  -2.258 LR: -10.171 RR:   0.000 FEB:  -6.293
USER: RMSD 5.003484
USER: SEED 31
USER: STATUS no improvement in best in 11 clusters for 5 generations
USER: GENES 15
USER: genes 0 Translation |==|  0.52195 0.39895 0.48297
USER: genes 1 Rotation |==|  0.45869 0.79858 0.16843 0.72182
USER: genes 2 Torsion [C]-N--CA-[C] |==|  0.77755
USER: genes 3 Torsion [N]-CA--C-[N] |==|  0.30265
USER: genes 4 Torsion [C]-N--CA-[CB] |==|  0.47146
USER: genes 5 Torsion [N]-CA--CB-[CG1] |==|  0.80565
USER: genes 6 Torsion [N]-CA--C-[OXT] |==|  0.57285
USER: genes 7 Torsion [N]-CA--CB-[CG] |==|  0.51933
USER: genes 8 Torsion [CA]-CB--CG-[CD1] |==|  0.39422
USER: genes 9 Torsion [N]-C--CA-[N] |==|  0.43642
USER: genes 10 Torsion [C]-CA--CB-[CG2] |==|  0.83284
USER: genes 11 Torsion [CA]-CB--OG1-[HG1] |==|  0.92709
USER: genes 12 Torsion [C]-CA--N-[C] |==|  0.78738
USER: genes 13 Torsion [N]-C--CA-[N] |==|  0.38924
USER: genes 14 Torsion [C]-CA--CB-[CG1] |==|  0.03580
ROOT
ATOM      1  C   THR B 103     -25.140   7.063  -1.127  1.00  4.93 LIG 0.24  C 
ATOM      2 O    THR B 103     -25.859   6.103  -1.405  1.00  4.94 LIG-0.27  OA
ATOM      3  N   LEU B 104     -24.007   6.942  -0.446  1.00  4.18 LIG-0.35  N 
ATOM      4 H    LEU B 104     -23.485   7.598  -0.253  1.00  4.18 LIG 0.16  HD
ENDROOT
BRANCH 3 5
ATOM      5  CA  LEU B 104     -23.556   5.646   0.036  1.00  5.70 LIG 0.18  C 
BRANCH 5 6
ATOM      6  C   LEU B 104     -24.291   5.281   1.309  1.00  6.53 LIG 0.24  C 
ATOM      7 O    LEU B 104     -24.051   5.871   2.364  1.00  8.21 LIG-0.27  OA
ATOM      8  N   VAL B 105     -25.179   4.303   1.211  1.00  6.80 LIG-0.34  N 
ATOM      9 H    VAL B 105     -25.381   3.909   0.473  1.00  6.80 LIG 0.16  HD
BRANCH 8 10
ATOM     10  CA  VAL B 105     -25.900   3.807   2.375  1.00  6.91 LIG 0.19  C 
BRANCH 10 11
ATOM     11  CB  VAL B 105     -27.047   2.858   1.982  1.00  6.78 LIG 0.01  C 
ATOM     12  CG1 VAL B 105     -28.169   3.624   1.300  1.00  6.96 LIG 0.01  C 
ATOM     13  CG2 VAL B 105     -26.531   1.755   1.063  1.00  7.27 LIG 0.01  C 
ENDBRANCH 10 11
BRANCH 10 14
ATOM     14  C   VAL B 105     -24.940   3.072   3.303  1.00  6.40 LIG 0.20  C 
ATOM     15 OXT  VAL B 105     -25.360   2.189   4.057  1.00  6.01 LIG-0.65  OA
ATOM     16 O    VAL B 105     -23.726   3.346   3.305  1.00  5.94 LIG-0.65  OA
ENDBRANCH 10 14
ENDBRANCH 8 10
ENDBRANCH 5 6
BRANCH 5 17
ATOM     17  CB  LEU B 104     -22.048   5.659   0.305  1.00  7.33 LIG 0.04  C 
BRANCH 17 18
ATOM     18  CG  LEU B 104     -21.394   4.318   0.662  1.00 10.28 LIG-0.02  C 
ATOM     19  CD2 LEU B 104     -21.328   4.144   2.180  1.00 13.23 LIG 0.01  C 
ATOM     20  CD1 LEU B 104     -20.006   4.170   0.036  1.00 11.40 LIG 0.01  C 
ENDBRANCH 17 18
ENDBRANCH 5 17
ENDBRANCH 3 5
BRANCH 1 21
ATOM     21  CA  THR B 103     -25.516   8.462  -1.582  1.00  5.29 LIG 0.20  C 
BRANCH 21 22
ATOM     22  CB  THR B 103     -26.190   9.200  -0.414  1.00  5.94 LIG 0.15  C 
ATOM     23  CG2 THR B 103     -27.458   8.466   0.037  1.00  6.62 LIG 0.04  C 
BRANCH 22 24
ATOM     24 OG1  THR B 103     -25.270   9.308   0.679  1.00  6.95 LIG-0.39  OA
ATOM     25 HG1  THR B 103     -24.712   8.681   0.640  1.00  6.95 LIG 0.21  HD
ENDBRANCH 22 24
ENDBRANCH 21 22
BRANCH 21 26
ATOM     26  N   THR B 103     -26.423   8.363  -2.721  1.00  6.31 LIG-0.34  N 
ATOM     27  C   VAL B 102     -25.994   8.061  -3.941  1.00  9.59 LIG 0.26  C 
ATOM     28 O    VAL B 102     -24.812   7.859  -4.196  1.00 11.78 LIG-0.27  OA
ATOM     29 H    THR B 103     -27.247   8.516  -2.529  1.00  6.31 LIG 0.16  HD
BRANCH 27 30
ATOM     30  CA  VAL B 102     -27.057   7.991  -5.038  1.00 12.05 LIG 0.40  C 
ATOM     31  N   VAL B 102     -26.565   8.574  -6.282  1.00 12.38 LIG 0.61  N 
BRANCH 30 32
ATOM     32  CB  VAL B 102     -27.504   6.527  -5.245  1.00 15.16 LIG 0.03  C 
ATOM     33  CG1 VAL B 102     -27.002   5.660  -4.107  1.00 16.31 LIG 0.01  C 
ATOM     34  CG2 VAL B 102     -29.015   6.440  -5.335  1.00 16.97 LIG 0.01  C 
ENDBRANCH 30 32
ENDBRANCH 27 30
ENDBRANCH 21 26
ENDBRANCH 1 21
TORSDOF 13
ENDMDL
MODEL 20
USER: ADFR SOLUTION from run 125
USER: SCORE 12.021812 LL:  -2.471 LR: -10.118 RR:   0.000 FEB:  -6.240
USER: RMSD 2.952759
USER: SEED 124
USER: STATUS no improvement in best in 17 clusters for 5 generations
USER: GENES 15
USER: genes 0 Translation |==|  0.50516 0.44559 0.49933
USER: genes 1 Rotation |==|  0.43504 0.46913 0.76321 0.91899
USER: genes 2 Torsion [C]-N--CA-[C] |==|  0.63338
USER: genes 3 Torsion [N]-CA--C-[N] |==|  0.90738
USER: genes 4 Torsion [C]-N--CA-[CB] |==|  0.46856
USER: genes 5 Torsion [N]-CA--CB-[CG1] |==|  0.21492
USER: genes 6 Torsion [N]-CA--C-[OXT] |==|  0.95041
USER: genes 7 Torsion [N]-CA--CB-[CG] |==|  0.57349
USER: genes 8 Torsion [CA]-CB--CG-[CD1] |==|  0.67728
USER: genes 9 Torsion [N]-C--CA-[N] |==|  0.41987
USER: genes 10 Torsion [C]-CA--CB-[CG2] |==|  0.19431
USER: genes 11 Torsion [CA]-CB--OG1-[HG1] |==|  0.59180
USER: genes 12 Torsion [C]-CA--N-[C] |==|  0.70032
USER: genes 13 Torsion [N]-C--CA-[N] |==|  0.85712
USER: genes 14 Torsion [C]-CA--CB-[CG1] |==|  0.18188
ROOT
ATOM      1  C   THR B 103     -25.380   7.973  -0.832  1.00  4.93 LIG 0.24  C 
ATOM      2 O    THR B 103     -24.705   8.989  -0.663  1.00  4.94 LIG-0.27  OA
ATOM      3  N   LEU B 104     -25.962   7.321   0.167  1.00  4.18 LIG-0.35  N 
ATOM      4 H    LEU B 104     -26.447   6.618   0.069  1.00  4.18 LIG 0.16  HD
ENDROOT
BRANCH 3 5
ATOM      5  CA  LEU B 104     -25.812   7.767   1.543  1.00  5.70 LIG 0.18  C 
BRANCH 5 6
ATOM      6  C   LEU B 104     -25.446   6.597   2.432  1.00  6.53 LIG 0.24  C 
ATOM      7 O    LEU B 104     -24.703   6.754   3.403  1.00  8.21 LIG-0.27  OA
ATOM      8  N   VAL B 105     -25.960   5.423   2.094  1.00  6.80 LIG-0.34  N 
ATOM      9 H    VAL B 105     -26.507   5.308   1.441  1.00  6.80 LIG 0.16  HD
BRANCH 8 10
ATOM     10  CA  VAL B 105     -25.628   4.206   2.823  1.00  6.91 LIG 0.19  C 
BRANCH 10 11
ATOM     11  CB  VAL B 105     -26.546   3.033   2.435  1.00  6.78 LIG 0.01  C 
ATOM     12  CG1 VAL B 105     -26.132   2.447   1.095  1.00  6.96 LIG 0.01  C 
ATOM     13  CG2 VAL B 105     -26.512   1.953   3.513  1.00  7.27 LIG 0.01  C 
ENDBRANCH 10 11
BRANCH 10 14
ATOM     14  C   VAL B 105     -24.179   3.819   2.549  1.00  6.40 LIG 0.20  C 
ATOM     15 OXT  VAL B 105     -23.584   4.292   1.575  1.00  6.01 LIG-0.65  OA
ATOM     16 O    VAL B 105     -23.579   3.035   3.305  1.00  5.94 LIG-0.65  OA
ENDBRANCH 10 14
ENDBRANCH 8 10
ENDBRANCH 5 6
BRANCH 5 17
ATOM     17  CB  LEU B 104     -27.106   8.407   2.053  1.00  7.33 LIG 0.04  C 
BRANCH 17 18
ATOM     18  CG  LEU B 104     -26.973   9.448   3.171  1.00 10.28 LIG-0.02  C 
ATOM     19  CD2 LEU B 104     -25.501   9.778   3.422  1.00 13.23 LIG 0.01  C 
ATOM     20  CD1 LEU B 104     -27.657   8.996   4.463  1.00 11.40 LIG 0.01  C 
ENDBRANCH 17 18
ENDBRANCH 5 17
ENDBRANCH 3 5
BRANCH 1 21
ATOM     21  CA  THR B 103     -25.602   7.421  -2.229  1.00  5.29 LIG 0.20  C 
BRANCH 21 22
ATOM     22  CB  THR B 103     -24.520   6.368  -2.524  1.00  5.94 LIG 0.15  C 
ATOM     23  CG2 THR B 103     -24.739   5.109  -1.678  1.00  6.62 LIG 0.04  C 
BRANCH 22 24
ATOM     24 OG1  THR B 103     -24.545   6.034  -3.918  1.00  6.95 LIG-0.39  OA
ATOM     25 HG1  THR B 103     -24.335   5.226  -4.016  1.00  6.95 LIG 0.21  HD
ENDBRANCH 22 24
ENDBRANCH 21 22
BRANCH 21 26
ATOM     26  N   THR B 103     -25.530   8.517  -3.189  1.00  6.31 LIG-0.34  N 
ATOM     27  C   VAL B 102     -26.607   8.986  -3.808  1.00  9.59 LIG 0.26  C 
ATOM     28 O    VAL B 102     -27.728   8.525  -3.626  1.00 11.78 LIG-0.27  OA
ATOM     29 H    THR B 103     -24.736   8.824  -3.314  1.00  6.31 LIG 0.16  HD
BRANCH 27 30
ATOM     30  CA  VAL B 102     -26.381  10.138  -4.788  1.00 12.05 LIG 0.40  C 
ATOM     31  N   VAL B 102     -25.620  11.215  -4.162  1.00 12.38 LIG 0.61  N 
BRANCH 30 32
ATOM     32  CB  VAL B 102     -25.673   9.618  -6.058  1.00 15.16 LIG 0.03  C 
ATOM     33  CG1 VAL B 102     -26.578   8.658  -6.807  1.00 16.31 LIG 0.01  C 
ATOM     34  CG2 VAL B 102     -25.285  10.773  -6.960  1.00 16.97 LIG 0.01  C 
ENDBRANCH 30 32
ENDBRANCH 27 30
ENDBRANCH 21 26
ENDBRANCH 1 21
TORSDOF 13
ENDMDL
MODEL 21
USER: ADFR SOLUTION from run 78
USER: SCORE 12.529318 LL:  -3.095 LR: -10.123 RR:   0.000 FEB:  -6.245
USER: RMSD 5.461917
USER: SEED 77
USER: STATUS no improvement in best in 15 clusters for 5 generations
USER: GENES 15
USER: genes 0 Translation |==|  0.41153 0.41281 0.50177
USER: genes 1 Rotation |==|  0.46000 0.92645 0.25521 0.58135
USER: genes 2 Torsion [C]-N--CA-[C] |==|  0.64728
USER: genes 3 Torsion [N]-CA--C-[N] |==|  0.06989
USER: genes 4 Torsion [C]-N--CA-[CB] |==|  0.25753
USER: genes 5 Torsion [N]-CA--CB-[CG1] |==|  0.60852
USER: genes 6 Torsion [N]-CA--C-[OXT] |==|  0.28040
USER: genes 7 Torsion [N]-CA--CB-[CG] |==|  0.85632
USER: genes 8 Torsion [CA]-CB--CG-[CD1] |==|  0.87508
USER: genes 9 Torsion [N]-C--CA-[N] |==|  0.83889
USER: genes 10 Torsion [C]-CA--CB-[CG2] |==|  0.47395
USER: genes 11 Torsion [CA]-CB--OG1-[HG1] |==|  0.43787
USER: genes 12 Torsion [C]-CA--N-[C] |==|  0.67559
USER: genes 13 Torsion [N]-C--CA-[N] |==|  0.39779
USER: genes 14 Torsion [C]-CA--CB-[CG1] |==|  0.66316
ROOT
ATOM      1  C   THR B 103     -26.714   7.334  -0.788  1.00  4.93 LIG 0.24  C 
ATOM      2 O    THR B 103     -27.787   6.744  -0.917  1.00  4.94 LIG-0.27  OA
ATOM      3  N   LEU B 104     -25.543   6.761  -1.040  1.00  4.18 LIG-0.35  N 
ATOM      4 H    LEU B 104     -24.784   7.159  -0.970  1.00  4.18 LIG 0.16  HD
ENDROOT
BRANCH 3 5
ATOM      5  CA  LEU B 104     -25.462   5.374  -1.467  1.00  5.70 LIG 0.18  C 
BRANCH 5 6
ATOM      6  C   LEU B 104     -24.509   4.609  -0.574  1.00  6.53 LIG 0.24  C 
ATOM      7 O    LEU B 104     -23.942   3.594  -0.983  1.00  8.21 LIG-0.27  OA
ATOM      8  N   VAL B 105     -24.340   5.091   0.649  1.00  6.80 LIG-0.34  N 
ATOM      9 H    VAL B 105     -24.701   5.818   0.933  1.00  6.80 LIG 0.16  HD
BRANCH 8 10
ATOM     10  CA  VAL B 105     -23.506   4.410   1.630  1.00  6.91 LIG 0.19  C 
BRANCH 10 11
ATOM     11  CB  VAL B 105     -22.057   4.928   1.615  1.00  6.78 LIG 0.01  C 
ATOM     12  CG1 VAL B 105     -21.074   3.784   1.804  1.00  6.96 LIG 0.01  C 
ATOM     13  CG2 VAL B 105     -21.768   5.657   0.305  1.00  7.27 LIG 0.01  C 
ENDBRANCH 10 11
BRANCH 10 14
ATOM     14  C   VAL B 105     -24.091   4.600   3.025  1.00  6.40 LIG 0.20  C 
ATOM     15 OXT  VAL B 105     -24.748   3.696   3.550  1.00  6.01 LIG-0.65  OA
ATOM     16 O    VAL B 105     -23.906   5.659   3.651  1.00  5.94 LIG-0.65  OA
ENDBRANCH 10 14
ENDBRANCH 8 10
ENDBRANCH 5 6
BRANCH 5 17
ATOM     17  CB  LEU B 104     -24.986   5.277  -2.920  1.00  7.33 LIG 0.04  C 
BRANCH 17 18
ATOM     18  CG  LEU B 104     -25.739   6.121  -3.956  1.00 10.28 LIG-0.02  C 
ATOM     19  CD2 LEU B 104     -25.269   7.576  -3.901  1.00 13.23 LIG 0.01  C 
ATOM     20  CD1 LEU B 104     -27.256   6.032  -3.780  1.00 11.40 LIG 0.01  C 
ENDBRANCH 17 18
ENDBRANCH 5 17
ENDBRANCH 3 5
BRANCH 1 21
ATOM     21  CA  THR B 103     -26.682   8.787  -0.349  1.00  5.29 LIG 0.20  C 
BRANCH 21 22
ATOM     22  CB  THR B 103     -26.090   9.636  -1.485  1.00  5.94 LIG 0.15  C 
ATOM     23  CG2 THR B 103     -26.247  11.132  -1.189  1.00  6.62 LIG 0.04  C 
BRANCH 22 24
ATOM     24 OG1  THR B 103     -24.704   9.312  -1.653  1.00  6.95 LIG-0.39  OA
ATOM     25 HG1  THR B 103     -24.458   9.522  -2.429  1.00  6.95 LIG 0.21  HD
ENDBRANCH 22 24
ENDBRANCH 21 22
BRANCH 21 26
ATOM     26  N   THR B 103     -25.868   8.900   0.857  1.00  6.31 LIG-0.34  N 
ATOM     27  C   VAL B 102     -26.375   9.301   2.017  1.00  9.59 LIG 0.26  C 
ATOM     28 O    VAL B 102     -27.553   9.614   2.151  1.00 11.78 LIG-0.27  OA
ATOM     29 H    THR B 103     -25.042   8.686   0.746  1.00  6.31 LIG 0.16  HD
BRANCH 27 30
ATOM     30  CA  VAL B 102     -25.404   9.371   3.196  1.00 12.05 LIG 0.40  C 
ATOM     31  N   VAL B 102     -25.707  10.512   4.055  1.00 12.38 LIG 0.61  N 
BRANCH 30 32
ATOM     32  CB  VAL B 102     -25.445   8.048   3.991  1.00 15.16 LIG 0.03  C 
ATOM     33  CG1 VAL B 102     -25.839   8.312   5.431  1.00 16.31 LIG 0.01  C 
ATOM     34  CG2 VAL B 102     -26.422   7.077   3.357  1.00 16.97 LIG 0.01  C 
ENDBRANCH 30 32
ENDBRANCH 27 30
ENDBRANCH 21 26
ENDBRANCH 1 21
TORSDOF 13
ENDMDL
MODEL 22
USER: ADFR SOLUTION from run 198
USER: SCORE 12.407242 LL:  -2.822 LR: -10.085 RR:   0.000 FEB:  -6.207
USER: RMSD 7.597863
USER: SEED 197
USER: STATUS no improvement in best in 14 clusters for 5 generations
USER: GENES 15
USER: genes 0 Translation |==|  0.42564 0.42002 0.67978
USER: genes 1 Rotation |==|  0.45173 0.02853 0.34681 0.54379
USER: genes 2 Torsion [C]-N--CA-[C] |==|  0.58613
USER: genes 3 Torsion [N]-CA--C-[N] |==|  0.42053
USER: genes 4 Torsion [C]-N--CA-[CB] |==|  0.27001
USER: genes 5 Torsion [N]-CA--CB-[CG1] |==|  0.82062
USER: genes 6 Torsion [N]-CA--C-[OXT] |==|  0.52855
USER: genes 7 Torsion [N]-CA--CB-[CG] |==|  0.47580
USER: genes 8 Torsion [CA]-CB--CG-[CD1] |==|  0.39570
USER: genes 9 Torsion [N]-C--CA-[N] |==|  0.91698
USER: genes 10 Torsion [C]-CA--CB-[CG2] |==|  0.03218
USER: genes 11 Torsion [CA]-CB--OG1-[HG1] |==|  0.84653
USER: genes 12 Torsion [C]-CA--N-[C] |==|  0.67778
USER: genes 13 Torsion [N]-C--CA-[N] |==|  0.53464
USER: genes 14 Torsion [C]-CA--CB-[CG1] |==|  0.50546
ROOT
ATOM      1  C   THR B 103     -26.513   7.474   2.416  1.00  4.93 LIG 0.24  C 
ATOM      2 O    THR B 103     -27.741   7.552   2.443  1.00  4.94 LIG-0.27  OA
ATOM      3  N   LEU B 104     -25.785   7.918   1.398  1.00  4.18 LIG-0.35  N 
ATOM      4 H    LEU B 104     -24.926   7.886   1.367  1.00  4.18 LIG 0.16  HD
ENDROOT
BRANCH 3 5
ATOM      5  CA  LEU B 104     -26.413   8.510   0.228  1.00  5.70 LIG 0.18  C 
BRANCH 5 6
ATOM      6  C   LEU B 104     -25.577   8.238  -1.004  1.00  6.53 LIG 0.24  C 
ATOM      7 O    LEU B 104     -24.355   8.099  -0.916  1.00  8.21 LIG-0.27  OA
ATOM      8  N   VAL B 105     -26.233   8.171  -2.153  1.00  6.80 LIG-0.34  N 
ATOM      9 H    VAL B 105     -27.088   8.230  -2.223  1.00  6.80 LIG 0.16  HD
BRANCH 8 10
ATOM     10  CA  VAL B 105     -25.538   7.987  -3.420  1.00  6.91 LIG 0.19  C 
BRANCH 10 11
ATOM     11  CB  VAL B 105     -25.529   6.513  -3.864  1.00  6.78 LIG 0.01  C 
ATOM     12  CG1 VAL B 105     -24.736   5.662  -2.886  1.00  6.96 LIG 0.01  C 
ATOM     13  CG2 VAL B 105     -26.957   5.985  -3.981  1.00  7.27 LIG 0.01  C 
ENDBRANCH 10 11
BRANCH 10 14
ATOM     14  C   VAL B 105     -26.204   8.830  -4.501  1.00  6.40 LIG 0.20  C 
ATOM     15 OXT  VAL B 105     -25.892   8.678  -5.687  1.00  6.01 LIG-0.65  OA
ATOM     16 O    VAL B 105     -27.071   9.672  -4.205  1.00  5.94 LIG-0.65  OA
ENDBRANCH 10 14
ENDBRANCH 8 10
ENDBRANCH 5 6
BRANCH 5 17
ATOM     17  CB  LEU B 104     -26.582  10.022   0.405  1.00  7.33 LIG 0.04  C 
BRANCH 17 18
ATOM     18  CG  LEU B 104     -27.040  10.819  -0.823  1.00 10.28 LIG-0.02  C 
ATOM     19  CD2 LEU B 104     -25.832  11.365  -1.586  1.00 13.23 LIG 0.01  C 
ATOM     20  CD1 LEU B 104     -28.004  11.947  -0.451  1.00 11.40 LIG 0.01  C 
ENDBRANCH 17 18
ENDBRANCH 5 17
ENDBRANCH 3 5
BRANCH 1 21
ATOM     21  CA  THR B 103     -25.754   6.875   3.587  1.00  5.29 LIG 0.20  C 
BRANCH 21 22
ATOM     22  CB  THR B 103     -25.453   7.988   4.605  1.00  5.94 LIG 0.15  C 
ATOM     23  CG2 THR B 103     -26.242   9.260   4.273  1.00  6.62 LIG 0.04  C 
BRANCH 22 24
ATOM     24 OG1  THR B 103     -25.785   7.534   5.923  1.00  6.95 LIG-0.39  OA
ATOM     25 HG1  THR B 103     -26.585   7.277   5.938  1.00  6.95 LIG 0.21  HD
ENDBRANCH 22 24
ENDBRANCH 21 22
BRANCH 21 26
ATOM     26  N   THR B 103     -24.517   6.278   3.095  1.00  6.31 LIG-0.34  N 
ATOM     27  C   VAL B 102     -24.280   4.974   3.177  1.00  9.59 LIG 0.26  C 
ATOM     28 O    VAL B 102     -25.075   4.188   3.680  1.00 11.78 LIG-0.27  OA
ATOM     29 H    THR B 103     -23.965   6.843   2.754  1.00  6.31 LIG 0.16  HD
BRANCH 27 30
ATOM     30  CA  VAL B 102     -22.941   4.489   2.620  1.00 12.05 LIG 0.40  C 
ATOM     31  N   VAL B 102     -22.923   3.035   2.498  1.00 12.38 LIG 0.61  N 
BRANCH 30 32
ATOM     32  CB  VAL B 102     -22.659   5.168   1.262  1.00 15.16 LIG 0.03  C 
ATOM     33  CG1 VAL B 102     -21.355   4.655   0.680  1.00 16.31 LIG 0.01  C 
ATOM     34  CG2 VAL B 102     -23.795   4.909   0.292  1.00 16.97 LIG 0.01  C 
ENDBRANCH 30 32
ENDBRANCH 27 30
ENDBRANCH 21 26
ENDBRANCH 1 21
TORSDOF 13
ENDMDL
MODEL 23
USER: ADFR SOLUTION from run 120
USER: SCORE 13.286226 LL:  -3.338 LR: -10.062 RR:   0.000 FEB:  -6.184
USER: RMSD 7.233126
USER: SEED 119
USER: STATUS no improvement in best in 6 clusters for 5 generations
USER: GENES 15
USER: genes 0 Translation |==|  0.42240 0.39831 0.69197
USER: genes 1 Rotation |==|  0.43365 0.01446 0.44943 0.58539
USER: genes 2 Torsion [C]-N--CA-[C] |==|  0.80797
USER: genes 3 Torsion [N]-CA--C-[N] |==|  0.96414
USER: genes 4 Torsion [C]-N--CA-[CB] |==|  0.47054
USER: genes 5 Torsion [N]-CA--CB-[CG1] |==|  0.87126
USER: genes 6 Torsion [N]-CA--C-[OXT] |==|  0.89592
USER: genes 7 Torsion [N]-CA--CB-[CG] |==|  0.30385
USER: genes 8 Torsion [CA]-CB--CG-[CD1] |==|  0.27675
USER: genes 9 Torsion [N]-C--CA-[N] |==|  0.93561
USER: genes 10 Torsion [C]-CA--CB-[CG2] |==|  0.95215
USER: genes 11 Torsion [CA]-CB--OG1-[HG1] |==|  0.96869
USER: genes 12 Torsion [C]-CA--N-[C] |==|  0.75225
USER: genes 13 Torsion [N]-C--CA-[N] |==|  0.52014
USER: genes 14 Torsion [C]-CA--CB-[CG1] |==|  0.50975
ROOT
ATOM      1  C   THR B 103     -26.559   7.051   2.636  1.00  4.93 LIG 0.24  C 
ATOM      2 O    THR B 103     -27.759   7.156   2.892  1.00  4.94 LIG-0.27  OA
ATOM      3  N   LEU B 104     -26.085   7.053   1.396  1.00  4.18 LIG-0.35  N 
ATOM      4 H    LEU B 104     -25.250   6.995   1.197  1.00  4.18 LIG 0.16  HD
ENDROOT
BRANCH 3 5
ATOM      5  CA  LEU B 104     -26.975   7.157   0.251  1.00  5.70 LIG 0.18  C 
BRANCH 5 6
ATOM      6  C   LEU B 104     -27.794   5.891   0.113  1.00  6.53 LIG 0.24  C 
ATOM      7 O    LEU B 104     -28.776   5.856  -0.632  1.00  8.21 LIG-0.27  OA
ATOM      8  N   VAL B 105     -27.396   4.855   0.836  1.00  6.80 LIG-0.34  N 
ATOM      9 H    VAL B 105     -26.692   4.856   1.331  1.00  6.80 LIG 0.16  HD
BRANCH 8 10
ATOM     10  CA  VAL B 105     -28.138   3.602   0.849  1.00  6.91 LIG 0.19  C 
BRANCH 10 11
ATOM     11  CB  VAL B 105     -27.354   2.474   1.544  1.00  6.78 LIG 0.01  C 
ATOM     12  CG1 VAL B 105     -25.916   2.439   1.055  1.00  6.96 LIG 0.01  C 
ATOM     13  CG2 VAL B 105     -27.390   2.658   3.058  1.00  7.27 LIG 0.01  C 
ENDBRANCH 10 11
BRANCH 10 14
ATOM     14  C   VAL B 105     -29.470   3.799   1.564  1.00  6.40 LIG 0.20  C 
ATOM     15 OXT  VAL B 105     -29.540   4.534   2.555  1.00  6.01 LIG-0.65  OA
ATOM     16 O    VAL B 105     -30.499   3.232   1.156  1.00  5.94 LIG-0.65  OA
ENDBRANCH 10 14
ENDBRANCH 8 10
ENDBRANCH 5 6
BRANCH 5 17
ATOM     17  CB  LEU B 104     -26.182   7.393  -1.038  1.00  7.33 LIG 0.04  C 
BRANCH 17 18
ATOM     18  CG  LEU B 104     -26.124   6.234  -2.041  1.00 10.28 LIG-0.02  C 
ATOM     19  CD2 LEU B 104     -24.703   6.066  -2.581  1.00 13.23 LIG 0.01  C 
ATOM     20  CD1 LEU B 104     -27.124   6.413  -3.185  1.00 11.40 LIG 0.01  C 
ENDBRANCH 17 18
ENDBRANCH 5 17
ENDBRANCH 3 5
BRANCH 1 21
ATOM     21  CA  THR B 103     -25.540   6.938   3.756  1.00  5.29 LIG 0.20  C 
BRANCH 21 22
ATOM     22  CB  THR B 103     -25.239   8.346   4.296  1.00  5.94 LIG 0.15  C 
ATOM     23  CG2 THR B 103     -25.695   9.421   3.304  1.00  6.62 LIG 0.04  C 
BRANCH 22 24
ATOM     24 OG1  THR B 103     -25.899   8.527   5.555  1.00  6.95 LIG-0.39  OA
ATOM     25 HG1  THR B 103     -26.441   7.897   5.681  1.00  6.95 LIG 0.21  HD
ENDBRANCH 22 24
ENDBRANCH 21 22
BRANCH 21 26
ATOM     26  N   THR B 103     -24.328   6.315   3.234  1.00  6.31 LIG-0.34  N 
ATOM     27  C   VAL B 102     -24.153   4.999   3.233  1.00  9.59 LIG 0.26  C 
ATOM     28 O    VAL B 102     -24.989   4.221   3.680  1.00 11.78 LIG-0.27  OA
ATOM     29 H    THR B 103     -23.747   6.874   2.932  1.00  6.31 LIG 0.16  HD
BRANCH 27 30
ATOM     30  CA  VAL B 102     -22.834   4.488   2.654  1.00 12.05 LIG 0.40  C 
ATOM     31  N   VAL B 102     -22.837   3.032   2.554  1.00 12.38 LIG 0.61  N 
BRANCH 30 32
ATOM     32  CB  VAL B 102     -22.574   5.142   1.280  1.00 15.16 LIG 0.03  C 
ATOM     33  CG1 VAL B 102     -21.311   4.575   0.660  1.00 16.31 LIG 0.01  C 
ATOM     34  CG2 VAL B 102     -23.751   4.916   0.352  1.00 16.97 LIG 0.01  C 
ENDBRANCH 30 32
ENDBRANCH 27 30
ENDBRANCH 21 26
ENDBRANCH 1 21
TORSDOF 13
ENDMDL
MODEL 24
USER: ADFR SOLUTION from run 154
USER: SCORE 11.421470 LL:  -2.132 LR: -10.046 RR:   0.000 FEB:  -6.168
USER: RMSD 8.699029
USER: SEED 153
USER: STATUS no improvement in best in 10 clusters for 5 generations
USER: GENES 15
USER: genes 0 Translation |==|  0.53992 0.29104 0.54589
USER: genes 1 Rotation |==|  0.10699 0.77252 0.64232 0.53190
USER: genes 2 Torsion [C]-N--CA-[C] |==|  0.60919
USER: genes 3 Torsion [N]-CA--C-[N] |==|  0.83585
USER: genes 4 Torsion [C]-N--CA-[CB] |==|  0.15634
USER: genes 5 Torsion [N]-CA--CB-[CG1] |==|  0.21661
USER: genes 6 Torsion [N]-CA--C-[OXT] |==|  0.99756
USER: genes 7 Torsion [N]-CA--CB-[CG] |==|  0.58171
USER: genes 8 Torsion [CA]-CB--CG-[CD1] |==|  0.47900
USER: genes 9 Torsion [N]-C--CA-[N] |==|  0.35577
USER: genes 10 Torsion [C]-CA--CB-[CG2] |==|  0.02543
USER: genes 11 Torsion [CA]-CB--OG1-[HG1] |==|  0.76964
USER: genes 12 Torsion [C]-CA--N-[C] |==|  0.71422
USER: genes 13 Torsion [N]-C--CA-[N] |==|  0.92151
USER: genes 14 Torsion [C]-CA--CB-[CG1] |==|  0.27939
ROOT
ATOM      1  C   THR B 103     -24.884   4.959   0.006  1.00  4.93 LIG 0.24  C 
ATOM      2 O    THR B 103     -24.459   4.121  -0.789  1.00  4.94 LIG-0.27  OA
ATOM      3  N   LEU B 104     -25.432   6.105  -0.380  1.00  4.18 LIG-0.35  N 
ATOM      4 H    LEU B 104     -25.747   6.697   0.159  1.00  4.18 LIG 0.16  HD
ENDROOT
BRANCH 3 5
ATOM      5  CA  LEU B 104     -25.541   6.448  -1.789  1.00  5.70 LIG 0.18  C 
BRANCH 5 6
ATOM      6  C   LEU B 104     -25.254   7.921  -1.989  1.00  6.53 LIG 0.24  C 
ATOM      7 O    LEU B 104     -24.328   8.288  -2.715  1.00  8.21 LIG-0.27  OA
ATOM      8  N   VAL B 105     -26.042   8.764  -1.338  1.00  6.80 LIG-0.34  N 
ATOM      9 H    VAL B 105     -26.713   8.522  -0.857  1.00  6.80 LIG 0.16  HD
BRANCH 8 10
ATOM     10  CA  VAL B 105     -25.827  10.204  -1.387  1.00  6.91 LIG 0.19  C 
BRANCH 10 11
ATOM     11  CB  VAL B 105     -25.823  10.737  -2.831  1.00  6.78 LIG 0.01  C 
ATOM     12  CG1 VAL B 105     -27.242  10.858  -3.363  1.00  6.96 LIG 0.01  C 
ATOM     13  CG2 VAL B 105     -25.122  12.092  -2.894  1.00  7.27 LIG 0.01  C 
ENDBRANCH 10 11
BRANCH 10 14
ATOM     14  C   VAL B 105     -26.916  10.916  -0.593  1.00  6.40 LIG 0.20  C 
ATOM     15 OXT  VAL B 105     -27.810  10.264  -0.045  1.00  6.01 LIG-0.65  OA
ATOM     16 O    VAL B 105     -26.911  12.155  -0.481  1.00  5.94 LIG-0.65  OA
ENDBRANCH 10 14
ENDBRANCH 8 10
ENDBRANCH 5 6
BRANCH 5 17
ATOM     17  CB  LEU B 104     -26.941   6.126  -2.322  1.00  7.33 LIG 0.04  C 
BRANCH 17 18
ATOM     18  CG  LEU B 104     -27.051   5.759  -3.807  1.00 10.28 LIG-0.02  C 
ATOM     19  CD2 LEU B 104     -26.629   6.940  -4.682  1.00 13.23 LIG 0.01  C 
ATOM     20  CD1 LEU B 104     -28.456   5.280  -4.180  1.00 11.40 LIG 0.01  C 
ENDBRANCH 17 18
ENDBRANCH 5 17
ENDBRANCH 3 5
BRANCH 1 21
ATOM     21  CA  THR B 103     -24.821   4.703   1.501  1.00  5.29 LIG 0.20  C 
BRANCH 21 22
ATOM     22  CB  THR B 103     -23.352   4.756   1.952  1.00  5.94 LIG 0.15  C 
ATOM     23  CG2 THR B 103     -22.452   5.268   0.822  1.00  6.62 LIG 0.04  C 
BRANCH 22 24
ATOM     24 OG1  THR B 103     -23.234   5.608   3.099  1.00  6.95 LIG-0.39  OA
ATOM     25 HG1  THR B 103     -23.185   6.409   2.850  1.00  6.95 LIG 0.21  HD
ENDBRANCH 22 24
ENDBRANCH 21 22
BRANCH 21 26
ATOM     26  N   THR B 103     -25.399   3.393   1.782  1.00  6.31 LIG-0.34  N 
ATOM     27  C   VAL B 102     -26.621   3.252   2.284  1.00  9.59 LIG 0.26  C 
ATOM     28 O    VAL B 102     -27.339   4.208   2.555  1.00 11.78 LIG-0.27  OA
ATOM     29 H    THR B 103     -24.881   2.732   1.596  1.00  6.31 LIG 0.16  HD
BRANCH 27 30
ATOM     30  CA  VAL B 102     -27.096   1.819   2.526  1.00 12.05 LIG 0.40  C 
ATOM     31  N   VAL B 102     -26.454   0.891   1.600  1.00 12.38 LIG 0.61  N 
BRANCH 30 32
ATOM     32  CB  VAL B 102     -26.832   1.418   3.993  1.00 15.16 LIG 0.03  C 
ATOM     33  CG1 VAL B 102     -28.109   1.526   4.805  1.00 16.31 LIG 0.01  C 
ATOM     34  CG2 VAL B 102     -26.290   0.004   4.068  1.00 16.97 LIG 0.01  C 
ENDBRANCH 30 32
ENDBRANCH 27 30
ENDBRANCH 21 26
ENDBRANCH 1 21
TORSDOF 13
ENDMDL
MODEL 25
USER: ADFR SOLUTION from run 179
USER: SCORE 11.997824 LL:  -2.257 LR: -10.038 RR:   0.000 FEB:  -6.160
USER: RMSD 8.365896
USER: SEED 178
USER: STATUS no improvement in best in 6 clusters for 5 generations
USER: GENES 15
USER: genes 0 Translation |==|  0.51367 0.43019 0.49394
USER: genes 1 Rotation |==|  0.01937 0.51237 0.50675 0.63708
USER: genes 2 Torsion [C]-N--CA-[C] |==|  0.76342
USER: genes 3 Torsion [N]-CA--C-[N] |==|  0.47222
USER: genes 4 Torsion [C]-N--CA-[CB] |==|  0.51506
USER: genes 5 Torsion [N]-CA--CB-[CG1] |==|  0.13634
USER: genes 6 Torsion [N]-CA--C-[OXT] |==|  0.37837
USER: genes 7 Torsion [N]-CA--CB-[CG] |==|  0.69105
USER: genes 8 Torsion [CA]-CB--CG-[CD1] |==|  0.37537
USER: genes 9 Torsion [N]-C--CA-[N] |==|  0.47720
USER: genes 10 Torsion [C]-CA--CB-[CG2] |==|  0.49666
USER: genes 11 Torsion [CA]-CB--OG1-[HG1] |==|  0.01907
USER: genes 12 Torsion [C]-CA--N-[C] |==|  0.72467
USER: genes 13 Torsion [N]-C--CA-[N] |==|  0.83614
USER: genes 14 Torsion [C]-CA--CB-[CG1] |==|  0.79041
ROOT
ATOM      1  C   THR B 103     -25.258   7.673  -0.929  1.00  4.93 LIG 0.24  C 
ATOM      2 O    THR B 103     -24.047   7.887  -0.996  1.00  4.94 LIG-0.27  OA
ATOM      3  N   LEU B 104     -26.141   8.274  -1.717  1.00  4.18 LIG-0.35  N 
ATOM      4 H    LEU B 104     -26.988   8.128  -1.696  1.00  4.18 LIG 0.16  HD
ENDROOT
BRANCH 3 5
ATOM      5  CA  LEU B 104     -25.720   9.255  -2.705  1.00  5.70 LIG 0.18  C 
BRANCH 5 6
ATOM      6  C   LEU B 104     -25.608  10.623  -2.065  1.00  6.53 LIG 0.24  C 
ATOM      7 O    LEU B 104     -26.039  10.821  -0.928  1.00  8.21 LIG-0.27  OA
ATOM      8  N   VAL B 105     -25.038  11.567  -2.800  1.00  6.80 LIG-0.34  N 
ATOM      9 H    VAL B 105     -24.702  11.432  -3.580  1.00  6.80 LIG 0.16  HD
BRANCH 8 10
ATOM     10  CA  VAL B 105     -24.935  12.942  -2.330  1.00  6.91 LIG 0.19  C 
BRANCH 10 11
ATOM     11  CB  VAL B 105     -24.357  13.877  -3.407  1.00  6.78 LIG 0.01  C 
ATOM     12  CG1 VAL B 105     -25.078  13.683  -4.731  1.00  6.96 LIG 0.01  C 
ATOM     13  CG2 VAL B 105     -24.466  15.332  -2.959  1.00  7.27 LIG 0.01  C 
ENDBRANCH 10 11
BRANCH 10 14
ATOM     14  C   VAL B 105     -26.310  13.449  -1.912  1.00  6.40 LIG 0.20  C 
ATOM     15 OXT  VAL B 105     -26.443  14.092  -0.866  1.00  6.01 LIG-0.65  OA
ATOM     16 O    VAL B 105     -27.309  13.229  -2.620  1.00  5.94 LIG-0.65  OA
ENDBRANCH 10 14
ENDBRANCH 8 10
ENDBRANCH 5 6
BRANCH 5 17
ATOM     17  CB  LEU B 104     -26.713   9.317  -3.870  1.00  7.33 LIG 0.04  C 
BRANCH 17 18
ATOM     18  CG  LEU B 104     -26.226   8.794  -5.227  1.00 10.28 LIG-0.02  C 
ATOM     19  CD2 LEU B 104     -25.827   9.957  -6.136  1.00 13.23 LIG 0.01  C 
ATOM     20  CD1 LEU B 104     -27.267   7.903  -5.908  1.00 11.40 LIG 0.01  C 
ENDBRANCH 17 18
ENDBRANCH 5 17
ENDBRANCH 3 5
BRANCH 1 21
ATOM     21  CA  THR B 103     -25.807   6.666   0.067  1.00  5.29 LIG 0.20  C 
BRANCH 21 22
ATOM     22  CB  THR B 103     -26.649   7.414   1.114  1.00  5.94 LIG 0.15  C 
ATOM     23  CG2 THR B 103     -27.252   6.436   2.129  1.00  6.62 LIG 0.04  C 
BRANCH 22 24
ATOM     24 OG1  THR B 103     -25.829   8.377   1.788  1.00  6.95 LIG-0.39  OA
ATOM     25 HG1  THR B 103     -25.076   8.413   1.417  1.00  6.95 LIG 0.21  HD
ENDBRANCH 22 24
ENDBRANCH 21 22
BRANCH 21 26
ATOM     26  N   THR B 103     -24.693   5.971   0.702  1.00  6.31 LIG-0.34  N 
ATOM     27  C   VAL B 102     -24.296   4.766   0.310  1.00  9.59 LIG 0.26  C 
ATOM     28 O    VAL B 102     -24.844   4.152  -0.600  1.00 11.78 LIG-0.27  OA
ATOM     29 H    THR B 103     -24.324   6.409   1.344  1.00  6.31 LIG 0.16  HD
BRANCH 27 30
ATOM     30  CA  VAL B 102     -23.114   4.159   1.066  1.00 12.05 LIG 0.40  C 
ATOM     31  N   VAL B 102     -21.935   5.015   0.968  1.00 12.38 LIG 0.61  N 
BRANCH 30 32
ATOM     32  CB  VAL B 102     -23.503   3.910   2.539  1.00 15.16 LIG 0.03  C 
ATOM     33  CG1 VAL B 102     -23.523   5.219   3.305  1.00 16.31 LIG 0.01  C 
ATOM     34  CG2 VAL B 102     -24.860   3.240   2.624  1.00 16.97 LIG 0.01  C 
ENDBRANCH 30 32
ENDBRANCH 27 30
ENDBRANCH 21 26
ENDBRANCH 1 21
TORSDOF 13
ENDMDL
MODEL 26
USER: ADFR SOLUTION from run 63
USER: SCORE 13.809131 LL:  -4.241 LR:  -9.949 RR:   0.000 FEB:  -6.071
USER: RMSD 6.512754
USER: SEED 62
USER: STATUS no improvement in best in 2 clusters for 5 generations
USER: GENES 15
USER: genes 0 Translation |==|  0.51008 0.40151 0.49225
USER: genes 1 Rotation |==|  0.52405 0.25180 0.07192 0.56758
USER: genes 2 Torsion [C]-N--CA-[C] |==|  0.18582
USER: genes 3 Torsion [N]-CA--C-[N] |==|  0.05858
USER: genes 4 Torsion [C]-N--CA-[CB] |==|  0.23984
USER: genes 5 Torsion [N]-CA--CB-[CG1] |==|  0.77526
USER: genes 6 Torsion [N]-CA--C-[OXT] |==|  0.41958
USER: genes 7 Torsion [N]-CA--CB-[CG] |==|  0.84058
USER: genes 8 Torsion [CA]-CB--CG-[CD1] |==|  0.42329
USER: genes 9 Torsion [N]-C--CA-[N] |==|  0.28490
USER: genes 10 Torsion [C]-CA--CB-[CG2] |==|  0.17317
USER: genes 11 Torsion [CA]-CB--OG1-[HG1] |==|  0.54884
USER: genes 12 Torsion [C]-CA--N-[C] |==|  0.72817
USER: genes 13 Torsion [N]-C--CA-[N] |==|  0.58587
USER: genes 14 Torsion [C]-CA--CB-[CG1] |==|  0.24769
ROOT
ATOM      1  C   THR B 103     -25.309   7.114  -0.959  1.00  4.93 LIG 0.24  C 
ATOM      2 O    THR B 103     -26.536   7.008  -1.003  1.00  4.94 LIG-0.27  OA
ATOM      3  N   LEU B 104     -24.696   8.215  -0.544  1.00  4.18 LIG-0.35  N 
ATOM      4 H    LEU B 104     -23.842   8.304  -0.493  1.00  4.18 LIG 0.16  HD
ENDROOT
BRANCH 3 5
ATOM      5  CA  LEU B 104     -25.453   9.386  -0.132  1.00  5.70 LIG 0.18  C 
BRANCH 5 6
ATOM      6  C   LEU B 104     -26.226   9.087   1.134  1.00  6.53 LIG 0.24  C 
ATOM      7 O    LEU B 104     -27.203   9.769   1.451  1.00  8.21 LIG-0.27  OA
ATOM      8  N   VAL B 105     -25.785   8.072   1.863  1.00  6.80 LIG-0.34  N 
ATOM      9 H    VAL B 105     -25.128   7.566   1.635  1.00  6.80 LIG 0.16  HD
BRANCH 8 10
ATOM     10  CA  VAL B 105     -26.395   7.726   3.140  1.00  6.91 LIG 0.19  C 
BRANCH 10 11
ATOM     11  CB  VAL B 105     -27.600   6.784   2.966  1.00  6.78 LIG 0.01  C 
ATOM     12  CG1 VAL B 105     -28.843   7.566   2.577  1.00  6.96 LIG 0.01  C 
ATOM     13  CG2 VAL B 105     -27.296   5.722   1.912  1.00  7.27 LIG 0.01  C 
ENDBRANCH 10 11
BRANCH 10 14
ATOM     14  C   VAL B 105     -25.363   7.057   4.040  1.00  6.40 LIG 0.20  C 
ATOM     15 OXT  VAL B 105     -25.453   7.159   5.268  1.00  6.01 LIG-0.65  OA
ATOM     16 O    VAL B 105     -24.428   6.397   3.553  1.00  5.94 LIG-0.65  OA
ENDBRANCH 10 14
ENDBRANCH 8 10
ENDBRANCH 5 6
BRANCH 5 17
ATOM     17  CB  LEU B 104     -26.426   9.821  -1.232  1.00  7.33 LIG 0.04  C 
BRANCH 17 18
ATOM     18  CG  LEU B 104     -25.824  10.145  -2.605  1.00 10.28 LIG-0.02  C 
ATOM     19  CD2 LEU B 104     -25.303  11.583  -2.633  1.00 13.23 LIG 0.01  C 
ATOM     20  CD1 LEU B 104     -26.820   9.905  -3.742  1.00 11.40 LIG 0.01  C 
ENDBRANCH 17 18
ENDBRANCH 5 17
ENDBRANCH 3 5
BRANCH 1 21
ATOM     21  CA  THR B 103     -24.422   5.950  -1.366  1.00  5.29 LIG 0.20  C 
BRANCH 21 22
ATOM     22  CB  THR B 103     -24.971   5.338  -2.665  1.00  5.94 LIG 0.15  C 
ATOM     23  CG2 THR B 103     -24.932   6.358  -3.809  1.00  6.62 LIG 0.04  C 
BRANCH 22 24
ATOM     24 OG1  THR B 103     -24.200   4.181  -3.012  1.00  6.95 LIG-0.39  OA
ATOM     25 HG1  THR B 103     -24.330   3.989  -3.820  1.00  6.95 LIG 0.21  HD
ENDBRANCH 22 24
ENDBRANCH 21 22
BRANCH 21 26
ATOM     26  N   THR B 103     -24.416   4.961  -0.293  1.00  6.31 LIG-0.34  N 
ATOM     27  C   VAL B 102     -23.441   4.901   0.607  1.00  9.59 LIG 0.26  C 
ATOM     28 O    VAL B 102     -22.478   5.660   0.591  1.00 11.78 LIG-0.27  OA
ATOM     29 H    THR B 103     -25.092   4.430  -0.299  1.00  6.31 LIG 0.16  HD
BRANCH 27 30
ATOM     30  CA  VAL B 102     -23.566   3.814   1.675  1.00 12.05 LIG 0.40  C 
ATOM     31  N   VAL B 102     -22.954   4.241   2.929  1.00 12.38 LIG 0.61  N 
BRANCH 30 32
ATOM     32  CB  VAL B 102     -25.051   3.441   1.875  1.00 15.16 LIG 0.03  C 
ATOM     33  CG1 VAL B 102     -25.445   2.327   0.924  1.00 16.31 LIG 0.01  C 
ATOM     34  CG2 VAL B 102     -25.302   3.011   3.307  1.00 16.97 LIG 0.01  C 
ENDBRANCH 30 32
ENDBRANCH 27 30
ENDBRANCH 21 26
ENDBRANCH 1 21
TORSDOF 13
ENDMDL
MODEL 27
USER: ADFR SOLUTION from run 175
USER: SCORE 12.721369 LL:  -3.108 LR:  -9.923 RR:   0.000 FEB:  -6.045
USER: RMSD 5.974908
USER: SEED 174
USER: STATUS no improvement in best in 13 clusters for 5 generations
USER: GENES 15
USER: genes 0 Translation |==|  0.53976 0.26244 0.67227
USER: genes 1 Rotation |==|  0.46493 0.24577 0.31413 0.88677
USER: genes 2 Torsion [C]-N--CA-[C] |==|  0.68379
USER: genes 3 Torsion [N]-CA--C-[N] |==|  0.93334
USER: genes 4 Torsion [C]-N--CA-[CB] |==|  0.47555
USER: genes 5 Torsion [N]-CA--CB-[CG1] |==|  0.52431
USER: genes 6 Torsion [N]-CA--C-[OXT] |==|  0.91775
USER: genes 7 Torsion [N]-CA--CB-[CG] |==|  0.86418
USER: genes 8 Torsion [CA]-CB--CG-[CD1] |==|  0.35744
USER: genes 9 Torsion [N]-C--CA-[N] |==|  0.02762
USER: genes 10 Torsion [C]-CA--CB-[CG2] |==|  0.53794
USER: genes 11 Torsion [CA]-CB--OG1-[HG1] |==|  0.87709
USER: genes 12 Torsion [C]-CA--N-[C] |==|  0.73648
USER: genes 13 Torsion [N]-C--CA-[N] |==|  0.41857
USER: genes 14 Torsion [C]-CA--CB-[CG1] |==|  0.19596
ROOT
ATOM      1  C   THR B 103     -24.886   4.402   2.281  1.00  4.93 LIG 0.24  C 
ATOM      2 O    THR B 103     -24.889   3.719   3.306  1.00  4.94 LIG-0.27  OA
ATOM      3  N   LEU B 104     -25.830   5.294   2.007  1.00  4.18 LIG-0.35  N 
ATOM      4 H    LEU B 104     -25.839   5.790   1.304  1.00  4.18 LIG 0.16  HD
ENDROOT
BRANCH 3 5
ATOM      5  CA  LEU B 104     -26.952   5.501   2.908  1.00  5.70 LIG 0.18  C 
BRANCH 5 6
ATOM      6  C   LEU B 104     -28.241   5.065   2.243  1.00  6.53 LIG 0.24  C 
ATOM      7 O    LEU B 104     -29.215   4.728   2.919  1.00  8.21 LIG-0.27  OA
ATOM      8  N   VAL B 105     -28.243   5.065   0.918  1.00  6.80 LIG-0.34  N 
ATOM      9 H    VAL B 105     -27.583   5.332   0.436  1.00  6.80 LIG 0.16  HD
BRANCH 8 10
ATOM     10  CA  VAL B 105     -29.395   4.599   0.157  1.00  6.91 LIG 0.19  C 
BRANCH 10 11
ATOM     11  CB  VAL B 105     -29.249   4.894  -1.347  1.00  6.78 LIG 0.01  C 
ATOM     12  CG1 VAL B 105     -30.546   4.596  -2.082  1.00  6.96 LIG 0.01  C 
ATOM     13  CG2 VAL B 105     -28.845   6.350  -1.565  1.00  7.27 LIG 0.01  C 
ENDBRANCH 10 11
BRANCH 10 14
ATOM     14  C   VAL B 105     -29.573   3.099   0.357  1.00  6.40 LIG 0.20  C 
ATOM     15 OXT  VAL B 105     -28.592   2.382   0.583  1.00  6.01 LIG-0.65  OA
ATOM     16 O    VAL B 105     -30.703   2.582   0.305  1.00  5.94 LIG-0.65  OA
ENDBRANCH 10 14
ENDBRANCH 8 10
ENDBRANCH 5 6
BRANCH 5 17
ATOM     17  CB  LEU B 104     -27.062   6.973   3.315  1.00  7.33 LIG 0.04  C 
BRANCH 17 18
ATOM     18  CG  LEU B 104     -25.778   7.658   3.801  1.00 10.28 LIG-0.02  C 
ATOM     19  CD2 LEU B 104     -25.832   7.881   5.313  1.00 13.23 LIG 0.01  C 
ATOM     20  CD1 LEU B 104     -25.513   8.973   3.065  1.00 11.40 LIG 0.01  C 
ENDBRANCH 17 18
ENDBRANCH 5 17
ENDBRANCH 3 5
BRANCH 1 21
ATOM     21  CA  THR B 103     -23.760   4.268   1.271  1.00  5.29 LIG 0.20  C 
BRANCH 21 22
ATOM     22  CB  THR B 103     -22.416   4.324   2.016  1.00  5.94 LIG 0.15  C 
ATOM     23  CG2 THR B 103     -21.257   4.533   1.036  1.00  6.62 LIG 0.04  C 
BRANCH 22 24
ATOM     24 OG1  THR B 103     -22.446   5.388   2.977  1.00  6.95 LIG-0.39  OA
ATOM     25 HG1  THR B 103     -22.786   6.072   2.627  1.00  6.95 LIG 0.21  HD
ENDBRANCH 22 24
ENDBRANCH 21 22
BRANCH 21 26
ATOM     26  N   THR B 103     -23.859   5.355   0.303  1.00  6.31 LIG-0.34  N 
ATOM     27  C   VAL B 102     -24.486   5.212  -0.858  1.00  9.59 LIG 0.26  C 
ATOM     28 O    VAL B 102     -25.012   4.159  -1.202  1.00 11.78 LIG-0.27  OA
ATOM     29 H    THR B 103     -23.478   6.085   0.553  1.00  6.31 LIG 0.16  HD
BRANCH 27 30
ATOM     30  CA  VAL B 102     -24.512   6.437  -1.773  1.00 12.05 LIG 0.40  C 
ATOM     31  N   VAL B 102     -24.568   6.040  -3.177  1.00 12.38 LIG 0.61  N 
BRANCH 30 32
ATOM     32  CB  VAL B 102     -25.703   7.347  -1.402  1.00 15.16 LIG 0.03  C 
ATOM     33  CG1 VAL B 102     -25.453   8.018  -0.065  1.00 16.31 LIG 0.01  C 
ATOM     34  CG2 VAL B 102     -25.924   8.397  -2.474  1.00 16.97 LIG 0.01  C 
ENDBRANCH 30 32
ENDBRANCH 27 30
ENDBRANCH 21 26
ENDBRANCH 1 21
TORSDOF 13
ENDMDL
MODEL 28
USER: ADFR SOLUTION from run 13
USER: SCORE 12.316783 LL:  -2.625 LR:  -9.910 RR:   0.000 FEB:  -6.032
USER: RMSD 1.435048
USER: SEED 323361
USER: STATUS no improvement in best in 9 clusters for 5 generations
USER: GENES 15
USER: genes 0 Translation |==|  0.46786 0.49259 0.43926
USER: genes 1 Rotation |==|  0.52556 0.48450 0.61059 0.98670
USER: genes 2 Torsion [C]-N--CA-[C] |==|  0.70491
USER: genes 3 Torsion [N]-CA--C-[N] |==|  0.39714
USER: genes 4 Torsion [C]-N--CA-[CB] |==|  0.27797
USER: genes 5 Torsion [N]-CA--CB-[CG1] |==|  0.80617
USER: genes 6 Torsion [N]-CA--C-[OXT] |==|  0.95347
USER: genes 7 Torsion [N]-CA--CB-[CG] |==|  0.90620
USER: genes 8 Torsion [CA]-CB--CG-[CD1] |==|  0.88611
USER: genes 9 Torsion [N]-C--CA-[N] |==|  0.39239
USER: genes 10 Torsion [C]-CA--CB-[CG2] |==|  0.51025
USER: genes 11 Torsion [CA]-CB--OG1-[HG1] |==|  0.92877
USER: genes 12 Torsion [C]-CA--N-[C] |==|  0.74450
USER: genes 13 Torsion [N]-C--CA-[N] |==|  0.45793
USER: genes 14 Torsion [C]-CA--CB-[CG1] |==|  0.54915
ROOT
ATOM      1  C   THR B 103     -25.911   8.890  -1.913  1.00  4.93 LIG 0.24  C 
ATOM      2 O    THR B 103     -24.742   9.195  -1.678  1.00  4.94 LIG-0.27  OA
ATOM      3  N   LEU B 104     -26.715   8.361  -0.999  1.00  4.18 LIG-0.35  N 
ATOM      4 H    LEU B 104     -27.538   8.154  -1.140  1.00  4.18 LIG 0.16  HD
ENDROOT
BRANCH 3 5
ATOM      5  CA  LEU B 104     -26.243   8.087   0.348  1.00  5.70 LIG 0.18  C 
BRANCH 5 6
ATOM      6  C   LEU B 104     -26.051   6.597   0.540  1.00  6.53 LIG 0.24  C 
ATOM      7 O    LEU B 104     -26.834   5.793   0.030  1.00  8.21 LIG-0.27  OA
ATOM      8  N   VAL B 105     -25.016   6.231   1.281  1.00  6.80 LIG-0.34  N 
ATOM      9 H    VAL B 105     -24.442   6.781   1.611  1.00  6.80 LIG 0.16  HD
BRANCH 8 10
ATOM     10  CA  VAL B 105     -24.762   4.833   1.601  1.00  6.91 LIG 0.19  C 
BRANCH 10 11
ATOM     11  CB  VAL B 105     -23.673   4.223   0.699  1.00  6.78 LIG 0.01  C 
ATOM     12  CG1 VAL B 105     -24.179   4.070  -0.726  1.00  6.96 LIG 0.01  C 
ATOM     13  CG2 VAL B 105     -22.419   5.093   0.721  1.00  7.27 LIG 0.01  C 
ENDBRANCH 10 11
BRANCH 10 14
ATOM     14  C   VAL B 105     -24.333   4.707   3.058  1.00  6.40 LIG 0.20  C 
ATOM     15 OXT  VAL B 105     -23.950   5.704   3.680  1.00  6.01 LIG-0.65  OA
ATOM     16 O    VAL B 105     -24.372   3.608   3.638  1.00  5.94 LIG-0.65  OA
ENDBRANCH 10 14
ENDBRANCH 8 10
ENDBRANCH 5 6
BRANCH 5 17
ATOM     17  CB  LEU B 104     -27.235   8.610   1.391  1.00  7.33 LIG 0.04  C 
BRANCH 17 18
ATOM     18  CG  LEU B 104     -27.999   9.893   1.042  1.00 10.28 LIG-0.02  C 
ATOM     19  CD2 LEU B 104     -29.218   9.569   0.176  1.00 13.23 LIG 0.01  C 
ATOM     20  CD1 LEU B 104     -27.105  10.928   0.357  1.00 11.40 LIG 0.01  C 
ENDBRANCH 17 18
ENDBRANCH 5 17
ENDBRANCH 3 5
BRANCH 1 21
ATOM     21  CA  THR B 103     -26.508   9.134  -3.288  1.00  5.29 LIG 0.20  C 
BRANCH 21 22
ATOM     22  CB  THR B 103     -26.123   7.965  -4.211  1.00  5.94 LIG 0.15  C 
ATOM     23  CG2 THR B 103     -26.625   8.208  -5.638  1.00  6.62 LIG 0.04  C 
BRANCH 22 24
ATOM     24 OG1  THR B 103     -24.699   7.805  -4.211  1.00  6.95 LIG-0.39  OA
ATOM     25 HG1  THR B 103     -24.334   8.538  -4.021  1.00  6.95 LIG 0.21  HD
ENDBRANCH 22 24
ENDBRANCH 21 22
BRANCH 21 26
ATOM     26  N   THR B 103     -25.993  10.395  -3.812  1.00  6.31 LIG-0.34  N 
ATOM     27  C   VAL B 102     -26.625  11.547  -3.627  1.00  9.59 LIG 0.26  C 
ATOM     28 O    VAL B 102     -27.687  11.630  -3.017  1.00 11.78 LIG-0.27  OA
ATOM     29 H    THR B 103     -25.253  10.321  -4.245  1.00  6.31 LIG 0.16  HD
BRANCH 27 30
ATOM     30  CA  VAL B 102     -25.969  12.789  -4.231  1.00 12.05 LIG 0.40  C 
ATOM     31  N   VAL B 102     -26.907  13.907  -4.276  1.00 12.38 LIG 0.61  N 
BRANCH 30 32
ATOM     32  CB  VAL B 102     -24.700  13.156  -3.431  1.00 15.16 LIG 0.03  C 
ATOM     33  CG1 VAL B 102     -24.291  14.587  -3.724  1.00 16.31 LIG 0.01  C 
ATOM     34  CG2 VAL B 102     -24.940  12.981  -1.944  1.00 16.97 LIG 0.01  C 
ENDBRANCH 30 32
ENDBRANCH 27 30
ENDBRANCH 21 26
ENDBRANCH 1 21
TORSDOF 13
ENDMDL
MODEL 29
USER: ADFR SOLUTION from run 79
USER: SCORE 11.766079 LL:  -2.666 LR:  -9.877 RR:   0.000 FEB:  -5.999
USER: RMSD 7.464959
USER: SEED 78
USER: STATUS no improvement in best in 7 clusters for 5 generations
USER: GENES 15
USER: genes 0 Translation |==|  0.47770 0.41392 0.49219
USER: genes 1 Rotation |==|  0.62264 0.31535 0.05212 0.51630
USER: genes 2 Torsion [C]-N--CA-[C] |==|  0.75092
USER: genes 3 Torsion [N]-CA--C-[N] |==|  0.50556
USER: genes 4 Torsion [C]-N--CA-[CB] |==|  0.20297
USER: genes 5 Torsion [N]-CA--CB-[CG1] |==|  0.37143
USER: genes 6 Torsion [N]-CA--C-[OXT] |==|  0.39753
USER: genes 7 Torsion [N]-CA--CB-[CG] |==|  0.90299
USER: genes 8 Torsion [CA]-CB--CG-[CD1] |==|  0.43898
USER: genes 9 Torsion [N]-C--CA-[N] |==|  0.19078
USER: genes 10 Torsion [C]-CA--CB-[CG2] |==|  0.20058
USER: genes 11 Torsion [CA]-CB--OG1-[HG1] |==|  0.56971
USER: genes 12 Torsion [C]-CA--N-[C] |==|  0.66092
USER: genes 13 Torsion [N]-C--CA-[N] |==|  0.55175
USER: genes 14 Torsion [C]-CA--CB-[CG1] |==|  0.40192
ROOT
ATOM      1  C   THR B 103     -25.771   7.356  -0.961  1.00  4.93 LIG 0.24  C 
ATOM      2 O    THR B 103     -26.872   7.322  -1.510  1.00  4.94 LIG-0.27  OA
ATOM      3  N   LEU B 104     -25.461   8.243  -0.024  1.00  4.18 LIG-0.35  N 
ATOM      4 H    LEU B 104     -24.703   8.275   0.382  1.00  4.18 LIG 0.16  HD
ENDROOT
BRANCH 3 5
ATOM      5  CA  LEU B 104     -26.414   9.258   0.395  1.00  5.70 LIG 0.18  C 
BRANCH 5 6
ATOM      6  C   LEU B 104     -26.263  10.498  -0.460  1.00  6.53 LIG 0.24  C 
ATOM      7 O    LEU B 104     -25.440  10.532  -1.378  1.00  8.21 LIG-0.27  OA
ATOM      8  N   VAL B 105     -27.050  11.519  -0.154  1.00  6.80 LIG-0.34  N 
ATOM      9 H    VAL B 105     -27.652  11.495   0.460  1.00  6.80 LIG 0.16  HD
BRANCH 8 10
ATOM     10  CA  VAL B 105     -26.953  12.794  -0.851  1.00  6.91 LIG 0.19  C 
BRANCH 10 11
ATOM     11  CB  VAL B 105     -27.524  12.715  -2.279  1.00  6.78 LIG 0.01  C 
ATOM     12  CG1 VAL B 105     -28.433  13.901  -2.561  1.00  6.96 LIG 0.01  C 
ATOM     13  CG2 VAL B 105     -26.391  12.667  -3.301  1.00  7.27 LIG 0.01  C 
ENDBRANCH 10 11
BRANCH 10 14
ATOM     14  C   VAL B 105     -27.703  13.867  -0.071  1.00  6.40 LIG 0.20  C 
ATOM     15 OXT  VAL B 105     -27.262  15.020  -0.020  1.00  6.01 LIG-0.65  OA
ATOM     16 O    VAL B 105     -28.768  13.599   0.513  1.00  5.94 LIG-0.65  OA
ENDBRANCH 10 14
ENDBRANCH 8 10
ENDBRANCH 5 6
BRANCH 5 17
ATOM     17  CB  LEU B 104     -26.208   9.626   1.867  1.00  7.33 LIG 0.04  C 
BRANCH 17 18
ATOM     18  CG  LEU B 104     -25.774   8.499   2.812  1.00 10.28 LIG-0.02  C 
ATOM     19  CD2 LEU B 104     -26.968   7.614   3.172  1.00 13.23 LIG 0.01  C 
ATOM     20  CD1 LEU B 104     -25.093   9.034   4.073  1.00 11.40 LIG 0.01  C 
ENDBRANCH 17 18
ENDBRANCH 5 17
ENDBRANCH 3 5
BRANCH 1 21
ATOM     21  CA  THR B 103     -24.700   6.341  -1.321  1.00  5.29 LIG 0.20  C 
BRANCH 21 22
ATOM     22  CB  THR B 103     -25.152   5.566  -2.570  1.00  5.94 LIG 0.15  C 
ATOM     23  CG2 THR B 103     -25.073   6.449  -3.820  1.00  6.62 LIG 0.04  C 
BRANCH 22 24
ATOM     24 OG1  THR B 103     -24.328   4.404  -2.736  1.00  6.95 LIG-0.39  OA
ATOM     25 HG1  THR B 103     -24.322   4.177  -3.545  1.00  6.95 LIG 0.21  HD
ENDBRANCH 22 24
ENDBRANCH 21 22
BRANCH 21 26
ATOM     26  N   THR B 103     -24.506   5.435  -0.194  1.00  6.31 LIG-0.34  N 
ATOM     27  C   VAL B 102     -23.327   5.282   0.396  1.00  9.59 LIG 0.26  C 
ATOM     28 O    VAL B 102     -22.321   5.880   0.028  1.00 11.78 LIG-0.27  OA
ATOM     29 H    THR B 103     -25.218   5.016   0.048  1.00  6.31 LIG 0.16  HD
BRANCH 27 30
ATOM     30  CA  VAL B 102     -23.272   4.300   1.566  1.00 12.05 LIG 0.40  C 
ATOM     31  N   VAL B 102     -22.090   4.534   2.390  1.00 12.38 LIG 0.61  N 
BRANCH 30 32
ATOM     32  CB  VAL B 102     -24.566   4.403   2.401  1.00 15.16 LIG 0.03  C 
ATOM     33  CG1 VAL B 102     -24.958   3.038   2.934  1.00 16.31 LIG 0.01  C 
ATOM     34  CG2 VAL B 102     -24.379   5.372   3.552  1.00 16.97 LIG 0.01  C 
ENDBRANCH 30 32
ENDBRANCH 27 30
ENDBRANCH 21 26
ENDBRANCH 1 21
TORSDOF 13
ENDMDL
MODEL 30
USER: ADFR SOLUTION from run 39
USER: SCORE 11.932639 LL:  -2.516 LR:  -9.868 RR:   0.000 FEB:  -5.990
USER: RMSD 8.163628
USER: SEED 38
USER: STATUS no improvement in best in 5 clusters for 5 generations
USER: GENES 15
USER: genes 0 Translation |==|  0.50125 0.34601 0.57060
USER: genes 1 Rotation |==|  0.51746 0.09503 0.20860 0.52794
USER: genes 2 Torsion [C]-N--CA-[C] |==|  0.17719
USER: genes 3 Torsion [N]-CA--C-[N] |==|  0.09245
USER: genes 4 Torsion [C]-N--CA-[CB] |==|  0.24653
USER: genes 5 Torsion [N]-CA--CB-[CG1] |==|  0.73474
USER: genes 6 Torsion [N]-CA--C-[OXT] |==|  0.92906
USER: genes 7 Torsion [N]-CA--CB-[CG] |==|  0.76452
USER: genes 8 Torsion [CA]-CB--CG-[CD1] |==|  0.28013
USER: genes 9 Torsion [N]-C--CA-[N] |==|  0.51667
USER: genes 10 Torsion [C]-CA--CB-[CG2] |==|  0.84740
USER: genes 11 Torsion [CA]-CB--OG1-[HG1] |==|  0.06692
USER: genes 12 Torsion [C]-CA--N-[C] |==|  0.58812
USER: genes 13 Torsion [N]-C--CA-[N] |==|  0.19936
USER: genes 14 Torsion [C]-CA--CB-[CG1] |==|  0.33322
ROOT
ATOM      1  C   THR B 103     -25.435   6.031   0.451  1.00  4.93 LIG 0.24  C 
ATOM      2 O    THR B 103     -26.650   5.963   0.260  1.00  4.94 LIG-0.27  OA
ATOM      3  N   LEU B 104     -24.700   7.061   0.049  1.00  4.18 LIG-0.35  N 
ATOM      4 H    LEU B 104     -23.854   7.134   0.184  1.00  4.18 LIG 0.16  HD
ENDROOT
BRANCH 3 5
ATOM      5  CA  LEU B 104     -25.297   8.173  -0.673  1.00  5.70 LIG 0.18  C 
BRANCH 5 6
ATOM      6  C   LEU B 104     -26.300   8.887   0.209  1.00  6.53 LIG 0.24  C 
ATOM      7 O    LEU B 104     -27.306   9.407  -0.278  1.00  8.21 LIG-0.27  OA
ATOM      8  N   VAL B 105     -26.022   8.918   1.504  1.00  6.80 LIG-0.34  N 
ATOM      9 H    VAL B 105     -25.343   8.528   1.860  1.00  6.80 LIG 0.16  HD
BRANCH 8 10
ATOM     10  CA  VAL B 105     -26.868   9.634   2.449  1.00  6.91 LIG 0.19  C 
BRANCH 10 11
ATOM     11  CB  VAL B 105     -28.001   8.747   2.996  1.00  6.78 LIG 0.01  C 
ATOM     12  CG1 VAL B 105     -29.279   8.955   2.200  1.00  6.96 LIG 0.01  C 
ATOM     13  CG2 VAL B 105     -27.591   7.278   2.955  1.00  7.27 LIG 0.01  C 
ENDBRANCH 10 11
BRANCH 10 14
ATOM     14  C   VAL B 105     -26.025  10.143   3.613  1.00  6.40 LIG 0.20  C 
ATOM     15 OXT  VAL B 105     -24.973   9.569   3.914  1.00  6.01 LIG-0.65  OA
ATOM     16 O    VAL B 105     -26.380  11.142   4.264  1.00  5.94 LIG-0.65  OA
ENDBRANCH 10 14
ENDBRANCH 8 10
ENDBRANCH 5 6
BRANCH 5 17
ATOM     17  CB  LEU B 104     -25.994   7.686  -1.946  1.00  7.33 LIG 0.04  C 
BRANCH 17 18
ATOM     18  CG  LEU B 104     -25.121   7.516  -3.196  1.00 10.28 LIG-0.02  C 
ATOM     19  CD2 LEU B 104     -25.818   8.112  -4.420  1.00 13.23 LIG 0.01  C 
ATOM     20  CD1 LEU B 104     -24.746   6.053  -3.442  1.00 11.40 LIG 0.01  C 
ENDBRANCH 17 18
ENDBRANCH 5 17
ENDBRANCH 3 5
BRANCH 1 21
ATOM     21  CA  THR B 103     -24.710   4.924   1.196  1.00  5.29 LIG 0.20  C 
BRANCH 21 22
ATOM     22  CB  THR B 103     -23.515   4.457   0.348  1.00  5.94 LIG 0.15  C 
ATOM     23  CG2 THR B 103     -23.970   4.041  -1.055  1.00  6.62 LIG 0.04  C 
BRANCH 22 24
ATOM     24 OG1  THR B 103     -22.549   5.512   0.260  1.00  6.95 LIG-0.39  OA
ATOM     25 HG1  THR B 103     -22.638   6.030   0.916  1.00  6.95 LIG 0.21  HD
ENDBRANCH 22 24
ENDBRANCH 21 22
BRANCH 21 26
ATOM     26  N   THR B 103     -25.638   3.823   1.430  1.00  6.31 LIG-0.34  N 
ATOM     27  C   VAL B 102     -25.554   3.044   2.501  1.00  9.59 LIG 0.26  C 
ATOM     28 O    VAL B 102     -24.688   3.187   3.357  1.00 11.78 LIG-0.27  OA
ATOM     29 H    THR B 103     -26.235   3.729   0.817  1.00  6.31 LIG 0.16  HD
BRANCH 27 30
ATOM     30  CA  VAL B 102     -26.595   1.929   2.616  1.00 12.05 LIG 0.40  C 
ATOM     31  N   VAL B 102     -26.338   0.872   1.643  1.00 12.38 LIG 0.61  N 
BRANCH 30 32
ATOM     32  CB  VAL B 102     -26.612   1.371   4.056  1.00 15.16 LIG 0.03  C 
ATOM     33  CG1 VAL B 102     -27.985   1.555   4.673  1.00 16.31 LIG 0.01  C 
ATOM     34  CG2 VAL B 102     -26.236  -0.097   4.061  1.00 16.97 LIG 0.01  C 
ENDBRANCH 30 32
ENDBRANCH 27 30
ENDBRANCH 21 26
ENDBRANCH 1 21
TORSDOF 13
ENDMDL
MODEL 31
USER: ADFR SOLUTION from run 6
USER: SCORE 12.731942 LL:  -3.226 LR:  -9.833 RR:   0.000 FEB:  -5.955
USER: RMSD 6.798682
USER: SEED 629249
USER: STATUS no improvement in best in 6 clusters for 5 generations
USER: GENES 15
USER: genes 0 Translation |==|  0.55390 0.24012 0.56159
USER: genes 1 Rotation |==|  0.82592 0.52500 0.23687 0.77187
USER: genes 2 Torsion [C]-N--CA-[C] |==|  0.65098
USER: genes 3 Torsion [N]-CA--C-[N] |==|  0.99334
USER: genes 4 Torsion [C]-N--CA-[CB] |==|  0.82907
USER: genes 5 Torsion [N]-CA--CB-[CG1] |==|  0.52350
USER: genes 6 Torsion [N]-CA--C-[OXT] |==|  0.23646
USER: genes 7 Torsion [N]-CA--CB-[CG] |==|  0.13195
USER: genes 8 Torsion [CA]-CB--CG-[CD1] |==|  0.44297
USER: genes 9 Torsion [N]-C--CA-[N] |==|  0.88846
USER: genes 10 Torsion [C]-CA--CB-[CG2] |==|  0.29360
USER: genes 11 Torsion [CA]-CB--OG1-[HG1] |==|  0.89540
USER: genes 12 Torsion [C]-CA--N-[C] |==|  0.85556
USER: genes 13 Torsion [N]-C--CA-[N] |==|  0.55408
USER: genes 14 Torsion [C]-CA--CB-[CG1] |==|  0.89193
ROOT
ATOM      1  C   THR B 103     -24.685   3.966   0.289  1.00  4.93 LIG 0.24  C 
ATOM      2 O    THR B 103     -24.388   3.324  -0.719  1.00  4.94 LIG-0.27  OA
ATOM      3  N   LEU B 104     -25.731   3.668   1.050  1.00  4.18 LIG-0.35  N 
ATOM      4 H    LEU B 104     -25.947   4.095   1.765  1.00  4.18 LIG 0.16  HD
ENDROOT
BRANCH 3 5
ATOM      5  CA  LEU B 104     -26.613   2.562   0.715  1.00  5.70 LIG 0.18  C 
BRANCH 5 6
ATOM      6  C   LEU B 104     -28.046   3.044   0.640  1.00  6.53 LIG 0.24  C 
ATOM      7 O    LEU B 104     -28.952   2.272   0.318  1.00  8.21 LIG-0.27  OA
ATOM      8  N   VAL B 105     -28.250   4.321   0.929  1.00  6.80 LIG-0.34  N 
ATOM      9 H    VAL B 105     -27.631   4.859   1.190  1.00  6.80 LIG 0.16  HD
BRANCH 8 10
ATOM     10  CA  VAL B 105     -29.570   4.926   0.824  1.00  6.91 LIG 0.19  C 
BRANCH 10 11
ATOM     11  CB  VAL B 105     -30.114   4.878  -0.615  1.00  6.78 LIG 0.01  C 
ATOM     12  CG1 VAL B 105     -31.390   5.694  -0.736  1.00  6.96 LIG 0.01  C 
ATOM     13  CG2 VAL B 105     -29.065   5.394  -1.596  1.00  7.27 LIG 0.01  C 
ENDBRANCH 10 11
BRANCH 10 14
ATOM     14  C   VAL B 105     -30.543   4.207   1.751  1.00  6.40 LIG 0.20  C 
ATOM     15 OXT  VAL B 105     -30.624   4.534   2.940  1.00  6.01 LIG-0.65  OA
ATOM     16 O    VAL B 105     -31.269   3.292   1.322  1.00  5.94 LIG-0.65  OA
ENDBRANCH 10 14
ENDBRANCH 8 10
ENDBRANCH 5 6
BRANCH 5 17
ATOM     17  CB  LEU B 104     -26.505   1.444   1.757  1.00  7.33 LIG 0.04  C 
BRANCH 17 18
ATOM     18  CG  LEU B 104     -26.572   1.860   3.232  1.00 10.28 LIG-0.02  C 
ATOM     19  CD2 LEU B 104     -25.245   2.479   3.673  1.00 13.23 LIG 0.01  C 
ATOM     20  CD1 LEU B 104     -26.958   0.693   4.143  1.00 11.40 LIG 0.01  C 
ENDBRANCH 17 18
ENDBRANCH 5 17
ENDBRANCH 3 5
BRANCH 1 21
ATOM     21  CA  THR B 103     -23.831   5.142   0.731  1.00  5.29 LIG 0.20  C 
BRANCH 21 22
ATOM     22  CB  THR B 103     -22.876   4.671   1.840  1.00  5.94 LIG 0.15  C 
ATOM     23  CG2 THR B 103     -21.445   4.534   1.307  1.00  6.62 LIG 0.04  C 
BRANCH 22 24
ATOM     24 OG1  THR B 103     -22.908   5.604   2.927  1.00  6.95 LIG-0.39  OA
ATOM     25 HG1  THR B 103     -22.972   6.386   2.625  1.00  6.95 LIG 0.21  HD
ENDBRANCH 22 24
ENDBRANCH 21 22
BRANCH 21 26
ATOM     26  N   THR B 103     -24.704   6.205   1.219  1.00  6.31 LIG-0.34  N 
ATOM     27  C   VAL B 102     -25.723   6.666   0.505  1.00  9.59 LIG 0.26  C 
ATOM     28 O    VAL B 102     -25.994   6.241  -0.613  1.00 11.78 LIG-0.27  OA
ATOM     29 H    THR B 103     -24.497   6.499   2.001  1.00  6.31 LIG 0.16  HD
BRANCH 27 30
ATOM     30  CA  VAL B 102     -26.553   7.780   1.143  1.00 12.05 LIG 0.40  C 
ATOM     31  N   VAL B 102     -27.865   7.883   0.511  1.00 12.38 LIG 0.61  N 
BRANCH 30 32
ATOM     32  CB  VAL B 102     -26.682   7.537   2.662  1.00 15.16 LIG 0.03  C 
ATOM     33  CG1 VAL B 102     -26.865   6.058   2.943  1.00 16.31 LIG 0.01  C 
ATOM     34  CG2 VAL B 102     -25.455   8.053   3.389  1.00 16.97 LIG 0.01  C 
ENDBRANCH 30 32
ENDBRANCH 27 30
ENDBRANCH 21 26
ENDBRANCH 1 21
TORSDOF 13
ENDMDL
MODEL 32
USER: ADFR SOLUTION from run 108
USER: SCORE 12.192725 LL:  -2.445 LR:  -9.802 RR:   0.000 FEB:  -5.924
USER: RMSD 3.607273
USER: SEED 107
USER: STATUS no improvement in best in 10 clusters for 5 generations
USER: GENES 15
USER: genes 0 Translation |==|  0.52160 0.34516 0.55755
USER: genes 1 Rotation |==|  0.36977 0.48375 0.42261 0.97622
USER: genes 2 Torsion [C]-N--CA-[C] |==|  0.81406
USER: genes 3 Torsion [N]-CA--C-[N] |==|  0.94571
USER: genes 4 Torsion [C]-N--CA-[CB] |==|  0.50264
USER: genes 5 Torsion [N]-CA--CB-[CG1] |==|  0.89837
USER: genes 6 Torsion [N]-CA--C-[OXT] |==|  0.47135
USER: genes 7 Torsion [N]-CA--CB-[CG] |==|  0.58898
USER: genes 8 Torsion [CA]-CB--CG-[CD1] |==|  0.75726
USER: genes 9 Torsion [N]-C--CA-[N] |==|  0.11986
USER: genes 10 Torsion [C]-CA--CB-[CG2] |==|  0.19894
USER: genes 11 Torsion [CA]-CB--OG1-[HG1] |==|  0.65665
USER: genes 12 Torsion [C]-CA--N-[C] |==|  0.14954
USER: genes 13 Torsion [N]-C--CA-[N] |==|  0.41055
USER: genes 14 Torsion [C]-CA--CB-[CG1] |==|  0.19072
ROOT
ATOM      1  C   THR B 103     -25.145   6.015   0.216  1.00  4.93 LIG 0.24  C 
ATOM      2 O    THR B 103     -24.066   5.585   0.625  1.00  4.94 LIG-0.27  OA
ATOM      3  N   LEU B 104     -25.972   6.724   0.975  1.00  4.18 LIG-0.35  N 
ATOM      4 H    LEU B 104     -26.722   7.045   0.704  1.00  4.18 LIG 0.16  HD
ENDROOT
BRANCH 3 5
ATOM      5  CA  LEU B 104     -25.652   7.018   2.362  1.00  5.70 LIG 0.18  C 
BRANCH 5 6
ATOM      6  C   LEU B 104     -25.662   5.743   3.179  1.00  6.53 LIG 0.24  C 
ATOM      7 O    LEU B 104     -25.078   5.687   4.264  1.00  8.21 LIG-0.27  OA
ATOM      8  N   VAL B 105     -26.317   4.718   2.655  1.00  6.80 LIG-0.34  N 
ATOM      9 H    VAL B 105     -26.758   4.756   1.917  1.00  6.80 LIG 0.16  HD
BRANCH 8 10
ATOM     10  CA  VAL B 105     -26.342   3.415   3.305  1.00  6.91 LIG 0.19  C 
BRANCH 10 11
ATOM     11  CB  VAL B 105     -27.146   2.382   2.495  1.00  6.78 LIG 0.01  C 
ATOM     12  CG1 VAL B 105     -28.351   3.034   1.838  1.00  6.96 LIG 0.01  C 
ATOM     13  CG2 VAL B 105     -26.260   1.730   1.438  1.00  7.27 LIG 0.01  C 
ENDBRANCH 10 11
BRANCH 10 14
ATOM     14  C   VAL B 105     -24.918   2.904   3.492  1.00  6.40 LIG 0.20  C 
ATOM     15 OXT  VAL B 105     -24.703   1.909   4.192  1.00  6.01 LIG-0.65  OA
ATOM     16 O    VAL B 105     -23.962   3.476   2.939  1.00  5.94 LIG-0.65  OA
ENDBRANCH 10 14
ENDBRANCH 8 10
ENDBRANCH 5 6
BRANCH 5 17
ATOM     17  CB  LEU B 104     -26.656   8.011   2.955  1.00  7.33 LIG 0.04  C 
BRANCH 17 18
ATOM     18  CG  LEU B 104     -26.131   8.977   4.024  1.00 10.28 LIG-0.02  C 
ATOM     19  CD2 LEU B 104     -24.703   9.414   3.692  1.00 13.23 LIG 0.01  C 
ATOM     20  CD1 LEU B 104     -26.204   8.377   5.429  1.00 11.40 LIG 0.01  C 
ENDBRANCH 17 18
ENDBRANCH 5 17
ENDBRANCH 3 5
BRANCH 1 21
ATOM     21  CA  THR B 103     -25.578   5.767  -1.218  1.00  5.29 LIG 0.20  C 
BRANCH 21 22
ATOM     22  CB  THR B 103     -24.359   5.302  -2.031  1.00  5.94 LIG 0.15  C 
ATOM     23  CG2 THR B 103     -23.953   3.877  -1.642  1.00  6.62 LIG 0.04  C 
BRANCH 22 24
ATOM     24 OG1  THR B 103     -24.665   5.361  -3.430  1.00  6.95 LIG-0.39  OA
ATOM     25 HG1  THR B 103     -24.545   4.605  -3.776  1.00  6.95 LIG 0.21  HD
ENDBRANCH 22 24
ENDBRANCH 21 22
BRANCH 21 26
ATOM     26  N   THR B 103     -26.125   7.003  -1.769  1.00  6.31 LIG-0.34  N 
ATOM     27  C   VAL B 102     -25.448   8.145  -1.750  1.00  9.59 LIG 0.26  C 
ATOM     28 O    VAL B 102     -24.328   8.242  -1.259  1.00 11.78 LIG-0.27  OA
ATOM     29 H    THR B 103     -26.914   6.922  -2.102  1.00  6.31 LIG 0.16  HD
BRANCH 27 30
ATOM     30  CA  VAL B 102     -26.144   9.360  -2.364  1.00 12.05 LIG 0.40  C 
ATOM     31  N   VAL B 102     -25.754  10.588  -1.679  1.00 12.38 LIG 0.61  N 
BRANCH 30 32
ATOM     32  CB  VAL B 102     -25.832   9.438  -3.874  1.00 15.16 LIG 0.03  C 
ATOM     33  CG1 VAL B 102     -26.503   8.294  -4.609  1.00 16.31 LIG 0.01  C 
ATOM     34  CG2 VAL B 102     -26.298  10.764  -4.445  1.00 16.97 LIG 0.01  C 
ENDBRANCH 30 32
ENDBRANCH 27 30
ENDBRANCH 21 26
ENDBRANCH 1 21
TORSDOF 13
ENDMDL
MODEL 33
USER: ADFR SOLUTION from run 83
USER: SCORE 11.943969 LL:  -2.655 LR:  -9.804 RR:   0.000 FEB:  -5.926
USER: RMSD 4.150736
USER: SEED 82
USER: STATUS no improvement in best in 6 clusters for 5 generations
USER: GENES 15
USER: genes 0 Translation |==|  0.45377 0.44422 0.52416
USER: genes 1 Rotation |==|  0.56413 0.93797 0.29140 0.60275
USER: genes 2 Torsion [C]-N--CA-[C] |==|  0.61255
USER: genes 3 Torsion [N]-CA--C-[N] |==|  0.10953
USER: genes 4 Torsion [C]-N--CA-[CB] |==|  0.30111
USER: genes 5 Torsion [N]-CA--CB-[CG1] |==|  0.82541
USER: genes 6 Torsion [N]-CA--C-[OXT] |==|  0.58037
USER: genes 7 Torsion [N]-CA--CB-[CG] |==|  0.74110
USER: genes 8 Torsion [CA]-CB--CG-[CD1] |==|  0.93348
USER: genes 9 Torsion [N]-C--CA-[N] |==|  0.34487
USER: genes 10 Torsion [C]-CA--CB-[CG2] |==|  0.29648
USER: genes 11 Torsion [CA]-CB--OG1-[HG1] |==|  0.21203
USER: genes 12 Torsion [C]-CA--N-[C] |==|  0.83804
USER: genes 13 Torsion [N]-C--CA-[N] |==|  0.90469
USER: genes 14 Torsion [C]-CA--CB-[CG1] |==|  0.22357
ROOT
ATOM      1  C   THR B 103     -26.112   7.946  -0.385  1.00  4.93 LIG 0.24  C 
ATOM      2 O    THR B 103     -27.219   7.757  -0.890  1.00  4.94 LIG-0.27  OA
ATOM      3  N   LEU B 104     -25.106   7.089  -0.511  1.00  4.18 LIG-0.35  N 
ATOM      4 H    LEU B 104     -24.323   7.209  -0.178  1.00  4.18 LIG 0.16  HD
ENDROOT
BRANCH 3 5
ATOM      5  CA  LEU B 104     -25.268   5.845  -1.247  1.00  5.70 LIG 0.18  C 
BRANCH 5 6
ATOM      6  C   LEU B 104     -24.562   4.717  -0.524  1.00  6.53 LIG 0.24  C 
ATOM      7 O    LEU B 104     -23.949   3.853  -1.154  1.00  8.21 LIG-0.27  OA
ATOM      8  N   VAL B 105     -24.656   4.722   0.798  1.00  6.80 LIG-0.34  N 
ATOM      9 H    VAL B 105     -25.050   5.338   1.250  1.00  6.80 LIG 0.16  HD
BRANCH 8 10
ATOM     10  CA  VAL B 105     -24.084   3.654   1.607  1.00  6.91 LIG 0.19  C 
BRANCH 10 11
ATOM     11  CB  VAL B 105     -22.839   4.122   2.382  1.00  6.78 LIG 0.01  C 
ATOM     12  CG1 VAL B 105     -21.733   4.534   1.424  1.00  6.96 LIG 0.01  C 
ATOM     13  CG2 VAL B 105     -23.194   5.284   3.305  1.00  7.27 LIG 0.01  C 
ENDBRANCH 10 11
BRANCH 10 14
ATOM     14  C   VAL B 105     -25.125   3.142   2.596  1.00  6.40 LIG 0.20  C 
ATOM     15 OXT  VAL B 105     -24.770   2.667   3.680  1.00  6.01 LIG-0.65  OA
ATOM     16 O    VAL B 105     -26.338   3.205   2.329  1.00  5.94 LIG-0.65  OA
ENDBRANCH 10 14
ENDBRANCH 8 10
ENDBRANCH 5 6
BRANCH 5 17
ATOM     17  CB  LEU B 104     -24.703   5.972  -2.665  1.00  7.33 LIG 0.04  C 
BRANCH 17 18
ATOM     18  CG  LEU B 104     -25.685   6.381  -3.770  1.00 10.28 LIG-0.02  C 
ATOM     19  CD2 LEU B 104     -25.544   7.871  -4.086  1.00 13.23 LIG 0.01  C 
ATOM     20  CD1 LEU B 104     -27.132   6.035  -3.413  1.00 11.40 LIG 0.01  C 
ENDBRANCH 17 18
ENDBRANCH 5 17
ENDBRANCH 3 5
BRANCH 1 21
ATOM     21  CA  THR B 103     -25.833   9.213   0.404  1.00  5.29 LIG 0.20  C 
BRANCH 21 22
ATOM     22  CB  THR B 103     -26.700   9.208   1.674  1.00  5.94 LIG 0.15  C 
ATOM     23  CG2 THR B 103     -25.847   8.926   2.916  1.00  6.62 LIG 0.04  C 
BRANCH 22 24
ATOM     24 OG1  THR B 103     -27.360  10.473   1.808  1.00  6.95 LIG-0.39  OA
ATOM     25 HG1  THR B 103     -28.004  10.512   1.268  1.00  6.95 LIG 0.21  HD
ENDBRANCH 22 24
ENDBRANCH 21 22
BRANCH 21 26
ATOM     26  N   THR B 103     -26.146  10.370  -0.429  1.00  6.31 LIG-0.34  N 
ATOM     27  C   VAL B 102     -25.559  10.576  -1.602  1.00  9.59 LIG 0.26  C 
ATOM     28 O    VAL B 102     -24.707   9.820  -2.057  1.00 11.78 LIG-0.27  OA
ATOM     29 H    THR B 103     -26.739  10.896  -0.093  1.00  6.31 LIG 0.16  HD
BRANCH 27 30
ATOM     30  CA  VAL B 102     -25.987  11.829  -2.367  1.00 12.05 LIG 0.40  C 
ATOM     31  N   VAL B 102     -27.401  12.118  -2.147  1.00 12.38 LIG 0.61  N 
BRANCH 30 32
ATOM     32  CB  VAL B 102     -25.101  13.025  -1.957  1.00 15.16 LIG 0.03  C 
ATOM     33  CG1 VAL B 102     -23.777  12.975  -2.695  1.00 16.31 LIG 0.01  C 
ATOM     34  CG2 VAL B 102     -25.808  14.334  -2.250  1.00 16.97 LIG 0.01  C 
ENDBRANCH 30 32
ENDBRANCH 27 30
ENDBRANCH 21 26
ENDBRANCH 1 21
TORSDOF 13
ENDMDL
MODEL 34
USER: ADFR SOLUTION from run 40
USER: SCORE 12.148982 LL:  -2.411 LR:  -9.788 RR:   0.000 FEB:  -5.911
USER: RMSD 8.124777
USER: SEED 39
USER: STATUS no improvement in best in 13 clusters for 5 generations
USER: GENES 15
USER: genes 0 Translation |==|  0.49946 0.32966 0.61449
USER: genes 1 Rotation |==|  0.26139 0.82345 0.79657 0.52226
USER: genes 2 Torsion [C]-N--CA-[C] |==|  0.81439
USER: genes 3 Torsion [N]-CA--C-[N] |==|  0.39413
USER: genes 4 Torsion [C]-N--CA-[CB] |==|  0.26248
USER: genes 5 Torsion [N]-CA--CB-[CG1] |==|  0.83254
USER: genes 6 Torsion [N]-CA--C-[OXT] |==|  0.55184
USER: genes 7 Torsion [N]-CA--CB-[CG] |==|  0.88704
USER: genes 8 Torsion [CA]-CB--CG-[CD1] |==|  0.89396
USER: genes 9 Torsion [N]-C--CA-[N] |==|  0.42643
USER: genes 10 Torsion [C]-CA--CB-[CG2] |==|  0.95429
USER: genes 11 Torsion [CA]-CB--OG1-[HG1] |==|  0.84789
USER: genes 12 Torsion [C]-CA--N-[C] |==|  0.82778
USER: genes 13 Torsion [N]-C--CA-[N] |==|  0.91493
USER: genes 14 Torsion [C]-CA--CB-[CG1] |==|  0.24629
ROOT
ATOM      1  C   THR B 103     -25.461   5.712   1.241  1.00  4.93 LIG 0.24  C 
ATOM      2 O    THR B 103     -26.047   5.193   0.291  1.00  4.94 LIG-0.27  OA
ATOM      3  N   LEU B 104     -25.464   7.022   1.460  1.00  4.18 LIG-0.35  N 
ATOM      4 H    LEU B 104     -25.073   7.402   2.125  1.00  4.18 LIG 0.16  HD
ENDROOT
BRANCH 3 5
ATOM      5  CA  LEU B 104     -26.154   7.932   0.560  1.00  5.70 LIG 0.18  C 
BRANCH 5 6
ATOM      6  C   LEU B 104     -25.469   7.946  -0.790  1.00  6.53 LIG 0.24  C 
ATOM      7 O    LEU B 104     -24.240   7.897  -0.872  1.00  8.21 LIG-0.27  OA
ATOM      8  N   VAL B 105     -26.264   8.023  -1.848  1.00  6.80 LIG-0.34  N 
ATOM      9 H    VAL B 105     -27.123   8.022  -1.805  1.00  6.80 LIG 0.16  HD
BRANCH 8 10
ATOM     10  CA  VAL B 105     -25.729   8.118  -3.199  1.00  6.91 LIG 0.19  C 
BRANCH 10 11
ATOM     11  CB  VAL B 105     -25.624   6.739  -3.876  1.00  6.78 LIG 0.01  C 
ATOM     12  CG1 VAL B 105     -24.703   5.822  -3.089  1.00  6.96 LIG 0.01  C 
ATOM     13  CG2 VAL B 105     -27.007   6.107  -4.008  1.00  7.27 LIG 0.01  C 
ENDBRANCH 10 11
BRANCH 10 14
ATOM     14  C   VAL B 105     -26.618   9.023  -4.044  1.00  6.40 LIG 0.20  C 
ATOM     15 OXT  VAL B 105     -26.560   8.975  -5.277  1.00  6.01 LIG-0.65  OA
ATOM     16 O    VAL B 105     -27.415   9.811  -3.504  1.00  5.94 LIG-0.65  OA
ENDBRANCH 10 14
ENDBRANCH 8 10
ENDBRANCH 5 6
BRANCH 5 17
ATOM     17  CB  LEU B 104     -26.178   9.352   1.134  1.00  7.33 LIG 0.04  C 
BRANCH 17 18
ATOM     18  CG  LEU B 104     -26.439   9.490   2.639  1.00 10.28 LIG-0.02  C 
ATOM     19  CD2 LEU B 104     -25.132   9.360   3.422  1.00 13.23 LIG 0.01  C 
ATOM     20  CD1 LEU B 104     -27.475   8.481   3.138  1.00 11.40 LIG 0.01  C 
ENDBRANCH 17 18
ENDBRANCH 5 17
ENDBRANCH 3 5
BRANCH 1 21
ATOM     21  CA  THR B 103     -24.710   4.854   2.243  1.00  5.29 LIG 0.20  C 
BRANCH 21 22
ATOM     22  CB  THR B 103     -23.228   4.799   1.837  1.00  5.94 LIG 0.15  C 
ATOM     23  CG2 THR B 103     -23.042   5.254   0.385  1.00  6.62 LIG 0.04  C 
BRANCH 22 24
ATOM     24 OG1  THR B 103     -22.459   5.632   2.715  1.00  6.95 LIG-0.39  OA
ATOM     25 HG1  THR B 103     -22.779   6.409   2.717  1.00  6.95 LIG 0.21  HD
ENDBRANCH 22 24
ENDBRANCH 21 22
BRANCH 21 26
ATOM     26  N   THR B 103     -25.292   3.516   2.253  1.00  6.31 LIG-0.34  N 
ATOM     27  C   VAL B 102     -26.553   3.297   2.603  1.00  9.59 LIG 0.26  C 
ATOM     28 O    VAL B 102     -27.309   4.197   2.952  1.00 11.78 LIG-0.27  OA
ATOM     29 H    THR B 103     -24.748   2.894   2.015  1.00  6.31 LIG 0.16  HD
BRANCH 27 30
ATOM     30  CA  VAL B 102     -27.028   1.844   2.565  1.00 12.05 LIG 0.40  C 
ATOM     31  N   VAL B 102     -26.323   1.091   1.532  1.00 12.38 LIG 0.61  N 
BRANCH 30 32
ATOM     32  CB  VAL B 102     -26.845   1.194   3.953  1.00 15.16 LIG 0.03  C 
ATOM     33  CG1 VAL B 102     -28.080   1.419   4.805  1.00 16.31 LIG 0.01  C 
ATOM     34  CG2 VAL B 102     -26.578  -0.292   3.813  1.00 16.97 LIG 0.01  C 
ENDBRANCH 30 32
ENDBRANCH 27 30
ENDBRANCH 21 26
ENDBRANCH 1 21
TORSDOF 13
ENDMDL
MODEL 35
USER: ADFR SOLUTION from run 134
USER: SCORE 12.114801 LL:  -2.502 LR:  -9.778 RR:   0.000 FEB:  -5.900
USER: RMSD 8.543699
USER: SEED 133
USER: STATUS no improvement in best in 7 clusters for 5 generations
USER: GENES 15
USER: genes 0 Translation |==|  0.47722 0.34286 0.55530
USER: genes 1 Rotation |==|  0.36139 0.88657 0.78504 0.51012
USER: genes 2 Torsion [C]-N--CA-[C] |==|  0.79127
USER: genes 3 Torsion [N]-CA--C-[N] |==|  0.38970
USER: genes 4 Torsion [C]-N--CA-[CB] |==|  0.33661
USER: genes 5 Torsion [N]-CA--CB-[CG1] |==|  0.91433
USER: genes 6 Torsion [N]-CA--C-[OXT] |==|  0.96343
USER: genes 7 Torsion [N]-CA--CB-[CG] |==|  0.54745
USER: genes 8 Torsion [CA]-CB--CG-[CD1] |==|  0.71849
USER: genes 9 Torsion [N]-C--CA-[N] |==|  0.45009
USER: genes 10 Torsion [C]-CA--CB-[CG2] |==|  0.88214
USER: genes 11 Torsion [CA]-CB--OG1-[HG1] |==|  0.03845
USER: genes 12 Torsion [C]-CA--N-[C] |==|  0.55000
USER: genes 13 Torsion [N]-C--CA-[N] |==|  0.19711
USER: genes 14 Torsion [C]-CA--CB-[CG1] |==|  0.33429
ROOT
ATOM      1  C   THR B 103     -25.778   5.970   0.175  1.00  4.93 LIG 0.24  C 
ATOM      2 O    THR B 103     -26.743   5.578  -0.482  1.00  4.94 LIG-0.27  OA
ATOM      3  N   LEU B 104     -25.302   7.206   0.090  1.00  4.18 LIG-0.35  N 
ATOM      4 H    LEU B 104     -24.638   7.502   0.550  1.00  4.18 LIG 0.16  HD
ENDROOT
BRANCH 3 5
ATOM      5  CA  LEU B 104     -25.890   8.176  -0.820  1.00  5.70 LIG 0.18  C 
BRANCH 5 6
ATOM      6  C   LEU B 104     -25.477   7.871  -2.244  1.00  6.53 LIG 0.24  C 
ATOM      7 O    LEU B 104     -24.326   7.510  -2.501  1.00  8.21 LIG-0.27  OA
ATOM      8  N   VAL B 105     -26.412   8.025  -3.170  1.00  6.80 LIG-0.34  N 
ATOM      9 H    VAL B 105     -27.227   8.241  -2.999  1.00  6.80 LIG 0.16  HD
BRANCH 8 10
ATOM     10  CA  VAL B 105     -26.125   7.834  -4.585  1.00  6.91 LIG 0.19  C 
BRANCH 10 11
ATOM     11  CB  VAL B 105     -27.006   6.737  -5.210  1.00  6.78 LIG 0.01  C 
ATOM     12  CG1 VAL B 105     -27.353   5.675  -4.180  1.00  6.96 LIG 0.01  C 
ATOM     13  CG2 VAL B 105     -28.280   7.346  -5.787  1.00  7.27 LIG 0.01  C 
ENDBRANCH 10 11
BRANCH 10 14
ATOM     14  C   VAL B 105     -26.345   9.142  -5.337  1.00  6.40 LIG 0.20  C 
ATOM     15 OXT  VAL B 105     -26.939  10.078  -4.792  1.00  6.01 LIG-0.65  OA
ATOM     16 O    VAL B 105     -25.923   9.284  -6.498  1.00  5.94 LIG-0.65  OA
ENDBRANCH 10 14
ENDBRANCH 8 10
ENDBRANCH 5 6
BRANCH 5 17
ATOM     17  CB  LEU B 104     -25.454   9.599  -0.457  1.00  7.33 LIG 0.04  C 
BRANCH 17 18
ATOM     18  CG  LEU B 104     -26.281  10.750  -1.041  1.00 10.28 LIG-0.02  C 
ATOM     19  CD2 LEU B 104     -27.686  10.267  -1.407  1.00 13.23 LIG 0.01  C 
ATOM     20  CD1 LEU B 104     -25.597  11.397  -2.247  1.00 11.40 LIG 0.01  C 
ENDBRANCH 17 18
ENDBRANCH 5 17
ENDBRANCH 3 5
BRANCH 1 21
ATOM     21  CA  THR B 103     -25.088   5.039   1.157  1.00  5.29 LIG 0.20  C 
BRANCH 21 22
ATOM     22  CB  THR B 103     -23.765   4.557   0.538  1.00  5.94 LIG 0.15  C 
ATOM     23  CG2 THR B 103     -23.952   4.203  -0.942  1.00  6.62 LIG 0.04  C 
BRANCH 22 24
ATOM     24 OG1  THR B 103     -22.771   5.580   0.677  1.00  6.95 LIG-0.39  OA
ATOM     25 HG1  THR B 103     -23.037   6.158   1.226  1.00  6.95 LIG 0.21  HD
ENDBRANCH 22 24
ENDBRANCH 21 22
BRANCH 21 26
ATOM     26  N   THR B 103     -25.967   3.909   1.438  1.00  6.31 LIG-0.34  N 
ATOM     27  C   VAL B 102     -25.798   3.129   2.499  1.00  9.59 LIG 0.26  C 
ATOM     28 O    VAL B 102     -24.889   3.296   3.305  1.00 11.78 LIG-0.27  OA
ATOM     29 H    THR B 103     -26.594   3.799   0.860  1.00  6.31 LIG 0.16  HD
BRANCH 27 30
ATOM     30  CA  VAL B 102     -26.797   1.983   2.667  1.00 12.05 LIG 0.40  C 
ATOM     31  N   VAL B 102     -26.577   0.947   1.663  1.00 12.38 LIG 0.61  N 
BRANCH 30 32
ATOM     32  CB  VAL B 102     -26.701   1.407   4.097  1.00 15.16 LIG 0.03  C 
ATOM     33  CG1 VAL B 102     -28.036   1.534   4.804  1.00 16.31 LIG 0.01  C 
ATOM     34  CG2 VAL B 102     -26.274  -0.047   4.055  1.00 16.97 LIG 0.01  C 
ENDBRANCH 30 32
ENDBRANCH 27 30
ENDBRANCH 21 26
ENDBRANCH 1 21
TORSDOF 13
ENDMDL
MODEL 36
USER: ADFR SOLUTION from run 169
USER: SCORE 12.476073 LL:  -2.913 LR:  -9.764 RR:   0.000 FEB:  -5.886
USER: RMSD 6.878047
USER: SEED 168
USER: STATUS no improvement in best in 4 clusters for 5 generations
USER: GENES 15
USER: genes 0 Translation |==|  0.54256 0.21505 0.57905
USER: genes 1 Rotation |==|  0.79051 0.40950 0.24110 0.80064
USER: genes 2 Torsion [C]-N--CA-[C] |==|  0.67389
USER: genes 3 Torsion [N]-CA--C-[N] |==|  0.41430
USER: genes 4 Torsion [C]-N--CA-[CB] |==|  0.46538
USER: genes 5 Torsion [N]-CA--CB-[CG1] |==|  0.75469
USER: genes 6 Torsion [N]-CA--C-[OXT] |==|  0.97424
USER: genes 7 Torsion [N]-CA--CB-[CG] |==|  0.81111
USER: genes 8 Torsion [CA]-CB--CG-[CD1] |==|  0.19697
USER: genes 9 Torsion [N]-C--CA-[N] |==|  0.87778
USER: genes 10 Torsion [C]-CA--CB-[CG2] |==|  0.34423
USER: genes 11 Torsion [CA]-CB--OG1-[HG1] |==|  0.84343
USER: genes 12 Torsion [C]-CA--N-[C] |==|  0.84210
USER: genes 13 Torsion [N]-C--CA-[N] |==|  0.58200
USER: genes 14 Torsion [C]-CA--CB-[CG1] |==|  0.49561
ROOT
ATOM      1  C   THR B 103     -24.847   3.478   0.603  1.00  4.93 LIG 0.24  C 
ATOM      2 O    THR B 103     -24.582   2.441  -0.008  1.00  4.94 LIG-0.27  OA
ATOM      3  N   LEU B 104     -26.032   3.705   1.156  1.00  4.18 LIG-0.35  N 
ATOM      4 H    LEU B 104     -26.231   4.416   1.597  1.00  4.18 LIG 0.16  HD
ENDROOT
BRANCH 3 5
ATOM      5  CA  LEU B 104     -27.110   2.736   1.048  1.00  5.70 LIG 0.18  C 
BRANCH 5 6
ATOM      6  C   LEU B 104     -28.275   3.336   0.291  1.00  6.53 LIG 0.24  C 
ATOM      7 O    LEU B 104     -28.512   4.544   0.357  1.00  8.21 LIG-0.27  OA
ATOM      8  N   VAL B 105     -29.008   2.491  -0.419  1.00  6.80 LIG-0.34  N 
ATOM      9 H    VAL B 105     -28.832   1.653  -0.501  1.00  6.80 LIG 0.16  HD
BRANCH 8 10
ATOM     10  CA  VAL B 105     -30.200   2.929  -1.134  1.00  6.91 LIG 0.19  C 
BRANCH 10 11
ATOM     11  CB  VAL B 105     -30.704   1.861  -2.123  1.00  6.78 LIG 0.01  C 
ATOM     12  CG1 VAL B 105     -30.031   2.021  -3.476  1.00  6.96 LIG 0.01  C 
ATOM     13  CG2 VAL B 105     -30.445   0.463  -1.570  1.00  7.27 LIG 0.01  C 
ENDBRANCH 10 11
BRANCH 10 14
ATOM     14  C   VAL B 105     -31.308   3.253  -0.140  1.00  6.40 LIG 0.20  C 
ATOM     15 OXT  VAL B 105     -31.174   2.966   1.054  1.00  6.01 LIG-0.65  OA
ATOM     16 O    VAL B 105     -32.352   3.815  -0.515  1.00  5.94 LIG-0.65  OA
ENDBRANCH 10 14
ENDBRANCH 8 10
ENDBRANCH 5 6
BRANCH 5 17
ATOM     17  CB  LEU B 104     -27.580   2.286   2.435  1.00  7.33 LIG 0.04  C 
BRANCH 17 18
ATOM     18  CG  LEU B 104     -26.598   1.449   3.265  1.00 10.28 LIG-0.02  C 
ATOM     19  CD2 LEU B 104     -27.324   0.776   4.430  1.00 13.23 LIG 0.01  C 
ATOM     20  CD1 LEU B 104     -25.415   2.279   3.767  1.00 11.40 LIG 0.01  C 
ENDBRANCH 17 18
ENDBRANCH 5 17
ENDBRANCH 3 5
BRANCH 1 21
ATOM     21  CA  THR B 103     -23.793   4.558   0.777  1.00  5.29 LIG 0.20  C 
BRANCH 21 22
ATOM     22  CB  THR B 103     -23.227   4.473   2.204  1.00  5.94 LIG 0.15  C 
ATOM     23  CG2 THR B 103     -21.704   4.303   2.178  1.00  6.62 LIG 0.04  C 
BRANCH 22 24
ATOM     24 OG1  THR B 103     -23.578   5.659   2.929  1.00  6.95 LIG-0.39  OA
ATOM     25 HG1  THR B 103     -23.299   6.334   2.514  1.00  6.95 LIG 0.21  HD
ENDBRANCH 22 24
ENDBRANCH 21 22
BRANCH 21 26
ATOM     26  N   THR B 103     -24.407   5.861   0.542  1.00  6.31 LIG-0.34  N 
ATOM     27  C   VAL B 102     -25.028   6.155  -0.594  1.00  9.59 LIG 0.26  C 
ATOM     28 O    VAL B 102     -25.118   5.361  -1.524  1.00 11.78 LIG-0.27  OA
ATOM     29 H    THR B 103     -24.328   6.410   1.199  1.00  6.31 LIG 0.16  HD
BRANCH 27 30
ATOM     30  CA  VAL B 102     -25.624   7.559  -0.700  1.00 12.05 LIG 0.40  C 
ATOM     31  N   VAL B 102     -26.795   7.564  -1.571  1.00 12.38 LIG 0.61  N 
BRANCH 30 32
ATOM     32  CB  VAL B 102     -25.972   8.091   0.707  1.00 15.16 LIG 0.03  C 
ATOM     33  CG1 VAL B 102     -26.528   9.499   0.613  1.00 16.31 LIG 0.01  C 
ATOM     34  CG2 VAL B 102     -26.978   7.182   1.385  1.00 16.97 LIG 0.01  C 
ENDBRANCH 30 32
ENDBRANCH 27 30
ENDBRANCH 21 26
ENDBRANCH 1 21
TORSDOF 13
ENDMDL
MODEL 37
USER: ADFR SOLUTION from run 6
USER: SCORE 12.168670 LL:  -3.615 LR:  -9.729 RR:   0.000 FEB:  -5.851
USER: RMSD 5.655146
USER: SEED 629249
USER: STATUS no improvement in best in 6 clusters for 5 generations
USER: GENES 15
USER: genes 0 Translation |==|  0.50618 0.42139 0.47641
USER: genes 1 Rotation |==|  0.73798 0.69371 0.50227 0.89476
USER: genes 2 Torsion [C]-N--CA-[C] |==|  0.56111
USER: genes 3 Torsion [N]-CA--C-[N] |==|  0.95862
USER: genes 4 Torsion [C]-N--CA-[CB] |==|  0.21533
USER: genes 5 Torsion [N]-CA--CB-[CG1] |==|  0.12312
USER: genes 6 Torsion [N]-CA--C-[OXT] |==|  0.83178
USER: genes 7 Torsion [N]-CA--CB-[CG] |==|  0.36837
USER: genes 8 Torsion [CA]-CB--CG-[CD1] |==|  0.37107
USER: genes 9 Torsion [N]-C--CA-[N] |==|  0.03287
USER: genes 10 Torsion [C]-CA--CB-[CG2] |==|  0.21426
USER: genes 11 Torsion [CA]-CB--OG1-[HG1] |==|  0.65750
USER: genes 12 Torsion [C]-CA--N-[C] |==|  0.20231
USER: genes 13 Torsion [N]-C--CA-[N] |==|  0.08377
USER: genes 14 Torsion [C]-CA--CB-[CG1] |==|  0.86110
ROOT
ATOM      1  C   THR B 103     -25.365   7.501  -1.245  1.00  4.93 LIG 0.24  C 
ATOM      2 O    THR B 103     -24.505   7.721  -2.098  1.00  4.94 LIG-0.27  OA
ATOM      3  N   LEU B 104     -25.379   6.400  -0.503  1.00  4.18 LIG-0.35  N 
ATOM      4 H    LEU B 104     -25.962   6.235   0.107  1.00  4.18 LIG 0.16  HD
ENDROOT
BRANCH 3 5
ATOM      5  CA  LEU B 104     -24.374   5.364  -0.678  1.00  5.70 LIG 0.18  C 
BRANCH 5 6
ATOM      6  C   LEU B 104     -24.890   4.044  -0.146  1.00  6.53 LIG 0.24  C 
ATOM      7 O    LEU B 104     -24.329   2.986  -0.440  1.00  8.21 LIG-0.27  OA
ATOM      8  N   VAL B 105     -25.962   4.105   0.630  1.00  6.80 LIG-0.34  N 
ATOM      9 H    VAL B 105     -26.340   4.840   0.871  1.00  6.80 LIG 0.16  HD
BRANCH 8 10
ATOM     10  CA  VAL B 105     -26.600   2.902   1.147  1.00  6.91 LIG 0.19  C 
BRANCH 10 11
ATOM     11  CB  VAL B 105     -25.825   2.303   2.334  1.00  6.78 LIG 0.01  C 
ATOM     12  CG1 VAL B 105     -25.401   3.393   3.305  1.00  6.96 LIG 0.01  C 
ATOM     13  CG2 VAL B 105     -26.679   1.262   3.053  1.00  7.27 LIG 0.01  C 
ENDBRANCH 10 11
BRANCH 10 14
ATOM     14  C   VAL B 105     -28.023   3.223   1.589  1.00  6.40 LIG 0.20  C 
ATOM     15 OXT  VAL B 105     -28.224   4.056   2.479  1.00  6.01 LIG-0.65  OA
ATOM     16 O    VAL B 105     -28.995   2.659   1.055  1.00  5.94 LIG-0.65  OA
ENDBRANCH 10 14
ENDBRANCH 8 10
ENDBRANCH 5 6
BRANCH 5 17
ATOM     17  CB  LEU B 104     -23.077   5.734   0.049  1.00  7.33 LIG 0.04  C 
BRANCH 17 18
ATOM     18  CG  LEU B 104     -22.435   4.648   0.922  1.00 10.28 LIG-0.02  C 
ATOM     19  CD2 LEU B 104     -22.730   4.908   2.400  1.00 13.23 LIG 0.01  C 
ATOM     20  CD1 LEU B 104     -20.929   4.531   0.680  1.00 11.40 LIG 0.01  C 
ENDBRANCH 17 18
ENDBRANCH 5 17
ENDBRANCH 3 5
BRANCH 1 21
ATOM     21  CA  THR B 103     -26.462   8.517  -0.979  1.00  5.29 LIG 0.20  C 
BRANCH 21 22
ATOM     22  CB  THR B 103     -25.828   9.914  -0.868  1.00  5.94 LIG 0.15  C 
ATOM     23  CG2 THR B 103     -25.478  10.466  -2.255  1.00  6.62 LIG 0.04  C 
BRANCH 22 24
ATOM     24 OG1  THR B 103     -26.735  10.800  -0.201  1.00  6.95 LIG-0.39  OA
ATOM     25 HG1  THR B 103     -26.891  11.464  -0.691  1.00  6.95 LIG 0.21  HD
ENDBRANCH 22 24
ENDBRANCH 21 22
BRANCH 21 26
ATOM     26  N   THR B 103     -27.146   8.163   0.260  1.00  6.31 LIG-0.34  N 
ATOM     27  C   VAL B 102     -26.585   8.332   1.451  1.00  9.59 LIG 0.26  C 
ATOM     28 O    VAL B 102     -25.453   8.783   1.591  1.00 11.78 LIG-0.27  OA
ATOM     29 H    THR B 103     -27.935   7.839   0.146  1.00  6.31 LIG 0.16  HD
BRANCH 27 30
ATOM     30  CA  VAL B 102     -27.420   7.917   2.663  1.00 12.05 LIG 0.40  C 
ATOM     31  N   VAL B 102     -28.320   6.818   2.326  1.00 12.38 LIG 0.61  N 
BRANCH 30 32
ATOM     32  CB  VAL B 102     -26.493   7.541   3.838  1.00 15.16 LIG 0.03  C 
ATOM     33  CG1 VAL B 102     -25.431   6.561   3.376  1.00 16.31 LIG 0.01  C 
ATOM     34  CG2 VAL B 102     -25.836   8.780   4.415  1.00 16.97 LIG 0.01  C 
ENDBRANCH 30 32
ENDBRANCH 27 30
ENDBRANCH 21 26
ENDBRANCH 1 21
TORSDOF 13
ENDMDL
MODEL 38
USER: ADFR SOLUTION from run 132
USER: SCORE 12.289349 LL:  -2.875 LR:  -9.712 RR:   0.000 FEB:  -5.834
USER: RMSD 7.837261
USER: SEED 131
USER: STATUS no improvement in best in 7 clusters for 5 generations
USER: GENES 15
USER: genes 0 Translation |==|  0.47565 0.21795 0.70637
USER: genes 1 Rotation |==|  0.04663 0.47730 0.32208 0.61084
USER: genes 2 Torsion [C]-N--CA-[C] |==|  0.56140
USER: genes 3 Torsion [N]-CA--C-[N] |==|  0.49976
USER: genes 4 Torsion [C]-N--CA-[CB] |==|  0.88119
USER: genes 5 Torsion [N]-CA--CB-[CG1] |==|  0.50934
USER: genes 6 Torsion [N]-CA--C-[OXT] |==|  0.84853
USER: genes 7 Torsion [N]-CA--CB-[CG] |==|  0.68801
USER: genes 8 Torsion [CA]-CB--CG-[CD1] |==|  0.66136
USER: genes 9 Torsion [N]-C--CA-[N] |==|  0.97606
USER: genes 10 Torsion [C]-CA--CB-[CG2] |==|  0.41845
USER: genes 11 Torsion [CA]-CB--OG1-[HG1] |==|  0.20144
USER: genes 12 Torsion [C]-CA--N-[C] |==|  0.79188
USER: genes 13 Torsion [N]-C--CA-[N] |==|  0.52355
USER: genes 14 Torsion [C]-CA--CB-[CG1] |==|  0.34357
ROOT
ATOM      1  C   THR B 103     -25.800   3.534   2.895  1.00  4.93 LIG 0.24  C 
ATOM      2 O    THR B 103     -24.861   3.702   3.673  1.00  4.94 LIG-0.27  OA
ATOM      3  N   LEU B 104     -25.836   4.076   1.683  1.00  4.18 LIG-0.35  N 
ATOM      4 H    LEU B 104     -26.476   3.960   1.120  1.00  4.18 LIG 0.16  HD
ENDROOT
BRANCH 3 5
ATOM      5  CA  LEU B 104     -24.760   4.931   1.210  1.00  5.70 LIG 0.18  C 
BRANCH 5 6
ATOM      6  C   LEU B 104     -25.259   5.825   0.095  1.00  6.53 LIG 0.24  C 
ATOM      7 O    LEU B 104     -26.426   5.754  -0.294  1.00  8.21 LIG-0.27  OA
ATOM      8  N   VAL B 105     -24.371   6.660  -0.426  1.00  6.80 LIG-0.34  N 
ATOM      9 H    VAL B 105     -23.564   6.744  -0.140  1.00  6.80 LIG 0.16  HD
BRANCH 8 10
ATOM     10  CA  VAL B 105     -24.703   7.522  -1.553  1.00  6.91 LIG 0.19  C 
BRANCH 10 11
ATOM     11  CB  VAL B 105     -25.515   6.778  -2.629  1.00  6.78 LIG 0.01  C 
ATOM     12  CG1 VAL B 105     -25.774   7.678  -3.826  1.00  6.96 LIG 0.01  C 
ATOM     13  CG2 VAL B 105     -24.779   5.516  -3.070  1.00  7.27 LIG 0.01  C 
ENDBRANCH 10 11
BRANCH 10 14
ATOM     14  C   VAL B 105     -25.502   8.724  -1.065  1.00  6.40 LIG 0.20  C 
ATOM     15 OXT  VAL B 105     -26.534   8.557  -0.406  1.00  6.01 LIG-0.65  OA
ATOM     16 O    VAL B 105     -25.122   9.882  -1.315  1.00  5.94 LIG-0.65  OA
ENDBRANCH 10 14
ENDBRANCH 8 10
ENDBRANCH 5 6
BRANCH 5 17
ATOM     17  CB  LEU B 104     -23.581   4.095   0.705  1.00  7.33 LIG 0.04  C 
BRANCH 17 18
ATOM     18  CG  LEU B 104     -22.283   4.159   1.520  1.00 10.28 LIG-0.02  C 
ATOM     19  CD2 LEU B 104     -22.470   5.045   2.752  1.00 13.23 LIG 0.01  C 
ATOM     20  CD1 LEU B 104     -21.098   4.638   0.680  1.00 11.40 LIG 0.01  C 
ENDBRANCH 17 18
ENDBRANCH 5 17
ENDBRANCH 3 5
BRANCH 1 21
ATOM     21  CA  THR B 103     -26.976   2.657   3.286  1.00  5.29 LIG 0.20  C 
BRANCH 21 22
ATOM     22  CB  THR B 103     -26.493   1.202   3.403  1.00  5.94 LIG 0.15  C 
ATOM     23  CG2 THR B 103     -27.328   0.430   4.430  1.00  6.62 LIG 0.04  C 
BRANCH 22 24
ATOM     24 OG1  THR B 103     -26.578   0.565   2.121  1.00  6.95 LIG-0.39  OA
ATOM     25 HG1  THR B 103     -25.974   0.864   1.619  1.00  6.95 LIG 0.21  HD
ENDBRANCH 22 24
ENDBRANCH 21 22
BRANCH 21 26
ATOM     26  N   THR B 103     -28.015   2.775   2.268  1.00  6.31 LIG-0.34  N 
ATOM     27  C   VAL B 102     -28.789   3.849   2.169  1.00  9.59 LIG 0.26  C 
ATOM     28 O    VAL B 102     -28.693   4.807   2.930  1.00 11.78 LIG-0.27  OA
ATOM     29 H    THR B 103     -28.077   2.093   1.748  1.00  6.31 LIG 0.16  HD
BRANCH 27 30
ATOM     30  CA  VAL B 102     -29.835   3.835   1.054  1.00 12.05 LIG 0.40  C 
ATOM     31  N   VAL B 102     -30.478   5.139   0.924  1.00 12.38 LIG 0.61  N 
BRANCH 30 32
ATOM     32  CB  VAL B 102     -29.181   3.399  -0.275  1.00 15.16 LIG 0.03  C 
ATOM     33  CG1 VAL B 102     -29.904   2.193  -0.845  1.00 16.31 LIG 0.01  C 
ATOM     34  CG2 VAL B 102     -29.205   4.537  -1.277  1.00 16.97 LIG 0.01  C 
ENDBRANCH 30 32
ENDBRANCH 27 30
ENDBRANCH 21 26
ENDBRANCH 1 21
TORSDOF 13
ENDMDL
MODEL 39
USER: ADFR SOLUTION from run 108
USER: SCORE 12.625964 LL:  -3.028 LR:  -9.703 RR:   0.000 FEB:  -5.825
USER: RMSD 4.324878
USER: SEED 107
USER: STATUS no improvement in best in 10 clusters for 5 generations
USER: GENES 15
USER: genes 0 Translation |==|  0.49397 0.41664 0.39068
USER: genes 1 Rotation |==|  0.45836 0.49529 0.56373 0.99415
USER: genes 2 Torsion [C]-N--CA-[C] |==|  0.78239
USER: genes 3 Torsion [N]-CA--C-[N] |==|  0.44162
USER: genes 4 Torsion [C]-N--CA-[CB] |==|  0.27972
USER: genes 5 Torsion [N]-CA--CB-[CG1] |==|  0.01397
USER: genes 6 Torsion [N]-CA--C-[OXT] |==|  0.90562
USER: genes 7 Torsion [N]-CA--CB-[CG] |==|  0.68108
USER: genes 8 Torsion [CA]-CB--CG-[CD1] |==|  0.82694
USER: genes 9 Torsion [N]-C--CA-[N] |==|  0.99072
USER: genes 10 Torsion [C]-CA--CB-[CG2] |==|  0.56503
USER: genes 11 Torsion [CA]-CB--OG1-[HG1] |==|  0.25503
USER: genes 12 Torsion [C]-CA--N-[C] |==|  0.72586
USER: genes 13 Torsion [N]-C--CA-[N] |==|  0.45791
USER: genes 14 Torsion [C]-CA--CB-[CG1] |==|  0.88440
ROOT
ATOM      1  C   THR B 103     -25.539   7.408  -2.788  1.00  4.93 LIG 0.24  C 
ATOM      2 O    THR B 103     -24.328   7.535  -2.602  1.00  4.94 LIG-0.27  OA
ATOM      3  N   LEU B 104     -26.412   7.304  -1.794  1.00  4.18 LIG-0.35  N 
ATOM      4 H    LEU B 104     -27.262   7.229  -1.902  1.00  4.18 LIG 0.16  HD
ENDROOT
BRANCH 3 5
ATOM      5  CA  LEU B 104     -25.976   7.310  -0.407  1.00  5.70 LIG 0.18  C 
BRANCH 5 6
ATOM      6  C   LEU B 104     -25.420   5.953  -0.031  1.00  6.53 LIG 0.24  C 
ATOM      7 O    LEU B 104     -25.725   4.948  -0.676  1.00  8.21 LIG-0.27  OA
ATOM      8  N   VAL B 105     -24.611   5.923   1.018  1.00  6.80 LIG-0.34  N 
ATOM      9 H    VAL B 105     -24.362   6.622   1.454  1.00  6.80 LIG 0.16  HD
BRANCH 8 10
ATOM     10  CA  VAL B 105     -24.066   4.672   1.528  1.00  6.91 LIG 0.19  C 
BRANCH 10 11
ATOM     11  CB  VAL B 105     -22.615   4.445   1.068  1.00  6.78 LIG 0.01  C 
ATOM     12  CG1 VAL B 105     -22.097   5.653   0.305  1.00  6.96 LIG 0.01  C 
ATOM     13  CG2 VAL B 105     -21.717   4.159   2.269  1.00  7.27 LIG 0.01  C 
ENDBRANCH 10 11
BRANCH 10 14
ATOM     14  C   VAL B 105     -24.115   4.670   3.051  1.00  6.40 LIG 0.20  C 
ATOM     15 OXT  VAL B 105     -23.953   5.722   3.678  1.00  6.01 LIG-0.65  OA
ATOM     16 O    VAL B 105     -24.328   3.616   3.677  1.00  5.94 LIG-0.65  OA
ENDBRANCH 10 14
ENDBRANCH 8 10
ENDBRANCH 5 6
BRANCH 5 17
ATOM     17  CB  LEU B 104     -27.137   7.661   0.529  1.00  7.33 LIG 0.04  C 
BRANCH 17 18
ATOM     18  CG  LEU B 104     -27.027   8.977   1.310  1.00 10.28 LIG-0.02  C 
ATOM     19  CD2 LEU B 104     -26.965  10.165   0.349  1.00 13.23 LIG 0.01  C 
ATOM     20  CD1 LEU B 104     -25.828   8.984   2.261  1.00 11.40 LIG 0.01  C 
ENDBRANCH 17 18
ENDBRANCH 5 17
ENDBRANCH 3 5
BRANCH 1 21
ATOM     21  CA  THR B 103     -26.104   7.391  -4.197  1.00  5.29 LIG 0.20  C 
BRANCH 21 22
ATOM     22  CB  THR B 103     -25.786   8.734  -4.875  1.00  5.94 LIG 0.15  C 
ATOM     23  CG2 THR B 103     -26.773   9.018  -6.014  1.00  6.62 LIG 0.04  C 
BRANCH 22 24
ATOM     24 OG1  THR B 103     -25.842   9.786  -3.903  1.00  6.95 LIG-0.39  OA
ATOM     25 HG1  THR B 103     -25.078   9.906  -3.575  1.00  6.95 LIG 0.21  HD
ENDBRANCH 22 24
ENDBRANCH 21 22
BRANCH 21 26
ATOM     26  N   THR B 103     -27.545   7.176  -4.128  1.00  6.31 LIG-0.34  N 
ATOM     27  C   VAL B 102     -28.091   5.980  -4.315  1.00  9.59 LIG 0.26  C 
ATOM     28 O    VAL B 102     -27.426   4.982  -4.570  1.00 11.78 LIG-0.27  OA
ATOM     29 H    THR B 103     -27.999   7.886  -3.958  1.00  6.31 LIG 0.16  HD
BRANCH 27 30
ATOM     30  CA  VAL B 102     -29.615   5.904  -4.212  1.00 12.05 LIG 0.40  C 
ATOM     31  N   VAL B 102     -30.114   4.654  -4.777  1.00 12.38 LIG 0.61  N 
BRANCH 30 32
ATOM     32  CB  VAL B 102     -30.052   6.067  -2.740  1.00 15.16 LIG 0.03  C 
ATOM     33  CG1 VAL B 102     -29.127   5.283  -1.829  1.00 16.31 LIG 0.01  C 
ATOM     34  CG2 VAL B 102     -30.050   7.530  -2.345  1.00 16.97 LIG 0.01  C 
ENDBRANCH 30 32
ENDBRANCH 27 30
ENDBRANCH 21 26
ENDBRANCH 1 21
TORSDOF 13
ENDMDL
MODEL 40
USER: ADFR SOLUTION from run 196
USER: SCORE 11.466910 LL:  -2.506 LR:  -9.686 RR:   0.000 FEB:  -5.808
USER: RMSD 4.347934
USER: SEED 195
USER: STATUS no improvement in best in 7 clusters for 5 generations
USER: GENES 15
USER: genes 0 Translation |==|  0.45500 0.42504 0.49698
USER: genes 1 Rotation |==|  0.49288 0.66013 0.03505 0.59018
USER: genes 2 Torsion [C]-N--CA-[C] |==|  0.16548
USER: genes 3 Torsion [N]-CA--C-[N] |==|  0.61918
USER: genes 4 Torsion [C]-N--CA-[CB] |==|  0.24297
USER: genes 5 Torsion [N]-CA--CB-[CG1] |==|  0.70231
USER: genes 6 Torsion [N]-CA--C-[OXT] |==|  0.86805
USER: genes 7 Torsion [N]-CA--CB-[CG] |==|  0.65916
USER: genes 8 Torsion [CA]-CB--CG-[CD1] |==|  0.91674
USER: genes 9 Torsion [N]-C--CA-[N] |==|  0.40438
USER: genes 10 Torsion [C]-CA--CB-[CG2] |==|  0.02876
USER: genes 11 Torsion [CA]-CB--OG1-[HG1] |==|  0.12069
USER: genes 12 Torsion [C]-CA--N-[C] |==|  0.74580
USER: genes 13 Torsion [N]-C--CA-[N] |==|  0.80078
USER: genes 14 Torsion [C]-CA--CB-[CG1] |==|  0.74466
ROOT
ATOM      1  C   THR B 103     -26.094   7.572  -0.874  1.00  4.93 LIG 0.24  C 
ATOM      2 O    THR B 103     -27.266   7.222  -0.730  1.00  4.94 LIG-0.27  OA
ATOM      3  N   LEU B 104     -25.151   7.318   0.025  1.00  4.18 LIG-0.35  N 
ATOM      4 H    LEU B 104     -24.325   7.542  -0.064  1.00  4.18 LIG 0.16  HD
ENDROOT
BRANCH 3 5
ATOM      5  CA  LEU B 104     -25.461   6.620   1.262  1.00  5.70 LIG 0.18  C 
BRANCH 5 6
ATOM      6  C   LEU B 104     -26.030   5.251   0.958  1.00  6.53 LIG 0.24  C 
ATOM      7 O    LEU B 104     -25.535   4.547   0.075  1.00  8.21 LIG-0.27  OA
ATOM      8  N   VAL B 105     -27.074   4.877   1.683  1.00  6.80 LIG-0.34  N 
ATOM      9 H    VAL B 105     -27.405   5.344   2.325  1.00  6.80 LIG 0.16  HD
BRANCH 8 10
ATOM     10  CA  VAL B 105     -27.759   3.614   1.441  1.00  6.91 LIG 0.19  C 
BRANCH 10 11
ATOM     11  CB  VAL B 105     -27.118   2.452   2.220  1.00  6.78 LIG 0.01  C 
ATOM     12  CG1 VAL B 105     -26.351   1.534   1.283  1.00  6.96 LIG 0.01  C 
ATOM     13  CG2 VAL B 105     -26.189   2.990   3.305  1.00  7.27 LIG 0.01  C 
ENDBRANCH 10 11
BRANCH 10 14
ATOM     14  C   VAL B 105     -29.224   3.737   1.842  1.00  6.40 LIG 0.20  C 
ATOM     15 OXT  VAL B 105     -29.530   4.236   2.930  1.00  6.01 LIG-0.65  OA
ATOM     16 O    VAL B 105     -30.126   3.347   1.078  1.00  5.94 LIG-0.65  OA
ENDBRANCH 10 14
ENDBRANCH 8 10
ENDBRANCH 5 6
BRANCH 5 17
ATOM     17  CB  LEU B 104     -26.468   7.415   2.099  1.00  7.33 LIG 0.04  C 
BRANCH 17 18
ATOM     18  CG  LEU B 104     -26.042   7.796   3.522  1.00 10.28 LIG-0.02  C 
ATOM     19  CD2 LEU B 104     -25.431   9.197   3.540  1.00 13.23 LIG 0.01  C 
ATOM     20  CD1 LEU B 104     -25.078   6.774   4.128  1.00 11.40 LIG 0.01  C 
ENDBRANCH 17 18
ENDBRANCH 5 17
ENDBRANCH 3 5
BRANCH 1 21
ATOM     21  CA  THR B 103     -25.660   8.307  -2.130  1.00  5.29 LIG 0.20  C 
BRANCH 21 22
ATOM     22  CB  THR B 103     -25.881   9.815  -1.924  1.00  5.94 LIG 0.15  C 
ATOM     23  CG2 THR B 103     -26.215  10.123  -0.460  1.00  6.62 LIG 0.04  C 
BRANCH 22 24
ATOM     24 OG1  THR B 103     -24.703  10.529  -2.320  1.00  6.95 LIG-0.39  OA
ATOM     25 HG1  THR B 103     -24.413  10.213  -3.043  1.00  6.95 LIG 0.21  HD
ENDBRANCH 22 24
ENDBRANCH 21 22
BRANCH 21 26
ATOM     26  N   THR B 103     -26.446   7.821  -3.260  1.00  6.31 LIG-0.34  N 
ATOM     27  C   VAL B 102     -26.039   6.812  -4.021  1.00  9.59 LIG 0.26  C 
ATOM     28 O    VAL B 102     -24.975   6.230  -3.836  1.00 11.78 LIG-0.27  OA
ATOM     29 H    THR B 103     -27.185   8.244  -3.383  1.00  6.31 LIG 0.16  HD
BRANCH 27 30
ATOM     30  CA  VAL B 102     -26.965   6.409  -5.169  1.00 12.05 LIG 0.40  C 
ATOM     31  N   VAL B 102     -28.163   5.744  -4.665  1.00 12.38 LIG 0.61  N 
BRANCH 30 32
ATOM     32  CB  VAL B 102     -27.328   7.650  -6.013  1.00 15.16 LIG 0.03  C 
ATOM     33  CG1 VAL B 102     -28.609   8.278  -5.499  1.00 16.31 LIG 0.01  C 
ATOM     34  CG2 VAL B 102     -26.203   8.665  -5.976  1.00 16.97 LIG 0.01  C 
ENDBRANCH 30 32
ENDBRANCH 27 30
ENDBRANCH 21 26
ENDBRANCH 1 21
TORSDOF 13
ENDMDL
MODEL 41
USER: ADFR SOLUTION from run 151
USER: SCORE 12.271954 LL:  -3.221 LR:  -9.690 RR:   0.000 FEB:  -5.812
USER: RMSD 4.824497
USER: SEED 150
USER: STATUS no improvement in best in 4 clusters for 5 generations
USER: GENES 15
USER: genes 0 Translation |==|  0.42745 0.48092 0.62219
USER: genes 1 Rotation |==|  0.40114 0.54760 0.02596 0.61509
USER: genes 2 Torsion [C]-N--CA-[C] |==|  0.18554
USER: genes 3 Torsion [N]-CA--C-[N] |==|  0.02603
USER: genes 4 Torsion [C]-N--CA-[CB] |==|  0.36877
USER: genes 5 Torsion [N]-CA--CB-[CG1] |==|  0.55891
USER: genes 6 Torsion [N]-CA--C-[OXT] |==|  0.02279
USER: genes 7 Torsion [N]-CA--CB-[CG] |==|  0.31910
USER: genes 8 Torsion [CA]-CB--CG-[CD1] |==|  0.31490
USER: genes 9 Torsion [N]-C--CA-[N] |==|  0.27893
USER: genes 10 Torsion [C]-CA--CB-[CG2] |==|  0.32382
USER: genes 11 Torsion [CA]-CB--OG1-[HG1] |==|  0.38553
USER: genes 12 Torsion [C]-CA--N-[C] |==|  0.67158
USER: genes 13 Torsion [N]-C--CA-[N] |==|  0.37565
USER: genes 14 Torsion [C]-CA--CB-[CG1] |==|  0.97674
ROOT
ATOM      1  C   THR B 103     -26.487   8.662   1.379  1.00  4.93 LIG 0.24  C 
ATOM      2 O    THR B 103     -27.488   8.264   1.976  1.00  4.94 LIG-0.27  OA
ATOM      3  N   LEU B 104     -25.375   9.028   2.005  1.00  4.18 LIG-0.35  N 
ATOM      4 H    LEU B 104     -24.661   9.295   1.606  1.00  4.18 LIG 0.16  HD
ENDROOT
BRANCH 3 5
ATOM      5  CA  LEU B 104     -25.285   9.002   3.456  1.00  5.70 LIG 0.18  C 
BRANCH 5 6
ATOM      6  C   LEU B 104     -25.347   7.573   3.954  1.00  6.53 LIG 0.24  C 
ATOM      7 O    LEU B 104     -25.453   7.332   5.159  1.00  8.21 LIG-0.27  OA
ATOM      8  N   VAL B 105     -25.273   6.627   3.030  1.00  6.80 LIG-0.34  N 
ATOM      9 H    VAL B 105     -25.235   6.783   2.184  1.00  6.80 LIG 0.16  HD
BRANCH 8 10
ATOM     10  CA  VAL B 105     -25.248   5.214   3.383  1.00  6.91 LIG 0.19  C 
BRANCH 10 11
ATOM     11  CB  VAL B 105     -26.231   4.390   2.532  1.00  6.78 LIG 0.01  C 
ATOM     12  CG1 VAL B 105     -26.578   3.083   3.225  1.00  6.96 LIG 0.01  C 
ATOM     13  CG2 VAL B 105     -27.500   5.193   2.260  1.00  7.27 LIG 0.01  C 
ENDBRANCH 10 11
BRANCH 10 14
ATOM     14  C   VAL B 105     -23.840   4.661   3.198  1.00  6.40 LIG 0.20  C 
ATOM     15 OXT  VAL B 105     -22.901   5.424   2.949  1.00  6.01 LIG-0.65  OA
ATOM     16 O    VAL B 105     -23.619   3.441   3.305  1.00  5.94 LIG-0.65  OA
ENDBRANCH 10 14
ENDBRANCH 8 10
ENDBRANCH 5 6
BRANCH 5 17
ATOM     17  CB  LEU B 104     -26.422   9.811   4.087  1.00  7.33 LIG 0.04  C 
BRANCH 17 18
ATOM     18  CG  LEU B 104     -27.447   9.035   4.923  1.00 10.28 LIG-0.02  C 
ATOM     19  CD2 LEU B 104     -28.857   9.245   4.368  1.00 13.23 LIG 0.01  C 
ATOM     20  CD1 LEU B 104     -27.384   9.409   6.405  1.00 11.40 LIG 0.01  C 
ENDBRANCH 17 18
ENDBRANCH 5 17
ENDBRANCH 3 5
BRANCH 1 21
ATOM     21  CA  THR B 103     -26.471   8.729  -0.138  1.00  5.29 LIG 0.20  C 
BRANCH 21 22
ATOM     22  CB  THR B 103     -27.817   9.292  -0.624  1.00  5.94 LIG 0.15  C 
ATOM     23  CG2 THR B 103     -27.621  10.629  -1.346  1.00  6.62 LIG 0.04  C 
BRANCH 22 24
ATOM     24 OG1  THR B 103     -28.442   8.346  -1.501  1.00  6.95 LIG-0.39  OA
ATOM     25 HG1  THR B 103     -29.265   8.311  -1.335  1.00  6.95 LIG 0.21  HD
ENDBRANCH 22 24
ENDBRANCH 21 22
BRANCH 21 26
ATOM     26  N   THR B 103     -26.251   7.388  -0.669  1.00  6.31 LIG-0.34  N 
ATOM     27  C   VAL B 102     -25.188   7.084  -1.404  1.00  9.59 LIG 0.26  C 
ATOM     28 O    VAL B 102     -24.328   7.909  -1.697  1.00 11.78 LIG-0.27  OA
ATOM     29 H    THR B 103     -26.866   6.822  -0.464  1.00  6.31 LIG 0.16  HD
BRANCH 27 30
ATOM     30  CA  VAL B 102     -25.088   5.639  -1.893  1.00 12.05 LIG 0.40  C 
ATOM     31  N   VAL B 102     -24.703   5.588  -3.300  1.00 12.38 LIG 0.61  N 
BRANCH 30 32
ATOM     32  CB  VAL B 102     -24.092   4.853  -1.012  1.00 15.16 LIG 0.03  C 
ATOM     33  CG1 VAL B 102     -23.368   5.796  -0.070  1.00 16.31 LIG 0.01  C 
ATOM     34  CG2 VAL B 102     -24.815   3.783  -0.218  1.00 16.97 LIG 0.01  C 
ENDBRANCH 30 32
ENDBRANCH 27 30
ENDBRANCH 21 26
ENDBRANCH 1 21
TORSDOF 13
ENDMDL
MODEL 42
USER: ADFR SOLUTION from run 45
USER: SCORE 11.166632 LL:  -2.548 LR:  -9.659 RR:   0.000 FEB:  -5.781
USER: RMSD 4.691137
USER: SEED 44
USER: STATUS no improvement in best in 15 clusters for 5 generations
USER: GENES 15
USER: genes 0 Translation |==|  0.50416 0.44921 0.43217
USER: genes 1 Rotation |==|  0.68994 0.35802 0.72801 0.87653
USER: genes 2 Torsion [C]-N--CA-[C] |==|  0.20367
USER: genes 3 Torsion [N]-CA--C-[N] |==|  0.59898
USER: genes 4 Torsion [C]-N--CA-[CB] |==|  0.23750
USER: genes 5 Torsion [N]-CA--CB-[CG1] |==|  0.78163
USER: genes 6 Torsion [N]-CA--C-[OXT] |==|  0.42832
USER: genes 7 Torsion [N]-CA--CB-[CG] |==|  0.57115
USER: genes 8 Torsion [CA]-CB--CG-[CD1] |==|  0.64488
USER: genes 9 Torsion [N]-C--CA-[N] |==|  0.07734
USER: genes 10 Torsion [C]-CA--CB-[CG2] |==|  0.86635
USER: genes 11 Torsion [CA]-CB--OG1-[HG1] |==|  0.09576
USER: genes 12 Torsion [C]-CA--N-[C] |==|  0.68861
USER: genes 13 Torsion [N]-C--CA-[N] |==|  0.42317
USER: genes 14 Torsion [C]-CA--CB-[CG1] |==|  0.95913
ROOT
ATOM      1  C   THR B 103     -25.394   8.044  -2.041  1.00  4.93 LIG 0.24  C 
ATOM      2 O    THR B 103     -24.705   8.419  -1.091  1.00  4.94 LIG-0.27  OA
ATOM      3  N   LEU B 104     -25.802   6.789  -2.183  1.00  4.18 LIG-0.35  N 
ATOM      4 H    LEU B 104     -26.294   6.510  -2.831  1.00  4.18 LIG 0.16  HD
ENDROOT
BRANCH 3 5
ATOM      5  CA  LEU B 104     -25.432   5.765  -1.220  1.00  5.70 LIG 0.18  C 
BRANCH 5 6
ATOM      6  C   LEU B 104     -26.207   5.956   0.067  1.00  6.53 LIG 0.24  C 
ATOM      7 O    LEU B 104     -27.370   6.364   0.044  1.00  8.21 LIG-0.27  OA
ATOM      8  N   VAL B 105     -25.560   5.671   1.187  1.00  6.80 LIG-0.34  N 
ATOM      9 H    VAL B 105     -24.761   5.351   1.213  1.00  6.80 LIG 0.16  HD
BRANCH 8 10
ATOM     10  CA  VAL B 105     -26.167   5.881   2.494  1.00  6.91 LIG 0.19  C 
BRANCH 10 11
ATOM     11  CB  VAL B 105     -27.028   4.681   2.930  1.00  6.78 LIG 0.01  C 
ATOM     12  CG1 VAL B 105     -28.378   4.706   2.233  1.00  6.96 LIG 0.01  C 
ATOM     13  CG2 VAL B 105     -26.304   3.372   2.626  1.00  7.27 LIG 0.01  C 
ENDBRANCH 10 11
BRANCH 10 14
ATOM     14  C   VAL B 105     -25.080   6.121   3.535  1.00  6.40 LIG 0.20  C 
ATOM     15 OXT  VAL B 105     -25.332   6.769   4.557  1.00  6.01 LIG-0.65  OA
ATOM     16 O    VAL B 105     -23.935   5.663   3.374  1.00  5.94 LIG-0.65  OA
ENDBRANCH 10 14
ENDBRANCH 8 10
ENDBRANCH 5 6
BRANCH 5 17
ATOM     17  CB  LEU B 104     -23.930   5.814  -0.921  1.00  7.33 LIG 0.04  C 
BRANCH 17 18
ATOM     18  CG  LEU B 104     -23.273   4.512  -0.445  1.00 10.28 LIG-0.02  C 
ATOM     19  CD2 LEU B 104     -24.324   3.414  -0.278  1.00 13.23 LIG 0.01  C 
ATOM     20  CD1 LEU B 104     -22.479   4.708   0.848  1.00 11.40 LIG 0.01  C 
ENDBRANCH 17 18
ENDBRANCH 5 17
ENDBRANCH 3 5
BRANCH 1 21
ATOM     21  CA  THR B 103     -25.839   9.031  -3.105  1.00  5.29 LIG 0.20  C 
BRANCH 21 22
ATOM     22  CB  THR B 103     -25.994  10.418  -2.461  1.00  5.94 LIG 0.15  C 
ATOM     23  CG2 THR B 103     -26.806  10.330  -1.163  1.00  6.62 LIG 0.04  C 
BRANCH 22 24
ATOM     24 OG1  THR B 103     -24.699  10.970  -2.193  1.00  6.95 LIG-0.39  OA
ATOM     25 HG1  THR B 103     -24.162  10.731  -2.795  1.00  6.95 LIG 0.21  HD
ENDBRANCH 22 24
ENDBRANCH 21 22
BRANCH 21 26
ATOM     26  N   THR B 103     -27.106   8.580  -3.671  1.00  6.31 LIG-0.34  N 
ATOM     27  C   VAL B 102     -27.209   8.152  -4.923  1.00  9.59 LIG 0.26  C 
ATOM     28 O    VAL B 102     -26.253   8.118  -5.691  1.00 11.78 LIG-0.27  OA
ATOM     29 H    THR B 103     -27.769   8.618  -3.124  1.00  6.31 LIG 0.16  HD
BRANCH 27 30
ATOM     30  CA  VAL B 102     -28.599   7.709  -5.380  1.00 12.05 LIG 0.40  C 
ATOM     31  N   VAL B 102     -28.758   7.887  -6.820  1.00 12.38 LIG 0.61  N 
BRANCH 30 32
ATOM     32  CB  VAL B 102     -28.847   6.242  -4.967  1.00 15.16 LIG 0.03  C 
ATOM     33  CG1 VAL B 102     -27.540   5.582  -4.570  1.00 16.31 LIG 0.01  C 
ATOM     34  CG2 VAL B 102     -29.831   6.173  -3.816  1.00 16.97 LIG 0.01  C 
ENDBRANCH 30 32
ENDBRANCH 27 30
ENDBRANCH 21 26
ENDBRANCH 1 21
TORSDOF 13
ENDMDL
MODEL 43
USER: ADFR SOLUTION from run 196
USER: SCORE 11.591852 LL:  -2.426 LR:  -9.627 RR:   0.000 FEB:  -5.749
USER: RMSD 5.592671
USER: SEED 195
USER: STATUS no improvement in best in 7 clusters for 5 generations
USER: GENES 15
USER: genes 0 Translation |==|  0.48127 0.36258 0.55294
USER: genes 1 Rotation |==|  0.49974 0.63826 0.02938 0.59695
USER: genes 2 Torsion [C]-N--CA-[C] |==|  0.75293
USER: genes 3 Torsion [N]-CA--C-[N] |==|  0.15000
USER: genes 4 Torsion [C]-N--CA-[CB] |==|  0.26740
USER: genes 5 Torsion [N]-CA--CB-[CG1] |==|  0.50873
USER: genes 6 Torsion [N]-CA--C-[OXT] |==|  0.91288
USER: genes 7 Torsion [N]-CA--CB-[CG] |==|  0.84784
USER: genes 8 Torsion [CA]-CB--CG-[CD1] |==|  0.90631
USER: genes 9 Torsion [N]-C--CA-[N] |==|  0.45139
USER: genes 10 Torsion [C]-CA--CB-[CG2] |==|  0.67516
USER: genes 11 Torsion [CA]-CB--OG1-[HG1] |==|  0.19926
USER: genes 12 Torsion [C]-CA--N-[C] |==|  0.63096
USER: genes 13 Torsion [N]-C--CA-[N] |==|  0.95069
USER: genes 14 Torsion [C]-CA--CB-[CG1] |==|  0.60732
ROOT
ATOM      1  C   THR B 103     -25.720   6.354   0.133  1.00  4.93 LIG 0.24  C 
ATOM      2 O    THR B 103     -26.893   5.999   0.247  1.00  4.94 LIG-0.27  OA
ATOM      3  N   LEU B 104     -24.821   6.191   1.096  1.00  4.18 LIG-0.35  N 
ATOM      4 H    LEU B 104     -23.994   6.419   1.030  1.00  4.18 LIG 0.16  HD
ENDROOT
BRANCH 3 5
ATOM      5  CA  LEU B 104     -25.185   5.593   2.370  1.00  5.70 LIG 0.18  C 
BRANCH 5 6
ATOM      6  C   LEU B 104     -25.656   6.664   3.331  1.00  6.53 LIG 0.24  C 
ATOM      7 O    LEU B 104     -25.147   6.772   4.449  1.00  8.21 LIG-0.27  OA
ATOM      8  N   VAL B 105     -26.633   7.448   2.900  1.00  6.80 LIG-0.34  N 
ATOM      9 H    VAL B 105     -26.971   7.405   2.110  1.00  6.80 LIG 0.16  HD
BRANCH 8 10
ATOM     10  CA  VAL B 105     -27.225   8.469   3.753  1.00  6.91 LIG 0.19  C 
BRANCH 10 11
ATOM     11  CB  VAL B 105     -26.598   9.855   3.514  1.00  6.78 LIG 0.01  C 
ATOM     12  CG1 VAL B 105     -27.181  10.881   4.471  1.00  6.96 LIG 0.01  C 
ATOM     13  CG2 VAL B 105     -25.082   9.786   3.679  1.00  7.27 LIG 0.01  C 
ENDBRANCH 10 11
BRANCH 10 14
ATOM     14  C   VAL B 105     -28.726   8.549   3.497  1.00  6.40 LIG 0.20  C 
ATOM     15 OXT  VAL B 105     -29.177   8.300   2.374  1.00  6.01 LIG-0.65  OA
ATOM     16 O    VAL B 105     -29.510   8.855   4.413  1.00  5.94 LIG-0.65  OA
ENDBRANCH 10 14
ENDBRANCH 8 10
ENDBRANCH 5 6
BRANCH 5 17
ATOM     17  CB  LEU B 104     -23.996   4.846   2.982  1.00  7.33 LIG 0.04  C 
BRANCH 17 18
ATOM     18  CG  LEU B 104     -23.325   3.775   2.113  1.00 10.28 LIG-0.02  C 
ATOM     19  CD2 LEU B 104     -22.192   4.388   1.289  1.00 13.23 LIG 0.01  C 
ATOM     20  CD1 LEU B 104     -24.328   3.056   1.209  1.00 11.40 LIG 0.01  C 
ENDBRANCH 17 18
ENDBRANCH 5 17
ENDBRANCH 3 5
BRANCH 1 21
ATOM     21  CA  THR B 103     -25.231   6.989  -1.157  1.00  5.29 LIG 0.20  C 
BRANCH 21 22
ATOM     22  CB  THR B 103     -25.078   8.504  -0.938  1.00  5.94 LIG 0.15  C 
ATOM     23  CG2 THR B 103     -26.034   9.286  -1.845  1.00  6.62 LIG 0.04  C 
BRANCH 22 24
ATOM     24 OG1  THR B 103     -25.339   8.817   0.437  1.00  6.95 LIG-0.39  OA
ATOM     25 HG1  THR B 103     -24.703   8.541   0.913  1.00  6.95 LIG 0.21  HD
ENDBRANCH 22 24
ENDBRANCH 21 22
BRANCH 21 26
ATOM     26  N   THR B 103     -26.197   6.717  -2.216  1.00  6.31 LIG-0.34  N 
ATOM     27  C   VAL B 102     -25.828   6.278  -3.413  1.00  9.59 LIG 0.26  C 
ATOM     28 O    VAL B 102     -24.655   6.085  -3.715  1.00 11.78 LIG-0.27  OA
ATOM     29 H    THR B 103     -27.015   6.866  -1.993  1.00  6.31 LIG 0.16  HD
BRANCH 27 30
ATOM     30  CA  VAL B 102     -26.949   6.034  -4.424  1.00 12.05 LIG 0.40  C 
ATOM     31  N   VAL B 102     -28.243   5.935  -3.756  1.00 12.38 LIG 0.61  N 
BRANCH 30 32
ATOM     32  CB  VAL B 102     -26.953   7.155  -5.487  1.00 15.16 LIG 0.03  C 
ATOM     33  CG1 VAL B 102     -28.378   7.529  -5.849  1.00 16.31 LIG 0.01  C 
ATOM     34  CG2 VAL B 102     -26.212   8.375  -4.975  1.00 16.97 LIG 0.01  C 
ENDBRANCH 30 32
ENDBRANCH 27 30
ENDBRANCH 21 26
ENDBRANCH 1 21
TORSDOF 13
ENDMDL
MODEL 44
USER: ADFR SOLUTION from run 83
USER: SCORE 11.859577 LL:  -2.775 LR:  -9.625 RR:   0.000 FEB:  -5.747
USER: RMSD 4.169404
USER: SEED 82
USER: STATUS no improvement in best in 6 clusters for 5 generations
USER: GENES 15
USER: genes 0 Translation |==|  0.43248 0.46783 0.52343
USER: genes 1 Rotation |==|  0.57153 0.90552 0.25931 0.65002
USER: genes 2 Torsion [C]-N--CA-[C] |==|  0.64026
USER: genes 3 Torsion [N]-CA--C-[N] |==|  0.14969
USER: genes 4 Torsion [C]-N--CA-[CB] |==|  0.84114
USER: genes 5 Torsion [N]-CA--CB-[CG1] |==|  0.55118
USER: genes 6 Torsion [N]-CA--C-[OXT] |==|  0.66062
USER: genes 7 Torsion [N]-CA--CB-[CG] |==|  0.73323
USER: genes 8 Torsion [CA]-CB--CG-[CD1] |==|  0.90601
USER: genes 9 Torsion [N]-C--CA-[N] |==|  0.34453
USER: genes 10 Torsion [C]-CA--CB-[CG2] |==|  0.27391
USER: genes 11 Torsion [CA]-CB--OG1-[HG1] |==|  0.22858
USER: genes 12 Torsion [C]-CA--N-[C] |==|  0.83806
USER: genes 13 Torsion [N]-C--CA-[N] |==|  0.38366
USER: genes 14 Torsion [C]-CA--CB-[CG1] |==|  0.71103
ROOT
ATOM      1  C   THR B 103     -26.415   8.407  -0.398  1.00  4.93 LIG 0.24  C 
ATOM      2 O    THR B 103     -27.409   8.098  -1.057  1.00  4.94 LIG-0.27  OA
ATOM      3  N   LEU B 104     -25.411   7.568  -0.176  1.00  4.18 LIG-0.35  N 
ATOM      4 H    LEU B 104     -24.702   7.768   0.269  1.00  4.18 LIG 0.16  HD
ENDROOT
BRANCH 3 5
ATOM      5  CA  LEU B 104     -25.441   6.207  -0.687  1.00  5.70 LIG 0.18  C 
BRANCH 5 6
ATOM      6  C   LEU B 104     -25.126   5.228   0.424  1.00  6.53 LIG 0.24  C 
ATOM      7 O    LEU B 104     -24.228   4.394   0.291  1.00  8.21 LIG-0.27  OA
ATOM      8  N   VAL B 105     -25.871   5.323   1.516  1.00  6.80 LIG-0.34  N 
ATOM      9 H    VAL B 105     -26.476   5.923   1.635  1.00  6.80 LIG 0.16  HD
BRANCH 8 10
ATOM     10  CA  VAL B 105     -25.719   4.394   2.627  1.00  6.91 LIG 0.19  C 
BRANCH 10 11
ATOM     11  CB  VAL B 105     -25.916   2.932   2.188  1.00  6.78 LIG 0.01  C 
ATOM     12  CG1 VAL B 105     -26.203   2.044   3.388  1.00  6.96 LIG 0.01  C 
ATOM     13  CG2 VAL B 105     -27.054   2.831   1.176  1.00  7.27 LIG 0.01  C 
ENDBRANCH 10 11
BRANCH 10 14
ATOM     14  C   VAL B 105     -24.333   4.549   3.243  1.00  6.40 LIG 0.20  C 
ATOM     15 OXT  VAL B 105     -23.570   3.579   3.305  1.00  6.01 LIG-0.65  OA
ATOM     16 O    VAL B 105     -23.953   5.649   3.680  1.00  5.94 LIG-0.65  OA
ENDBRANCH 10 14
ENDBRANCH 8 10
ENDBRANCH 5 6
BRANCH 5 17
ATOM     17  CB  LEU B 104     -24.430   6.029  -1.824  1.00  7.33 LIG 0.04  C 
BRANCH 17 18
ATOM     18  CG  LEU B 104     -24.962   6.170  -3.256  1.00 10.28 LIG-0.02  C 
ATOM     19  CD2 LEU B 104     -24.856   7.623  -3.724  1.00 13.23 LIG 0.01  C 
ATOM     20  CD1 LEU B 104     -26.398   5.659  -3.390  1.00 11.40 LIG 0.01  C 
ENDBRANCH 17 18
ENDBRANCH 5 17
ENDBRANCH 3 5
BRANCH 1 21
ATOM     21  CA  THR B 103     -26.280   9.804   0.181  1.00  5.29 LIG 0.20  C 
BRANCH 21 22
ATOM     22  CB  THR B 103     -27.371  10.007   1.245  1.00  5.94 LIG 0.15  C 
ATOM     23  CG2 THR B 103     -26.811   9.780   2.654  1.00  6.62 LIG 0.04  C 
BRANCH 22 24
ATOM     24 OG1  THR B 103     -27.905  11.333   1.136  1.00  6.95 LIG-0.39  OA
ATOM     25 HG1  THR B 103     -28.484  11.353   0.528  1.00  6.95 LIG 0.21  HD
ENDBRANCH 22 24
ENDBRANCH 21 22
BRANCH 21 26
ATOM     26  N   THR B 103     -26.420  10.780  -0.894  1.00  6.31 LIG-0.34  N 
ATOM     27  C   VAL B 102     -25.619  10.784  -1.953  1.00  9.59 LIG 0.26  C 
ATOM     28 O    VAL B 102     -24.703   9.980  -2.094  1.00 11.78 LIG-0.27  OA
ATOM     29 H    THR B 103     -27.060  11.342  -0.778  1.00  6.31 LIG 0.16  HD
BRANCH 27 30
ATOM     30  CA  VAL B 102     -25.884  11.864  -3.002  1.00 12.05 LIG 0.40  C 
ATOM     31  N   VAL B 102     -24.633  12.442  -3.485  1.00 12.38 LIG 0.61  N 
BRANCH 30 32
ATOM     32  CB  VAL B 102     -26.714  11.277  -4.165  1.00 15.16 LIG 0.03  C 
ATOM     33  CG1 VAL B 102     -25.828  11.034  -5.372  1.00 16.31 LIG 0.01  C 
ATOM     34  CG2 VAL B 102     -27.378   9.982  -3.742  1.00 16.97 LIG 0.01  C 
ENDBRANCH 30 32
ENDBRANCH 27 30
ENDBRANCH 21 26
ENDBRANCH 1 21
TORSDOF 13
ENDMDL
MODEL 45
USER: ADFR SOLUTION from run 123
USER: SCORE 11.718304 LL:  -2.361 LR:  -9.613 RR:   0.000 FEB:  -5.735
USER: RMSD 8.733369
USER: SEED 122
USER: STATUS no improvement in best in 8 clusters for 5 generations
USER: GENES 15
USER: genes 0 Translation |==|  0.49716 0.38411 0.58212
USER: genes 1 Rotation |==|  0.08707 0.74789 0.58132 0.60690
USER: genes 2 Torsion [C]-N--CA-[C] |==|  0.55125
USER: genes 3 Torsion [N]-CA--C-[N] |==|  0.46385
USER: genes 4 Torsion [C]-N--CA-[CB] |==|  0.47518
USER: genes 5 Torsion [N]-CA--CB-[CG1] |==|  0.25713
USER: genes 6 Torsion [N]-CA--C-[OXT] |==|  0.43857
USER: genes 7 Torsion [N]-CA--CB-[CG] |==|  0.60648
USER: genes 8 Torsion [CA]-CB--CG-[CD1] |==|  0.22424
USER: genes 9 Torsion [N]-C--CA-[N] |==|  0.43257
USER: genes 10 Torsion [C]-CA--CB-[CG2] |==|  0.41985
USER: genes 11 Torsion [CA]-CB--OG1-[HG1] |==|  0.28119
USER: genes 12 Torsion [C]-CA--N-[C] |==|  0.71436
USER: genes 13 Torsion [N]-C--CA-[N] |==|  0.84045
USER: genes 14 Torsion [C]-CA--CB-[CG1] |==|  0.45456
ROOT
ATOM      1  C   THR B 103     -25.493   6.774   0.658  1.00  4.93 LIG 0.24  C 
ATOM      2 O    THR B 103     -24.765   6.041  -0.012  1.00  4.94 LIG-0.27  OA
ATOM      3  N   LEU B 104     -25.906   7.962   0.233  1.00  4.18 LIG-0.35  N 
ATOM      4 H    LEU B 104     -26.426   8.482   0.680  1.00  4.18 LIG 0.16  HD
ENDROOT
BRANCH 3 5
ATOM      5  CA  LEU B 104     -25.494   8.482  -1.060  1.00  5.70 LIG 0.18  C 
BRANCH 5 6
ATOM      6  C   LEU B 104     -25.709   9.980  -1.111  1.00  6.53 LIG 0.24  C 
ATOM      7 O    LEU B 104     -26.391  10.546  -0.255  1.00  8.21 LIG-0.27  OA
ATOM      8  N   VAL B 105     -25.134  10.619  -2.120  1.00  6.80 LIG-0.34  N 
ATOM      9 H    VAL B 105     -24.627  10.240  -2.702  1.00  6.80 LIG 0.16  HD
BRANCH 8 10
ATOM     10  CA  VAL B 105     -25.323  12.049  -2.325  1.00  6.91 LIG 0.19  C 
BRANCH 10 11
ATOM     11  CB  VAL B 105     -24.390  12.603  -3.417  1.00  6.78 LIG 0.01  C 
ATOM     12  CG1 VAL B 105     -25.078  12.583  -4.772  1.00  6.96 LIG 0.01  C 
ATOM     13  CG2 VAL B 105     -23.953  14.023  -3.070  1.00  7.27 LIG 0.01  C 
ENDBRANCH 10 11
BRANCH 10 14
ATOM     14  C   VAL B 105     -26.770  12.328  -2.713  1.00  6.40 LIG 0.20  C 
ATOM     15 OXT  VAL B 105     -27.253  13.452  -2.540  1.00  6.01 LIG-0.65  OA
ATOM     16 O    VAL B 105     -27.475  11.435  -3.215  1.00  5.94 LIG-0.65  OA
ENDBRANCH 10 14
ENDBRANCH 8 10
ENDBRANCH 5 6
BRANCH 5 17
ATOM     17  CB  LEU B 104     -26.282   7.816  -2.192  1.00  7.33 LIG 0.04  C 
BRANCH 17 18
ATOM     18  CG  LEU B 104     -25.513   7.496  -3.480  1.00 10.28 LIG-0.02  C 
ATOM     19  CD2 LEU B 104     -26.470   7.431  -4.671  1.00 13.23 LIG 0.01  C 
ATOM     20  CD1 LEU B 104     -24.703   6.203  -3.362  1.00 11.40 LIG 0.01  C 
ENDBRANCH 17 18
ENDBRANCH 5 17
ENDBRANCH 3 5
BRANCH 1 21
ATOM     21  CA  THR B 103     -25.985   6.329   2.024  1.00  5.29 LIG 0.20  C 
BRANCH 21 22
ATOM     22  CB  THR B 103     -25.078   6.946   3.102  1.00  5.94 LIG 0.15  C 
ATOM     23  CG2 THR B 103     -25.850   7.158   4.410  1.00  6.62 LIG 0.04  C 
BRANCH 22 24
ATOM     24 OG1  THR B 103     -23.953   6.087   3.330  1.00  6.95 LIG-0.39  OA
ATOM     25 HG1  THR B 103     -23.281   6.393   2.930  1.00  6.95 LIG 0.21  HD
ENDBRANCH 22 24
ENDBRANCH 21 22
BRANCH 21 26
ATOM     26  N   THR B 103     -25.947   4.872   2.091  1.00  6.31 LIG-0.34  N 
ATOM     27  C   VAL B 102     -27.043   4.131   1.973  1.00  9.59 LIG 0.26  C 
ATOM     28 O    VAL B 102     -28.157   4.618   1.814  1.00 11.78 LIG-0.27  OA
ATOM     29 H    THR B 103     -25.161   4.545   2.212  1.00  6.31 LIG 0.16  HD
BRANCH 27 30
ATOM     30  CA  VAL B 102     -26.852   2.616   2.061  1.00 12.05 LIG 0.40  C 
ATOM     31  N   VAL B 102     -25.912   2.148   1.047  1.00 12.38 LIG 0.61  N 
BRANCH 30 32
ATOM     32  CB  VAL B 102     -26.385   2.226   3.480  1.00 15.16 LIG 0.03  C 
ATOM     33  CG1 VAL B 102     -26.578   0.738   3.705  1.00 16.31 LIG 0.01  C 
ATOM     34  CG2 VAL B 102     -24.928   2.594   3.680  1.00 16.97 LIG 0.01  C 
ENDBRANCH 30 32
ENDBRANCH 27 30
ENDBRANCH 21 26
ENDBRANCH 1 21
TORSDOF 13
ENDMDL
MODEL 46
USER: ADFR SOLUTION from run 65
USER: SCORE 12.007153 LL:  -2.463 LR:  -9.601 RR:   0.000 FEB:  -5.723
USER: RMSD 4.515263
USER: SEED 64
USER: STATUS no improvement in best in 12 clusters for 5 generations
USER: GENES 15
USER: genes 0 Translation |==|  0.49842 0.38753 0.53255
USER: genes 1 Rotation |==|  0.55154 0.89367 0.24498 0.66533
USER: genes 2 Torsion [C]-N--CA-[C] |==|  0.77894
USER: genes 3 Torsion [N]-CA--C-[N] |==|  0.99061
USER: genes 4 Torsion [C]-N--CA-[CB] |==|  0.82255
USER: genes 5 Torsion [N]-CA--CB-[CG1] |==|  0.59806
USER: genes 6 Torsion [N]-CA--C-[OXT] |==|  0.12132
USER: genes 7 Torsion [N]-CA--CB-[CG] |==|  0.08395
USER: genes 8 Torsion [CA]-CB--CG-[CD1] |==|  0.19205
USER: genes 9 Torsion [N]-C--CA-[N] |==|  0.40377
USER: genes 10 Torsion [C]-CA--CB-[CG2] |==|  0.83594
USER: genes 11 Torsion [CA]-CB--OG1-[HG1] |==|  0.02310
USER: genes 12 Torsion [C]-CA--N-[C] |==|  0.83289
USER: genes 13 Torsion [N]-C--CA-[N] |==|  0.86382
USER: genes 14 Torsion [C]-CA--CB-[CG1] |==|  0.09767
ROOT
ATOM      1  C   THR B 103     -25.475   6.841  -0.234  1.00  4.93 LIG 0.24  C 
ATOM      2 O    THR B 103     -26.432   6.398  -0.871  1.00  4.94 LIG-0.27  OA
ATOM      3  N   LEU B 104     -24.420   6.103   0.087  1.00  4.18 LIG-0.35  N 
ATOM      4 H    LEU B 104     -23.737   6.397   0.519  1.00  4.18 LIG 0.16  HD
ENDROOT
BRANCH 3 5
ATOM      5  CA  LEU B 104     -24.345   4.698  -0.282  1.00  5.70 LIG 0.18  C 
BRANCH 5 6
ATOM      6  C   LEU B 104     -25.161   3.863   0.681  1.00  6.53 LIG 0.24  C 
ATOM      7 O    LEU B 104     -25.290   2.650   0.507  1.00  8.21 LIG-0.27  OA
ATOM      8  N   VAL B 105     -25.719   4.514   1.691  1.00  6.80 LIG-0.34  N 
ATOM      9 H    VAL B 105     -25.607   5.353   1.843  1.00  6.80 LIG 0.16  HD
BRANCH 8 10
ATOM     10  CA  VAL B 105     -26.588   3.840   2.647  1.00  6.91 LIG 0.19  C 
BRANCH 10 11
ATOM     11  CB  VAL B 105     -27.867   3.301   1.983  1.00  6.78 LIG 0.01  C 
ATOM     12  CG1 VAL B 105     -29.051   3.409   2.930  1.00  6.96 LIG 0.01  C 
ATOM     13  CG2 VAL B 105     -28.156   4.062   0.692  1.00  7.27 LIG 0.01  C 
ENDBRANCH 10 11
BRANCH 10 14
ATOM     14  C   VAL B 105     -25.838   2.685   3.301  1.00  6.40 LIG 0.20  C 
ATOM     15 OXT  VAL B 105     -24.672   2.838   3.680  1.00  6.01 LIG-0.65  OA
ATOM     16 O    VAL B 105     -26.391   1.584   3.468  1.00  5.94 LIG-0.65  OA
ENDBRANCH 10 14
ENDBRANCH 8 10
ENDBRANCH 5 6
BRANCH 5 17
ATOM     17  CB  LEU B 104     -22.894   4.209  -0.276  1.00  7.33 LIG 0.04  C 
BRANCH 17 18
ATOM     18  CG  LEU B 104     -21.935   4.887   0.711  1.00 10.28 LIG-0.02  C 
ATOM     19  CD2 LEU B 104     -20.486   4.534   0.376  1.00 13.23 LIG 0.01  C 
ATOM     20  CD1 LEU B 104     -22.260   4.533   2.164  1.00 11.40 LIG 0.01  C 
ENDBRANCH 17 18
ENDBRANCH 5 17
ENDBRANCH 3 5
BRANCH 1 21
ATOM     21  CA  THR B 103     -25.449   8.295   0.201  1.00  5.29 LIG 0.20  C 
BRANCH 21 22
ATOM     22  CB  THR B 103     -26.164   8.420   1.557  1.00  5.94 LIG 0.15  C 
ATOM     23  CG2 THR B 103     -27.614   7.933   1.457  1.00  6.62 LIG 0.04  C 
BRANCH 22 24
ATOM     24 OG1  THR B 103     -25.457   7.658   2.543  1.00  6.95 LIG-0.39  OA
ATOM     25 HG1  THR B 103     -24.731   7.386   2.220  1.00  6.95 LIG 0.21  HD
ENDBRANCH 22 24
ENDBRANCH 21 22
BRANCH 21 26
ATOM     26  N   THR B 103     -26.118   9.106  -0.811  1.00  6.31 LIG-0.34  N 
ATOM     27  C   VAL B 102     -25.691   9.162  -2.067  1.00  9.59 LIG 0.26  C 
ATOM     28 O    VAL B 102     -24.703   8.549  -2.458  1.00 11.78 LIG-0.27  OA
ATOM     29 H    THR B 103     -26.804   9.537  -0.521  1.00  6.31 LIG 0.16  HD
BRANCH 27 30
ATOM     30  CA  VAL B 102     -26.491  10.052  -3.019  1.00 12.05 LIG 0.40  C 
ATOM     31  N   VAL B 102     -27.920   9.773  -2.917  1.00 12.38 LIG 0.61  N 
BRANCH 30 32
ATOM     32  CB  VAL B 102     -26.189  11.538  -2.730  1.00 15.16 LIG 0.03  C 
ATOM     33  CG1 VAL B 102     -24.738  11.708  -2.320  1.00 16.31 LIG 0.01  C 
ATOM     34  CG2 VAL B 102     -26.484  12.387  -3.950  1.00 16.97 LIG 0.01  C 
ENDBRANCH 30 32
ENDBRANCH 27 30
ENDBRANCH 21 26
ENDBRANCH 1 21
TORSDOF 13
ENDMDL
MODEL 47
USER: ADFR SOLUTION from run 149
USER: SCORE 12.236788 LL:  -2.908 LR:  -9.598 RR:   0.000 FEB:  -5.720
USER: RMSD 5.686949
USER: SEED 148
USER: STATUS no improvement in best in 11 clusters for 5 generations
USER: GENES 15
USER: genes 0 Translation |==|  0.48640 0.37883 0.72823
USER: genes 1 Rotation |==|  0.77317 0.34877 0.58906 0.88023
USER: genes 2 Torsion [C]-N--CA-[C] |==|  0.84405
USER: genes 3 Torsion [N]-CA--C-[N] |==|  0.89681
USER: genes 4 Torsion [C]-N--CA-[CB] |==|  0.48572
USER: genes 5 Torsion [N]-CA--CB-[CG1] |==|  0.78997
USER: genes 6 Torsion [N]-CA--C-[OXT] |==|  0.47230
USER: genes 7 Torsion [N]-CA--CB-[CG] |==|  0.46531
USER: genes 8 Torsion [CA]-CB--CG-[CD1] |==|  0.76902
USER: genes 9 Torsion [N]-C--CA-[N] |==|  0.92964
USER: genes 10 Torsion [C]-CA--CB-[CG2] |==|  0.14704
USER: genes 11 Torsion [CA]-CB--OG1-[HG1] |==|  0.56190
USER: genes 12 Torsion [C]-CA--N-[C] |==|  0.71111
USER: genes 13 Torsion [N]-C--CA-[N] |==|  0.37606
USER: genes 14 Torsion [C]-CA--CB-[CG1] |==|  0.77161
ROOT
ATOM      1  C   THR B 103     -25.647   6.671   3.288  1.00  4.93 LIG 0.24  C 
ATOM      2 O    THR B 103     -24.653   6.382   3.956  1.00  4.94 LIG-0.27  OA
ATOM      3  N   LEU B 104     -26.542   5.770   2.902  1.00  4.18 LIG-0.35  N 
ATOM      4 H    LEU B 104     -27.249   5.954   2.447  1.00  4.18 LIG 0.16  HD
ENDROOT
BRANCH 3 5
ATOM      5  CA  LEU B 104     -26.383   4.363   3.232  1.00  5.70 LIG 0.18  C 
BRANCH 5 6
ATOM      6  C   LEU B 104     -25.048   3.858   2.725  1.00  6.53 LIG 0.24  C 
ATOM      7 O    LEU B 104     -24.392   3.048   3.383  1.00  8.21 LIG-0.27  OA
ATOM      8  N   VAL B 105     -24.644   4.343   1.560  1.00  6.80 LIG-0.34  N 
ATOM      9 H    VAL B 105     -25.109   4.881   1.075  1.00  6.80 LIG 0.16  HD
BRANCH 8 10
ATOM     10  CA  VAL B 105     -23.347   3.994   0.997  1.00  6.91 LIG 0.19  C 
BRANCH 10 11
ATOM     11  CB  VAL B 105     -23.156   4.577  -0.415  1.00  6.78 LIG 0.01  C 
ATOM     12  CG1 VAL B 105     -23.954   3.784  -1.437  1.00  6.96 LIG 0.01  C 
ATOM     13  CG2 VAL B 105     -23.575   6.044  -0.445  1.00  7.27 LIG 0.01  C 
ENDBRANCH 10 11
BRANCH 10 14
ATOM     14  C   VAL B 105     -22.235   4.507   1.904  1.00  6.40 LIG 0.20  C 
ATOM     15 OXT  VAL B 105     -21.065   4.161   1.709  1.00  6.01 LIG-0.65  OA
ATOM     16 O    VAL B 105     -22.489   5.284   2.842  1.00  5.94 LIG-0.65  OA
ENDBRANCH 10 14
ENDBRANCH 8 10
ENDBRANCH 5 6
BRANCH 5 17
ATOM     17  CB  LEU B 104     -27.510   3.528   2.617  1.00  7.33 LIG 0.04  C 
BRANCH 17 18
ATOM     18  CG  LEU B 104     -27.328   2.005   2.622  1.00 10.28 LIG-0.02  C 
ATOM     19  CD2 LEU B 104     -26.729   1.543   3.951  1.00 13.23 LIG 0.01  C 
ATOM     20  CD1 LEU B 104     -26.479   1.522   1.445  1.00 11.40 LIG 0.01  C 
ENDBRANCH 17 18
ENDBRANCH 5 17
ENDBRANCH 3 5
BRANCH 1 21
ATOM     21  CA  THR B 103     -25.912   8.112   2.889  1.00  5.29 LIG 0.20  C 
BRANCH 21 22
ATOM     22  CB  THR B 103     -26.620   8.827   4.052  1.00  5.94 LIG 0.15  C 
ATOM     23  CG2 THR B 103     -25.833   8.658   5.357  1.00  6.62 LIG 0.04  C 
BRANCH 22 24
ATOM     24 OG1  THR B 103     -26.764  10.219   3.742  1.00  6.95 LIG-0.39  OA
ATOM     25 HG1  THR B 103     -26.857  10.657   4.453  1.00  6.95 LIG 0.21  HD
ENDBRANCH 22 24
ENDBRANCH 21 22
BRANCH 21 26
ATOM     26  N   THR B 103     -26.746   8.127   1.691  1.00  6.31 LIG-0.34  N 
ATOM     27  C   VAL B 102     -26.251   8.398   0.490  1.00  9.59 LIG 0.26  C 
ATOM     28 O    VAL B 102     -25.068   8.665   0.305  1.00 11.78 LIG-0.27  OA
ATOM     29 H    THR B 103     -27.574   7.946   1.837  1.00  6.31 LIG 0.16  HD
BRANCH 27 30
ATOM     30  CA  VAL B 102     -27.242   8.376  -0.675  1.00 12.05 LIG 0.40  C 
ATOM     31  N   VAL B 102     -27.044   9.528  -1.551  1.00 12.38 LIG 0.61  N 
BRANCH 30 32
ATOM     32  CB  VAL B 102     -27.108   7.051  -1.455  1.00 15.16 LIG 0.03  C 
ATOM     33  CG1 VAL B 102     -25.954   7.133  -2.436  1.00 16.31 LIG 0.01  C 
ATOM     34  CG2 VAL B 102     -26.895   5.892  -0.501  1.00 16.97 LIG 0.01  C 
ENDBRANCH 30 32
ENDBRANCH 27 30
ENDBRANCH 21 26
ENDBRANCH 1 21
TORSDOF 13
ENDMDL
MODEL 48
USER: ADFR SOLUTION from run 157
USER: SCORE 12.823693 LL:  -3.330 LR:  -9.595 RR:   0.000 FEB:  -5.717
USER: RMSD 5.905343
USER: SEED 156
USER: STATUS no improvement in best in 9 clusters for 5 generations
USER: GENES 15
USER: genes 0 Translation |==|  0.50084 0.32530 0.48734
USER: genes 1 Rotation |==|  0.63692 0.72723 0.25539 0.84610
USER: genes 2 Torsion [C]-N--CA-[C] |==|  0.72778
USER: genes 3 Torsion [N]-CA--C-[N] |==|  0.97570
USER: genes 4 Torsion [C]-N--CA-[CB] |==|  0.40728
USER: genes 5 Torsion [N]-CA--CB-[CG1] |==|  0.15183
USER: genes 6 Torsion [N]-CA--C-[OXT] |==|  0.40347
USER: genes 7 Torsion [N]-CA--CB-[CG] |==|  0.96183
USER: genes 8 Torsion [CA]-CB--CG-[CD1] |==|  0.32742
USER: genes 9 Torsion [N]-C--CA-[N] |==|  0.02029
USER: genes 10 Torsion [C]-CA--CB-[CG2] |==|  0.19462
USER: genes 11 Torsion [CA]-CB--OG1-[HG1] |==|  0.54918
USER: genes 12 Torsion [C]-CA--N-[C] |==|  0.73037
USER: genes 13 Torsion [N]-C--CA-[N] |==|  0.43348
USER: genes 14 Torsion [C]-CA--CB-[CG1] |==|  0.55807
ROOT
ATOM      1  C   THR B 103     -25.441   5.627  -1.048  1.00  4.93 LIG 0.24  C 
ATOM      2 O    THR B 103     -25.452   4.905  -2.045  1.00  4.94 LIG-0.27  OA
ATOM      3  N   LEU B 104     -25.219   5.162   0.175  1.00  4.18 LIG-0.35  N 
ATOM      4 H    LEU B 104     -25.193   5.651   0.882  1.00  4.18 LIG 0.16  HD
ENDROOT
BRANCH 3 5
ATOM      5  CA  LEU B 104     -24.995   3.745   0.411  1.00  5.70 LIG 0.18  C 
BRANCH 5 6
ATOM      6  C   LEU B 104     -26.279   3.085   0.869  1.00  6.53 LIG 0.24  C 
ATOM      7 O    LEU B 104     -26.356   1.859   0.963  1.00  8.21 LIG-0.27  OA
ATOM      8  N   VAL B 105     -27.288   3.899   1.145  1.00  6.80 LIG-0.34  N 
ATOM      9 H    VAL B 105     -27.235   4.757   1.118  1.00  6.80 LIG 0.16  HD
BRANCH 8 10
ATOM     10  CA  VAL B 105     -28.598   3.388   1.525  1.00  6.91 LIG 0.19  C 
BRANCH 10 11
ATOM     11  CB  VAL B 105     -29.308   4.313   2.531  1.00  6.78 LIG 0.01  C 
ATOM     12  CG1 VAL B 105     -29.394   5.730   1.990  1.00  6.96 LIG 0.01  C 
ATOM     13  CG2 VAL B 105     -30.705   3.784   2.843  1.00  7.27 LIG 0.01  C 
ENDBRANCH 10 11
BRANCH 10 14
ATOM     14  C   VAL B 105     -29.472   3.233   0.286  1.00  6.40 LIG 0.20  C 
ATOM     15 OXT  VAL B 105     -30.284   2.305   0.211  1.00  6.01 LIG-0.65  OA
ATOM     16 O    VAL B 105     -29.384   4.041  -0.656  1.00  5.94 LIG-0.65  OA
ENDBRANCH 10 14
ENDBRANCH 8 10
ENDBRANCH 5 6
BRANCH 5 17
ATOM     17  CB  LEU B 104     -23.909   3.532   1.469  1.00  7.33 LIG 0.04  C 
BRANCH 17 18
ATOM     18  CG  LEU B 104     -23.048   4.748   1.836  1.00 10.28 LIG-0.02  C 
ATOM     19  CD2 LEU B 104     -21.580   4.485   1.494  1.00 13.23 LIG 0.01  C 
ATOM     20  CD1 LEU B 104     -23.202   5.140   3.307  1.00 11.40 LIG 0.01  C 
ENDBRANCH 17 18
ENDBRANCH 5 17
ENDBRANCH 3 5
BRANCH 1 21
ATOM     21  CA  THR B 103     -25.662   7.124  -1.179  1.00  5.29 LIG 0.20  C 
BRANCH 21 22
ATOM     22  CB  THR B 103     -24.711   7.673  -2.256  1.00  5.94 LIG 0.15  C 
ATOM     23  CG2 THR B 103     -25.132   7.198  -3.651  1.00  6.62 LIG 0.04  C 
BRANCH 22 24
ATOM     24 OG1  THR B 103     -24.706   9.105  -2.205  1.00  6.95 LIG-0.39  OA
ATOM     25 HG1  THR B 103     -24.392   9.411  -2.922  1.00  6.95 LIG 0.21  HD
ENDBRANCH 22 24
ENDBRANCH 21 22
BRANCH 21 26
ATOM     26  N   THR B 103     -25.402   7.757   0.109  1.00  6.31 LIG-0.34  N 
ATOM     27  C   VAL B 102     -26.377   8.054   0.960  1.00  9.59 LIG 0.26  C 
ATOM     28 O    VAL B 102     -27.558   7.829   0.718  1.00 11.78 LIG-0.27  OA
ATOM     29 H    THR B 103     -24.570   7.917   0.262  1.00  6.31 LIG 0.16  HD
BRANCH 27 30
ATOM     30  CA  VAL B 102     -25.956   8.714   2.274  1.00 12.05 LIG 0.40  C 
ATOM     31  N   VAL B 102     -27.057   9.482   2.848  1.00 12.38 LIG 0.61  N 
BRANCH 30 32
ATOM     32  CB  VAL B 102     -25.446   7.643   3.262  1.00 15.16 LIG 0.03  C 
ATOM     33  CG1 VAL B 102     -25.515   8.166   4.684  1.00 16.31 LIG 0.01  C 
ATOM     34  CG2 VAL B 102     -26.265   6.373   3.138  1.00 16.97 LIG 0.01  C 
ENDBRANCH 30 32
ENDBRANCH 27 30
ENDBRANCH 21 26
ENDBRANCH 1 21
TORSDOF 13
ENDMDL
MODEL 49
USER: ADFR SOLUTION from run 31
USER: SCORE 12.062662 LL:  -2.582 LR:  -9.558 RR:   0.000 FEB:  -5.681
USER: RMSD 2.311571
USER: SEED 30
USER: STATUS no improvement in best in 8 clusters for 5 generations
USER: GENES 15
USER: genes 0 Translation |==|  0.48921 0.44173 0.50093
USER: genes 1 Rotation |==|  0.46607 0.41686 0.68058 0.95752
USER: genes 2 Torsion [C]-N--CA-[C] |==|  0.79037
USER: genes 3 Torsion [N]-CA--C-[N] |==|  0.90141
USER: genes 4 Torsion [C]-N--CA-[CB] |==|  0.85076
USER: genes 5 Torsion [N]-CA--CB-[CG1] |==|  0.48539
USER: genes 6 Torsion [N]-CA--C-[OXT] |==|  0.95505
USER: genes 7 Torsion [N]-CA--CB-[CG] |==|  0.12930
USER: genes 8 Torsion [CA]-CB--CG-[CD1] |==|  0.25839
USER: genes 9 Torsion [N]-C--CA-[N] |==|  0.39231
USER: genes 10 Torsion [C]-CA--CB-[CG2] |==|  0.11986
USER: genes 11 Torsion [CA]-CB--OG1-[HG1] |==|  0.51236
USER: genes 12 Torsion [C]-CA--N-[C] |==|  0.83040
USER: genes 13 Torsion [N]-C--CA-[N] |==|  0.34590
USER: genes 14 Torsion [C]-CA--CB-[CG1] |==|  0.34209
ROOT
ATOM      1  C   THR B 103     -25.607   7.898  -0.803  1.00  4.93 LIG 0.24  C 
ATOM      2 O    THR B 103     -24.703   8.565  -0.299  1.00  4.94 LIG-0.27  OA
ATOM      3  N   LEU B 104     -26.527   7.270  -0.081  1.00  4.18 LIG-0.35  N 
ATOM      4 H    LEU B 104     -27.174   6.811  -0.414  1.00  4.18 LIG 0.16  HD
ENDROOT
BRANCH 3 5
ATOM      5  CA  LEU B 104     -26.503   7.318   1.372  1.00  5.70 LIG 0.18  C 
BRANCH 5 6
ATOM      6  C   LEU B 104     -25.414   6.412   1.904  1.00  6.53 LIG 0.24  C 
ATOM      7 O    LEU B 104     -24.769   6.726   2.907  1.00  8.21 LIG-0.27  OA
ATOM      8  N   VAL B 105     -25.204   5.291   1.229  1.00  6.80 LIG-0.34  N 
ATOM      9 H    VAL B 105     -25.671   5.044   0.550  1.00  6.80 LIG 0.16  HD
BRANCH 8 10
ATOM     10  CA  VAL B 105     -24.137   4.368   1.594  1.00  6.91 LIG 0.19  C 
BRANCH 10 11
ATOM     11  CB  VAL B 105     -22.770   5.070   1.673  1.00  6.78 LIG 0.01  C 
ATOM     12  CG1 VAL B 105     -21.703   4.113   2.180  1.00  6.96 LIG 0.01  C 
ATOM     13  CG2 VAL B 105     -22.375   5.619   0.305  1.00  7.27 LIG 0.01  C 
ENDBRANCH 10 11
BRANCH 10 14
ATOM     14  C   VAL B 105     -24.449   3.726   2.940  1.00  6.40 LIG 0.20  C 
ATOM     15 OXT  VAL B 105     -25.306   4.221   3.680  1.00  6.01 LIG-0.65  OA
ATOM     16 O    VAL B 105     -23.855   2.696   3.305  1.00  5.94 LIG-0.65  OA
ENDBRANCH 10 14
ENDBRANCH 8 10
ENDBRANCH 5 6
BRANCH 5 17
ATOM     17  CB  LEU B 104     -27.853   6.888   1.954  1.00  7.33 LIG 0.04  C 
BRANCH 17 18
ATOM     18  CG  LEU B 104     -28.487   5.617   1.375  1.00 10.28 LIG-0.02  C 
ATOM     19  CD2 LEU B 104     -30.006   5.772   1.283  1.00 13.23 LIG 0.01  C 
ATOM     20  CD1 LEU B 104     -28.114   4.370   2.179  1.00 11.40 LIG 0.01  C 
ENDBRANCH 17 18
ENDBRANCH 5 17
ENDBRANCH 3 5
BRANCH 1 21
ATOM     21  CA  THR B 103     -25.727   7.781  -2.312  1.00  5.29 LIG 0.20  C 
BRANCH 21 22
ATOM     22  CB  THR B 103     -24.775   6.677  -2.802  1.00  5.94 LIG 0.15  C 
ATOM     23  CG2 THR B 103     -24.843   5.451  -1.884  1.00  6.62 LIG 0.04  C 
BRANCH 22 24
ATOM     24 OG1  THR B 103     -25.120   6.306  -4.142  1.00  6.95 LIG-0.39  OA
ATOM     25 HG1  THR B 103     -24.641   5.662  -4.388  1.00  6.95 LIG 0.21  HD
ENDBRANCH 22 24
ENDBRANCH 21 22
BRANCH 21 26
ATOM     26  N   THR B 103     -25.381   9.064  -2.916  1.00  6.31 LIG-0.34  N 
ATOM     27  C   VAL B 102     -26.066  10.172  -2.662  1.00  9.59 LIG 0.26  C 
ATOM     28 O    VAL B 102     -27.039  10.192  -1.914  1.00 11.78 LIG-0.27  OA
ATOM     29 H    THR B 103     -24.703   9.033  -3.445  1.00  6.31 LIG 0.16  HD
BRANCH 27 30
ATOM     30  CA  VAL B 102     -25.590  11.444  -3.364  1.00 12.05 LIG 0.40  C 
ATOM     31  N   VAL B 102     -26.674  12.057  -4.127  1.00 12.38 LIG 0.61  N 
BRANCH 30 32
ATOM     32  CB  VAL B 102     -25.006  12.430  -2.330  1.00 15.16 LIG 0.03  C 
ATOM     33  CG1 VAL B 102     -23.578  12.789  -2.695  1.00 16.31 LIG 0.01  C 
ATOM     34  CG2 VAL B 102     -25.852  13.686  -2.258  1.00 16.97 LIG 0.01  C 
ENDBRANCH 30 32
ENDBRANCH 27 30
ENDBRANCH 21 26
ENDBRANCH 1 21
TORSDOF 13
ENDMDL
MODEL 50
USER: ADFR SOLUTION from run 7
USER: SCORE 11.657342 LL:  -2.398 LR:  -9.557 RR:   0.000 FEB:  -5.680
USER: RMSD 4.543019
USER: SEED 732419
USER: STATUS no improvement in best in 12 clusters for 5 generations
USER: GENES 15
USER: genes 0 Translation |==|  0.49612 0.35560 0.42025
USER: genes 1 Rotation |==|  0.46747 0.77352 0.09945 0.61699
USER: genes 2 Torsion [C]-N--CA-[C] |==|  0.80825
USER: genes 3 Torsion [N]-CA--C-[N] |==|  0.44342
USER: genes 4 Torsion [C]-N--CA-[CB] |==|  0.42756
USER: genes 5 Torsion [N]-CA--CB-[CG1] |==|  0.10389
USER: genes 6 Torsion [N]-CA--C-[OXT] |==|  0.29426
USER: genes 7 Torsion [N]-CA--CB-[CG] |==|  0.21267
USER: genes 8 Torsion [CA]-CB--CG-[CD1] |==|  0.23492
USER: genes 9 Torsion [N]-C--CA-[N] |==|  0.40977
USER: genes 10 Torsion [C]-CA--CB-[CG2] |==|  0.08746
USER: genes 11 Torsion [CA]-CB--OG1-[HG1] |==|  0.07089
USER: genes 12 Torsion [C]-CA--N-[C] |==|  0.56111
USER: genes 13 Torsion [N]-C--CA-[N] |==|  0.97126
USER: genes 14 Torsion [C]-CA--CB-[CG1] |==|  0.87700
ROOT
ATOM      1  C   THR B 103     -25.508   6.218  -2.255  1.00  4.93 LIG 0.24  C 
ATOM      2 O    THR B 103     -26.578   5.613  -2.184  1.00  4.94 LIG-0.27  OA
ATOM      3  N   LEU B 104     -24.392   5.777  -1.688  1.00  4.18 LIG-0.35  N 
ATOM      4 H    LEU B 104     -23.633   6.178  -1.738  1.00  4.18 LIG 0.16  HD
ENDROOT
BRANCH 3 5
ATOM      5  CA  LEU B 104     -24.378   4.545  -0.917  1.00  5.70 LIG 0.18  C 
BRANCH 5 6
ATOM      6  C   LEU B 104     -25.158   4.726   0.368  1.00  6.53 LIG 0.24  C 
ATOM      7 O    LEU B 104     -25.366   5.852   0.824  1.00  8.21 LIG-0.27  OA
ATOM      8  N   VAL B 105     -25.582   3.617   0.955  1.00  6.80 LIG-0.34  N 
ATOM      9 H    VAL B 105     -25.475   2.828   0.629  1.00  6.80 LIG 0.16  HD
BRANCH 8 10
ATOM     10  CA  VAL B 105     -26.281   3.649   2.233  1.00  6.91 LIG 0.19  C 
BRANCH 10 11
ATOM     11  CB  VAL B 105     -27.210   2.434   2.413  1.00  6.78 LIG 0.01  C 
ATOM     12  CG1 VAL B 105     -26.578   1.182   1.826  1.00  6.96 LIG 0.01  C 
ATOM     13  CG2 VAL B 105     -27.522   2.220   3.892  1.00  7.27 LIG 0.01  C 
ENDBRANCH 10 11
BRANCH 10 14
ATOM     14  C   VAL B 105     -25.271   3.679   3.373  1.00  6.40 LIG 0.20  C 
ATOM     15 OXT  VAL B 105     -25.080   4.723   4.006  1.00  6.01 LIG-0.65  OA
ATOM     16 O    VAL B 105     -24.636   2.656   3.686  1.00  5.94 LIG-0.65  OA
ENDBRANCH 10 14
ENDBRANCH 8 10
ENDBRANCH 5 6
BRANCH 5 17
ATOM     17  CB  LEU B 104     -22.942   4.126  -0.585  1.00  7.33 LIG 0.04  C 
BRANCH 17 18
ATOM     18  CG  LEU B 104     -22.235   4.894   0.538  1.00 10.28 LIG-0.02  C 
ATOM     19  CD2 LEU B 104     -20.723   4.908   0.305  1.00 13.23 LIG 0.01  C 
ATOM     20  CD1 LEU B 104     -22.568   4.330   1.920  1.00 11.40 LIG 0.01  C 
ENDBRANCH 17 18
ENDBRANCH 5 17
ENDBRANCH 3 5
BRANCH 1 21
ATOM     21  CA  THR B 103     -25.410   7.516  -3.037  1.00  5.29 LIG 0.20  C 
BRANCH 21 22
ATOM     22  CB  THR B 103     -25.737   8.688  -2.096  1.00  5.94 LIG 0.15  C 
ATOM     23  CG2 THR B 103     -25.301   8.373  -0.661  1.00  6.62 LIG 0.04  C 
BRANCH 22 24
ATOM     24 OG1  THR B 103     -25.078   9.873  -2.561  1.00  6.95 LIG-0.39  OA
ATOM     25 HG1  THR B 103     -24.944   9.813  -3.389  1.00  6.95 LIG 0.21  HD
ENDBRANCH 22 24
ENDBRANCH 21 22
BRANCH 21 26
ATOM     26  N   THR B 103     -26.352   7.472  -4.151  1.00  6.31 LIG-0.34  N 
ATOM     27  C   VAL B 102     -26.207   8.233  -5.229  1.00  9.59 LIG 0.26  C 
ATOM     28 O    VAL B 102     -25.285   9.031  -5.357  1.00 11.78 LIG-0.27  OA
ATOM     29 H    THR B 103     -26.998   6.914  -4.044  1.00  6.31 LIG 0.16  HD
BRANCH 27 30
ATOM     30  CA  VAL B 102     -27.270   8.079  -6.318  1.00 12.05 LIG 0.40  C 
ATOM     31  N   VAL B 102     -28.125   6.926  -6.055  1.00 12.38 LIG 0.61  N 
BRANCH 30 32
ATOM     32  CB  VAL B 102     -28.100   9.376  -6.431  1.00 15.16 LIG 0.03  C 
ATOM     33  CG1 VAL B 102     -28.468   9.885  -5.050  1.00 16.31 LIG 0.01  C 
ATOM     34  CG2 VAL B 102     -27.324  10.440  -7.184  1.00 16.97 LIG 0.01  C 
ENDBRANCH 30 32
ENDBRANCH 27 30
ENDBRANCH 21 26
ENDBRANCH 1 21
TORSDOF 13
ENDMDL
