MODEL 1
USER: ADFR SOLUTION from run 105
USER: SCORE 19.354092 LL:  -4.335 LR: -17.761 RR:   0.000 FEB: -12.690
USER: RMSD 3.866387
USER: SEED 104
USER: STATUS searching
USER: GENES 19
USER: genes 0 Translation |==|  0.65061 0.49127 0.56044
USER: genes 1 Rotation |==|  0.47579 0.54540 0.56084 0.99361
USER: genes 2 Torsion [C]-N--CA-[CB] |==|  0.44409
USER: genes 3 Torsion [N]-CA--CB-[CG2] |==|  0.10014
USER: genes 4 Torsion [CA]-CB--CG1-[CD1] |==|  0.48991
USER: genes 5 Torsion [N]-CA--C-[N] |==|  0.93466
USER: genes 6 Torsion [C]-N--CA-[CB] |==|  0.16381
USER: genes 7 Torsion [N]-CA--C-[N] |==|  0.46182
USER: genes 8 Torsion [N]-CA--C-[O] |==|  0.11615
USER: genes 9 Torsion [N]-CA--CB-[CG] |==|  0.21493
USER: genes 10 Torsion [CA]-CB--CG-[ND1] |==|  0.72728
USER: genes 11 Torsion [N]-C--CA-[N] |==|  0.07079
USER: genes 12 Torsion [C]-CA--N-[C] |==|  0.76111
USER: genes 13 Torsion [N]-C--CA-[N] |==|  0.40538
USER: genes 14 Torsion [C]-CA--N-[H2] |==|  0.44248
USER: genes 15 Torsion [C]-CA--CB-[CG1] |==|  0.43970
USER: genes 16 Torsion [C]-CA--CB-[CG] |==|  0.37554
USER: genes 17 Torsion [CA]-CB--CG-[CD1] |==|  0.42569
USER: genes 18 Torsion [CE1]-CZ--OH-[HH] |==|  0.83272
ROOT
ATOM      1  C   TYR C   2      57.968  30.853  36.648  1.00 15.61 LIG 0.24  C 
ATOM      2 O    TYR C   2      58.696  31.263  35.732  1.00 14.40 LIG-0.27  OA
ATOM      3  N   ILE C   3      57.927  29.595  36.987  1.00 16.82 LIG-0.35  N 
ATOM      4 H    ILE C   3      57.590  29.305  37.723  1.00 16.82 LIG 0.16  HD
ENDROOT
BRANCH 3 5
ATOM      5  CA  ILE C   3      58.465  28.555  36.118  1.00 16.46 LIG 0.18  C 
BRANCH 5 6
ATOM      6  CB  ILE C   3      58.751  27.287  36.901  1.00 18.77 LIG 0.01  C 
ATOM      7  CG2 ILE C   3      57.683  27.117  37.971  1.00 19.99 LIG 0.01  C 
BRANCH 6 8
ATOM      8  CG1 ILE C   3      58.748  26.034  35.995  1.00 18.05 LIG 0.00  C 
ATOM      9  CD1 ILE C   3      59.118  24.735  36.716  1.00 24.94 LIG 0.01  C 
ENDBRANCH 6 8
ENDBRANCH 5 6
BRANCH 5 10
ATOM     10  C   ILE C   3      57.452  28.314  34.995  1.00 19.56 LIG 0.24  C 
ATOM     11  N   HIS C   4      56.191  28.635  35.208  1.00 25.52 LIG-0.35  N 
ATOM     12 H    HIS C   4      55.898  29.046  35.905  1.00 25.52 LIG 0.16  HD
ATOM     13 O    ILE C   3      57.808  27.840  33.913  1.00 16.93 LIG-0.27  OA
BRANCH 11 14
ATOM     14  CA  HIS C   4      55.166  28.281  34.205  1.00 31.94 LIG 0.18  C 
BRANCH 14 15
ATOM     15  C   HIS C   4      53.847  28.839  34.679  1.00 43.02 LIG 0.24  C 
ATOM     16 O    HIS C   4      53.780  29.156  35.883  1.00 47.49 LIG-0.27  OA
ATOM     17  N   PRO C   5      52.802  28.886  33.771  1.00 55.18 LIG-0.34  N 
ATOM     18  CA  PRO C   5      51.416  29.484  33.912  1.00 55.75 LIG 0.17  C 
ATOM     19  CD  PRO C   5      52.845  27.988  32.587  1.00 48.44 LIG 0.13  C 
ATOM     20  CB  PRO C   5      50.811  29.288  32.517  1.00 55.43 LIG 0.04  C 
ATOM     21  CG  PRO C   5      51.419  28.005  32.035  1.00 51.63 LIG 0.02  C 
BRANCH 18 22
ATOM     22  C   PRO C   5      50.489  28.795  34.901  1.00 57.38 LIG 0.22  C 
ATOM     23 O    PRO C   5      50.927  28.417  35.992  1.00 61.90 LIG-0.29  OA
ENDBRANCH 18 22
ENDBRANCH 14 15
BRANCH 14 24
ATOM     24  CB  HIS C   4      55.113  26.740  33.953  1.00 32.76 LIG 0.10  C 
BRANCH 24 25
ATOM     25  CG  HIS C   4      54.407  25.944  35.014  1.00 32.77 LIG 0.06  A 
ATOM     26 ND1  HIS C   4      55.088  25.284  36.021  1.00 34.96 LIG-0.24  NA
ATOM     27  CE1 HIS C   4      54.222  24.682  36.823  1.00 36.21 LIG 0.23  A 
ATOM     28 NE2  HIS C   4      52.998  24.920  36.367  1.00 34.31 LIG-0.25  NA
ATOM     29  CD2 HIS C   4      53.088  25.705  35.233  1.00 30.94 LIG 0.14  A 
ENDBRANCH 24 25
ENDBRANCH 14 24
ENDBRANCH 11 14
ENDBRANCH 5 10
ENDBRANCH 3 5
BRANCH 1 30
ATOM     30  CA  TYR C   2      57.145  31.779  37.493  1.00 15.99 LIG 0.18  C 
BRANCH 30 31
ATOM     31  N   TYR C   2      56.890  31.329  38.847  1.00 12.71 LIG-0.35  N 
ATOM     32  C   VAL C   1      55.896  30.545  39.161  1.00 12.74 LIG 0.25  C 
ATOM     33 O    VAL C   1      55.144  30.077  38.330  1.00 11.92 LIG-0.27  OA
ATOM     34 H    TYR C   2      57.454  31.628  39.423  1.00 12.71 LIG 0.16  HD
BRANCH 32 35
ATOM     35  CA  VAL C   1      55.679  30.293  40.661  1.00 14.22 LIG 0.28  C 
BRANCH 35 36
ATOM     36  N   VAL C   1      54.205  30.152  40.905  1.00 13.26 LIG-0.07  N 
ATOM     37 H1   VAL C   1      53.837  29.693  40.238  1.00 13.26 LIG 0.28  HD
ATOM     38 H2   VAL C   1      54.071  29.720  41.672  1.00 13.26 LIG 0.28  HD
ATOM     39 H3   VAL C   1      53.834  30.959  40.951  1.00 13.26 LIG 0.28  HD
ENDBRANCH 35 36
BRANCH 35 40
ATOM     40  CB  VAL C   1      56.494  29.117  41.245  1.00 17.02 LIG 0.02  C 
ATOM     41  CG1 VAL C   1      56.665  29.244  42.805  1.00 17.35 LIG 0.01  C 
ATOM     42  CG2 VAL C   1      55.853  27.836  40.933  1.00 19.35 LIG 0.01  C 
ENDBRANCH 35 40
ENDBRANCH 32 35
ENDBRANCH 30 31
BRANCH 30 43
ATOM     43  CB  TYR C   2      57.728  33.234  37.570  1.00 16.65 LIG 0.07  C 
BRANCH 43 44
ATOM     44  CG  TYR C   2      56.687  34.325  37.397  1.00 19.66 LIG-0.06  A 
ATOM     45  CD1 TYR C   2      56.835  35.565  37.931  1.00 23.16 LIG 0.01  A 
ATOM     46  CE1 TYR C   2      55.845  36.587  37.827  1.00 26.66 LIG 0.04  A 
ATOM     47  CZ  TYR C   2      54.690  36.351  37.192  1.00 21.30 LIG 0.07  A 
ATOM     48  CE2 TYR C   2      54.528  35.125  36.648  1.00 23.08 LIG 0.04  A 
ATOM     49  CD2 TYR C   2      55.488  34.096  36.755  1.00 20.76 LIG 0.01  A 
BRANCH 47 50
ATOM     50 OH   TYR C   2      53.697  37.396  37.077  1.00 23.41 LIG-0.36  OA
ATOM     51 HH   TYR C   2      53.456  37.640  37.844  1.00 23.41 LIG 0.22  HD
ENDBRANCH 47 50
ENDBRANCH 43 44
ENDBRANCH 30 43
ENDBRANCH 1 30
TORSDOF 17
ENDMDL
MODEL 2
USER: ADFR SOLUTION from run 157
USER: SCORE 18.608281 LL:  -3.929 LR: -17.448 RR:   0.000 FEB: -12.377
USER: RMSD 4.157517
USER: SEED 156
USER: STATUS no improvement in best in 1 clusters for 5 generations
USER: GENES 19
USER: genes 0 Translation |==|  0.62714 0.48483 0.55434
USER: genes 1 Rotation |==|  0.55159 0.46251 0.46786 0.99487
USER: genes 2 Torsion [C]-N--CA-[CB] |==|  0.27490
USER: genes 3 Torsion [N]-CA--CB-[CG2] |==|  0.13714
USER: genes 4 Torsion [CA]-CB--CG1-[CD1] |==|  0.61846
USER: genes 5 Torsion [N]-CA--C-[N] |==|  0.18885
USER: genes 6 Torsion [C]-N--CA-[CB] |==|  0.16140
USER: genes 7 Torsion [N]-CA--C-[N] |==|  0.80814
USER: genes 8 Torsion [N]-CA--C-[O] |==|  0.92742
USER: genes 9 Torsion [N]-CA--CB-[CG] |==|  0.70018
USER: genes 10 Torsion [CA]-CB--CG-[ND1] |==|  0.39690
USER: genes 11 Torsion [N]-C--CA-[N] |==|  0.15917
USER: genes 12 Torsion [C]-CA--N-[C] |==|  0.77923
USER: genes 13 Torsion [N]-C--CA-[N] |==|  0.36120
USER: genes 14 Torsion [C]-CA--N-[H2] |==|  0.79478
USER: genes 15 Torsion [C]-CA--CB-[CG1] |==|  0.95727
USER: genes 16 Torsion [C]-CA--CB-[CG] |==|  0.37193
USER: genes 17 Torsion [CA]-CB--CG-[CD1] |==|  0.42730
USER: genes 18 Torsion [CE1]-CZ--OH-[HH] |==|  0.79161
ROOT
ATOM      1  C   TYR C   2      57.616  30.713  36.506  1.00 15.61 LIG 0.24  C 
ATOM      2 O    TYR C   2      58.710  30.991  35.994  1.00 14.40 LIG-0.27  OA
ATOM      3  N   ILE C   3      57.063  29.541  36.361  1.00 16.82 LIG-0.35  N 
ATOM      4 H    ILE C   3      56.414  29.251  36.846  1.00 16.82 LIG 0.16  HD
ENDROOT
BRANCH 3 5
ATOM      5  CA  ILE C   3      57.515  28.608  35.336  1.00 16.46 LIG 0.18  C 
BRANCH 5 6
ATOM      6  CB  ILE C   3      58.451  27.568  35.924  1.00 18.77 LIG 0.01  C 
ATOM      7  CG2 ILE C   3      57.812  26.979  37.172  1.00 19.99 LIG 0.01  C 
BRANCH 6 8
ATOM      8  CG1 ILE C   3      58.741  26.421  34.927  1.00 18.05 LIG 0.00  C 
ATOM      9  CD1 ILE C   3      58.721  25.024  35.553  1.00 24.94 LIG 0.01  C 
ENDBRANCH 6 8
ENDBRANCH 5 6
BRANCH 5 10
ATOM     10  C   ILE C   3      56.274  27.966  34.707  1.00 19.56 LIG 0.24  C 
ATOM     11  N   HIS C   4      55.477  28.725  33.981  1.00 25.52 LIG-0.35  N 
ATOM     12 H    HIS C   4      55.638  29.541  33.763  1.00 25.52 LIG 0.16  HD
ATOM     13 O    ILE C   3      56.033  26.768  34.866  1.00 16.93 LIG-0.27  OA
BRANCH 11 14
ATOM     14  CA  HIS C   4      54.200  28.176  33.482  1.00 31.94 LIG 0.18  C 
BRANCH 14 15
ATOM     15  C   HIS C   4      53.536  29.241  32.645  1.00 43.02 LIG 0.24  C 
ATOM     16 O    HIS C   4      53.533  29.054  31.412  1.00 47.49 LIG-0.27  OA
ATOM     17  N   PRO C   5      53.054  30.365  33.294  1.00 55.18 LIG-0.34  N 
ATOM     18  CA  PRO C   5      52.253  31.533  32.753  1.00 55.75 LIG 0.17  C 
ATOM     19  CD  PRO C   5      53.607  30.710  34.630  1.00 48.44 LIG 0.13  C 
ATOM     20  CB  PRO C   5      51.961  32.364  34.008  1.00 55.43 LIG 0.04  C 
ATOM     21  CG  PRO C   5      53.170  32.156  34.869  1.00 51.63 LIG 0.02  C 
BRANCH 18 22
ATOM     22  C   PRO C   5      52.978  32.443  31.774  1.00 57.38 LIG 0.22  C 
ATOM     23 O    PRO C   5      54.209  32.535  31.817  1.00 61.90 LIG-0.29  OA
ENDBRANCH 18 22
ENDBRANCH 14 15
BRANCH 14 24
ATOM     24  CB  HIS C   4      53.291  27.677  34.651  1.00 32.76 LIG 0.10  C 
BRANCH 24 25
ATOM     25  CG  HIS C   4      53.164  26.184  34.769  1.00 32.77 LIG 0.06  A 
ATOM     26 ND1  HIS C   4      53.099  25.540  35.992  1.00 34.96 LIG-0.24  NA
ATOM     27  CE1 HIS C   4      52.971  24.235  35.801  1.00 36.21 LIG 0.23  A 
ATOM     28 NE2  HIS C   4      52.959  24.005  34.493  1.00 34.31 LIG-0.25  NA
ATOM     29  CD2 HIS C   4      53.083  25.209  33.826  1.00 30.94 LIG 0.14  A 
ENDBRANCH 24 25
ENDBRANCH 14 24
ENDBRANCH 11 14
ENDBRANCH 5 10
ENDBRANCH 3 5
BRANCH 1 30
ATOM     30  CA  TYR C   2      56.885  31.668  37.401  1.00 15.99 LIG 0.18  C 
BRANCH 30 31
ATOM     31  N   TYR C   2      56.651  31.203  38.754  1.00 12.71 LIG-0.35  N 
ATOM     32  C   VAL C   1      55.691  30.376  39.066  1.00 12.74 LIG 0.25  C 
ATOM     33 O    VAL C   1      54.959  29.880  38.234  1.00 11.92 LIG-0.27  OA
ATOM     34 H    TYR C   2      57.202  31.523  39.331  1.00 12.71 LIG 0.16  HD
BRANCH 32 35
ATOM     35  CA  VAL C   1      55.487  30.110  40.565  1.00 14.22 LIG 0.28  C 
BRANCH 35 36
ATOM     36  N   VAL C   1      54.032  30.293  40.881  1.00 13.26 LIG-0.07  N 
ATOM     37 H1   VAL C   1      53.857  29.953  41.684  1.00 13.26 LIG 0.28  HD
ATOM     38 H2   VAL C   1      53.834  31.161  40.877  1.00 13.26 LIG 0.28  HD
ATOM     39 H3   VAL C   1      53.540  29.874  40.268  1.00 13.26 LIG 0.28  HD
ENDBRANCH 35 36
BRANCH 35 40
ATOM     40  CB  VAL C   1      56.038  28.755  41.063  1.00 17.02 LIG 0.02  C 
ATOM     41  CG1 VAL C   1      56.343  27.776  39.868  1.00 17.35 LIG 0.01  C 
ATOM     42  CG2 VAL C   1      57.261  28.949  41.850  1.00 19.35 LIG 0.01  C 
ENDBRANCH 35 40
ENDBRANCH 32 35
ENDBRANCH 30 31
BRANCH 30 43
ATOM     43  CB  TYR C   2      57.562  33.082  37.488  1.00 16.65 LIG 0.07  C 
BRANCH 43 44
ATOM     44  CG  TYR C   2      56.592  34.240  37.347  1.00 19.66 LIG-0.06  A 
ATOM     45  CD1 TYR C   2      56.834  35.463  37.884  1.00 23.16 LIG 0.01  A 
ATOM     46  CE1 TYR C   2      55.911  36.549  37.811  1.00 26.66 LIG 0.04  A 
ATOM     47  CZ  TYR C   2      54.728  36.394  37.202  1.00 21.30 LIG 0.07  A 
ATOM     48  CE2 TYR C   2      54.473  35.186  36.655  1.00 23.08 LIG 0.04  A 
ATOM     49  CD2 TYR C   2      55.365  34.095  36.732  1.00 20.76 LIG 0.01  A 
BRANCH 47 50
ATOM     50 OH   TYR C   2      53.804  37.503  37.118  1.00 23.41 LIG-0.36  OA
ATOM     51 HH   TYR C   2      53.444  37.626  37.867  1.00 23.41 LIG 0.22  HD
ENDBRANCH 47 50
ENDBRANCH 43 44
ENDBRANCH 30 43
ENDBRANCH 1 30
TORSDOF 17
ENDMDL
MODEL 3
USER: ADFR SOLUTION from run 144
USER: SCORE 18.754343 LL:  -4.172 LR: -17.441 RR:   0.000 FEB: -12.370
USER: RMSD 4.487468
USER: SEED 143
USER: STATUS 1 or 2 clusters left
USER: GENES 19
USER: genes 0 Translation |==|  0.62201 0.48317 0.56052
USER: genes 1 Rotation |==|  0.53875 0.49266 0.47335 0.99773
USER: genes 2 Torsion [C]-N--CA-[CB] |==|  0.39639
USER: genes 3 Torsion [N]-CA--CB-[CG2] |==|  0.60775
USER: genes 4 Torsion [CA]-CB--CG1-[CD1] |==|  0.72619
USER: genes 5 Torsion [N]-CA--C-[N] |==|  0.96667
USER: genes 6 Torsion [C]-N--CA-[CB] |==|  0.22133
USER: genes 7 Torsion [N]-CA--C-[N] |==|  0.35618
USER: genes 8 Torsion [N]-CA--C-[O] |==|  0.39171
USER: genes 9 Torsion [N]-CA--CB-[CG] |==|  0.38537
USER: genes 10 Torsion [CA]-CB--CG-[ND1] |==|  0.77628
USER: genes 11 Torsion [N]-C--CA-[N] |==|  0.14789
USER: genes 12 Torsion [C]-CA--N-[C] |==|  0.78132
USER: genes 13 Torsion [N]-C--CA-[N] |==|  0.40314
USER: genes 14 Torsion [C]-CA--N-[H2] |==|  0.42225
USER: genes 15 Torsion [C]-CA--CB-[CG1] |==|  0.50171
USER: genes 16 Torsion [C]-CA--CB-[CG] |==|  0.36189
USER: genes 17 Torsion [CA]-CB--CG-[CD1] |==|  0.41712
USER: genes 18 Torsion [CE1]-CZ--OH-[HH] |==|  0.86896
ROOT
ATOM      1  C   TYR C   2      57.539  30.677  36.650  1.00 15.61 LIG 0.24  C 
ATOM      2 O    TYR C   2      58.554  30.960  35.996  1.00 14.40 LIG-0.27  OA
ATOM      3  N   ILE C   3      57.012  29.484  36.625  1.00 16.82 LIG-0.35  N 
ATOM      4 H    ILE C   3      56.437  29.200  37.197  1.00 16.82 LIG 0.16  HD
ENDROOT
BRANCH 3 5
ATOM      5  CA  ILE C   3      57.369  28.517  35.595  1.00 16.46 LIG 0.18  C 
BRANCH 5 6
ATOM      6  CB  ILE C   3      57.437  27.113  36.168  1.00 18.77 LIG 0.01  C 
ATOM      7  CG2 ILE C   3      58.607  26.378  35.532  1.00 19.99 LIG 0.01  C 
BRANCH 6 8
ATOM      8  CG1 ILE C   3      57.632  27.123  37.702  1.00 18.05 LIG 0.00  C 
ATOM      9  CD1 ILE C   3      59.081  26.915  38.153  1.00 24.94 LIG 0.01  C 
ENDBRANCH 6 8
ENDBRANCH 5 6
BRANCH 5 10
ATOM     10  C   ILE C   3      56.332  28.624  34.472  1.00 19.56 LIG 0.24  C 
ATOM     11  N   HIS C   4      55.234  29.317  34.698  1.00 25.52 LIG-0.35  N 
ATOM     12 H    HIS C   4      55.083  29.786  35.403  1.00 25.52 LIG 0.16  HD
ATOM     13 O    ILE C   3      56.524  28.083  33.381  1.00 16.93 LIG-0.27  OA
BRANCH 11 14
ATOM     14  CA  HIS C   4      54.151  29.319  33.693  1.00 31.94 LIG 0.18  C 
BRANCH 14 15
ATOM     15  C   HIS C   4      53.342  30.578  33.891  1.00 43.02 LIG 0.24  C 
ATOM     16 O    HIS C   4      52.880  30.765  35.034  1.00 47.49 LIG-0.27  OA
ATOM     17  N   PRO C   5      53.116  31.380  32.786  1.00 55.18 LIG-0.34  N 
ATOM     18  CA  PRO C   5      52.449  32.738  32.688  1.00 55.75 LIG 0.17  C 
ATOM     19  CD  PRO C   5      53.230  30.778  31.431  1.00 48.44 LIG 0.13  C 
ATOM     20  CB  PRO C   5      52.622  33.104  31.210  1.00 55.43 LIG 0.04  C 
ATOM     21  CG  PRO C   5      52.556  31.786  30.500  1.00 51.63 LIG 0.02  C 
BRANCH 18 22
ATOM     22  C   PRO C   5      50.958  32.773  32.985  1.00 57.38 LIG 0.22  C 
ATOM     23 O    PRO C   5      50.480  33.719  33.617  1.00 61.90 LIG-0.29  OA
ENDBRANCH 18 22
ENDBRANCH 14 15
BRANCH 14 24
ATOM     24  CB  HIS C   4      53.280  28.025  33.782  1.00 32.76 LIG 0.10  C 
BRANCH 24 25
ATOM     25  CG  HIS C   4      51.801  28.238  33.634  1.00 32.77 LIG 0.06  A 
ATOM     26 ND1  HIS C   4      51.006  28.673  34.680  1.00 34.96 LIG-0.24  NA
ATOM     27  CE1 HIS C   4      49.753  28.793  34.267  1.00 36.21 LIG 0.23  A 
ATOM     28 NE2  HIS C   4      49.701  28.442  32.988  1.00 34.31 LIG-0.25  NA
ATOM     29  CD2 HIS C   4      50.970  28.087  32.569  1.00 30.94 LIG 0.14  A 
ENDBRANCH 24 25
ENDBRANCH 14 24
ENDBRANCH 11 14
ENDBRANCH 5 10
ENDBRANCH 3 5
BRANCH 1 30
ATOM     30  CA  TYR C   2      56.889  31.653  37.584  1.00 15.99 LIG 0.18  C 
BRANCH 30 31
ATOM     31  N   TYR C   2      56.752  31.208  38.957  1.00 12.71 LIG-0.35  N 
ATOM     32  C   VAL C   1      55.818  30.386  39.350  1.00 12.74 LIG 0.25  C 
ATOM     33 O    VAL C   1      55.029  29.878  38.579  1.00 11.92 LIG-0.27  OA
ATOM     34 H    TYR C   2      57.344  31.537  39.488  1.00 12.71 LIG 0.16  HD
BRANCH 32 35
ATOM     35  CA  VAL C   1      55.722  30.142  40.863  1.00 14.22 LIG 0.28  C 
BRANCH 35 36
ATOM     36  N   VAL C   1      54.276  29.962  41.219  1.00 13.26 LIG-0.07  N 
ATOM     37 H1   VAL C   1      53.848  29.579  40.538  1.00 13.26 LIG 0.28  HD
ATOM     38 H2   VAL C   1      54.209  29.444  41.940  1.00 13.26 LIG 0.28  HD
ATOM     39 H3   VAL C   1      53.911  30.756  41.390  1.00 13.26 LIG 0.28  HD
ENDBRANCH 35 36
BRANCH 35 40
ATOM     40  CB  VAL C   1      56.613  28.996  41.392  1.00 17.02 LIG 0.02  C 
ATOM     41  CG1 VAL C   1      56.447  28.798  42.946  1.00 17.35 LIG 0.01  C 
ATOM     42  CG2 VAL C   1      56.297  27.737  40.711  1.00 19.35 LIG 0.01  C 
ENDBRANCH 35 40
ENDBRANCH 32 35
ENDBRANCH 30 31
BRANCH 30 43
ATOM     43  CB  TYR C   2      57.587  33.059  37.600  1.00 16.65 LIG 0.07  C 
BRANCH 43 44
ATOM     44  CG  TYR C   2      56.630  34.224  37.430  1.00 19.66 LIG-0.06  A 
ATOM     45  CD1 TYR C   2      56.866  35.446  37.974  1.00 23.16 LIG 0.01  A 
ATOM     46  CE1 TYR C   2      55.954  36.538  37.873  1.00 26.66 LIG 0.04  A 
ATOM     47  CZ  TYR C   2      54.789  36.393  37.229  1.00 21.30 LIG 0.07  A 
ATOM     48  CE2 TYR C   2      54.541  35.187  36.674  1.00 23.08 LIG 0.04  A 
ATOM     49  CD2 TYR C   2      55.422  34.088  36.779  1.00 20.76 LIG 0.01  A 
BRANCH 47 50
ATOM     50 OH   TYR C   2      53.876  37.509  37.117  1.00 23.41 LIG-0.36  OA
ATOM     51 HH   TYR C   2      53.789  37.876  37.867  1.00 23.41 LIG 0.22  HD
ENDBRANCH 47 50
ENDBRANCH 43 44
ENDBRANCH 30 43
ENDBRANCH 1 30
TORSDOF 17
ENDMDL
MODEL 4
USER: ADFR SOLUTION from run 55
USER: SCORE 19.605221 LL:  -4.194 LR: -17.219 RR:   0.000 FEB: -12.148
USER: RMSD 3.570409
USER: SEED 54
USER: STATUS searching
USER: GENES 19
USER: genes 0 Translation |==|  0.62402 0.47999 0.55385
USER: genes 1 Rotation |==|  0.54826 0.45831 0.45626 0.99398
USER: genes 2 Torsion [C]-N--CA-[CB] |==|  0.21933
USER: genes 3 Torsion [N]-CA--CB-[CG2] |==|  0.73903
USER: genes 4 Torsion [CA]-CB--CG1-[CD1] |==|  0.37657
USER: genes 5 Torsion [N]-CA--C-[N] |==|  0.34157
USER: genes 6 Torsion [C]-N--CA-[CB] |==|  0.78333
USER: genes 7 Torsion [N]-CA--C-[N] |==|  0.16114
USER: genes 8 Torsion [N]-CA--C-[O] |==|  0.84301
USER: genes 9 Torsion [N]-CA--CB-[CG] |==|  0.01092
USER: genes 10 Torsion [CA]-CB--CG-[ND1] |==|  0.80375
USER: genes 11 Torsion [N]-C--CA-[N] |==|  0.16704
USER: genes 12 Torsion [C]-CA--N-[C] |==|  0.78269
USER: genes 13 Torsion [N]-C--CA-[N] |==|  0.36902
USER: genes 14 Torsion [C]-CA--N-[H2] |==|  0.79547
USER: genes 15 Torsion [C]-CA--CB-[CG1] |==|  0.09257
USER: genes 16 Torsion [C]-CA--CB-[CG] |==|  0.37700
USER: genes 17 Torsion [CA]-CB--CG-[CD1] |==|  0.41279
USER: genes 18 Torsion [CE1]-CZ--OH-[HH] |==|  0.85384
ROOT
ATOM      1  C   TYR C   2      57.569  30.608  36.495  1.00 15.61 LIG 0.24  C 
ATOM      2 O    TYR C   2      58.681  30.826  35.992  1.00 14.40 LIG-0.27  OA
ATOM      3  N   ILE C   3      56.961  29.463  36.355  1.00 16.82 LIG-0.35  N 
ATOM      4 H    ILE C   3      56.294  29.211  36.835  1.00 16.82 LIG 0.16  HD
ENDROOT
BRANCH 3 5
ATOM      5  CA  ILE C   3      57.378  28.498  35.345  1.00 16.46 LIG 0.18  C 
BRANCH 5 6
ATOM      6  CB  ILE C   3      58.606  27.731  35.801  1.00 18.77 LIG 0.01  C 
ATOM      7  CG2 ILE C   3      59.848  28.426  35.263  1.00 19.99 LIG 0.01  C 
BRANCH 6 8
ATOM      8  CG1 ILE C   3      58.705  27.662  37.343  1.00 18.05 LIG 0.00  C 
ATOM      9  CD1 ILE C   3      59.072  26.279  37.888  1.00 24.94 LIG 0.01  C 
ENDBRANCH 6 8
ENDBRANCH 5 6
BRANCH 5 10
ATOM     10  C   ILE C   3      56.194  27.566  35.070  1.00 19.56 LIG 0.24  C 
ATOM     11  N   HIS C   4      55.747  27.470  33.834  1.00 25.52 LIG-0.35  N 
ATOM     12 H    HIS C   4      56.118  27.829  33.146  1.00 25.52 LIG 0.16  HD
ATOM     13 O    ILE C   3      55.678  26.914  35.981  1.00 16.93 LIG-0.27  OA
BRANCH 11 14
ATOM     14  CA  HIS C   4      54.519  26.696  33.559  1.00 31.94 LIG 0.18  C 
BRANCH 14 15
ATOM     15  C   HIS C   4      53.483  27.097  34.580  1.00 43.02 LIG 0.24  C 
ATOM     16 O    HIS C   4      52.972  26.172  35.242  1.00 47.49 LIG-0.27  OA
ATOM     17  N   PRO C   5      53.131  28.434  34.652  1.00 55.18 LIG-0.34  N 
ATOM     18  CA  PRO C   5      52.222  29.150  35.631  1.00 55.75 LIG 0.17  C 
ATOM     19  CD  PRO C   5      53.383  29.303  33.472  1.00 48.44 LIG 0.13  C 
ATOM     20  CB  PRO C   5      52.351  30.619  35.214  1.00 55.43 LIG 0.04  C 
ATOM     21  CG  PRO C   5      52.549  30.558  33.730  1.00 51.63 LIG 0.02  C 
BRANCH 18 22
ATOM     22  C   PRO C   5      50.745  28.793  35.555  1.00 57.38 LIG 0.22  C 
ATOM     23 O    PRO C   5      50.136  28.924  34.489  1.00 61.90 LIG-0.29  OA
ENDBRANCH 18 22
ENDBRANCH 14 15
BRANCH 14 24
ATOM     24  CB  HIS C   4      54.796  25.158  33.554  1.00 32.76 LIG 0.10  C 
BRANCH 24 25
ATOM     25  CG  HIS C   4      56.199  24.760  33.914  1.00 32.77 LIG 0.06  A 
ATOM     26 ND1  HIS C   4      57.274  24.992  33.074  1.00 34.96 LIG-0.24  NA
ATOM     27  CE1 HIS C   4      58.387  24.560  33.648  1.00 36.21 LIG 0.23  A 
ATOM     28 NE2  HIS C   4      58.074  24.045  34.831  1.00 34.31 LIG-0.25  NA
ATOM     29  CD2 HIS C   4      56.709  24.155  35.019  1.00 30.94 LIG 0.14  A 
ENDBRANCH 24 25
ENDBRANCH 14 24
ENDBRANCH 11 14
ENDBRANCH 5 10
ENDBRANCH 3 5
BRANCH 1 30
ATOM     30  CA  TYR C   2      56.876  31.607  37.372  1.00 15.99 LIG 0.18  C 
BRANCH 30 31
ATOM     31  N   TYR C   2      56.662  31.193  38.744  1.00 12.71 LIG-0.35  N 
ATOM     32  C   VAL C   1      55.707  30.378  39.101  1.00 12.74 LIG 0.25  C 
ATOM     33 O    VAL C   1      54.964  29.850  38.298  1.00 11.92 LIG-0.27  OA
ATOM     34 H    TYR C   2      57.221  31.535  39.300  1.00 12.71 LIG 0.16  HD
BRANCH 32 35
ATOM     35  CA  VAL C   1      55.525  30.167  40.612  1.00 14.22 LIG 0.28  C 
BRANCH 35 36
ATOM     36  N   VAL C   1      54.064  30.293  40.930  1.00 13.26 LIG-0.07  N 
ATOM     37 H1   VAL C   1      53.912  29.983  41.750  1.00 13.26 LIG 0.28  HD
ATOM     38 H2   VAL C   1      53.823  31.149  40.886  1.00 13.26 LIG 0.28  HD
ATOM     39 H3   VAL C   1      53.591  29.822  40.342  1.00 13.26 LIG 0.28  HD
ENDBRANCH 35 36
BRANCH 35 40
ATOM     40  CB  VAL C   1      56.145  28.863  41.163  1.00 17.02 LIG 0.02  C 
ATOM     41  CG1 VAL C   1      57.456  28.468  40.386  1.00 17.35 LIG 0.01  C 
ATOM     42  CG2 VAL C   1      56.454  28.999  42.590  1.00 19.35 LIG 0.01  C 
ENDBRANCH 35 40
ENDBRANCH 32 35
ENDBRANCH 30 31
BRANCH 30 43
ATOM     43  CB  TYR C   2      57.582  33.009  37.396  1.00 16.65 LIG 0.07  C 
BRANCH 43 44
ATOM     44  CG  TYR C   2      56.627  34.182  37.280  1.00 19.66 LIG-0.06  A 
ATOM     45  CD1 TYR C   2      56.871  35.382  37.868  1.00 23.16 LIG 0.01  A 
ATOM     46  CE1 TYR C   2      55.961  36.480  37.817  1.00 26.66 LIG 0.04  A 
ATOM     47  CZ  TYR C   2      54.789  36.362  37.179  1.00 21.30 LIG 0.07  A 
ATOM     48  CE2 TYR C   2      54.533  35.178  36.581  1.00 23.08 LIG 0.04  A 
ATOM     49  CD2 TYR C   2      55.412  34.075  36.635  1.00 20.76 LIG 0.01  A 
BRANCH 47 50
ATOM     50 OH   TYR C   2      53.879  37.483  37.118  1.00 23.41 LIG-0.36  OA
ATOM     51 HH   TYR C   2      53.741  37.776  37.894  1.00 23.41 LIG 0.22  HD
ENDBRANCH 47 50
ENDBRANCH 43 44
ENDBRANCH 30 43
ENDBRANCH 1 30
TORSDOF 17
ENDMDL
MODEL 5
USER: ADFR SOLUTION from run 12
USER: SCORE 19.609059 LL:  -4.327 LR: -17.210 RR:   0.000 FEB: -12.139
USER: RMSD 2.367200
USER: SEED 469539
USER: STATUS no improvement in best in 9 clusters for 5 generations
USER: GENES 19
USER: genes 0 Translation |==|  0.64673 0.47376 0.56509
USER: genes 1 Rotation |==|  0.45812 0.53269 0.54952 0.99470
USER: genes 2 Torsion [C]-N--CA-[CB] |==|  0.50829
USER: genes 3 Torsion [N]-CA--CB-[CG2] |==|  0.77725
USER: genes 4 Torsion [CA]-CB--CG1-[CD1] |==|  0.33908
USER: genes 5 Torsion [N]-CA--C-[N] |==|  0.82231
USER: genes 6 Torsion [C]-N--CA-[CB] |==|  0.13346
USER: genes 7 Torsion [N]-CA--C-[N] |==|  0.16096
USER: genes 8 Torsion [N]-CA--C-[O] |==|  0.54602
USER: genes 9 Torsion [N]-CA--CB-[CG] |==|  0.65088
USER: genes 10 Torsion [CA]-CB--CG-[ND1] |==|  0.27704
USER: genes 11 Torsion [N]-C--CA-[N] |==|  0.07375
USER: genes 12 Torsion [C]-CA--N-[C] |==|  0.76089
USER: genes 13 Torsion [N]-C--CA-[N] |==|  0.39531
USER: genes 14 Torsion [C]-CA--N-[H2] |==|  0.42297
USER: genes 15 Torsion [C]-CA--CB-[CG1] |==|  0.06116
USER: genes 16 Torsion [C]-CA--CB-[CG] |==|  0.39475
USER: genes 17 Torsion [CA]-CB--CG-[CD1] |==|  0.41194
USER: genes 18 Torsion [CE1]-CZ--OH-[HH] |==|  0.82217
ROOT
ATOM      1  C   TYR C   2      57.910  30.472  36.756  1.00 15.61 LIG 0.24  C 
ATOM      2 O    TYR C   2      58.707  30.793  35.862  1.00 14.40 LIG-0.27  OA
ATOM      3  N   ILE C   3      57.801  29.242  37.175  1.00 16.82 LIG-0.35  N 
ATOM      4 H    ILE C   3      57.409  29.015  37.906  1.00 16.82 LIG 0.16  HD
ENDROOT
BRANCH 3 5
ATOM      5  CA  ILE C   3      58.349  28.128  36.412  1.00 16.46 LIG 0.18  C 
BRANCH 5 6
ATOM      6  CB  ILE C   3      58.025  26.803  37.077  1.00 18.77 LIG 0.01  C 
ATOM      7  CG2 ILE C   3      59.004  26.572  38.218  1.00 19.99 LIG 0.01  C 
BRANCH 6 8
ATOM      8  CG1 ILE C   3      56.586  26.777  37.645  1.00 18.05 LIG 0.00  C 
ATOM      9  CD1 ILE C   3      55.709  25.654  37.085  1.00 24.94 LIG 0.01  C 
ENDBRANCH 6 8
ENDBRANCH 5 6
BRANCH 5 10
ATOM     10  C   ILE C   3      57.779  28.206  34.992  1.00 19.56 LIG 0.24  C 
ATOM     11  N   HIS C   4      56.479  28.061  34.830  1.00 25.52 LIG-0.35  N 
ATOM     12 H    HIS C   4      55.906  28.004  35.469  1.00 25.52 LIG 0.16  HD
ATOM     13 O    ILE C   3      58.517  28.411  34.025  1.00 16.93 LIG-0.27  OA
BRANCH 11 14
ATOM     14  CA  HIS C   4      55.916  27.985  33.467  1.00 31.94 LIG 0.18  C 
BRANCH 14 15
ATOM     15  C   HIS C   4      54.454  27.630  33.591  1.00 43.02 LIG 0.24  C 
ATOM     16 O    HIS C   4      54.072  26.630  32.952  1.00 47.49 LIG-0.27  OA
ATOM     17  N   PRO C   5      53.646  28.472  34.335  1.00 55.18 LIG-0.34  N 
ATOM     18  CA  PRO C   5      52.190  28.326  34.731  1.00 55.75 LIG 0.17  C 
ATOM     19  CD  PRO C   5      54.090  29.874  34.558  1.00 48.44 LIG 0.13  C 
ATOM     20  CB  PRO C   5      51.951  29.545  35.629  1.00 55.43 LIG 0.04  C 
ATOM     21  CG  PRO C   5      52.838  30.603  35.048  1.00 51.63 LIG 0.02  C 
BRANCH 18 22
ATOM     22  C   PRO C   5      51.180  28.403  33.597  1.00 57.38 LIG 0.22  C 
ATOM     23 O    PRO C   5      49.987  28.601  33.849  1.00 61.90 LIG-0.29  OA
ENDBRANCH 18 22
ENDBRANCH 14 15
BRANCH 14 24
ATOM     24  CB  HIS C   4      56.706  26.977  32.572  1.00 32.76 LIG 0.10  C 
BRANCH 24 25
ATOM     25  CG  HIS C   4      57.217  27.538  31.275  1.00 32.77 LIG 0.06  A 
ATOM     26 ND1  HIS C   4      58.529  27.947  31.110  1.00 34.96 LIG-0.24  NA
ATOM     27  CE1 HIS C   4      58.707  28.378  29.870  1.00 36.21 LIG 0.23  A 
ATOM     28 NE2  HIS C   4      57.553  28.274  29.223  1.00 34.31 LIG-0.25  NA
ATOM     29  CD2 HIS C   4      56.604  27.754  30.082  1.00 30.94 LIG 0.14  A 
ENDBRANCH 24 25
ENDBRANCH 14 24
ENDBRANCH 11 14
ENDBRANCH 5 10
ENDBRANCH 3 5
BRANCH 1 30
ATOM     30  CA  TYR C   2      57.074  31.482  37.485  1.00 15.99 LIG 0.18  C 
BRANCH 30 31
ATOM     31  N   TYR C   2      56.741  31.146  38.855  1.00 12.71 LIG-0.35  N 
ATOM     32  C   VAL C   1      55.710  30.415  39.178  1.00 12.74 LIG 0.25  C 
ATOM     33 O    VAL C   1      54.985  29.903  38.349  1.00 11.92 LIG-0.27  OA
ATOM     34 H    TYR C   2      57.286  31.474  39.434  1.00 12.71 LIG 0.16  HD
BRANCH 32 35
ATOM     35  CA  VAL C   1      55.414  30.286  40.680  1.00 14.22 LIG 0.28  C 
BRANCH 35 36
ATOM     36  N   VAL C   1      53.926  30.293  40.868  1.00 13.26 LIG-0.07  N 
ATOM     37 H1   VAL C   1      53.536  29.912  40.164  1.00 13.26 LIG 0.28  HD
ATOM     38 H2   VAL C   1      53.717  29.839  41.605  1.00 13.26 LIG 0.28  HD
ATOM     39 H3   VAL C   1      53.640  31.132  40.947  1.00 13.26 LIG 0.28  HD
ENDBRANCH 35 36
BRANCH 35 40
ATOM     40  CB  VAL C   1      56.097  29.086  41.374  1.00 17.02 LIG 0.02  C 
ATOM     41  CG1 VAL C   1      57.354  28.586  40.569  1.00 17.35 LIG 0.01  C 
ATOM     42  CG2 VAL C   1      56.507  29.439  42.737  1.00 19.35 LIG 0.01  C 
ENDBRANCH 35 40
ENDBRANCH 32 35
ENDBRANCH 30 31
BRANCH 30 43
ATOM     43  CB  TYR C   2      57.693  32.924  37.478  1.00 16.65 LIG 0.07  C 
BRANCH 43 44
ATOM     44  CG  TYR C   2      56.669  34.034  37.335  1.00 19.66 LIG-0.06  A 
ATOM     45  CD1 TYR C   2      56.835  35.257  37.902  1.00 23.16 LIG 0.01  A 
ATOM     46  CE1 TYR C   2      55.861  36.296  37.826  1.00 26.66 LIG 0.04  A 
ATOM     47  CZ  TYR C   2      54.702  36.095  37.185  1.00 21.30 LIG 0.07  A 
ATOM     48  CE2 TYR C   2      54.523  34.887  36.607  1.00 23.08 LIG 0.04  A 
ATOM     49  CD2 TYR C   2      55.467  33.840  36.686  1.00 20.76 LIG 0.01  A 
BRANCH 47 50
ATOM     50 OH   TYR C   2      53.726  37.157  37.098  1.00 23.41 LIG-0.36  OA
ATOM     51 HH   TYR C   2      53.450  37.348  37.868  1.00 23.41 LIG 0.22  HD
ENDBRANCH 47 50
ENDBRANCH 43 44
ENDBRANCH 30 43
ENDBRANCH 1 30
TORSDOF 17
ENDMDL
MODEL 6
USER: ADFR SOLUTION from run 150
USER: SCORE 19.946221 LL:  -4.199 LR: -17.070 RR:   0.000 FEB: -11.998
USER: RMSD 5.953711
USER: SEED 149
USER: STATUS no improvement in best in 6 clusters for 5 generations
USER: GENES 19
USER: genes 0 Translation |==|  0.63566 0.40718 0.55064
USER: genes 1 Rotation |==|  0.45585 0.53036 0.48276 0.99682
USER: genes 2 Torsion [C]-N--CA-[CB] |==|  0.18336
USER: genes 3 Torsion [N]-CA--CB-[CG2] |==|  0.19347
USER: genes 4 Torsion [CA]-CB--CG1-[CD1] |==|  0.67874
USER: genes 5 Torsion [N]-CA--C-[N] |==|  0.04104
USER: genes 6 Torsion [C]-N--CA-[CB] |==|  0.84382
USER: genes 7 Torsion [N]-CA--C-[N] |==|  0.28448
USER: genes 8 Torsion [N]-CA--C-[O] |==|  0.54664
USER: genes 9 Torsion [N]-CA--CB-[CG] |==|  0.91521
USER: genes 10 Torsion [CA]-CB--CG-[ND1] |==|  0.86807
USER: genes 11 Torsion [N]-C--CA-[N] |==|  0.09875
USER: genes 12 Torsion [C]-CA--N-[C] |==|  0.72944
USER: genes 13 Torsion [N]-C--CA-[N] |==|  0.42552
USER: genes 14 Torsion [C]-CA--N-[H2] |==|  0.44790
USER: genes 15 Torsion [C]-CA--CB-[CG1] |==|  0.10979
USER: genes 16 Torsion [C]-CA--CB-[CG] |==|  0.40490
USER: genes 17 Torsion [CA]-CB--CG-[CD1] |==|  0.42463
USER: genes 18 Torsion [CE1]-CZ--OH-[HH] |==|  0.18122
ROOT
ATOM      1  C   TYR C   2      57.744  29.024  36.420  1.00 15.61 LIG 0.24  C 
ATOM      2 O    TYR C   2      58.623  29.100  35.549  1.00 14.40 LIG-0.27  OA
ATOM      3  N   ILE C   3      57.304  27.878  36.860  1.00 16.82 LIG-0.35  N 
ATOM      4 H    ILE C   3      56.846  27.782  37.581  1.00 16.82 LIG 0.16  HD
ENDROOT
BRANCH 3 5
ATOM      5  CA  ILE C   3      57.564  26.637  36.140  1.00 16.46 LIG 0.18  C 
BRANCH 5 6
ATOM      6  CB  ILE C   3      59.045  26.307  36.143  1.00 18.77 LIG 0.01  C 
ATOM      7  CG2 ILE C   3      59.459  25.917  37.554  1.00 19.99 LIG 0.01  C 
BRANCH 6 8
ATOM      8  CG1 ILE C   3      59.380  25.138  35.187  1.00 18.05 LIG 0.00  C 
ATOM      9  CD1 ILE C   3      59.914  23.886  35.889  1.00 24.94 LIG 0.01  C 
ENDBRANCH 6 8
ENDBRANCH 5 6
BRANCH 5 10
ATOM     10  C   ILE C   3      56.733  25.531  36.797  1.00 19.56 LIG 0.24  C 
ATOM     11  N   HIS C   4      55.763  25.881  37.619  1.00 25.52 LIG-0.35  N 
ATOM     12 H    HIS C   4      55.503  26.689  37.759  1.00 25.52 LIG 0.16  HD
ATOM     13 O    ILE C   3      56.958  24.343  36.556  1.00 16.93 LIG-0.27  OA
BRANCH 11 14
ATOM     14  CA  HIS C   4      55.040  24.842  38.381  1.00 31.94 LIG 0.18  C 
BRANCH 14 15
ATOM     15  C   HIS C   4      56.002  24.252  39.382  1.00 43.02 LIG 0.24  C 
ATOM     16 O    HIS C   4      56.786  23.384  38.950  1.00 47.49 LIG-0.27  OA
ATOM     17  N   PRO C   5      55.892  24.659  40.701  1.00 55.18 LIG-0.34  N 
ATOM     18  CA  PRO C   5      56.769  24.337  41.895  1.00 55.75 LIG 0.17  C 
ATOM     19  CD  PRO C   5      54.604  25.238  41.164  1.00 48.44 LIG 0.13  C 
ATOM     20  CB  PRO C   5      56.154  25.185  43.015  1.00 55.43 LIG 0.04  C 
ATOM     21  CG  PRO C   5      54.691  25.207  42.690  1.00 51.63 LIG 0.02  C 
BRANCH 18 22
ATOM     22  C   PRO C   5      56.749  22.892  42.368  1.00 57.38 LIG 0.22  C 
ATOM     23 O    PRO C   5      57.172  22.608  43.493  1.00 61.90 LIG-0.29  OA
ENDBRANCH 18 22
ENDBRANCH 14 15
BRANCH 14 24
ATOM     24  CB  HIS C   4      54.417  23.765  37.437  1.00 32.76 LIG 0.10  C 
BRANCH 24 25
ATOM     25  CG  HIS C   4      54.013  24.262  36.078  1.00 32.77 LIG 0.06  A 
ATOM     26 ND1  HIS C   4      53.279  25.420  35.900  1.00 34.96 LIG-0.24  NA
ATOM     27  CE1 HIS C   4      53.084  25.629  34.606  1.00 36.21 LIG 0.23  A 
ATOM     28 NE2  HIS C   4      53.659  24.639  33.933  1.00 34.31 LIG-0.25  NA
ATOM     29  CD2 HIS C   4      54.244  23.768  34.833  1.00 30.94 LIG 0.14  A 
ENDBRANCH 24 25
ENDBRANCH 14 24
ENDBRANCH 11 14
ENDBRANCH 5 10
ENDBRANCH 3 5
BRANCH 1 30
ATOM     30  CA  TYR C   2      57.180  30.237  37.098  1.00 15.99 LIG 0.18  C 
BRANCH 30 31
ATOM     31  N   TYR C   2      56.920  30.097  38.517  1.00 12.71 LIG-0.35  N 
ATOM     32  C   VAL C   1      55.741  29.816  39.000  1.00 12.74 LIG 0.25  C 
ATOM     33 O    VAL C   1      54.782  29.585  38.291  1.00 11.92 LIG-0.27  OA
ATOM     34 H    TYR C   2      57.614  30.216  39.010  1.00 12.71 LIG 0.16  HD
BRANCH 32 35
ATOM     35  CA  VAL C   1      55.607  29.858  40.530  1.00 14.22 LIG 0.28  C 
BRANCH 35 36
ATOM     36  N   VAL C   1      54.180  30.170  40.868  1.00 13.26 LIG-0.07  N 
ATOM     37 H1   VAL C   1      53.640  29.717  40.325  1.00 13.26 LIG 0.28  HD
ATOM     38 H2   VAL C   1      54.016  29.937  41.711  1.00 13.26 LIG 0.28  HD
ATOM     39 H3   VAL C   1      54.035  31.043  40.769  1.00 13.26 LIG 0.28  HD
ENDBRANCH 35 36
BRANCH 35 40
ATOM     40  CB  VAL C   1      56.132  28.602  41.260  1.00 17.02 LIG 0.02  C 
ATOM     41  CG1 VAL C   1      57.458  28.059  40.607  1.00 17.35 LIG 0.01  C 
ATOM     42  CG2 VAL C   1      56.376  28.889  42.677  1.00 19.35 LIG 0.01  C 
ENDBRANCH 35 40
ENDBRANCH 32 35
ENDBRANCH 30 31
BRANCH 30 43
ATOM     43  CB  TYR C   2      58.052  31.526  36.892  1.00 16.65 LIG 0.07  C 
BRANCH 43 44
ATOM     44  CG  TYR C   2      57.245  32.808  36.796  1.00 19.66 LIG-0.06  A 
ATOM     45  CD1 TYR C   2      57.751  34.017  37.151  1.00 23.16 LIG 0.01  A 
ATOM     46  CE1 TYR C   2      56.993  35.224  37.120  1.00 26.66 LIG 0.04  A 
ATOM     47  CZ  TYR C   2      55.708  35.210  36.742  1.00 21.30 LIG 0.07  A 
ATOM     48  CE2 TYR C   2      55.189  34.017  36.378  1.00 23.08 LIG 0.04  A 
ATOM     49  CD2 TYR C   2      55.918  32.809  36.418  1.00 20.76 LIG 0.01  A 
BRANCH 47 50
ATOM     50 OH   TYR C   2      54.949  36.440  36.698  1.00 23.41 LIG-0.36  OA
ATOM     51 HH   TYR C   2      55.269  36.946  36.109  1.00 23.41 LIG 0.22  HD
ENDBRANCH 47 50
ENDBRANCH 43 44
ENDBRANCH 30 43
ENDBRANCH 1 30
TORSDOF 17
ENDMDL
MODEL 7
USER: ADFR SOLUTION from run 55
USER: SCORE 18.500677 LL:  -3.863 LR: -17.072 RR:   0.000 FEB: -12.001
USER: RMSD 3.707804
USER: SEED 54
USER: STATUS searching
USER: GENES 19
USER: genes 0 Translation |==|  0.62576 0.47585 0.55534
USER: genes 1 Rotation |==|  0.53993 0.46093 0.46016 0.99527
USER: genes 2 Torsion [C]-N--CA-[CB] |==|  0.34294
USER: genes 3 Torsion [N]-CA--CB-[CG2] |==|  0.80804
USER: genes 4 Torsion [CA]-CB--CG1-[CD1] |==|  0.47750
USER: genes 5 Torsion [N]-CA--C-[N] |==|  0.58712
USER: genes 6 Torsion [C]-N--CA-[CB] |==|  0.78889
USER: genes 7 Torsion [N]-CA--C-[N] |==|  0.17824
USER: genes 8 Torsion [N]-CA--C-[O] |==|  0.28294
USER: genes 9 Torsion [N]-CA--CB-[CG] |==|  0.82040
USER: genes 10 Torsion [CA]-CB--CG-[ND1] |==|  0.26153
USER: genes 11 Torsion [N]-C--CA-[N] |==|  0.16180
USER: genes 12 Torsion [C]-CA--N-[C] |==|  0.78249
USER: genes 13 Torsion [N]-C--CA-[N] |==|  0.37077
USER: genes 14 Torsion [C]-CA--N-[H2] |==|  0.79785
USER: genes 15 Torsion [C]-CA--CB-[CG1] |==|  0.08745
USER: genes 16 Torsion [C]-CA--CB-[CG] |==|  0.38235
USER: genes 17 Torsion [CA]-CB--CG-[CD1] |==|  0.40668
USER: genes 18 Torsion [CE1]-CZ--OH-[HH] |==|  0.77097
ROOT
ATOM      1  C   TYR C   2      57.595  30.518  36.530  1.00 15.61 LIG 0.24  C 
ATOM      2 O    TYR C   2      58.698  30.734  36.006  1.00 14.40 LIG-0.27  OA
ATOM      3  N   ILE C   3      57.002  29.360  36.436  1.00 16.82 LIG-0.35  N 
ATOM      4 H    ILE C   3      56.344  29.115  36.933  1.00 16.82 LIG 0.16  HD
ENDROOT
BRANCH 3 5
ATOM      5  CA  ILE C   3      57.421  28.368  35.454  1.00 16.46 LIG 0.18  C 
BRANCH 5 6
ATOM      6  CB  ILE C   3      57.783  27.057  36.128  1.00 18.77 LIG 0.01  C 
ATOM      7  CG2 ILE C   3      59.063  27.252  36.927  1.00 19.99 LIG 0.01  C 
BRANCH 6 8
ATOM      8  CG1 ILE C   3      56.670  26.571  37.085  1.00 18.05 LIG 0.00  C 
ATOM      9  CD1 ILE C   3      56.892  25.162  37.642  1.00 24.94 LIG 0.01  C 
ENDBRANCH 6 8
ENDBRANCH 5 6
BRANCH 5 10
ATOM     10  C   ILE C   3      56.279  28.194  34.447  1.00 19.56 LIG 0.24  C 
ATOM     11  N   HIS C   4      56.114  27.012  33.887  1.00 25.52 LIG-0.35  N 
ATOM     12 H    HIS C   4      56.548  26.301  34.099  1.00 25.52 LIG 0.16  HD
ATOM     13 O    ILE C   3      55.527  29.132  34.176  1.00 16.93 LIG-0.27  OA
BRANCH 11 14
ATOM     14  CA  HIS C   4      55.119  26.848  32.807  1.00 31.94 LIG 0.18  C 
BRANCH 14 15
ATOM     15  C   HIS C   4      55.329  27.965  31.813  1.00 43.02 LIG 0.24  C 
ATOM     16 O    HIS C   4      54.368  28.738  31.639  1.00 47.49 LIG-0.27  OA
ATOM     17  N   PRO C   5      56.531  28.000  31.127  1.00 55.18 LIG-0.34  N 
ATOM     18  CA  PRO C   5      57.074  29.039  30.166  1.00 55.75 LIG 0.17  C 
ATOM     19  CD  PRO C   5      57.326  26.748  31.015  1.00 48.44 LIG 0.13  C 
ATOM     20  CB  PRO C   5      58.483  28.523  29.856  1.00 55.43 LIG 0.04  C 
ATOM     21  CG  PRO C   5      58.341  27.031  29.907  1.00 51.63 LIG 0.02  C 
BRANCH 18 22
ATOM     22  C   PRO C   5      56.343  29.168  28.839  1.00 57.38 LIG 0.22  C 
ATOM     23 O    PRO C   5      55.551  30.098  28.661  1.00 61.90 LIG-0.29  OA
ENDBRANCH 18 22
ENDBRANCH 14 15
BRANCH 14 24
ATOM     24  CB  HIS C   4      53.661  26.809  33.367  1.00 32.76 LIG 0.10  C 
BRANCH 24 25
ATOM     25  CG  HIS C   4      53.348  25.635  34.252  1.00 32.77 LIG 0.06  A 
ATOM     26 ND1  HIS C   4      53.456  25.696  35.630  1.00 34.96 LIG-0.24  NA
ATOM     27  CE1 HIS C   4      53.101  24.532  36.155  1.00 36.21 LIG 0.23  A 
ATOM     28 NE2  HIS C   4      52.775  23.711  35.164  1.00 34.31 LIG-0.25  NA
ATOM     29  CD2 HIS C   4      52.924  24.377  33.963  1.00 30.94 LIG 0.14  A 
ENDBRANCH 24 25
ENDBRANCH 14 24
ENDBRANCH 11 14
ENDBRANCH 5 10
ENDBRANCH 3 5
BRANCH 1 30
ATOM     30  CA  TYR C   2      56.899  31.537  37.381  1.00 15.99 LIG 0.18  C 
BRANCH 30 31
ATOM     31  N   TYR C   2      56.668  31.149  38.759  1.00 12.71 LIG-0.35  N 
ATOM     32  C   VAL C   1      55.706  30.346  39.121  1.00 12.74 LIG 0.25  C 
ATOM     33 O    VAL C   1      54.967  29.808  38.320  1.00 11.92 LIG-0.27  OA
ATOM     34 H    TYR C   2      57.225  31.497  39.314  1.00 12.71 LIG 0.16  HD
BRANCH 32 35
ATOM     35  CA  VAL C   1      55.508  30.164  40.633  1.00 14.22 LIG 0.28  C 
BRANCH 35 36
ATOM     36  N   VAL C   1      54.043  30.289  40.933  1.00 13.26 LIG-0.07  N 
ATOM     37 H1   VAL C   1      53.885  30.006  41.762  1.00 13.26 LIG 0.28  HD
ATOM     38 H2   VAL C   1      53.796  31.141  40.858  1.00 13.26 LIG 0.28  HD
ATOM     39 H3   VAL C   1      53.579  29.794  40.357  1.00 13.26 LIG 0.28  HD
ENDBRANCH 35 36
BRANCH 35 40
ATOM     40  CB  VAL C   1      56.128  28.875  41.217  1.00 17.02 LIG 0.02  C 
ATOM     41  CG1 VAL C   1      57.423  28.444  40.432  1.00 17.35 LIG 0.01  C 
ATOM     42  CG2 VAL C   1      56.460  29.054  42.634  1.00 19.35 LIG 0.01  C 
ENDBRANCH 35 40
ENDBRANCH 32 35
ENDBRANCH 30 31
BRANCH 30 43
ATOM     43  CB  TYR C   2      57.611  32.935  37.386  1.00 16.65 LIG 0.07  C 
BRANCH 43 44
ATOM     44  CG  TYR C   2      56.659  34.112  37.285  1.00 19.66 LIG-0.06  A 
ATOM     45  CD1 TYR C   2      56.899  35.299  37.901  1.00 23.16 LIG 0.01  A 
ATOM     46  CE1 TYR C   2      55.992  36.399  37.864  1.00 26.66 LIG 0.04  A 
ATOM     47  CZ  TYR C   2      54.826  36.297  37.212  1.00 21.30 LIG 0.07  A 
ATOM     48  CE2 TYR C   2      54.574  35.126  36.587  1.00 23.08 LIG 0.04  A 
ATOM     49  CD2 TYR C   2      55.451  34.020  36.626  1.00 20.76 LIG 0.01  A 
BRANCH 47 50
ATOM     50 OH   TYR C   2      53.919  37.421  37.166  1.00 23.41 LIG-0.36  OA
ATOM     51 HH   TYR C   2      53.463  37.444  37.871  1.00 23.41 LIG 0.22  HD
ENDBRANCH 47 50
ENDBRANCH 43 44
ENDBRANCH 30 43
ENDBRANCH 1 30
TORSDOF 17
ENDMDL
MODEL 8
USER: ADFR SOLUTION from run 55
USER: SCORE 19.330196 LL:  -4.184 LR: -16.683 RR:   0.000 FEB: -11.612
USER: RMSD 3.650816
USER: SEED 54
USER: STATUS searching
USER: GENES 19
USER: genes 0 Translation |==|  0.62242 0.48739 0.55040
USER: genes 1 Rotation |==|  0.57171 0.43858 0.43753 0.98701
USER: genes 2 Torsion [C]-N--CA-[CB] |==|  0.26533
USER: genes 3 Torsion [N]-CA--CB-[CG2] |==|  0.74884
USER: genes 4 Torsion [CA]-CB--CG1-[CD1] |==|  0.56259
USER: genes 5 Torsion [N]-CA--C-[N] |==|  0.30584
USER: genes 6 Torsion [C]-N--CA-[CB] |==|  0.16667
USER: genes 7 Torsion [N]-CA--C-[N] |==|  0.12751
USER: genes 8 Torsion [N]-CA--C-[O] |==|  0.13746
USER: genes 9 Torsion [N]-CA--CB-[CG] |==|  0.14199
USER: genes 10 Torsion [CA]-CB--CG-[ND1] |==|  0.70034
USER: genes 11 Torsion [N]-C--CA-[N] |==|  0.18898
USER: genes 12 Torsion [C]-CA--N-[C] |==|  0.78262
USER: genes 13 Torsion [N]-C--CA-[N] |==|  0.36967
USER: genes 14 Torsion [C]-CA--N-[H2] |==|  0.46199
USER: genes 15 Torsion [C]-CA--CB-[CG1] |==|  0.11013
USER: genes 16 Torsion [C]-CA--CB-[CG] |==|  0.37195
USER: genes 17 Torsion [CA]-CB--CG-[CD1] |==|  0.41703
USER: genes 18 Torsion [CE1]-CZ--OH-[HH] |==|  0.83173
ROOT
ATOM      1  C   TYR C   2      57.545  30.769  36.415  1.00 15.61 LIG 0.24  C 
ATOM      2 O    TYR C   2      58.709  30.943  36.023  1.00 14.40 LIG-0.27  OA
ATOM      3  N   ILE C   3      56.870  29.694  36.117  1.00 16.82 LIG-0.35  N 
ATOM      4 H    ILE C   3      56.148  29.453  36.517  1.00 16.82 LIG 0.16  HD
ENDROOT
BRANCH 3 5
ATOM      5  CA  ILE C   3      57.300  28.795  35.053  1.00 16.46 LIG 0.18  C 
BRANCH 5 6
ATOM      6  CB  ILE C   3      58.116  27.643  35.612  1.00 18.77 LIG 0.01  C 
ATOM      7  CG2 ILE C   3      59.585  28.038  35.618  1.00 19.99 LIG 0.01  C 
BRANCH 6 8
ATOM      8  CG1 ILE C   3      57.693  27.282  37.055  1.00 18.05 LIG 0.00  C 
ATOM      9  CD1 ILE C   3      58.770  26.548  37.860  1.00 24.94 LIG 0.01  C 
ENDBRANCH 6 8
ENDBRANCH 5 6
BRANCH 5 10
ATOM     10  C   ILE C   3      56.048  28.303  34.320  1.00 19.56 LIG 0.24  C 
ATOM     11  N   HIS C   4      55.834  28.729  33.092  1.00 25.52 LIG-0.35  N 
ATOM     12 H    HIS C   4      56.385  29.204  32.631  1.00 25.52 LIG 0.16  HD
ATOM     13 O    ILE C   3      55.265  27.520  34.862  1.00 16.93 LIG-0.27  OA
BRANCH 11 14
ATOM     14  CA  HIS C   4      54.567  28.392  32.411  1.00 31.94 LIG 0.18  C 
BRANCH 14 15
ATOM     15  C   HIS C   4      54.649  28.919  30.999  1.00 43.02 LIG 0.24  C 
ATOM     16 O    HIS C   4      53.626  29.477  30.557  1.00 47.49 LIG-0.27  OA
ATOM     17  N   PRO C   5      55.812  28.679  30.287  1.00 55.18 LIG-0.34  N 
ATOM     18  CA  PRO C   5      56.231  29.168  28.914  1.00 55.75 LIG 0.17  C 
ATOM     19  CD  PRO C   5      56.691  27.558  30.711  1.00 48.44 LIG 0.13  C 
ATOM     20  CB  PRO C   5      57.659  28.627  28.775  1.00 55.43 LIG 0.04  C 
ATOM     21  CG  PRO C   5      57.629  27.331  29.526  1.00 51.63 LIG 0.02  C 
BRANCH 18 22
ATOM     22  C   PRO C   5      55.432  28.626  27.739  1.00 57.38 LIG 0.22  C 
ATOM     23 O    PRO C   5      54.198  28.661  27.768  1.00 61.90 LIG-0.29  OA
ENDBRANCH 18 22
ENDBRANCH 14 15
BRANCH 14 24
ATOM     24  CB  HIS C   4      53.330  28.946  33.189  1.00 32.76 LIG 0.10  C 
BRANCH 24 25
ATOM     25  CG  HIS C   4      53.401  30.403  33.547  1.00 32.77 LIG 0.06  A 
ATOM     26 ND1  HIS C   4      53.603  30.839  34.845  1.00 34.96 LIG-0.24  NA
ATOM     27  CE1 HIS C   4      53.641  32.163  34.868  1.00 36.21 LIG 0.23  A 
ATOM     28 NE2  HIS C   4      53.460  32.607  33.630  1.00 34.31 LIG-0.25  NA
ATOM     29  CD2 HIS C   4      53.304  31.524  32.785  1.00 30.94 LIG 0.14  A 
ENDBRANCH 24 25
ENDBRANCH 14 24
ENDBRANCH 11 14
ENDBRANCH 5 10
ENDBRANCH 3 5
BRANCH 1 30
ATOM     30  CA  TYR C   2      56.855  31.736  37.329  1.00 15.99 LIG 0.18  C 
BRANCH 30 31
ATOM     31  N   TYR C   2      56.655  31.278  38.689  1.00 12.71 LIG-0.35  N 
ATOM     32  C   VAL C   1      55.709  30.446  39.029  1.00 12.74 LIG 0.25  C 
ATOM     33 O    VAL C   1      54.961  29.940  38.217  1.00 11.92 LIG-0.27  OA
ATOM     34 H    TYR C   2      57.218  31.605  39.251  1.00 12.71 LIG 0.16  HD
BRANCH 32 35
ATOM     35  CA  VAL C   1      55.541  30.188  40.534  1.00 14.22 LIG 0.28  C 
BRANCH 35 36
ATOM     36  N   VAL C   1      54.083  30.289  40.869  1.00 13.26 LIG-0.07  N 
ATOM     37 H1   VAL C   1      53.609  29.832  40.270  1.00 13.26 LIG 0.28  HD
ATOM     38 H2   VAL C   1      53.940  29.953  41.680  1.00 13.26 LIG 0.28  HD
ATOM     39 H3   VAL C   1      53.834  31.144  40.854  1.00 13.26 LIG 0.28  HD
ENDBRANCH 35 36
BRANCH 35 40
ATOM     40  CB  VAL C   1      56.179  28.874  41.040  1.00 17.02 LIG 0.02  C 
ATOM     41  CG1 VAL C   1      57.568  28.597  40.352  1.00 17.35 LIG 0.01  C 
ATOM     42  CG2 VAL C   1      56.361  28.912  42.494  1.00 19.35 LIG 0.01  C 
ENDBRANCH 35 40
ENDBRANCH 32 35
ENDBRANCH 30 31
BRANCH 30 43
ATOM     43  CB  TYR C   2      57.552  33.141  37.390  1.00 16.65 LIG 0.07  C 
BRANCH 43 44
ATOM     44  CG  TYR C   2      56.593  34.311  37.276  1.00 19.66 LIG-0.06  A 
ATOM     45  CD1 TYR C   2      56.834  35.511  37.864  1.00 23.16 LIG 0.01  A 
ATOM     46  CE1 TYR C   2      55.921  36.606  37.815  1.00 26.66 LIG 0.04  A 
ATOM     47  CZ  TYR C   2      54.749  36.485  37.178  1.00 21.30 LIG 0.07  A 
ATOM     48  CE2 TYR C   2      54.495  35.300  36.580  1.00 23.08 LIG 0.04  A 
ATOM     49  CD2 TYR C   2      55.378  34.200  36.632  1.00 20.76 LIG 0.01  A 
BRANCH 47 50
ATOM     50 OH   TYR C   2      53.835  37.604  37.119  1.00 23.41 LIG-0.36  OA
ATOM     51 HH   TYR C   2      53.612  37.826  37.898  1.00 23.41 LIG 0.22  HD
ENDBRANCH 47 50
ENDBRANCH 43 44
ENDBRANCH 30 43
ENDBRANCH 1 30
TORSDOF 17
ENDMDL
MODEL 9
USER: ADFR SOLUTION from run 12
USER: SCORE 18.937926 LL:  -3.356 LR: -16.529 RR:   0.000 FEB: -11.458
USER: RMSD 5.691212
USER: SEED 469539
USER: STATUS no improvement in best in 9 clusters for 5 generations
USER: GENES 19
USER: genes 0 Translation |==|  0.59661 0.42684 0.55568
USER: genes 1 Rotation |==|  0.52939 0.43244 0.38647 0.98133
USER: genes 2 Torsion [C]-N--CA-[CB] |==|  0.88008
USER: genes 3 Torsion [N]-CA--CB-[CG2] |==|  0.39583
USER: genes 4 Torsion [CA]-CB--CG1-[CD1] |==|  0.14424
USER: genes 5 Torsion [N]-CA--C-[N] |==|  0.41399
USER: genes 6 Torsion [C]-N--CA-[CB] |==|  0.86111
USER: genes 7 Torsion [N]-CA--C-[N] |==|  0.38650
USER: genes 8 Torsion [N]-CA--C-[O] |==|  0.43251
USER: genes 9 Torsion [N]-CA--CB-[CG] |==|  0.73223
USER: genes 10 Torsion [CA]-CB--CG-[ND1] |==|  0.67707
USER: genes 11 Torsion [N]-C--CA-[N] |==|  0.20103
USER: genes 12 Torsion [C]-CA--N-[C] |==|  0.77345
USER: genes 13 Torsion [N]-C--CA-[N] |==|  0.39091
USER: genes 14 Torsion [C]-CA--N-[H2] |==|  0.17736
USER: genes 15 Torsion [C]-CA--CB-[CG1] |==|  0.06235
USER: genes 16 Torsion [C]-CA--CB-[CG] |==|  0.39403
USER: genes 17 Torsion [CA]-CB--CG-[CD1] |==|  0.91628
USER: genes 18 Torsion [CE1]-CZ--OH-[HH] |==|  0.71506
ROOT
ATOM      1  C   TYR C   2      57.158  29.452  36.538  1.00 15.61 LIG 0.24  C 
ATOM      2 O    TYR C   2      58.315  29.304  36.116  1.00 14.40 LIG-0.27  OA
ATOM      3  N   ILE C   3      56.249  28.527  36.400  1.00 16.82 LIG-0.35  N 
ATOM      4 H    ILE C   3      55.508  28.511  36.835  1.00 16.82 LIG 0.16  HD
ENDROOT
BRANCH 3 5
ATOM      5  CA  ILE C   3      56.427  27.418  35.470  1.00 16.46 LIG 0.18  C 
BRANCH 5 6
ATOM      6  CB  ILE C   3      56.992  27.904  34.148  1.00 18.77 LIG 0.01  C 
ATOM      7  CG2 ILE C   3      57.974  26.868  33.622  1.00 19.99 LIG 0.01  C 
BRANCH 6 8
ATOM      8  CG1 ILE C   3      55.884  28.118  33.089  1.00 18.05 LIG 0.00  C 
ATOM      9  CD1 ILE C   3      54.724  28.998  33.563  1.00 24.94 LIG 0.01  C 
ENDBRANCH 6 8
ENDBRANCH 5 6
BRANCH 5 10
ATOM     10  C   ILE C   3      57.345  26.389  36.138  1.00 19.56 LIG 0.24  C 
ATOM     11  N   HIS C   4      57.180  25.116  35.839  1.00 25.52 LIG-0.35  N 
ATOM     12 H    HIS C   4      56.646  24.817  35.234  1.00 25.52 LIG 0.16  HD
ATOM     13 O    ILE C   3      58.223  26.744  36.927  1.00 16.93 LIG-0.27  OA
BRANCH 11 14
ATOM     14  CA  HIS C   4      57.947  24.088  36.571  1.00 31.94 LIG 0.18  C 
BRANCH 14 15
ATOM     15  C   HIS C   4      57.345  23.959  37.949  1.00 43.02 LIG 0.24  C 
ATOM     16 O    HIS C   4      57.073  25.024  38.536  1.00 47.49 LIG-0.27  OA
ATOM     17  N   PRO C   5      57.212  22.687  38.479  1.00 55.18 LIG-0.34  N 
ATOM     18  CA  PRO C   5      56.553  22.232  39.767  1.00 55.75 LIG 0.17  C 
ATOM     19  CD  PRO C   5      58.063  21.595  37.937  1.00 48.44 LIG 0.13  C 
ATOM     20  CB  PRO C   5      56.665  20.705  39.693  1.00 55.43 LIG 0.04  C 
ATOM     21  CG  PRO C   5      57.956  20.471  38.968  1.00 51.63 LIG 0.02  C 
BRANCH 18 22
ATOM     22  C   PRO C   5      57.235  22.668  41.055  1.00 57.38 LIG 0.22  C 
ATOM     23 O    PRO C   5      56.580  22.748  42.098  1.00 61.90 LIG-0.29  OA
ENDBRANCH 18 22
ENDBRANCH 14 15
BRANCH 14 24
ATOM     24  CB  HIS C   4      59.472  24.425  36.610  1.00 32.76 LIG 0.10  C 
BRANCH 24 25
ATOM     25  CG  HIS C   4      60.302  23.752  35.555  1.00 32.77 LIG 0.06  A 
ATOM     26 ND1  HIS C   4      61.298  22.842  35.863  1.00 34.96 LIG-0.24  NA
ATOM     27  CE1 HIS C   4      61.851  22.393  34.746  1.00 36.21 LIG 0.23  A 
ATOM     28 NE2  HIS C   4      61.257  22.988  33.718  1.00 34.31 LIG-0.25  NA
ATOM     29  CD2 HIS C   4      60.286  23.846  34.199  1.00 30.94 LIG 0.14  A 
ENDBRANCH 24 25
ENDBRANCH 14 24
ENDBRANCH 11 14
ENDBRANCH 5 10
ENDBRANCH 3 5
BRANCH 1 30
ATOM     30  CA  TYR C   2      56.736  30.665  37.311  1.00 15.99 LIG 0.18  C 
BRANCH 30 31
ATOM     31  N   TYR C   2      56.589  30.475  38.741  1.00 12.71 LIG-0.35  N 
ATOM     32  C   VAL C   1      55.520  29.958  39.284  1.00 12.74 LIG 0.25  C 
ATOM     33 O    VAL C   1      54.592  29.535  38.625  1.00 11.92 LIG-0.27  OA
ATOM     34 H    TYR C   2      57.270  30.735  39.197  1.00 12.71 LIG 0.16  HD
BRANCH 32 35
ATOM     35  CA  VAL C   1      55.465  29.973  40.819  1.00 14.22 LIG 0.28  C 
BRANCH 35 36
ATOM     36  N   VAL C   1      54.060  30.293  41.235  1.00 13.26 LIG-0.07  N 
ATOM     37 H1   VAL C   1      53.810  31.064  40.867  1.00 13.26 LIG 0.28  HD
ATOM     38 H2   VAL C   1      53.515  29.644  40.963  1.00 13.26 LIG 0.28  HD
ATOM     39 H3   VAL C   1      54.021  30.361  42.122  1.00 13.26 LIG 0.28  HD
ENDBRANCH 35 36
BRANCH 35 40
ATOM     40  CB  VAL C   1      56.013  28.698  41.499  1.00 17.02 LIG 0.02  C 
ATOM     41  CG1 VAL C   1      57.003  27.916  40.557  1.00 17.35 LIG 0.01  C 
ATOM     42  CG2 VAL C   1      56.700  29.032  42.750  1.00 19.35 LIG 0.01  C 
ENDBRANCH 35 40
ENDBRANCH 32 35
ENDBRANCH 30 31
BRANCH 30 43
ATOM     43  CB  TYR C   2      57.672  31.905  37.083  1.00 16.65 LIG 0.07  C 
BRANCH 43 44
ATOM     44  CG  TYR C   2      56.935  33.229  37.018  1.00 19.66 LIG-0.06  A 
ATOM     45  CD1 TYR C   2      55.662  33.334  36.555  1.00 23.16 LIG 0.01  A 
ATOM     46  CE1 TYR C   2      54.971  34.576  36.434  1.00 26.66 LIG 0.04  A 
ATOM     47  CZ  TYR C   2      55.574  35.724  36.769  1.00 21.30 LIG 0.07  A 
ATOM     48  CE2 TYR C   2      56.837  35.639  37.239  1.00 23.08 LIG 0.04  A 
ATOM     49  CD2 TYR C   2      57.544  34.422  37.349  1.00 20.76 LIG 0.01  A 
BRANCH 47 50
ATOM     50 OH   TYR C   2      54.862  36.978  36.658  1.00 23.41 LIG-0.36  OA
ATOM     51 HH   TYR C   2      55.116  37.384  35.968  1.00 23.41 LIG 0.22  HD
ENDBRANCH 47 50
ENDBRANCH 43 44
ENDBRANCH 30 43
ENDBRANCH 1 30
TORSDOF 17
ENDMDL
MODEL 10
USER: ADFR SOLUTION from run 137
USER: SCORE 17.753065 LL:  -4.188 LR: -16.495 RR:   0.000 FEB: -11.424
USER: RMSD 4.336318
USER: SEED 136
USER: STATUS no improvement in best in 13 clusters for 5 generations
USER: GENES 19
USER: genes 0 Translation |==|  0.62172 0.47191 0.55333
USER: genes 1 Rotation |==|  0.53786 0.45261 0.45230 0.99401
USER: genes 2 Torsion [C]-N--CA-[CB] |==|  0.21111
USER: genes 3 Torsion [N]-CA--CB-[CG2] |==|  0.73241
USER: genes 4 Torsion [CA]-CB--CG1-[CD1] |==|  0.21876
USER: genes 5 Torsion [N]-CA--C-[N] |==|  0.67546
USER: genes 6 Torsion [C]-N--CA-[CB] |==|  0.31828
USER: genes 7 Torsion [N]-CA--C-[N] |==|  0.80560
USER: genes 8 Torsion [N]-CA--C-[O] |==|  0.18329
USER: genes 9 Torsion [N]-CA--CB-[CG] |==|  0.96956
USER: genes 10 Torsion [CA]-CB--CG-[ND1] |==|  0.24091
USER: genes 11 Torsion [N]-C--CA-[N] |==|  0.17262
USER: genes 12 Torsion [C]-CA--N-[C] |==|  0.78748
USER: genes 13 Torsion [N]-C--CA-[N] |==|  0.37150
USER: genes 14 Torsion [C]-CA--N-[H2] |==|  0.77933
USER: genes 15 Torsion [C]-CA--CB-[CG1] |==|  0.11690
USER: genes 16 Torsion [C]-CA--CB-[CG] |==|  0.39861
USER: genes 17 Torsion [CA]-CB--CG-[CD1] |==|  0.89225
USER: genes 18 Torsion [CE1]-CZ--OH-[HH] |==|  0.36921
ROOT
ATOM      1  C   TYR C   2      57.535  30.432  36.483  1.00 15.61 LIG 0.24  C 
ATOM      2 O    TYR C   2      58.660  30.606  35.991  1.00 14.40 LIG-0.27  OA
ATOM      3  N   ILE C   3      56.904  29.295  36.380  1.00 16.82 LIG-0.35  N 
ATOM      4 H    ILE C   3      56.224  29.077  36.858  1.00 16.82 LIG 0.16  HD
ENDROOT
BRANCH 3 5
ATOM      5  CA  ILE C   3      57.317  28.280  35.419  1.00 16.46 LIG 0.18  C 
BRANCH 5 6
ATOM      6  CB  ILE C   3      58.563  27.557  35.895  1.00 18.77 LIG 0.01  C 
ATOM      7  CG2 ILE C   3      59.782  28.199  35.249  1.00 19.99 LIG 0.01  C 
BRANCH 6 8
ATOM      8  CG1 ILE C   3      58.722  27.626  37.432  1.00 18.05 LIG 0.00  C 
ATOM      9  CD1 ILE C   3      57.835  26.643  38.200  1.00 24.94 LIG 0.01  C 
ENDBRANCH 6 8
ENDBRANCH 5 6
BRANCH 5 10
ATOM     10  C   ILE C   3      56.142  27.318  35.218  1.00 19.56 LIG 0.24  C 
ATOM     11  N   HIS C   4      56.298  26.058  35.570  1.00 25.52 LIG-0.35  N 
ATOM     12 H    HIS C   4      56.985  25.741  35.980  1.00 25.52 LIG 0.16  HD
ATOM     13 O    ILE C   3      55.073  27.715  34.749  1.00 16.93 LIG-0.27  OA
BRANCH 11 14
ATOM     14  CA  HIS C   4      55.240  25.075  35.256  1.00 31.94 LIG 0.18  C 
BRANCH 14 15
ATOM     15  C   HIS C   4      54.778  24.466  36.557  1.00 43.02 LIG 0.24  C 
ATOM     16 O    HIS C   4      53.659  24.828  36.971  1.00 47.49 LIG-0.27  OA
ATOM     17  N   PRO C   5      55.650  23.619  37.220  1.00 55.18 LIG-0.34  N 
ATOM     18  CA  PRO C   5      55.436  22.782  38.466  1.00 55.75 LIG 0.17  C 
ATOM     19  CD  PRO C   5      57.104  23.718  36.923  1.00 48.44 LIG 0.13  C 
ATOM     20  CB  PRO C   5      56.755  22.010  38.595  1.00 55.43 LIG 0.04  C 
ATOM     21  CG  PRO C   5      57.784  22.962  38.065  1.00 51.63 LIG 0.02  C 
BRANCH 18 22
ATOM     22  C   PRO C   5      55.241  23.552  39.762  1.00 57.38 LIG 0.22  C 
ATOM     23 O    PRO C   5      54.237  24.254  39.914  1.00 61.90 LIG-0.29  OA
ENDBRANCH 18 22
ENDBRANCH 14 15
BRANCH 14 24
ATOM     24  CB  HIS C   4      55.734  24.004  34.232  1.00 32.76 LIG 0.10  C 
BRANCH 24 25
ATOM     25  CG  HIS C   4      57.051  24.307  33.576  1.00 32.77 LIG 0.06  A 
ATOM     26 ND1  HIS C   4      58.262  23.951  34.143  1.00 34.96 LIG-0.24  NA
ATOM     27  CE1 HIS C   4      59.253  24.320  33.345  1.00 36.21 LIG 0.23  A 
ATOM     28 NE2  HIS C   4      58.729  24.915  32.280  1.00 34.31 LIG-0.25  NA
ATOM     29  CD2 HIS C   4      57.353  24.922  32.402  1.00 30.94 LIG 0.14  A 
ENDBRANCH 24 25
ENDBRANCH 14 24
ENDBRANCH 11 14
ENDBRANCH 5 10
ENDBRANCH 3 5
BRANCH 1 30
ATOM     30  CA  TYR C   2      56.849  31.482  37.305  1.00 15.99 LIG 0.18  C 
BRANCH 30 31
ATOM     31  N   TYR C   2      56.643  31.148  38.700  1.00 12.71 LIG-0.35  N 
ATOM     32  C   VAL C   1      55.711  30.331  39.107  1.00 12.74 LIG 0.25  C 
ATOM     33 O    VAL C   1      54.983  29.734  38.338  1.00 11.92 LIG-0.27  OA
ATOM     34 H    TYR C   2      57.192  31.538  39.234  1.00 12.71 LIG 0.16  HD
BRANCH 32 35
ATOM     35  CA  VAL C   1      55.531  30.209  40.628  1.00 14.22 LIG 0.28  C 
BRANCH 35 36
ATOM     36  N   VAL C   1      54.065  30.293  40.935  1.00 13.26 LIG-0.07  N 
ATOM     37 H1   VAL C   1      53.912  29.951  41.743  1.00 13.26 LIG 0.28  HD
ATOM     38 H2   VAL C   1      53.806  31.144  40.919  1.00 13.26 LIG 0.28  HD
ATOM     39 H3   VAL C   1      53.608  29.832  40.327  1.00 13.26 LIG 0.28  HD
ENDBRANCH 35 36
BRANCH 35 40
ATOM     40  CB  VAL C   1      56.204  28.971  41.262  1.00 17.02 LIG 0.02  C 
ATOM     41  CG1 VAL C   1      57.636  28.715  40.662  1.00 17.35 LIG 0.01  C 
ATOM     42  CG2 VAL C   1      56.312  29.128  42.716  1.00 19.35 LIG 0.01  C 
ENDBRANCH 35 40
ENDBRANCH 32 35
ENDBRANCH 30 31
BRANCH 30 43
ATOM     43  CB  TYR C   2      57.556  32.881  37.243  1.00 16.65 LIG 0.07  C 
BRANCH 43 44
ATOM     44  CG  TYR C   2      56.598  34.058  37.253  1.00 19.66 LIG-0.06  A 
ATOM     45  CD1 TYR C   2      55.417  34.042  36.582  1.00 23.16 LIG 0.01  A 
ATOM     46  CE1 TYR C   2      54.528  35.157  36.533  1.00 26.66 LIG 0.04  A 
ATOM     47  CZ  TYR C   2      54.839  36.301  37.156  1.00 21.30 LIG 0.07  A 
ATOM     48  CE2 TYR C   2      56.006  36.332  37.835  1.00 23.08 LIG 0.04  A 
ATOM     49  CD2 TYR C   2      56.908  35.247  37.881  1.00 20.76 LIG 0.01  A 
BRANCH 47 50
ATOM     50 OH   TYR C   2      53.926  37.422  37.116  1.00 23.41 LIG-0.36  OA
ATOM     51 HH   TYR C   2      53.835  37.737  37.889  1.00 23.41 LIG 0.22  HD
ENDBRANCH 47 50
ENDBRANCH 43 44
ENDBRANCH 30 43
ENDBRANCH 1 30
TORSDOF 17
ENDMDL
MODEL 11
USER: ADFR SOLUTION from run 105
USER: SCORE 19.063291 LL:  -3.964 LR: -16.477 RR:   0.000 FEB: -11.406
USER: RMSD 4.174739
USER: SEED 104
USER: STATUS searching
USER: GENES 19
USER: genes 0 Translation |==|  0.62888 0.47998 0.54862
USER: genes 1 Rotation |==|  0.55900 0.43368 0.45066 0.98958
USER: genes 2 Torsion [C]-N--CA-[CB] |==|  0.21650
USER: genes 3 Torsion [N]-CA--CB-[CG2] |==|  0.73634
USER: genes 4 Torsion [CA]-CB--CG1-[CD1] |==|  0.32560
USER: genes 5 Torsion [N]-CA--C-[N] |==|  0.94538
USER: genes 6 Torsion [C]-N--CA-[CB] |==|  0.80000
USER: genes 7 Torsion [N]-CA--C-[N] |==|  0.18173
USER: genes 8 Torsion [N]-CA--C-[O] |==|  0.02124
USER: genes 9 Torsion [N]-CA--CB-[CG] |==|  0.75585
USER: genes 10 Torsion [CA]-CB--CG-[ND1] |==|  0.47232
USER: genes 11 Torsion [N]-C--CA-[N] |==|  0.19192
USER: genes 12 Torsion [C]-CA--N-[C] |==|  0.76795
USER: genes 13 Torsion [N]-C--CA-[N] |==|  0.39207
USER: genes 14 Torsion [C]-CA--N-[H2] |==|  0.43902
USER: genes 15 Torsion [C]-CA--CB-[CG1] |==|  0.45898
USER: genes 16 Torsion [C]-CA--CB-[CG] |==|  0.38696
USER: genes 17 Torsion [CA]-CB--CG-[CD1] |==|  0.38917
USER: genes 18 Torsion [CE1]-CZ--OH-[HH] |==|  0.85921
ROOT
ATOM      1  C   TYR C   2      57.642  30.608  36.373  1.00 15.61 LIG 0.24  C 
ATOM      2 O    TYR C   2      58.805  30.809  35.993  1.00 14.40 LIG-0.27  OA
ATOM      3  N   ILE C   3      57.020  29.488  36.130  1.00 16.82 LIG-0.35  N 
ATOM      4 H    ILE C   3      56.301  29.240  36.530  1.00 16.82 LIG 0.16  HD
ENDROOT
BRANCH 3 5
ATOM      5  CA  ILE C   3      57.510  28.548  35.129  1.00 16.46 LIG 0.18  C 
BRANCH 5 6
ATOM      6  CB  ILE C   3      58.679  27.744  35.667  1.00 18.77 LIG 0.01  C 
ATOM      7  CG2 ILE C   3      59.976  28.418  35.243  1.00 19.99 LIG 0.01  C 
BRANCH 6 8
ATOM      8  CG1 ILE C   3      58.653  27.645  37.210  1.00 18.05 LIG 0.00  C 
ATOM      9  CD1 ILE C   3      58.500  26.219  37.746  1.00 24.94 LIG 0.01  C 
ENDBRANCH 6 8
ENDBRANCH 5 6
BRANCH 5 10
ATOM     10  C   ILE C   3      56.340  27.647  34.721  1.00 19.56 LIG 0.24  C 
ATOM     11  N   HIS C   4      55.303  27.561  35.530  1.00 25.52 LIG-0.35  N 
ATOM     12 H    HIS C   4      55.191  28.034  36.240  1.00 25.52 LIG 0.16  HD
ATOM     13 O    ILE C   3      56.363  27.025  33.656  1.00 16.93 LIG-0.27  OA
BRANCH 11 14
ATOM     14  CA  HIS C   4      54.226  26.592  35.239  1.00 31.94 LIG 0.18  C 
BRANCH 14 15
ATOM     15  C   HIS C   4      54.865  25.240  35.039  1.00 43.02 LIG 0.24  C 
ATOM     16 O    HIS C   4      54.719  24.720  33.916  1.00 47.49 LIG-0.27  OA
ATOM     17  N   PRO C   5      55.493  24.655  36.126  1.00 55.18 LIG-0.34  N 
ATOM     18  CA  PRO C   5      56.307  23.379  36.209  1.00 55.75 LIG 0.17  C 
ATOM     19  CD  PRO C   5      55.116  25.102  37.493  1.00 48.44 LIG 0.13  C 
ATOM     20  CB  PRO C   5      56.792  23.372  37.663  1.00 55.43 LIG 0.04  C 
ATOM     21  CG  PRO C   5      55.675  24.023  38.421  1.00 51.63 LIG 0.02  C 
BRANCH 18 22
ATOM     22  C   PRO C   5      55.542  22.083  35.988  1.00 57.38 LIG 0.22  C 
ATOM     23 O    PRO C   5      54.365  22.121  35.619  1.00 61.90 LIG-0.29  OA
ENDBRANCH 18 22
ENDBRANCH 14 15
BRANCH 14 24
ATOM     24  CB  HIS C   4      53.366  27.038  34.014  1.00 32.76 LIG 0.10  C 
BRANCH 24 25
ATOM     25  CG  HIS C   4      52.208  27.939  34.340  1.00 32.77 LIG 0.06  A 
ATOM     26 ND1  HIS C   4      51.472  28.583  33.362  1.00 34.96 LIG-0.24  NA
ATOM     27  CE1 HIS C   4      50.505  29.291  33.927  1.00 36.21 LIG 0.23  A 
ATOM     28 NE2  HIS C   4      50.592  29.138  35.243  1.00 34.31 LIG-0.25  NA
ATOM     29  CD2 HIS C   4      51.653  28.299  35.527  1.00 30.94 LIG 0.14  A 
ENDBRANCH 24 25
ENDBRANCH 14 24
ENDBRANCH 11 14
ENDBRANCH 5 10
ENDBRANCH 3 5
BRANCH 1 30
ATOM     30  CA  TYR C   2      56.892  31.596  37.215  1.00 15.99 LIG 0.18  C 
BRANCH 30 31
ATOM     31  N   TYR C   2      56.706  31.222  38.603  1.00 12.71 LIG-0.35  N 
ATOM     32  C   VAL C   1      55.740  30.444  39.007  1.00 12.74 LIG 0.25  C 
ATOM     33 O    VAL C   1      54.959  29.918  38.239  1.00 11.92 LIG-0.27  OA
ATOM     34 H    TYR C   2      57.290  31.561  39.135  1.00 12.71 LIG 0.16  HD
BRANCH 32 35
ATOM     35  CA  VAL C   1      55.595  30.276  40.527  1.00 14.22 LIG 0.28  C 
BRANCH 35 36
ATOM     36  N   VAL C   1      54.133  30.247  40.859  1.00 13.26 LIG-0.07  N 
ATOM     37 H1   VAL C   1      53.694  29.799  40.227  1.00 13.26 LIG 0.28  HD
ATOM     38 H2   VAL C   1      54.014  29.844  41.644  1.00 13.26 LIG 0.28  HD
ATOM     39 H3   VAL C   1      53.822  31.079  40.903  1.00 13.26 LIG 0.28  HD
ENDBRANCH 35 36
BRANCH 35 40
ATOM     40  CB  VAL C   1      56.365  29.075  41.122  1.00 17.02 LIG 0.02  C 
ATOM     41  CG1 VAL C   1      56.482  29.176  42.689  1.00 17.35 LIG 0.01  C 
ATOM     42  CG2 VAL C   1      55.709  27.812  40.769  1.00 19.35 LIG 0.01  C 
ENDBRANCH 35 40
ENDBRANCH 32 35
ENDBRANCH 30 31
BRANCH 30 43
ATOM     43  CB  TYR C   2      57.513  33.038  37.183  1.00 16.65 LIG 0.07  C 
BRANCH 43 44
ATOM     44  CG  TYR C   2      56.484  34.151  37.113  1.00 19.66 LIG-0.06  A 
ATOM     45  CD1 TYR C   2      56.613  35.308  37.812  1.00 23.16 LIG 0.01  A 
ATOM     46  CE1 TYR C   2      55.631  36.343  37.804  1.00 26.66 LIG 0.04  A 
ATOM     47  CZ  TYR C   2      54.503  36.203  37.095  1.00 21.30 LIG 0.07  A 
ATOM     48  CE2 TYR C   2      54.361  35.062  36.387  1.00 23.08 LIG 0.04  A 
ATOM     49  CD2 TYR C   2      55.313  34.019  36.396  1.00 20.76 LIG 0.01  A 
BRANCH 47 50
ATOM     50 OH   TYR C   2      53.520  37.263  37.078  1.00 23.41 LIG-0.36  OA
ATOM     51 HH   TYR C   2      53.343  37.495  37.867  1.00 23.41 LIG 0.22  HD
ENDBRANCH 47 50
ENDBRANCH 43 44
ENDBRANCH 30 43
ENDBRANCH 1 30
TORSDOF 17
ENDMDL
MODEL 12
USER: ADFR SOLUTION from run 38
USER: SCORE 18.306468 LL:  -4.125 LR: -16.456 RR:   0.000 FEB: -11.385
USER: RMSD 1.927410
USER: SEED 37
USER: STATUS no improvement in best in 6 clusters for 5 generations
USER: GENES 19
USER: genes 0 Translation |==|  0.64952 0.47761 0.55899
USER: genes 1 Rotation |==|  0.46447 0.55909 0.56431 0.99103
USER: genes 2 Torsion [C]-N--CA-[CB] |==|  0.48550
USER: genes 3 Torsion [N]-CA--CB-[CG2] |==|  0.86529
USER: genes 4 Torsion [CA]-CB--CG1-[CD1] |==|  0.71250
USER: genes 5 Torsion [N]-CA--C-[N] |==|  0.46556
USER: genes 6 Torsion [C]-N--CA-[CB] |==|  0.48893
USER: genes 7 Torsion [N]-CA--C-[N] |==|  0.80936
USER: genes 8 Torsion [N]-CA--C-[O] |==|  0.98080
USER: genes 9 Torsion [N]-CA--CB-[CG] |==|  0.59953
USER: genes 10 Torsion [CA]-CB--CG-[ND1] |==|  0.58470
USER: genes 11 Torsion [N]-C--CA-[N] |==|  0.05556
USER: genes 12 Torsion [C]-CA--N-[C] |==|  0.75868
USER: genes 13 Torsion [N]-C--CA-[N] |==|  0.38602
USER: genes 14 Torsion [C]-CA--N-[H2] |==|  0.13344
USER: genes 15 Torsion [C]-CA--CB-[CG1] |==|  0.17697
USER: genes 16 Torsion [C]-CA--CB-[CG] |==|  0.37901
USER: genes 17 Torsion [CA]-CB--CG-[CD1] |==|  0.41726
USER: genes 18 Torsion [CE1]-CZ--OH-[HH] |==|  0.88444
ROOT
ATOM      1  C   TYR C   2      57.952  30.556  36.615  1.00 15.61 LIG 0.24  C 
ATOM      2 O    TYR C   2      58.626  30.930  35.643  1.00 14.40 LIG-0.27  OA
ATOM      3  N   ILE C   3      57.950  29.316  37.018  1.00 16.82 LIG-0.35  N 
ATOM      4 H    ILE C   3      57.655  29.059  37.784  1.00 16.82 LIG 0.16  HD
ENDROOT
BRANCH 3 5
ATOM      5  CA  ILE C   3      58.462  28.242  36.176  1.00 16.46 LIG 0.18  C 
BRANCH 5 6
ATOM      6  CB  ILE C   3      58.465  26.921  36.923  1.00 18.77 LIG 0.01  C 
ATOM      7  CG2 ILE C   3      59.107  27.128  38.287  1.00 19.99 LIG 0.01  C 
BRANCH 6 8
ATOM      8  CG1 ILE C   3      57.035  26.368  37.128  1.00 18.05 LIG 0.00  C 
ATOM      9  CD1 ILE C   3      56.487  26.551  38.546  1.00 24.94 LIG 0.01  C 
ENDBRANCH 6 8
ENDBRANCH 5 6
BRANCH 5 10
ATOM     10  C   ILE C   3      57.594  28.180  34.915  1.00 19.56 LIG 0.24  C 
ATOM     11  N   HIS C   4      58.016  27.454  33.900  1.00 25.52 LIG-0.35  N 
ATOM     12 H    HIS C   4      58.707  26.942  33.913  1.00 25.52 LIG 0.16  HD
ATOM     13 O    ILE C   3      56.522  28.787  34.855  1.00 16.93 LIG-0.27  OA
BRANCH 11 14
ATOM     14  CA  HIS C   4      57.280  27.489  32.619  1.00 31.94 LIG 0.18  C 
BRANCH 14 15
ATOM     15  C   HIS C   4      55.869  27.024  32.886  1.00 43.02 LIG 0.24  C 
ATOM     16 O    HIS C   4      54.981  27.898  32.849  1.00 47.49 LIG-0.27  OA
ATOM     17  N   PRO C   5      55.681  25.693  33.221  1.00 55.18 LIG-0.34  N 
ATOM     18  CA  PRO C   5      54.397  24.915  33.432  1.00 55.75 LIG 0.17  C 
ATOM     19  CD  PRO C   5      56.831  24.925  33.767  1.00 48.44 LIG 0.13  C 
ATOM     20  CB  PRO C   5      54.895  23.485  33.672  1.00 55.43 LIG 0.04  C 
ATOM     21  CG  PRO C   5      56.205  23.671  34.377  1.00 51.63 LIG 0.02  C 
BRANCH 18 22
ATOM     22  C   PRO C   5      53.569  25.309  34.645  1.00 57.38 LIG 0.22  C 
ATOM     23 O    PRO C   5      54.018  26.124  35.456  1.00 61.90 LIG-0.29  OA
ENDBRANCH 18 22
ENDBRANCH 14 15
BRANCH 14 24
ATOM     24  CB  HIS C   4      57.995  26.641  31.519  1.00 32.76 LIG 0.10  C 
BRANCH 24 25
ATOM     25  CG  HIS C   4      57.913  27.201  30.127  1.00 32.77 LIG 0.06  A 
ATOM     26 ND1  HIS C   4      57.907  26.394  29.003  1.00 34.96 LIG-0.24  NA
ATOM     27  CE1 HIS C   4      57.808  27.147  27.917  1.00 36.21 LIG 0.23  A 
ATOM     28 NE2  HIS C   4      57.760  28.419  28.294  1.00 34.31 LIG-0.25  NA
ATOM     29  CD2 HIS C   4      57.827  28.479  29.673  1.00 30.94 LIG 0.14  A 
ENDBRANCH 24 25
ENDBRANCH 14 24
ENDBRANCH 11 14
ENDBRANCH 5 10
ENDBRANCH 3 5
BRANCH 1 30
ATOM     30  CA  TYR C   2      57.156  31.511  37.452  1.00 15.99 LIG 0.18  C 
BRANCH 30 31
ATOM     31  N   TYR C   2      56.870  31.070  38.804  1.00 12.71 LIG-0.35  N 
ATOM     32  C   VAL C   1      55.835  30.337  39.109  1.00 12.74 LIG 0.25  C 
ATOM     33 O    VAL C   1      55.065  29.912  38.272  1.00 11.92 LIG-0.27  OA
ATOM     34 H    TYR C   2      57.446  31.337  39.384  1.00 12.71 LIG 0.16  HD
BRANCH 32 35
ATOM     35  CA  VAL C   1      55.598  30.091  40.607  1.00 14.22 LIG 0.28  C 
BRANCH 35 36
ATOM     36  N   VAL C   1      54.125  30.196  40.872  1.00 13.26 LIG-0.07  N 
ATOM     37 H1   VAL C   1      53.873  31.047  40.815  1.00 13.26 LIG 0.28  HD
ATOM     38 H2   VAL C   1      53.680  29.713  40.271  1.00 13.26 LIG 0.28  HD
ATOM     39 H3   VAL C   1      53.948  29.888  41.689  1.00 13.26 LIG 0.28  HD
ENDBRANCH 35 36
BRANCH 35 40
ATOM     40  CB  VAL C   1      56.210  28.781  41.153  1.00 17.02 LIG 0.02  C 
ATOM     41  CG1 VAL C   1      57.781  28.784  41.049  1.00 17.35 LIG 0.01  C 
ATOM     42  CG2 VAL C   1      55.820  28.569  42.551  1.00 19.35 LIG 0.01  C 
ENDBRANCH 35 40
ENDBRANCH 32 35
ENDBRANCH 30 31
BRANCH 30 43
ATOM     43  CB  TYR C   2      57.791  32.944  37.537  1.00 16.65 LIG 0.07  C 
BRANCH 43 44
ATOM     44  CG  TYR C   2      56.789  34.073  37.385  1.00 19.66 LIG-0.06  A 
ATOM     45  CD1 TYR C   2      56.959  35.283  37.979  1.00 23.16 LIG 0.01  A 
ATOM     46  CE1 TYR C   2      56.003  36.339  37.894  1.00 26.66 LIG 0.04  A 
ATOM     47  CZ  TYR C   2      54.860  36.167  37.217  1.00 21.30 LIG 0.07  A 
ATOM     48  CE2 TYR C   2      54.678  34.973  36.613  1.00 23.08 LIG 0.04  A 
ATOM     49  CD2 TYR C   2      55.603  33.910  36.700  1.00 20.76 LIG 0.01  A 
BRANCH 47 50
ATOM     50 OH   TYR C   2      53.903  37.247  37.123  1.00 23.41 LIG-0.36  OA
ATOM     51 HH   TYR C   2      53.839  37.632  37.867  1.00 23.41 LIG 0.22  HD
ENDBRANCH 47 50
ENDBRANCH 43 44
ENDBRANCH 30 43
ENDBRANCH 1 30
TORSDOF 17
ENDMDL
MODEL 13
USER: ADFR SOLUTION from run 137
USER: SCORE 18.404118 LL:  -4.119 LR: -16.454 RR:   0.000 FEB: -11.383
USER: RMSD 1.748554
USER: SEED 136
USER: STATUS no improvement in best in 13 clusters for 5 generations
USER: GENES 19
USER: genes 0 Translation |==|  0.63634 0.46915 0.55571
USER: genes 1 Rotation |==|  0.52005 0.46139 0.48794 0.99796
USER: genes 2 Torsion [C]-N--CA-[CB] |==|  0.44915
USER: genes 3 Torsion [N]-CA--CB-[CG2] |==|  0.54219
USER: genes 4 Torsion [CA]-CB--CG1-[CD1] |==|  0.81407
USER: genes 5 Torsion [N]-CA--C-[N] |==|  0.41918
USER: genes 6 Torsion [C]-N--CA-[CB] |==|  0.50023
USER: genes 7 Torsion [N]-CA--C-[N] |==|  0.36754
USER: genes 8 Torsion [N]-CA--C-[O] |==|  0.93595
USER: genes 9 Torsion [N]-CA--CB-[CG] |==|  0.41780
USER: genes 10 Torsion [CA]-CB--CG-[ND1] |==|  0.24825
USER: genes 11 Torsion [N]-C--CA-[N] |==|  0.15363
USER: genes 12 Torsion [C]-CA--N-[C] |==|  0.76538
USER: genes 13 Torsion [N]-C--CA-[N] |==|  0.37929
USER: genes 14 Torsion [C]-CA--N-[H2] |==|  0.77639
USER: genes 15 Torsion [C]-CA--CB-[CG1] |==|  0.12351
USER: genes 16 Torsion [C]-CA--CB-[CG] |==|  0.40660
USER: genes 17 Torsion [CA]-CB--CG-[CD1] |==|  0.88508
USER: genes 18 Torsion [CE1]-CZ--OH-[HH] |==|  0.37222
ROOT
ATOM      1  C   TYR C   2      57.754  30.372  36.538  1.00 15.61 LIG 0.24  C 
ATOM      2 O    TYR C   2      58.831  30.656  35.992  1.00 14.40 LIG-0.27  OA
ATOM      3  N   ILE C   3      57.285  29.155  36.550  1.00 16.82 LIG-0.35  N 
ATOM      4 H    ILE C   3      56.655  28.887  37.069  1.00 16.82 LIG 0.16  HD
ENDROOT
BRANCH 3 5
ATOM      5  CA  ILE C   3      57.810  28.129  35.657  1.00 16.46 LIG 0.18  C 
BRANCH 5 6
ATOM      6  CB  ILE C   3      57.444  26.741  36.149  1.00 18.77 LIG 0.01  C 
ATOM      7  CG2 ILE C   3      58.308  25.719  35.426  1.00 19.99 LIG 0.01  C 
BRANCH 6 8
ATOM      8  CG1 ILE C   3      57.666  26.590  37.673  1.00 18.05 LIG 0.00  C 
ATOM      9  CD1 ILE C   3      59.134  26.653  38.102  1.00 24.94 LIG 0.01  C 
ENDBRANCH 6 8
ENDBRANCH 5 6
BRANCH 5 10
ATOM     10  C   ILE C   3      57.256  28.401  34.254  1.00 19.56 LIG 0.24  C 
ATOM     11  N   HIS C   4      57.976  28.031  33.214  1.00 25.52 LIG-0.35  N 
ATOM     12 H    HIS C   4      58.704  27.574  33.256  1.00 25.52 LIG 0.16  HD
ATOM     13 O    ILE C   3      56.159  28.942  34.102  1.00 16.93 LIG-0.27  OA
BRANCH 11 14
ATOM     14  CA  HIS C   4      57.542  28.407  31.853  1.00 31.94 LIG 0.18  C 
BRANCH 14 15
ATOM     15  C   HIS C   4      56.134  27.897  31.662  1.00 43.02 LIG 0.24  C 
ATOM     16 O    HIS C   4      55.939  26.696  31.934  1.00 47.49 LIG-0.27  OA
ATOM     17  N   PRO C   5      55.197  28.770  31.136  1.00 55.18 LIG-0.34  N 
ATOM     18  CA  PRO C   5      53.705  28.592  30.935  1.00 55.75 LIG 0.17  C 
ATOM     19  CD  PRO C   5      55.674  29.943  30.355  1.00 48.44 LIG 0.13  C 
ATOM     20  CB  PRO C   5      53.260  29.963  30.414  1.00 55.43 LIG 0.04  C 
ATOM     21  CG  PRO C   5      54.433  30.446  29.617  1.00 51.63 LIG 0.02  C 
BRANCH 18 22
ATOM     22  C   PRO C   5      53.290  27.563  29.895  1.00 57.38 LIG 0.22  C 
ATOM     23 O    PRO C   5      54.075  27.248  28.996  1.00 61.90 LIG-0.29  OA
ENDBRANCH 18 22
ENDBRANCH 14 15
BRANCH 14 24
ATOM     24  CB  HIS C   4      58.528  27.873  30.766  1.00 32.76 LIG 0.10  C 
BRANCH 24 25
ATOM     25  CG  HIS C   4      57.906  27.570  29.432  1.00 32.77 LIG 0.06  A 
ATOM     26 ND1  HIS C   4      57.798  28.520  28.432  1.00 34.96 LIG-0.24  NA
ATOM     27  CE1 HIS C   4      57.231  27.978  27.364  1.00 36.21 LIG 0.23  A 
ATOM     28 NE2  HIS C   4      56.956  26.708  27.637  1.00 34.31 LIG-0.25  NA
ATOM     29  CD2 HIS C   4      57.366  26.430  28.927  1.00 30.94 LIG 0.14  A 
ENDBRANCH 24 25
ENDBRANCH 14 24
ENDBRANCH 11 14
ENDBRANCH 5 10
ENDBRANCH 3 5
BRANCH 1 30
ATOM     30  CA  TYR C   2      56.951  31.383  37.300  1.00 15.99 LIG 0.18  C 
BRANCH 30 31
ATOM     31  N   TYR C   2      56.700  31.064  38.691  1.00 12.71 LIG-0.35  N 
ATOM     32  C   VAL C   1      55.714  30.302  39.080  1.00 12.74 LIG 0.25  C 
ATOM     33 O    VAL C   1      54.968  29.748  38.298  1.00 11.92 LIG-0.27  OA
ATOM     34 H    TYR C   2      57.260  31.422  39.235  1.00 12.71 LIG 0.16  HD
BRANCH 32 35
ATOM     35  CA  VAL C   1      55.499  30.193  40.597  1.00 14.22 LIG 0.28  C 
BRANCH 35 36
ATOM     36  N   VAL C   1      54.028  30.293  40.871  1.00 13.26 LIG-0.07  N 
ATOM     37 H1   VAL C   1      53.851  29.945  41.671  1.00 13.26 LIG 0.28  HD
ATOM     38 H2   VAL C   1      53.780  31.148  40.859  1.00 13.26 LIG 0.28  HD
ATOM     39 H3   VAL C   1      53.579  29.845  40.247  1.00 13.26 LIG 0.28  HD
ENDBRANCH 35 36
BRANCH 35 40
ATOM     40  CB  VAL C   1      56.145  28.953  41.255  1.00 17.02 LIG 0.02  C 
ATOM     41  CG1 VAL C   1      57.611  28.714  40.733  1.00 17.35 LIG 0.01  C 
ATOM     42  CG2 VAL C   1      56.172  29.095  42.715  1.00 19.35 LIG 0.01  C 
ENDBRANCH 35 40
ENDBRANCH 32 35
ENDBRANCH 30 31
BRANCH 30 43
ATOM     43  CB  TYR C   2      57.554  32.831  37.239  1.00 16.65 LIG 0.07  C 
BRANCH 43 44
ATOM     44  CG  TYR C   2      56.512  33.934  37.243  1.00 19.66 LIG-0.06  A 
ATOM     45  CD1 TYR C   2      55.361  33.853  36.526  1.00 23.16 LIG 0.01  A 
ATOM     46  CE1 TYR C   2      54.395  34.901  36.472  1.00 26.66 LIG 0.04  A 
ATOM     47  CZ  TYR C   2      54.598  36.046  37.136  1.00 21.30 LIG 0.07  A 
ATOM     48  CE2 TYR C   2      55.733  36.141  37.862  1.00 23.08 LIG 0.04  A 
ATOM     49  CD2 TYR C   2      56.709  35.123  37.914  1.00 20.76 LIG 0.01  A 
BRANCH 47 50
ATOM     50 OH   TYR C   2      53.607  37.098  37.090  1.00 23.41 LIG-0.36  OA
ATOM     51 HH   TYR C   2      53.474  37.392  37.866  1.00 23.41 LIG 0.22  HD
ENDBRANCH 47 50
ENDBRANCH 43 44
ENDBRANCH 30 43
ENDBRANCH 1 30
TORSDOF 17
ENDMDL
MODEL 14
USER: ADFR SOLUTION from run 8
USER: SCORE 18.591572 LL:  -3.837 LR: -16.400 RR:   0.000 FEB: -11.329
USER: RMSD 4.797576
USER: SEED 821368
USER: STATUS no improvement in best in 7 clusters for 5 generations
USER: GENES 19
USER: genes 0 Translation |==|  0.62310 0.47353 0.55798
USER: genes 1 Rotation |==|  0.52776 0.47775 0.46369 0.99741
USER: genes 2 Torsion [C]-N--CA-[CB] |==|  0.21111
USER: genes 3 Torsion [N]-CA--CB-[CG2] |==|  0.75055
USER: genes 4 Torsion [CA]-CB--CG1-[CD1] |==|  0.31965
USER: genes 5 Torsion [N]-CA--C-[N] |==|  0.69580
USER: genes 6 Torsion [C]-N--CA-[CB] |==|  0.14523
USER: genes 7 Torsion [N]-CA--C-[N] |==|  0.17762
USER: genes 8 Torsion [N]-CA--C-[O] |==|  0.07251
USER: genes 9 Torsion [N]-CA--CB-[CG] |==|  0.55669
USER: genes 10 Torsion [CA]-CB--CG-[ND1] |==|  0.47832
USER: genes 11 Torsion [N]-C--CA-[N] |==|  0.15556
USER: genes 12 Torsion [C]-CA--N-[C] |==|  0.77604
USER: genes 13 Torsion [N]-C--CA-[N] |==|  0.39764
USER: genes 14 Torsion [C]-CA--N-[H2] |==|  0.11761
USER: genes 15 Torsion [C]-CA--CB-[CG1] |==|  0.06806
USER: genes 16 Torsion [C]-CA--CB-[CG] |==|  0.38060
USER: genes 17 Torsion [CA]-CB--CG-[CD1] |==|  0.40142
USER: genes 18 Torsion [CE1]-CZ--OH-[HH] |==|  0.86121
ROOT
ATOM      1  C   TYR C   2      57.556  30.467  36.591  1.00 15.61 LIG 0.24  C 
ATOM      2 O    TYR C   2      58.615  30.676  35.982  1.00 14.40 LIG-0.27  OA
ATOM      3  N   ILE C   3      56.978  29.298  36.591  1.00 16.82 LIG-0.35  N 
ATOM      4 H    ILE C   3      56.360  29.066  37.142  1.00 16.82 LIG 0.16  HD
ENDROOT
BRANCH 3 5
ATOM      5  CA  ILE C   3      57.345  28.269  35.626  1.00 16.46 LIG 0.18  C 
BRANCH 5 6
ATOM      6  CB  ILE C   3      58.668  27.624  35.997  1.00 18.77 LIG 0.01  C 
ATOM      7  CG2 ILE C   3      59.796  28.403  35.336  1.00 19.99 LIG 0.01  C 
BRANCH 6 8
ATOM      8  CG1 ILE C   3      58.900  27.617  37.526  1.00 18.05 LIG 0.00  C 
ATOM      9  CD1 ILE C   3      58.944  26.218  38.148  1.00 24.94 LIG 0.01  C 
ENDBRANCH 6 8
ENDBRANCH 5 6
BRANCH 5 10
ATOM     10  C   ILE C   3      56.206  27.244  35.578  1.00 19.56 LIG 0.24  C 
ATOM     11  N   HIS C   4      56.419  26.048  36.089  1.00 25.52 LIG-0.35  N 
ATOM     12 H    HIS C   4      57.124  25.815  36.524  1.00 25.52 LIG 0.16  HD
ATOM     13 O    ILE C   3      55.115  27.534  35.083  1.00 16.93 LIG-0.27  OA
BRANCH 11 14
ATOM     14  CA  HIS C   4      55.398  24.993  35.930  1.00 31.94 LIG 0.18  C 
BRANCH 14 15
ATOM     15  C   HIS C   4      55.949  23.724  36.533  1.00 43.02 LIG 0.24  C 
ATOM     16 O    HIS C   4      56.071  22.752  35.762  1.00 47.49 LIG-0.27  OA
ATOM     17  N   PRO C   5      56.203  23.713  37.894  1.00 55.18 LIG-0.34  N 
ATOM     18  CA  PRO C   5      56.851  22.647  38.755  1.00 55.75 LIG 0.17  C 
ATOM     19  CD  PRO C   5      55.507  24.703  38.758  1.00 48.44 LIG 0.13  C 
ATOM     20  CB  PRO C   5      56.918  23.311  40.136  1.00 55.43 LIG 0.04  C 
ATOM     21  CG  PRO C   5      55.696  24.177  40.181  1.00 51.63 LIG 0.02  C 
BRANCH 18 22
ATOM     22  C   PRO C   5      56.068  21.354  38.919  1.00 57.38 LIG 0.22  C 
ATOM     23 O    PRO C   5      55.265  21.008  38.047  1.00 61.90 LIG-0.29  OA
ENDBRANCH 18 22
ENDBRANCH 14 15
BRANCH 14 24
ATOM     24  CB  HIS C   4      54.980  24.816  34.435  1.00 32.76 LIG 0.10  C 
BRANCH 24 25
ATOM     25  CG  HIS C   4      53.654  24.144  34.217  1.00 32.77 LIG 0.06  A 
ATOM     26 ND1  HIS C   4      53.066  24.052  32.968  1.00 34.96 LIG-0.24  NA
ATOM     27  CE1 HIS C   4      51.919  23.397  33.064  1.00 36.21 LIG 0.23  A 
ATOM     28 NE2  HIS C   4      51.733  23.066  34.336  1.00 34.31 LIG-0.25  NA
ATOM     29  CD2 HIS C   4      52.804  23.526  35.078  1.00 30.94 LIG 0.14  A 
ENDBRANCH 24 25
ENDBRANCH 14 24
ENDBRANCH 11 14
ENDBRANCH 5 10
ENDBRANCH 3 5
BRANCH 1 30
ATOM     30  CA  TYR C   2      56.902  31.513  37.443  1.00 15.99 LIG 0.18  C 
BRANCH 30 31
ATOM     31  N   TYR C   2      56.729  31.164  38.840  1.00 12.71 LIG-0.35  N 
ATOM     32  C   VAL C   1      55.753  30.413  39.270  1.00 12.74 LIG 0.25  C 
ATOM     33 O    VAL C   1      54.949  29.894  38.522  1.00 11.92 LIG-0.27  OA
ATOM     34 H    TYR C   2      57.329  31.498  39.357  1.00 12.71 LIG 0.16  HD
BRANCH 32 35
ATOM     35  CA  VAL C   1      55.628  30.271  40.795  1.00 14.22 LIG 0.28  C 
BRANCH 35 36
ATOM     36  N   VAL C   1      54.170  30.230  41.145  1.00 13.26 LIG-0.07  N 
ATOM     37 H1   VAL C   1      53.835  31.054  41.117  1.00 13.26 LIG 0.28  HD
ATOM     38 H2   VAL C   1      53.739  29.714  40.562  1.00 13.26 LIG 0.28  HD
ATOM     39 H3   VAL C   1      54.071  29.897  41.965  1.00 13.26 LIG 0.28  HD
ENDBRANCH 35 36
BRANCH 35 40
ATOM     40  CB  VAL C   1      56.420  29.091  41.402  1.00 17.02 LIG 0.02  C 
ATOM     41  CG1 VAL C   1      57.635  28.674  40.490  1.00 17.35 LIG 0.01  C 
ATOM     42  CG2 VAL C   1      56.918  29.433  42.738  1.00 19.35 LIG 0.01  C 
ENDBRANCH 35 40
ENDBRANCH 32 35
ENDBRANCH 30 31
BRANCH 30 43
ATOM     43  CB  TYR C   2      57.621  32.907  37.380  1.00 16.65 LIG 0.07  C 
BRANCH 43 44
ATOM     44  CG  TYR C   2      56.673  34.086  37.273  1.00 19.66 LIG-0.06  A 
ATOM     45  CD1 TYR C   2      56.922  35.279  37.873  1.00 23.16 LIG 0.01  A 
ATOM     46  CE1 TYR C   2      56.018  36.382  37.831  1.00 26.66 LIG 0.04  A 
ATOM     47  CZ  TYR C   2      54.847  36.276  37.189  1.00 21.30 LIG 0.07  A 
ATOM     48  CE2 TYR C   2      54.586  35.100  36.579  1.00 23.08 LIG 0.04  A 
ATOM     49  CD2 TYR C   2      55.459  33.991  36.625  1.00 20.76 LIG 0.01  A 
BRANCH 47 50
ATOM     50 OH   TYR C   2      53.943  37.403  37.137  1.00 23.41 LIG-0.36  OA
ATOM     51 HH   TYR C   2      53.834  37.711  37.911  1.00 23.41 LIG 0.22  HD
ENDBRANCH 47 50
ENDBRANCH 43 44
ENDBRANCH 30 43
ENDBRANCH 1 30
TORSDOF 17
ENDMDL
MODEL 15
USER: ADFR SOLUTION from run 85
USER: SCORE 16.619296 LL:  -3.106 LR: -16.368 RR:   0.000 FEB: -11.297
USER: RMSD 7.616136
USER: SEED 84
USER: STATUS no improvement in best in 6 clusters for 5 generations
USER: GENES 19
USER: genes 0 Translation |==|  0.38008 0.67826 0.53254
USER: genes 1 Rotation |==|  0.69649 0.87991 0.73856 0.60075
USER: genes 2 Torsion [C]-N--CA-[CB] |==|  0.24101
USER: genes 3 Torsion [N]-CA--CB-[CG2] |==|  0.61737
USER: genes 4 Torsion [CA]-CB--CG1-[CD1] |==|  0.34572
USER: genes 5 Torsion [N]-CA--C-[N] |==|  0.50319
USER: genes 6 Torsion [C]-N--CA-[CB] |==|  0.78889
USER: genes 7 Torsion [N]-CA--C-[N] |==|  0.17407
USER: genes 8 Torsion [N]-CA--C-[O] |==|  0.54586
USER: genes 9 Torsion [N]-CA--CB-[CG] |==|  0.72836
USER: genes 10 Torsion [CA]-CB--CG-[ND1] |==|  0.15921
USER: genes 11 Torsion [N]-C--CA-[N] |==|  0.35305
USER: genes 12 Torsion [C]-CA--N-[C] |==|  0.14643
USER: genes 13 Torsion [N]-C--CA-[N] |==|  0.78046
USER: genes 14 Torsion [C]-CA--N-[H2] |==|  0.31382
USER: genes 15 Torsion [C]-CA--CB-[CG1] |==|  0.19837
USER: genes 16 Torsion [C]-CA--CB-[CG] |==|  0.29329
USER: genes 17 Torsion [CA]-CB--CG-[CD1] |==|  0.68217
USER: genes 18 Torsion [CE1]-CZ--OH-[HH] |==|  0.82172
ROOT
ATOM      1  C   TYR C   2      53.910  34.920  35.999  1.00 15.61 LIG 0.24  C 
ATOM      2 O    TYR C   2      52.941  35.336  36.652  1.00 14.40 LIG-0.27  OA
ATOM      3  N   ILE C   3      53.774  34.418  34.804  1.00 16.82 LIG-0.35  N 
ATOM      4 H    ILE C   3      54.424  34.299  34.254  1.00 16.82 LIG 0.16  HD
ENDROOT
BRANCH 3 5
ATOM      5  CA  ILE C   3      52.470  34.011  34.294  1.00 16.46 LIG 0.18  C 
BRANCH 5 6
ATOM      6  CB  ILE C   3      51.748  35.180  33.651  1.00 18.77 LIG 0.01  C 
ATOM      7  CG2 ILE C   3      50.285  35.146  34.070  1.00 19.99 LIG 0.01  C 
BRANCH 6 8
ATOM      8  CG1 ILE C   3      52.353  36.539  34.077  1.00 18.05 LIG 0.00  C 
ATOM      9  CD1 ILE C   3      52.794  37.424  32.908  1.00 24.94 LIG 0.01  C 
ENDBRANCH 6 8
ENDBRANCH 5 6
BRANCH 5 10
ATOM     10  C   ILE C   3      52.692  32.864  33.302  1.00 19.56 LIG 0.24  C 
ATOM     11  N   HIS C   4      51.642  32.349  32.695  1.00 25.52 LIG-0.35  N 
ATOM     12 H    HIS C   4      50.840  32.658  32.750  1.00 25.52 LIG 0.16  HD
ATOM     13 O    ILE C   3      53.826  32.440  33.070  1.00 16.93 LIG-0.27  OA
BRANCH 11 14
ATOM     14  CA  HIS C   4      51.802  31.151  31.847  1.00 31.94 LIG 0.18  C 
BRANCH 14 15
ATOM     15  C   HIS C   4      52.606  30.139  32.626  1.00 43.02 LIG 0.24  C 
ATOM     16 O    HIS C   4      53.679  29.769  32.110  1.00 47.49 LIG-0.27  OA
ATOM     17  N   PRO C   5      52.063  29.651  33.802  1.00 55.18 LIG-0.34  N 
ATOM     18  CA  PRO C   5      52.666  28.728  34.843  1.00 55.75 LIG 0.17  C 
ATOM     19  CD  PRO C   5      50.592  29.740  34.001  1.00 48.44 LIG 0.13  C 
ATOM     20  CB  PRO C   5      51.584  28.676  35.928  1.00 55.43 LIG 0.04  C 
ATOM     21  CG  PRO C   5      50.300  28.793  35.164  1.00 51.63 LIG 0.02  C 
BRANCH 18 22
ATOM     22  C   PRO C   5      52.922  27.297  34.399  1.00 57.38 LIG 0.22  C 
ATOM     23 O    PRO C   5      53.116  26.417  35.244  1.00 61.90 LIG-0.29  OA
ENDBRANCH 18 22
ENDBRANCH 14 15
BRANCH 14 24
ATOM     24  CB  HIS C   4      52.451  31.503  30.469  1.00 32.76 LIG 0.10  C 
BRANCH 24 25
ATOM     25  CG  HIS C   4      51.483  31.676  29.333  1.00 32.77 LIG 0.06  A 
ATOM     26 ND1  HIS C   4      50.451  32.597  29.372  1.00 34.96 LIG-0.24  NA
ATOM     27  CE1 HIS C   4      49.770  32.550  28.236  1.00 36.21 LIG 0.23  A 
ATOM     28 NE2  HIS C   4      50.318  31.622  27.461  1.00 34.31 LIG-0.25  NA
ATOM     29  CD2 HIS C   4      51.390  31.058  28.126  1.00 30.94 LIG 0.14  A 
ENDBRANCH 24 25
ENDBRANCH 14 24
ENDBRANCH 11 14
ENDBRANCH 5 10
ENDBRANCH 3 5
BRANCH 1 30
ATOM     30  CA  TYR C   2      55.320  35.039  36.495  1.00 15.99 LIG 0.18  C 
BRANCH 30 31
ATOM     31  N   TYR C   2      55.707  36.353  36.971  1.00 12.71 LIG-0.35  N 
ATOM     32  C   VAL C   1      55.028  37.015  37.866  1.00 12.74 LIG 0.25  C 
ATOM     33 O    VAL C   1      54.051  36.551  38.420  1.00 11.92 LIG-0.27  OA
ATOM     34 H    TYR C   2      56.426  36.654  36.607  1.00 12.71 LIG 0.16  HD
BRANCH 32 35
ATOM     35  CA  VAL C   1      55.490  38.454  38.141  1.00 14.22 LIG 0.28  C 
BRANCH 35 36
ATOM     36  N   VAL C   1      56.689  38.398  39.040  1.00 13.26 LIG-0.07  N 
ATOM     37 H1   VAL C   1      56.821  37.560  39.307  1.00 13.26 LIG 0.28  HD
ATOM     38 H2   VAL C   1      57.406  38.684  38.596  1.00 13.26 LIG 0.28  HD
ATOM     39 H3   VAL C   1      56.553  38.919  39.749  1.00 13.26 LIG 0.28  HD
ENDBRANCH 35 36
BRANCH 35 40
ATOM     40  CB  VAL C   1      55.731  39.308  36.876  1.00 17.02 LIG 0.02  C 
ATOM     41  CG1 VAL C   1      54.380  39.687  36.162  1.00 17.35 LIG 0.01  C 
ATOM     42  CG2 VAL C   1      56.459  40.537  37.211  1.00 19.35 LIG 0.01  C 
ENDBRANCH 35 40
ENDBRANCH 32 35
ENDBRANCH 30 31
BRANCH 30 43
ATOM     43  CB  TYR C   2      55.676  33.997  37.614  1.00 16.65 LIG 0.07  C 
BRANCH 43 44
ATOM     44  CG  TYR C   2      56.563  32.861  37.139  1.00 19.66 LIG-0.06  A 
ATOM     45  CD1 TYR C   2      56.137  31.572  37.097  1.00 23.16 LIG 0.01  A 
ATOM     46  CE1 TYR C   2      56.971  30.483  36.706  1.00 26.66 LIG 0.04  A 
ATOM     47  CZ  TYR C   2      58.250  30.694  36.368  1.00 21.30 LIG 0.07  A 
ATOM     48  CE2 TYR C   2      58.689  31.971  36.395  1.00 23.08 LIG 0.04  A 
ATOM     49  CD2 TYR C   2      57.885  33.060  36.796  1.00 20.76 LIG 0.01  A 
BRANCH 47 50
ATOM     50 OH   TYR C   2      59.085  29.587  35.958  1.00 23.41 LIG-0.36  OA
ATOM     51 HH   TYR C   2      59.178  29.053  36.599  1.00 23.41 LIG 0.22  HD
ENDBRANCH 47 50
ENDBRANCH 43 44
ENDBRANCH 30 43
ENDBRANCH 1 30
TORSDOF 17
ENDMDL
MODEL 16
USER: ADFR SOLUTION from run 53
USER: SCORE 17.591453 LL:  -3.767 LR: -16.221 RR:   0.000 FEB: -11.150
USER: RMSD 8.086739
USER: SEED 52
USER: STATUS no improvement in best in 4 clusters for 5 generations
USER: GENES 19
USER: genes 0 Translation |==|  0.44712 0.44391 0.53094
USER: genes 1 Rotation |==|  0.48672 0.38785 0.05681 0.70205
USER: genes 2 Torsion [C]-N--CA-[CB] |==|  0.23120
USER: genes 3 Torsion [N]-CA--CB-[CG2] |==|  0.45900
USER: genes 4 Torsion [CA]-CB--CG1-[CD1] |==|  0.71470
USER: genes 5 Torsion [N]-CA--C-[N] |==|  0.79444
USER: genes 6 Torsion [C]-N--CA-[CB] |==|  0.24849
USER: genes 7 Torsion [N]-CA--C-[N] |==|  0.11497
USER: genes 8 Torsion [N]-CA--C-[O] |==|  0.61072
USER: genes 9 Torsion [N]-CA--CB-[CG] |==|  0.83269
USER: genes 10 Torsion [CA]-CB--CG-[ND1] |==|  0.34143
USER: genes 11 Torsion [N]-C--CA-[N] |==|  0.27925
USER: genes 12 Torsion [C]-CA--N-[C] |==|  0.66866
USER: genes 13 Torsion [N]-C--CA-[N] |==|  0.77100
USER: genes 14 Torsion [C]-CA--N-[H2] |==|  0.81263
USER: genes 15 Torsion [C]-CA--CB-[CG1] |==|  0.37169
USER: genes 16 Torsion [C]-CA--CB-[CG] |==|  0.75247
USER: genes 17 Torsion [CA]-CB--CG-[CD1] |==|  0.16583
USER: genes 18 Torsion [CE1]-CZ--OH-[HH] |==|  0.37421
ROOT
ATOM      1  C   TYR C   2      54.916  29.823  35.962  1.00 15.61 LIG 0.24  C 
ATOM      2 O    TYR C   2      54.571  28.678  35.636  1.00 14.40 LIG-0.27  OA
ATOM      3  N   ILE C   3      54.262  30.880  35.568  1.00 16.82 LIG-0.35  N 
ATOM      4 H    ILE C   3      54.350  31.660  35.919  1.00 16.82 LIG 0.16  HD
ENDROOT
BRANCH 3 5
ATOM      5  CA  ILE C   3      53.304  30.817  34.472  1.00 16.46 LIG 0.18  C 
BRANCH 5 6
ATOM      6  CB  ILE C   3      51.950  30.335  34.960  1.00 18.77 LIG 0.01  C 
ATOM      7  CG2 ILE C   3      50.908  30.630  33.891  1.00 19.99 LIG 0.01  C 
BRANCH 6 8
ATOM      8  CG1 ILE C   3      51.946  28.815  35.250  1.00 18.05 LIG 0.00  C 
ATOM      9  CD1 ILE C   3      51.273  27.970  34.165  1.00 24.94 LIG 0.01  C 
ENDBRANCH 6 8
ENDBRANCH 5 6
BRANCH 5 10
ATOM     10  C   ILE C   3      53.218  32.211  33.842  1.00 19.56 LIG 0.24  C 
ATOM     11  N   HIS C   4      52.576  33.156  34.499  1.00 25.52 LIG-0.35  N 
ATOM     12 H    HIS C   4      52.263  33.077  35.297  1.00 25.52 LIG 0.16  HD
ATOM     13 O    ILE C   3      53.746  32.447  32.754  1.00 16.93 LIG-0.27  OA
BRANCH 11 14
ATOM     14  CA  HIS C   4      52.349  34.467  33.858  1.00 31.94 LIG 0.18  C 
BRANCH 14 15
ATOM     15  C   HIS C   4      52.402  35.522  34.936  1.00 43.02 LIG 0.24  C 
ATOM     16 O    HIS C   4      51.593  36.465  34.828  1.00 47.49 LIG-0.27  OA
ATOM     17  N   PRO C   5      53.380  35.403  35.908  1.00 55.18 LIG-0.34  N 
ATOM     18  CA  PRO C   5      53.614  36.225  37.161  1.00 55.75 LIG 0.17  C 
ATOM     19  CD  PRO C   5      54.587  34.586  35.611  1.00 48.44 LIG 0.13  C 
ATOM     20  CB  PRO C   5      54.785  35.503  37.836  1.00 55.43 LIG 0.04  C 
ATOM     21  CG  PRO C   5      55.596  34.978  36.690  1.00 51.63 LIG 0.02  C 
BRANCH 18 22
ATOM     22  C   PRO C   5      54.045  37.667  36.942  1.00 57.38 LIG 0.22  C 
ATOM     23 O    PRO C   5      54.904  38.168  37.673  1.00 61.90 LIG-0.29  OA
ENDBRANCH 18 22
ENDBRANCH 14 15
BRANCH 14 24
ATOM     24  CB  HIS C   4      51.008  34.493  33.057  1.00 32.76 LIG 0.10  C 
BRANCH 24 25
ATOM     25  CG  HIS C   4      50.909  33.490  31.943  1.00 32.77 LIG 0.06  A 
ATOM     26 ND1  HIS C   4      49.895  32.552  31.877  1.00 34.96 LIG-0.24  NA
ATOM     27  CE1 HIS C   4      50.042  31.814  30.786  1.00 36.21 LIG 0.23  A 
ATOM     28 NE2  HIS C   4      51.125  32.232  30.143  1.00 34.31 LIG-0.25  NA
ATOM     29  CD2 HIS C   4      51.688  33.279  30.849  1.00 30.94 LIG 0.14  A 
ENDBRANCH 24 25
ENDBRANCH 14 24
ENDBRANCH 11 14
ENDBRANCH 5 10
ENDBRANCH 3 5
BRANCH 1 30
ATOM     30  CA  TYR C   2      56.056  30.079  36.902  1.00 15.99 LIG 0.18  C 
BRANCH 30 31
ATOM     31  N   TYR C   2      55.779  29.831  38.303  1.00 12.71 LIG-0.35  N 
ATOM     32  C   VAL C   1      55.855  30.758  39.219  1.00 12.74 LIG 0.25  C 
ATOM     33 O    VAL C   1      56.101  31.918  38.956  1.00 11.92 LIG-0.27  OA
ATOM     34 H    TYR C   2      55.561  29.017  38.474  1.00 12.71 LIG 0.16  HD
BRANCH 32 35
ATOM     35  CA  VAL C   1      55.684  30.290  40.672  1.00 14.22 LIG 0.28  C 
BRANCH 35 36
ATOM     36  N   VAL C   1      54.215  30.181  40.960  1.00 13.26 LIG-0.07  N 
ATOM     37 H1   VAL C   1      54.097  29.809  41.759  1.00 13.26 LIG 0.28  HD
ATOM     38 H2   VAL C   1      53.850  30.993  40.953  1.00 13.26 LIG 0.28  HD
ATOM     39 H3   VAL C   1      53.828  29.677  40.337  1.00 13.26 LIG 0.28  HD
ENDBRANCH 35 36
BRANCH 35 40
ATOM     40  CB  VAL C   1      56.459  29.003  41.034  1.00 17.02 LIG 0.02  C 
ATOM     41  CG1 VAL C   1      57.225  29.150  42.402  1.00 17.35 LIG 0.01  C 
ATOM     42  CG2 VAL C   1      55.550  27.855  41.113  1.00 19.35 LIG 0.01  C 
ENDBRANCH 35 40
ENDBRANCH 32 35
ENDBRANCH 30 31
BRANCH 30 43
ATOM     43  CB  TYR C   2      57.363  29.298  36.522  1.00 16.65 LIG 0.07  C 
BRANCH 43 44
ATOM     44  CG  TYR C   2      57.457  27.916  37.143  1.00 19.66 LIG-0.06  A 
ATOM     45  CD1 TYR C   2      56.533  26.948  36.912  1.00 23.16 LIG 0.01  A 
ATOM     46  CE1 TYR C   2      56.573  25.662  37.528  1.00 26.66 LIG 0.04  A 
ATOM     47  CZ  TYR C   2      57.547  25.355  38.395  1.00 21.30 LIG 0.07  A 
ATOM     48  CE2 TYR C   2      58.480  26.303  38.631  1.00 23.08 LIG 0.04  A 
ATOM     49  CD2 TYR C   2      58.448  27.587  38.045  1.00 20.76 LIG 0.01  A 
BRANCH 47 50
ATOM     50 OH   TYR C   2      57.591  24.044  39.004  1.00 23.41 LIG-0.36  OA
ATOM     51 HH   TYR C   2      58.377  23.749  38.979  1.00 23.41 LIG 0.22  HD
ENDBRANCH 47 50
ENDBRANCH 43 44
ENDBRANCH 30 43
ENDBRANCH 1 30
TORSDOF 17
ENDMDL
MODEL 17
USER: ADFR SOLUTION from run 12
USER: SCORE 18.071188 LL:  -4.517 LR: -16.112 RR:   0.000 FEB: -11.041
USER: RMSD 3.127987
USER: SEED 469539
USER: STATUS no improvement in best in 9 clusters for 5 generations
USER: GENES 19
USER: genes 0 Translation |==|  0.62592 0.47846 0.55510
USER: genes 1 Rotation |==|  0.54177 0.45651 0.46199 0.99489
USER: genes 2 Torsion [C]-N--CA-[CB] |==|  0.35802
USER: genes 3 Torsion [N]-CA--CB-[CG2] |==|  0.79088
USER: genes 4 Torsion [CA]-CB--CG1-[CD1] |==|  0.41850
USER: genes 5 Torsion [N]-CA--C-[N] |==|  0.88911
USER: genes 6 Torsion [C]-N--CA-[CB] |==|  0.82778
USER: genes 7 Torsion [N]-CA--C-[N] |==|  0.17627
USER: genes 8 Torsion [N]-CA--C-[O] |==|  0.72436
USER: genes 9 Torsion [N]-CA--CB-[CG] |==|  0.82044
USER: genes 10 Torsion [CA]-CB--CG-[ND1] |==|  0.01662
USER: genes 11 Torsion [N]-C--CA-[N] |==|  0.16753
USER: genes 12 Torsion [C]-CA--N-[C] |==|  0.78142
USER: genes 13 Torsion [N]-C--CA-[N] |==|  0.37353
USER: genes 14 Torsion [C]-CA--N-[H2] |==|  0.14261
USER: genes 15 Torsion [C]-CA--CB-[CG1] |==|  0.10171
USER: genes 16 Torsion [C]-CA--CB-[CG] |==|  0.38405
USER: genes 17 Torsion [CA]-CB--CG-[CD1] |==|  0.40961
USER: genes 18 Torsion [CE1]-CZ--OH-[HH] |==|  0.90395
ROOT
ATOM      1  C   TYR C   2      57.598  30.575  36.524  1.00 15.61 LIG 0.24  C 
ATOM      2 O    TYR C   2      58.709  30.801  36.022  1.00 14.40 LIG-0.27  OA
ATOM      3  N   ILE C   3      57.013  29.414  36.413  1.00 16.82 LIG-0.35  N 
ATOM      4 H    ILE C   3      56.348  29.162  36.896  1.00 16.82 LIG 0.16  HD
ENDROOT
BRANCH 3 5
ATOM      5  CA  ILE C   3      57.457  28.430  35.434  1.00 16.46 LIG 0.18  C 
BRANCH 5 6
ATOM      6  CB  ILE C   3      57.688  27.080  36.088  1.00 18.77 LIG 0.01  C 
ATOM      7  CG2 ILE C   3      58.990  27.130  36.873  1.00 19.99 LIG 0.01  C 
BRANCH 6 8
ATOM      8  CG1 ILE C   3      56.540  26.700  37.053  1.00 18.05 LIG 0.00  C 
ATOM      9  CD1 ILE C   3      56.307  25.193  37.189  1.00 24.94 LIG 0.01  C 
ENDBRANCH 6 8
ENDBRANCH 5 6
BRANCH 5 10
ATOM     10  C   ILE C   3      56.396  28.354  34.332  1.00 19.56 LIG 0.24  C 
ATOM     11  N   HIS C   4      55.126  28.405  34.681  1.00 25.52 LIG-0.35  N 
ATOM     12 H    HIS C   4      54.839  28.559  35.477  1.00 25.52 LIG 0.16  HD
ATOM     13 O    ILE C   3      56.721  28.258  33.146  1.00 16.93 LIG-0.27  OA
BRANCH 11 14
ATOM     14  CA  HIS C   4      54.078  28.189  33.662  1.00 31.94 LIG 0.18  C 
BRANCH 14 15
ATOM     15  C   HIS C   4      54.241  26.789  33.124  1.00 43.02 LIG 0.24  C 
ATOM     16 O    HIS C   4      54.463  26.688  31.901  1.00 47.49 LIG-0.27  OA
ATOM     17  N   PRO C   5      54.062  25.734  34.003  1.00 55.18 LIG-0.34  N 
ATOM     18  CA  PRO C   5      54.265  24.246  33.793  1.00 55.75 LIG 0.17  C 
ATOM     19  CD  PRO C   5      53.274  25.964  35.242  1.00 48.44 LIG 0.13  C 
ATOM     20  CB  PRO C   5      53.993  23.660  35.183  1.00 55.43 LIG 0.04  C 
ATOM     21  CG  PRO C   5      52.945  24.563  35.758  1.00 51.63 LIG 0.02  C 
BRANCH 18 22
ATOM     22  C   PRO C   5      53.303  23.571  32.828  1.00 57.38 LIG 0.22  C 
ATOM     23 O    PRO C   5      52.333  22.945  33.266  1.00 61.90 LIG-0.29  OA
ENDBRANCH 18 22
ENDBRANCH 14 15
BRANCH 14 24
ATOM     24  CB  HIS C   4      54.132  29.275  32.540  1.00 32.76 LIG 0.10  C 
BRANCH 24 25
ATOM     25  CG  HIS C   4      53.834  30.676  32.992  1.00 32.77 LIG 0.06  A 
ATOM     26 ND1  HIS C   4      53.652  31.003  34.324  1.00 34.96 LIG-0.24  NA
ATOM     27  CE1 HIS C   4      53.424  32.303  34.436  1.00 36.21 LIG 0.23  A 
ATOM     28 NE2  HIS C   4      53.441  32.835  33.220  1.00 34.31 LIG-0.25  NA
ATOM     29  CD2 HIS C   4      53.692  31.836  32.298  1.00 30.94 LIG 0.14  A 
ENDBRANCH 24 25
ENDBRANCH 14 24
ENDBRANCH 11 14
ENDBRANCH 5 10
ENDBRANCH 3 5
BRANCH 1 30
ATOM     30  CA  TYR C   2      56.879  31.585  37.367  1.00 15.99 LIG 0.18  C 
BRANCH 30 31
ATOM     31  N   TYR C   2      56.666  31.207  38.751  1.00 12.71 LIG-0.35  N 
ATOM     32  C   VAL C   1      55.723  30.389  39.129  1.00 12.74 LIG 0.25  C 
ATOM     33 O    VAL C   1      54.989  29.828  38.340  1.00 11.92 LIG-0.27  OA
ATOM     34 H    TYR C   2      57.220  31.572  39.298  1.00 12.71 LIG 0.16  HD
BRANCH 32 35
ATOM     35  CA  VAL C   1      55.539  30.219  40.644  1.00 14.22 LIG 0.28  C 
BRANCH 35 36
ATOM     36  N   VAL C   1      54.073  30.293  40.951  1.00 13.26 LIG-0.07  N 
ATOM     37 H1   VAL C   1      53.782  31.122  40.809  1.00 13.26 LIG 0.28  HD
ATOM     38 H2   VAL C   1      53.630  29.728  40.424  1.00 13.26 LIG 0.28  HD
ATOM     39 H3   VAL C   1      53.936  30.072  41.802  1.00 13.26 LIG 0.28  HD
ENDBRANCH 35 36
BRANCH 35 40
ATOM     40  CB  VAL C   1      56.210  28.961  41.241  1.00 17.02 LIG 0.02  C 
ATOM     41  CG1 VAL C   1      57.583  28.644  40.539  1.00 17.35 LIG 0.01  C 
ATOM     42  CG2 VAL C   1      56.433  29.125  42.681  1.00 19.35 LIG 0.01  C 
ENDBRANCH 35 40
ENDBRANCH 32 35
ENDBRANCH 30 31
BRANCH 30 43
ATOM     43  CB  TYR C   2      57.554  33.001  37.352  1.00 16.65 LIG 0.07  C 
BRANCH 43 44
ATOM     44  CG  TYR C   2      56.569  34.152  37.258  1.00 19.66 LIG-0.06  A 
ATOM     45  CD1 TYR C   2      56.796  35.356  37.844  1.00 23.16 LIG 0.01  A 
ATOM     46  CE1 TYR C   2      55.861  36.432  37.815  1.00 26.66 LIG 0.04  A 
ATOM     47  CZ  TYR C   2      54.680  36.288  37.200  1.00 21.30 LIG 0.07  A 
ATOM     48  CE2 TYR C   2      54.439  35.100  36.603  1.00 23.08 LIG 0.04  A 
ATOM     49  CD2 TYR C   2      55.345  34.017  36.637  1.00 20.76 LIG 0.01  A 
BRANCH 47 50
ATOM     50 OH   TYR C   2      53.742  37.388  37.159  1.00 23.41 LIG-0.36  OA
ATOM     51 HH   TYR C   2      53.797  37.829  37.872  1.00 23.41 LIG 0.22  HD
ENDBRANCH 47 50
ENDBRANCH 43 44
ENDBRANCH 30 43
ENDBRANCH 1 30
TORSDOF 17
ENDMDL
MODEL 18
USER: ADFR SOLUTION from run 55
USER: SCORE 18.507218 LL:  -3.910 LR: -16.076 RR:   0.000 FEB: -11.004
USER: RMSD 3.492089
USER: SEED 54
USER: STATUS searching
USER: GENES 19
USER: genes 0 Translation |==|  0.62354 0.48704 0.55260
USER: genes 1 Rotation |==|  0.57422 0.43366 0.44035 0.98635
USER: genes 2 Torsion [C]-N--CA-[CB] |==|  0.22772
USER: genes 3 Torsion [N]-CA--CB-[CG2] |==|  0.73005
USER: genes 4 Torsion [CA]-CB--CG1-[CD1] |==|  0.40189
USER: genes 5 Torsion [N]-CA--C-[N] |==|  0.02008
USER: genes 6 Torsion [C]-N--CA-[CB] |==|  0.49444
USER: genes 7 Torsion [N]-CA--C-[N] |==|  0.38230
USER: genes 8 Torsion [N]-CA--C-[O] |==|  0.01142
USER: genes 9 Torsion [N]-CA--CB-[CG] |==|  0.25802
USER: genes 10 Torsion [CA]-CB--CG-[ND1] |==|  0.27880
USER: genes 11 Torsion [N]-C--CA-[N] |==|  0.19279
USER: genes 12 Torsion [C]-CA--N-[C] |==|  0.77974
USER: genes 13 Torsion [N]-C--CA-[N] |==|  0.36778
USER: genes 14 Torsion [C]-CA--N-[H2] |==|  0.79477
USER: genes 15 Torsion [C]-CA--CB-[CG1] |==|  0.08897
USER: genes 16 Torsion [C]-CA--CB-[CG] |==|  0.37144
USER: genes 17 Torsion [CA]-CB--CG-[CD1] |==|  0.41882
USER: genes 18 Torsion [CE1]-CZ--OH-[HH] |==|  0.84959
ROOT
ATOM      1  C   TYR C   2      57.562  30.761  36.466  1.00 15.61 LIG 0.24  C 
ATOM      2 O    TYR C   2      58.732  30.948  36.102  1.00 14.40 LIG-0.27  OA
ATOM      3  N   ILE C   3      56.903  29.682  36.147  1.00 16.82 LIG-0.35  N 
ATOM      4 H    ILE C   3      56.175  29.432  36.529  1.00 16.82 LIG 0.16  HD
ENDROOT
BRANCH 3 5
ATOM      5  CA  ILE C   3      57.366  28.794  35.087  1.00 16.46 LIG 0.18  C 
BRANCH 5 6
ATOM      6  CB  ILE C   3      58.438  27.850  35.599  1.00 18.77 LIG 0.01  C 
ATOM      7  CG2 ILE C   3      59.804  28.418  35.246  1.00 19.99 LIG 0.01  C 
BRANCH 6 8
ATOM      8  CG1 ILE C   3      58.360  27.663  37.133  1.00 18.05 LIG 0.00  C 
ATOM      9  CD1 ILE C   3      58.718  26.254  37.613  1.00 24.94 LIG 0.01  C 
ENDBRANCH 6 8
ENDBRANCH 5 6
BRANCH 5 10
ATOM     10  C   ILE C   3      56.149  28.035  34.547  1.00 19.56 LIG 0.24  C 
ATOM     11  N   HIS C   4      54.953  28.384  34.977  1.00 25.52 LIG-0.35  N 
ATOM     12 H    HIS C   4      54.788  29.061  35.481  1.00 25.52 LIG 0.16  HD
ATOM     13 O    ILE C   3      56.284  27.128  33.724  1.00 16.93 LIG-0.27  OA
BRANCH 11 14
ATOM     14  CA  HIS C   4      53.774  27.581  34.591  1.00 31.94 LIG 0.18  C 
BRANCH 14 15
ATOM     15  C   HIS C   4      53.708  27.556  33.084  1.00 43.02 LIG 0.24  C 
ATOM     16 O    HIS C   4      53.871  28.648  32.505  1.00 47.49 LIG-0.27  OA
ATOM     17  N   PRO C   5      53.401  26.353  32.471  1.00 55.18 LIG-0.34  N 
ATOM     18  CA  PRO C   5      53.372  25.989  30.999  1.00 55.75 LIG 0.17  C 
ATOM     19  CD  PRO C   5      52.698  25.308  33.261  1.00 48.44 LIG 0.13  C 
ATOM     20  CB  PRO C   5      53.062  24.488  31.019  1.00 55.43 LIG 0.04  C 
ATOM     21  CG  PRO C   5      52.180  24.316  32.219  1.00 51.63 LIG 0.02  C 
BRANCH 18 22
ATOM     22  C   PRO C   5      52.288  26.658  30.168  1.00 57.38 LIG 0.22  C 
ATOM     23 O    PRO C   5      51.549  27.500  30.686  1.00 61.90 LIG-0.29  OA
ENDBRANCH 18 22
ENDBRANCH 14 15
BRANCH 14 24
ATOM     24  CB  HIS C   4      52.464  28.130  35.242  1.00 32.76 LIG 0.10  C 
BRANCH 24 25
ATOM     25  CG  HIS C   4      51.696  29.110  34.402  1.00 32.77 LIG 0.06  A 
ATOM     26 ND1  HIS C   4      50.578  28.746  33.673  1.00 34.96 LIG-0.24  NA
ATOM     27  CE1 HIS C   4      50.091  29.807  33.046  1.00 36.21 LIG 0.23  A 
ATOM     28 NE2  HIS C   4      50.860  30.850  33.333  1.00 34.31 LIG-0.25  NA
ATOM     29  CD2 HIS C   4      51.874  30.439  34.178  1.00 30.94 LIG 0.14  A 
ENDBRANCH 24 25
ENDBRANCH 14 24
ENDBRANCH 11 14
ENDBRANCH 5 10
ENDBRANCH 3 5
BRANCH 1 30
ATOM     30  CA  TYR C   2      56.842  31.716  37.370  1.00 15.99 LIG 0.18  C 
BRANCH 30 31
ATOM     31  N   TYR C   2      56.644  31.260  38.732  1.00 12.71 LIG-0.35  N 
ATOM     32  C   VAL C   1      55.703  30.423  39.072  1.00 12.74 LIG 0.25  C 
ATOM     33 O    VAL C   1      54.959  29.910  38.260  1.00 11.92 LIG-0.27  OA
ATOM     34 H    TYR C   2      57.204  31.592  39.293  1.00 12.71 LIG 0.16  HD
BRANCH 32 35
ATOM     35  CA  VAL C   1      55.535  30.167  40.578  1.00 14.22 LIG 0.28  C 
BRANCH 35 36
ATOM     36  N   VAL C   1      54.077  30.276  40.913  1.00 13.26 LIG-0.07  N 
ATOM     37 H1   VAL C   1      53.933  29.939  41.724  1.00 13.26 LIG 0.28  HD
ATOM     38 H2   VAL C   1      53.833  31.132  40.901  1.00 13.26 LIG 0.28  HD
ATOM     39 H3   VAL C   1      53.600  29.823  40.314  1.00 13.26 LIG 0.28  HD
ENDBRANCH 35 36
BRANCH 35 40
ATOM     40  CB  VAL C   1      56.166  28.851  41.084  1.00 17.02 LIG 0.02  C 
ATOM     41  CG1 VAL C   1      57.453  28.467  40.262  1.00 17.35 LIG 0.01  C 
ATOM     42  CG2 VAL C   1      56.516  28.956  42.504  1.00 19.35 LIG 0.01  C 
ENDBRANCH 35 40
ENDBRANCH 32 35
ENDBRANCH 30 31
BRANCH 30 43
ATOM     43  CB  TYR C   2      57.506  33.137  37.429  1.00 16.65 LIG 0.07  C 
BRANCH 43 44
ATOM     44  CG  TYR C   2      56.521  34.284  37.298  1.00 19.66 LIG-0.06  A 
ATOM     45  CD1 TYR C   2      56.734  35.497  37.870  1.00 23.16 LIG 0.01  A 
ATOM     46  CE1 TYR C   2      55.796  36.570  37.805  1.00 26.66 LIG 0.04  A 
ATOM     47  CZ  TYR C   2      54.628  36.414  37.169  1.00 21.30 LIG 0.07  A 
ATOM     48  CE2 TYR C   2      54.403  35.216  36.586  1.00 23.08 LIG 0.04  A 
ATOM     49  CD2 TYR C   2      55.310  34.136  36.655  1.00 20.76 LIG 0.01  A 
BRANCH 47 50
ATOM     50 OH   TYR C   2      53.689  37.511  37.093  1.00 23.41 LIG-0.36  OA
ATOM     51 HH   TYR C   2      53.528  37.796  37.866  1.00 23.41 LIG 0.22  HD
ENDBRANCH 47 50
ENDBRANCH 43 44
ENDBRANCH 30 43
ENDBRANCH 1 30
TORSDOF 17
ENDMDL
MODEL 19
USER: ADFR SOLUTION from run 80
USER: SCORE 18.574670 LL:  -4.327 LR: -15.906 RR:   0.000 FEB: -10.835
USER: RMSD 3.523963
USER: SEED 79
USER: STATUS no improvement in best in 9 clusters for 5 generations
USER: GENES 19
USER: genes 0 Translation |==|  0.64222 0.47009 0.56434
USER: genes 1 Rotation |==|  0.42320 0.57805 0.57801 0.98159
USER: genes 2 Torsion [C]-N--CA-[CB] |==|  0.52511
USER: genes 3 Torsion [N]-CA--CB-[CG2] |==|  0.77472
USER: genes 4 Torsion [CA]-CB--CG1-[CD1] |==|  0.38338
USER: genes 5 Torsion [N]-CA--C-[N] |==|  0.77063
USER: genes 6 Torsion [C]-N--CA-[CB] |==|  0.78273
USER: genes 7 Torsion [N]-CA--C-[N] |==|  0.15205
USER: genes 8 Torsion [N]-CA--C-[O] |==|  0.17588
USER: genes 9 Torsion [N]-CA--CB-[CG] |==|  0.81932
USER: genes 10 Torsion [CA]-CB--CG-[ND1] |==|  0.86073
USER: genes 11 Torsion [N]-C--CA-[N] |==|  0.03327
USER: genes 12 Torsion [C]-CA--N-[C] |==|  0.76568
USER: genes 13 Torsion [N]-C--CA-[N] |==|  0.38976
USER: genes 14 Torsion [C]-CA--N-[H2] |==|  0.77653
USER: genes 15 Torsion [C]-CA--CB-[CG1] |==|  0.09639
USER: genes 16 Torsion [C]-CA--CB-[CG] |==|  0.39709
USER: genes 17 Torsion [CA]-CB--CG-[CD1] |==|  0.40641
USER: genes 18 Torsion [CE1]-CZ--OH-[HH] |==|  0.84287
ROOT
ATOM      1  C   TYR C   2      57.842  30.393  36.739  1.00 15.61 LIG 0.24  C 
ATOM      2 O    TYR C   2      58.430  30.640  35.676  1.00 14.40 LIG-0.27  OA
ATOM      3  N   ILE C   3      57.959  29.242  37.341  1.00 16.82 LIG-0.35  N 
ATOM      4 H    ILE C   3      57.728  29.099  38.156  1.00 16.82 LIG 0.16  HD
ENDROOT
BRANCH 3 5
ATOM      5  CA  ILE C   3      58.506  28.077  36.655  1.00 16.46 LIG 0.18  C 
BRANCH 5 6
ATOM      6  CB  ILE C   3      58.331  26.823  37.492  1.00 18.77 LIG 0.01  C 
ATOM      7  CG2 ILE C   3      59.438  26.768  38.534  1.00 19.99 LIG 0.01  C 
BRANCH 6 8
ATOM      8  CG1 ILE C   3      56.965  26.796  38.217  1.00 18.05 LIG 0.00  C 
ATOM      9  CD1 ILE C   3      56.270  25.432  38.199  1.00 24.94 LIG 0.01  C 
ENDBRANCH 6 8
ENDBRANCH 5 6
BRANCH 5 10
ATOM     10  C   ILE C   3      57.803  27.959  35.299  1.00 19.56 LIG 0.24  C 
ATOM     11  N   HIS C   4      56.624  27.371  35.254  1.00 25.52 LIG-0.35  N 
ATOM     12 H    HIS C   4      56.174  27.115  35.941  1.00 25.52 LIG 0.16  HD
ATOM     13 O    ILE C   3      58.322  28.411  34.276  1.00 16.93 LIG-0.27  OA
BRANCH 11 14
ATOM     14  CA  HIS C   4      55.986  27.111  33.947  1.00 31.94 LIG 0.18  C 
BRANCH 14 15
ATOM     15  C   HIS C   4      57.032  26.518  33.034  1.00 43.02 LIG 0.24  C 
ATOM     16 O    HIS C   4      57.164  27.059  31.919  1.00 47.49 LIG-0.27  OA
ATOM     17  N   PRO C   5      57.704  25.388  33.470  1.00 55.18 LIG-0.34  N 
ATOM     18  CA  PRO C   5      58.864  24.642  32.842  1.00 55.75 LIG 0.17  C 
ATOM     19  CD  PRO C   5      57.077  24.547  34.525  1.00 48.44 LIG 0.13  C 
ATOM     20  CB  PRO C   5      59.186  23.562  33.881  1.00 55.43 LIG 0.04  C 
ATOM     21  CG  PRO C   5      57.854  23.231  34.483  1.00 51.63 LIG 0.02  C 
BRANCH 18 22
ATOM     22  C   PRO C   5      58.568  23.927  31.533  1.00 57.38 LIG 0.22  C 
ATOM     23 O    PRO C   5      58.236  24.580  30.539  1.00 61.90 LIG-0.29  OA
ENDBRANCH 18 22
ENDBRANCH 14 15
BRANCH 14 24
ATOM     24  CB  HIS C   4      55.335  28.402  33.356  1.00 32.76 LIG 0.10  C 
BRANCH 24 25
ATOM     25  CG  HIS C   4      54.181  28.954  34.144  1.00 32.77 LIG 0.06  A 
ATOM     26 ND1  HIS C   4      53.120  28.168  34.555  1.00 34.96 LIG-0.24  NA
ATOM     27  CE1 HIS C   4      52.262  28.905  35.245  1.00 36.21 LIG 0.23  A 
ATOM     28 NE2  HIS C   4      52.723  30.149  35.290  1.00 34.31 LIG-0.25  NA
ATOM     29  CD2 HIS C   4      53.922  30.206  34.605  1.00 30.94 LIG 0.14  A 
ENDBRANCH 24 25
ENDBRANCH 14 24
ENDBRANCH 11 14
ENDBRANCH 5 10
ENDBRANCH 3 5
BRANCH 1 30
ATOM     30  CA  TYR C   2      57.022  31.420  37.459  1.00 15.99 LIG 0.18  C 
BRANCH 30 31
ATOM     31  N   TYR C   2      56.694  31.106  38.836  1.00 12.71 LIG-0.35  N 
ATOM     32  C   VAL C   1      55.676  30.363  39.174  1.00 12.74 LIG 0.25  C 
ATOM     33 O    VAL C   1      54.961  29.822  38.354  1.00 11.92 LIG-0.27  OA
ATOM     34 H    TYR C   2      57.232  31.455  39.408  1.00 12.71 LIG 0.16  HD
BRANCH 32 35
ATOM     35  CA  VAL C   1      55.382  30.259  40.678  1.00 14.22 LIG 0.28  C 
BRANCH 35 36
ATOM     36  N   VAL C   1      53.894  30.293  40.869  1.00 13.26 LIG-0.07  N 
ATOM     37 H1   VAL C   1      53.689  29.946  41.662  1.00 13.26 LIG 0.28  HD
ATOM     38 H2   VAL C   1      53.608  31.135  40.831  1.00 13.26 LIG 0.28  HD
ATOM     39 H3   VAL C   1      53.502  29.818  40.226  1.00 13.26 LIG 0.28  HD
ENDBRANCH 35 36
BRANCH 35 40
ATOM     40  CB  VAL C   1      56.046  29.057  41.386  1.00 17.02 LIG 0.02  C 
ATOM     41  CG1 VAL C   1      57.459  28.729  40.774  1.00 17.35 LIG 0.01  C 
ATOM     42  CG2 VAL C   1      56.193  29.317  42.822  1.00 19.35 LIG 0.01  C 
ENDBRANCH 35 40
ENDBRANCH 32 35
ENDBRANCH 30 31
BRANCH 30 43
ATOM     43  CB  TYR C   2      57.657  32.855  37.430  1.00 16.65 LIG 0.07  C 
BRANCH 43 44
ATOM     44  CG  TYR C   2      56.642  33.976  37.299  1.00 19.66 LIG-0.06  A 
ATOM     45  CD1 TYR C   2      56.814  35.188  37.887  1.00 23.16 LIG 0.01  A 
ATOM     46  CE1 TYR C   2      55.848  36.236  37.822  1.00 26.66 LIG 0.04  A 
ATOM     47  CZ  TYR C   2      54.692  36.054  37.171  1.00 21.30 LIG 0.07  A 
ATOM     48  CE2 TYR C   2      54.506  34.857  36.573  1.00 23.08 LIG 0.04  A 
ATOM     49  CD2 TYR C   2      55.442  33.802  36.641  1.00 20.76 LIG 0.01  A 
BRANCH 47 50
ATOM     50 OH   TYR C   2      53.724  37.125  37.096  1.00 23.41 LIG-0.36  OA
ATOM     51 HH   TYR C   2      53.521  37.375  37.872  1.00 23.41 LIG 0.22  HD
ENDBRANCH 47 50
ENDBRANCH 43 44
ENDBRANCH 30 43
ENDBRANCH 1 30
TORSDOF 17
ENDMDL
MODEL 20
USER: ADFR SOLUTION from run 80
USER: SCORE 18.303937 LL:  -3.987 LR: -15.896 RR:   0.000 FEB: -10.825
USER: RMSD 2.533623
USER: SEED 79
USER: STATUS no improvement in best in 9 clusters for 5 generations
USER: GENES 19
USER: genes 0 Translation |==|  0.65239 0.46638 0.55787
USER: genes 1 Rotation |==|  0.45000 0.54657 0.56396 0.99116
USER: genes 2 Torsion [C]-N--CA-[CB] |==|  0.47470
USER: genes 3 Torsion [N]-CA--CB-[CG2] |==|  0.87654
USER: genes 4 Torsion [CA]-CB--CG1-[CD1] |==|  0.73274
USER: genes 5 Torsion [N]-CA--C-[N] |==|  0.44613
USER: genes 6 Torsion [C]-N--CA-[CB] |==|  0.19946
USER: genes 7 Torsion [N]-CA--C-[N] |==|  0.12738
USER: genes 8 Torsion [N]-CA--C-[O] |==|  0.85157
USER: genes 9 Torsion [N]-CA--CB-[CG] |==|  0.55747
USER: genes 10 Torsion [CA]-CB--CG-[ND1] |==|  0.45273
USER: genes 11 Torsion [N]-C--CA-[N] |==|  0.06633
USER: genes 12 Torsion [C]-CA--N-[C] |==|  0.73866
USER: genes 13 Torsion [N]-C--CA-[N] |==|  0.40133
USER: genes 14 Torsion [C]-CA--N-[H2] |==|  0.79136
USER: genes 15 Torsion [C]-CA--CB-[CG1] |==|  0.13657
USER: genes 16 Torsion [C]-CA--CB-[CG] |==|  0.40559
USER: genes 17 Torsion [CA]-CB--CG-[CD1] |==|  0.89455
USER: genes 18 Torsion [CE1]-CZ--OH-[HH] |==|  0.37884
ROOT
ATOM      1  C   TYR C   2      57.995  30.312  36.588  1.00 15.61 LIG 0.24  C 
ATOM      2 O    TYR C   2      58.720  30.643  35.639  1.00 14.40 LIG-0.27  OA
ATOM      3  N   ILE C   3      57.979  29.094  37.053  1.00 16.82 LIG-0.35  N 
ATOM      4 H    ILE C   3      57.644  28.872  37.813  1.00 16.82 LIG 0.16  HD
ENDROOT
BRANCH 3 5
ATOM      5  CA  ILE C   3      58.547  27.984  36.297  1.00 16.46 LIG 0.18  C 
BRANCH 5 6
ATOM      6  CB  ILE C   3      58.604  26.724  37.142  1.00 18.77 LIG 0.01  C 
ATOM      7  CG2 ILE C   3      59.132  27.083  38.524  1.00 19.99 LIG 0.01  C 
BRANCH 6 8
ATOM      8  CG1 ILE C   3      57.213  26.067  37.299  1.00 18.05 LIG 0.00  C 
ATOM      9  CD1 ILE C   3      56.480  26.447  38.588  1.00 24.94 LIG 0.01  C 
ENDBRANCH 6 8
ENDBRANCH 5 6
BRANCH 5 10
ATOM     10  C   ILE C   3      57.692  27.787  35.041  1.00 19.56 LIG 0.24  C 
ATOM     11  N   HIS C   4      58.212  27.123  34.028  1.00 25.52 LIG-0.35  N 
ATOM     12 H    HIS C   4      58.970  26.717  34.041  1.00 25.52 LIG 0.16  HD
ATOM     13 O    ILE C   3      56.543  28.231  34.983  1.00 16.93 LIG-0.27  OA
BRANCH 11 14
ATOM     14  CA  HIS C   4      57.473  27.041  32.751  1.00 31.94 LIG 0.18  C 
BRANCH 14 15
ATOM     15  C   HIS C   4      58.084  25.928  31.937  1.00 43.02 LIG 0.24  C 
ATOM     16 O    HIS C   4      58.248  26.157  30.722  1.00 47.49 LIG-0.27  OA
ATOM     17  N   PRO C   5      58.342  24.727  32.576  1.00 55.18 LIG-0.34  N 
ATOM     18  CA  PRO C   5      59.041  23.483  32.064  1.00 55.75 LIG 0.17  C 
ATOM     19  CD  PRO C   5      57.604  24.411  33.827  1.00 48.44 LIG 0.13  C 
ATOM     20  CB  PRO C   5      59.082  22.576  33.300  1.00 55.43 LIG 0.04  C 
ATOM     21  CG  PRO C   5      57.822  22.912  34.037  1.00 51.63 LIG 0.02  C 
BRANCH 18 22
ATOM     22  C   PRO C   5      58.319  22.713  30.970  1.00 57.38 LIG 0.22  C 
ATOM     23 O    PRO C   5      57.149  22.356  31.139  1.00 61.90 LIG-0.29  OA
ENDBRANCH 18 22
ENDBRANCH 14 15
BRANCH 14 24
ATOM     24  CB  HIS C   4      57.474  28.409  31.996  1.00 32.76 LIG 0.10  C 
BRANCH 24 25
ATOM     25  CG  HIS C   4      56.385  28.576  30.975  1.00 32.77 LIG 0.06  A 
ATOM     26 ND1  HIS C   4      56.024  29.813  30.471  1.00 34.96 LIG-0.24  NA
ATOM     27  CE1 HIS C   4      55.057  29.665  29.578  1.00 36.21 LIG 0.23  A 
ATOM     28 NE2  HIS C   4      54.767  28.372  29.489  1.00 34.31 LIG-0.25  NA
ATOM     29  CD2 HIS C   4      55.583  27.670  30.357  1.00 30.94 LIG 0.14  A 
ENDBRANCH 24 25
ENDBRANCH 14 24
ENDBRANCH 11 14
ENDBRANCH 5 10
ENDBRANCH 3 5
BRANCH 1 30
ATOM     30  CA  TYR C   2      57.145  31.299  37.330  1.00 15.99 LIG 0.18  C 
BRANCH 30 31
ATOM     31  N   TYR C   2      56.859  30.966  38.712  1.00 12.71 LIG-0.35  N 
ATOM     32  C   VAL C   1      55.781  30.332  39.083  1.00 12.74 LIG 0.25  C 
ATOM     33 O    VAL C   1      54.962  29.914  38.288  1.00 11.92 LIG-0.27  OA
ATOM     34 H    TYR C   2      57.467  31.224  39.263  1.00 12.71 LIG 0.16  HD
BRANCH 32 35
ATOM     35  CA  VAL C   1      55.561  30.198  40.597  1.00 14.22 LIG 0.28  C 
BRANCH 35 36
ATOM     36  N   VAL C   1      54.088  30.293  40.868  1.00 13.26 LIG-0.07  N 
ATOM     37 H1   VAL C   1      53.919  30.003  41.692  1.00 13.26 LIG 0.28  HD
ATOM     38 H2   VAL C   1      53.826  31.140  40.791  1.00 13.26 LIG 0.28  HD
ATOM     39 H3   VAL C   1      53.646  29.792  40.280  1.00 13.26 LIG 0.28  HD
ENDBRANCH 35 36
BRANCH 35 40
ATOM     40  CB  VAL C   1      56.204  28.946  41.236  1.00 17.02 LIG 0.02  C 
ATOM     41  CG1 VAL C   1      57.710  28.782  40.807  1.00 17.35 LIG 0.01  C 
ATOM     42  CG2 VAL C   1      56.125  29.012  42.699  1.00 19.35 LIG 0.01  C 
ENDBRANCH 35 40
ENDBRANCH 32 35
ENDBRANCH 30 31
BRANCH 30 43
ATOM     43  CB  TYR C   2      57.716  32.761  37.295  1.00 16.65 LIG 0.07  C 
BRANCH 43 44
ATOM     44  CG  TYR C   2      56.648  33.839  37.265  1.00 19.66 LIG-0.06  A 
ATOM     45  CD1 TYR C   2      55.496  33.704  36.559  1.00 23.16 LIG 0.01  A 
ATOM     46  CE1 TYR C   2      54.505  34.727  36.472  1.00 26.66 LIG 0.04  A 
ATOM     47  CZ  TYR C   2      54.685  35.901  37.091  1.00 21.30 LIG 0.07  A 
ATOM     48  CE2 TYR C   2      55.822  36.050  37.805  1.00 23.08 LIG 0.04  A 
ATOM     49  CD2 TYR C   2      56.822  35.057  37.888  1.00 20.76 LIG 0.01  A 
BRANCH 47 50
ATOM     50 OH   TYR C   2      53.669  36.927  37.012  1.00 23.41 LIG-0.36  OA
ATOM     51 HH   TYR C   2      53.558  37.270  37.771  1.00 23.41 LIG 0.22  HD
ENDBRANCH 47 50
ENDBRANCH 43 44
ENDBRANCH 30 43
ENDBRANCH 1 30
TORSDOF 17
ENDMDL
MODEL 21
USER: ADFR SOLUTION from run 156
USER: SCORE 16.485365 LL:  -2.972 LR: -15.821 RR:   0.000 FEB: -10.750
USER: RMSD 8.658076
USER: SEED 155
USER: STATUS no improvement in best in 1 clusters for 5 generations
USER: GENES 19
USER: genes 0 Translation |==|  0.28418 0.53772 0.44559
USER: genes 1 Rotation |==|  0.28438 0.90365 0.46675 0.69868
USER: genes 2 Torsion [C]-N--CA-[CB] |==|  0.18209
USER: genes 3 Torsion [N]-CA--CB-[CG2] |==|  0.28517
USER: genes 4 Torsion [CA]-CB--CG1-[CD1] |==|  0.15316
USER: genes 5 Torsion [N]-CA--C-[N] |==|  0.02399
USER: genes 6 Torsion [C]-N--CA-[CB] |==|  0.51111
USER: genes 7 Torsion [N]-CA--C-[N] |==|  0.28271
USER: genes 8 Torsion [N]-CA--C-[O] |==|  0.84132
USER: genes 9 Torsion [N]-CA--CB-[CG] |==|  0.11519
USER: genes 10 Torsion [CA]-CB--CG-[ND1] |==|  0.41830
USER: genes 11 Torsion [N]-C--CA-[N] |==|  0.33738
USER: genes 12 Torsion [C]-CA--N-[C] |==|  0.18911
USER: genes 13 Torsion [N]-C--CA-[N] |==|  0.08946
USER: genes 14 Torsion [C]-CA--N-[H2] |==|  0.48303
USER: genes 15 Torsion [C]-CA--CB-[CG1] |==|  0.53185
USER: genes 16 Torsion [C]-CA--CB-[CG] |==|  0.38463
USER: genes 17 Torsion [CA]-CB--CG-[CD1] |==|  0.22942
USER: genes 18 Torsion [CE1]-CZ--OH-[HH] |==|  0.71175
ROOT
ATOM      1  C   TYR C   2      52.472  31.864  33.978  1.00 15.61 LIG 0.24  C 
ATOM      2 O    TYR C   2      51.481  31.145  33.779  1.00 14.40 LIG-0.27  OA
ATOM      3  N   ILE C   3      53.510  31.439  34.643  1.00 16.82 LIG-0.35  N 
ATOM      4 H    ILE C   3      54.277  31.829  34.639  1.00 16.82 LIG 0.16  HD
ENDROOT
BRANCH 3 5
ATOM      5  CA  ILE C   3      53.447  30.238  35.467  1.00 16.46 LIG 0.18  C 
BRANCH 5 6
ATOM      6  CB  ILE C   3      53.218  29.005  34.612  1.00 18.77 LIG 0.01  C 
ATOM      7  CG2 ILE C   3      54.536  28.260  34.460  1.00 19.99 LIG 0.01  C 
BRANCH 6 8
ATOM      8  CG1 ILE C   3      52.178  28.049  35.243  1.00 18.05 LIG 0.00  C 
ATOM      9  CD1 ILE C   3      50.830  28.705  35.555  1.00 24.94 LIG 0.01  C 
ENDBRANCH 6 8
ENDBRANCH 5 6
BRANCH 5 10
ATOM     10  C   ILE C   3      54.754  30.146  36.261  1.00 19.56 LIG 0.24  C 
ATOM     11  N   HIS C   4      55.582  31.170  36.224  1.00 25.52 LIG-0.35  N 
ATOM     12 H    HIS C   4      55.415  31.928  35.852  1.00 25.52 LIG 0.16  HD
ATOM     13 O    ILE C   3      55.020  29.142  36.925  1.00 16.93 LIG-0.27  OA
BRANCH 11 14
ATOM     14  CA  HIS C   4      56.913  31.058  36.857  1.00 31.94 LIG 0.18  C 
BRANCH 14 15
ATOM     15  C   HIS C   4      56.711  30.571  38.271  1.00 43.02 LIG 0.24  C 
ATOM     16 O    HIS C   4      56.399  31.435  39.114  1.00 47.49 LIG-0.27  OA
ATOM     17  N   PRO C   5      56.955  29.234  38.535  1.00 55.18 LIG-0.34  N 
ATOM     18  CA  PRO C   5      56.738  28.437  39.806  1.00 55.75 LIG 0.17  C 
ATOM     19  CD  PRO C   5      57.833  28.473  37.607  1.00 48.44 LIG 0.13  C 
ATOM     20  CB  PRO C   5      57.112  27.010  39.388  1.00 55.43 LIG 0.04  C 
ATOM     21  CG  PRO C   5      58.200  27.203  38.375  1.00 51.63 LIG 0.02  C 
BRANCH 18 22
ATOM     22  C   PRO C   5      57.627  28.804  40.984  1.00 57.38 LIG 0.22  C 
ATOM     23 O    PRO C   5      58.855  28.760  40.864  1.00 61.90 LIG-0.29  OA
ENDBRANCH 18 22
ENDBRANCH 14 15
BRANCH 14 24
ATOM     24  CB  HIS C   4      57.698  32.407  36.792  1.00 32.76 LIG 0.10  C 
BRANCH 24 25
ATOM     25  CG  HIS C   4      56.880  33.637  37.069  1.00 32.77 LIG 0.06  A 
ATOM     26 ND1  HIS C   4      57.424  34.779  37.629  1.00 34.96 LIG-0.24  NA
ATOM     27  CE1 HIS C   4      56.487  35.708  37.743  1.00 36.21 LIG 0.23  A 
ATOM     28 NE2  HIS C   4      55.346  35.207  37.285  1.00 34.31 LIG-0.25  NA
ATOM     29  CD2 HIS C   4      55.565  33.911  36.860  1.00 30.94 LIG 0.14  A 
ENDBRANCH 24 25
ENDBRANCH 14 24
ENDBRANCH 11 14
ENDBRANCH 5 10
ENDBRANCH 3 5
BRANCH 1 30
ATOM     30  CA  TYR C   2      52.591  33.242  33.400  1.00 15.99 LIG 0.18  C 
BRANCH 30 31
ATOM     31  N   TYR C   2      52.436  33.332  31.961  1.00 12.71 LIG-0.35  N 
ATOM     32  C   VAL C   1      51.305  33.108  31.351  1.00 12.74 LIG 0.25  C 
ATOM     33 O    VAL C   1      50.276  32.869  31.950  1.00 11.92 LIG-0.27  OA
ATOM     34 H    TYR C   2      53.159  33.547  31.548  1.00 12.71 LIG 0.16  HD
BRANCH 32 35
ATOM     35  CA  VAL C   1      51.354  33.094  29.816  1.00 14.22 LIG 0.28  C 
BRANCH 35 36
ATOM     36  N   VAL C   1      52.695  32.569  29.394  1.00 13.26 LIG-0.07  N 
ATOM     37 H1   VAL C   1      52.841  31.782  29.783  1.00 13.26 LIG 0.28  HD
ATOM     38 H2   VAL C   1      52.710  32.470  28.509  1.00 13.26 LIG 0.28  HD
ATOM     39 H3   VAL C   1      53.328  33.144  29.638  1.00 13.26 LIG 0.28  HD
ENDBRANCH 35 36
BRANCH 35 40
ATOM     40  CB  VAL C   1      50.182  32.349  29.137  1.00 17.02 LIG 0.02  C 
ATOM     41  CG1 VAL C   1      50.445  32.125  27.601  1.00 17.35 LIG 0.01  C 
ATOM     42  CG2 VAL C   1      49.951  31.051  29.780  1.00 19.35 LIG 0.01  C 
ENDBRANCH 35 40
ENDBRANCH 32 35
ENDBRANCH 30 31
BRANCH 30 43
ATOM     43  CB  TYR C   2      51.612  34.279  34.056  1.00 16.65 LIG 0.07  C 
BRANCH 43 44
ATOM     44  CG  TYR C   2      52.237  35.637  34.317  1.00 19.66 LIG-0.06  A 
ATOM     45  CD1 TYR C   2      52.341  36.589  33.354  1.00 23.16 LIG 0.01  A 
ATOM     46  CE1 TYR C   2      52.974  37.850  33.563  1.00 26.66 LIG 0.04  A 
ATOM     47  CZ  TYR C   2      53.518  38.148  34.750  1.00 21.30 LIG 0.07  A 
ATOM     48  CE2 TYR C   2      53.416  37.216  35.723  1.00 23.08 LIG 0.04  A 
ATOM     49  CD2 TYR C   2      52.810  35.956  35.530  1.00 20.76 LIG 0.01  A 
BRANCH 47 50
ATOM     50 OH   TYR C   2      54.143  39.435  34.960  1.00 23.41 LIG-0.36  OA
ATOM     51 HH   TYR C   2      54.979  39.347  34.942  1.00 23.41 LIG 0.22  HD
ENDBRANCH 47 50
ENDBRANCH 43 44
ENDBRANCH 30 43
ENDBRANCH 1 30
TORSDOF 17
ENDMDL
MODEL 22
USER: ADFR SOLUTION from run 44
USER: SCORE 18.082077 LL:  -3.957 LR: -15.783 RR:   0.000 FEB: -10.712
USER: RMSD 3.149984
USER: SEED 43
USER: STATUS no improvement in best in 8 clusters for 5 generations
USER: GENES 19
USER: genes 0 Translation |==|  0.65402 0.46788 0.55930
USER: genes 1 Rotation |==|  0.45044 0.55242 0.56697 0.99021
USER: genes 2 Torsion [C]-N--CA-[CB] |==|  0.44201
USER: genes 3 Torsion [N]-CA--CB-[CG2] |==|  0.11301
USER: genes 4 Torsion [CA]-CB--CG1-[CD1] |==|  0.66164
USER: genes 5 Torsion [N]-CA--C-[N] |==|  0.35608
USER: genes 6 Torsion [C]-N--CA-[CB] |==|  0.85069
USER: genes 7 Torsion [N]-CA--C-[N] |==|  0.35631
USER: genes 8 Torsion [N]-CA--C-[O] |==|  0.99807
USER: genes 9 Torsion [N]-CA--CB-[CG] |==|  0.82178
USER: genes 10 Torsion [CA]-CB--CG-[ND1] |==|  0.97220
USER: genes 11 Torsion [N]-C--CA-[N] |==|  0.05653
USER: genes 12 Torsion [C]-CA--N-[C] |==|  0.73889
USER: genes 13 Torsion [N]-C--CA-[N] |==|  0.39819
USER: genes 14 Torsion [C]-CA--N-[H2] |==|  0.11998
USER: genes 15 Torsion [C]-CA--CB-[CG1] |==|  0.17455
USER: genes 16 Torsion [C]-CA--CB-[CG] |==|  0.39034
USER: genes 17 Torsion [CA]-CB--CG-[CD1] |==|  0.40020
USER: genes 18 Torsion [CE1]-CZ--OH-[HH] |==|  0.82247
ROOT
ATOM      1  C   TYR C   2      58.019  30.344  36.622  1.00 15.61 LIG 0.24  C 
ATOM      2 O    TYR C   2      58.717  30.682  35.654  1.00 14.40 LIG-0.27  OA
ATOM      3  N   ILE C   3      58.027  29.127  37.087  1.00 16.82 LIG-0.35  N 
ATOM      4 H    ILE C   3      57.713  28.903  37.856  1.00 16.82 LIG 0.16  HD
ENDROOT
BRANCH 3 5
ATOM      5  CA  ILE C   3      58.586  28.022  36.318  1.00 16.46 LIG 0.18  C 
BRANCH 5 6
ATOM      6  CB  ILE C   3      58.946  26.857  37.223  1.00 18.77 LIG 0.01  C 
ATOM      7  CG2 ILE C   3      57.852  26.689  38.267  1.00 19.99 LIG 0.01  C 
BRANCH 6 8
ATOM      8  CG1 ILE C   3      59.086  25.534  36.434  1.00 18.05 LIG 0.00  C 
ATOM      9  CD1 ILE C   3      58.151  24.418  36.909  1.00 24.94 LIG 0.01  C 
ENDBRANCH 6 8
ENDBRANCH 5 6
BRANCH 5 10
ATOM     10  C   ILE C   3      57.556  27.621  35.257  1.00 19.56 LIG 0.24  C 
ATOM     11  N   HIS C   4      57.950  27.541  34.002  1.00 25.52 LIG-0.35  N 
ATOM     12 H    HIS C   4      58.764  27.618  33.734  1.00 25.52 LIG 0.16  HD
ATOM     13 O    ILE C   3      56.391  27.370  35.570  1.00 16.93 LIG-0.27  OA
BRANCH 11 14
ATOM     14  CA  HIS C   4      56.954  27.302  32.937  1.00 31.94 LIG 0.18  C 
BRANCH 14 15
ATOM     15  C   HIS C   4      56.122  28.552  32.795  1.00 43.02 LIG 0.24  C 
ATOM     16 O    HIS C   4      55.565  28.966  33.831  1.00 47.49 LIG-0.27  OA
ATOM     17  N   PRO C   5      55.981  29.094  31.529  1.00 55.18 LIG-0.34  N 
ATOM     18  CA  PRO C   5      55.314  30.383  31.090  1.00 55.75 LIG 0.17  C 
ATOM     19  CD  PRO C   5      56.212  28.220  30.349  1.00 48.44 LIG 0.13  C 
ATOM     20  CB  PRO C   5      55.606  30.429  29.586  1.00 55.43 LIG 0.04  C 
ATOM     21  CG  PRO C   5      55.609  28.989  29.173  1.00 51.63 LIG 0.02  C 
BRANCH 18 22
ATOM     22  C   PRO C   5      53.803  30.441  31.254  1.00 57.38 LIG 0.22  C 
ATOM     23 O    PRO C   5      53.196  29.467  31.709  1.00 61.90 LIG-0.29  OA
ENDBRANCH 18 22
ENDBRANCH 14 15
BRANCH 14 24
ATOM     24  CB  HIS C   4      56.090  26.033  33.231  1.00 32.76 LIG 0.10  C 
BRANCH 24 25
ATOM     25  CG  HIS C   4      56.847  24.736  33.253  1.00 32.77 LIG 0.06  A 
ATOM     26 ND1  HIS C   4      58.161  24.637  32.833  1.00 34.96 LIG-0.24  NA
ATOM     27  CE1 HIS C   4      58.581  23.388  32.979  1.00 36.21 LIG 0.23  A 
ATOM     28 NE2  HIS C   4      57.581  22.667  33.470  1.00 34.31 LIG-0.25  NA
ATOM     29  CD2 HIS C   4      56.483  23.487  33.647  1.00 30.94 LIG 0.14  A 
ENDBRANCH 24 25
ENDBRANCH 14 24
ENDBRANCH 11 14
ENDBRANCH 5 10
ENDBRANCH 3 5
BRANCH 1 30
ATOM     30  CA  TYR C   2      57.179  31.324  37.384  1.00 15.99 LIG 0.18  C 
BRANCH 30 31
ATOM     31  N   TYR C   2      56.864  30.950  38.749  1.00 12.71 LIG-0.35  N 
ATOM     32  C   VAL C   1      55.767  30.326  39.081  1.00 12.74 LIG 0.25  C 
ATOM     33 O    VAL C   1      54.954  29.952  38.260  1.00 11.92 LIG-0.27  OA
ATOM     34 H    TYR C   2      57.467  31.177  39.318  1.00 12.71 LIG 0.16  HD
BRANCH 32 35
ATOM     35  CA  VAL C   1      55.520  30.145  40.586  1.00 14.22 LIG 0.28  C 
BRANCH 35 36
ATOM     36  N   VAL C   1      54.049  30.288  40.841  1.00 13.26 LIG-0.07  N 
ATOM     37 H1   VAL C   1      53.826  31.150  40.817  1.00 13.26 LIG 0.28  HD
ATOM     38 H2   VAL C   1      53.594  29.847  40.215  1.00 13.26 LIG 0.28  HD
ATOM     39 H3   VAL C   1      53.852  29.953  41.641  1.00 13.26 LIG 0.28  HD
ENDBRANCH 35 36
BRANCH 35 40
ATOM     40  CB  VAL C   1      56.105  28.847  41.187  1.00 17.02 LIG 0.02  C 
ATOM     41  CG1 VAL C   1      57.674  28.806  41.070  1.00 17.35 LIG 0.01  C 
ATOM     42  CG2 VAL C   1      55.723  28.709  42.596  1.00 19.35 LIG 0.01  C 
ENDBRANCH 35 40
ENDBRANCH 32 35
ENDBRANCH 30 31
BRANCH 30 43
ATOM     43  CB  TYR C   2      57.780  32.774  37.408  1.00 16.65 LIG 0.07  C 
BRANCH 43 44
ATOM     44  CG  TYR C   2      56.744  33.874  37.265  1.00 19.66 LIG-0.06  A 
ATOM     45  CD1 TYR C   2      56.845  35.060  37.919  1.00 23.16 LIG 0.01  A 
ATOM     46  CE1 TYR C   2      55.856  36.084  37.842  1.00 26.66 LIG 0.04  A 
ATOM     47  CZ  TYR C   2      54.748  35.906  37.110  1.00 21.30 LIG 0.07  A 
ATOM     48  CE2 TYR C   2      54.635  34.735  36.446  1.00 23.08 LIG 0.04  A 
ATOM     49  CD2 TYR C   2      55.594  33.702  36.524  1.00 20.76 LIG 0.01  A 
BRANCH 47 50
ATOM     50 OH   TYR C   2      53.757  36.955  37.024  1.00 23.41 LIG-0.36  OA
ATOM     51 HH   TYR C   2      53.426  37.091  37.784  1.00 23.41 LIG 0.22  HD
ENDBRANCH 47 50
ENDBRANCH 43 44
ENDBRANCH 30 43
ENDBRANCH 1 30
TORSDOF 17
ENDMDL
