MODEL 1
USER: ADFR SOLUTION from run 135
USER: SCORE 25.700037 LL:  -6.191 LR: -20.668 RR:   0.000 FEB: -14.404
USER: RMSD 5.977807
USER: SEED 134
USER: STATUS 1 or 2 clusters left
USER: GENES 23
USER: genes 0 Translation |==|  0.63663 0.52781 0.46956
USER: genes 1 Rotation |==|  0.17459 0.49221 0.20532 0.73918
USER: genes 2 Torsion [N]-C--CA-[N] |==|  0.87833
USER: genes 3 Torsion [C]-CA--CB-[CG2] |==|  0.77130
USER: genes 4 Torsion [CA]-CB--CG1-[CD1] |==|  0.53458
USER: genes 5 Torsion [C]-CA--N-[C] |==|  0.67904
USER: genes 6 Torsion [N]-C--CA-[N] |==|  0.15041
USER: genes 7 Torsion [C]-CA--N-[C] |==|  0.77158
USER: genes 8 Torsion [N]-C--CA-[N] |==|  0.37166
USER: genes 9 Torsion [C]-CA--CB-[CG1] |==|  0.12647
USER: genes 10 Torsion [C]-CA--N-[H3] |==|  0.45752
USER: genes 11 Torsion [C]-CA--CB-[CG] |==|  0.38356
USER: genes 12 Torsion [CA]-CB--CG-[CD1] |==|  0.91540
USER: genes 13 Torsion [CE1]-CZ--OH-[HH] |==|  0.31130
USER: genes 14 Torsion [C]-N--CA-[C] |==|  0.65080
USER: genes 15 Torsion [N]-CA--C-[N] |==|  0.12778
USER: genes 16 Torsion [N]-CA--C-[O] |==|  0.28367
USER: genes 17 Torsion [C]-N--CA-[C] |==|  0.83796
USER: genes 18 Torsion [N]-CA--C-[O] |==|  0.49851
USER: genes 19 Torsion [N]-CA--CB-[CG] |==|  0.09120
USER: genes 20 Torsion [CA]-CB--CG-[CD1] |==|  0.73248
USER: genes 21 Torsion [N]-CA--CB-[CG] |==|  0.10415
USER: genes 22 Torsion [CA]-CB--CG-[CD2] |==|  0.78381
ROOT
ATOM      1  C   ILE C   3      56.495  28.402  34.465  1.00 18.73 LIG 0.24  C 
ATOM      2 O    ILE C   3      56.603  28.376  33.249  1.00 16.27 LIG-0.27  OA
ATOM      3  N   HIS C   4      55.340  28.074  35.041  1.00 21.57 LIG-0.35  N 
ATOM      4 H    HIS C   4      55.189  28.044  35.887  1.00 21.57 LIG 0.16  HD
ENDROOT
BRANCH 1 5
ATOM      5  CA  ILE C   3      57.678  28.836  35.347  1.00 14.70 LIG 0.18  C 
BRANCH 5 6
ATOM      6  CB  ILE C   3      58.365  27.648  36.002  1.00 14.24 LIG 0.01  C 
ATOM      7  CG2 ILE C   3      57.622  27.222  37.252  1.00 15.96 LIG 0.01  C 
BRANCH 6 8
ATOM      8  CG1 ILE C   3      58.361  26.446  35.073  1.00 14.06 LIG 0.00  C 
ATOM      9  CD1 ILE C   3      58.752  25.131  35.730  1.00 15.53 LIG 0.01  C 
ENDBRANCH 6 8
ENDBRANCH 5 6
BRANCH 5 10
ATOM     10  N   ILE C   3      57.161  29.745  36.349  1.00 14.80 LIG-0.35  N 
ATOM     11 H    ILE C   3      56.601  29.396  36.902  1.00 14.80 LIG 0.16  HD
ATOM     12  C   TYR C   2      57.549  31.007  36.374  1.00 14.99 LIG 0.24  C 
ATOM     13 O    TYR C   2      58.546  31.395  35.750  1.00 13.53 LIG-0.27  OA
BRANCH 12 14
ATOM     14  CA  TYR C   2      56.769  31.923  37.288  1.00 13.94 LIG 0.18  C 
BRANCH 14 15
ATOM     15  N   TYR C   2      56.685  31.475  38.656  1.00 12.58 LIG-0.35  N 
ATOM     16  C   VAL C   1      55.772  30.576  38.988  1.00 12.16 LIG 0.25  C 
ATOM     17 O    VAL C   1      55.061  30.024  38.119  1.00 12.42 LIG-0.27  OA
ATOM     18 H    TYR C   2      57.251  31.829  39.198  1.00 12.58 LIG 0.16  HD
BRANCH 16 19
ATOM     19  CA  VAL C   1      55.585  30.275  40.500  1.00 12.03 LIG 0.28  C 
BRANCH 19 20
ATOM     20  CB  VAL C   1      56.226  28.924  40.906  1.00 13.82 LIG 0.02  C 
ATOM     21  CG2 VAL C   1      56.279  28.746  42.420  1.00 13.35 LIG 0.01  C 
ATOM     22  CG1 VAL C   1      57.629  28.751  40.325  1.00 14.11 LIG 0.01  C 
ENDBRANCH 19 20
BRANCH 19 23
ATOM     23  N   VAL C   1      54.081  30.276  40.778  1.00 11.80 LIG-0.07  N 
ATOM     24 H3   VAL C   1      53.924  29.895  41.567  1.00 11.80 LIG 0.28  HD
ATOM     25 H1   VAL C   1      53.781  31.114  40.789  1.00 11.80 LIG 0.28  HD
ATOM     26 H2   VAL C   1      53.660  29.820  40.140  1.00 11.80 LIG 0.28  HD
ENDBRANCH 19 23
ENDBRANCH 16 19
ENDBRANCH 14 15
BRANCH 14 27
ATOM     27  CB  TYR C   2      57.297  33.385  37.296  1.00 13.68 LIG 0.07  C 
BRANCH 27 28
ATOM     28  CG  TYR C   2      56.310  34.452  37.281  1.00 14.01 LIG-0.06  A 
ATOM     29  CD1 TYR C   2      55.080  34.315  36.672  1.00 14.17 LIG 0.01  A 
ATOM     30  CE1 TYR C   2      54.204  35.356  36.543  1.00 16.08 LIG 0.04  A 
ATOM     31  CZ  TYR C   2      54.508  36.551  37.122  1.00 18.02 LIG 0.07  A 
ATOM     32  CE2 TYR C   2      55.701  36.734  37.726  1.00 16.42 LIG 0.04  A 
ATOM     33  CD2 TYR C   2      56.620  35.717  37.814  1.00 16.83 LIG 0.01  A 
BRANCH 31 34
ATOM     34 OH   TYR C   2      53.648  37.616  37.043  1.00 21.46 LIG-0.36  OA
ATOM     35 HH   TYR C   2      53.337  37.782  37.805  1.00 21.46 LIG 0.22  HD
ENDBRANCH 31 34
ENDBRANCH 27 28
ENDBRANCH 14 27
ENDBRANCH 12 14
ENDBRANCH 5 10
ENDBRANCH 1 5
BRANCH 3 36
ATOM     36  CA  HIS C   4      54.207  27.729  34.166  1.00 30.85 LIG 0.18  C 
BRANCH 36 37
ATOM     37  C   HIS C   4      52.898  28.604  34.473  1.00 37.69 LIG 0.24  C 
ATOM     38 O    HIS C   4      51.806  28.026  34.641  1.00 34.87 LIG-0.27  OA
ATOM     39  N   PRO C   5      53.022  29.973  34.635  1.00 41.85 LIG-0.34  N 
ATOM     40  CA  PRO C   5      51.762  30.750  34.692  1.00 42.98 LIG 0.18  C 
ATOM     41  CD  PRO C   5      54.141  30.783  35.184  1.00 45.49 LIG 0.13  C 
ATOM     42  CB  PRO C   5      52.222  32.223  34.657  1.00 43.99 LIG 0.04  C 
ATOM     43  CG  PRO C   5      53.729  32.208  34.855  1.00 47.39 LIG 0.02  C 
BRANCH 40 44
ATOM     44  C   PRO C   5      50.845  30.422  33.523  1.00 44.97 LIG 0.24  C 
ATOM     45  N   PHE C   6      51.154  31.035  32.378  1.00 47.34 LIG-0.35  N 
ATOM     46 H    PHE C   6      51.903  31.440  32.254  1.00 47.34 LIG 0.16  HD
ATOM     47 O    PRO C   5      49.876  29.672  33.691  1.00 42.20 LIG-0.27  OA
BRANCH 45 48
ATOM     48  CA  PHE C   6      50.261  31.088  31.209  1.00 47.71 LIG 0.17  C 
BRANCH 48 49
ATOM     49  C   PHE C   6      49.917  29.675  30.749  1.00 43.76 LIG 0.22  C 
ATOM     50 O    PHE C   6      49.161  29.528  29.775  1.00 44.85 LIG-0.29  OA
ENDBRANCH 48 49
BRANCH 48 51
ATOM     51  CB  PHE C   6      50.958  31.844  30.090  1.00 45.10 LIG 0.07  C 
BRANCH 51 52
ATOM     52  CG  PHE C   6      52.427  31.658  30.075  1.00 47.89 LIG-0.06  A 
ATOM     53  CD1 PHE C   6      53.263  32.590  30.677  1.00 50.48 LIG 0.01  A 
ATOM     54  CE1 PHE C   6      54.652  32.419  30.673  1.00 53.80 LIG 0.00  A 
ATOM     55  CZ  PHE C   6      55.213  31.307  30.063  1.00 48.07 LIG 0.00  A 
ATOM     56  CE2 PHE C   6      54.381  30.373  29.463  1.00 44.45 LIG 0.00  A 
ATOM     57  CD2 PHE C   6      52.995  30.555  29.454  1.00 45.95 LIG 0.01  A 
ENDBRANCH 51 52
ENDBRANCH 48 51
ENDBRANCH 45 48
ENDBRANCH 40 44
ENDBRANCH 36 37
BRANCH 36 58
ATOM     58  CB  HIS C   4      53.968  26.211  34.084  1.00 37.41 LIG 0.10  C 
BRANCH 58 59
ATOM     59  CG  HIS C   4      54.208  25.535  35.423  1.00 46.77 LIG 0.06  A 
ATOM     60 ND1  HIS C   4      53.200  25.027  36.213  1.00 46.89 LIG-0.24  NA
ATOM     61  CE1 HIS C   4      53.721  24.385  37.247  1.00 44.31 LIG 0.23  A 
ATOM     62 NE2  HIS C   4      55.033  24.449  37.155  1.00 47.07 LIG-0.25  NA
ATOM     63  CD2 HIS C   4      55.365  25.194  36.049  1.00 43.50 LIG 0.14  A 
ENDBRANCH 58 59
ENDBRANCH 36 58
ENDBRANCH 3 36
TORSDOF 21
ENDMDL
MODEL 2
USER: ADFR SOLUTION from run 180
USER: SCORE 24.889080 LL:  -6.009 LR: -19.661 RR:   0.000 FEB: -13.396
USER: RMSD 5.160535
USER: SEED 179
USER: STATUS no improvement in best in 9 clusters for 5 generations
USER: GENES 23
USER: genes 0 Translation |==|  0.67985 0.53005 0.47039
USER: genes 1 Rotation |==|  0.54687 0.47881 0.56269 0.99338
USER: genes 2 Torsion [N]-C--CA-[N] |==|  0.44750
USER: genes 3 Torsion [C]-CA--CB-[CG2] |==|  0.47391
USER: genes 4 Torsion [CA]-CB--CG1-[CD1] |==|  0.52639
USER: genes 5 Torsion [C]-CA--N-[C] |==|  0.80638
USER: genes 6 Torsion [N]-C--CA-[N] |==|  0.11940
USER: genes 7 Torsion [C]-CA--N-[C] |==|  0.76030
USER: genes 8 Torsion [N]-C--CA-[N] |==|  0.38755
USER: genes 9 Torsion [C]-CA--CB-[CG1] |==|  0.76357
USER: genes 10 Torsion [C]-CA--N-[H3] |==|  0.77219
USER: genes 11 Torsion [C]-CA--CB-[CG] |==|  0.40578
USER: genes 12 Torsion [CA]-CB--CG-[CD1] |==|  0.90174
USER: genes 13 Torsion [CE1]-CZ--OH-[HH] |==|  0.32793
USER: genes 14 Torsion [C]-N--CA-[C] |==|  0.86025
USER: genes 15 Torsion [N]-CA--C-[N] |==|  0.86124
USER: genes 16 Torsion [N]-CA--C-[O] |==|  0.77216
USER: genes 17 Torsion [C]-N--CA-[C] |==|  0.73525
USER: genes 18 Torsion [N]-CA--C-[O] |==|  0.15687
USER: genes 19 Torsion [N]-CA--CB-[CG] |==|  0.53550
USER: genes 20 Torsion [CA]-CB--CG-[CD1] |==|  0.64330
USER: genes 21 Torsion [N]-CA--CB-[CG] |==|  0.56628
USER: genes 22 Torsion [CA]-CB--CG-[CD2] |==|  0.06826
ROOT
ATOM      1  C   ILE C   3      57.273  28.462  34.485  1.00 18.73 LIG 0.24  C 
ATOM      2 O    ILE C   3      56.201  29.042  34.411  1.00 16.27 LIG-0.27  OA
ATOM      3  N   HIS C   4      57.815  27.919  33.397  1.00 21.57 LIG-0.35  N 
ATOM      4 H    HIS C   4      58.574  27.516  33.359  1.00 21.57 LIG 0.16  HD
ENDROOT
BRANCH 1 5
ATOM      5  CA  ILE C   3      58.000  28.329  35.833  1.00 14.70 LIG 0.18  C 
BRANCH 5 6
ATOM      6  CB  ILE C   3      57.822  26.947  36.441  1.00 14.24 LIG 0.01  C 
ATOM      7  CG2 ILE C   3      58.729  26.770  37.643  1.00 15.96 LIG 0.01  C 
BRANCH 6 8
ATOM      8  CG1 ILE C   3      56.401  26.762  36.947  1.00 14.06 LIG 0.00  C 
ATOM      9  CD1 ILE C   3      56.179  25.505  37.774  1.00 15.53 LIG 0.01  C 
ENDBRANCH 6 8
ENDBRANCH 5 6
BRANCH 5 10
ATOM     10  N   ILE C   3      57.469  29.349  36.715  1.00 14.80 LIG-0.35  N 
ATOM     11 H    ILE C   3      56.987  29.053  37.363  1.00 14.80 LIG 0.16  HD
ATOM     12  C   TYR C   2      57.731  30.625  36.498  1.00 14.99 LIG 0.24  C 
ATOM     13 O    TYR C   2      58.637  30.985  35.735  1.00 13.53 LIG-0.27  OA
BRANCH 12 14
ATOM     14  CA  TYR C   2      56.931  31.614  37.315  1.00 13.94 LIG 0.18  C 
BRANCH 14 15
ATOM     15  N   TYR C   2      56.780  31.260  38.705  1.00 12.58 LIG-0.35  N 
ATOM     16  C   VAL C   1      55.786  30.464  39.066  1.00 12.16 LIG 0.25  C 
ATOM     17 O    VAL C   1      55.048  29.923  38.214  1.00 12.42 LIG-0.27  OA
ATOM     18 H    TYR C   2      57.364  31.597  39.239  1.00 12.58 LIG 0.16  HD
BRANCH 16 19
ATOM     19  CA  VAL C   1      55.542  30.274  40.588  1.00 12.03 LIG 0.28  C 
BRANCH 19 20
ATOM     20  CB  VAL C   1      56.180  28.966  41.119  1.00 13.82 LIG 0.02  C 
ATOM     21  CG2 VAL C   1      57.533  28.685  40.475  1.00 13.35 LIG 0.01  C 
ATOM     22  CG1 VAL C   1      55.264  27.756  40.928  1.00 14.11 LIG 0.01  C 
ENDBRANCH 19 20
BRANCH 19 23
ATOM     23  N   VAL C   1      54.028  30.277  40.806  1.00 11.80 LIG-0.07  N 
ATOM     24 H3   VAL C   1      53.734  31.117  40.840  1.00 11.80 LIG 0.28  HD
ATOM     25 H1   VAL C   1      53.630  29.852  40.134  1.00 11.80 LIG 0.28  HD
ATOM     26 H2   VAL C   1      53.837  29.865  41.572  1.00 11.80 LIG 0.28  HD
ENDBRANCH 19 23
ENDBRANCH 16 19
ENDBRANCH 14 15
BRANCH 14 27
ATOM     27  CB  TYR C   2      57.487  33.064  37.250  1.00 13.68 LIG 0.07  C 
BRANCH 27 28
ATOM     28  CG  TYR C   2      56.525  34.151  37.301  1.00 14.01 LIG-0.06  A 
ATOM     29  CD1 TYR C   2      55.279  34.066  36.717  1.00 14.17 LIG 0.01  A 
ATOM     30  CE1 TYR C   2      54.423  35.131  36.650  1.00 16.08 LIG 0.04  A 
ATOM     31  CZ  TYR C   2      54.769  36.294  37.269  1.00 18.02 LIG 0.07  A 
ATOM     32  CE2 TYR C   2      55.980  36.427  37.850  1.00 16.42 LIG 0.04  A 
ATOM     33  CD2 TYR C   2      56.877  35.388  37.875  1.00 16.83 LIG 0.01  A 
BRANCH 31 34
ATOM     34 OH   TYR C   2      53.932  37.380  37.253  1.00 21.46 LIG-0.36  OA
ATOM     35 HH   TYR C   2      53.707  37.572  38.039  1.00 21.46 LIG 0.22  HD
ENDBRANCH 31 34
ENDBRANCH 27 28
ENDBRANCH 14 27
ENDBRANCH 12 14
ENDBRANCH 5 10
ENDBRANCH 1 5
BRANCH 3 36
ATOM     36  CA  HIS C   4      57.061  28.005  32.135  1.00 30.85 LIG 0.18  C 
BRANCH 36 37
ATOM     37  C   HIS C   4      55.540  27.518  32.287  1.00 37.69 LIG 0.24  C 
ATOM     38 O    HIS C   4      54.629  28.205  31.784  1.00 34.87 LIG-0.27  OA
ATOM     39  N   PRO C   5      55.276  26.302  32.893  1.00 41.85 LIG-0.34  N 
ATOM     40  CA  PRO C   5      53.857  26.011  33.204  1.00 42.98 LIG 0.18  C 
ATOM     41  CD  PRO C   5      56.067  25.044  32.917  1.00 45.49 LIG 0.13  C 
ATOM     42  CB  PRO C   5      53.910  24.719  34.048  1.00 43.99 LIG 0.04  C 
ATOM     43  CG  PRO C   5      55.333  24.195  33.943  1.00 47.39 LIG 0.02  C 
BRANCH 40 44
ATOM     44  C   PRO C   5      53.204  27.153  33.970  1.00 44.97 LIG 0.24  C 
ATOM     45  N   PHE C   6      52.526  28.020  33.216  1.00 47.34 LIG-0.35  N 
ATOM     46 H    PHE C   6      52.320  27.862  32.395  1.00 47.34 LIG 0.16  HD
ATOM     47 O    PRO C   5      53.361  27.242  35.194  1.00 42.20 LIG-0.27  OA
BRANCH 45 48
ATOM     48  CA  PHE C   6      52.057  29.330  33.694  1.00 47.71 LIG 0.17  C 
BRANCH 48 49
ATOM     49  C   PHE C   6      50.610  29.228  34.166  1.00 43.76 LIG 0.22  C 
ATOM     50 O    PHE C   6      50.322  28.402  35.048  1.00 44.85 LIG-0.29  OA
ENDBRANCH 48 49
BRANCH 48 51
ATOM     51  CB  PHE C   6      52.161  30.336  32.559  1.00 45.10 LIG 0.07  C 
BRANCH 51 52
ATOM     52  CG  PHE C   6      52.004  31.742  32.996  1.00 47.89 LIG-0.06  A 
ATOM     53  CD1 PHE C   6      51.094  32.580  32.364  1.00 50.48 LIG 0.01  A 
ATOM     54  CE1 PHE C   6      50.935  33.908  32.774  1.00 53.80 LIG 0.00  A 
ATOM     55  CZ  PHE C   6      51.691  34.405  33.826  1.00 48.07 LIG 0.00  A 
ATOM     56  CE2 PHE C   6      52.598  33.570  34.461  1.00 44.45 LIG 0.00  A 
ATOM     57  CD2 PHE C   6      52.767  32.248  34.037  1.00 45.95 LIG 0.01  A 
ENDBRANCH 51 52
ENDBRANCH 48 51
ENDBRANCH 45 48
ENDBRANCH 40 44
ENDBRANCH 36 37
BRANCH 36 58
ATOM     58  CB  HIS C   4      57.825  27.385  30.950  1.00 37.41 LIG 0.10  C 
BRANCH 58 59
ATOM     59  CG  HIS C   4      57.362  27.963  29.624  1.00 46.77 LIG 0.06  A 
ATOM     60 ND1  HIS C   4      57.367  27.257  28.441  1.00 46.89 LIG-0.24  NA
ATOM     61  CE1 HIS C   4      56.789  27.972  27.490  1.00 44.31 LIG 0.23  A 
ATOM     62 NE2  HIS C   4      56.397  29.115  28.012  1.00 47.07 LIG-0.25  NA
ATOM     63  CD2 HIS C   4      56.777  29.154  29.332  1.00 43.50 LIG 0.14  A 
ENDBRANCH 58 59
ENDBRANCH 36 58
ENDBRANCH 3 36
TORSDOF 21
ENDMDL
MODEL 3
USER: ADFR SOLUTION from run 114
USER: SCORE 24.470712 LL:  -5.664 LR: -19.561 RR:   0.000 FEB: -13.297
USER: RMSD 6.129537
USER: SEED 113
USER: STATUS no improvement in best in 2 clusters for 5 generations
USER: GENES 23
USER: genes 0 Translation |==|  0.65543 0.52235 0.46607
USER: genes 1 Rotation |==|  0.22820 0.51080 0.13145 0.70045
USER: genes 2 Torsion [N]-C--CA-[N] |==|  0.87974
USER: genes 3 Torsion [C]-CA--CB-[CG2] |==|  0.51899
USER: genes 4 Torsion [CA]-CB--CG1-[CD1] |==|  0.70930
USER: genes 5 Torsion [C]-CA--N-[C] |==|  0.75474
USER: genes 6 Torsion [N]-C--CA-[N] |==|  0.14002
USER: genes 7 Torsion [C]-CA--N-[C] |==|  0.75957
USER: genes 8 Torsion [N]-C--CA-[N] |==|  0.38609
USER: genes 9 Torsion [C]-CA--CB-[CG1] |==|  0.11778
USER: genes 10 Torsion [C]-CA--N-[H3] |==|  0.10915
USER: genes 11 Torsion [C]-CA--CB-[CG] |==|  0.39163
USER: genes 12 Torsion [CA]-CB--CG-[CD1] |==|  0.38240
USER: genes 13 Torsion [CE1]-CZ--OH-[HH] |==|  0.90934
USER: genes 14 Torsion [C]-N--CA-[C] |==|  0.77475
USER: genes 15 Torsion [N]-CA--C-[N] |==|  0.33333
USER: genes 16 Torsion [N]-CA--C-[O] |==|  0.31219
USER: genes 17 Torsion [C]-N--CA-[C] |==|  0.79518
USER: genes 18 Torsion [N]-CA--C-[O] |==|  0.75662
USER: genes 19 Torsion [N]-CA--CB-[CG] |==|  0.58020
USER: genes 20 Torsion [CA]-CB--CG-[CD1] |==|  0.62976
USER: genes 21 Torsion [N]-CA--CB-[CG] |==|  0.23525
USER: genes 22 Torsion [CA]-CB--CG-[CD2] |==|  0.85803
ROOT
ATOM      1  C   ILE C   3      56.834  28.254  34.384  1.00 18.73 LIG 0.24  C 
ATOM      2 O    ILE C   3      57.275  28.211  33.246  1.00 16.27 LIG-0.27  OA
ATOM      3  N   HIS C   4      55.519  28.257  34.591  1.00 21.57 LIG-0.35  N 
ATOM      4 H    HIS C   4      55.129  28.262  35.358  1.00 21.57 LIG 0.16  HD
ENDROOT
BRANCH 1 5
ATOM      5  CA  ILE C   3      57.785  28.332  35.590  1.00 14.70 LIG 0.18  C 
BRANCH 5 6
ATOM      6  CB  ILE C   3      57.924  26.991  36.292  1.00 14.24 LIG 0.01  C 
ATOM      7  CG2 ILE C   3      58.730  27.135  37.567  1.00 15.96 LIG 0.01  C 
BRANCH 6 8
ATOM      8  CG1 ILE C   3      56.563  26.456  36.705  1.00 14.06 LIG 0.00  C 
ATOM      9  CD1 ILE C   3      56.256  26.576  38.189  1.00 15.53 LIG 0.01  C 
ENDBRANCH 6 8
ENDBRANCH 5 6
BRANCH 5 10
ATOM     10  N   ILE C   3      57.256  29.332  36.496  1.00 14.80 LIG-0.35  N 
ATOM     11 H    ILE C   3      56.725  29.028  37.101  1.00 14.80 LIG 0.16  HD
ATOM     12  C   TYR C   2      57.592  30.602  36.363  1.00 14.99 LIG 0.24  C 
ATOM     13 O    TYR C   2      58.556  30.953  35.669  1.00 13.53 LIG-0.27  OA
BRANCH 12 14
ATOM     14  CA  TYR C   2      56.797  31.587  37.188  1.00 13.94 LIG 0.18  C 
BRANCH 14 15
ATOM     15  N   TYR C   2      56.695  31.253  38.587  1.00 12.58 LIG-0.35  N 
ATOM     16  C   VAL C   1      55.725  30.448  38.991  1.00 12.16 LIG 0.25  C 
ATOM     17 O    VAL C   1      54.969  29.883  38.171  1.00 12.42 LIG-0.27  OA
ATOM     18 H    TYR C   2      57.290  31.607  39.098  1.00 12.58 LIG 0.16  HD
BRANCH 16 19
ATOM     19  CA  VAL C   1      55.531  30.278  40.522  1.00 12.03 LIG 0.28  C 
BRANCH 19 20
ATOM     20  CB  VAL C   1      56.194  28.981  41.051  1.00 13.82 LIG 0.02  C 
ATOM     21  CG2 VAL C   1      56.307  28.973  42.571  1.00 13.35 LIG 0.01  C 
ATOM     22  CG1 VAL C   1      57.574  28.745  40.437  1.00 14.11 LIG 0.01  C 
ENDBRANCH 19 20
BRANCH 19 23
ATOM     23  N   VAL C   1      54.025  30.275  40.790  1.00 11.80 LIG-0.07  N 
ATOM     24 H3   VAL C   1      53.610  29.821  40.147  1.00 11.80 LIG 0.28  HD
ATOM     25 H1   VAL C   1      53.863  29.890  41.575  1.00 11.80 LIG 0.28  HD
ATOM     26 H2   VAL C   1      53.724  31.112  40.803  1.00 11.80 LIG 0.28  HD
ENDBRANCH 19 23
ENDBRANCH 16 19
ENDBRANCH 14 15
BRANCH 14 27
ATOM     27  CB  TYR C   2      57.322  33.047  37.084  1.00 13.68 LIG 0.07  C 
BRANCH 27 28
ATOM     28  CG  TYR C   2      56.333  34.111  37.033  1.00 14.01 LIG-0.06  A 
ATOM     29  CD1 TYR C   2      56.472  35.287  37.738  1.00 14.17 LIG 0.01  A 
ATOM     30  CE1 TYR C   2      55.485  36.232  37.795  1.00 16.08 LIG 0.04  A 
ATOM     31  CZ  TYR C   2      54.360  36.056  37.049  1.00 18.02 LIG 0.07  A 
ATOM     32  CE2 TYR C   2      54.176  34.919  36.345  1.00 16.42 LIG 0.04  A 
ATOM     33  CD2 TYR C   2      55.130  33.932  36.322  1.00 16.83 LIG 0.01  A 
BRANCH 31 34
ATOM     34 OH   TYR C   2      53.355  36.989  37.052  1.00 21.46 LIG-0.36  OA
ATOM     35 HH   TYR C   2      53.313  37.353  37.808  1.00 21.46 LIG 0.22  HD
ENDBRANCH 31 34
ENDBRANCH 27 28
ENDBRANCH 14 27
ENDBRANCH 12 14
ENDBRANCH 5 10
ENDBRANCH 1 5
BRANCH 3 36
ATOM     36  CA  HIS C   4      54.635  28.250  33.413  1.00 30.85 LIG 0.18  C 
BRANCH 36 37
ATOM     37  C   HIS C   4      54.448  29.708  32.771  1.00 37.69 LIG 0.24  C 
ATOM     38 O    HIS C   4      54.036  30.641  33.488  1.00 34.87 LIG-0.27  OA
ATOM     39  N   PRO C   5      54.832  29.923  31.458  1.00 41.85 LIG-0.34  N 
ATOM     40  CA  PRO C   5      54.432  31.216  30.854  1.00 42.98 LIG 0.18  C 
ATOM     41  CD  PRO C   5      55.923  29.307  30.658  1.00 45.49 LIG 0.13  C 
ATOM     42  CB  PRO C   5      54.804  31.069  29.363  1.00 43.99 LIG 0.04  C 
ATOM     43  CG  PRO C   5      55.643  29.807  29.251  1.00 47.39 LIG 0.02  C 
BRANCH 40 44
ATOM     44  C   PRO C   5      52.945  31.485  31.036  1.00 44.97 LIG 0.24  C 
ATOM     45  N   PHE C   6      52.140  30.695  30.322  1.00 47.34 LIG-0.35  N 
ATOM     46 H    PHE C   6      52.416  29.981  29.930  1.00 47.34 LIG 0.16  HD
ATOM     47 O    PRO C   5      52.571  32.409  31.769  1.00 42.20 LIG-0.27  OA
BRANCH 45 48
ATOM     48  CA  PHE C   6      50.704  30.951  30.126  1.00 47.71 LIG 0.17  C 
BRANCH 48 49
ATOM     49  C   PHE C   6      49.937  30.644  31.409  1.00 43.76 LIG 0.22  C 
ATOM     50 O    PHE C   6      49.536  29.486  31.607  1.00 44.85 LIG-0.29  OA
ENDBRANCH 48 49
BRANCH 48 51
ATOM     51  CB  PHE C   6      50.196  30.071  28.995  1.00 45.10 LIG 0.07  C 
BRANCH 51 52
ATOM     52  CG  PHE C   6      49.051  30.655  28.259  1.00 47.89 LIG-0.06  A 
ATOM     53  CD1 PHE C   6      47.931  29.885  27.971  1.00 50.48 LIG 0.01  A 
ATOM     54  CE1 PHE C   6      46.843  30.430  27.281  1.00 53.80 LIG 0.00  A 
ATOM     55  CZ  PHE C   6      46.872  31.756  26.874  1.00 48.07 LIG 0.00  A 
ATOM     56  CE2 PHE C   6      47.987  32.527  27.163  1.00 44.45 LIG 0.00  A 
ATOM     57  CD2 PHE C   6      49.080  31.976  27.838  1.00 45.95 LIG 0.01  A 
ENDBRANCH 51 52
ENDBRANCH 48 51
ENDBRANCH 45 48
ENDBRANCH 40 44
ENDBRANCH 36 37
BRANCH 36 58
ATOM     58  CB  HIS C   4      53.326  27.479  33.664  1.00 37.41 LIG 0.10  C 
BRANCH 58 59
ATOM     59  CG  HIS C   4      52.280  28.357  34.328  1.00 46.77 LIG 0.06  A 
ATOM     60 ND1  HIS C   4      50.960  28.401  33.935  1.00 46.89 LIG-0.24  NA
ATOM     61  CE1 HIS C   4      50.266  29.149  34.778  1.00 44.31 LIG 0.23  A 
ATOM     62 NE2  HIS C   4      51.083  29.586  35.712  1.00 47.07 LIG-0.25  NA
ATOM     63  CD2 HIS C   4      52.353  29.141  35.435  1.00 43.50 LIG 0.14  A 
ENDBRANCH 58 59
ENDBRANCH 36 58
ENDBRANCH 3 36
TORSDOF 21
ENDMDL
MODEL 4
USER: ADFR SOLUTION from run 39
USER: SCORE 24.736478 LL:  -6.172 LR: -19.439 RR:   0.000 FEB: -13.175
USER: RMSD 5.761018
USER: SEED 38
USER: STATUS 1 or 2 clusters left
USER: GENES 23
USER: genes 0 Translation |==|  0.67059 0.52900 0.48888
USER: genes 1 Rotation |==|  0.21904 0.50720 0.14132 0.70581
USER: genes 2 Torsion [N]-C--CA-[N] |==|  0.87290
USER: genes 3 Torsion [C]-CA--CB-[CG2] |==|  0.79635
USER: genes 4 Torsion [CA]-CB--CG1-[CD1] |==|  0.49216
USER: genes 5 Torsion [C]-CA--N-[C] |==|  0.79492
USER: genes 6 Torsion [N]-C--CA-[N] |==|  0.08072
USER: genes 7 Torsion [C]-CA--N-[C] |==|  0.77676
USER: genes 8 Torsion [N]-C--CA-[N] |==|  0.38325
USER: genes 9 Torsion [C]-CA--CB-[CG1] |==|  0.44995
USER: genes 10 Torsion [C]-CA--N-[H3] |==|  0.75223
USER: genes 11 Torsion [C]-CA--CB-[CG] |==|  0.37302
USER: genes 12 Torsion [CA]-CB--CG-[CD1] |==|  0.42616
USER: genes 13 Torsion [CE1]-CZ--OH-[HH] |==|  0.85540
USER: genes 14 Torsion [C]-N--CA-[C] |==|  0.74523
USER: genes 15 Torsion [N]-CA--C-[N] |==|  0.37236
USER: genes 16 Torsion [N]-CA--C-[O] |==|  0.42429
USER: genes 17 Torsion [C]-N--CA-[C] |==|  0.61864
USER: genes 18 Torsion [N]-CA--C-[O] |==|  0.97160
USER: genes 19 Torsion [N]-CA--CB-[CG] |==|  0.83624
USER: genes 20 Torsion [CA]-CB--CG-[CD1] |==|  0.84506
USER: genes 21 Torsion [N]-CA--CB-[CG] |==|  0.89795
USER: genes 22 Torsion [CA]-CB--CG-[CD2] |==|  0.87783
ROOT
ATOM      1  C   ILE C   3      57.107  28.434  34.915  1.00 18.73 LIG 0.24  C 
ATOM      2 O    ILE C   3      57.501  28.393  33.759  1.00 16.27 LIG-0.27  OA
ATOM      3  N   HIS C   4      55.802  28.387  35.177  1.00 21.57 LIG-0.35  N 
ATOM      4 H    HIS C   4      55.446  28.387  35.960  1.00 21.57 LIG 0.16  HD
ENDROOT
BRANCH 1 5
ATOM      5  CA  ILE C   3      58.103  28.566  36.078  1.00 14.70 LIG 0.18  C 
BRANCH 5 6
ATOM      6  CB  ILE C   3      58.281  27.255  36.827  1.00 14.24 LIG 0.01  C 
ATOM      7  CG2 ILE C   3      57.061  26.952  37.673  1.00 15.96 LIG 0.01  C 
BRANCH 6 8
ATOM      8  CG1 ILE C   3      58.425  26.096  35.854  1.00 14.06 LIG 0.00  C 
ATOM      9  CD1 ILE C   3      58.675  24.746  36.506  1.00 15.53 LIG 0.01  C 
ENDBRANCH 6 8
ENDBRANCH 5 6
BRANCH 5 10
ATOM     10  N   ILE C   3      57.602  29.598  36.963  1.00 14.80 LIG-0.35  N 
ATOM     11 H    ILE C   3      57.266  29.311  37.701  1.00 14.80 LIG 0.16  HD
ATOM     12  C   TYR C   2      57.677  30.871  36.619  1.00 14.99 LIG 0.24  C 
ATOM     13 O    TYR C   2      58.405  31.255  35.693  1.00 13.53 LIG-0.27  OA
BRANCH 12 14
ATOM     14  CA  TYR C   2      56.906  31.838  37.488  1.00 13.94 LIG 0.18  C 
BRANCH 14 15
ATOM     15  N   TYR C   2      56.753  31.421  38.860  1.00 12.58 LIG-0.35  N 
ATOM     16  C   VAL C   1      55.814  30.542  39.168  1.00 12.16 LIG 0.25  C 
ATOM     17 O    VAL C   1      55.136  29.981  38.279  1.00 12.42 LIG-0.27  OA
ATOM     18 H    TYR C   2      57.299  31.780  39.420  1.00 12.58 LIG 0.16  HD
BRANCH 16 19
ATOM     19  CA  VAL C   1      55.552  30.276  40.675  1.00 12.03 LIG 0.28  C 
BRANCH 19 20
ATOM     20  CB  VAL C   1      56.243  28.978  41.164  1.00 13.82 LIG 0.02  C 
ATOM     21  CG2 VAL C   1      55.523  27.726  40.676  1.00 13.35 LIG 0.01  C 
ATOM     22  CG1 VAL C   1      56.373  28.929  42.686  1.00 14.11 LIG 0.01  C 
ENDBRANCH 19 20
BRANCH 19 23
ATOM     23  N   VAL C   1      54.037  30.198  40.865  1.00 11.80 LIG-0.07  N 
ATOM     24 H3   VAL C   1      53.715  31.011  41.031  1.00 11.80 LIG 0.28  HD
ATOM     25 H1   VAL C   1      53.661  29.878  40.125  1.00 11.80 LIG 0.28  HD
ATOM     26 H2   VAL C   1      53.850  29.660  41.548  1.00 11.80 LIG 0.28  HD
ENDBRANCH 19 23
ENDBRANCH 16 19
ENDBRANCH 14 15
BRANCH 14 27
ATOM     27  CB  TYR C   2      57.498  33.275  37.489  1.00 13.68 LIG 0.07  C 
BRANCH 27 28
ATOM     28  CG  TYR C   2      56.568  34.381  37.333  1.00 14.01 LIG-0.06  A 
ATOM     29  CD1 TYR C   2      56.826  35.642  37.828  1.00 14.17 LIG 0.01  A 
ATOM     30  CE1 TYR C   2      55.900  36.648  37.798  1.00 16.08 LIG 0.04  A 
ATOM     31  CZ  TYR C   2      54.712  36.432  37.167  1.00 18.02 LIG 0.07  A 
ATOM     32  CE2 TYR C   2      54.413  35.213  36.669  1.00 16.42 LIG 0.04  A 
ATOM     33  CD2 TYR C   2      55.307  34.174  36.743  1.00 16.83 LIG 0.01  A 
BRANCH 31 34
ATOM     34 OH   TYR C   2      53.764  37.419  37.086  1.00 21.46 LIG-0.36  OA
ATOM     35 HH   TYR C   2      53.613  37.726  37.853  1.00 21.46 LIG 0.22  HD
ENDBRANCH 31 34
ENDBRANCH 27 28
ENDBRANCH 14 27
ENDBRANCH 12 14
ENDBRANCH 5 10
ENDBRANCH 1 5
BRANCH 3 36
ATOM     36  CA  HIS C   4      54.871  28.329  34.038  1.00 30.85 LIG 0.18  C 
BRANCH 36 37
ATOM     37  C   HIS C   4      54.386  29.781  33.560  1.00 37.69 LIG 0.24  C 
ATOM     38 O    HIS C   4      54.099  30.639  34.417  1.00 34.87 LIG-0.27  OA
ATOM     39  N   PRO C   5      54.382  30.082  32.208  1.00 41.85 LIG-0.34  N 
ATOM     40  CA  PRO C   5      53.719  31.346  31.813  1.00 42.98 LIG 0.18  C 
ATOM     41  CD  PRO C   5      55.270  29.612  31.112  1.00 45.49 LIG 0.13  C 
ATOM     42  CB  PRO C   5      53.688  31.293  30.270  1.00 43.99 LIG 0.04  C 
ATOM     43  CG  PRO C   5      54.577  30.129  29.862  1.00 47.39 LIG 0.02  C 
BRANCH 40 44
ATOM     44  C   PRO C   5      52.317  31.452  32.396  1.00 44.97 LIG 0.24  C 
ATOM     45  N   PHE C   6      51.700  30.285  32.592  1.00 47.34 LIG-0.35  N 
ATOM     46 H    PHE C   6      52.111  29.529  32.562  1.00 47.34 LIG 0.16  HD
ATOM     47 O    PRO C   5      51.822  32.565  32.612  1.00 42.20 LIG-0.27  OA
BRANCH 45 48
ATOM     48  CA  PHE C   6      50.262  30.155  32.878  1.00 47.71 LIG 0.17  C 
BRANCH 48 49
ATOM     49  C   PHE C   6      50.039  29.125  33.981  1.00 43.76 LIG 0.22  C 
ATOM     50 O    PHE C   6      50.992  28.416  34.343  1.00 44.85 LIG-0.29  OA
ENDBRANCH 48 49
BRANCH 48 51
ATOM     51  CB  PHE C   6      49.544  29.722  31.610  1.00 45.10 LIG 0.07  C 
BRANCH 51 52
ATOM     52  CG  PHE C   6      49.716  30.664  30.481  1.00 47.89 LIG-0.06  A 
ATOM     53  CD1 PHE C   6      49.371  32.002  30.619  1.00 50.48 LIG 0.01  A 
ATOM     54  CE1 PHE C   6      49.535  32.901  29.559  1.00 53.80 LIG 0.00  A 
ATOM     55  CZ  PHE C   6      50.049  32.460  28.349  1.00 48.07 LIG 0.00  A 
ATOM     56  CE2 PHE C   6      50.397  31.124  28.208  1.00 44.45 LIG 0.00  A 
ATOM     57  CD2 PHE C   6      50.216  30.226  29.264  1.00 45.95 LIG 0.01  A 
ENDBRANCH 51 52
ENDBRANCH 48 51
ENDBRANCH 45 48
ENDBRANCH 40 44
ENDBRANCH 36 37
BRANCH 36 58
ATOM     58  CB  HIS C   4      53.741  27.306  34.254  1.00 37.41 LIG 0.10  C 
BRANCH 58 59
ATOM     59  CG  HIS C   4      54.237  26.072  34.988  1.00 46.77 LIG 0.06  A 
ATOM     60 ND1  HIS C   4      53.496  25.399  35.935  1.00 46.89 LIG-0.24  NA
ATOM     61  CE1 HIS C   4      54.131  24.297  36.299  1.00 44.31 LIG 0.23  A 
ATOM     62 NE2  HIS C   4      55.254  24.222  35.617  1.00 47.07 LIG-0.25  NA
ATOM     63  CD2 HIS C   4      55.366  25.336  34.821  1.00 43.50 LIG 0.14  A 
ENDBRANCH 58 59
ENDBRANCH 36 58
ENDBRANCH 3 36
TORSDOF 21
ENDMDL
MODEL 5
USER: ADFR SOLUTION from run 135
USER: SCORE 24.431415 LL:  -6.369 LR: -19.393 RR:   0.000 FEB: -13.129
USER: RMSD 5.444591
USER: SEED 134
USER: STATUS 1 or 2 clusters left
USER: GENES 23
USER: genes 0 Translation |==|  0.67736 0.51948 0.48965
USER: genes 1 Rotation |==|  0.19079 0.48016 0.20327 0.75681
USER: genes 2 Torsion [N]-C--CA-[N] |==|  0.85581
USER: genes 3 Torsion [C]-CA--CB-[CG2] |==|  0.71180
USER: genes 4 Torsion [CA]-CB--CG1-[CD1] |==|  0.55436
USER: genes 5 Torsion [C]-CA--N-[C] |==|  0.74051
USER: genes 6 Torsion [N]-C--CA-[N] |==|  0.09742
USER: genes 7 Torsion [C]-CA--N-[C] |==|  0.75553
USER: genes 8 Torsion [N]-C--CA-[N] |==|  0.38182
USER: genes 9 Torsion [C]-CA--CB-[CG1] |==|  0.37814
USER: genes 10 Torsion [C]-CA--N-[H3] |==|  0.44035
USER: genes 11 Torsion [C]-CA--CB-[CG] |==|  0.39040
USER: genes 12 Torsion [CA]-CB--CG-[CD1] |==|  0.90792
USER: genes 13 Torsion [CE1]-CZ--OH-[HH] |==|  0.32792
USER: genes 14 Torsion [C]-N--CA-[C] |==|  0.62730
USER: genes 15 Torsion [N]-CA--C-[N] |==|  0.17443
USER: genes 16 Torsion [N]-CA--C-[O] |==|  0.33717
USER: genes 17 Torsion [C]-N--CA-[C] |==|  0.71251
USER: genes 18 Torsion [N]-CA--C-[O] |==|  0.70754
USER: genes 19 Torsion [N]-CA--CB-[CG] |==|  0.94415
USER: genes 20 Torsion [CA]-CB--CG-[CD1] |==|  0.78884
USER: genes 21 Torsion [N]-CA--CB-[CG] |==|  0.81016
USER: genes 22 Torsion [CA]-CB--CG-[CD2] |==|  0.80029
ROOT
ATOM      1  C   ILE C   3      57.229  28.177  34.932  1.00 18.73 LIG 0.24  C 
ATOM      2 O    ILE C   3      57.415  28.220  33.726  1.00 16.27 LIG-0.27  OA
ATOM      3  N   HIS C   4      56.066  27.743  35.413  1.00 21.57 LIG-0.35  N 
ATOM      4 H    HIS C   4      55.864  27.659  36.245  1.00 21.57 LIG 0.16  HD
ENDROOT
BRANCH 1 5
ATOM      5  CA  ILE C   3      58.318  28.645  35.910  1.00 14.70 LIG 0.18  C 
BRANCH 5 6
ATOM      6  CB  ILE C   3      58.910  27.488  36.700  1.00 14.24 LIG 0.01  C 
ATOM      7  CG2 ILE C   3      58.369  27.474  38.116  1.00 15.96 LIG 0.01  C 
BRANCH 6 8
ATOM      8  CG1 ILE C   3      58.516  26.158  36.079  1.00 14.06 LIG 0.00  C 
ATOM      9  CD1 ILE C   3      58.641  24.960  37.008  1.00 15.53 LIG 0.01  C 
ENDBRANCH 6 8
ENDBRANCH 5 6
BRANCH 5 10
ATOM     10  N   ILE C   3      57.715  29.616  36.800  1.00 14.80 LIG-0.35  N 
ATOM     11 H    ILE C   3      57.328  29.283  37.492  1.00 14.80 LIG 0.16  HD
ATOM     12  C   TYR C   2      57.780  30.907  36.527  1.00 14.99 LIG 0.24  C 
ATOM     13 O    TYR C   2      58.569  31.357  35.686  1.00 13.53 LIG-0.27  OA
BRANCH 12 14
ATOM     14  CA  TYR C   2      56.910  31.808  37.373  1.00 13.94 LIG 0.18  C 
BRANCH 14 15
ATOM     15  N   TYR C   2      56.768  31.387  38.746  1.00 12.58 LIG-0.35  N 
ATOM     16  C   VAL C   1      55.801  30.542  39.067  1.00 12.16 LIG 0.25  C 
ATOM     17 O    VAL C   1      55.084  30.015  38.188  1.00 12.42 LIG-0.27  OA
ATOM     18 H    TYR C   2      57.339  31.720  39.297  1.00 12.58 LIG 0.16  HD
BRANCH 16 19
ATOM     19  CA  VAL C   1      55.559  30.276  40.577  1.00 12.03 LIG 0.28  C 
BRANCH 19 20
ATOM     20  CB  VAL C   1      56.197  28.942  41.040  1.00 13.82 LIG 0.02  C 
ATOM     21  CG2 VAL C   1      55.171  27.819  41.137  1.00 13.35 LIG 0.01  C 
ATOM     22  CG1 VAL C   1      56.926  29.082  42.377  1.00 14.11 LIG 0.01  C 
ENDBRANCH 19 20
BRANCH 19 23
ATOM     23  N   VAL C   1      54.046  30.269  40.798  1.00 11.80 LIG-0.07  N 
ATOM     24 H3   VAL C   1      53.857  29.826  41.547  1.00 11.80 LIG 0.28  HD
ATOM     25 H1   VAL C   1      53.752  31.106  40.868  1.00 11.80 LIG 0.28  HD
ATOM     26 H2   VAL C   1      53.647  29.871  40.110  1.00 11.80 LIG 0.28  HD
ENDBRANCH 19 23
ENDBRANCH 16 19
ENDBRANCH 14 15
BRANCH 14 27
ATOM     27  CB  TYR C   2      57.374  33.291  37.375  1.00 13.68 LIG 0.07  C 
BRANCH 27 28
ATOM     28  CG  TYR C   2      56.343  34.314  37.334  1.00 14.01 LIG-0.06  A 
ATOM     29  CD1 TYR C   2      55.152  34.139  36.662  1.00 14.17 LIG 0.01  A 
ATOM     30  CE1 TYR C   2      54.237  35.144  36.512  1.00 16.08 LIG 0.04  A 
ATOM     31  CZ  TYR C   2      54.459  36.336  37.131  1.00 18.02 LIG 0.07  A 
ATOM     32  CE2 TYR C   2      55.612  36.556  37.798  1.00 16.42 LIG 0.04  A 
ATOM     33  CD2 TYR C   2      56.570  35.579  37.910  1.00 16.83 LIG 0.01  A 
BRANCH 31 34
ATOM     34 OH   TYR C   2      53.558  37.364  37.033  1.00 21.46 LIG-0.36  OA
ATOM     35 HH   TYR C   2      53.262  37.552  37.797  1.00 21.46 LIG 0.22  HD
ENDBRANCH 31 34
ENDBRANCH 27 28
ENDBRANCH 14 27
ENDBRANCH 12 14
ENDBRANCH 5 10
ENDBRANCH 1 5
BRANCH 3 36
ATOM     36  CA  HIS C   4      55.018  27.366  34.449  1.00 30.85 LIG 0.18  C 
BRANCH 36 37
ATOM     37  C   HIS C   4      53.579  27.961  34.833  1.00 37.69 LIG 0.24  C 
ATOM     38 O    HIS C   4      52.669  27.181  35.173  1.00 34.87 LIG-0.27  OA
ATOM     39  N   PRO C   5      53.402  29.334  34.867  1.00 41.85 LIG-0.34  N 
ATOM     40  CA  PRO C   5      52.010  29.820  35.006  1.00 42.98 LIG 0.18  C 
ATOM     41  CD  PRO C   5      54.354  30.422  35.215  1.00 45.49 LIG 0.13  C 
ATOM     42  CB  PRO C   5      52.116  31.346  34.798  1.00 43.99 LIG 0.04  C 
ATOM     43  CG  PRO C   5      53.599  31.680  34.820  1.00 47.39 LIG 0.02  C 
BRANCH 40 44
ATOM     44  C   PRO C   5      51.085  29.179  33.981  1.00 44.97 LIG 0.24  C 
ATOM     45  N   PHE C   6      51.405  29.421  32.708  1.00 47.34 LIG-0.35  N 
ATOM     46 H    PHE C   6      52.161  29.757  32.473  1.00 47.34 LIG 0.16  HD
ATOM     47 O    PRO C   5      50.102  28.529  34.359  1.00 42.20 LIG-0.27  OA
BRANCH 45 48
ATOM     48  CA  PHE C   6      50.512  29.143  31.572  1.00 47.71 LIG 0.17  C 
BRANCH 48 49
ATOM     49  C   PHE C   6      50.963  27.878  30.848  1.00 43.76 LIG 0.22  C 
ATOM     50 O    PHE C   6      51.539  27.985  29.753  1.00 44.85 LIG-0.29  OA
ENDBRANCH 48 49
BRANCH 48 51
ATOM     51  CB  PHE C   6      50.545  30.326  30.618  1.00 45.10 LIG 0.07  C 
BRANCH 51 52
ATOM     52  CG  PHE C   6      51.031  31.578  31.243  1.00 47.89 LIG-0.06  A 
ATOM     53  CD1 PHE C   6      50.208  32.308  32.092  1.00 50.48 LIG 0.01  A 
ATOM     54  CE1 PHE C   6      50.661  33.488  32.692  1.00 53.80 LIG 0.00  A 
ATOM     55  CZ  PHE C   6      51.947  33.945  32.442  1.00 48.07 LIG 0.00  A 
ATOM     56  CE2 PHE C   6      52.771  33.216  31.597  1.00 44.45 LIG 0.00  A 
ATOM     57  CD2 PHE C   6      52.310  32.047  30.986  1.00 45.95 LIG 0.01  A 
ENDBRANCH 51 52
ENDBRANCH 48 51
ENDBRANCH 45 48
ENDBRANCH 40 44
ENDBRANCH 36 37
BRANCH 36 58
ATOM     58  CB  HIS C   4      55.031  25.861  34.125  1.00 37.41 LIG 0.10  C 
BRANCH 58 59
ATOM     59  CG  HIS C   4      56.271  25.470  33.340  1.00 46.77 LIG 0.06  A 
ATOM     60 ND1  HIS C   4      57.253  24.636  33.830  1.00 46.89 LIG-0.24  NA
ATOM     61  CE1 HIS C   4      58.134  24.374  32.879  1.00 44.31 LIG 0.23  A 
ATOM     62 NE2  HIS C   4      57.758  24.998  31.783  1.00 47.07 LIG-0.25  NA
ATOM     63  CD2 HIS C   4      56.622  25.721  32.052  1.00 43.50 LIG 0.14  A 
ENDBRANCH 58 59
ENDBRANCH 36 58
ENDBRANCH 3 36
TORSDOF 21
ENDMDL
MODEL 6
USER: ADFR SOLUTION from run 191
USER: SCORE 23.945668 LL:  -5.572 LR: -19.318 RR:   0.000 FEB: -13.054
USER: RMSD 5.718052
USER: SEED 190
USER: STATUS no improvement in best in 2 clusters for 5 generations
USER: GENES 23
USER: genes 0 Translation |==|  0.67686 0.49829 0.50094
USER: genes 1 Rotation |==|  0.19807 0.49600 0.15913 0.70648
USER: genes 2 Torsion [N]-C--CA-[N] |==|  0.86292
USER: genes 3 Torsion [C]-CA--CB-[CG2] |==|  0.76634
USER: genes 4 Torsion [CA]-CB--CG1-[CD1] |==|  0.38617
USER: genes 5 Torsion [C]-CA--N-[C] |==|  0.79726
USER: genes 6 Torsion [N]-C--CA-[N] |==|  0.05556
USER: genes 7 Torsion [C]-CA--N-[C] |==|  0.74302
USER: genes 8 Torsion [N]-C--CA-[N] |==|  0.41268
USER: genes 9 Torsion [C]-CA--CB-[CG1] |==|  0.14413
USER: genes 10 Torsion [C]-CA--N-[H3] |==|  0.41529
USER: genes 11 Torsion [C]-CA--CB-[CG] |==|  0.38767
USER: genes 12 Torsion [CA]-CB--CG-[CD1] |==|  0.91916
USER: genes 13 Torsion [CE1]-CZ--OH-[HH] |==|  0.75334
USER: genes 14 Torsion [C]-N--CA-[C] |==|  0.58895
USER: genes 15 Torsion [N]-CA--C-[N] |==|  0.18452
USER: genes 16 Torsion [N]-CA--C-[O] |==|  0.25116
USER: genes 17 Torsion [C]-N--CA-[C] |==|  0.70108
USER: genes 18 Torsion [N]-CA--C-[O] |==|  0.41234
USER: genes 19 Torsion [N]-CA--CB-[CG] |==|  0.36559
USER: genes 20 Torsion [CA]-CB--CG-[CD1] |==|  0.72639
USER: genes 21 Torsion [N]-CA--CB-[CG] |==|  0.47867
USER: genes 22 Torsion [CA]-CB--CG-[CD2] |==|  0.12845
ROOT
ATOM      1  C   ILE C   3      57.219  27.605  35.195  1.00 18.73 LIG 0.24  C 
ATOM      2 O    ILE C   3      57.522  27.509  34.016  1.00 16.27 LIG-0.27  OA
ATOM      3  N   HIS C   4      55.946  27.504  35.568  1.00 21.57 LIG-0.35  N 
ATOM      4 H    HIS C   4      55.653  27.536  36.376  1.00 21.57 LIG 0.16  HD
ENDROOT
BRANCH 1 5
ATOM      5  CA  ILE C   3      58.296  27.869  36.260  1.00 14.70 LIG 0.18  C 
BRANCH 5 6
ATOM      6  CB  ILE C   3      58.549  26.646  37.129  1.00 14.24 LIG 0.01  C 
ATOM      7  CG2 ILE C   3      57.541  26.574  38.259  1.00 15.96 LIG 0.01  C 
BRANCH 6 8
ATOM      8  CG1 ILE C   3      58.377  25.370  36.322  1.00 14.06 LIG 0.00  C 
ATOM      9  CD1 ILE C   3      59.412  24.293  36.607  1.00 15.53 LIG 0.01  C 
ENDBRANCH 6 8
ENDBRANCH 5 6
BRANCH 5 10
ATOM     10  N   ILE C   3      57.844  28.984  37.067  1.00 14.80 LIG-0.35  N 
ATOM     11 H    ILE C   3      57.578  28.777  37.858  1.00 14.80 LIG 0.16  HD
ATOM     12  C   TYR C   2      57.858  30.212  36.579  1.00 14.99 LIG 0.24  C 
ATOM     13 O    TYR C   2      58.496  30.502  35.558  1.00 13.53 LIG-0.27  OA
BRANCH 12 14
ATOM     14  CA  TYR C   2      57.137  31.258  37.399  1.00 13.94 LIG 0.18  C 
BRANCH 14 15
ATOM     15  N   TYR C   2      56.929  30.899  38.780  1.00 12.58 LIG-0.35  N 
ATOM     16  C   VAL C   1      55.801  30.302  39.131  1.00 12.16 LIG 0.25  C 
ATOM     17 O    VAL C   1      54.966  29.941  38.273  1.00 12.42 LIG-0.27  OA
ATOM     18 H    TYR C   2      57.571  31.100  39.316  1.00 12.58 LIG 0.16  HD
BRANCH 16 19
ATOM     19  CA  VAL C   1      55.535  30.119  40.649  1.00 12.03 LIG 0.28  C 
BRANCH 19 20
ATOM     20  CB  VAL C   1      56.112  28.783  41.183  1.00 13.82 LIG 0.02  C 
ATOM     21  CG2 VAL C   1      55.948  28.649  42.692  1.00 13.35 LIG 0.01  C 
ATOM     22  CG1 VAL C   1      57.584  28.600  40.813  1.00 14.11 LIG 0.01  C 
ENDBRANCH 19 20
BRANCH 19 23
ATOM     23  N   VAL C   1      54.020  30.184  40.854  1.00 11.80 LIG-0.07  N 
ATOM     24 H3   VAL C   1      53.791  29.677  41.548  1.00 11.80 LIG 0.28  HD
ATOM     25 H1   VAL C   1      53.778  31.026  41.010  1.00 11.80 LIG 0.28  HD
ATOM     26 H2   VAL C   1      53.608  29.889  40.122  1.00 11.80 LIG 0.28  HD
ENDBRANCH 19 23
ENDBRANCH 16 19
ENDBRANCH 14 15
BRANCH 14 27
ATOM     27  CB  TYR C   2      57.826  32.651  37.366  1.00 13.68 LIG 0.07  C 
BRANCH 27 28
ATOM     28  CG  TYR C   2      56.966  33.819  37.272  1.00 14.01 LIG-0.06  A 
ATOM     29  CD1 TYR C   2      55.736  33.786  36.649  1.00 14.17 LIG 0.01  A 
ATOM     30  CE1 TYR C   2      54.985  34.910  36.445  1.00 16.08 LIG 0.04  A 
ATOM     31  CZ  TYR C   2      55.416  36.094  36.960  1.00 18.02 LIG 0.07  A 
ATOM     32  CE2 TYR C   2      56.614  36.177  37.575  1.00 16.42 LIG 0.04  A 
ATOM     33  CD2 TYR C   2      57.411  35.071  37.738  1.00 16.83 LIG 0.01  A 
BRANCH 31 34
ATOM     34 OH   TYR C   2      54.682  37.243  36.805  1.00 21.46 LIG-0.36  OA
ATOM     35 HH   TYR C   2      54.905  37.623  36.090  1.00 21.46 LIG 0.22  HD
ENDBRANCH 31 34
ENDBRANCH 27 28
ENDBRANCH 14 27
ENDBRANCH 12 14
ENDBRANCH 5 10
ENDBRANCH 1 5
BRANCH 3 36
ATOM     36  CA  HIS C   4      54.931  27.319  34.516  1.00 30.85 LIG 0.18  C 
BRANCH 36 37
ATOM     37  C   HIS C   4      53.525  27.995  34.886  1.00 37.69 LIG 0.24  C 
ATOM     38 O    HIS C   4      52.552  27.265  35.160  1.00 34.87 LIG-0.27  OA
ATOM     39  N   PRO C   5      53.441  29.374  34.983  1.00 41.85 LIG-0.34  N 
ATOM     40  CA  PRO C   5      52.081  29.948  35.105  1.00 42.98 LIG 0.18  C 
ATOM     41  CD  PRO C   5      54.453  30.374  35.412  1.00 45.49 LIG 0.13  C 
ATOM     42  CB  PRO C   5      52.298  31.471  34.975  1.00 43.99 LIG 0.04  C 
ATOM     43  CG  PRO C   5      53.799  31.700  35.058  1.00 47.39 LIG 0.02  C 
BRANCH 40 44
ATOM     44  C   PRO C   5      51.149  29.422  34.022  1.00 44.97 LIG 0.24  C 
ATOM     45  N   PHE C   6      51.099  30.165  32.915  1.00 47.34 LIG-0.35  N 
ATOM     46 H    PHE C   6      51.669  30.787  32.745  1.00 47.34 LIG 0.16  HD
ATOM     47 O    PRO C   5      50.480  28.401  34.227  1.00 42.20 LIG-0.27  OA
BRANCH 45 48
ATOM     48  CA  PHE C   6      50.077  30.008  31.868  1.00 47.71 LIG 0.17  C 
BRANCH 48 49
ATOM     49  C   PHE C   6      50.692  29.369  30.626  1.00 43.76 LIG 0.22  C 
ATOM     50 O    PHE C   6      49.986  28.638  29.913  1.00 44.85 LIG-0.29  OA
ENDBRANCH 48 49
BRANCH 48 51
ATOM     51  CB  PHE C   6      49.512  31.376  31.521  1.00 45.10 LIG 0.07  C 
BRANCH 51 52
ATOM     52  CG  PHE C   6      49.457  31.643  30.065  1.00 47.89 LIG-0.06  A 
ATOM     53  CD1 PHE C   6      50.452  32.391  29.447  1.00 50.48 LIG 0.01  A 
ATOM     54  CE1 PHE C   6      50.412  32.642  28.071  1.00 53.80 LIG 0.00  A 
ATOM     55  CZ  PHE C   6      49.369  32.143  27.304  1.00 48.07 LIG 0.00  A 
ATOM     56  CE2 PHE C   6      48.377  31.394  27.918  1.00 44.45 LIG 0.00  A 
ATOM     57  CD2 PHE C   6      48.410  31.158  29.296  1.00 45.95 LIG 0.01  A 
ENDBRANCH 51 52
ENDBRANCH 48 51
ENDBRANCH 45 48
ENDBRANCH 40 44
ENDBRANCH 36 37
BRANCH 36 58
ATOM     58  CB  HIS C   4      54.843  25.860  34.034  1.00 37.41 LIG 0.10  C 
BRANCH 58 59
ATOM     59  CG  HIS C   4      53.670  25.654  33.091  1.00 46.77 LIG 0.06  A 
ATOM     60 ND1  HIS C   4      52.717  24.674  33.261  1.00 46.89 LIG-0.24  NA
ATOM     61  CE1 HIS C   4      51.755  24.823  32.365  1.00 44.31 LIG 0.23  A 
ATOM     62 NE2  HIS C   4      52.042  25.872  31.622  1.00 47.07 LIG-0.25  NA
ATOM     63  CD2 HIS C   4      53.250  26.386  32.026  1.00 43.50 LIG 0.14  A 
ENDBRANCH 58 59
ENDBRANCH 36 58
ENDBRANCH 3 36
TORSDOF 21
ENDMDL
MODEL 7
USER: ADFR SOLUTION from run 114
USER: SCORE 25.208399 LL:  -6.666 LR: -19.259 RR:   0.000 FEB: -12.995
USER: RMSD 5.333029
USER: SEED 113
USER: STATUS no improvement in best in 2 clusters for 5 generations
USER: GENES 23
USER: genes 0 Translation |==|  0.65263 0.52082 0.46459
USER: genes 1 Rotation |==|  0.23126 0.51154 0.12963 0.70118
USER: genes 2 Torsion [N]-C--CA-[N] |==|  0.87818
USER: genes 3 Torsion [C]-CA--CB-[CG2] |==|  0.51720
USER: genes 4 Torsion [CA]-CB--CG1-[CD1] |==|  0.70951
USER: genes 5 Torsion [C]-CA--N-[C] |==|  0.75160
USER: genes 6 Torsion [N]-C--CA-[N] |==|  0.14690
USER: genes 7 Torsion [C]-CA--N-[C] |==|  0.75910
USER: genes 8 Torsion [N]-C--CA-[N] |==|  0.38648
USER: genes 9 Torsion [C]-CA--CB-[CG1] |==|  0.11854
USER: genes 10 Torsion [C]-CA--N-[H3] |==|  0.10879
USER: genes 11 Torsion [C]-CA--CB-[CG] |==|  0.39443
USER: genes 12 Torsion [CA]-CB--CG-[CD1] |==|  0.37717
USER: genes 13 Torsion [CE1]-CZ--OH-[HH] |==|  0.91290
USER: genes 14 Torsion [C]-N--CA-[C] |==|  0.78069
USER: genes 15 Torsion [N]-CA--C-[N] |==|  0.34141
USER: genes 16 Torsion [N]-CA--C-[O] |==|  0.38462
USER: genes 17 Torsion [C]-N--CA-[C] |==|  0.17188
USER: genes 18 Torsion [N]-CA--C-[O] |==|  0.62160
USER: genes 19 Torsion [N]-CA--CB-[CG] |==|  0.85567
USER: genes 20 Torsion [CA]-CB--CG-[CD1] |==|  0.30296
USER: genes 21 Torsion [N]-CA--CB-[CG] |==|  0.88244
USER: genes 22 Torsion [CA]-CB--CG-[CD2] |==|  0.83200
ROOT
ATOM      1  C   ILE C   3      56.783  28.213  34.350  1.00 18.73 LIG 0.24  C 
ATOM      2 O    ILE C   3      57.238  28.178  33.217  1.00 16.27 LIG-0.27  OA
ATOM      3  N   HIS C   4      55.466  28.217  34.541  1.00 21.57 LIG-0.35  N 
ATOM      4 H    HIS C   4      55.067  28.217  35.303  1.00 21.57 LIG 0.16  HD
ENDROOT
BRANCH 1 5
ATOM      5  CA  ILE C   3      57.720  28.278  35.567  1.00 14.70 LIG 0.18  C 
BRANCH 5 6
ATOM      6  CB  ILE C   3      57.837  26.934  36.267  1.00 14.24 LIG 0.01  C 
ATOM      7  CG2 ILE C   3      58.642  27.063  37.545  1.00 15.96 LIG 0.01  C 
BRANCH 6 8
ATOM      8  CG1 ILE C   3      56.467  26.420  36.676  1.00 14.06 LIG 0.00  C 
ATOM      9  CD1 ILE C   3      56.157  26.543  38.160  1.00 15.53 LIG 0.01  C 
ENDBRANCH 6 8
ENDBRANCH 5 6
BRANCH 5 10
ATOM     10  N   ILE C   3      57.190  29.281  36.469  1.00 14.80 LIG-0.35  N 
ATOM     11 H    ILE C   3      56.637  28.984  37.057  1.00 14.80 LIG 0.16  HD
ATOM     12  C   TYR C   2      57.559  30.544  36.357  1.00 14.99 LIG 0.24  C 
ATOM     13 O    TYR C   2      58.548  30.879  35.693  1.00 13.53 LIG-0.27  OA
BRANCH 12 14
ATOM     14  CA  TYR C   2      56.765  31.540  37.172  1.00 13.94 LIG 0.18  C 
BRANCH 14 15
ATOM     15  N   TYR C   2      56.666  31.223  38.576  1.00 12.58 LIG-0.35  N 
ATOM     16  C   VAL C   1      55.696  30.426  38.993  1.00 12.16 LIG 0.25  C 
ATOM     17 O    VAL C   1      54.936  29.852  38.182  1.00 12.42 LIG-0.27  OA
ATOM     18 H    TYR C   2      57.263  31.583  39.080  1.00 12.58 LIG 0.16  HD
BRANCH 16 19
ATOM     19  CA  VAL C   1      55.506  30.276  40.526  1.00 12.03 LIG 0.28  C 
BRANCH 19 20
ATOM     20  CB  VAL C   1      56.171  28.986  41.070  1.00 13.82 LIG 0.02  C 
ATOM     21  CG2 VAL C   1      56.282  28.995  42.590  1.00 13.35 LIG 0.01  C 
ATOM     22  CG1 VAL C   1      57.552  28.746  40.460  1.00 14.11 LIG 0.01  C 
ENDBRANCH 19 20
BRANCH 19 23
ATOM     23  N   VAL C   1      54.001  30.276  40.798  1.00 11.80 LIG-0.07  N 
ATOM     24 H3   VAL C   1      53.584  29.815  40.161  1.00 11.80 LIG 0.28  HD
ATOM     25 H1   VAL C   1      53.842  29.900  41.588  1.00 11.80 LIG 0.28  HD
ATOM     26 H2   VAL C   1      53.700  31.113  40.803  1.00 11.80 LIG 0.28  HD
ENDBRANCH 19 23
ENDBRANCH 16 19
ENDBRANCH 14 15
BRANCH 14 27
ATOM     27  CB  TYR C   2      57.288  32.998  37.047  1.00 13.68 LIG 0.07  C 
BRANCH 27 28
ATOM     28  CG  TYR C   2      56.299  34.062  37.007  1.00 14.01 LIG-0.06  A 
ATOM     29  CD1 TYR C   2      56.434  35.227  37.731  1.00 14.17 LIG 0.01  A 
ATOM     30  CE1 TYR C   2      55.447  36.171  37.798  1.00 16.08 LIG 0.04  A 
ATOM     31  CZ  TYR C   2      54.325  36.006  37.043  1.00 18.02 LIG 0.07  A 
ATOM     32  CE2 TYR C   2      54.146  34.880  36.321  1.00 16.42 LIG 0.04  A 
ATOM     33  CD2 TYR C   2      55.100  33.894  36.288  1.00 16.83 LIG 0.01  A 
BRANCH 31 34
ATOM     34 OH   TYR C   2      53.320  36.939  37.055  1.00 21.46 LIG-0.36  OA
ATOM     35 HH   TYR C   2      53.285  37.304  37.811  1.00 21.46 LIG 0.22  HD
ENDBRANCH 31 34
ENDBRANCH 27 28
ENDBRANCH 14 27
ENDBRANCH 12 14
ENDBRANCH 5 10
ENDBRANCH 1 5
BRANCH 3 36
ATOM     36  CA  HIS C   4      54.596  28.223  33.353  1.00 30.85 LIG 0.18  C 
BRANCH 36 37
ATOM     37  C   HIS C   4      54.464  29.677  32.688  1.00 37.69 LIG 0.24  C 
ATOM     38 O    HIS C   4      54.128  30.643  33.401  1.00 34.87 LIG-0.27  OA
ATOM     39  N   PRO C   5      54.813  29.848  31.359  1.00 41.85 LIG-0.34  N 
ATOM     40  CA  PRO C   5      54.462  31.149  30.744  1.00 42.98 LIG 0.18  C 
ATOM     41  CD  PRO C   5      55.842  29.160  30.536  1.00 45.49 LIG 0.13  C 
ATOM     42  CB  PRO C   5      54.774  30.956  29.244  1.00 43.99 LIG 0.04  C 
ATOM     43  CG  PRO C   5      55.540  29.649  29.129  1.00 47.39 LIG 0.02  C 
BRANCH 40 44
ATOM     44  C   PRO C   5      52.998  31.501  30.970  1.00 44.97 LIG 0.24  C 
ATOM     45  N   PHE C   6      52.143  30.493  30.786  1.00 47.34 LIG-0.35  N 
ATOM     46 H    PHE C   6      52.396  29.673  30.719  1.00 47.34 LIG 0.16  HD
ATOM     47 O    PRO C   5      52.682  32.661  31.260  1.00 42.20 LIG-0.27  OA
BRANCH 45 48
ATOM     48  CA  PHE C   6      50.686  30.665  30.676  1.00 47.71 LIG 0.17  C 
BRANCH 48 49
ATOM     49  C   PHE C   6      50.350  31.529  29.464  1.00 43.76 LIG 0.22  C 
ATOM     50 O    PHE C   6      49.494  32.421  29.581  1.00 44.85 LIG-0.29  OA
ENDBRANCH 48 49
BRANCH 48 51
ATOM     51  CB  PHE C   6      50.171  31.327  31.944  1.00 45.10 LIG 0.07  C 
BRANCH 51 52
ATOM     52  CG  PHE C   6      50.602  30.645  33.186  1.00 47.89 LIG-0.06  A 
ATOM     53  CD1 PHE C   6      51.538  31.235  34.026  1.00 50.48 LIG 0.01  A 
ATOM     54  CE1 PHE C   6      51.946  30.600  35.205  1.00 53.80 LIG 0.00  A 
ATOM     55  CZ  PHE C   6      51.416  29.365  35.548  1.00 48.07 LIG 0.00  A 
ATOM     56  CE2 PHE C   6      50.479  28.776  34.712  1.00 44.45 LIG 0.00  A 
ATOM     57  CD2 PHE C   6      50.086  29.404  33.527  1.00 45.95 LIG 0.01  A 
ENDBRANCH 51 52
ENDBRANCH 48 51
ENDBRANCH 45 48
ENDBRANCH 40 44
ENDBRANCH 36 37
BRANCH 36 58
ATOM     58  CB  HIS C   4      53.260  27.499  33.598  1.00 37.41 LIG 0.10  C 
BRANCH 58 59
ATOM     59  CG  HIS C   4      53.458  26.211  34.379  1.00 46.77 LIG 0.06  A 
ATOM     60 ND1  HIS C   4      52.791  25.917  35.548  1.00 46.89 LIG-0.24  NA
ATOM     61  CE1 HIS C   4      53.069  24.679  35.923  1.00 44.31 LIG 0.23  A 
ATOM     62 NE2  HIS C   4      53.884  24.151  35.035  1.00 47.07 LIG-0.25  NA
ATOM     63  CD2 HIS C   4      54.176  25.096  34.082  1.00 43.50 LIG 0.14  A 
ENDBRANCH 58 59
ENDBRANCH 36 58
ENDBRANCH 3 36
TORSDOF 21
ENDMDL
MODEL 8
USER: ADFR SOLUTION from run 55
USER: SCORE 25.611974 LL:  -6.695 LR: -19.188 RR:   0.000 FEB: -12.924
USER: RMSD 4.114941
USER: SEED 54
USER: STATUS no improvement in best in 2 clusters for 5 generations
USER: GENES 23
USER: genes 0 Translation |==|  0.68671 0.49846 0.50027
USER: genes 1 Rotation |==|  0.56947 0.57091 0.69648 0.94893
USER: genes 2 Torsion [N]-C--CA-[N] |==|  0.38898
USER: genes 3 Torsion [C]-CA--CB-[CG2] |==|  0.60799
USER: genes 4 Torsion [CA]-CB--CG1-[CD1] |==|  0.45620
USER: genes 5 Torsion [C]-CA--N-[C] |==|  0.77485
USER: genes 6 Torsion [N]-C--CA-[N] |==|  0.06111
USER: genes 7 Torsion [C]-CA--N-[C] |==|  0.73046
USER: genes 8 Torsion [N]-C--CA-[N] |==|  0.36029
USER: genes 9 Torsion [C]-CA--CB-[CG1] |==|  0.04464
USER: genes 10 Torsion [C]-CA--N-[H3] |==|  0.51132
USER: genes 11 Torsion [C]-CA--CB-[CG] |==|  0.35122
USER: genes 12 Torsion [CA]-CB--CG-[CD1] |==|  0.95394
USER: genes 13 Torsion [CE1]-CZ--OH-[HH] |==|  0.68716
USER: genes 14 Torsion [C]-N--CA-[C] |==|  0.77121
USER: genes 15 Torsion [N]-CA--C-[N] |==|  0.94904
USER: genes 16 Torsion [N]-CA--C-[O] |==|  0.40077
USER: genes 17 Torsion [C]-N--CA-[C] |==|  0.75519
USER: genes 18 Torsion [N]-CA--C-[O] |==|  0.84006
USER: genes 19 Torsion [N]-CA--CB-[CG] |==|  0.74572
USER: genes 20 Torsion [CA]-CB--CG-[CD1] |==|  0.53428
USER: genes 21 Torsion [N]-CA--CB-[CG] |==|  0.72191
USER: genes 22 Torsion [CA]-CB--CG-[CD2] |==|  0.95468
ROOT
ATOM      1  C   ILE C   3      57.397  27.609  35.179  1.00 18.73 LIG 0.24  C 
ATOM      2 O    ILE C   3      56.223  27.482  35.492  1.00 16.27 LIG-0.27  OA
ATOM      3  N   HIS C   4      57.779  27.400  33.921  1.00 21.57 LIG-0.35  N 
ATOM      4 H    HIS C   4      58.577  27.491  33.615  1.00 21.57 LIG 0.16  HD
ENDROOT
BRANCH 1 5
ATOM      5  CA  ILE C   3      58.452  27.986  36.232  1.00 14.70 LIG 0.18  C 
BRANCH 5 6
ATOM      6  CB  ILE C   3      58.896  26.782  37.048  1.00 14.24 LIG 0.01  C 
ATOM      7  CG2 ILE C   3      59.093  27.163  38.502  1.00 15.96 LIG 0.01  C 
BRANCH 6 8
ATOM      8  CG1 ILE C   3      57.831  25.699  37.031  1.00 14.06 LIG 0.00  C 
ATOM      9  CD1 ILE C   3      58.308  24.329  37.486  1.00 15.53 LIG 0.01  C 
ENDBRANCH 6 8
ENDBRANCH 5 6
BRANCH 5 10
ATOM     10  N   ILE C   3      57.867  28.998  37.089  1.00 14.80 LIG-0.35  N 
ATOM     11 H    ILE C   3      57.554  28.705  37.835  1.00 14.80 LIG 0.16  HD
ATOM     12  C   TYR C   2      57.840  30.262  36.711  1.00 14.99 LIG 0.24  C 
ATOM     13 O    TYR C   2      58.536  30.678  35.774  1.00 13.53 LIG-0.27  OA
BRANCH 12 14
ATOM     14  CA  TYR C   2      56.992  31.188  37.552  1.00 13.94 LIG 0.18  C 
BRANCH 14 15
ATOM     15  N   TYR C   2      56.738  30.716  38.891  1.00 12.58 LIG-0.35  N 
ATOM     16  C   VAL C   1      55.602  30.088  39.152  1.00 12.16 LIG 0.25  C 
ATOM     17 O    VAL C   1      54.801  29.795  38.238  1.00 12.42 LIG-0.27  OA
ATOM     18 H    TYR C   2      57.359  30.875  39.465  1.00 12.58 LIG 0.16  HD
BRANCH 16 19
ATOM     19  CA  VAL C   1      55.284  29.780  40.640  1.00 12.03 LIG 0.28  C 
BRANCH 19 20
ATOM     20  CB  VAL C   1      55.418  28.270  40.961  1.00 13.82 LIG 0.02  C 
ATOM     21  CG2 VAL C   1      56.070  28.028  42.318  1.00 13.35 LIG 0.01  C 
ATOM     22  CG1 VAL C   1      56.194  27.515  39.882  1.00 14.11 LIG 0.01  C 
ENDBRANCH 19 20
BRANCH 19 23
ATOM     23  N   VAL C   1      53.862  30.276  40.910  1.00 11.80 LIG-0.07  N 
ATOM     24 H3   VAL C   1      53.668  30.168  41.772  1.00 11.80 LIG 0.28  HD
ATOM     25 H1   VAL C   1      53.804  31.139  40.700  1.00 11.80 LIG 0.28  HD
ATOM     26 H2   VAL C   1      53.286  29.812  40.415  1.00 11.80 LIG 0.28  HD
ENDBRANCH 19 23
ENDBRANCH 16 19
ENDBRANCH 14 15
BRANCH 14 27
ATOM     27  CB  TYR C   2      57.564  32.630  37.655  1.00 13.68 LIG 0.07  C 
BRANCH 27 28
ATOM     28  CG  TYR C   2      56.680  33.726  37.297  1.00 14.01 LIG-0.06  A 
ATOM     29  CD1 TYR C   2      55.520  33.539  36.576  1.00 14.17 LIG 0.01  A 
ATOM     30  CE1 TYR C   2      54.756  34.580  36.128  1.00 16.08 LIG 0.04  A 
ATOM     31  CZ  TYR C   2      55.094  35.849  36.488  1.00 18.02 LIG 0.07  A 
ATOM     32  CE2 TYR C   2      56.223  36.083  37.190  1.00 16.42 LIG 0.04  A 
ATOM     33  CD2 TYR C   2      57.035  35.055  37.599  1.00 16.83 LIG 0.01  A 
BRANCH 31 34
ATOM     34 OH   TYR C   2      54.343  36.923  36.086  1.00 21.46 LIG-0.36  OA
ATOM     35 HH   TYR C   2      54.788  37.392  35.549  1.00 21.46 LIG 0.22  HD
ENDBRANCH 31 34
ENDBRANCH 27 28
ENDBRANCH 14 27
ENDBRANCH 12 14
ENDBRANCH 5 10
ENDBRANCH 1 5
BRANCH 3 36
ATOM     36  CA  HIS C   4      56.756  26.975  32.951  1.00 30.85 LIG 0.18  C 
BRANCH 36 37
ATOM     37  C   HIS C   4      56.470  25.397  33.004  1.00 37.69 LIG 0.24  C 
ATOM     38 O    HIS C   4      55.458  24.943  32.435  1.00 34.87 LIG-0.27  OA
ATOM     39  N   PRO C   5      57.399  24.561  33.599  1.00 41.85 LIG-0.34  N 
ATOM     40  CA  PRO C   5      56.983  23.156  33.816  1.00 42.98 LIG 0.18  C 
ATOM     41  CD  PRO C   5      58.879  24.669  33.686  1.00 45.49 LIG 0.13  C 
ATOM     42  CB  PRO C   5      58.117  22.550  34.670  1.00 43.99 LIG 0.04  C 
ATOM     43  CG  PRO C   5      59.248  23.567  34.666  1.00 47.39 LIG 0.02  C 
BRANCH 40 44
ATOM     44  C   PRO C   5      55.640  23.070  34.528  1.00 44.97 LIG 0.24  C 
ATOM     45  N   PHE C   6      55.447  23.991  35.475  1.00 47.34 LIG-0.35  N 
ATOM     46 H    PHE C   6      55.952  24.682  35.563  1.00 47.34 LIG 0.16  HD
ATOM     47 O    PRO C   5      54.845  22.168  34.237  1.00 42.20 LIG-0.27  OA
BRANCH 45 48
ATOM     48  CA  PHE C   6      54.362  23.930  36.467  1.00 47.71 LIG 0.17  C 
BRANCH 48 49
ATOM     49  C   PHE C   6      53.109  24.604  35.915  1.00 43.76 LIG 0.22  C 
ATOM     50 O    PHE C   6      53.175  25.790  35.552  1.00 44.85 LIG-0.29  OA
ENDBRANCH 48 49
BRANCH 48 51
ATOM     51  CB  PHE C   6      54.814  24.637  37.736  1.00 45.10 LIG 0.07  C 
BRANCH 51 52
ATOM     52  CG  PHE C   6      55.456  23.735  38.719  1.00 47.89 LIG-0.06  A 
ATOM     53  CD1 PHE C   6      55.692  24.163  40.020  1.00 50.48 LIG 0.01  A 
ATOM     54  CE1 PHE C   6      56.292  23.316  40.958  1.00 53.80 LIG 0.00  A 
ATOM     55  CZ  PHE C   6      56.661  22.028  40.594  1.00 48.07 LIG 0.00  A 
ATOM     56  CE2 PHE C   6      56.424  21.598  39.297  1.00 44.45 LIG 0.00  A 
ATOM     57  CD2 PHE C   6      55.840  22.452  38.358  1.00 45.95 LIG 0.01  A 
ENDBRANCH 51 52
ENDBRANCH 48 51
ENDBRANCH 45 48
ENDBRANCH 40 44
ENDBRANCH 36 37
BRANCH 36 58
ATOM     58  CB  HIS C   4      57.008  27.542  31.543  1.00 37.41 LIG 0.10  C 
BRANCH 58 59
ATOM     59  CG  HIS C   4      56.134  28.752  31.263  1.00 46.77 LIG 0.06  A 
ATOM     60 ND1  HIS C   4      56.294  29.572  30.167  1.00 46.89 LIG-0.24  NA
ATOM     61  CE1 HIS C   4      55.310  30.455  30.121  1.00 44.31 LIG 0.23  A 
ATOM     62 NE2  HIS C   4      54.508  30.235  31.141  1.00 47.07 LIG-0.25  NA
ATOM     63  CD2 HIS C   4      55.018  29.204  31.893  1.00 43.50 LIG 0.14  A 
ENDBRANCH 58 59
ENDBRANCH 36 58
ENDBRANCH 3 36
TORSDOF 21
ENDMDL
MODEL 9
USER: ADFR SOLUTION from run 163
USER: SCORE 24.430600 LL:  -6.566 LR: -19.135 RR:   0.000 FEB: -12.871
USER: RMSD 6.188505
USER: SEED 162
USER: STATUS no improvement in best in 6 clusters for 5 generations
USER: GENES 23
USER: genes 0 Translation |==|  0.61736 0.51513 0.46930
USER: genes 1 Rotation |==|  0.75705 0.68508 0.82746 0.70600
USER: genes 2 Torsion [N]-C--CA-[N] |==|  0.22819
USER: genes 3 Torsion [C]-CA--CB-[CG2] |==|  0.41397
USER: genes 4 Torsion [CA]-CB--CG1-[CD1] |==|  0.32536
USER: genes 5 Torsion [C]-CA--N-[C] |==|  0.57222
USER: genes 6 Torsion [N]-C--CA-[N] |==|  0.18789
USER: genes 7 Torsion [C]-CA--N-[C] |==|  0.76434
USER: genes 8 Torsion [N]-C--CA-[N] |==|  0.36731
USER: genes 9 Torsion [C]-CA--CB-[CG1] |==|  0.12134
USER: genes 10 Torsion [C]-CA--N-[H3] |==|  0.79359
USER: genes 11 Torsion [C]-CA--CB-[CG] |==|  0.36479
USER: genes 12 Torsion [CA]-CB--CG-[CD1] |==|  0.41492
USER: genes 13 Torsion [CE1]-CZ--OH-[HH] |==|  0.88024
USER: genes 14 Torsion [C]-N--CA-[C] |==|  0.53663
USER: genes 15 Torsion [N]-CA--C-[N] |==|  0.51372
USER: genes 16 Torsion [N]-CA--C-[O] |==|  0.92015
USER: genes 17 Torsion [C]-N--CA-[C] |==|  0.52943
USER: genes 18 Torsion [N]-CA--C-[O] |==|  0.95500
USER: genes 19 Torsion [N]-CA--CB-[CG] |==|  0.72384
USER: genes 20 Torsion [CA]-CB--CG-[CD1] |==|  0.81759
USER: genes 21 Torsion [N]-CA--CB-[CG] |==|  0.22599
USER: genes 22 Torsion [CA]-CB--CG-[CD2] |==|  0.76582
ROOT
ATOM      1  C   ILE C   3      56.149  28.060  34.459  1.00 18.73 LIG 0.24  C 
ATOM      2 O    ILE C   3      56.020  26.906  34.840  1.00 16.27 LIG-0.27  OA
ATOM      3  N   HIS C   4      55.277  28.579  33.598  1.00 21.57 LIG-0.35  N 
ATOM      4 H    HIS C   4      55.282  29.386  33.300  1.00 21.57 LIG 0.16  HD
ENDROOT
BRANCH 1 5
ATOM      5  CA  ILE C   3      57.327  28.918  34.946  1.00 14.70 LIG 0.18  C 
BRANCH 5 6
ATOM      6  CB  ILE C   3      58.495  28.066  35.419  1.00 14.24 LIG 0.01  C 
ATOM      7  CG2 ILE C   3      59.811  28.776  35.173  1.00 15.96 LIG 0.01  C 
BRANCH 6 8
ATOM      8  CG1 ILE C   3      58.412  27.826  36.917  1.00 14.06 LIG 0.00  C 
ATOM      9  CD1 ILE C   3      58.246  26.370  37.321  1.00 15.53 LIG 0.01  C 
ENDBRANCH 6 8
ENDBRANCH 5 6
BRANCH 5 10
ATOM     10  N   ILE C   3      56.838  29.757  36.021  1.00 14.80 LIG-0.35  N 
ATOM     11 H    ILE C   3      56.160  29.443  36.447  1.00 14.80 LIG 0.16  HD
ATOM     12  C   TYR C   2      57.421  30.912  36.288  1.00 14.99 LIG 0.24  C 
ATOM     13 O    TYR C   2      58.542  31.195  35.844  1.00 13.53 LIG-0.27  OA
BRANCH 12 14
ATOM     14  CA  TYR C   2      56.687  31.818  37.249  1.00 13.94 LIG 0.18  C 
BRANCH 14 15
ATOM     15  N   TYR C   2      56.618  31.326  38.604  1.00 12.58 LIG-0.35  N 
ATOM     16  C   VAL C   1      55.655  30.483  38.938  1.00 12.16 LIG 0.25  C 
ATOM     17 O    VAL C   1      54.876  30.016  38.078  1.00 12.42 LIG-0.27  OA
ATOM     18 H    TYR C   2      57.228  31.619  39.136  1.00 12.58 LIG 0.16  HD
BRANCH 16 19
ATOM     19  CA  VAL C   1      55.499  30.140  40.444  1.00 12.03 LIG 0.28  C 
BRANCH 19 20
ATOM     20  CB  VAL C   1      56.019  28.717  40.772  1.00 13.82 LIG 0.02  C 
ATOM     21  CG2 VAL C   1      56.157  28.489  42.273  1.00 13.35 LIG 0.01  C 
ATOM     22  CG1 VAL C   1      57.352  28.416  40.087  1.00 14.11 LIG 0.01  C 
ENDBRANCH 19 20
BRANCH 19 23
ATOM     23  N   VAL C   1      54.015  30.276  40.787  1.00 11.80 LIG-0.07  N 
ATOM     24 H3   VAL C   1      53.797  31.138  40.828  1.00 11.80 LIG 0.28  HD
ATOM     25 H1   VAL C   1      53.527  29.877  40.159  1.00 11.80 LIG 0.28  HD
ATOM     26 H2   VAL C   1      53.855  29.892  41.574  1.00 11.80 LIG 0.28  HD
ENDBRANCH 19 23
ENDBRANCH 16 19
ENDBRANCH 14 15
BRANCH 14 27
ATOM     27  CB  TYR C   2      57.257  33.263  37.295  1.00 13.68 LIG 0.07  C 
BRANCH 27 28
ATOM     28  CG  TYR C   2      56.309  34.360  37.185  1.00 14.01 LIG-0.06  A 
ATOM     29  CD1 TYR C   2      56.515  35.581  37.790  1.00 14.17 LIG 0.01  A 
ATOM     30  CE1 TYR C   2      55.568  36.567  37.797  1.00 16.08 LIG 0.04  A 
ATOM     31  CZ  TYR C   2      54.415  36.379  37.097  1.00 18.02 LIG 0.07  A 
ATOM     32  CE2 TYR C   2      54.167  35.199  36.491  1.00 16.42 LIG 0.04  A 
ATOM     33  CD2 TYR C   2      55.080  34.175  36.523  1.00 16.83 LIG 0.01  A 
BRANCH 31 34
ATOM     34 OH   TYR C   2      53.448  37.351  37.051  1.00 21.46 LIG-0.36  OA
ATOM     35 HH   TYR C   2      53.344  37.678  37.818  1.00 21.46 LIG 0.22  HD
ENDBRANCH 31 34
ENDBRANCH 27 28
ENDBRANCH 14 27
ENDBRANCH 12 14
ENDBRANCH 5 10
ENDBRANCH 1 5
BRANCH 3 36
ATOM     36  CA  HIS C   4      54.198  27.710  33.098  1.00 30.85 LIG 0.18  C 
BRANCH 36 37
ATOM     37  C   HIS C   4      53.433  28.335  31.835  1.00 37.69 LIG 0.24  C 
ATOM     38 O    HIS C   4      53.894  29.356  31.289  1.00 34.87 LIG-0.27  OA
ATOM     39  N   PRO C   5      52.328  27.679  31.320  1.00 41.85 LIG-0.34  N 
ATOM     40  CA  PRO C   5      51.535  28.411  30.306  1.00 42.98 LIG 0.18  C 
ATOM     41  CD  PRO C   5      52.007  26.228  31.262  1.00 45.49 LIG 0.13  C 
ATOM     42  CB  PRO C   5      50.283  27.532  30.094  1.00 43.99 LIG 0.04  C 
ATOM     43  CG  PRO C   5      50.560  26.214  30.798  1.00 47.39 LIG 0.02  C 
BRANCH 40 44
ATOM     44  C   PRO C   5      51.163  29.808  30.783  1.00 44.97 LIG 0.24  C 
ATOM     45  N   PHE C   6      51.054  30.721  29.816  1.00 47.34 LIG-0.35  N 
ATOM     46 H    PHE C   6      51.019  30.515  28.982  1.00 47.34 LIG 0.16  HD
ATOM     47 O    PRO C   5      51.028  30.030  31.993  1.00 42.20 LIG-0.27  OA
BRANCH 45 48
ATOM     48  CA  PHE C   6      50.981  32.170  30.062  1.00 47.71 LIG 0.17  C 
BRANCH 48 49
ATOM     49  C   PHE C   6      50.600  32.901  28.778  1.00 43.76 LIG 0.22  C 
ATOM     50 O    PHE C   6      50.704  32.304  27.694  1.00 44.85 LIG-0.29  OA
ENDBRANCH 48 49
BRANCH 48 51
ATOM     51  CB  PHE C   6      52.335  32.656  30.553  1.00 45.10 LIG 0.07  C 
BRANCH 51 52
ATOM     52  CG  PHE C   6      52.409  32.819  32.023  1.00 47.89 LIG-0.06  A 
ATOM     53  CD1 PHE C   6      51.640  33.781  32.666  1.00 50.48 LIG 0.01  A 
ATOM     54  CE1 PHE C   6      51.699  33.937  34.056  1.00 53.80 LIG 0.00  A 
ATOM     55  CZ  PHE C   6      52.533  33.125  34.811  1.00 48.07 LIG 0.00  A 
ATOM     56  CE2 PHE C   6      53.299  32.162  34.172  1.00 44.45 LIG 0.00  A 
ATOM     57  CD2 PHE C   6      53.251  32.020  32.782  1.00 45.95 LIG 0.01  A 
ENDBRANCH 51 52
ENDBRANCH 48 51
ENDBRANCH 45 48
ENDBRANCH 40 44
ENDBRANCH 36 37
BRANCH 36 58
ATOM     58  CB  HIS C   4      53.282  27.203  34.226  1.00 37.41 LIG 0.10  C 
BRANCH 58 59
ATOM     59  CG  HIS C   4      52.242  28.242  34.610  1.00 46.77 LIG 0.06  A 
ATOM     60 ND1  HIS C   4      50.927  28.193  34.202  1.00 46.89 LIG-0.24  NA
ATOM     61  CE1 HIS C   4      50.237  29.151  34.798  1.00 44.31 LIG 0.23  A 
ATOM     62 NE2  HIS C   4      51.052  29.817  35.588  1.00 47.07 LIG-0.25  NA
ATOM     63  CD2 HIS C   4      52.317  29.298  35.461  1.00 43.50 LIG 0.14  A 
ENDBRANCH 58 59
ENDBRANCH 36 58
ENDBRANCH 3 36
TORSDOF 21
ENDMDL
MODEL 10
USER: ADFR SOLUTION from run 163
USER: SCORE 23.835696 LL:  -6.397 LR: -18.860 RR:   0.000 FEB: -12.596
USER: RMSD 6.145397
USER: SEED 162
USER: STATUS no improvement in best in 6 clusters for 5 generations
USER: GENES 23
USER: genes 0 Translation |==|  0.59098 0.52879 0.48277
USER: genes 1 Rotation |==|  0.70911 0.67134 0.78466 0.80966
USER: genes 2 Torsion [N]-C--CA-[N] |==|  0.29642
USER: genes 3 Torsion [C]-CA--CB-[CG2] |==|  0.38580
USER: genes 4 Torsion [CA]-CB--CG1-[CD1] |==|  0.25359
USER: genes 5 Torsion [C]-CA--N-[C] |==|  0.61111
USER: genes 6 Torsion [N]-C--CA-[N] |==|  0.17011
USER: genes 7 Torsion [C]-CA--N-[C] |==|  0.79072
USER: genes 8 Torsion [N]-C--CA-[N] |==|  0.37407
USER: genes 9 Torsion [C]-CA--CB-[CG1] |==|  0.42036
USER: genes 10 Torsion [C]-CA--N-[H3] |==|  0.77846
USER: genes 11 Torsion [C]-CA--CB-[CG] |==|  0.34796
USER: genes 12 Torsion [CA]-CB--CG-[CD1] |==|  0.42375
USER: genes 13 Torsion [CE1]-CZ--OH-[HH] |==|  0.88033
USER: genes 14 Torsion [C]-N--CA-[C] |==|  0.57049
USER: genes 15 Torsion [N]-CA--C-[N] |==|  0.56654
USER: genes 16 Torsion [N]-CA--C-[O] |==|  0.41221
USER: genes 17 Torsion [C]-N--CA-[C] |==|  0.67419
USER: genes 18 Torsion [N]-CA--C-[O] |==|  0.26300
USER: genes 19 Torsion [N]-CA--CB-[CG] |==|  0.87519
USER: genes 20 Torsion [CA]-CB--CG-[CD1] |==|  0.28388
USER: genes 21 Torsion [N]-CA--CB-[CG] |==|  0.13368
USER: genes 22 Torsion [CA]-CB--CG-[CD2] |==|  0.25701
ROOT
ATOM      1  C   ILE C   3      55.674  28.428  34.772  1.00 18.73 LIG 0.24  C 
ATOM      2 O    ILE C   3      55.119  27.549  35.413  1.00 16.27 LIG-0.27  OA
ATOM      3  N   HIS C   4      55.167  28.827  33.608  1.00 21.57 LIG-0.35  N 
ATOM      4 H    HIS C   4      55.481  29.453  33.109  1.00 21.57 LIG 0.16  HD
ENDROOT
BRANCH 1 5
ATOM      5  CA  ILE C   3      56.974  29.069  35.285  1.00 14.70 LIG 0.18  C 
BRANCH 5 6
ATOM      6  CB  ILE C   3      57.981  28.025  35.740  1.00 14.24 LIG 0.01  C 
ATOM      7  CG2 ILE C   3      59.381  28.401  35.295  1.00 15.96 LIG 0.01  C 
BRANCH 6 8
ATOM      8  CG1 ILE C   3      58.023  27.945  37.257  1.00 14.06 LIG 0.00  C 
ATOM      9  CD1 ILE C   3      57.075  26.925  37.867  1.00 15.53 LIG 0.01  C 
ENDBRANCH 6 8
ENDBRANCH 5 6
BRANCH 5 10
ATOM     10  N   ILE C   3      56.620  29.951  36.379  1.00 14.80 LIG-0.35  N 
ATOM     11 H    ILE C   3      56.015  29.646  36.910  1.00 14.80 LIG 0.16  HD
ATOM     12  C   TYR C   2      57.211  31.125  36.511  1.00 14.99 LIG 0.24  C 
ATOM     13 O    TYR C   2      58.253  31.403  35.903  1.00 13.53 LIG-0.27  OA
BRANCH 12 14
ATOM     14  CA  TYR C   2      56.598  32.064  37.524  1.00 13.94 LIG 0.18  C 
BRANCH 14 15
ATOM     15  N   TYR C   2      56.599  31.569  38.879  1.00 12.58 LIG-0.35  N 
ATOM     16  C   VAL C   1      55.730  30.633  39.227  1.00 12.16 LIG 0.25  C 
ATOM     17 O    VAL C   1      54.990  30.090  38.378  1.00 12.42 LIG-0.27  OA
ATOM     18 H    TYR C   2      57.184  31.922  39.403  1.00 12.58 LIG 0.16  HD
BRANCH 16 19
ATOM     19  CA  VAL C   1      55.632  30.277  40.735  1.00 12.03 LIG 0.28  C 
BRANCH 19 20
ATOM     20  CB  VAL C   1      56.350  28.944  41.064  1.00 13.82 LIG 0.02  C 
ATOM     21  CG2 VAL C   1      55.453  27.735  40.823  1.00 13.35 LIG 0.01  C 
ATOM     22  CG1 VAL C   1      56.876  28.909  42.499  1.00 14.11 LIG 0.01  C 
ENDBRANCH 19 20
BRANCH 19 23
ATOM     23  N   VAL C   1      54.145  30.203  41.085  1.00 11.80 LIG-0.07  N 
ATOM     24 H3   VAL C   1      53.826  31.026  41.203  1.00 11.80 LIG 0.28  HD
ATOM     25 H1   VAL C   1      53.703  29.806  40.423  1.00 11.80 LIG 0.28  HD
ATOM     26 H2   VAL C   1      54.039  29.735  41.834  1.00 11.80 LIG 0.28  HD
ENDBRANCH 19 23
ENDBRANCH 16 19
ENDBRANCH 14 15
BRANCH 14 27
ATOM     27  CB  TYR C   2      57.249  33.476  37.532  1.00 13.68 LIG 0.07  C 
BRANCH 27 28
ATOM     28  CG  TYR C   2      56.369  34.619  37.356  1.00 14.01 LIG-0.06  A 
ATOM     29  CD1 TYR C   2      56.661  35.865  37.867  1.00 14.17 LIG 0.01  A 
ATOM     30  CE1 TYR C   2      55.777  36.907  37.816  1.00 16.08 LIG 0.04  A 
ATOM     31  CZ  TYR C   2      54.601  36.742  37.149  1.00 18.02 LIG 0.07  A 
ATOM     32  CE2 TYR C   2      54.269  35.539  36.635  1.00 16.42 LIG 0.04  A 
ATOM     33  CD2 TYR C   2      55.118  34.464  36.728  1.00 16.83 LIG 0.01  A 
BRANCH 31 34
ATOM     34 OH   TYR C   2      53.695  37.766  37.047  1.00 21.46 LIG-0.36  OA
ATOM     35 HH   TYR C   2      53.626  38.154  37.789  1.00 21.46 LIG 0.22  HD
ENDBRANCH 31 34
ENDBRANCH 27 28
ENDBRANCH 14 27
ENDBRANCH 12 14
ENDBRANCH 5 10
ENDBRANCH 1 5
BRANCH 3 36
ATOM     36  CA  HIS C   4      53.959  28.146  33.112  1.00 30.85 LIG 0.18  C 
BRANCH 36 37
ATOM     37  C   HIS C   4      53.819  28.217  31.515  1.00 37.69 LIG 0.24  C 
ATOM     38 O    HIS C   4      54.848  28.302  30.818  1.00 34.87 LIG-0.27  OA
ATOM     39  N   PRO C   5      52.566  28.092  30.940  1.00 41.85 LIG-0.34  N 
ATOM     40  CA  PRO C   5      52.469  28.387  29.491  1.00 42.98 LIG 0.18  C 
ATOM     41  CD  PRO C   5      51.375  27.317  31.378  1.00 45.49 LIG 0.13  C 
ATOM     42  CB  PRO C   5      50.953  28.373  29.201  1.00 43.99 LIG 0.04  C 
ATOM     43  CG  PRO C   5      50.283  27.804  30.441  1.00 47.39 LIG 0.02  C 
BRANCH 40 44
ATOM     44  C   PRO C   5      53.092  29.734  29.149  1.00 44.97 LIG 0.24  C 
ATOM     45  N   PHE C   6      52.961  30.669  30.092  1.00 47.34 LIG-0.35  N 
ATOM     46 H    PHE C   6      52.708  30.489  30.895  1.00 47.34 LIG 0.16  HD
ATOM     47 O    PRO C   5      53.627  29.902  28.047  1.00 42.20 LIG-0.27  OA
BRANCH 45 48
ATOM     48  CA  PHE C   6      53.232  32.098  29.872  1.00 47.71 LIG 0.17  C 
BRANCH 48 49
ATOM     49  C   PHE C   6      54.383  32.557  30.762  1.00 43.76 LIG 0.22  C 
ATOM     50 O    PHE C   6      55.535  32.565  30.298  1.00 44.85 LIG-0.29  OA
ENDBRANCH 48 49
BRANCH 48 51
ATOM     51  CB  PHE C   6      51.977  32.894  30.196  1.00 45.10 LIG 0.07  C 
BRANCH 51 52
ATOM     52  CG  PHE C   6      50.740  32.304  29.636  1.00 47.89 LIG-0.06  A 
ATOM     53  CD1 PHE C   6      49.871  31.584  30.446  1.00 50.48 LIG 0.01  A 
ATOM     54  CE1 PHE C   6      48.697  31.029  29.926  1.00 53.80 LIG 0.00  A 
ATOM     55  CZ  PHE C   6      48.387  31.192  28.584  1.00 48.07 LIG 0.00  A 
ATOM     56  CE2 PHE C   6      49.251  31.913  27.773  1.00 44.45 LIG 0.00  A 
ATOM     57  CD2 PHE C   6      50.432  32.452  28.292  1.00 45.95 LIG 0.01  A 
ENDBRANCH 51 52
ENDBRANCH 48 51
ENDBRANCH 45 48
ENDBRANCH 40 44
ENDBRANCH 36 37
BRANCH 36 58
ATOM     58  CB  HIS C   4      52.695  28.549  33.892  1.00 37.41 LIG 0.10  C 
BRANCH 58 59
ATOM     59  CG  HIS C   4      52.586  30.057  34.040  1.00 46.77 LIG 0.06  A 
ATOM     60 ND1  HIS C   4      53.263  30.780  34.998  1.00 46.89 LIG-0.24  NA
ATOM     61  CE1 HIS C   4      53.076  32.074  34.798  1.00 44.31 LIG 0.23  A 
ATOM     62 NE2  HIS C   4      52.310  32.222  33.738  1.00 47.07 LIG-0.25  NA
ATOM     63  CD2 HIS C   4      51.956  30.980  33.269  1.00 43.50 LIG 0.14  A 
ENDBRANCH 58 59
ENDBRANCH 36 58
ENDBRANCH 3 36
TORSDOF 21
ENDMDL
MODEL 11
USER: ADFR SOLUTION from run 71
USER: SCORE 23.840470 LL:  -5.687 LR: -18.706 RR:   0.000 FEB: -12.442
USER: RMSD 2.947227
USER: SEED 70
USER: STATUS no improvement in best in 4 clusters for 5 generations
USER: GENES 23
USER: genes 0 Translation |==|  0.68050 0.50811 0.48620
USER: genes 1 Rotation |==|  0.57716 0.52973 0.67541 0.96086
USER: genes 2 Torsion [N]-C--CA-[N] |==|  0.37927
USER: genes 3 Torsion [C]-CA--CB-[CG2] |==|  0.56324
USER: genes 4 Torsion [CA]-CB--CG1-[CD1] |==|  0.56099
USER: genes 5 Torsion [C]-CA--N-[C] |==|  0.79774
USER: genes 6 Torsion [N]-C--CA-[N] |==|  0.08643
USER: genes 7 Torsion [C]-CA--N-[C] |==|  0.75385
USER: genes 8 Torsion [N]-C--CA-[N] |==|  0.38409
USER: genes 9 Torsion [C]-CA--CB-[CG1] |==|  0.84792
USER: genes 10 Torsion [C]-CA--N-[H3] |==|  0.43888
USER: genes 11 Torsion [C]-CA--CB-[CG] |==|  0.39974
USER: genes 12 Torsion [CA]-CB--CG-[CD1] |==|  0.40325
USER: genes 13 Torsion [CE1]-CZ--OH-[HH] |==|  0.85553
USER: genes 14 Torsion [C]-N--CA-[C] |==|  0.73758
USER: genes 15 Torsion [N]-CA--C-[N] |==|  0.99338
USER: genes 16 Torsion [N]-CA--C-[O] |==|  0.35929
USER: genes 17 Torsion [C]-N--CA-[C] |==|  0.50136
USER: genes 18 Torsion [N]-CA--C-[O] |==|  0.17287
USER: genes 19 Torsion [N]-CA--CB-[CG] |==|  0.60966
USER: genes 20 Torsion [CA]-CB--CG-[CD1] |==|  0.50418
USER: genes 21 Torsion [N]-CA--CB-[CG] |==|  0.66914
USER: genes 22 Torsion [CA]-CB--CG-[CD2] |==|  0.97588
ROOT
ATOM      1  C   ILE C   3      57.285  27.870  34.852  1.00 18.73 LIG 0.24  C 
ATOM      2 O    ILE C   3      56.073  27.872  35.004  1.00 16.27 LIG-0.27  OA
ATOM      3  N   HIS C   4      57.806  27.697  33.639  1.00 21.57 LIG-0.35  N 
ATOM      4 H    HIS C   4      58.644  27.707  33.445  1.00 21.57 LIG 0.16  HD
ENDROOT
BRANCH 1 5
ATOM      5  CA  ILE C   3      58.225  28.041  36.057  1.00 14.70 LIG 0.18  C 
BRANCH 5 6
ATOM      6  CB  ILE C   3      58.345  26.762  36.870  1.00 14.24 LIG 0.01  C 
ATOM      7  CG2 ILE C   3      58.783  27.068  38.289  1.00 15.96 LIG 0.01  C 
BRANCH 6 8
ATOM      8  CG1 ILE C   3      56.999  26.066  36.980  1.00 14.06 LIG 0.00  C 
ATOM      9  CD1 ILE C   3      56.870  25.110  38.155  1.00 15.53 LIG 0.01  C 
ENDBRANCH 6 8
ENDBRANCH 5 6
BRANCH 5 10
ATOM     10  N   ILE C   3      57.696  29.117  36.870  1.00 14.80 LIG-0.35  N 
ATOM     11 H    ILE C   3      57.332  28.869  37.609  1.00 14.80 LIG 0.16  HD
ATOM     12  C   TYR C   2      57.790  30.371  36.465  1.00 14.99 LIG 0.24  C 
ATOM     13 O    TYR C   2      58.553  30.706  35.549  1.00 13.53 LIG-0.27  OA
BRANCH 12 14
ATOM     14  CA  TYR C   2      56.992  31.383  37.255  1.00 13.94 LIG 0.18  C 
BRANCH 14 15
ATOM     15  N   TYR C   2      56.826  31.059  38.651  1.00 12.58 LIG-0.35  N 
ATOM     16  C   VAL C   1      55.796  30.319  39.025  1.00 12.16 LIG 0.25  C 
ATOM     17 O    VAL C   1      55.031  29.800  38.182  1.00 12.42 LIG-0.27  OA
ATOM     18 H    TYR C   2      57.427  31.377  39.179  1.00 12.58 LIG 0.16  HD
BRANCH 16 19
ATOM     19  CA  VAL C   1      55.545  30.165  40.550  1.00 12.03 LIG 0.28  C 
BRANCH 19 20
ATOM     20  CB  VAL C   1      56.093  28.822  41.096  1.00 13.82 LIG 0.02  C 
ATOM     21  CG2 VAL C   1      57.617  28.776  41.081  1.00 13.35 LIG 0.01  C 
ATOM     22  CG1 VAL C   1      55.540  27.618  40.333  1.00 14.11 LIG 0.01  C 
ENDBRANCH 19 20
BRANCH 19 23
ATOM     23  N   VAL C   1      54.036  30.276  40.773  1.00 11.80 LIG-0.07  N 
ATOM     24 H3   VAL C   1      53.820  29.889  41.545  1.00 11.80 LIG 0.28  HD
ATOM     25 H1   VAL C   1      53.801  31.134  40.797  1.00 11.80 LIG 0.28  HD
ATOM     26 H2   VAL C   1      53.606  29.871  40.107  1.00 11.80 LIG 0.28  HD
ENDBRANCH 19 23
ENDBRANCH 16 19
ENDBRANCH 14 15
BRANCH 14 27
ATOM     27  CB  TYR C   2      57.562  32.827  37.164  1.00 13.68 LIG 0.07  C 
BRANCH 27 28
ATOM     28  CG  TYR C   2      56.607  33.921  37.135  1.00 14.01 LIG-0.06  A 
ATOM     29  CD1 TYR C   2      56.857  35.139  37.731  1.00 14.17 LIG 0.01  A 
ATOM     30  CE1 TYR C   2      55.912  36.124  37.818  1.00 16.08 LIG 0.04  A 
ATOM     31  CZ  TYR C   2      54.708  35.938  37.209  1.00 18.02 LIG 0.07  A 
ATOM     32  CE2 TYR C   2      54.415  34.761  36.617  1.00 16.42 LIG 0.04  A 
ATOM     33  CD2 TYR C   2      55.330  33.738  36.570  1.00 16.83 LIG 0.01  A 
BRANCH 31 34
ATOM     34 OH   TYR C   2      53.739  36.907  37.246  1.00 21.46 LIG-0.36  OA
ATOM     35 HH   TYR C   2      53.609  37.144  38.041  1.00 21.46 LIG 0.22  HD
ENDBRANCH 31 34
ENDBRANCH 27 28
ENDBRANCH 14 27
ENDBRANCH 12 14
ENDBRANCH 5 10
ENDBRANCH 1 5
BRANCH 3 36
ATOM     36  CA  HIS C   4      56.880  27.468  32.517  1.00 30.85 LIG 0.18  C 
BRANCH 36 37
ATOM     37  C   HIS C   4      56.652  25.911  32.210  1.00 37.69 LIG 0.24  C 
ATOM     38 O    HIS C   4      55.918  25.580  31.259  1.00 34.87 LIG-0.27  OA
ATOM     39  N   PRO C   5      57.344  24.966  32.949  1.00 41.85 LIG-0.34  N 
ATOM     40  CA  PRO C   5      56.930  23.555  32.776  1.00 42.98 LIG 0.18  C 
ATOM     41  CD  PRO C   5      58.697  25.025  33.564  1.00 45.49 LIG 0.13  C 
ATOM     42  CB  PRO C   5      57.717  22.791  33.863  1.00 43.99 LIG 0.04  C 
ATOM     43  CG  PRO C   5      58.741  23.768  34.418  1.00 47.39 LIG 0.02  C 
BRANCH 40 44
ATOM     44  C   PRO C   5      55.427  23.385  32.950  1.00 44.97 LIG 0.24  C 
ATOM     45  N   PHE C   6      54.933  23.886  34.084  1.00 47.34 LIG-0.35  N 
ATOM     46 H    PHE C   6      55.381  24.415  34.594  1.00 47.34 LIG 0.16  HD
ATOM     47 O    PRO C   5      54.772  22.781  32.092  1.00 42.20 LIG-0.27  OA
BRANCH 45 48
ATOM     48  CA  PHE C   6      53.581  23.597  34.588  1.00 47.71 LIG 0.17  C 
BRANCH 48 49
ATOM     49  C   PHE C   6      53.340  24.340  35.898  1.00 43.76 LIG 0.22  C 
ATOM     50 O    PHE C   6      53.367  25.582  35.898  1.00 44.85 LIG-0.29  OA
ENDBRANCH 48 49
BRANCH 48 51
ATOM     51  CB  PHE C   6      53.448  22.099  34.810  1.00 45.10 LIG 0.07  C 
BRANCH 51 52
ATOM     52  CG  PHE C   6      52.129  21.555  34.413  1.00 47.89 LIG-0.06  A 
ATOM     53  CD1 PHE C   6      51.841  20.207  34.583  1.00 50.48 LIG 0.01  A 
ATOM     54  CE1 PHE C   6      50.595  19.686  34.217  1.00 53.80 LIG 0.00  A 
ATOM     55  CZ  PHE C   6      49.627  20.519  33.675  1.00 48.07 LIG 0.00  A 
ATOM     56  CE2 PHE C   6      49.911  21.866  33.506  1.00 44.45 LIG 0.00  A 
ATOM     57  CD2 PHE C   6      51.162  22.380  33.857  1.00 45.95 LIG 0.01  A 
ENDBRANCH 51 52
ENDBRANCH 48 51
ENDBRANCH 45 48
ENDBRANCH 40 44
ENDBRANCH 36 37
BRANCH 36 58
ATOM     58  CB  HIS C   4      57.223  28.328  31.287  1.00 37.41 LIG 0.10  C 
BRANCH 58 59
ATOM     59  CG  HIS C   4      56.082  29.263  30.924  1.00 46.77 LIG 0.06  A 
ATOM     60 ND1  HIS C   4      56.143  30.177  29.895  1.00 46.89 LIG-0.24  NA
ATOM     61  CE1 HIS C   4      54.962  30.751  29.735  1.00 44.31 LIG 0.23  A 
ATOM     62 NE2  HIS C   4      54.130  30.237  30.616  1.00 47.07 LIG-0.25  NA
ATOM     63  CD2 HIS C   4      54.811  29.336  31.397  1.00 43.50 LIG 0.14  A 
ENDBRANCH 58 59
ENDBRANCH 36 58
ENDBRANCH 3 36
TORSDOF 21
ENDMDL
MODEL 12
USER: ADFR SOLUTION from run 191
USER: SCORE 22.833733 LL:  -5.527 LR: -18.684 RR:   0.000 FEB: -12.420
USER: RMSD 3.841685
USER: SEED 190
USER: STATUS no improvement in best in 2 clusters for 5 generations
USER: GENES 23
USER: genes 0 Translation |==|  0.69124 0.49942 0.50842
USER: genes 1 Rotation |==|  0.22931 0.48571 0.16494 0.75349
USER: genes 2 Torsion [N]-C--CA-[N] |==|  0.82358
USER: genes 3 Torsion [C]-CA--CB-[CG2] |==|  0.76368
USER: genes 4 Torsion [CA]-CB--CG1-[CD1] |==|  0.36666
USER: genes 5 Torsion [C]-CA--N-[C] |==|  0.81517
USER: genes 6 Torsion [N]-C--CA-[N] |==|  0.05727
USER: genes 7 Torsion [C]-CA--N-[C] |==|  0.75000
USER: genes 8 Torsion [N]-C--CA-[N] |==|  0.40593
USER: genes 9 Torsion [C]-CA--CB-[CG1] |==|  0.12824
USER: genes 10 Torsion [C]-CA--N-[H3] |==|  0.41625
USER: genes 11 Torsion [C]-CA--CB-[CG] |==|  0.39164
USER: genes 12 Torsion [CA]-CB--CG-[CD1] |==|  0.91476
USER: genes 13 Torsion [CE1]-CZ--OH-[HH] |==|  0.71848
USER: genes 14 Torsion [C]-N--CA-[C] |==|  0.60162
USER: genes 15 Torsion [N]-CA--C-[N] |==|  0.19117
USER: genes 16 Torsion [N]-CA--C-[O] |==|  0.39389
USER: genes 17 Torsion [C]-N--CA-[C] |==|  0.06855
USER: genes 18 Torsion [N]-CA--C-[O] |==|  0.38443
USER: genes 19 Torsion [N]-CA--CB-[CG] |==|  0.35828
USER: genes 20 Torsion [CA]-CB--CG-[CD1] |==|  0.72421
USER: genes 21 Torsion [N]-CA--CB-[CG] |==|  0.71769
USER: genes 22 Torsion [CA]-CB--CG-[CD2] |==|  0.41799
ROOT
ATOM      1  C   ILE C   3      57.478  27.635  35.369  1.00 18.73 LIG 0.24  C 
ATOM      2 O    ILE C   3      57.880  27.757  34.222  1.00 16.27 LIG-0.27  OA
ATOM      3  N   HIS C   4      56.215  27.284  35.600  1.00 21.57 LIG-0.35  N 
ATOM      4 H    HIS C   4      55.862  27.154  36.373  1.00 21.57 LIG 0.16  HD
ENDROOT
BRANCH 1 5
ATOM      5  CA  ILE C   3      58.412  27.909  36.559  1.00 14.70 LIG 0.18  C 
BRANCH 5 6
ATOM      6  CB  ILE C   3      58.526  26.706  37.481  1.00 14.24 LIG 0.01  C 
ATOM      7  CG2 ILE C   3      57.393  26.692  38.487  1.00 15.96 LIG 0.01  C 
BRANCH 6 8
ATOM      8  CG1 ILE C   3      58.413  25.412  36.693  1.00 14.06 LIG 0.00  C 
ATOM      9  CD1 ILE C   3      59.482  24.378  37.008  1.00 15.53 LIG 0.01  C 
ENDBRANCH 6 8
ENDBRANCH 5 6
BRANCH 5 10
ATOM     10  N   ILE C   3      57.881  29.053  37.273  1.00 14.80 LIG-0.35  N 
ATOM     11 H    ILE C   3      57.589  28.883  38.064  1.00 14.80 LIG 0.16  HD
ATOM     12  C   TYR C   2      57.867  30.247  36.709  1.00 14.99 LIG 0.24  C 
ATOM     13 O    TYR C   2      58.537  30.500  35.699  1.00 13.53 LIG-0.27  OA
BRANCH 12 14
ATOM     14  CA  TYR C   2      57.070  31.310  37.429  1.00 13.94 LIG 0.18  C 
BRANCH 14 15
ATOM     15  N   TYR C   2      56.828  31.036  38.825  1.00 12.58 LIG-0.35  N 
ATOM     16  C   VAL C   1      55.741  30.367  39.174  1.00 12.16 LIG 0.25  C 
ATOM     17 O    VAL C   1      54.982  29.870  38.312  1.00 12.42 LIG-0.27  OA
ATOM     18 H    TYR C   2      57.423  31.333  39.370  1.00 12.58 LIG 0.16  HD
BRANCH 16 19
ATOM     19  CA  VAL C   1      55.418  30.271  40.689  1.00 12.03 LIG 0.28  C 
BRANCH 19 20
ATOM     20  CB  VAL C   1      56.034  29.003  41.335  1.00 13.82 LIG 0.02  C 
ATOM     21  CG2 VAL C   1      55.935  29.029  42.856  1.00 13.35 LIG 0.01  C 
ATOM     22  CG1 VAL C   1      57.491  28.793  40.923  1.00 14.11 LIG 0.01  C 
ENDBRANCH 19 20
BRANCH 19 23
ATOM     23  N   VAL C   1      53.895  30.276  40.829  1.00 11.80 LIG-0.07  N 
ATOM     24 H3   VAL C   1      53.661  29.809  41.549  1.00 11.80 LIG 0.28  HD
ATOM     25 H1   VAL C   1      53.607  31.114  40.913  1.00 11.80 LIG 0.28  HD
ATOM     26 H2   VAL C   1      53.529  29.909  40.105  1.00 11.80 LIG 0.28  HD
ENDBRANCH 19 23
ENDBRANCH 16 19
ENDBRANCH 14 15
BRANCH 14 27
ATOM     27  CB  TYR C   2      57.695  32.730  37.324  1.00 13.68 LIG 0.07  C 
BRANCH 27 28
ATOM     28  CG  TYR C   2      56.784  33.849  37.152  1.00 14.01 LIG-0.06  A 
ATOM     29  CD1 TYR C   2      55.580  33.731  36.490  1.00 14.17 LIG 0.01  A 
ATOM     30  CE1 TYR C   2      54.784  34.807  36.214  1.00 16.08 LIG 0.04  A 
ATOM     31  CZ  TYR C   2      55.139  36.031  36.694  1.00 18.02 LIG 0.07  A 
ATOM     32  CE2 TYR C   2      56.310  36.198  37.344  1.00 16.42 LIG 0.04  A 
ATOM     33  CD2 TYR C   2      57.152  35.139  37.580  1.00 16.83 LIG 0.01  A 
BRANCH 31 34
ATOM     34 OH   TYR C   2      54.358  37.135  36.466  1.00 21.46 LIG-0.36  OA
ATOM     35 HH   TYR C   2      54.692  37.591  35.844  1.00 21.46 LIG 0.22  HD
ENDBRANCH 31 34
ENDBRANCH 27 28
ENDBRANCH 14 27
ENDBRANCH 12 14
ENDBRANCH 5 10
ENDBRANCH 1 5
BRANCH 3 36
ATOM     36  CA  HIS C   4      55.329  27.095  34.440  1.00 30.85 LIG 0.18  C 
BRANCH 36 37
ATOM     37  C   HIS C   4      53.829  27.591  34.718  1.00 37.69 LIG 0.24  C 
ATOM     38 O    HIS C   4      52.928  26.745  34.878  1.00 34.87 LIG-0.27  OA
ATOM     39  N   PRO C   5      53.581  28.945  34.866  1.00 41.85 LIG-0.34  N 
ATOM     40  CA  PRO C   5      52.159  29.359  34.898  1.00 42.98 LIG 0.18  C 
ATOM     41  CD  PRO C   5      54.435  30.028  35.423  1.00 45.49 LIG 0.13  C 
ATOM     42  CB  PRO C   5      52.210  30.901  34.853  1.00 43.99 LIG 0.04  C 
ATOM     43  CG  PRO C   5      53.664  31.289  35.071  1.00 47.39 LIG 0.02  C 
BRANCH 40 44
ATOM     44  C   PRO C   5      51.381  28.790  33.719  1.00 44.97 LIG 0.24  C 
ATOM     45  N   PHE C   6      52.036  28.804  32.556  1.00 47.34 LIG-0.35  N 
ATOM     46 H    PHE C   6      52.882  28.952  32.499  1.00 47.34 LIG 0.16  HD
ATOM     47 O    PRO C   5      50.218  28.400  33.879  1.00 42.20 LIG-0.27  OA
BRANCH 45 48
ATOM     48  CA  PHE C   6      51.395  28.569  31.252  1.00 47.71 LIG 0.17  C 
BRANCH 48 49
ATOM     49  C   PHE C   6      49.911  28.916  31.328  1.00 43.76 LIG 0.22  C 
ATOM     50 O    PHE C   6      49.388  29.526  30.381  1.00 44.85 LIG-0.29  OA
ENDBRANCH 48 49
BRANCH 48 51
ATOM     51  CB  PHE C   6      51.566  27.106  30.875  1.00 45.10 LIG 0.07  C 
BRANCH 51 52
ATOM     52  CG  PHE C   6      50.300  26.442  30.489  1.00 47.89 LIG-0.06  A 
ATOM     53  CD1 PHE C   6      49.613  25.649  31.399  1.00 50.48 LIG 0.01  A 
ATOM     54  CE1 PHE C   6      48.413  25.023  31.045  1.00 53.80 LIG 0.00  A 
ATOM     55  CZ  PHE C   6      47.894  25.189  29.769  1.00 48.07 LIG 0.00  A 
ATOM     56  CE2 PHE C   6      48.577  25.982  28.859  1.00 44.45 LIG 0.00  A 
ATOM     57  CD2 PHE C   6      49.784  26.592  29.211  1.00 45.95 LIG 0.01  A 
ENDBRANCH 51 52
ENDBRANCH 48 51
ENDBRANCH 45 48
ENDBRANCH 40 44
ENDBRANCH 36 37
BRANCH 36 58
ATOM     58  CB  HIS C   4      55.442  25.683  33.836  1.00 37.41 LIG 0.10  C 
BRANCH 58 59
ATOM     59  CG  HIS C   4      56.296  25.681  32.579  1.00 46.77 LIG 0.06  A 
ATOM     60 ND1  HIS C   4      56.504  26.796  31.796  1.00 46.89 LIG-0.24  NA
ATOM     61  CE1 HIS C   4      57.390  26.522  30.853  1.00 44.31 LIG 0.23  A 
ATOM     62 NE2  HIS C   4      57.775  25.272  30.998  1.00 47.07 LIG-0.25  NA
ATOM     63  CD2 HIS C   4      57.080  24.711  32.041  1.00 43.50 LIG 0.14  A 
ENDBRANCH 58 59
ENDBRANCH 36 58
ENDBRANCH 3 36
TORSDOF 21
ENDMDL
