MODEL 1
USER: ADFR SOLUTION from run 83
USER: SCORE 23.910918 LL:  -5.747 LR: -18.816 RR:   0.000 FEB: -11.060
USER: RMSD 4.988103
USER: SEED 82
USER: STATUS no improvement in best in 4 clusters for 5 generations
USER: GENES 28
USER: genes 0 Translation |==|  0.69636 0.44237 0.52688
USER: genes 1 Rotation |==|  0.47774 0.50703 0.57723 0.99345
USER: genes 2 Torsion [N]-C--CA-[N] |==|  0.40945
USER: genes 3 Torsion [C]-CA--N-[C] |==|  0.77841
USER: genes 4 Torsion [N]-C--CA-[N] |==|  0.10620
USER: genes 5 Torsion [C]-CA--CB-[CG] |==|  0.51082
USER: genes 6 Torsion [CA]-CB--CG-[CD] |==|  0.66755
USER: genes 7 Torsion [CB]-CG--CD-[NE] |==|  0.43670
USER: genes 8 Torsion [CG]-CD--NE-[CZ] |==|  0.50769
USER: genes 9 Torsion [C]-CA--N-[C] |==|  0.74690
USER: genes 10 Torsion [N]-C--CA-[N] |==|  0.39472
USER: genes 11 Torsion [C]-CA--CB-[CG] |==|  0.45819
USER: genes 12 Torsion [CA]-CB--CG-[OD2] |==|  0.89807
USER: genes 13 Torsion [C]-CA--N-[H1] |==|  0.09823
USER: genes 14 Torsion [C]-CA--CB-[CG1] |==|  0.46888
USER: genes 15 Torsion [C]-N--CA-[CB] |==|  0.78765
USER: genes 16 Torsion [N]-CA--CB-[CG] |==|  0.19544
USER: genes 17 Torsion [CA]-CB--CG-[CD2] |==|  0.21160
USER: genes 18 Torsion [CE2]-CZ--OH-[HH] |==|  0.02679
USER: genes 19 Torsion [N]-CA--C-[N] |==|  0.43206
USER: genes 20 Torsion [C]-N--CA-[C] |==|  0.76667
USER: genes 21 Torsion [N]-CA--C-[N] |==|  0.41911
USER: genes 22 Torsion [C]-N--CA-[CB] |==|  0.18296
USER: genes 23 Torsion [N]-CA--CB-[CG] |==|  0.14912
USER: genes 24 Torsion [CA]-CB--CG-[CD2] |==|  0.38984
USER: genes 25 Torsion [N]-CA--C-[O] |==|  0.34769
USER: genes 26 Torsion [N]-CA--CB-[CG1] |==|  0.31185
USER: genes 27 Torsion [CA]-CB--CG1-[CD1] |==|  0.54499
ROOT
ATOM      1  C   VAL C   3      57.531  27.860  35.067  1.00 15.94 LIG 0.24  C 
ATOM      2 O    VAL C   3      56.320  27.947  35.116  1.00 17.86 LIG-0.27  OA
ATOM      3  N   TYR C   4      58.156  27.508  33.947  1.00 16.41 LIG-0.35  N 
ATOM      4 H    TYR C   4      59.008  27.418  33.882  1.00 16.41 LIG 0.16  HD
ENDROOT
BRANCH 1 5
ATOM      5  CA  VAL C   3      58.366  28.123  36.336  1.00 16.01 LIG 0.18  C 
BRANCH 5 6
ATOM      6  N   VAL C   3      57.666  29.179  37.097  1.00 15.77 LIG-0.35  N 
ATOM      7 H    VAL C   3      57.188  28.903  37.758  1.00 15.77 LIG 0.16  HD
ATOM      8  C   ARG C   2      57.804  30.444  36.735  1.00 16.54 LIG 0.24  C 
ATOM      9 O    ARG C   2      58.592  30.803  35.834  1.00 14.63 LIG-0.27  OA
BRANCH 8 10
ATOM     10  CA  ARG C   2      56.975  31.468  37.485  1.00 19.03 LIG 0.18  C 
BRANCH 10 11
ATOM     11  CB  ARG C   2      57.601  32.854  37.299  1.00 20.38 LIG 0.04  C 
BRANCH 11 12
ATOM     12  CG  ARG C   2      56.940  33.954  38.059  1.00 20.75 LIG 0.02  C 
BRANCH 12 13
ATOM     13  CD  ARG C   2      56.432  34.985  37.153  1.00 22.55 LIG 0.14  C 
BRANCH 13 14
ATOM     14  NE  ARG C   2      55.373  35.760  37.740  1.00 20.36 LIG-0.23  N 
ATOM     15  CZ  ARG C   2      54.712  36.713  37.116  1.00 23.11 LIG 0.67  C 
ATOM     16  NH1 ARG C   2      54.898  36.925  35.861  1.00 23.20 LIG-0.23  N 
ATOM     17  NH2 ARG C   2      53.769  37.393  37.779  1.00 25.55 LIG-0.23  N 
ATOM     18 1HH1 ARG C   2      55.458  36.442  35.421  1.00 23.20 LIG 0.17  HD
ATOM     19 2HH1 ARG C   2      54.461  37.549  35.461  1.00 23.20 LIG 0.17  HD
ATOM     20 2HH2 ARG C   2      53.330  38.017  37.383  1.00 25.55 LIG 0.17  HD
ATOM     21 1HH2 ARG C   2      53.602  37.206  38.602  1.00 25.55 LIG 0.17  HD
ATOM     22 HE   ARG C   2      55.156  35.589  38.554  1.00 20.36 LIG 0.18  HD
ENDBRANCH 13 14
ENDBRANCH 12 13
ENDBRANCH 11 12
ENDBRANCH 10 11
BRANCH 10 23
ATOM     23  N   ARG C   2      56.886  31.131  38.915  1.00 19.42 LIG-0.35  N 
ATOM     24  C   ASP C   1      55.886  30.380  39.355  1.00 19.51 LIG 0.25  C 
ATOM     25 O    ASP C   1      55.143  29.748  38.586  1.00 19.29 LIG-0.27  OA
ATOM     26 H    ARG C   2      57.513  31.452  39.408  1.00 19.42 LIG 0.16  HD
BRANCH 24 27
ATOM     27  CA  ASP C   1      55.641  30.324  40.853  1.00 19.04 LIG 0.28  C 
BRANCH 27 28
ATOM     28  CB  ASP C   1      56.287  29.082  41.412  1.00 21.34 LIG 0.15  C 
BRANCH 28 29
ATOM     29  CG  ASP C   1      56.410  29.134  42.957  1.00 23.67 LIG 0.17  C 
ATOM     30 OD2  ASP C   1      56.672  30.249  43.486  1.00 27.41 LIG-0.65  OA
ATOM     31 OD1  ASP C   1      56.275  28.066  43.641  1.00 20.87 LIG-0.65  OA
ENDBRANCH 28 29
ENDBRANCH 27 28
BRANCH 27 32
ATOM     32  N   ASP C   1      54.148  30.292  41.064  1.00 18.38 LIG-0.07  N 
ATOM     33 H1   ASP C   1      53.766  29.823  40.411  1.00 18.38 LIG 0.28  HD
ATOM     34 H3   ASP C   1      53.830  31.123  41.058  1.00 18.38 LIG 0.28  HD
ATOM     35 H2   ASP C   1      53.966  29.912  41.848  1.00 18.38 LIG 0.28  HD
ENDBRANCH 27 32
ENDBRANCH 24 27
ENDBRANCH 10 23
ENDBRANCH 8 10
ENDBRANCH 5 6
BRANCH 5 36
ATOM     36  CB  VAL C   3      58.463  26.818  37.096  1.00 17.74 LIG 0.01  C 
ATOM     37  CG1 VAL C   3      59.483  26.895  38.213  1.00 20.72 LIG 0.01  C 
ATOM     38  CG2 VAL C   3      57.128  26.443  37.714  1.00 18.64 LIG 0.01  C 
ENDBRANCH 5 36
ENDBRANCH 1 5
BRANCH 3 39
ATOM     39  CA  TYR C   4      57.425  27.240  32.715  1.00 17.90 LIG 0.18  C 
BRANCH 39 40
ATOM     40  CB  TYR C   4      56.763  25.897  32.769  1.00 20.19 LIG 0.07  C 
BRANCH 40 41
ATOM     41  CG  TYR C   4      55.597  25.771  33.712  1.00 23.00 LIG-0.06  A 
ATOM     42  CD2 TYR C   4      54.354  26.311  33.378  1.00 26.62 LIG 0.01  A 
ATOM     43  CE2 TYR C   4      53.273  26.212  34.230  1.00 28.63 LIG 0.04  A 
ATOM     44  CZ  TYR C   4      53.425  25.578  35.425  1.00 25.42 LIG 0.07  A 
ATOM     45  CE1 TYR C   4      54.603  25.004  35.764  1.00 26.89 LIG 0.04  A 
ATOM     46  CD1 TYR C   4      55.703  25.107  34.900  1.00 24.41 LIG 0.01  A 
BRANCH 44 47
ATOM     47 OH   TYR C   4      52.353  25.476  36.262  1.00 32.39 LIG-0.36  OA
ATOM     48 HH   TYR C   4      51.658  25.724  35.859  1.00 32.39 LIG 0.22  HD
ENDBRANCH 44 47
ENDBRANCH 40 41
ENDBRANCH 39 40
BRANCH 39 49
ATOM     49  C   TYR C   4      56.417  28.366  32.346  1.00 20.63 LIG 0.24  C 
ATOM     50 O    TYR C   4      56.046  29.163  33.164  1.00 19.73 LIG-0.27  OA
ATOM     51  N   ILE C   5      56.094  28.473  31.066  1.00 22.91 LIG-0.35  N 
ATOM     52 H    ILE C   5      56.437  27.995  30.439  1.00 22.91 LIG 0.16  HD
BRANCH 51 53
ATOM     53  CA  ILE C   5      55.106  29.439  30.618  1.00 27.58 LIG 0.18  C 
BRANCH 53 54
ATOM     54  C   ILE C   5      53.706  28.851  30.781  1.00 33.14 LIG 0.24  C 
ATOM     55  N   HIS C   6      52.704  29.712  31.002  1.00 39.14 LIG-0.35  N 
ATOM     56 H    HIS C   6      52.828  30.555  31.115  1.00 39.14 LIG 0.16  HD
ATOM     57 O    ILE C   5      53.589  27.629  30.806  1.00 25.88 LIG-0.27  OA
BRANCH 55 58
ATOM     58  CA  HIS C   6      51.254  29.306  31.079  1.00 56.87 LIG 0.17  C 
BRANCH 58 59
ATOM     59  CB  HIS C   6      51.001  28.398  32.318  1.00 66.39 LIG 0.09  C 
BRANCH 59 60
ATOM     60  CG  HIS C   6      51.464  28.977  33.625  1.00 78.50 LIG 0.06  A 
ATOM     61  CD2 HIS C   6      50.891  28.946  34.855  1.00 82.71 LIG 0.14  A 
ATOM     62 NE2  HIS C   6      51.747  29.584  35.723  1.00 84.02 LIG-0.25  NA
ATOM     63  CE1 HIS C   6      52.821  29.976  35.058  1.00 85.20 LIG 0.23  A 
ATOM     64 ND1  HIS C   6      52.680  29.616  33.791  1.00 88.66 LIG-0.24  NA
ENDBRANCH 59 60
ENDBRANCH 58 59
BRANCH 58 65
ATOM     65  C   HIS C   6      50.207  30.428  31.112  1.00 59.18 LIG 0.22  C 
ATOM     66 O    HIS C   6      49.271  30.455  30.268  1.00 63.69 LIG-0.29  OA
ENDBRANCH 58 65
ENDBRANCH 55 58
ENDBRANCH 53 54
BRANCH 53 67
ATOM     67  CB  ILE C   5      55.392  29.842  29.178  1.00 28.54 LIG 0.01  C 
ATOM     68  CG2 ILE C   5      56.780  29.334  28.796  1.00 32.34 LIG 0.01  C 
BRANCH 67 69
ATOM     69  CG1 ILE C   5      54.245  29.289  28.316  1.00 30.21 LIG 0.00  C 
ATOM     70  CD1 ILE C   5      54.492  29.232  26.829  1.00 32.85 LIG 0.01  C 
ENDBRANCH 67 69
ENDBRANCH 53 67
ENDBRANCH 51 53
ENDBRANCH 39 49
ENDBRANCH 3 39
TORSDOF 26
ENDMDL
MODEL 2
USER: ADFR SOLUTION from run 114
USER: SCORE 23.596267 LL:  -7.311 LR: -18.480 RR:   0.000 FEB: -10.724
USER: RMSD 5.382199
USER: SEED 113
USER: STATUS searching
USER: GENES 28
USER: genes 0 Translation |==|  0.58098 0.47946 0.50147
USER: genes 1 Rotation |==|  0.14645 0.51514 0.21908 0.71415
USER: genes 2 Torsion [N]-C--CA-[N] |==|  0.82730
USER: genes 3 Torsion [C]-CA--N-[C] |==|  0.61242
USER: genes 4 Torsion [N]-C--CA-[N] |==|  0.19456
USER: genes 5 Torsion [C]-CA--CB-[CG] |==|  0.40261
USER: genes 6 Torsion [CA]-CB--CG-[CD] |==|  0.84506
USER: genes 7 Torsion [CB]-CG--CD-[NE] |==|  0.61116
USER: genes 8 Torsion [CG]-CD--NE-[CZ] |==|  0.72121
USER: genes 9 Torsion [C]-CA--N-[C] |==|  0.78186
USER: genes 10 Torsion [N]-C--CA-[N] |==|  0.39921
USER: genes 11 Torsion [C]-CA--CB-[CG] |==|  0.74558
USER: genes 12 Torsion [CA]-CB--CG-[OD2] |==|  0.79861
USER: genes 13 Torsion [C]-CA--N-[H1] |==|  0.44126
USER: genes 14 Torsion [C]-CA--CB-[CG1] |==|  0.40132
USER: genes 15 Torsion [C]-N--CA-[CB] |==|  0.73579
USER: genes 16 Torsion [N]-CA--CB-[CG] |==|  0.13149
USER: genes 17 Torsion [CA]-CB--CG-[CD2] |==|  0.81093
USER: genes 18 Torsion [CE2]-CZ--OH-[HH] |==|  0.31689
USER: genes 19 Torsion [N]-CA--C-[N] |==|  0.66997
USER: genes 20 Torsion [C]-N--CA-[C] |==|  0.68920
USER: genes 21 Torsion [N]-CA--C-[N] |==|  0.85829
USER: genes 22 Torsion [C]-N--CA-[CB] |==|  0.45017
USER: genes 23 Torsion [N]-CA--CB-[CG] |==|  0.92762
USER: genes 24 Torsion [CA]-CB--CG-[CD2] |==|  0.78970
USER: genes 25 Torsion [N]-CA--C-[O] |==|  0.43711
USER: genes 26 Torsion [N]-CA--CB-[CG1] |==|  0.41574
USER: genes 27 Torsion [CA]-CB--CG1-[CD1] |==|  0.58677
ROOT
ATOM      1  C   VAL C   3      55.541  28.806  34.399  1.00 15.94 LIG 0.24  C 
ATOM      2 O    VAL C   3      55.356  29.137  33.244  1.00 17.86 LIG-0.27  OA
ATOM      3  N   TYR C   4      54.614  28.149  35.088  1.00 16.41 LIG-0.35  N 
ATOM      4 H    TYR C   4      54.702  27.916  35.912  1.00 16.41 LIG 0.16  HD
ENDROOT
BRANCH 1 5
ATOM      5  CA  VAL C   3      56.860  29.190  35.101  1.00 16.01 LIG 0.18  C 
BRANCH 5 6
ATOM      6  N   VAL C   3      56.504  30.101  36.209  1.00 15.77 LIG-0.35  N 
ATOM      7 H    VAL C   3      55.794  29.890  36.648  1.00 15.77 LIG 0.16  HD
ATOM      8  C   ARG C   2      57.265  31.153  36.458  1.00 16.54 LIG 0.24  C 
ATOM      9 O    ARG C   2      58.343  31.360  35.861  1.00 14.63 LIG-0.27  OA
BRANCH 8 10
ATOM     10  CA  ARG C   2      56.788  32.109  37.535  1.00 19.03 LIG 0.18  C 
BRANCH 10 11
ATOM     11  CB  ARG C   2      57.622  33.393  37.471  1.00 20.38 LIG 0.04  C 
BRANCH 11 12
ATOM     12  CG  ARG C   2      56.878  34.645  37.794  1.00 20.75 LIG 0.02  C 
BRANCH 12 13
ATOM     13  CD  ARG C   2      55.707  34.796  36.929  1.00 22.55 LIG 0.14  C 
BRANCH 13 14
ATOM     14  NE  ARG C   2      55.509  36.155  36.502  1.00 20.36 LIG-0.23  N 
ATOM     15  CZ  ARG C   2      54.640  36.986  37.037  1.00 23.11 LIG 0.67  C 
ATOM     16  NH1 ARG C   2      53.982  36.656  38.093  1.00 23.20 LIG-0.23  N 
ATOM     17  NH2 ARG C   2      54.518  38.218  36.529  1.00 25.55 LIG-0.23  N 
ATOM     18 1HH1 ARG C   2      54.110  35.887  38.456  1.00 23.20 LIG 0.17  HD
ATOM     19 2HH1 ARG C   2      53.416  37.205  38.436  1.00 23.20 LIG 0.17  HD
ATOM     20 2HH2 ARG C   2      53.954  38.770  36.870  1.00 25.55 LIG 0.17  HD
ATOM     21 1HH2 ARG C   2      55.005  38.458  35.862  1.00 25.55 LIG 0.17  HD
ATOM     22 HE   ARG C   2      55.993  36.444  35.853  1.00 20.36 LIG 0.18  HD
ENDBRANCH 13 14
ENDBRANCH 12 13
ENDBRANCH 11 12
ENDBRANCH 10 11
BRANCH 10 23
ATOM     23  N   ARG C   2      56.891  31.494  38.869  1.00 19.42 LIG-0.35  N 
ATOM     24  C   ASP C   1      55.973  30.624  39.266  1.00 19.51 LIG 0.25  C 
ATOM     25 O    ASP C   1      55.153  30.120  38.481  1.00 19.29 LIG-0.27  OA
ATOM     26 H    ARG C   2      57.568  31.743  39.337  1.00 19.42 LIG 0.16  HD
BRANCH 24 27
ATOM     27  CA  ASP C   1      55.922  30.264  40.741  1.00 19.04 LIG 0.28  C 
BRANCH 27 28
ATOM     28  CB  ASP C   1      56.697  28.991  40.965  1.00 21.34 LIG 0.15  C 
BRANCH 28 29
ATOM     29  CG  ASP C   1      55.796  27.733  40.863  1.00 23.67 LIG 0.17  C 
ATOM     30 OD2  ASP C   1      54.988  27.515  41.806  1.00 27.41 LIG-0.65  OA
ATOM     31 OD1  ASP C   1      55.910  26.950  39.864  1.00 20.87 LIG-0.65  OA
ENDBRANCH 28 29
ENDBRANCH 27 28
BRANCH 27 32
ATOM     32  N   ASP C   1      54.471  30.080  41.109  1.00 18.38 LIG-0.07  N 
ATOM     33 H1   ASP C   1      54.413  29.585  41.847  1.00 18.38 LIG 0.28  HD
ATOM     34 H3   ASP C   1      54.045  29.671  40.444  1.00 18.38 LIG 0.28  HD
ATOM     35 H2   ASP C   1      54.098  30.875  41.255  1.00 18.38 LIG 0.28  HD
ENDBRANCH 27 32
ENDBRANCH 24 27
ENDBRANCH 10 23
ENDBRANCH 8 10
ENDBRANCH 5 6
BRANCH 5 36
ATOM     36  CB  VAL C   3      57.511  27.911  35.580  1.00 17.74 LIG 0.01  C 
ATOM     37  CG1 VAL C   3      59.020  27.978  35.477  1.00 20.72 LIG 0.01  C 
ATOM     38  CG2 VAL C   3      57.158  27.625  37.028  1.00 18.64 LIG 0.01  C 
ENDBRANCH 5 36
ENDBRANCH 1 5
BRANCH 3 39
ATOM     39  CA  TYR C   4      53.344  27.762  34.486  1.00 17.90 LIG 0.18  C 
BRANCH 39 40
ATOM     40  CB  TYR C   4      52.284  28.780  34.776  1.00 20.19 LIG 0.07  C 
BRANCH 40 41
ATOM     41  CG  TYR C   4      52.668  30.217  34.547  1.00 23.00 LIG-0.06  A 
ATOM     42  CD2 TYR C   4      53.616  30.836  35.363  1.00 26.62 LIG 0.01  A 
ATOM     43  CE2 TYR C   4      53.978  32.155  35.175  1.00 28.63 LIG 0.04  A 
ATOM     44  CZ  TYR C   4      53.393  32.867  34.174  1.00 25.42 LIG 0.07  A 
ATOM     45  CE1 TYR C   4      52.502  32.288  33.335  1.00 26.89 LIG 0.04  A 
ATOM     46  CD1 TYR C   4      52.131  30.950  33.528  1.00 24.41 LIG 0.01  A 
BRANCH 44 47
ATOM     47 OH   TYR C   4      53.758  34.169  33.986  1.00 32.39 LIG-0.36  OA
ATOM     48 HH   TYR C   4      54.147  34.246  33.245  1.00 32.39 LIG 0.22  HD
ENDBRANCH 44 47
ENDBRANCH 40 41
ENDBRANCH 39 40
BRANCH 39 49
ATOM     49  C   TYR C   4      53.457  27.463  32.963  1.00 20.63 LIG 0.24  C 
ATOM     50 O    TYR C   4      54.072  26.516  32.559  1.00 19.73 LIG-0.27  OA
ATOM     51  N   ILE C   5      52.736  28.228  32.157  1.00 22.91 LIG-0.35  N 
ATOM     52 H    ILE C   5      52.191  28.836  32.427  1.00 22.91 LIG 0.16  HD
BRANCH 51 53
ATOM     53  CA  ILE C   5      52.821  28.089  30.714  1.00 27.58 LIG 0.18  C 
BRANCH 53 54
ATOM     54  C   ILE C   5      53.478  29.331  30.118  1.00 33.14 LIG 0.24  C 
ATOM     55  N   HIS C   6      52.978  30.520  30.478  1.00 39.14 LIG-0.35  N 
ATOM     56 H    HIS C   6      52.278  30.603  30.972  1.00 39.14 LIG 0.16  HD
ATOM     57 O    ILE C   5      54.351  29.175  29.268  1.00 25.88 LIG-0.27  OA
BRANCH 55 58
ATOM     58  CA  HIS C   6      53.577  31.841  30.064  1.00 56.87 LIG 0.17  C 
BRANCH 58 59
ATOM     59  CB  HIS C   6      52.548  32.994  30.249  1.00 66.39 LIG 0.09  C 
BRANCH 59 60
ATOM     60  CG  HIS C   6      51.109  32.569  30.178  1.00 78.50 LIG 0.06  A 
ATOM     61  CD2 HIS C   6      50.340  32.237  29.110  1.00 82.71 LIG 0.14  A 
ATOM     62 NE2  HIS C   6      49.104  31.873  29.592  1.00 84.02 LIG-0.25  NA
ATOM     63  CE1 HIS C   6      49.115  31.955  30.912  1.00 85.20 LIG 0.23  A 
ATOM     64 ND1  HIS C   6      50.315  32.366  31.293  1.00 88.66 LIG-0.24  NA
ENDBRANCH 59 60
ENDBRANCH 58 59
BRANCH 58 65
ATOM     65  C   HIS C   6      54.879  32.273  30.754  1.00 59.18 LIG 0.22  C 
ATOM     66 O    HIS C   6      55.651  33.102  30.202  1.00 63.69 LIG-0.29  OA
ENDBRANCH 58 65
ENDBRANCH 55 58
ENDBRANCH 53 54
BRANCH 53 67
ATOM     67  CB  ILE C   5      51.434  27.843  30.135  1.00 28.54 LIG 0.01  C 
ATOM     68  CG2 ILE C   5      50.397  28.431  31.090  1.00 32.34 LIG 0.01  C 
BRANCH 67 69
ATOM     69  CG1 ILE C   5      51.420  28.446  28.720  1.00 30.21 LIG 0.00  C 
ATOM     70  CD1 ILE C   5      50.098  28.986  28.235  1.00 32.85 LIG 0.01  C 
ENDBRANCH 67 69
ENDBRANCH 53 67
ENDBRANCH 51 53
ENDBRANCH 39 49
ENDBRANCH 3 39
TORSDOF 26
ENDMDL
MODEL 3
USER: ADFR SOLUTION from run 136
USER: SCORE 21.668359 LL:  -5.281 LR: -18.464 RR:   0.000 FEB: -10.708
USER: RMSD 8.579644
USER: SEED 135
USER: STATUS no improvement in best in 12 clusters for 5 generations
USER: GENES 28
USER: genes 0 Translation |==|  0.65685 0.60148 0.57925
USER: genes 1 Rotation |==|  0.22817 0.18519 0.22310 0.51821
USER: genes 2 Torsion [N]-C--CA-[N] |==|  0.91582
USER: genes 3 Torsion [C]-CA--N-[C] |==|  0.48488
USER: genes 4 Torsion [N]-C--CA-[N] |==|  0.97433
USER: genes 5 Torsion [C]-CA--CB-[CG] |==|  0.10970
USER: genes 6 Torsion [CA]-CB--CG-[CD] |==|  0.28933
USER: genes 7 Torsion [CB]-CG--CD-[NE] |==|  0.82567
USER: genes 8 Torsion [CG]-CD--NE-[CZ] |==|  0.59873
USER: genes 9 Torsion [C]-CA--N-[C] |==|  0.64445
USER: genes 10 Torsion [N]-C--CA-[N] |==|  0.36672
USER: genes 11 Torsion [C]-CA--CB-[CG] |==|  0.56613
USER: genes 12 Torsion [CA]-CB--CG-[OD2] |==|  0.71832
USER: genes 13 Torsion [C]-CA--N-[H1] |==|  0.69794
USER: genes 14 Torsion [C]-CA--CB-[CG1] |==|  0.91694
USER: genes 15 Torsion [C]-N--CA-[CB] |==|  0.83145
USER: genes 16 Torsion [N]-CA--CB-[CG] |==|  0.68866
USER: genes 17 Torsion [CA]-CB--CG-[CD2] |==|  0.09274
USER: genes 18 Torsion [CE2]-CZ--OH-[HH] |==|  0.65871
USER: genes 19 Torsion [N]-CA--C-[N] |==|  0.31945
USER: genes 20 Torsion [C]-N--CA-[C] |==|  0.74253
USER: genes 21 Torsion [N]-CA--C-[N] |==|  0.02389
USER: genes 22 Torsion [C]-N--CA-[CB] |==|  0.13095
USER: genes 23 Torsion [N]-CA--CB-[CG] |==|  0.65429
USER: genes 24 Torsion [CA]-CB--CG-[CD2] |==|  0.31062
USER: genes 25 Torsion [N]-CA--C-[O] |==|  0.95468
USER: genes 26 Torsion [N]-CA--CB-[CG1] |==|  0.61831
USER: genes 27 Torsion [CA]-CB--CG1-[CD1] |==|  0.11109
ROOT
ATOM      1  C   VAL C   3      56.850  31.918  36.441  1.00 15.94 LIG 0.24  C 
ATOM      2 O    VAL C   3      57.656  31.128  35.990  1.00 17.86 LIG-0.27  OA
ATOM      3  N   TYR C   4      55.686  31.511  36.940  1.00 16.41 LIG-0.35  N 
ATOM      4 H    TYR C   4      55.085  32.043  37.250  1.00 16.41 LIG 0.16  HD
ENDROOT
BRANCH 1 5
ATOM      5  CA  VAL C   3      57.157  33.428  36.401  1.00 16.01 LIG 0.18  C 
BRANCH 5 6
ATOM      6  N   VAL C   3      55.861  34.123  36.246  1.00 15.77 LIG-0.35  N 
ATOM      7 H    VAL C   3      55.179  33.612  36.131  1.00 15.77 LIG 0.16  HD
ATOM      8  C   ARG C   2      55.821  35.444  36.290  1.00 16.54 LIG 0.24  C 
ATOM      9 O    ARG C   2      56.823  36.139  36.565  1.00 14.63 LIG-0.27  OA
BRANCH 8 10
ATOM     10  CA  ARG C   2      54.482  36.102  36.015  1.00 19.03 LIG 0.18  C 
BRANCH 10 11
ATOM     11  CB  ARG C   2      53.978  36.769  37.299  1.00 20.38 LIG 0.04  C 
BRANCH 11 12
ATOM     12  CG  ARG C   2      55.027  37.451  38.111  1.00 20.75 LIG 0.02  C 
BRANCH 12 13
ATOM     13  CD  ARG C   2      54.951  38.904  37.952  1.00 22.55 LIG 0.14  C 
BRANCH 13 14
ATOM     14  NE  ARG C   2      55.199  39.323  36.599  1.00 20.36 LIG-0.23  N 
ATOM     15  CZ  ARG C   2      55.831  40.428  36.264  1.00 23.11 LIG 0.67  C 
ATOM     16  NH1 ARG C   2      56.394  41.158  37.162  1.00 23.20 LIG-0.23  N 
ATOM     17  NH2 ARG C   2      55.969  40.733  34.968  1.00 25.55 LIG-0.23  N 
ATOM     18 1HH1 ARG C   2      56.360  40.926  37.989  1.00 23.20 LIG 0.17  HD
ATOM     19 2HH1 ARG C   2      56.805  41.879  36.934  1.00 23.20 LIG 0.17  HD
ATOM     20 2HH2 ARG C   2      56.380  41.452  34.737  1.00 25.55 LIG 0.17  HD
ATOM     21 1HH2 ARG C   2      55.646  40.209  34.366  1.00 25.55 LIG 0.17  HD
ATOM     22 HE   ARG C   2      54.915  38.817  35.965  1.00 20.36 LIG 0.18  HD
ENDBRANCH 13 14
ENDBRANCH 12 13
ENDBRANCH 11 12
ENDBRANCH 10 11
BRANCH 10 23
ATOM     23  N   ARG C   2      53.502  35.117  35.528  1.00 19.42 LIG-0.35  N 
ATOM     24  C   ASP C   1      52.831  35.353  34.409  1.00 19.51 LIG 0.25  C 
ATOM     25 O    ASP C   1      53.154  36.257  33.620  1.00 19.29 LIG-0.27  OA
ATOM     26 H    ARG C   2      53.414  34.414  36.015  1.00 19.42 LIG 0.16  HD
BRANCH 24 27
ATOM     27  CA  ASP C   1      51.614  34.494  34.112  1.00 19.04 LIG 0.28  C 
BRANCH 27 28
ATOM     28  CB  ASP C   1      51.941  33.548  32.986  1.00 21.34 LIG 0.15  C 
BRANCH 28 29
ATOM     29  CG  ASP C   1      50.671  33.074  32.234  1.00 23.67 LIG 0.17  C 
ATOM     30 OD2  ASP C   1      50.227  31.924  32.503  1.00 27.41 LIG-0.65  OA
ATOM     31 OD1  ASP C   1      50.131  33.829  31.360  1.00 20.87 LIG-0.65  OA
ENDBRANCH 28 29
ENDBRANCH 27 28
BRANCH 27 32
ATOM     32  N   ASP C   1      50.492  35.424  33.722  1.00 18.38 LIG-0.07  N 
ATOM     33 H1   ASP C   1      49.886  35.446  34.374  1.00 18.38 LIG 0.28  HD
ATOM     34 H3   ASP C   1      50.112  35.132  32.973  1.00 18.38 LIG 0.28  HD
ATOM     35 H2   ASP C   1      50.816  36.242  33.591  1.00 18.38 LIG 0.28  HD
ENDBRANCH 27 32
ENDBRANCH 24 27
ENDBRANCH 10 23
ENDBRANCH 8 10
ENDBRANCH 5 6
BRANCH 5 36
ATOM     36  CB  VAL C   3      57.863  33.786  37.690  1.00 17.74 LIG 0.01  C 
ATOM     37  CG1 VAL C   3      57.432  32.890  38.832  1.00 20.72 LIG 0.01  C 
ATOM     38  CG2 VAL C   3      59.369  33.656  37.544  1.00 18.64 LIG 0.01  C 
ENDBRANCH 5 36
ENDBRANCH 1 5
BRANCH 3 39
ATOM     39  CA  TYR C   4      55.332  30.099  37.002  1.00 17.90 LIG 0.18  C 
BRANCH 39 40
ATOM     40  CB  TYR C   4      55.302  29.496  35.631  1.00 20.19 LIG 0.07  C 
BRANCH 40 41
ATOM     41  CG  TYR C   4      53.948  29.080  35.121  1.00 23.00 LIG-0.06  A 
ATOM     42  CD2 TYR C   4      52.806  29.799  35.475  1.00 26.62 LIG 0.01  A 
ATOM     43  CE2 TYR C   4      51.554  29.432  35.024  1.00 28.63 LIG 0.04  A 
ATOM     44  CZ  TYR C   4      51.433  28.341  34.219  1.00 25.42 LIG 0.07  A 
ATOM     45  CE1 TYR C   4      52.522  27.645  33.819  1.00 26.89 LIG 0.04  A 
ATOM     46  CD1 TYR C   4      53.794  28.016  34.280  1.00 24.41 LIG 0.01  A 
BRANCH 44 47
ATOM     47 OH   TYR C   4      50.194  27.985  33.770  1.00 32.39 LIG-0.36  OA
ATOM     48 HH   TYR C   4      50.030  27.194  34.001  1.00 32.39 LIG 0.22  HD
ENDBRANCH 44 47
ENDBRANCH 40 41
ENDBRANCH 39 40
BRANCH 39 49
ATOM     49  C   TYR C   4      56.237  29.285  37.972  1.00 20.63 LIG 0.24  C 
ATOM     50 O    TYR C   4      57.426  29.232  37.818  1.00 19.73 LIG-0.27  OA
ATOM     51  N   ILE C   5      55.643  28.766  39.036  1.00 22.91 LIG-0.35  N 
ATOM     52 H    ILE C   5      54.816  28.889  39.237  1.00 22.91 LIG 0.16  HD
BRANCH 51 53
ATOM     53  CA  ILE C   5      56.373  27.925  39.968  1.00 27.58 LIG 0.18  C 
BRANCH 53 54
ATOM     54  C   ILE C   5      56.216  26.460  39.567  1.00 33.14 LIG 0.24  C 
ATOM     55  N   HIS C   6      55.626  26.208  38.391  1.00 39.14 LIG-0.35  N 
ATOM     56 H    HIS C   6      55.286  26.825  37.897  1.00 39.14 LIG 0.16  HD
ATOM     57 O    ILE C   5      56.537  25.598  40.380  1.00 25.88 LIG-0.27  OA
BRANCH 55 58
ATOM     58  CA  HIS C   6      55.489  24.827  37.802  1.00 56.87 LIG 0.17  C 
BRANCH 58 59
ATOM     59  CB  HIS C   6      54.966  23.822  38.870  1.00 66.39 LIG 0.09  C 
BRANCH 59 60
ATOM     60  CG  HIS C   6      55.838  22.616  39.077  1.00 78.50 LIG 0.06  A 
ATOM     61  CD2 HIS C   6      56.592  22.247  40.143  1.00 82.71 LIG 0.14  A 
ATOM     62 NE2  HIS C   6      57.159  21.030  39.843  1.00 84.02 LIG-0.25  NA
ATOM     63  CE1 HIS C   6      56.753  20.650  38.642  1.00 85.20 LIG 0.23  A 
ATOM     64 ND1  HIS C   6      55.949  21.585  38.160  1.00 88.66 LIG-0.24  NA
ENDBRANCH 59 60
ENDBRANCH 58 59
BRANCH 58 65
ATOM     65  C   HIS C   6      54.604  24.675  36.557  1.00 59.18 LIG 0.22  C 
ATOM     66 O    HIS C   6      53.789  25.580  36.236  1.00 63.69 LIG-0.29  OA
ENDBRANCH 58 65
ENDBRANCH 55 58
ENDBRANCH 53 54
BRANCH 53 67
ATOM     67  CB  ILE C   5      55.888  28.183  41.388  1.00 28.54 LIG 0.01  C 
ATOM     68  CG2 ILE C   5      54.878  27.100  41.762  1.00 32.34 LIG 0.01  C 
BRANCH 67 69
ATOM     69  CG1 ILE C   5      57.133  28.240  42.290  1.00 30.21 LIG 0.00  C 
ATOM     70  CD1 ILE C   5      58.338  28.948  41.724  1.00 32.85 LIG 0.01  C 
ENDBRANCH 67 69
ENDBRANCH 53 67
ENDBRANCH 51 53
ENDBRANCH 39 49
ENDBRANCH 3 39
TORSDOF 26
ENDMDL
MODEL 4
USER: ADFR SOLUTION from run 83
USER: SCORE 23.881762 LL:  -6.433 LR: -18.421 RR:   0.000 FEB: -10.665
USER: RMSD 5.598598
USER: SEED 82
USER: STATUS no improvement in best in 4 clusters for 5 generations
USER: GENES 28
USER: genes 0 Translation |==|  0.72141 0.40591 0.55581
USER: genes 1 Rotation |==|  0.39322 0.56297 0.64198 0.96311
USER: genes 2 Torsion [N]-C--CA-[N] |==|  0.42232
USER: genes 3 Torsion [C]-CA--N-[C] |==|  0.72097
USER: genes 4 Torsion [N]-C--CA-[N] |==|  0.11256
USER: genes 5 Torsion [C]-CA--CB-[CG] |==|  0.57329
USER: genes 6 Torsion [CA]-CB--CG-[CD] |==|  0.57944
USER: genes 7 Torsion [CB]-CG--CD-[NE] |==|  0.43237
USER: genes 8 Torsion [CG]-CD--NE-[CZ] |==|  0.55060
USER: genes 9 Torsion [C]-CA--N-[C] |==|  0.73497
USER: genes 10 Torsion [N]-C--CA-[N] |==|  0.39429
USER: genes 11 Torsion [C]-CA--CB-[CG] |==|  0.81520
USER: genes 12 Torsion [CA]-CB--CG-[OD2] |==|  0.75546
USER: genes 13 Torsion [C]-CA--N-[H1] |==|  0.69513
USER: genes 14 Torsion [C]-CA--CB-[CG1] |==|  0.62997
USER: genes 15 Torsion [C]-N--CA-[CB] |==|  0.84428
USER: genes 16 Torsion [N]-CA--CB-[CG] |==|  0.84086
USER: genes 17 Torsion [CA]-CB--CG-[CD2] |==|  0.44694
USER: genes 18 Torsion [CE2]-CZ--OH-[HH] |==|  0.77507
USER: genes 19 Torsion [N]-CA--C-[N] |==|  0.84721
USER: genes 20 Torsion [C]-N--CA-[C] |==|  0.81665
USER: genes 21 Torsion [N]-CA--C-[N] |==|  0.42998
USER: genes 22 Torsion [C]-N--CA-[CB] |==|  0.33936
USER: genes 23 Torsion [N]-CA--CB-[CG] |==|  0.82736
USER: genes 24 Torsion [CA]-CB--CG-[CD2] |==|  0.47651
USER: genes 25 Torsion [N]-CA--C-[O] |==|  0.39690
USER: genes 26 Torsion [N]-CA--CB-[CG1] |==|  0.19389
USER: genes 27 Torsion [CA]-CB--CG1-[CD1] |==|  0.44814
ROOT
ATOM      1  C   VAL C   3      57.963  26.931  35.826  1.00 15.94 LIG 0.24  C 
ATOM      2 O    VAL C   3      56.796  26.752  36.116  1.00 17.86 LIG-0.27  OA
ATOM      3  N   TYR C   4      58.517  26.328  34.779  1.00 16.41 LIG-0.35  N 
ATOM      4 H    TYR C   4      59.343  26.416  34.556  1.00 16.41 LIG 0.16  HD
ENDROOT
BRANCH 1 5
ATOM      5  CA  VAL C   3      58.838  27.842  36.711  1.00 16.01 LIG 0.18  C 
BRANCH 5 6
ATOM      6  N   VAL C   3      57.937  28.853  37.304  1.00 15.77 LIG-0.35  N 
ATOM      7 H    VAL C   3      57.478  28.588  37.981  1.00 15.77 LIG 0.16  HD
ATOM      8  C   ARG C   2      57.886  30.067  36.780  1.00 16.54 LIG 0.24  C 
ATOM      9 O    ARG C   2      58.650  30.436  35.863  1.00 14.63 LIG-0.27  OA
BRANCH 8 10
ATOM     10  CA  ARG C   2      56.864  31.024  37.362  1.00 19.03 LIG 0.18  C 
BRANCH 10 11
ATOM     11  CB  ARG C   2      57.235  32.457  36.963  1.00 20.38 LIG 0.04  C 
BRANCH 11 12
ATOM     12  CG  ARG C   2      56.755  33.517  37.896  1.00 20.75 LIG 0.02  C 
BRANCH 12 13
ATOM     13  CD  ARG C   2      56.531  34.777  37.186  1.00 22.55 LIG 0.14  C 
BRANCH 13 14
ATOM     14  NE  ARG C   2      55.583  35.625  37.856  1.00 20.36 LIG-0.23  N 
ATOM     15  CZ  ARG C   2      54.949  36.630  37.289  1.00 23.11 LIG 0.67  C 
ATOM     16  NH1 ARG C   2      55.052  36.838  36.023  1.00 23.20 LIG-0.23  N 
ATOM     17  NH2 ARG C   2      54.116  37.374  38.026  1.00 25.55 LIG-0.23  N 
ATOM     18 1HH1 ARG C   2      55.538  36.319  35.540  1.00 23.20 LIG 0.17  HD
ATOM     19 2HH1 ARG C   2      54.635  37.497  35.661  1.00 23.20 LIG 0.17  HD
ATOM     20 2HH2 ARG C   2      53.696  38.033  37.667  1.00 25.55 LIG 0.17  HD
ATOM     21 1HH2 ARG C   2      54.000  37.193  38.859  1.00 25.55 LIG 0.17  HD
ATOM     22 HE   ARG C   2      55.418  35.464  38.684  1.00 20.36 LIG 0.18  HD
ENDBRANCH 13 14
ENDBRANCH 12 13
ENDBRANCH 11 12
ENDBRANCH 10 11
BRANCH 10 23
ATOM     23  N   ARG C   2      56.798  30.899  38.827  1.00 19.42 LIG-0.35  N 
ATOM     24  C   ASP C   1      55.881  30.119  39.382  1.00 19.51 LIG 0.25  C 
ATOM     25 O    ASP C   1      55.220  29.300  38.722  1.00 19.29 LIG-0.27  OA
ATOM     26 H    ARG C   2      57.381  31.358  39.262  1.00 19.42 LIG 0.16  HD
BRANCH 24 27
ATOM     27  CA  ASP C   1      55.628  30.263  40.872  1.00 19.04 LIG 0.28  C 
BRANCH 27 28
ATOM     28  CB  ASP C   1      56.397  29.196  41.609  1.00 21.34 LIG 0.15  C 
BRANCH 28 29
ATOM     29  CG  ASP C   1      55.864  27.773  41.300  1.00 23.67 LIG 0.17  C 
ATOM     30 OD2  ASP C   1      54.925  27.332  42.019  1.00 27.41 LIG-0.65  OA
ATOM     31 OD1  ASP C   1      56.392  27.086  40.366  1.00 20.87 LIG-0.65  OA
ENDBRANCH 28 29
ENDBRANCH 27 28
BRANCH 27 32
ATOM     32  N   ASP C   1      54.145  30.104  41.094  1.00 18.38 LIG-0.07  N 
ATOM     33 H1   ASP C   1      53.794  30.889  41.325  1.00 18.38 LIG 0.28  HD
ATOM     34 H3   ASP C   1      54.003  29.513  41.744  1.00 18.38 LIG 0.28  HD
ATOM     35 H2   ASP C   1      53.761  29.817  40.345  1.00 18.38 LIG 0.28  HD
ENDBRANCH 27 32
ENDBRANCH 24 27
ENDBRANCH 10 23
ENDBRANCH 8 10
ENDBRANCH 5 6
BRANCH 5 36
ATOM     36  CB  VAL C   3      59.501  26.966  37.752  1.00 17.74 LIG 0.01  C 
ATOM     37  CG1 VAL C   3      59.393  27.563  39.139  1.00 20.72 LIG 0.01  C 
ATOM     38  CG2 VAL C   3      58.869  25.587  37.791  1.00 18.64 LIG 0.01  C 
ENDBRANCH 5 36
ENDBRANCH 1 5
BRANCH 3 39
ATOM     39  CA  TYR C   4      57.748  25.451  33.905  1.00 17.90 LIG 0.18  C 
BRANCH 39 40
ATOM     40  CB  TYR C   4      57.106  24.348  34.690  1.00 20.19 LIG 0.07  C 
BRANCH 40 41
ATOM     41  CG  TYR C   4      58.038  23.478  35.491  1.00 23.00 LIG-0.06  A 
ATOM     42  CD2 TYR C   4      57.552  22.699  36.543  1.00 26.62 LIG 0.01  A 
ATOM     43  CE2 TYR C   4      58.389  21.899  37.294  1.00 28.63 LIG 0.04  A 
ATOM     44  CZ  TYR C   4      59.718  21.873  37.004  1.00 25.42 LIG 0.07  A 
ATOM     45  CE1 TYR C   4      60.219  22.580  35.964  1.00 26.89 LIG 0.04  A 
ATOM     46  CD1 TYR C   4      59.370  23.395  35.203  1.00 24.41 LIG 0.01  A 
BRANCH 44 47
ATOM     47 OH   TYR C   4      60.542  21.075  37.744  1.00 32.39 LIG-0.36  OA
ATOM     48 HH   TYR C   4      60.735  21.464  38.464  1.00 32.39 LIG 0.22  HD
ENDBRANCH 44 47
ENDBRANCH 40 41
ENDBRANCH 39 40
BRANCH 39 49
ATOM     49  C   TYR C   4      56.713  26.214  33.030  1.00 20.63 LIG 0.24  C 
ATOM     50 O    TYR C   4      56.633  26.021  31.849  1.00 19.73 LIG-0.27  OA
ATOM     51  N   ILE C   5      55.849  26.985  33.676  1.00 22.91 LIG-0.35  N 
ATOM     52 H    ILE C   5      55.804  27.048  34.532  1.00 22.91 LIG 0.16  HD
BRANCH 51 53
ATOM     53  CA  ILE C   5      54.888  27.802  32.956  1.00 27.58 LIG 0.18  C 
BRANCH 53 54
ATOM     54  C   ILE C   5      55.624  28.882  32.167  1.00 33.14 LIG 0.24  C 
ATOM     55  N   HIS C   6      55.008  29.374  31.084  1.00 39.14 LIG-0.35  N 
ATOM     56 H    HIS C   6      54.260  29.066  30.791  1.00 39.14 LIG 0.16  HD
ATOM     57 O    ILE C   5      56.772  29.164  32.500  1.00 25.88 LIG-0.27  OA
BRANCH 55 58
ATOM     58  CA  HIS C   6      55.549  30.514  30.259  1.00 56.87 LIG 0.17  C 
BRANCH 58 59
ATOM     59  CB  HIS C   6      55.741  30.080  28.777  1.00 66.39 LIG 0.09  C 
BRANCH 59 60
ATOM     60  CG  HIS C   6      56.731  28.967  28.572  1.00 78.50 LIG 0.06  A 
ATOM     61  CD2 HIS C   6      57.029  28.247  27.462  1.00 82.71 LIG 0.14  A 
ATOM     62 NE2  HIS C   6      58.045  27.381  27.795  1.00 84.02 LIG-0.25  NA
ATOM     63  CE1 HIS C   6      58.377  27.575  29.061  1.00 85.20 LIG 0.23  A 
ATOM     64 ND1  HIS C   6      57.605  28.531  29.552  1.00 88.66 LIG-0.24  NA
ENDBRANCH 59 60
ENDBRANCH 58 59
BRANCH 58 65
ATOM     65  C   HIS C   6      54.748  31.824  30.253  1.00 59.18 LIG 0.22  C 
ATOM     66 O    HIS C   6      55.339  32.936  30.236  1.00 63.69 LIG-0.29  OA
ENDBRANCH 58 65
ENDBRANCH 55 58
ENDBRANCH 53 54
BRANCH 53 67
ATOM     67  CB  ILE C   5      53.879  28.395  33.931  1.00 28.54 LIG 0.01  C 
ATOM     68  CG2 ILE C   5      53.252  27.257  34.734  1.00 32.34 LIG 0.01  C 
BRANCH 67 69
ATOM     69  CG1 ILE C   5      54.626  29.442  34.775  1.00 30.21 LIG 0.00  C 
ATOM     70  CD1 ILE C   5      53.771  30.455  35.494  1.00 32.85 LIG 0.01  C 
ENDBRANCH 67 69
ENDBRANCH 53 67
ENDBRANCH 51 53
ENDBRANCH 39 49
ENDBRANCH 3 39
TORSDOF 26
ENDMDL
MODEL 5
USER: ADFR SOLUTION from run 103
USER: SCORE 21.015090 LL:  -5.919 LR: -18.395 RR:   0.000 FEB: -10.639
USER: RMSD 9.400500
USER: SEED 102
USER: STATUS no improvement in best in 6 clusters for 5 generations
USER: GENES 28
USER: genes 0 Translation |==|  0.53239 0.54544 0.53422
USER: genes 1 Rotation |==|  0.40174 0.10285 0.68265 0.72193
USER: genes 2 Torsion [N]-C--CA-[N] |==|  0.22526
USER: genes 3 Torsion [C]-CA--N-[C] |==|  0.15704
USER: genes 4 Torsion [N]-C--CA-[N] |==|  0.22959
USER: genes 5 Torsion [C]-CA--CB-[CG] |==|  0.12001
USER: genes 6 Torsion [CA]-CB--CG-[CD] |==|  0.60216
USER: genes 7 Torsion [CB]-CG--CD-[NE] |==|  0.29467
USER: genes 8 Torsion [CG]-CD--NE-[CZ] |==|  0.72174
USER: genes 9 Torsion [C]-CA--N-[C] |==|  0.62245
USER: genes 10 Torsion [N]-C--CA-[N] |==|  0.00309
USER: genes 11 Torsion [C]-CA--CB-[CG] |==|  0.76806
USER: genes 12 Torsion [CA]-CB--CG-[OD2] |==|  0.11366
USER: genes 13 Torsion [C]-CA--N-[H1] |==|  0.62930
USER: genes 14 Torsion [C]-CA--CB-[CG1] |==|  0.16194
USER: genes 15 Torsion [C]-N--CA-[CB] |==|  0.46208
USER: genes 16 Torsion [N]-CA--CB-[CG] |==|  0.84701
USER: genes 17 Torsion [CA]-CB--CG-[CD2] |==|  0.04133
USER: genes 18 Torsion [CE2]-CZ--OH-[HH] |==|  0.13484
USER: genes 19 Torsion [N]-CA--C-[N] |==|  0.89931
USER: genes 20 Torsion [C]-N--CA-[C] |==|  0.67273
USER: genes 21 Torsion [N]-CA--C-[N] |==|  0.65556
USER: genes 22 Torsion [C]-N--CA-[CB] |==|  0.60367
USER: genes 23 Torsion [N]-CA--CB-[CG] |==|  0.91406
USER: genes 24 Torsion [CA]-CB--CG-[CD2] |==|  0.79418
USER: genes 25 Torsion [N]-CA--C-[O] |==|  0.72711
USER: genes 26 Torsion [N]-CA--CB-[CG1] |==|  0.01124
USER: genes 27 Torsion [CA]-CB--CG1-[CD1] |==|  0.64471
ROOT
ATOM      1  C   VAL C   3      54.703  30.489  35.259  1.00 15.94 LIG 0.24  C 
ATOM      2 O    VAL C   3      55.260  30.048  34.273  1.00 17.86 LIG-0.27  OA
ATOM      3  N   TYR C   4      55.391  31.007  36.271  1.00 16.41 LIG-0.35  N 
ATOM      4 H    TYR C   4      55.032  31.310  36.992  1.00 16.41 LIG 0.16  HD
ENDROOT
BRANCH 1 5
ATOM      5  CA  VAL C   3      53.166  30.410  35.366  1.00 16.01 LIG 0.18  C 
BRANCH 5 6
ATOM      6  N   VAL C   3      52.645  31.749  35.015  1.00 15.77 LIG-0.35  N 
ATOM      7 H    VAL C   3      52.149  32.120  35.612  1.00 15.77 LIG 0.16  HD
ATOM      8  C   ARG C   2      52.959  32.284  33.847  1.00 16.54 LIG 0.24  C 
ATOM      9 O    ARG C   2      53.769  31.752  33.059  1.00 14.63 LIG-0.27  OA
BRANCH 8 10
ATOM     10  CA  ARG C   2      52.306  33.608  33.500  1.00 19.03 LIG 0.18  C 
BRANCH 10 11
ATOM     11  CB  ARG C   2      52.269  33.766  31.976  1.00 20.38 LIG 0.04  C 
BRANCH 11 12
ATOM     12  CG  ARG C   2      51.867  32.542  31.224  1.00 20.75 LIG 0.02  C 
BRANCH 12 13
ATOM     13  CD  ARG C   2      52.619  32.426  29.973  1.00 22.55 LIG 0.14  C 
BRANCH 13 14
ATOM     14  NE  ARG C   2      53.626  31.402  30.030  1.00 20.36 LIG-0.23  N 
ATOM     15  CZ  ARG C   2      54.907  31.625  30.237  1.00 23.11 LIG 0.67  C 
ATOM     16  NH1 ARG C   2      55.325  32.805  30.538  1.00 23.20 LIG-0.23  N 
ATOM     17  NH2 ARG C   2      55.758  30.593  30.231  1.00 25.55 LIG-0.23  N 
ATOM     18 1HH1 ARG C   2      54.767  33.455  30.606  1.00 23.20 LIG 0.17  HD
ATOM     19 2HH1 ARG C   2      56.164  32.942  30.673  1.00 23.20 LIG 0.17  HD
ATOM     20 2HH2 ARG C   2      56.597  30.726  30.366  1.00 25.55 LIG 0.17  HD
ATOM     21 1HH2 ARG C   2      55.466  29.795  30.093  1.00 25.55 LIG 0.17  HD
ATOM     22 HE   ARG C   2      53.375  30.587  29.921  1.00 20.36 LIG 0.18  HD
ENDBRANCH 13 14
ENDBRANCH 12 13
ENDBRANCH 11 12
ENDBRANCH 10 11
BRANCH 10 23
ATOM     23  N   ARG C   2      53.032  34.731  34.117  1.00 19.42 LIG-0.35  N 
ATOM     24  C   ASP C   1      52.357  35.708  34.708  1.00 19.51 LIG 0.25  C 
ATOM     25 O    ASP C   1      51.148  35.610  34.976  1.00 19.29 LIG-0.27  OA
ATOM     26 H    ARG C   2      53.888  34.692  34.057  1.00 19.42 LIG 0.16  HD
BRANCH 24 27
ATOM     27  CA  ASP C   1      53.100  36.991  35.038  1.00 19.04 LIG 0.28  C 
BRANCH 27 28
ATOM     28  CB  ASP C   1      52.424  38.145  34.344  1.00 21.34 LIG 0.15  C 
BRANCH 28 29
ATOM     29  CG  ASP C   1      52.891  38.297  32.873  1.00 23.67 LIG 0.17  C 
ATOM     30 OD2  ASP C   1      53.041  37.243  32.196  1.00 27.41 LIG-0.65  OA
ATOM     31 OD1  ASP C   1      53.135  39.455  32.401  1.00 20.87 LIG-0.65  OA
ENDBRANCH 28 29
ENDBRANCH 27 28
BRANCH 27 32
ATOM     32  N   ASP C   1      54.518  36.827  34.549  1.00 18.38 LIG-0.07  N 
ATOM     33 H1   ASP C   1      55.083  37.094  35.183  1.00 18.38 LIG 0.28  HD
ATOM     34 H3   ASP C   1      54.638  37.319  33.818  1.00 18.38 LIG 0.28  HD
ATOM     35 H2   ASP C   1      54.670  35.971  34.358  1.00 18.38 LIG 0.28  HD
ENDBRANCH 27 32
ENDBRANCH 24 27
ENDBRANCH 10 23
ENDBRANCH 8 10
ENDBRANCH 5 6
BRANCH 5 36
ATOM     36  CB  VAL C   3      52.698  29.331  34.414  1.00 17.74 LIG 0.01  C 
ATOM     37  CG1 VAL C   3      53.326  27.991  34.734  1.00 20.72 LIG 0.01  C 
ATOM     38  CG2 VAL C   3      51.190  29.162  34.477  1.00 18.64 LIG 0.01  C 
ENDBRANCH 5 36
ENDBRANCH 1 5
BRANCH 3 39
ATOM     39  CA  TYR C   4      56.845  31.105  36.236  1.00 17.90 LIG 0.18  C 
BRANCH 39 40
ATOM     40  CB  TYR C   4      57.345  32.007  37.323  1.00 20.19 LIG 0.07  C 
BRANCH 40 41
ATOM     41  CG  TYR C   4      56.763  33.395  37.350  1.00 23.00 LIG-0.06  A 
ATOM     42  CD2 TYR C   4      55.611  33.695  36.620  1.00 26.62 LIG 0.01  A 
ATOM     43  CE2 TYR C   4      55.064  34.962  36.626  1.00 28.63 LIG 0.04  A 
ATOM     44  CZ  TYR C   4      55.664  35.941  37.356  1.00 25.42 LIG 0.07  A 
ATOM     45  CE1 TYR C   4      56.757  35.677  38.111  1.00 26.89 LIG 0.04  A 
ATOM     46  CD1 TYR C   4      57.315  34.391  38.103  1.00 24.41 LIG 0.01  A 
BRANCH 44 47
ATOM     47 OH   TYR C   4      55.117  37.191  37.365  1.00 32.39 LIG-0.36  OA
ATOM     48 HH   TYR C   4      54.292  37.135  37.517  1.00 32.39 LIG 0.22  HD
ENDBRANCH 44 47
ENDBRANCH 40 41
ENDBRANCH 39 40
BRANCH 39 49
ATOM     49  C   TYR C   4      57.552  29.719  36.266  1.00 20.63 LIG 0.24  C 
ATOM     50 O    TYR C   4      58.614  29.550  35.735  1.00 19.73 LIG-0.27  OA
ATOM     51  N   ILE C   5      56.982  28.783  37.011  1.00 22.91 LIG-0.35  N 
ATOM     52 H    ILE C   5      56.287  28.911  37.500  1.00 22.91 LIG 0.16  HD
BRANCH 51 53
ATOM     53  CA  ILE C   5      57.512  27.432  37.053  1.00 27.58 LIG 0.18  C 
BRANCH 53 54
ATOM     54  C   ILE C   5      56.467  26.455  36.520  1.00 33.14 LIG 0.24  C 
ATOM     55  N   HIS C   6      56.107  25.445  37.323  1.00 39.14 LIG-0.35  N 
ATOM     56 H    HIS C   6      56.482  25.296  38.083  1.00 39.14 LIG 0.16  HD
ATOM     57 O    ILE C   5      56.092  26.584  35.357  1.00 25.88 LIG-0.27  OA
BRANCH 55 58
ATOM     58  CA  HIS C   6      55.016  24.459  36.990  1.00 56.87 LIG 0.17  C 
BRANCH 58 59
ATOM     59  CB  HIS C   6      54.211  24.078  38.267  1.00 66.39 LIG 0.09  C 
BRANCH 59 60
ATOM     60  CG  HIS C   6      55.007  24.102  39.542  1.00 78.50 LIG 0.06  A 
ATOM     61  CD2 HIS C   6      55.945  23.242  40.010  1.00 82.71 LIG 0.14  A 
ATOM     62 NE2  HIS C   6      56.405  23.748  41.205  1.00 84.02 LIG-0.25  NA
ATOM     63  CE1 HIS C   6      55.788  24.892  41.454  1.00 85.20 LIG 0.23  A 
ATOM     64 ND1  HIS C   6      54.944  25.134  40.463  1.00 88.66 LIG-0.24  NA
ENDBRANCH 59 60
ENDBRANCH 58 59
BRANCH 58 65
ATOM     65  C   HIS C   6      54.001  24.866  35.913  1.00 59.18 LIG 0.22  C 
ATOM     66 O    HIS C   6      52.878  25.338  36.236  1.00 63.69 LIG-0.29  OA
ENDBRANCH 58 65
ENDBRANCH 55 58
ENDBRANCH 53 54
BRANCH 53 67
ATOM     67  CB  ILE C   5      57.942  27.088  38.473  1.00 28.54 LIG 0.01  C 
ATOM     68  CG2 ILE C   5      59.432  26.754  38.464  1.00 32.34 LIG 0.01  C 
BRANCH 67 69
ATOM     69  CG1 ILE C   5      57.555  28.280  39.365  1.00 30.21 LIG 0.00  C 
ATOM     70  CD1 ILE C   5      58.649  28.848  40.234  1.00 32.85 LIG 0.01  C 
ENDBRANCH 67 69
ENDBRANCH 53 67
ENDBRANCH 51 53
ENDBRANCH 39 49
ENDBRANCH 3 39
TORSDOF 26
ENDMDL
MODEL 6
USER: ADFR SOLUTION from run 195
USER: SCORE 21.068921 LL:  -5.856 LR: -18.383 RR:   0.000 FEB: -10.627
USER: RMSD 8.647901
USER: SEED 194
USER: STATUS no improvement in best in 2 clusters for 5 generations
USER: GENES 28
USER: genes 0 Translation |==|  0.59739 0.56982 0.57240
USER: genes 1 Rotation |==|  0.27221 0.37458 0.07309 0.51120
USER: genes 2 Torsion [N]-C--CA-[N] |==|  0.37691
USER: genes 3 Torsion [C]-CA--N-[C] |==|  0.85444
USER: genes 4 Torsion [N]-C--CA-[N] |==|  0.23834
USER: genes 5 Torsion [C]-CA--CB-[CG] |==|  0.36752
USER: genes 6 Torsion [CA]-CB--CG-[CD] |==|  0.72932
USER: genes 7 Torsion [CB]-CG--CD-[NE] |==|  0.97976
USER: genes 8 Torsion [CG]-CD--NE-[CZ] |==|  0.40935
USER: genes 9 Torsion [C]-CA--N-[C] |==|  0.18805
USER: genes 10 Torsion [N]-C--CA-[N] |==|  0.37882
USER: genes 11 Torsion [C]-CA--CB-[CG] |==|  0.58251
USER: genes 12 Torsion [CA]-CB--CG-[OD2] |==|  0.22791
USER: genes 13 Torsion [C]-CA--N-[H1] |==|  0.33408
USER: genes 14 Torsion [C]-CA--CB-[CG1] |==|  0.44222
USER: genes 15 Torsion [C]-N--CA-[CB] |==|  0.35384
USER: genes 16 Torsion [N]-CA--CB-[CG] |==|  0.46130
USER: genes 17 Torsion [CA]-CB--CG-[CD2] |==|  0.68488
USER: genes 18 Torsion [CE2]-CZ--OH-[HH] |==|  0.90736
USER: genes 19 Torsion [N]-CA--C-[N] |==|  0.79808
USER: genes 20 Torsion [C]-N--CA-[C] |==|  0.62469
USER: genes 21 Torsion [N]-CA--C-[N] |==|  0.24503
USER: genes 22 Torsion [C]-N--CA-[CB] |==|  0.25008
USER: genes 23 Torsion [N]-CA--CB-[CG] |==|  0.28177
USER: genes 24 Torsion [CA]-CB--CG-[CD2] |==|  0.24042
USER: genes 25 Torsion [N]-CA--C-[O] |==|  0.10471
USER: genes 26 Torsion [N]-CA--CB-[CG1] |==|  0.83476
USER: genes 27 Torsion [CA]-CB--CG1-[CD1] |==|  0.78648
ROOT
ATOM      1  C   VAL C   3      55.824  31.111  36.261  1.00 15.94 LIG 0.24  C 
ATOM      2 O    VAL C   3      56.634  30.522  35.572  1.00 17.86 LIG-0.27  OA
ATOM      3  N   TYR C   4      54.524  31.079  35.984  1.00 16.41 LIG-0.35  N 
ATOM      4 H    TYR C   4      53.926  31.498  36.438  1.00 16.41 LIG 0.16  HD
ENDROOT
BRANCH 1 5
ATOM      5  CA  VAL C   3      56.311  31.949  37.461  1.00 16.01 LIG 0.18  C 
BRANCH 5 6
ATOM      6  N   VAL C   3      57.293  31.120  38.190  1.00 15.77 LIG-0.35  N 
ATOM      7 H    VAL C   3      58.053  31.494  38.341  1.00 15.77 LIG 0.16  HD
ATOM      8  C   ARG C   2      56.964  29.893  38.559  1.00 16.54 LIG 0.24  C 
ATOM      9 O    ARG C   2      55.812  29.432  38.410  1.00 14.63 LIG-0.27  OA
BRANCH 8 10
ATOM     10  CA  ARG C   2      58.050  29.054  39.205  1.00 19.03 LIG 0.18  C 
BRANCH 10 11
ATOM     11  CB  ARG C   2      57.767  27.572  38.935  1.00 20.38 LIG 0.04  C 
BRANCH 11 12
ATOM     12  CG  ARG C   2      58.937  26.785  38.450  1.00 20.75 LIG 0.02  C 
BRANCH 12 13
ATOM     13  CD  ARG C   2      58.915  26.659  36.992  1.00 22.55 LIG 0.14  C 
BRANCH 13 14
ATOM     14  NE  ARG C   2      57.703  27.172  36.413  1.00 20.36 LIG-0.23  N 
ATOM     15  CZ  ARG C   2      57.626  27.746  35.231  1.00 23.11 LIG 0.67  C 
ATOM     16  NH1 ARG C   2      58.645  27.768  34.445  1.00 23.20 LIG-0.23  N 
ATOM     17  NH2 ARG C   2      56.446  28.221  34.813  1.00 25.55 LIG-0.23  N 
ATOM     18 1HH1 ARG C   2      59.385  27.404  34.690  1.00 23.20 LIG 0.17  HD
ATOM     19 2HH1 ARG C   2      58.585  28.145  33.674  1.00 23.20 LIG 0.17  HD
ATOM     20 2HH2 ARG C   2      56.383  28.598  34.043  1.00 25.55 LIG 0.17  HD
ATOM     21 1HH2 ARG C   2      55.751  28.148  35.315  1.00 25.55 LIG 0.17  HD
ATOM     22 HE   ARG C   2      56.980  27.099  36.871  1.00 20.36 LIG 0.18  HD
ENDBRANCH 13 14
ENDBRANCH 12 13
ENDBRANCH 11 12
ENDBRANCH 10 11
BRANCH 10 23
ATOM     23  N   ARG C   2      58.120  29.309  40.654  1.00 19.42 LIG-0.35  N 
ATOM     24  C   ASP C   1      57.122  28.931  41.440  1.00 19.51 LIG 0.25  C 
ATOM     25 O    ASP C   1      56.227  28.162  41.052  1.00 19.29 LIG-0.27  OA
ATOM     26 H    ARG C   2      58.835  29.705  40.923  1.00 19.42 LIG 0.16  HD
BRANCH 24 27
ATOM     27  CA  ASP C   1      57.074  29.490  42.851  1.00 19.04 LIG 0.28  C 
BRANCH 27 28
ATOM     28  CB  ASP C   1      57.538  28.431  43.817  1.00 21.34 LIG 0.15  C 
BRANCH 28 29
ATOM     29  CG  ASP C   1      56.873  28.580  45.210  1.00 23.67 LIG 0.17  C 
ATOM     30 OD2  ASP C   1      55.716  28.099  45.360  1.00 27.41 LIG-0.65  OA
ATOM     31 OD1  ASP C   1      57.485  29.194  46.144  1.00 20.87 LIG-0.65  OA
ENDBRANCH 28 29
ENDBRANCH 27 28
BRANCH 27 32
ATOM     32  N   ASP C   1      55.644  29.882  43.131  1.00 18.38 LIG-0.07  N 
ATOM     33 H1   ASP C   1      55.342  29.423  43.832  1.00 18.38 LIG 0.28  HD
ATOM     34 H3   ASP C   1      55.142  29.701  42.419  1.00 18.38 LIG 0.28  HD
ATOM     35 H2   ASP C   1      55.603  30.753  43.307  1.00 18.38 LIG 0.28  HD
ENDBRANCH 27 32
ENDBRANCH 24 27
ENDBRANCH 10 23
ENDBRANCH 8 10
ENDBRANCH 5 6
BRANCH 5 36
ATOM     36  CB  VAL C   3      56.912  33.224  36.912  1.00 17.74 LIG 0.01  C 
ATOM     37  CG1 VAL C   3      56.958  34.318  37.958  1.00 20.72 LIG 0.01  C 
ATOM     38  CG2 VAL C   3      58.330  32.994  36.421  1.00 18.64 LIG 0.01  C 
ENDBRANCH 5 36
ENDBRANCH 1 5
BRANCH 3 39
ATOM     39  CA  TYR C   4      54.000  30.310  34.862  1.00 17.90 LIG 0.18  C 
BRANCH 39 40
ATOM     40  CB  TYR C   4      52.901  29.396  35.309  1.00 20.19 LIG 0.07  C 
BRANCH 40 41
ATOM     41  CG  TYR C   4      52.059  28.791  34.218  1.00 23.00 LIG-0.06  A 
ATOM     42  CD2 TYR C   4      50.712  29.134  34.090  1.00 26.62 LIG 0.01  A 
ATOM     43  CE2 TYR C   4      49.920  28.587  33.101  1.00 28.63 LIG 0.04  A 
ATOM     44  CZ  TYR C   4      50.465  27.691  32.233  1.00 25.42 LIG 0.07  A 
ATOM     45  CE1 TYR C   4      51.778  27.368  32.299  1.00 26.89 LIG 0.04  A 
ATOM     46  CD1 TYR C   4      52.582  27.920  33.306  1.00 24.41 LIG 0.01  A 
BRANCH 44 47
ATOM     47 OH   TYR C   4      49.681  27.157  31.252  1.00 32.39 LIG-0.36  OA
ATOM     48 HH   TYR C   4      48.894  27.076  31.536  1.00 32.39 LIG 0.22  HD
ENDBRANCH 44 47
ENDBRANCH 40 41
ENDBRANCH 39 40
BRANCH 39 49
ATOM     49  C   TYR C   4      53.559  31.201  33.665  1.00 20.63 LIG 0.24  C 
ATOM     50 O    TYR C   4      54.138  31.163  32.614  1.00 19.73 LIG-0.27  OA
ATOM     51  N   ILE C   5      52.445  31.900  33.828  1.00 22.91 LIG-0.35  N 
ATOM     52 H    ILE C   5      51.944  31.854  34.525  1.00 22.91 LIG 0.16  HD
BRANCH 51 53
ATOM     53  CA  ILE C   5      51.980  32.822  32.807  1.00 27.58 LIG 0.18  C 
BRANCH 53 54
ATOM     54  C   ILE C   5      51.545  34.131  33.461  1.00 33.14 LIG 0.24  C 
ATOM     55  N   HIS C   6      52.485  35.069  33.637  1.00 39.14 LIG-0.35  N 
ATOM     56 H    HIS C   6      53.316  34.937  33.457  1.00 39.14 LIG 0.16  HD
ATOM     57 O    ILE C   5      50.394  34.215  33.882  1.00 25.88 LIG-0.27  OA
BRANCH 55 58
ATOM     58  CA  HIS C   6      52.200  36.451  34.169  1.00 56.87 LIG 0.17  C 
BRANCH 58 59
ATOM     59  CB  HIS C   6      52.317  36.479  35.721  1.00 66.39 LIG 0.09  C 
BRANCH 59 60
ATOM     60  CG  HIS C   6      53.600  37.062  36.243  1.00 78.50 LIG 0.06  A 
ATOM     61  CD2 HIS C   6      53.940  38.349  36.506  1.00 82.71 LIG 0.14  A 
ATOM     62 NE2  HIS C   6      55.218  38.339  37.016  1.00 84.02 LIG-0.25  NA
ATOM     63  CE1 HIS C   6      55.644  37.088  37.086  1.00 85.20 LIG 0.23  A 
ATOM     64 ND1  HIS C   6      54.685  36.296  36.633  1.00 88.66 LIG-0.24  NA
ENDBRANCH 59 60
ENDBRANCH 58 59
BRANCH 58 65
ATOM     65  C   HIS C   6      53.051  37.606  33.623  1.00 59.18 LIG 0.22  C 
ATOM     66 O    HIS C   6      53.394  37.632  32.411  1.00 63.69 LIG-0.29  OA
ENDBRANCH 58 65
ENDBRANCH 55 58
ENDBRANCH 53 54
BRANCH 53 67
ATOM     67  CB  ILE C   5      50.854  32.182  32.006  1.00 28.54 LIG 0.01  C 
ATOM     68  CG2 ILE C   5      50.323  33.209  31.009  1.00 32.34 LIG 0.01  C 
BRANCH 67 69
ATOM     69  CG1 ILE C   5      51.421  30.902  31.370  1.00 30.21 LIG 0.00  C 
ATOM     70  CD1 ILE C   5      52.305  31.088  30.162  1.00 32.85 LIG 0.01  C 
ENDBRANCH 67 69
ENDBRANCH 53 67
ENDBRANCH 51 53
ENDBRANCH 39 49
ENDBRANCH 3 39
TORSDOF 26
ENDMDL
MODEL 7
USER: ADFR SOLUTION from run 177
USER: SCORE 21.928280 LL:  -5.772 LR: -18.276 RR:   0.000 FEB: -10.521
USER: RMSD 5.061657
USER: SEED 176
USER: STATUS 1 or 2 clusters left
USER: GENES 28
USER: genes 0 Translation |==|  0.57484 0.47350 0.50668
USER: genes 1 Rotation |==|  0.14735 0.52427 0.23823 0.73776
USER: genes 2 Torsion [N]-C--CA-[N] |==|  0.80167
USER: genes 3 Torsion [C]-CA--N-[C] |==|  0.60559
USER: genes 4 Torsion [N]-C--CA-[N] |==|  0.18534
USER: genes 5 Torsion [C]-CA--CB-[CG] |==|  0.26994
USER: genes 6 Torsion [CA]-CB--CG-[CD] |==|  0.17210
USER: genes 7 Torsion [CB]-CG--CD-[NE] |==|  0.48512
USER: genes 8 Torsion [CG]-CD--NE-[CZ] |==|  0.52602
USER: genes 9 Torsion [C]-CA--N-[C] |==|  0.78333
USER: genes 10 Torsion [N]-C--CA-[N] |==|  0.38371
USER: genes 11 Torsion [C]-CA--CB-[CG] |==|  0.46993
USER: genes 12 Torsion [CA]-CB--CG-[OD2] |==|  0.49134
USER: genes 13 Torsion [C]-CA--N-[H1] |==|  0.18820
USER: genes 14 Torsion [C]-CA--CB-[CG1] |==|  0.38346
USER: genes 15 Torsion [C]-N--CA-[CB] |==|  0.75492
USER: genes 16 Torsion [N]-CA--CB-[CG] |==|  0.14919
USER: genes 17 Torsion [CA]-CB--CG-[CD2] |==|  0.76159
USER: genes 18 Torsion [CE2]-CZ--OH-[HH] |==|  0.31582
USER: genes 19 Torsion [N]-CA--C-[N] |==|  0.57173
USER: genes 20 Torsion [C]-N--CA-[C] |==|  0.59890
USER: genes 21 Torsion [N]-CA--C-[N] |==|  0.24786
USER: genes 22 Torsion [C]-N--CA-[CB] |==|  0.84706
USER: genes 23 Torsion [N]-CA--CB-[CG] |==|  0.57807
USER: genes 24 Torsion [CA]-CB--CG-[CD2] |==|  0.80226
USER: genes 25 Torsion [N]-CA--C-[O] |==|  0.67714
USER: genes 26 Torsion [N]-CA--CB-[CG1] |==|  0.09546
USER: genes 27 Torsion [CA]-CB--CG1-[CD1] |==|  0.31327
ROOT
ATOM      1  C   VAL C   3      55.435  28.654  34.536  1.00 15.94 LIG 0.24  C 
ATOM      2 O    VAL C   3      55.154  29.075  33.431  1.00 17.86 LIG-0.27  OA
ATOM      3  N   TYR C   4      54.595  27.881  35.217  1.00 16.41 LIG-0.35  N 
ATOM      4 H    TYR C   4      54.752  27.582  36.008  1.00 16.41 LIG 0.16  HD
ENDROOT
BRANCH 1 5
ATOM      5  CA  VAL C   3      56.774  29.056  35.187  1.00 16.01 LIG 0.18  C 
BRANCH 5 6
ATOM      6  N   VAL C   3      56.454  30.023  36.259  1.00 15.77 LIG-0.35  N 
ATOM      7 H    VAL C   3      55.735  29.858  36.703  1.00 15.77 LIG 0.16  HD
ATOM      8  C   ARG C   2      57.259  31.050  36.471  1.00 16.54 LIG 0.24  C 
ATOM      9 O    ARG C   2      58.346  31.188  35.871  1.00 14.63 LIG-0.27  OA
BRANCH 8 10
ATOM     10  CA  ARG C   2      56.820  32.065  37.509  1.00 19.03 LIG 0.18  C 
BRANCH 10 11
ATOM     11  CB  ARG C   2      57.759  33.275  37.457  1.00 20.38 LIG 0.04  C 
BRANCH 11 12
ATOM     12  CG  ARG C   2      57.260  34.428  36.653  1.00 20.75 LIG 0.02  C 
BRANCH 12 13
ATOM     13  CD  ARG C   2      56.018  34.960  37.216  1.00 22.55 LIG 0.14  C 
BRANCH 13 14
ATOM     14  NE  ARG C   2      55.572  36.149  36.541  1.00 20.36 LIG-0.23  N 
ATOM     15  CZ  ARG C   2      54.589  36.919  36.957  1.00 23.11 LIG 0.67  C 
ATOM     16  NH1 ARG C   2      54.035  36.713  38.101  1.00 23.20 LIG-0.23  N 
ATOM     17  NH2 ARG C   2      54.237  37.981  36.223  1.00 25.55 LIG-0.23  N 
ATOM     18 1HH1 ARG C   2      54.307  36.068  38.601  1.00 23.20 LIG 0.17  HD
ATOM     19 2HH1 ARG C   2      53.393  37.221  38.365  1.00 23.20 LIG 0.17  HD
ATOM     20 2HH2 ARG C   2      53.597  38.492  36.484  1.00 25.55 LIG 0.17  HD
ATOM     21 1HH2 ARG C   2      54.653  38.153  35.489  1.00 25.55 LIG 0.17  HD
ATOM     22 HE   ARG C   2      55.975  36.371  35.816  1.00 20.36 LIG 0.18  HD
ENDBRANCH 13 14
ENDBRANCH 12 13
ENDBRANCH 11 12
ENDBRANCH 10 11
BRANCH 10 23
ATOM     23  N   ARG C   2      56.818  31.474  38.857  1.00 19.42 LIG-0.35  N 
ATOM     24  C   ASP C   1      55.821  30.682  39.229  1.00 19.51 LIG 0.25  C 
ATOM     25 O    ASP C   1      55.001  30.223  38.416  1.00 19.29 LIG-0.27  OA
ATOM     26 H    ARG C   2      57.490  31.682  39.351  1.00 19.42 LIG 0.16  HD
BRANCH 24 27
ATOM     27  CA  ASP C   1      55.679  30.359  40.706  1.00 19.04 LIG 0.28  C 
BRANCH 27 28
ATOM     28  CB  ASP C   1      56.223  28.977  40.963  1.00 21.34 LIG 0.15  C 
BRANCH 28 29
ATOM     29  CG  ASP C   1      56.362  28.677  42.478  1.00 23.67 LIG 0.17  C 
ATOM     30 OD2  ASP C   1      56.753  27.525  42.812  1.00 27.41 LIG-0.65  OA
ATOM     31 OD1  ASP C   1      56.059  29.572  43.333  1.00 20.87 LIG-0.65  OA
ENDBRANCH 28 29
ENDBRANCH 27 28
BRANCH 27 32
ATOM     32  N   ASP C   1      54.210  30.427  41.042  1.00 18.38 LIG-0.07  N 
ATOM     33 H1   ASP C   1      53.781  29.762  40.634  1.00 18.38 LIG 0.28  HD
ATOM     34 H3   ASP C   1      53.879  31.206  40.768  1.00 18.38 LIG 0.28  HD
ATOM     35 H2   ASP C   1      54.102  30.353  41.922  1.00 18.38 LIG 0.28  HD
ENDBRANCH 27 32
ENDBRANCH 24 27
ENDBRANCH 10 23
ENDBRANCH 8 10
ENDBRANCH 5 6
BRANCH 5 36
ATOM     36  CB  VAL C   3      57.424  27.794  35.711  1.00 17.74 LIG 0.01  C 
ATOM     37  CG1 VAL C   3      58.911  27.771  35.429  1.00 20.72 LIG 0.01  C 
ATOM     38  CG2 VAL C   3      57.236  27.662  37.211  1.00 18.64 LIG 0.01  C 
ENDBRANCH 5 36
ENDBRANCH 1 5
BRANCH 3 39
ATOM     39  CA  TYR C   4      53.312  27.470  34.661  1.00 17.90 LIG 0.18  C 
BRANCH 39 40
ATOM     40  CB  TYR C   4      52.249  28.479  34.971  1.00 20.19 LIG 0.07  C 
BRANCH 40 41
ATOM     41  CG  TYR C   4      52.549  29.900  34.573  1.00 23.00 LIG-0.06  A 
ATOM     42  CD2 TYR C   4      53.267  30.739  35.426  1.00 26.62 LIG 0.01  A 
ATOM     43  CE2 TYR C   4      53.549  32.046  35.084  1.00 28.63 LIG 0.04  A 
ATOM     44  CZ  TYR C   4      53.112  32.527  33.888  1.00 25.42 LIG 0.07  A 
ATOM     45  CE1 TYR C   4      52.451  31.731  33.016  1.00 26.89 LIG 0.04  A 
ATOM     46  CD1 TYR C   4      52.162  30.404  33.365  1.00 24.41 LIG 0.01  A 
BRANCH 44 47
ATOM     47 OH   TYR C   4      53.397  33.818  33.549  1.00 32.39 LIG-0.36  OA
ATOM     48 HH   TYR C   4      53.919  33.826  32.891  1.00 32.39 LIG 0.22  HD
ENDBRANCH 44 47
ENDBRANCH 40 41
ENDBRANCH 39 40
BRANCH 39 49
ATOM     49  C   TYR C   4      53.379  27.151  33.140  1.00 20.63 LIG 0.24  C 
ATOM     50 O    TYR C   4      54.371  26.694  32.643  1.00 19.73 LIG-0.27  OA
ATOM     51  N   ILE C   5      52.252  27.289  32.458  1.00 22.91 LIG-0.35  N 
ATOM     52 H    ILE C   5      51.496  27.498  32.811  1.00 22.91 LIG 0.16  HD
BRANCH 51 53
ATOM     53  CA  ILE C   5      52.215  27.091  31.020  1.00 27.58 LIG 0.18  C 
BRANCH 53 54
ATOM     54  C   ILE C   5      51.227  28.072  30.394  1.00 33.14 LIG 0.24  C 
ATOM     55  N   HIS C   6      51.704  29.269  30.025  1.00 39.14 LIG-0.35  N 
ATOM     56 H    HIS C   6      52.512  29.518  30.183  1.00 39.14 LIG 0.16  HD
ATOM     57 O    ILE C   5      50.040  27.758  30.358  1.00 25.88 LIG-0.27  OA
BRANCH 55 58
ATOM     58  CA  HIS C   6      50.887  30.308  29.299  1.00 56.87 LIG 0.17  C 
BRANCH 58 59
ATOM     59  CB  HIS C   6      50.276  29.716  27.995  1.00 66.39 LIG 0.09  C 
BRANCH 59 60
ATOM     60  CG  HIS C   6      50.034  30.720  26.904  1.00 78.50 LIG 0.06  A 
ATOM     61  CD2 HIS C   6      49.113  31.711  26.807  1.00 82.71 LIG 0.14  A 
ATOM     62 NE2  HIS C   6      49.350  32.377  25.627  1.00 84.02 LIG-0.25  NA
ATOM     63  CE1 HIS C   6      50.394  31.831  25.026  1.00 85.20 LIG 0.23  A 
ATOM     64 ND1  HIS C   6      50.831  30.832  25.778  1.00 88.66 LIG-0.24  NA
ENDBRANCH 59 60
ENDBRANCH 58 59
BRANCH 58 65
ATOM     65  C   HIS C   6      49.747  30.980  30.076  1.00 59.18 LIG 0.22  C 
ATOM     66 O    HIS C   6      48.549  30.830  29.713  1.00 63.69 LIG-0.29  OA
ENDBRANCH 58 65
ENDBRANCH 55 58
ENDBRANCH 53 54
BRANCH 53 67
ATOM     67  CB  ILE C   5      51.860  25.644  30.705  1.00 28.54 LIG 0.01  C 
ATOM     68  CG2 ILE C   5      53.151  24.835  30.615  1.00 32.34 LIG 0.01  C 
BRANCH 67 69
ATOM     69  CG1 ILE C   5      50.879  25.171  31.791  1.00 30.21 LIG 0.00  C 
ATOM     70  CD1 ILE C   5      49.469  24.882  31.341  1.00 32.85 LIG 0.01  C 
ENDBRANCH 67 69
ENDBRANCH 53 67
ENDBRANCH 51 53
ENDBRANCH 39 49
ENDBRANCH 3 39
TORSDOF 26
ENDMDL
MODEL 8
USER: ADFR SOLUTION from run 115
USER: SCORE 22.821724 LL:  -5.632 LR: -18.265 RR:   0.000 FEB: -10.510
USER: RMSD 7.571608
USER: SEED 114
USER: STATUS no improvement in best in 12 clusters for 5 generations
USER: GENES 28
USER: genes 0 Translation |==|  0.67510 0.41557 0.55183
USER: genes 1 Rotation |==|  0.14029 0.36912 0.18273 0.55309
USER: genes 2 Torsion [N]-C--CA-[N] |==|  0.93471
USER: genes 3 Torsion [C]-CA--N-[C] |==|  0.66259
USER: genes 4 Torsion [N]-C--CA-[N] |==|  0.10462
USER: genes 5 Torsion [C]-CA--CB-[CG] |==|  0.31079
USER: genes 6 Torsion [CA]-CB--CG-[CD] |==|  0.33080
USER: genes 7 Torsion [CB]-CG--CD-[NE] |==|  0.46919
USER: genes 8 Torsion [CG]-CD--NE-[CZ] |==|  0.36589
USER: genes 9 Torsion [C]-CA--N-[C] |==|  0.74216
USER: genes 10 Torsion [N]-C--CA-[N] |==|  0.40464
USER: genes 11 Torsion [C]-CA--CB-[CG] |==|  0.41990
USER: genes 12 Torsion [CA]-CB--CG-[OD2] |==|  0.00353
USER: genes 13 Torsion [C]-CA--N-[H1] |==|  0.38599
USER: genes 14 Torsion [C]-CA--CB-[CG1] |==|  0.71131
USER: genes 15 Torsion [C]-N--CA-[CB] |==|  0.86667
USER: genes 16 Torsion [N]-CA--CB-[CG] |==|  0.70193
USER: genes 17 Torsion [CA]-CB--CG-[CD2] |==|  0.97972
USER: genes 18 Torsion [CE2]-CZ--OH-[HH] |==|  0.36506
USER: genes 19 Torsion [N]-CA--C-[N] |==|  0.90534
USER: genes 20 Torsion [C]-N--CA-[C] |==|  0.81464
USER: genes 21 Torsion [N]-CA--C-[N] |==|  0.88017
USER: genes 22 Torsion [C]-N--CA-[CB] |==|  0.83285
USER: genes 23 Torsion [N]-CA--CB-[CG] |==|  0.61087
USER: genes 24 Torsion [CA]-CB--CG-[CD2] |==|  0.09289
USER: genes 25 Torsion [N]-CA--C-[O] |==|  0.57040
USER: genes 26 Torsion [N]-CA--CB-[CG1] |==|  0.80333
USER: genes 27 Torsion [CA]-CB--CG1-[CD1] |==|  0.88338
ROOT
ATOM      1  C   VAL C   3      57.165  27.177  35.722  1.00 15.94 LIG 0.24  C 
ATOM      2 O    VAL C   3      57.363  26.546  34.702  1.00 17.86 LIG-0.27  OA
ATOM      3  N   TYR C   4      55.999  27.117  36.357  1.00 16.41 LIG-0.35  N 
ATOM      4 H    TYR C   4      55.816  27.564  37.069  1.00 16.41 LIG 0.16  HD
ENDROOT
BRANCH 1 5
ATOM      5  CA  VAL C   3      58.269  28.101  36.274  1.00 16.01 LIG 0.18  C 
BRANCH 5 6
ATOM      6  N   VAL C   3      57.592  29.144  37.074  1.00 15.77 LIG-0.35  N 
ATOM      7 H    VAL C   3      57.113  28.855  37.728  1.00 15.77 LIG 0.16  HD
ATOM      8  C   ARG C   2      57.752  30.417  36.755  1.00 16.54 LIG 0.24  C 
ATOM      9 O    ARG C   2      58.541  30.792  35.861  1.00 14.63 LIG-0.27  OA
BRANCH 8 10
ATOM     10  CA  ARG C   2      56.946  31.431  37.543  1.00 19.03 LIG 0.18  C 
BRANCH 10 11
ATOM     11  CB  ARG C   2      57.605  32.808  37.412  1.00 20.38 LIG 0.04  C 
BRANCH 11 12
ATOM     12  CG  ARG C   2      56.822  33.812  36.635  1.00 20.75 LIG 0.02  C 
BRANCH 12 13
ATOM     13  CD  ARG C   2      56.484  34.969  37.465  1.00 22.55 LIG 0.14  C 
BRANCH 13 14
ATOM     14  NE  ARG C   2      55.957  36.063  36.695  1.00 20.36 LIG-0.23  N 
ATOM     15  CZ  ARG C   2      54.864  36.730  36.999  1.00 23.11 LIG 0.67  C 
ATOM     16  NH1 ARG C   2      54.253  36.515  38.111  1.00 23.20 LIG-0.23  N 
ATOM     17  NH2 ARG C   2      54.449  37.707  36.184  1.00 25.55 LIG-0.23  N 
ATOM     18 1HH1 ARG C   2      54.559  35.932  38.664  1.00 23.20 LIG 0.17  HD
ATOM     19 2HH1 ARG C   2      53.540  36.956  38.302  1.00 23.20 LIG 0.17  HD
ATOM     20 2HH2 ARG C   2      53.736  38.151  36.371  1.00 25.55 LIG 0.17  HD
ATOM     21 1HH2 ARG C   2      54.896  37.892  35.472  1.00 25.55 LIG 0.17  HD
ATOM     22 HE   ARG C   2      56.385  36.297  35.988  1.00 20.36 LIG 0.18  HD
ENDBRANCH 13 14
ENDBRANCH 12 13
ENDBRANCH 11 12
ENDBRANCH 10 11
BRANCH 10 23
ATOM     23  N   ARG C   2      56.847  31.040  38.959  1.00 19.42 LIG-0.35  N 
ATOM     24  C   ASP C   1      55.812  30.324  39.376  1.00 19.51 LIG 0.25  C 
ATOM     25 O    ASP C   1      55.033  29.765  38.587  1.00 19.29 LIG-0.27  OA
ATOM     26 H    ARG C   2      57.493  31.307  39.460  1.00 19.42 LIG 0.16  HD
BRANCH 24 27
ATOM     27  CA  ASP C   1      55.572  30.219  40.872  1.00 19.04 LIG 0.28  C 
BRANCH 27 28
ATOM     28  CB  ASP C   1      56.231  28.967  41.390  1.00 21.34 LIG 0.15  C 
BRANCH 28 29
ATOM     29  CG  ASP C   1      56.669  29.108  42.871  1.00 23.67 LIG 0.17  C 
ATOM     30 OD2  ASP C   1      56.412  30.196  43.456  1.00 27.41 LIG-0.65  OA
ATOM     31 OD1  ASP C   1      57.289  28.153  43.443  1.00 20.87 LIG-0.65  OA
ENDBRANCH 28 29
ENDBRANCH 27 28
BRANCH 27 32
ATOM     32  N   ASP C   1      54.080  30.168  41.086  1.00 18.38 LIG-0.07  N 
ATOM     33 H1   ASP C   1      53.891  29.569  41.717  1.00 18.38 LIG 0.28  HD
ATOM     34 H3   ASP C   1      53.679  29.935  40.326  1.00 18.38 LIG 0.28  HD
ATOM     35 H2   ASP C   1      53.788  30.969  41.341  1.00 18.38 LIG 0.28  HD
ENDBRANCH 27 32
ENDBRANCH 24 27
ENDBRANCH 10 23
ENDBRANCH 8 10
ENDBRANCH 5 6
BRANCH 5 36
ATOM     36  CB  VAL C   3      59.209  27.248  37.097  1.00 17.74 LIG 0.01  C 
ATOM     37  CG1 VAL C   3      58.989  27.444  38.582  1.00 20.72 LIG 0.01  C 
ATOM     38  CG2 VAL C   3      59.019  25.773  36.792  1.00 18.64 LIG 0.01  C 
ENDBRANCH 5 36
ENDBRANCH 1 5
BRANCH 3 39
ATOM     39  CA  TYR C   4      54.912  26.268  35.884  1.00 17.90 LIG 0.18  C 
BRANCH 39 40
ATOM     40  CB  TYR C   4      54.691  26.454  34.415  1.00 20.19 LIG 0.07  C 
BRANCH 40 41
ATOM     41  CG  TYR C   4      53.451  27.211  34.023  1.00 23.00 LIG-0.06  A 
ATOM     42  CD2 TYR C   4      52.503  27.565  34.984  1.00 26.62 LIG 0.01  A 
ATOM     43  CE2 TYR C   4      51.355  28.254  34.646  1.00 28.63 LIG 0.04  A 
ATOM     44  CZ  TYR C   4      51.143  28.591  33.345  1.00 25.42 LIG 0.07  A 
ATOM     45  CE1 TYR C   4      52.060  28.304  32.391  1.00 26.89 LIG 0.04  A 
ATOM     46  CD1 TYR C   4      53.224  27.601  32.734  1.00 24.41 LIG 0.01  A 
BRANCH 44 47
ATOM     47 OH   TYR C   4      50.011  29.278  33.014  1.00 32.39 LIG-0.36  OA
ATOM     48 HH   TYR C   4      50.212  29.934  32.530  1.00 32.39 LIG 0.22  HD
ENDBRANCH 44 47
ENDBRANCH 40 41
ENDBRANCH 39 40
BRANCH 39 49
ATOM     49  C   TYR C   4      55.103  24.770  36.255  1.00 20.63 LIG 0.24  C 
ATOM     50 O    TYR C   4      54.162  24.040  36.402  1.00 19.73 LIG-0.27  OA
ATOM     51  N   ILE C   5      56.349  24.320  36.271  1.00 22.91 LIG-0.35  N 
ATOM     52 H    ILE C   5      57.035  24.789  36.051  1.00 22.91 LIG 0.16  HD
BRANCH 51 53
ATOM     53  CA  ILE C   5      56.652  22.959  36.676  1.00 27.58 LIG 0.18  C 
BRANCH 53 54
ATOM     54  C   ILE C   5      56.333  22.783  38.159  1.00 33.14 LIG 0.24  C 
ATOM     55  N   HIS C   6      56.709  23.768  38.985  1.00 39.14 LIG-0.35  N 
ATOM     56 H    HIS C   6      57.166  24.448  38.724  1.00 39.14 LIG 0.16  HD
ATOM     57 O    ILE C   5      55.851  21.715  38.527  1.00 25.88 LIG-0.27  OA
BRANCH 55 58
ATOM     58  CA  HIS C   6      56.378  23.799  40.456  1.00 56.87 LIG 0.17  C 
BRANCH 58 59
ATOM     59  CB  HIS C   6      54.836  23.801  40.673  1.00 66.39 LIG 0.09  C 
BRANCH 59 60
ATOM     60  CG  HIS C   6      54.360  24.700  41.779  1.00 78.50 LIG 0.06  A 
ATOM     61  CD2 HIS C   6      54.842  25.891  42.216  1.00 82.71 LIG 0.14  A 
ATOM     62 NE2  HIS C   6      54.012  26.324  43.224  1.00 84.02 LIG-0.25  NA
ATOM     63  CE1 HIS C   6      53.039  25.444  43.390  1.00 85.20 LIG 0.23  A 
ATOM     64 ND1  HIS C   6      53.220  24.457  42.526  1.00 88.66 LIG-0.24  NA
ENDBRANCH 59 60
ENDBRANCH 58 59
BRANCH 58 65
ATOM     65  C   HIS C   6      56.963  22.685  41.335  1.00 59.18 LIG 0.22  C 
ATOM     66 O    HIS C   6      56.394  22.351  42.409  1.00 63.69 LIG-0.29  OA
ENDBRANCH 58 65
ENDBRANCH 55 58
ENDBRANCH 53 54
BRANCH 53 67
ATOM     67  CB  ILE C   5      58.106  22.636  36.362  1.00 28.54 LIG 0.01  C 
ATOM     68  CG2 ILE C   5      58.499  21.372  37.125  1.00 32.34 LIG 0.01  C 
BRANCH 67 69
ATOM     69  CG1 ILE C   5      58.228  22.528  34.833  1.00 30.21 LIG 0.00  C 
ATOM     70  CD1 ILE C   5      57.116  21.799  34.122  1.00 32.85 LIG 0.01  C 
ENDBRANCH 67 69
ENDBRANCH 53 67
ENDBRANCH 51 53
ENDBRANCH 39 49
ENDBRANCH 3 39
TORSDOF 26
ENDMDL
MODEL 9
USER: ADFR SOLUTION from run 109
USER: SCORE 22.771996 LL:  -6.340 LR: -18.234 RR:   0.000 FEB: -10.478
USER: RMSD 8.852437
USER: SEED 108
USER: STATUS no improvement in best in 4 clusters for 5 generations
USER: GENES 28
USER: genes 0 Translation |==|  0.53462 0.49901 0.51478
USER: genes 1 Rotation |==|  0.43413 0.12067 0.44513 0.81426
USER: genes 2 Torsion [N]-C--CA-[N] |==|  0.40963
USER: genes 3 Torsion [C]-CA--N-[C] |==|  0.83225
USER: genes 4 Torsion [N]-C--CA-[N] |==|  0.98079
USER: genes 5 Torsion [C]-CA--CB-[CG] |==|  0.55543
USER: genes 6 Torsion [CA]-CB--CG-[CD] |==|  0.84948
USER: genes 7 Torsion [CB]-CG--CD-[NE] |==|  0.72682
USER: genes 8 Torsion [CG]-CD--NE-[CZ] |==|  0.77974
USER: genes 9 Torsion [C]-CA--N-[C] |==|  0.73889
USER: genes 10 Torsion [N]-C--CA-[N] |==|  0.43900
USER: genes 11 Torsion [C]-CA--CB-[CG] |==|  0.50466
USER: genes 12 Torsion [CA]-CB--CG-[OD2] |==|  0.04653
USER: genes 13 Torsion [C]-CA--N-[H1] |==|  0.25119
USER: genes 14 Torsion [C]-CA--CB-[CG1] |==|  0.44164
USER: genes 15 Torsion [C]-N--CA-[CB] |==|  0.31412
USER: genes 16 Torsion [N]-CA--CB-[CG] |==|  0.94872
USER: genes 17 Torsion [CA]-CB--CG-[CD2] |==|  0.20571
USER: genes 18 Torsion [CE2]-CZ--OH-[HH] |==|  0.02237
USER: genes 19 Torsion [N]-CA--C-[N] |==|  0.51172
USER: genes 20 Torsion [C]-N--CA-[C] |==|  0.78942
USER: genes 21 Torsion [N]-CA--C-[N] |==|  0.41563
USER: genes 22 Torsion [C]-N--CA-[CB] |==|  0.29240
USER: genes 23 Torsion [N]-CA--CB-[CG] |==|  0.88809
USER: genes 24 Torsion [CA]-CB--CG-[CD2] |==|  0.82855
USER: genes 25 Torsion [N]-CA--C-[O] |==|  0.27471
USER: genes 26 Torsion [N]-CA--CB-[CG1] |==|  0.69653
USER: genes 27 Torsion [CA]-CB--CG1-[CD1] |==|  0.92158
ROOT
ATOM      1  C   VAL C   3      54.741  29.305  34.749  1.00 15.94 LIG 0.24  C 
ATOM      2 O    VAL C   3      55.054  29.671  33.633  1.00 17.86 LIG-0.27  OA
ATOM      3  N   TYR C   4      55.554  28.553  35.485  1.00 16.41 LIG-0.35  N 
ATOM      4 H    TYR C   4      55.358  28.260  36.269  1.00 16.41 LIG 0.16  HD
ENDROOT
BRANCH 1 5
ATOM      5  CA  VAL C   3      53.357  29.681  35.315  1.00 16.01 LIG 0.18  C 
BRANCH 5 6
ATOM      6  N   VAL C   3      53.030  31.022  34.786  1.00 15.77 LIG-0.35  N 
ATOM      7 H    VAL C   3      52.318  31.067  34.306  1.00 15.77 LIG 0.16  HD
ATOM      8  C   ARG C   2      53.821  32.044  35.069  1.00 16.54 LIG 0.24  C 
ATOM      9 O    ARG C   2      54.786  31.950  35.857  1.00 14.63 LIG-0.27  OA
BRANCH 8 10
ATOM     10  CA  ARG C   2      53.494  33.370  34.408  1.00 19.03 LIG 0.18  C 
BRANCH 10 11
ATOM     11  CB  ARG C   2      53.094  34.383  35.486  1.00 20.38 LIG 0.04  C 
BRANCH 11 12
ATOM     12  CG  ARG C   2      52.314  35.555  34.993  1.00 20.75 LIG 0.02  C 
BRANCH 12 13
ATOM     13  CD  ARG C   2      53.019  36.232  33.903  1.00 22.55 LIG 0.14  C 
BRANCH 13 14
ATOM     14  NE  ARG C   2      53.748  37.386  34.353  1.00 20.36 LIG-0.23  N 
ATOM     15  CZ  ARG C   2      53.208  38.561  34.600  1.00 23.11 LIG 0.67  C 
ATOM     16  NH1 ARG C   2      51.930  38.712  34.573  1.00 23.20 LIG-0.23  N 
ATOM     17  NH2 ARG C   2      53.995  39.574  34.978  1.00 25.55 LIG-0.23  N 
ATOM     18 1HH1 ARG C   2      51.421  38.042  34.393  1.00 23.20 LIG 0.17  HD
ATOM     19 2HH1 ARG C   2      51.585  39.483  34.736  1.00 23.20 LIG 0.17  HD
ATOM     20 2HH2 ARG C   2      53.654  40.346  35.143  1.00 25.55 LIG 0.17  HD
ATOM     21 1HH2 ARG C   2      54.844  39.454  35.058  1.00 25.55 LIG 0.17  HD
ATOM     22 HE   ARG C   2      54.596  37.303  34.469  1.00 20.36 LIG 0.18  HD
ENDBRANCH 13 14
ENDBRANCH 12 13
ENDBRANCH 11 12
ENDBRANCH 10 11
BRANCH 10 23
ATOM     23  N   ARG C   2      52.413  33.215  33.421  1.00 19.42 LIG-0.35  N 
ATOM     24  C   ASP C   1      52.710  33.008  32.145  1.00 19.51 LIG 0.25  C 
ATOM     25 O    ASP C   1      53.854  32.704  31.772  1.00 19.29 LIG-0.27  OA
ATOM     26 H    ARG C   2      51.616  33.269  33.738  1.00 19.42 LIG 0.16  HD
BRANCH 24 27
ATOM     27  CA  ASP C   1      51.603  33.178  31.119  1.00 19.04 LIG 0.28  C 
BRANCH 27 28
ATOM     28  CB  ASP C   1      50.773  31.921  31.075  1.00 21.34 LIG 0.15  C 
BRANCH 28 29
ATOM     29  CG  ASP C   1      49.644  32.004  30.016  1.00 23.67 LIG 0.17  C 
ATOM     30 OD2  ASP C   1      49.736  32.899  29.131  1.00 27.41 LIG-0.65  OA
ATOM     31 OD1  ASP C   1      48.655  31.202  30.078  1.00 20.87 LIG-0.65  OA
ENDBRANCH 28 29
ENDBRANCH 27 28
BRANCH 27 32
ATOM     32  N   ASP C   1      52.262  33.432  29.786  1.00 18.38 LIG-0.07  N 
ATOM     33 H1   ASP C   1      52.399  32.657  29.370  1.00 18.38 LIG 0.28  HD
ATOM     34 H3   ASP C   1      53.041  33.843  29.913  1.00 18.38 LIG 0.28  HD
ATOM     35 H2   ASP C   1      51.734  33.947  29.287  1.00 18.38 LIG 0.28  HD
ENDBRANCH 27 32
ENDBRANCH 24 27
ENDBRANCH 10 23
ENDBRANCH 8 10
ENDBRANCH 5 6
BRANCH 5 36
ATOM     36  CB  VAL C   3      52.377  28.619  34.867  1.00 17.74 LIG 0.01  C 
ATOM     37  CG1 VAL C   3      51.145  28.587  35.746  1.00 20.72 LIG 0.01  C 
ATOM     38  CG2 VAL C   3      51.920  28.862  33.440  1.00 18.64 LIG 0.01  C 
ENDBRANCH 5 36
ENDBRANCH 1 5
BRANCH 3 39
ATOM     39  CA  TYR C   4      56.873  28.158  35.006  1.00 17.90 LIG 0.18  C 
BRANCH 39 40
ATOM     40  CB  TYR C   4      57.951  28.802  35.822  1.00 20.19 LIG 0.07  C 
BRANCH 40 41
ATOM     41  CG  TYR C   4      57.540  30.003  36.631  1.00 23.00 LIG-0.06  A 
ATOM     42  CD2 TYR C   4      56.776  29.850  37.789  1.00 26.62 LIG 0.01  A 
ATOM     43  CE2 TYR C   4      56.383  30.937  38.543  1.00 28.63 LIG 0.04  A 
ATOM     44  CZ  TYR C   4      56.747  32.187  38.144  1.00 25.42 LIG 0.07  A 
ATOM     45  CE1 TYR C   4      57.524  32.372  37.052  1.00 26.89 LIG 0.04  A 
ATOM     46  CD1 TYR C   4      57.920  31.267  36.283  1.00 24.41 LIG 0.01  A 
BRANCH 44 47
ATOM     47 OH   TYR C   4      56.362  33.260  38.895  1.00 32.39 LIG-0.36  OA
ATOM     48 HH   TYR C   4      56.015  32.990  39.611  1.00 32.39 LIG 0.22  HD
ENDBRANCH 44 47
ENDBRANCH 40 41
ENDBRANCH 39 40
BRANCH 39 49
ATOM     49  C   TYR C   4      57.055  26.615  34.923  1.00 20.63 LIG 0.24  C 
ATOM     50 O    TYR C   4      56.123  25.870  35.052  1.00 19.73 LIG-0.27  OA
ATOM     51  N   ILE C   5      58.258  26.181  34.578  1.00 22.91 LIG-0.35  N 
ATOM     52 H    ILE C   5      58.914  26.694  34.361  1.00 22.91 LIG 0.16  HD
BRANCH 51 53
ATOM     53  CA  ILE C   5      58.563  24.761  34.542  1.00 27.58 LIG 0.18  C 
BRANCH 53 54
ATOM     54  C   ILE C   5      58.742  24.241  35.966  1.00 33.14 LIG 0.24  C 
ATOM     55  N   HIS C   6      58.412  22.963  36.196  1.00 39.14 LIG-0.35  N 
ATOM     56 H    HIS C   6      58.053  22.458  35.599  1.00 39.14 LIG 0.16  HD
ATOM     57 O    ILE C   5      59.075  25.038  36.839  1.00 25.88 LIG-0.27  OA
BRANCH 55 58
ATOM     58  CA  HIS C   6      58.627  22.267  37.516  1.00 56.87 LIG 0.17  C 
BRANCH 58 59
ATOM     59  CB  HIS C   6      57.280  22.097  38.276  1.00 66.39 LIG 0.09  C 
BRANCH 59 60
ATOM     60  CG  HIS C   6      56.359  23.282  38.192  1.00 78.50 LIG 0.06  A 
ATOM     61  CD2 HIS C   6      56.526  24.559  38.617  1.00 82.71 LIG 0.14  A 
ATOM     62 NE2  HIS C   6      55.401  25.263  38.253  1.00 84.02 LIG-0.25  NA
ATOM     63  CE1 HIS C   6      54.578  24.454  37.607  1.00 85.20 LIG 0.23  A 
ATOM     64 ND1  HIS C   6      55.133  23.254  37.549  1.00 88.66 LIG-0.24  NA
ENDBRANCH 59 60
ENDBRANCH 58 59
BRANCH 58 65
ATOM     65  C   HIS C   6      59.313  20.894  37.487  1.00 59.18 LIG 0.22  C 
ATOM     66 O    HIS C   6      60.544  20.787  37.736  1.00 63.69 LIG-0.29  OA
ENDBRANCH 58 65
ENDBRANCH 55 58
ENDBRANCH 53 54
BRANCH 53 67
ATOM     67  CB  ILE C   5      59.799  24.518  33.686  1.00 28.54 LIG 0.01  C 
ATOM     68  CG2 ILE C   5      60.810  23.721  34.506  1.00 32.34 LIG 0.01  C 
BRANCH 67 69
ATOM     69  CG1 ILE C   5      59.328  23.826  32.396  1.00 30.21 LIG 0.00  C 
ATOM     70  CD1 ILE C   5      58.079  22.988  32.503  1.00 32.85 LIG 0.01  C 
ENDBRANCH 67 69
ENDBRANCH 53 67
ENDBRANCH 51 53
ENDBRANCH 39 49
ENDBRANCH 3 39
TORSDOF 26
ENDMDL
MODEL 10
USER: ADFR SOLUTION from run 195
USER: SCORE 22.159466 LL:  -6.718 LR: -18.184 RR:   0.000 FEB: -10.428
USER: RMSD 7.013291
USER: SEED 194
USER: STATUS no improvement in best in 2 clusters for 5 generations
USER: GENES 28
USER: genes 0 Translation |==|  0.61673 0.58805 0.57918
USER: genes 1 Rotation |==|  0.72380 0.59619 0.93022 0.57466
USER: genes 2 Torsion [N]-C--CA-[N] |==|  0.41442
USER: genes 3 Torsion [C]-CA--N-[C] |==|  0.83655
USER: genes 4 Torsion [N]-C--CA-[N] |==|  0.26708
USER: genes 5 Torsion [C]-CA--CB-[CG] |==|  0.36880
USER: genes 6 Torsion [CA]-CB--CG-[CD] |==|  0.75857
USER: genes 7 Torsion [CB]-CG--CD-[NE] |==|  0.93602
USER: genes 8 Torsion [CG]-CD--NE-[CZ] |==|  0.46588
USER: genes 9 Torsion [C]-CA--N-[C] |==|  0.20238
USER: genes 10 Torsion [N]-C--CA-[N] |==|  0.36043
USER: genes 11 Torsion [C]-CA--CB-[CG] |==|  0.58903
USER: genes 12 Torsion [CA]-CB--CG-[OD2] |==|  0.22029
USER: genes 13 Torsion [C]-CA--N-[H1] |==|  0.37307
USER: genes 14 Torsion [C]-CA--CB-[CG1] |==|  0.22007
USER: genes 15 Torsion [C]-N--CA-[CB] |==|  0.24974
USER: genes 16 Torsion [N]-CA--CB-[CG] |==|  0.47342
USER: genes 17 Torsion [CA]-CB--CG-[CD2] |==|  0.72974
USER: genes 18 Torsion [CE2]-CZ--OH-[HH] |==|  0.89437
USER: genes 19 Torsion [N]-CA--C-[N] |==|  0.83333
USER: genes 20 Torsion [C]-N--CA-[C] |==|  0.16758
USER: genes 21 Torsion [N]-CA--C-[N] |==|  0.70275
USER: genes 22 Torsion [C]-N--CA-[CB] |==|  0.61367
USER: genes 23 Torsion [N]-CA--CB-[CG] |==|  0.15632
USER: genes 24 Torsion [CA]-CB--CG-[CD2] |==|  0.20090
USER: genes 25 Torsion [N]-CA--C-[O] |==|  0.33407
USER: genes 26 Torsion [N]-CA--CB-[CG1] |==|  0.89170
USER: genes 27 Torsion [CA]-CB--CG1-[CD1] |==|  0.79532
ROOT
ATOM      1  C   VAL C   3      56.158  31.575  36.439  1.00 15.94 LIG 0.24  C 
ATOM      2 O    VAL C   3      56.779  30.703  35.864  1.00 17.86 LIG-0.27  OA
ATOM      3  N   TYR C   4      54.956  31.961  36.021  1.00 16.41 LIG-0.35  N 
ATOM      4 H    TYR C   4      54.497  32.587  36.391  1.00 16.41 LIG 0.16  HD
ENDROOT
BRANCH 1 5
ATOM      5  CA  VAL C   3      56.787  32.284  37.656  1.00 16.01 LIG 0.18  C 
BRANCH 5 6
ATOM      6  N   VAL C   3      57.633  31.285  38.341  1.00 15.77 LIG-0.35  N 
ATOM      7 H    VAL C   3      58.465  31.492  38.413  1.00 15.77 LIG 0.16  HD
ATOM      8  C   ARG C   2      57.087  30.167  38.791  1.00 16.54 LIG 0.24  C 
ATOM      9 O    ARG C   2      55.856  29.959  38.756  1.00 14.63 LIG-0.27  OA
BRANCH 8 10
ATOM     10  CA  ARG C   2      58.025  29.134  39.385  1.00 19.03 LIG 0.18  C 
BRANCH 10 11
ATOM     11  CB  ARG C   2      57.549  27.734  38.984  1.00 20.38 LIG 0.04  C 
BRANCH 11 12
ATOM     12  CG  ARG C   2      58.616  26.828  38.467  1.00 20.75 LIG 0.02  C 
BRANCH 12 13
ATOM     13  CD  ARG C   2      58.803  27.008  37.026  1.00 22.55 LIG 0.14  C 
BRANCH 13 14
ATOM     14  NE  ARG C   2      57.642  27.561  36.385  1.00 20.36 LIG-0.23  N 
ATOM     15  CZ  ARG C   2      57.621  28.033  35.156  1.00 23.11 LIG 0.67  C 
ATOM     16  NH1 ARG C   2      58.646  27.904  34.389  1.00 23.20 LIG-0.23  N 
ATOM     17  NH2 ARG C   2      56.487  28.559  34.678  1.00 25.55 LIG-0.23  N 
ATOM     18 1HH1 ARG C   2      59.353  27.507  34.677  1.00 23.20 LIG 0.17  HD
ATOM     19 2HH1 ARG C   2      58.625  28.215  33.587  1.00 23.20 LIG 0.17  HD
ATOM     20 2HH2 ARG C   2      56.461  28.870  33.877  1.00 25.55 LIG 0.17  HD
ATOM     21 1HH2 ARG C   2      55.784  28.585  35.173  1.00 25.55 LIG 0.17  HD
ATOM     22 HE   ARG C   2      56.910  27.585  36.835  1.00 20.36 LIG 0.18  HD
ENDBRANCH 13 14
ENDBRANCH 12 13
ENDBRANCH 11 12
ENDBRANCH 10 11
BRANCH 10 23
ATOM     23  N   ARG C   2      58.083  29.257  40.851  1.00 19.42 LIG-0.35  N 
ATOM     24  C   ASP C   1      57.053  28.864  41.588  1.00 19.51 LIG 0.25  C 
ATOM     25 O    ASP C   1      56.128  28.178  41.122  1.00 19.29 LIG-0.27  OA
ATOM     26 H    ARG C   2      58.812  29.591  41.163  1.00 19.42 LIG 0.16  HD
BRANCH 24 27
ATOM     27  CA  ASP C   1      57.009  29.299  43.042  1.00 19.04 LIG 0.28  C 
BRANCH 27 28
ATOM     28  CB  ASP C   1      57.242  28.099  43.923  1.00 21.34 LIG 0.15  C 
BRANCH 28 29
ATOM     29  CG  ASP C   1      56.479  28.205  45.269  1.00 23.67 LIG 0.17  C 
ATOM     30 OD2  ASP C   1      55.248  27.928  45.267  1.00 27.41 LIG-0.65  OA
ATOM     31 OD1  ASP C   1      57.093  28.588  46.318  1.00 20.87 LIG-0.65  OA
ENDBRANCH 28 29
ENDBRANCH 27 28
BRANCH 27 32
ATOM     32  N   ASP C   1      55.644  29.890  43.293  1.00 18.38 LIG-0.07  N 
ATOM     33 H1   ASP C   1      55.317  29.569  44.056  1.00 18.38 LIG 0.28  HD
ATOM     34 H3   ASP C   1      55.100  29.676  42.623  1.00 18.38 LIG 0.28  HD
ATOM     35 H2   ASP C   1      55.710  30.776  43.349  1.00 18.38 LIG 0.28  HD
ENDBRANCH 27 32
ENDBRANCH 24 27
ENDBRANCH 10 23
ENDBRANCH 8 10
ENDBRANCH 5 6
BRANCH 5 36
ATOM     36  CB  VAL C   3      57.578  33.465  37.137  1.00 17.74 LIG 0.01  C 
ATOM     37  CG1 VAL C   3      56.681  34.641  36.812  1.00 20.72 LIG 0.01  C 
ATOM     38  CG2 VAL C   3      58.600  33.931  38.157  1.00 18.64 LIG 0.01  C 
ENDBRANCH 5 36
ENDBRANCH 1 5
BRANCH 3 39
ATOM     39  CA  TYR C   4      54.308  31.336  34.875  1.00 17.90 LIG 0.18  C 
BRANCH 39 40
ATOM     40  CB  TYR C   4      53.476  30.166  35.305  1.00 20.19 LIG 0.07  C 
BRANCH 40 41
ATOM     41  CG  TYR C   4      52.579  29.570  34.253  1.00 23.00 LIG-0.06  A 
ATOM     42  CD2 TYR C   4      51.232  29.929  34.184  1.00 26.62 LIG 0.01  A 
ATOM     43  CE2 TYR C   4      50.390  29.390  33.232  1.00 28.63 LIG 0.04  A 
ATOM     44  CZ  TYR C   4      50.886  28.486  32.344  1.00 25.42 LIG 0.07  A 
ATOM     45  CE1 TYR C   4      52.197  28.147  32.352  1.00 26.89 LIG 0.04  A 
ATOM     46  CD1 TYR C   4      53.051  28.692  33.321  1.00 24.41 LIG 0.01  A 
BRANCH 44 47
ATOM     47 OH   TYR C   4      50.053  27.960  31.399  1.00 32.39 LIG-0.36  OA
ATOM     48 HH   TYR C   4      49.295  27.830  31.736  1.00 32.39 LIG 0.22  HD
ENDBRANCH 44 47
ENDBRANCH 40 41
ENDBRANCH 39 40
BRANCH 39 49
ATOM     49  C   TYR C   4      53.491  32.340  34.013  1.00 20.63 LIG 0.24  C 
ATOM     50 O    TYR C   4      53.677  32.443  32.832  1.00 19.73 LIG-0.27  OA
ATOM     51  N   ILE C   5      52.502  32.975  34.625  1.00 22.91 LIG-0.35  N 
ATOM     52 H    ILE C   5      52.267  32.831  35.440  1.00 22.91 LIG 0.16  HD
BRANCH 51 53
ATOM     53  CA  ILE C   5      51.721  33.989  33.940  1.00 27.58 LIG 0.18  C 
BRANCH 53 54
ATOM     54  C   ILE C   5      51.034  33.371  32.724  1.00 33.14 LIG 0.24  C 
ATOM     55  N   HIS C   6      51.520  33.693  31.518  1.00 39.14 LIG-0.35  N 
ATOM     56 H    HIS C   6      52.149  34.269  31.406  1.00 39.14 LIG 0.16  HD
ATOM     57 O    ILE C   5      50.019  32.705  32.908  1.00 25.88 LIG-0.27  OA
BRANCH 55 58
ATOM     58  CA  HIS C   6      51.025  33.088  30.228  1.00 56.87 LIG 0.17  C 
BRANCH 58 59
ATOM     59  CB  HIS C   6      52.214  32.785  29.270  1.00 66.39 LIG 0.09  C 
BRANCH 59 60
ATOM     60  CG  HIS C   6      53.275  31.893  29.850  1.00 78.50 LIG 0.06  A 
ATOM     61  CD2 HIS C   6      53.259  30.563  30.116  1.00 82.71 LIG 0.14  A 
ATOM     62 NE2  HIS C   6      54.504  30.225  30.596  1.00 84.02 LIG-0.25  NA
ATOM     63  CE1 HIS C   6      55.269  31.304  30.605  1.00 85.20 LIG 0.23  A 
ATOM     64 ND1  HIS C   6      54.555  32.324  30.153  1.00 88.66 LIG-0.24  NA
ENDBRANCH 59 60
ENDBRANCH 58 59
BRANCH 58 65
ATOM     65  C   HIS C   6      50.177  31.812  30.326  1.00 59.18 LIG 0.22  C 
ATOM     66 O    HIS C   6      49.000  31.789  29.876  1.00 63.69 LIG-0.29  OA
ENDBRANCH 58 65
ENDBRANCH 55 58
ENDBRANCH 53 54
BRANCH 53 67
ATOM     67  CB  ILE C   5      52.617  35.160  33.555  1.00 28.54 LIG 0.01  C 
ATOM     68  CG2 ILE C   5      51.733  36.360  33.224  1.00 32.34 LIG 0.01  C 
BRANCH 67 69
ATOM     69  CG1 ILE C   5      53.596  35.384  34.720  1.00 30.21 LIG 0.00  C 
ATOM     70  CD1 ILE C   5      53.024  36.015  35.964  1.00 32.85 LIG 0.01  C 
ENDBRANCH 67 69
ENDBRANCH 53 67
ENDBRANCH 51 53
ENDBRANCH 39 49
ENDBRANCH 3 39
TORSDOF 26
ENDMDL
MODEL 11
USER: ADFR SOLUTION from run 127
USER: SCORE 22.323411 LL:  -5.082 LR: -18.168 RR:   0.000 FEB: -10.413
USER: RMSD 8.940714
USER: SEED 126
USER: STATUS no improvement in best in 3 clusters for 5 generations
USER: GENES 28
USER: genes 0 Translation |==|  0.58720 0.50333 0.55044
USER: genes 1 Rotation |==|  0.52052 0.02337 0.44326 0.63849
USER: genes 2 Torsion [N]-C--CA-[N] |==|  0.42266
USER: genes 3 Torsion [C]-CA--N-[C] |==|  0.59473
USER: genes 4 Torsion [N]-C--CA-[N] |==|  0.12219
USER: genes 5 Torsion [C]-CA--CB-[CG] |==|  0.42049
USER: genes 6 Torsion [CA]-CB--CG-[CD] |==|  0.94196
USER: genes 7 Torsion [CB]-CG--CD-[NE] |==|  0.52914
USER: genes 8 Torsion [CG]-CD--NE-[CZ] |==|  0.56775
USER: genes 9 Torsion [C]-CA--N-[C] |==|  0.16008
USER: genes 10 Torsion [N]-C--CA-[N] |==|  0.93686
USER: genes 11 Torsion [C]-CA--CB-[CG] |==|  0.46795
USER: genes 12 Torsion [CA]-CB--CG-[OD2] |==|  0.87792
USER: genes 13 Torsion [C]-CA--N-[H1] |==|  0.37126
USER: genes 14 Torsion [C]-CA--CB-[CG1] |==|  0.88469
USER: genes 15 Torsion [C]-N--CA-[CB] |==|  0.25333
USER: genes 16 Torsion [N]-CA--CB-[CG] |==|  0.81306
USER: genes 17 Torsion [CA]-CB--CG-[CD2] |==|  0.84619
USER: genes 18 Torsion [CE2]-CZ--OH-[HH] |==|  0.02084
USER: genes 19 Torsion [N]-CA--C-[N] |==|  0.97140
USER: genes 20 Torsion [C]-N--CA-[C] |==|  0.80428
USER: genes 21 Torsion [N]-CA--C-[N] |==|  0.42046
USER: genes 22 Torsion [C]-N--CA-[CB] |==|  0.21461
USER: genes 23 Torsion [N]-CA--CB-[CG] |==|  0.66747
USER: genes 24 Torsion [CA]-CB--CG-[CD2] |==|  0.20741
USER: genes 25 Torsion [N]-CA--C-[O] |==|  0.69857
USER: genes 26 Torsion [N]-CA--CB-[CG1] |==|  0.64124
USER: genes 27 Torsion [CA]-CB--CG1-[CD1] |==|  0.28875
ROOT
ATOM      1  C   VAL C   3      55.648  29.415  35.685  1.00 15.94 LIG 0.24  C 
ATOM      2 O    VAL C   3      56.572  30.018  35.174  1.00 17.86 LIG-0.27  OA
ATOM      3  N   TYR C   4      55.816  28.700  36.793  1.00 16.41 LIG-0.35  N 
ATOM      4 H    TYR C   4      55.191  28.246  37.171  1.00 16.41 LIG 0.16  HD
ENDROOT
BRANCH 1 5
ATOM      5  CA  VAL C   3      54.258  29.441  35.017  1.00 16.01 LIG 0.18  C 
BRANCH 5 6
ATOM      6  N   VAL C   3      54.151  30.732  34.305  1.00 15.77 LIG-0.35  N 
ATOM      7 H    VAL C   3      54.885  31.029  33.967  1.00 15.77 LIG 0.16  HD
ATOM      8  C   ARG C   2      52.979  31.338  34.228  1.00 16.54 LIG 0.24  C 
ATOM      9 O    ARG C   2      51.922  30.816  34.644  1.00 14.63 LIG-0.27  OA
BRANCH 8 10
ATOM     10  CA  ARG C   2      52.954  32.710  33.582  1.00 19.03 LIG 0.18  C 
BRANCH 10 11
ATOM     11  CB  ARG C   2      51.504  33.091  33.267  1.00 20.38 LIG 0.04  C 
BRANCH 11 12
ATOM     12  CG  ARG C   2      51.221  34.556  33.271  1.00 20.75 LIG 0.02  C 
BRANCH 12 13
ATOM     13  CD  ARG C   2      52.234  35.283  34.037  1.00 22.55 LIG 0.14  C 
BRANCH 13 14
ATOM     14  NE  ARG C   2      51.871  36.655  34.266  1.00 20.36 LIG-0.23  N 
ATOM     15  CZ  ARG C   2      52.729  37.625  34.499  1.00 23.11 LIG 0.67  C 
ATOM     16  NH1 ARG C   2      53.995  37.416  34.404  1.00 23.20 LIG-0.23  N 
ATOM     17  NH2 ARG C   2      52.269  38.860  34.736  1.00 25.55 LIG-0.23  N 
ATOM     18 1HH1 ARG C   2      54.287  36.637  34.188  1.00 23.20 LIG 0.17  HD
ATOM     19 2HH1 ARG C   2      54.549  38.056  34.557  1.00 23.20 LIG 0.17  HD
ATOM     20 2HH2 ARG C   2      52.820  39.502  34.889  1.00 25.55 LIG 0.17  HD
ATOM     21 1HH2 ARG C   2      51.422  39.010  34.736  1.00 25.55 LIG 0.17  HD
ATOM     22 HE   ARG C   2      51.035  36.855  34.251  1.00 20.36 LIG 0.18  HD
ENDBRANCH 13 14
ENDBRANCH 12 13
ENDBRANCH 11 12
ENDBRANCH 10 11
BRANCH 10 23
ATOM     23  N   ARG C   2      53.769  32.729  32.355  1.00 19.42 LIG-0.35  N 
ATOM     24  C   ASP C   1      53.497  31.885  31.370  1.00 19.51 LIG 0.25  C 
ATOM     25 O    ASP C   1      52.441  31.233  31.328  1.00 19.29 LIG-0.27  OA
ATOM     26 H    ARG C   2      54.403  33.310  32.344  1.00 19.42 LIG 0.16  HD
BRANCH 24 27
ATOM     27  CA  ASP C   1      54.536  31.705  30.277  1.00 19.04 LIG 0.28  C 
BRANCH 27 28
ATOM     28  CB  ASP C   1      55.356  30.476  30.573  1.00 21.34 LIG 0.15  C 
BRANCH 28 29
ATOM     29  CG  ASP C   1      56.242  30.062  29.370  1.00 23.67 LIG 0.17  C 
ATOM     30 OD2  ASP C   1      55.717  30.079  28.223  1.00 27.41 LIG-0.65  OA
ATOM     31 OD1  ASP C   1      57.447  29.694  29.565  1.00 20.87 LIG-0.65  OA
ENDBRANCH 28 29
ENDBRANCH 27 28
BRANCH 27 32
ATOM     32  N   ASP C   1      55.403  32.940  30.274  1.00 18.38 LIG-0.07  N 
ATOM     33 H1   ASP C   1      56.260  32.701  30.236  1.00 18.38 LIG 0.28  HD
ATOM     34 H3   ASP C   1      55.257  33.407  31.017  1.00 18.38 LIG 0.28  HD
ATOM     35 H2   ASP C   1      55.204  33.441  29.565  1.00 18.38 LIG 0.28  HD
ENDBRANCH 27 32
ENDBRANCH 24 27
ENDBRANCH 10 23
ENDBRANCH 8 10
ENDBRANCH 5 6
BRANCH 5 36
ATOM     36  CB  VAL C   3      54.176  28.250  34.088  1.00 17.74 LIG 0.01  C 
ATOM     37  CG1 VAL C   3      55.466  28.045  33.323  1.00 20.72 LIG 0.01  C 
ATOM     38  CG2 VAL C   3      53.888  26.973  34.858  1.00 18.64 LIG 0.01  C 
ENDBRANCH 5 36
ENDBRANCH 1 5
BRANCH 3 39
ATOM     39  CA  TYR C   4      57.105  28.629  37.470  1.00 17.90 LIG 0.18  C 
BRANCH 39 40
ATOM     40  CB  TYR C   4      57.221  29.701  38.509  1.00 20.19 LIG 0.07  C 
BRANCH 40 41
ATOM     41  CG  TYR C   4      57.282  31.115  37.998  1.00 23.00 LIG-0.06  A 
ATOM     42  CD2 TYR C   4      58.252  31.491  37.067  1.00 26.62 LIG 0.01  A 
ATOM     43  CE2 TYR C   4      58.331  32.783  36.589  1.00 28.63 LIG 0.04  A 
ATOM     44  CZ  TYR C   4      57.444  33.712  37.039  1.00 25.42 LIG 0.07  A 
ATOM     45  CE1 TYR C   4      56.462  33.375  37.908  1.00 26.89 LIG 0.04  A 
ATOM     46  CD1 TYR C   4      56.384  32.062  38.397  1.00 24.41 LIG 0.01  A 
BRANCH 44 47
ATOM     47 OH   TYR C   4      57.519  34.987  36.560  1.00 32.39 LIG-0.36  OA
ATOM     48 HH   TYR C   4      58.079  35.018  35.934  1.00 32.39 LIG 0.22  HD
ENDBRANCH 44 47
ENDBRANCH 40 41
ENDBRANCH 39 40
BRANCH 39 49
ATOM     49  C   TYR C   4      57.411  27.220  38.055  1.00 20.63 LIG 0.24  C 
ATOM     50 O    TYR C   4      58.463  26.978  38.579  1.00 19.73 LIG-0.27  OA
ATOM     51  N   ILE C   5      56.409  26.353  38.058  1.00 22.91 LIG-0.35  N 
ATOM     52 H    ILE C   5      55.609  26.537  37.801  1.00 22.91 LIG 0.16  HD
BRANCH 51 53
ATOM     53  CA  ILE C   5      56.600  24.986  38.511  1.00 27.58 LIG 0.18  C 
BRANCH 53 54
ATOM     54  C   ILE C   5      57.451  24.225  37.497  1.00 33.14 LIG 0.24  C 
ATOM     55  N   HIS C   6      58.203  23.219  37.962  1.00 39.14 LIG-0.35  N 
ATOM     56 H    HIS C   6      58.269  23.034  38.800  1.00 39.14 LIG 0.16  HD
ATOM     57 O    ILE C   5      57.483  24.637  36.341  1.00 25.88 LIG-0.27  OA
BRANCH 55 58
ATOM     58  CA  HIS C   6      59.016  22.305  37.081  1.00 56.87 LIG 0.17  C 
BRANCH 58 59
ATOM     59  CB  HIS C   6      60.320  23.010  36.609  1.00 66.39 LIG 0.09  C 
BRANCH 59 60
ATOM     60  CG  HIS C   6      60.452  23.153  35.119  1.00 78.50 LIG 0.06  A 
ATOM     61  CD2 HIS C   6      59.828  23.994  34.256  1.00 82.71 LIG 0.14  A 
ATOM     62 NE2  HIS C   6      60.343  23.753  33.003  1.00 84.02 LIG-0.25  NA
ATOM     63  CE1 HIS C   6      61.269  22.812  33.092  1.00 85.20 LIG 0.23  A 
ATOM     64 ND1  HIS C   6      61.360  22.437  34.359  1.00 88.66 LIG-0.24  NA
ENDBRANCH 59 60
ENDBRANCH 58 59
BRANCH 58 65
ATOM     65  C   HIS C   6      59.416  20.940  37.659  1.00 59.18 LIG 0.22  C 
ATOM     66 O    HIS C   6      60.612  20.705  37.978  1.00 63.69 LIG-0.29  OA
ENDBRANCH 58 65
ENDBRANCH 55 58
ENDBRANCH 53 54
BRANCH 53 67
ATOM     67  CB  ILE C   5      55.248  24.321  38.735  1.00 28.54 LIG 0.01  C 
ATOM     68  CG2 ILE C   5      55.002  23.327  37.603  1.00 32.34 LIG 0.01  C 
BRANCH 67 69
ATOM     69  CG1 ILE C   5      55.276  23.700  40.142  1.00 30.21 LIG 0.00  C 
ATOM     70  CD1 ILE C   5      54.518  24.439  41.215  1.00 32.85 LIG 0.01  C 
ENDBRANCH 67 69
ENDBRANCH 53 67
ENDBRANCH 51 53
ENDBRANCH 39 49
ENDBRANCH 3 39
TORSDOF 26
ENDMDL
MODEL 12
USER: ADFR SOLUTION from run 136
USER: SCORE 20.620351 LL:  -5.566 LR: -18.125 RR:   0.000 FEB: -10.369
USER: RMSD 10.037196
USER: SEED 135
USER: STATUS no improvement in best in 12 clusters for 5 generations
USER: GENES 28
USER: genes 0 Translation |==|  0.65162 0.60160 0.58062
USER: genes 1 Rotation |==|  0.21676 0.19104 0.22922 0.53156
USER: genes 2 Torsion [N]-C--CA-[N] |==|  0.89503
USER: genes 3 Torsion [C]-CA--N-[C] |==|  0.48889
USER: genes 4 Torsion [N]-C--CA-[N] |==|  0.97505
USER: genes 5 Torsion [C]-CA--CB-[CG] |==|  0.08077
USER: genes 6 Torsion [CA]-CB--CG-[CD] |==|  0.29412
USER: genes 7 Torsion [CB]-CG--CD-[NE] |==|  0.85779
USER: genes 8 Torsion [CG]-CD--NE-[CZ] |==|  0.56282
USER: genes 9 Torsion [C]-CA--N-[C] |==|  0.61968
USER: genes 10 Torsion [N]-C--CA-[N] |==|  0.38375
USER: genes 11 Torsion [C]-CA--CB-[CG] |==|  0.56313
USER: genes 12 Torsion [CA]-CB--CG-[OD2] |==|  0.71712
USER: genes 13 Torsion [C]-CA--N-[H1] |==|  0.69005
USER: genes 14 Torsion [C]-CA--CB-[CG1] |==|  0.93523
USER: genes 15 Torsion [C]-N--CA-[CB] |==|  0.83508
USER: genes 16 Torsion [N]-CA--CB-[CG] |==|  0.71097
USER: genes 17 Torsion [CA]-CB--CG-[CD2] |==|  0.65440
USER: genes 18 Torsion [CE2]-CZ--OH-[HH] |==|  0.72967
USER: genes 19 Torsion [N]-CA--C-[N] |==|  0.23850
USER: genes 20 Torsion [C]-N--CA-[C] |==|  0.66055
USER: genes 21 Torsion [N]-CA--C-[N] |==|  0.33610
USER: genes 22 Torsion [C]-N--CA-[CB] |==|  0.73400
USER: genes 23 Torsion [N]-CA--CB-[CG] |==|  0.14957
USER: genes 24 Torsion [CA]-CB--CG-[CD2] |==|  0.66316
USER: genes 25 Torsion [N]-CA--C-[O] |==|  0.50995
USER: genes 26 Torsion [N]-CA--CB-[CG1] |==|  0.53106
USER: genes 27 Torsion [CA]-CB--CG1-[CD1] |==|  0.44271
ROOT
ATOM      1  C   VAL C   3      56.759  31.921  36.477  1.00 15.94 LIG 0.24  C 
ATOM      2 O    VAL C   3      57.521  31.135  35.949  1.00 17.86 LIG-0.27  OA
ATOM      3  N   TYR C   4      55.631  31.514  37.050  1.00 16.41 LIG-0.35  N 
ATOM      4 H    TYR C   4      55.060  32.043  37.415  1.00 16.41 LIG 0.16  HD
ENDROOT
BRANCH 1 5
ATOM      5  CA  VAL C   3      57.081  33.429  36.451  1.00 16.01 LIG 0.18  C 
BRANCH 5 6
ATOM      6  N   VAL C   3      55.802  34.134  36.224  1.00 15.77 LIG-0.35  N 
ATOM      7 H    VAL C   3      55.119  33.627  36.092  1.00 15.77 LIG 0.16  HD
ATOM      8  C   ARG C   2      55.775  35.456  36.236  1.00 16.54 LIG 0.24  C 
ATOM      9 O    ARG C   2      56.772  36.146  36.538  1.00 14.63 LIG-0.27  OA
BRANCH 8 10
ATOM     10  CA  ARG C   2      54.457  36.121  35.889  1.00 19.03 LIG 0.18  C 
BRANCH 10 11
ATOM     11  CB  ARG C   2      53.910  36.830  37.132  1.00 20.38 LIG 0.04  C 
BRANCH 11 12
ATOM     12  CG  ARG C   2      54.945  37.311  38.092  1.00 20.75 LIG 0.02  C 
BRANCH 12 13
ATOM     13  CD  ARG C   2      55.092  38.766  38.019  1.00 22.55 LIG 0.14  C 
BRANCH 13 14
ATOM     14  NE  ARG C   2      55.288  39.231  36.673  1.00 20.36 LIG-0.23  N 
ATOM     15  CZ  ARG C   2      55.855  40.376  36.355  1.00 23.11 LIG 0.67  C 
ATOM     16  NH1 ARG C   2      56.400  41.111  37.260  1.00 23.20 LIG-0.23  N 
ATOM     17  NH2 ARG C   2      55.949  40.721  35.065  1.00 25.55 LIG-0.23  N 
ATOM     18 1HH1 ARG C   2      56.396  40.856  38.081  1.00 23.20 LIG 0.17  HD
ATOM     19 2HH1 ARG C   2      56.769  41.857  37.044  1.00 23.20 LIG 0.17  HD
ATOM     20 2HH2 ARG C   2      56.318  41.466  34.845  1.00 25.55 LIG 0.17  HD
ATOM     21 1HH2 ARG C   2      55.641  40.197  34.456  1.00 25.55 LIG 0.17  HD
ATOM     22 HE   ARG C   2      55.016  38.728  36.032  1.00 20.36 LIG 0.18  HD
ENDBRANCH 13 14
ENDBRANCH 12 13
ENDBRANCH 11 12
ENDBRANCH 10 11
BRANCH 10 23
ATOM     23  N   ARG C   2      53.485  35.135  35.389  1.00 19.42 LIG-0.35  N 
ATOM     24  C   ASP C   1      52.735  35.425  34.334  1.00 19.51 LIG 0.25  C 
ATOM     25 O    ASP C   1      52.972  36.397  33.599  1.00 19.29 LIG-0.27  OA
ATOM     26 H    ARG C   2      53.455  34.395  35.825  1.00 19.42 LIG 0.16  HD
BRANCH 24 27
ATOM     27  CA  ASP C   1      51.534  34.540  34.048  1.00 19.04 LIG 0.28  C 
BRANCH 27 28
ATOM     28  CB  ASP C   1      51.878  33.589  32.931  1.00 21.34 LIG 0.15  C 
BRANCH 28 29
ATOM     29  CG  ASP C   1      50.614  33.062  32.203  1.00 23.67 LIG 0.17  C 
ATOM     30 OD2  ASP C   1      50.217  31.899  32.488  1.00 27.41 LIG-0.65  OA
ATOM     31 OD1  ASP C   1      50.033  33.790  31.332  1.00 20.87 LIG-0.65  OA
ENDBRANCH 28 29
ENDBRANCH 27 28
BRANCH 27 32
ATOM     32  N   ASP C   1      50.394  35.443  33.652  1.00 18.38 LIG-0.07  N 
ATOM     33 H1   ASP C   1      49.769  35.428  34.286  1.00 18.38 LIG 0.28  HD
ATOM     34 H3   ASP C   1      50.044  35.161  32.884  1.00 18.38 LIG 0.28  HD
ATOM     35 H2   ASP C   1      50.694  36.275  33.552  1.00 18.38 LIG 0.28  HD
ENDBRANCH 27 32
ENDBRANCH 24 27
ENDBRANCH 10 23
ENDBRANCH 8 10
ENDBRANCH 5 6
BRANCH 5 36
ATOM     36  CB  VAL C   3      57.719  33.783  37.777  1.00 17.74 LIG 0.01  C 
ATOM     37  CG1 VAL C   3      57.342  32.795  38.861  1.00 20.72 LIG 0.01  C 
ATOM     38  CG2 VAL C   3      59.233  33.797  37.670  1.00 18.64 LIG 0.01  C 
ENDBRANCH 5 36
ENDBRANCH 1 5
BRANCH 3 39
ATOM     39  CA  TYR C   4      55.265  30.103  37.103  1.00 17.90 LIG 0.18  C 
BRANCH 39 40
ATOM     40  CB  TYR C   4      55.159  29.528  35.724  1.00 20.19 LIG 0.07  C 
BRANCH 40 41
ATOM     41  CG  TYR C   4      53.763  29.310  35.204  1.00 23.00 LIG-0.06  A 
ATOM     42  CD2 TYR C   4      53.362  28.049  34.760  1.00 26.62 LIG 0.01  A 
ATOM     43  CE2 TYR C   4      52.089  27.828  34.274  1.00 28.63 LIG 0.04  A 
ATOM     44  CZ  TYR C   4      51.208  28.864  34.224  1.00 25.42 LIG 0.07  A 
ATOM     45  CE1 TYR C   4      51.548  30.090  34.686  1.00 26.89 LIG 0.04  A 
ATOM     46  CD1 TYR C   4      52.842  30.317  35.177  1.00 24.41 LIG 0.01  A 
BRANCH 44 47
ATOM     47 OH   TYR C   4      49.949  28.641  33.749  1.00 32.39 LIG-0.36  OA
ATOM     48 HH   TYR C   4      49.911  28.864  32.940  1.00 32.39 LIG 0.22  HD
ENDBRANCH 44 47
ENDBRANCH 40 41
ENDBRANCH 39 40
BRANCH 39 49
ATOM     49  C   TYR C   4      56.209  29.262  38.009  1.00 20.63 LIG 0.24  C 
ATOM     50 O    TYR C   4      57.213  28.768  37.574  1.00 19.73 LIG-0.27  OA
ATOM     51  N   ILE C   5      55.914  29.230  39.300  1.00 22.91 LIG-0.35  N 
ATOM     52 H    ILE C   5      55.270  29.673  39.660  1.00 22.91 LIG 0.16  HD
BRANCH 51 53
ATOM     53  CA  ILE C   5      56.681  28.416  40.227  1.00 27.58 LIG 0.18  C 
BRANCH 53 54
ATOM     54  C   ILE C   5      55.751  27.432  40.934  1.00 33.14 LIG 0.24  C 
ATOM     55  N   HIS C   6      56.020  26.128  40.793  1.00 39.14 LIG-0.35  N 
ATOM     56 H    HIS C   6      56.645  25.832  40.280  1.00 39.14 LIG 0.16  HD
ATOM     57 O    ILE C   5      54.757  27.878  41.500  1.00 25.88 LIG-0.27  OA
BRANCH 55 58
ATOM     58  CA  HIS C   6      55.267  25.035  41.509  1.00 56.87 LIG 0.17  C 
BRANCH 58 59
ATOM     59  CB  HIS C   6      56.014  24.610  42.807  1.00 66.39 LIG 0.09  C 
BRANCH 59 60
ATOM     60  CG  HIS C   6      56.333  25.739  43.746  1.00 78.50 LIG 0.06  A 
ATOM     61  CD2 HIS C   6      57.524  26.174  44.227  1.00 82.71 LIG 0.14  A 
ATOM     62 NE2  HIS C   6      57.271  27.275  45.014  1.00 84.02 LIG-0.25  NA
ATOM     63  CE1 HIS C   6      55.972  27.524  45.000  1.00 85.20 LIG 0.23  A 
ATOM     64 ND1  HIS C   6      55.382  26.617  44.238  1.00 88.66 LIG-0.24  NA
ENDBRANCH 59 60
ENDBRANCH 58 59
BRANCH 58 65
ATOM     65  C   HIS C   6      53.808  25.318  41.891  1.00 59.18 LIG 0.22  C 
ATOM     66 O    HIS C   6      53.143  24.474  42.550  1.00 63.69 LIG-0.29  OA
ENDBRANCH 58 65
ENDBRANCH 55 58
ENDBRANCH 53 54
BRANCH 53 67
ATOM     67  CB  ILE C   5      57.421  29.311  41.212  1.00 28.54 LIG 0.01  C 
ATOM     68  CG2 ILE C   5      56.394  30.014  42.097  1.00 32.34 LIG 0.01  C 
BRANCH 67 69
ATOM     69  CG1 ILE C   5      58.421  28.421  41.969  1.00 30.21 LIG 0.00  C 
ATOM     70  CD1 ILE C   5      59.576  29.128  42.633  1.00 32.85 LIG 0.01  C 
ENDBRANCH 67 69
ENDBRANCH 53 67
ENDBRANCH 51 53
ENDBRANCH 39 49
ENDBRANCH 3 39
TORSDOF 26
ENDMDL
MODEL 13
USER: ADFR SOLUTION from run 15
USER: SCORE 22.656973 LL:  -5.296 LR: -18.103 RR:   0.000 FEB: -10.347
USER: RMSD 5.177070
USER: SEED 636491
USER: STATUS no improvement in best in 9 clusters for 5 generations
USER: GENES 28
USER: genes 0 Translation |==|  0.62539 0.46280 0.51315
USER: genes 1 Rotation |==|  0.45548 0.59781 0.53311 0.98719
USER: genes 2 Torsion [N]-C--CA-[N] |==|  0.46044
USER: genes 3 Torsion [C]-CA--N-[C] |==|  0.68426
USER: genes 4 Torsion [N]-C--CA-[N] |==|  0.12861
USER: genes 5 Torsion [C]-CA--CB-[CG] |==|  0.27160
USER: genes 6 Torsion [CA]-CB--CG-[CD] |==|  0.17856
USER: genes 7 Torsion [CB]-CG--CD-[NE] |==|  0.51897
USER: genes 8 Torsion [CG]-CD--NE-[CZ] |==|  0.30657
USER: genes 9 Torsion [C]-CA--N-[C] |==|  0.76325
USER: genes 10 Torsion [N]-C--CA-[N] |==|  0.40975
USER: genes 11 Torsion [C]-CA--CB-[CG] |==|  0.21822
USER: genes 12 Torsion [CA]-CB--CG-[OD2] |==|  0.77007
USER: genes 13 Torsion [C]-CA--N-[H1] |==|  0.11416
USER: genes 14 Torsion [C]-CA--CB-[CG1] |==|  0.21847
USER: genes 15 Torsion [C]-N--CA-[CB] |==|  0.84152
USER: genes 16 Torsion [N]-CA--CB-[CG] |==|  0.32303
USER: genes 17 Torsion [CA]-CB--CG-[CD2] |==|  0.22352
USER: genes 18 Torsion [CE2]-CZ--OH-[HH] |==|  0.80187
USER: genes 19 Torsion [N]-CA--C-[N] |==|  0.36670
USER: genes 20 Torsion [C]-N--CA-[C] |==|  0.61129
USER: genes 21 Torsion [N]-CA--C-[N] |==|  0.44554
USER: genes 22 Torsion [C]-N--CA-[CB] |==|  0.44352
USER: genes 23 Torsion [N]-CA--CB-[CG] |==|  0.95498
USER: genes 24 Torsion [CA]-CB--CG-[CD2] |==|  0.27522
USER: genes 25 Torsion [N]-CA--C-[O] |==|  0.70903
USER: genes 26 Torsion [N]-CA--CB-[CG1] |==|  0.03965
USER: genes 27 Torsion [CA]-CB--CG1-[CD1] |==|  0.23198
ROOT
ATOM      1  C   VAL C   3      56.307  28.381  34.706  1.00 15.94 LIG 0.24  C 
ATOM      2 O    VAL C   3      55.215  28.721  35.120  1.00 17.86 LIG-0.27  OA
ATOM      3  N   TYR C   4      56.446  27.783  33.527  1.00 16.41 LIG-0.35  N 
ATOM      4 H    TYR C   4      57.199  27.513  33.212  1.00 16.41 LIG 0.16  HD
ENDROOT
BRANCH 1 5
ATOM      5  CA  VAL C   3      57.558  28.608  35.580  1.00 16.01 LIG 0.18  C 
BRANCH 5 6
ATOM      6  N   VAL C   3      57.174  29.574  36.631  1.00 15.77 LIG-0.35  N 
ATOM      7 H    VAL C   3      56.593  29.291  37.198  1.00 15.77 LIG 0.16  HD
ATOM      8  C   ARG C   2      57.725  30.776  36.643  1.00 16.54 LIG 0.24  C 
ATOM      9 O    ARG C   2      58.643  31.103  35.861  1.00 14.63 LIG-0.27  OA
BRANCH 8 10
ATOM     10  CA  ARG C   2      57.211  31.758  37.678  1.00 19.03 LIG 0.18  C 
BRANCH 10 11
ATOM     11  CB  ARG C   2      58.152  32.967  37.734  1.00 20.38 LIG 0.04  C 
BRANCH 11 12
ATOM     12  CG  ARG C   2      57.706  34.151  36.945  1.00 20.75 LIG 0.02  C 
BRANCH 12 13
ATOM     13  CD  ARG C   2      56.457  34.698  37.480  1.00 22.55 LIG 0.14  C 
BRANCH 13 14
ATOM     14  NE  ARG C   2      55.914  35.741  36.654  1.00 20.36 LIG-0.23  N 
ATOM     15  CZ  ARG C   2      54.815  35.630  35.938  1.00 23.11 LIG 0.67  C 
ATOM     16  NH1 ARG C   2      54.069  34.586  36.042  1.00 23.20 LIG-0.23  N 
ATOM     17  NH2 ARG C   2      54.427  36.659  35.176  1.00 25.55 LIG-0.23  N 
ATOM     18 1HH1 ARG C   2      54.287  33.954  36.582  1.00 23.20 LIG 0.17  HD
ATOM     19 2HH1 ARG C   2      53.352  34.522  35.571  1.00 23.20 LIG 0.17  HD
ATOM     20 2HH2 ARG C   2      53.710  36.599  34.704  1.00 25.55 LIG 0.17  HD
ATOM     21 1HH2 ARG C   2      54.894  37.381  35.158  1.00 25.55 LIG 0.17  HD
ATOM     22 HE   ARG C   2      56.337  36.489  36.625  1.00 20.36 LIG 0.18  HD
ENDBRANCH 13 14
ENDBRANCH 12 13
ENDBRANCH 11 12
ENDBRANCH 10 11
BRANCH 10 23
ATOM     23  N   ARG C   2      57.110  31.124  39.002  1.00 19.42 LIG-0.35  N 
ATOM     24  C   ASP C   1      56.020  30.440  39.325  1.00 19.51 LIG 0.25  C 
ATOM     25 O    ASP C   1      55.172  30.108  38.480  1.00 19.29 LIG-0.27  OA
ATOM     26 H    ARG C   2      57.790  31.235  39.516  1.00 19.42 LIG 0.16  HD
BRANCH 24 27
ATOM     27  CA  ASP C   1      55.808  30.083  40.786  1.00 19.04 LIG 0.28  C 
BRANCH 27 28
ATOM     28  CB  ASP C   1      56.396  28.722  41.051  1.00 21.34 LIG 0.15  C 
BRANCH 28 29
ATOM     29  CG  ASP C   1      57.938  28.771  41.207  1.00 23.67 LIG 0.17  C 
ATOM     30 OD2  ASP C   1      58.632  28.766  40.153  1.00 27.41 LIG-0.65  OA
ATOM     31 OD1  ASP C   1      58.458  28.788  42.370  1.00 20.87 LIG-0.65  OA
ENDBRANCH 28 29
ENDBRANCH 27 28
BRANCH 27 32
ATOM     32  N   ASP C   1      54.320  30.084  41.037  1.00 18.38 LIG-0.07  N 
ATOM     33 H1   ASP C   1      53.903  29.705  40.348  1.00 18.38 LIG 0.28  HD
ATOM     34 H3   ASP C   1      54.036  30.921  41.132  1.00 18.38 LIG 0.28  HD
ATOM     35 H2   ASP C   1      54.144  29.625  41.779  1.00 18.38 LIG 0.28  HD
ENDBRANCH 27 32
ENDBRANCH 24 27
ENDBRANCH 10 23
ENDBRANCH 8 10
ENDBRANCH 5 6
BRANCH 5 36
ATOM     36  CB  VAL C   3      57.972  27.265  36.140  1.00 17.74 LIG 0.01  C 
ATOM     37  CG1 VAL C   3      58.720  26.437  35.117  1.00 20.72 LIG 0.01  C 
ATOM     38  CG2 VAL C   3      58.875  27.431  37.350  1.00 18.64 LIG 0.01  C 
ENDBRANCH 5 36
ENDBRANCH 1 5
BRANCH 3 39
ATOM     39  CA  TYR C   4      55.304  27.535  32.656  1.00 17.90 LIG 0.18  C 
BRANCH 39 40
ATOM     40  CB  TYR C   4      54.263  26.721  33.362  1.00 20.19 LIG 0.07  C 
BRANCH 40 41
ATOM     41  CG  TYR C   4      52.934  27.393  33.582  1.00 23.00 LIG-0.06  A 
ATOM     42  CD2 TYR C   4      51.994  27.459  32.553  1.00 26.62 LIG 0.01  A 
ATOM     43  CE2 TYR C   4      50.772  28.075  32.730  1.00 28.63 LIG 0.04  A 
ATOM     44  CZ  TYR C   4      50.481  28.635  33.936  1.00 25.42 LIG 0.07  A 
ATOM     45  CE1 TYR C   4      51.349  28.553  34.971  1.00 26.89 LIG 0.04  A 
ATOM     46  CD1 TYR C   4      52.592  27.930  34.790  1.00 24.41 LIG 0.01  A 
BRANCH 44 47
ATOM     47 OH   TYR C   4      49.269  29.239  34.111  1.00 32.39 LIG-0.36  OA
ATOM     48 HH   TYR C   4      49.248  29.957  33.675  1.00 32.39 LIG 0.22  HD
ENDBRANCH 44 47
ENDBRANCH 40 41
ENDBRANCH 39 40
BRANCH 39 49
ATOM     49  C   TYR C   4      54.705  28.835  32.048  1.00 20.63 LIG 0.24  C 
ATOM     50 O    TYR C   4      54.571  29.828  32.709  1.00 19.73 LIG-0.27  OA
ATOM     51  N   ILE C   5      54.475  28.824  30.743  1.00 22.91 LIG-0.35  N 
ATOM     52 H    ILE C   5      54.674  28.169  30.222  1.00 22.91 LIG 0.16  HD
BRANCH 51 53
ATOM     53  CA  ILE C   5      53.849  29.955  30.081  1.00 27.58 LIG 0.18  C 
BRANCH 53 54
ATOM     54  C   ILE C   5      52.858  29.450  29.035  1.00 33.14 LIG 0.24  C 
ATOM     55  N   HIS C   6      51.916  30.308  28.621  1.00 39.14 LIG-0.35  N 
ATOM     56 H    HIS C   6      51.815  31.092  28.962  1.00 39.14 LIG 0.16  HD
ATOM     57 O    ILE C   5      52.909  28.267  28.710  1.00 25.88 LIG-0.27  OA
BRANCH 55 58
ATOM     58  CA  HIS C   6      50.931  30.003  27.521  1.00 56.87 LIG 0.17  C 
BRANCH 58 59
ATOM     59  CB  HIS C   6      49.690  30.938  27.618  1.00 66.39 LIG 0.09  C 
BRANCH 59 60
ATOM     60  CG  HIS C   6      49.536  31.642  28.936  1.00 78.50 LIG 0.06  A 
ATOM     61  CD2 HIS C   6      49.869  32.905  29.304  1.00 82.71 LIG 0.14  A 
ATOM     62 NE2  HIS C   6      49.472  33.069  30.611  1.00 84.02 LIG-0.25  NA
ATOM     63  CE1 HIS C   6      48.894  31.955  31.029  1.00 85.20 LIG 0.23  A 
ATOM     64 ND1  HIS C   6      48.913  31.079  30.036  1.00 88.66 LIG-0.24  NA
ENDBRANCH 59 60
ENDBRANCH 58 59
BRANCH 58 65
ATOM     65  C   HIS C   6      51.444  30.070  26.075  1.00 59.18 LIG 0.22  C 
ATOM     66 O    HIS C   6      51.144  31.044  25.334  1.00 63.69 LIG-0.29  OA
ENDBRANCH 58 65
ENDBRANCH 55 58
ENDBRANCH 53 54
BRANCH 53 67
ATOM     67  CB  ILE C   5      54.915  30.853  29.470  1.00 28.54 LIG 0.01  C 
ATOM     68  CG2 ILE C   5      54.964  32.159  30.261  1.00 32.34 LIG 0.01  C 
BRANCH 67 69
ATOM     69  CG1 ILE C   5      56.231  30.056  29.464  1.00 30.21 LIG 0.00  C 
ATOM     70  CD1 ILE C   5      56.436  29.112  28.305  1.00 32.85 LIG 0.01  C 
ENDBRANCH 67 69
ENDBRANCH 53 67
ENDBRANCH 51 53
ENDBRANCH 39 49
ENDBRANCH 3 39
TORSDOF 26
ENDMDL
MODEL 14
USER: ADFR SOLUTION from run 136
USER: SCORE 21.791282 LL:  -5.776 LR: -18.088 RR:   0.000 FEB: -10.332
USER: RMSD 10.014625
USER: SEED 135
USER: STATUS no improvement in best in 12 clusters for 5 generations
USER: GENES 28
USER: genes 0 Translation |==|  0.64011 0.59465 0.57493
USER: genes 1 Rotation |==|  0.74156 0.78510 0.83220 0.50356
USER: genes 2 Torsion [N]-C--CA-[N] |==|  0.93273
USER: genes 3 Torsion [C]-CA--N-[C] |==|  0.53335
USER: genes 4 Torsion [N]-C--CA-[N] |==|  0.95878
USER: genes 5 Torsion [C]-CA--CB-[CG] |==|  0.20096
USER: genes 6 Torsion [CA]-CB--CG-[CD] |==|  0.18570
USER: genes 7 Torsion [CB]-CG--CD-[NE] |==|  0.08717
USER: genes 8 Torsion [CG]-CD--NE-[CZ] |==|  0.64886
USER: genes 9 Torsion [C]-CA--N-[C] |==|  0.63483
USER: genes 10 Torsion [N]-C--CA-[N] |==|  0.39277
USER: genes 11 Torsion [C]-CA--CB-[CG] |==|  0.56420
USER: genes 12 Torsion [CA]-CB--CG-[OD2] |==|  0.70933
USER: genes 13 Torsion [C]-CA--N-[H1] |==|  0.70176
USER: genes 14 Torsion [C]-CA--CB-[CG1] |==|  0.93893
USER: genes 15 Torsion [C]-N--CA-[CB] |==|  0.78270
USER: genes 16 Torsion [N]-CA--CB-[CG] |==|  0.65922
USER: genes 17 Torsion [CA]-CB--CG-[CD2] |==|  0.02080
USER: genes 18 Torsion [CE2]-CZ--OH-[HH] |==|  0.75930
USER: genes 19 Torsion [N]-CA--C-[N] |==|  0.16027
USER: genes 20 Torsion [C]-N--CA-[C] |==|  0.56452
USER: genes 21 Torsion [N]-CA--C-[N] |==|  0.42443
USER: genes 22 Torsion [C]-N--CA-[CB] |==|  0.85554
USER: genes 23 Torsion [N]-CA--CB-[CG] |==|  0.76779
USER: genes 24 Torsion [CA]-CB--CG-[CD2] |==|  0.31051
USER: genes 25 Torsion [N]-CA--C-[O] |==|  0.24538
USER: genes 26 Torsion [N]-CA--CB-[CG1] |==|  0.63512
USER: genes 27 Torsion [CA]-CB--CG1-[CD1] |==|  0.04875
ROOT
ATOM      1  C   VAL C   3      56.561  31.744  36.328  1.00 15.94 LIG 0.24  C 
ATOM      2 O    VAL C   3      57.432  30.984  35.951  1.00 17.86 LIG-0.27  OA
ATOM      3  N   TYR C   4      55.303  31.339  36.469  1.00 16.41 LIG-0.35  N 
ATOM      4 H    TYR C   4      54.658  31.853  36.715  1.00 16.41 LIG 0.16  HD
ENDROOT
BRANCH 1 5
ATOM      5  CA  VAL C   3      56.907  33.220  36.610  1.00 16.01 LIG 0.18  C 
BRANCH 5 6
ATOM      6  N   VAL C   3      55.661  33.993  36.420  1.00 15.77 LIG-0.35  N 
ATOM      7 H    VAL C   3      54.942  33.525  36.354  1.00 15.77 LIG 0.16  HD
ATOM      8  C   ARG C   2      55.716  35.314  36.364  1.00 16.54 LIG 0.24  C 
ATOM      9 O    ARG C   2      56.770  35.952  36.571  1.00 14.63 LIG-0.27  OA
BRANCH 8 10
ATOM     10  CA  ARG C   2      54.423  36.044  36.058  1.00 19.03 LIG 0.18  C 
BRANCH 10 11
ATOM     11  CB  ARG C   2      53.919  36.727  37.333  1.00 20.38 LIG 0.04  C 
BRANCH 11 12
ATOM     12  CG  ARG C   2      54.702  37.921  37.762  1.00 20.75 LIG 0.02  C 
BRANCH 12 13
ATOM     13  CD  ARG C   2      54.559  39.016  36.801  1.00 22.55 LIG 0.14  C 
BRANCH 13 14
ATOM     14  NE  ARG C   2      53.275  39.015  36.153  1.00 20.36 LIG-0.23  N 
ATOM     15  CZ  ARG C   2      53.098  39.023  34.849  1.00 23.11 LIG 0.67  C 
ATOM     16  NH1 ARG C   2      54.100  38.899  34.051  1.00 23.20 LIG-0.23  N 
ATOM     17  NH2 ARG C   2      51.852  39.060  34.361  1.00 25.55 LIG-0.23  N 
ATOM     18 1HH1 ARG C   2      54.894  38.810  34.368  1.00 23.20 LIG 0.17  HD
ATOM     19 2HH1 ARG C   2      53.975  38.905  33.200  1.00 23.20 LIG 0.17  HD
ATOM     20 2HH2 ARG C   2      51.723  39.065  33.511  1.00 25.55 LIG 0.17  HD
ATOM     21 1HH2 ARG C   2      51.180  39.078  34.898  1.00 25.55 LIG 0.17  HD
ATOM     22 HE   ARG C   2      52.576  39.009  36.653  1.00 20.36 LIG 0.18  HD
ENDBRANCH 13 14
ENDBRANCH 12 13
ENDBRANCH 11 12
ENDBRANCH 10 11
BRANCH 10 23
ATOM     23  N   ARG C   2      53.406  35.117  35.533  1.00 19.42 LIG-0.35  N 
ATOM     24  C   ASP C   1      52.732  35.431  34.435  1.00 19.51 LIG 0.25  C 
ATOM     25 O    ASP C   1      53.077  36.362  33.689  1.00 19.29 LIG-0.27  OA
ATOM     26 H    ARG C   2      53.300  34.394  35.986  1.00 19.42 LIG 0.16  HD
BRANCH 24 27
ATOM     27  CA  ASP C   1      51.485  34.628  34.110  1.00 19.04 LIG 0.28  C 
BRANCH 27 28
ATOM     28  CB  ASP C   1      51.830  33.570  33.094  1.00 21.34 LIG 0.15  C 
BRANCH 28 29
ATOM     29  CG  ASP C   1      50.587  33.102  32.293  1.00 23.67 LIG 0.17  C 
ATOM     30 OD2  ASP C   1      50.095  31.977  32.583  1.00 27.41 LIG-0.65  OA
ATOM     31 OD1  ASP C   1      50.119  33.835  31.362  1.00 20.87 LIG-0.65  OA
ENDBRANCH 28 29
ENDBRANCH 27 28
BRANCH 27 32
ATOM     32  N   ASP C   1      50.463  35.589  33.557  1.00 18.38 LIG-0.07  N 
ATOM     33 H1   ASP C   1      49.822  35.721  34.161  1.00 18.38 LIG 0.28  HD
ATOM     34 H3   ASP C   1      50.107  35.250  32.815  1.00 18.38 LIG 0.28  HD
ATOM     35 H2   ASP C   1      50.856  36.365  33.368  1.00 18.38 LIG 0.28  HD
ENDBRANCH 27 32
ENDBRANCH 24 27
ENDBRANCH 10 23
ENDBRANCH 8 10
ENDBRANCH 5 6
BRANCH 5 36
ATOM     36  CB  VAL C   3      57.438  33.302  38.025  1.00 17.74 LIG 0.01  C 
ATOM     37  CG1 VAL C   3      56.984  32.125  38.863  1.00 20.72 LIG 0.01  C 
ATOM     38  CG2 VAL C   3      58.956  33.322  38.040  1.00 18.64 LIG 0.01  C 
ENDBRANCH 5 36
ENDBRANCH 1 5
BRANCH 3 39
ATOM     39  CA  TYR C   4      54.909  29.959  36.213  1.00 17.90 LIG 0.18  C 
BRANCH 39 40
ATOM     40  CB  TYR C   4      54.787  29.705  34.742  1.00 20.19 LIG 0.07  C 
BRANCH 40 41
ATOM     41  CG  TYR C   4      53.449  29.206  34.266  1.00 23.00 LIG-0.06  A 
ATOM     42  CD2 TYR C   4      52.361  29.151  35.139  1.00 26.62 LIG 0.01  A 
ATOM     43  CE2 TYR C   4      51.127  28.691  34.725  1.00 28.63 LIG 0.04  A 
ATOM     44  CZ  TYR C   4      50.970  28.279  33.438  1.00 25.42 LIG 0.07  A 
ATOM     45  CE1 TYR C   4      51.989  28.358  32.551  1.00 26.89 LIG 0.04  A 
ATOM     46  CD1 TYR C   4      53.244  28.822  32.971  1.00 24.41 LIG 0.01  A 
BRANCH 44 47
ATOM     47 OH   TYR C   4      49.747  27.831  33.030  1.00 32.39 LIG-0.36  OA
ATOM     48 HH   TYR C   4      49.678  27.011  33.200  1.00 32.39 LIG 0.22  HD
ENDBRANCH 44 47
ENDBRANCH 40 41
ENDBRANCH 39 40
BRANCH 39 49
ATOM     49  C   TYR C   4      55.838  28.921  36.904  1.00 20.63 LIG 0.24  C 
ATOM     50 O    TYR C   4      56.502  28.155  36.261  1.00 19.73 LIG-0.27  OA
ATOM     51  N   ILE C   5      55.952  29.015  38.220  1.00 22.91 LIG-0.35  N 
ATOM     52 H    ILE C   5      55.584  29.631  38.694  1.00 22.91 LIG 0.16  HD
BRANCH 51 53
ATOM     53  CA  ILE C   5      56.733  28.053  38.978  1.00 27.58 LIG 0.18  C 
BRANCH 53 54
ATOM     54  C   ILE C   5      56.250  28.029  40.426  1.00 33.14 LIG 0.24  C 
ATOM     55  N   HIS C   6      56.421  26.889  41.109  1.00 39.14 LIG-0.35  N 
ATOM     56 H    HIS C   6      56.729  26.171  40.749  1.00 39.14 LIG 0.16  HD
ATOM     57 O    ILE C   5      55.640  29.007  40.851  1.00 25.88 LIG-0.27  OA
BRANCH 55 58
ATOM     58  CA  HIS C   6      56.097  26.734  42.573  1.00 56.87 LIG 0.17  C 
BRANCH 58 59
ATOM     59  CB  HIS C   6      56.780  27.856  43.410  1.00 66.39 LIG 0.09  C 
BRANCH 59 60
ATOM     60  CG  HIS C   6      58.210  27.580  43.779  1.00 78.50 LIG 0.06  A 
ATOM     61  CD2 HIS C   6      59.356  28.181  43.371  1.00 82.71 LIG 0.14  A 
ATOM     62 NE2  HIS C   6      60.395  27.584  44.047  1.00 84.02 LIG-0.25  NA
ATOM     63  CE1 HIS C   6      59.907  26.663  44.861  1.00 85.20 LIG 0.23  A 
ATOM     64 ND1  HIS C   6      58.590  26.643  44.725  1.00 88.66 LIG-0.24  NA
ENDBRANCH 59 60
ENDBRANCH 58 59
BRANCH 58 65
ATOM     65  C   HIS C   6      54.615  26.704  42.969  1.00 59.18 LIG 0.22  C 
ATOM     66 O    HIS C   6      53.978  25.617  42.988  1.00 63.69 LIG-0.29  OA
ENDBRANCH 58 65
ENDBRANCH 55 58
ENDBRANCH 53 54
BRANCH 53 67
ATOM     67  CB  ILE C   5      58.214  28.392  38.876  1.00 28.54 LIG 0.01  C 
ATOM     68  CG2 ILE C   5      58.658  29.032  40.189  1.00 32.34 LIG 0.01  C 
BRANCH 67 69
ATOM     69  CG1 ILE C   5      58.952  27.093  38.511  1.00 30.21 LIG 0.00  C 
ATOM     70  CD1 ILE C   5      58.107  25.976  37.952  1.00 32.85 LIG 0.01  C 
ENDBRANCH 67 69
ENDBRANCH 53 67
ENDBRANCH 51 53
ENDBRANCH 39 49
ENDBRANCH 3 39
TORSDOF 26
ENDMDL
MODEL 15
USER: ADFR SOLUTION from run 141
USER: SCORE 21.401101 LL:  -5.046 LR: -18.027 RR:   0.000 FEB: -10.271
USER: RMSD 11.276123
USER: SEED 140
USER: STATUS no improvement in best in 1 clusters for 5 generations
USER: GENES 28
USER: genes 0 Translation |==|  0.57471 0.53364 0.57472
USER: genes 1 Rotation |==|  0.86099 0.28601 0.25768 0.62320
USER: genes 2 Torsion [N]-C--CA-[N] |==|  0.74096
USER: genes 3 Torsion [C]-CA--N-[C] |==|  0.76667
USER: genes 4 Torsion [N]-C--CA-[N] |==|  0.27095
USER: genes 5 Torsion [C]-CA--CB-[CG] |==|  0.74281
USER: genes 6 Torsion [CA]-CB--CG-[CD] |==|  0.60296
USER: genes 7 Torsion [CB]-CG--CD-[NE] |==|  0.90766
USER: genes 8 Torsion [CG]-CD--NE-[CZ] |==|  0.55047
USER: genes 9 Torsion [C]-CA--N-[C] |==|  0.59466
USER: genes 10 Torsion [N]-C--CA-[N] |==|  0.47018
USER: genes 11 Torsion [C]-CA--CB-[CG] |==|  0.46648
USER: genes 12 Torsion [CA]-CB--CG-[OD2] |==|  0.61532
USER: genes 13 Torsion [C]-CA--N-[H1] |==|  0.19971
USER: genes 14 Torsion [C]-CA--CB-[CG1] |==|  0.42768
USER: genes 15 Torsion [C]-N--CA-[CB] |==|  0.74705
USER: genes 16 Torsion [N]-CA--CB-[CG] |==|  0.22854
USER: genes 17 Torsion [CA]-CB--CG-[CD2] |==|  0.79611
USER: genes 18 Torsion [CE2]-CZ--OH-[HH] |==|  0.71230
USER: genes 19 Torsion [N]-CA--C-[N] |==|  0.26901
USER: genes 20 Torsion [C]-N--CA-[C] |==|  0.61458
USER: genes 21 Torsion [N]-CA--C-[N] |==|  0.46449
USER: genes 22 Torsion [C]-N--CA-[CB] |==|  0.71063
USER: genes 23 Torsion [N]-CA--CB-[CG] |==|  0.88244
USER: genes 24 Torsion [CA]-CB--CG-[CD2] |==|  0.20272
USER: genes 25 Torsion [N]-CA--C-[O] |==|  0.55450
USER: genes 26 Torsion [N]-CA--CB-[CG1] |==|  0.09677
USER: genes 27 Torsion [CA]-CB--CG1-[CD1] |==|  0.35299
ROOT
ATOM      1  C   VAL C   3      55.433  30.188  36.322  1.00 15.94 LIG 0.24  C 
ATOM      2 O    VAL C   3      55.041  30.927  37.204  1.00 17.86 LIG-0.27  OA
ATOM      3  N   TYR C   4      56.721  29.884  36.194  1.00 16.41 LIG-0.35  N 
ATOM      4 H    TYR C   4      57.035  29.381  35.571  1.00 16.41 LIG 0.16  HD
ENDROOT
BRANCH 1 5
ATOM      5  CA  VAL C   3      54.427  29.618  35.302  1.00 16.01 LIG 0.18  C 
BRANCH 5 6
ATOM      6  N   VAL C   3      54.274  30.635  34.240  1.00 15.77 LIG-0.35  N 
ATOM      7 H    VAL C   3      54.765  30.517  33.543  1.00 15.77 LIG 0.16  HD
ATOM      8  C   ARG C   2      53.424  31.634  34.411  1.00 16.54 LIG 0.24  C 
ATOM      9 O    ARG C   2      52.657  31.703  35.394  1.00 14.63 LIG-0.27  OA
BRANCH 8 10
ATOM     10  CA  ARG C   2      53.394  32.702  33.336  1.00 19.03 LIG 0.18  C 
BRANCH 10 11
ATOM     11  CB  ARG C   2      53.236  34.076  33.997  1.00 20.38 LIG 0.04  C 
BRANCH 11 12
ATOM     12  CG  ARG C   2      51.830  34.552  34.138  1.00 20.75 LIG 0.02  C 
BRANCH 12 13
ATOM     13  CD  ARG C   2      51.742  35.997  33.920  1.00 22.55 LIG 0.14  C 
BRANCH 13 14
ATOM     14  NE  ARG C   2      52.914  36.694  34.374  1.00 20.36 LIG-0.23  N 
ATOM     15  CZ  ARG C   2      52.967  37.987  34.615  1.00 23.11 LIG 0.67  C 
ATOM     16  NH1 ARG C   2      51.899  38.704  34.577  1.00 23.20 LIG-0.23  N 
ATOM     17  NH2 ARG C   2      54.128  38.532  34.998  1.00 25.55 LIG-0.23  N 
ATOM     18 1HH1 ARG C   2      51.142  38.339  34.394  1.00 23.20 LIG 0.17  HD
ATOM     19 2HH1 ARG C   2      51.942  39.549  34.736  1.00 23.20 LIG 0.17  HD
ATOM     20 2HH2 ARG C   2      54.175  39.376  35.158  1.00 25.55 LIG 0.17  HD
ATOM     21 1HH2 ARG C   2      54.827  38.038  35.084  1.00 25.55 LIG 0.17  HD
ATOM     22 HE   ARG C   2      53.630  36.235  34.497  1.00 20.36 LIG 0.18  HD
ENDBRANCH 13 14
ENDBRANCH 12 13
ENDBRANCH 11 12
ENDBRANCH 10 11
BRANCH 10 23
ATOM     23  N   ARG C   2      52.297  32.461  32.383  1.00 19.42 LIG-0.35  N 
ATOM     24  C   ASP C   1      52.452  32.777  31.105  1.00 19.51 LIG 0.25  C 
ATOM     25 O    ASP C   1      53.562  33.051  30.620  1.00 19.29 LIG-0.27  OA
ATOM     26 H    ARG C   2      51.586  32.115  32.721  1.00 19.42 LIG 0.16  HD
BRANCH 24 27
ATOM     27  CA  ASP C   1      51.214  32.824  30.226  1.00 19.04 LIG 0.28  C 
BRANCH 27 28
ATOM     28  CB  ASP C   1      50.708  31.420  30.011  1.00 21.34 LIG 0.15  C 
BRANCH 28 29
ATOM     29  CG  ASP C   1      49.291  31.400  29.382  1.00 23.67 LIG 0.17  C 
ATOM     30 OD2  ASP C   1      48.464  30.561  29.831  1.00 27.41 LIG-0.65  OA
ATOM     31 OD1  ASP C   1      49.009  32.196  28.427  1.00 20.87 LIG-0.65  OA
ENDBRANCH 28 29
ENDBRANCH 27 28
BRANCH 27 32
ATOM     32  N   ASP C   1      51.616  33.455  28.917  1.00 18.38 LIG-0.07  N 
ATOM     33 H1   ASP C   1      52.119  32.885  28.454  1.00 18.38 LIG 0.28  HD
ATOM     34 H3   ASP C   1      52.078  34.198  29.075  1.00 18.38 LIG 0.28  HD
ATOM     35 H2   ASP C   1      50.887  33.655  28.446  1.00 18.38 LIG 0.28  HD
ENDBRANCH 27 32
ENDBRANCH 24 27
ENDBRANCH 10 23
ENDBRANCH 8 10
ENDBRANCH 5 6
BRANCH 5 36
ATOM     36  CB  VAL C   3      54.989  28.311  34.787  1.00 17.74 LIG 0.01  C 
ATOM     37  CG1 VAL C   3      53.895  27.380  34.309  1.00 20.72 LIG 0.01  C 
ATOM     38  CG2 VAL C   3      55.939  28.543  33.626  1.00 18.64 LIG 0.01  C 
ENDBRANCH 5 36
ENDBRANCH 1 5
BRANCH 3 39
ATOM     39  CA  TYR C   4      57.723  30.394  37.121  1.00 17.90 LIG 0.18  C 
BRANCH 39 40
ATOM     40  CB  TYR C   4      58.291  31.691  36.631  1.00 20.19 LIG 0.07  C 
BRANCH 40 41
ATOM     41  CG  TYR C   4      57.481  32.924  36.932  1.00 23.00 LIG-0.06  A 
ATOM     42  CD2 TYR C   4      56.299  33.182  36.236  1.00 26.62 LIG 0.01  A 
ATOM     43  CE2 TYR C   4      55.544  34.309  36.491  1.00 28.63 LIG 0.04  A 
ATOM     44  CZ  TYR C   4      55.965  35.189  37.440  1.00 25.42 LIG 0.07  A 
ATOM     45  CE1 TYR C   4      57.083  34.950  38.166  1.00 26.89 LIG 0.04  A 
ATOM     46  CD1 TYR C   4      57.852  33.807  37.904  1.00 24.41 LIG 0.01  A 
BRANCH 44 47
ATOM     47 OH   TYR C   4      55.213  36.299  37.695  1.00 32.39 LIG-0.36  OA
ATOM     48 HH   TYR C   4      55.575  36.969  37.340  1.00 32.39 LIG 0.22  HD
ENDBRANCH 44 47
ENDBRANCH 40 41
ENDBRANCH 39 40
BRANCH 39 49
ATOM     49  C   TYR C   4      57.202  30.507  38.582  1.00 20.63 LIG 0.24  C 
ATOM     50 O    TYR C   4      56.480  31.405  38.918  1.00 19.73 LIG-0.27  OA
ATOM     51  N   ILE C   5      57.492  29.499  39.391  1.00 22.91 LIG-0.35  N 
ATOM     52 H    ILE C   5      57.904  28.785  39.146  1.00 22.91 LIG 0.16  HD
BRANCH 51 53
ATOM     53  CA  ILE C   5      57.121  29.532  40.795  1.00 27.58 LIG 0.18  C 
BRANCH 53 54
ATOM     54  C   ILE C   5      58.265  28.975  41.639  1.00 33.14 LIG 0.24  C 
ATOM     55  N   HIS C   6      58.201  29.172  42.963  1.00 39.14 LIG-0.35  N 
ATOM     56 H    HIS C   6      57.586  29.644  43.335  1.00 39.14 LIG 0.16  HD
ATOM     57 O    ILE C   5      59.224  28.474  41.059  1.00 25.88 LIG-0.27  OA
BRANCH 55 58
ATOM     58  CA  HIS C   6      59.191  28.597  43.944  1.00 56.87 LIG 0.17  C 
BRANCH 58 59
ATOM     59  CB  HIS C   6      58.573  27.387  44.704  1.00 66.39 LIG 0.09  C 
BRANCH 59 60
ATOM     60  CG  HIS C   6      57.150  27.584  45.146  1.00 78.50 LIG 0.06  A 
ATOM     61  CD2 HIS C   6      56.000  27.600  44.427  1.00 82.71 LIG 0.14  A 
ATOM     62 NE2  HIS C   6      54.963  27.767  45.316  1.00 84.02 LIG-0.25  NA
ATOM     63  CE1 HIS C   6      55.454  27.830  46.543  1.00 85.20 LIG 0.23  A 
ATOM     64 ND1  HIS C   6      56.771  27.715  46.470  1.00 88.66 LIG-0.24  NA
ENDBRANCH 59 60
ENDBRANCH 58 59
BRANCH 58 65
ATOM     65  C   HIS C   6      60.551  28.146  43.393  1.00 59.18 LIG 0.22  C 
ATOM     66 O    HIS C   6      61.270  27.341  44.042  1.00 63.69 LIG-0.29  OA
ENDBRANCH 58 65
ENDBRANCH 55 58
ENDBRANCH 53 54
BRANCH 53 67
ATOM     67  CB  ILE C   5      55.826  28.760  41.008  1.00 28.54 LIG 0.01  C 
ATOM     68  CG2 ILE C   5      54.653  29.722  40.837  1.00 32.34 LIG 0.01  C 
BRANCH 67 69
ATOM     69  CG1 ILE C   5      55.837  27.577  40.025  1.00 30.21 LIG 0.00  C 
ATOM     70  CD1 ILE C   5      55.602  26.211  40.618  1.00 32.85 LIG 0.01  C 
ENDBRANCH 67 69
ENDBRANCH 53 67
ENDBRANCH 51 53
ENDBRANCH 39 49
ENDBRANCH 3 39
TORSDOF 26
ENDMDL
MODEL 16
USER: ADFR SOLUTION from run 8
USER: SCORE 23.234636 LL:  -5.908 LR: -17.999 RR:   0.000 FEB: -10.243
USER: RMSD 10.867860
USER: SEED 629387
USER: STATUS no improvement in best in 2 clusters for 5 generations
USER: GENES 28
USER: genes 0 Translation |==|  0.51509 0.52244 0.54247
USER: genes 1 Rotation |==|  0.39769 0.07911 0.55636 0.74332
USER: genes 2 Torsion [N]-C--CA-[N] |==|  0.41064
USER: genes 3 Torsion [C]-CA--N-[C] |==|  0.77743
USER: genes 4 Torsion [N]-C--CA-[N] |==|  0.02214
USER: genes 5 Torsion [C]-CA--CB-[CG] |==|  0.30574
USER: genes 6 Torsion [CA]-CB--CG-[CD] |==|  0.73316
USER: genes 7 Torsion [CB]-CG--CD-[NE] |==|  0.48950
USER: genes 8 Torsion [CG]-CD--NE-[CZ] |==|  0.20779
USER: genes 9 Torsion [C]-CA--N-[C] |==|  0.72012
USER: genes 10 Torsion [N]-C--CA-[N] |==|  0.82654
USER: genes 11 Torsion [C]-CA--CB-[CG] |==|  0.76180
USER: genes 12 Torsion [CA]-CB--CG-[OD2] |==|  0.29693
USER: genes 13 Torsion [C]-CA--N-[H1] |==|  0.29758
USER: genes 14 Torsion [C]-CA--CB-[CG1] |==|  0.56007
USER: genes 15 Torsion [C]-N--CA-[CB] |==|  0.15882
USER: genes 16 Torsion [N]-CA--CB-[CG] |==|  0.16816
USER: genes 17 Torsion [CA]-CB--CG-[CD2] |==|  0.79154
USER: genes 18 Torsion [CE2]-CZ--OH-[HH] |==|  0.13794
USER: genes 19 Torsion [N]-CA--C-[N] |==|  0.10915
USER: genes 20 Torsion [C]-N--CA-[C] |==|  0.55556
USER: genes 21 Torsion [N]-CA--C-[N] |==|  0.54443
USER: genes 22 Torsion [C]-N--CA-[CB] |==|  0.63148
USER: genes 23 Torsion [N]-CA--CB-[CG] |==|  0.85861
USER: genes 24 Torsion [CA]-CB--CG-[CD2] |==|  0.47469
USER: genes 25 Torsion [N]-CA--C-[O] |==|  0.54684
USER: genes 26 Torsion [N]-CA--CB-[CG1] |==|  0.54621
USER: genes 27 Torsion [CA]-CB--CG1-[CD1] |==|  0.54789
ROOT
ATOM      1  C   VAL C   3      54.404  29.902  35.476  1.00 15.94 LIG 0.24  C 
ATOM      2 O    VAL C   3      54.975  29.790  34.408  1.00 17.86 LIG-0.27  OA
ATOM      3  N   TYR C   4      55.051  29.749  36.627  1.00 16.41 LIG-0.35  N 
ATOM      4 H    TYR C   4      54.677  29.802  37.399  1.00 16.41 LIG 0.16  HD
ENDROOT
BRANCH 1 5
ATOM      5  CA  VAL C   3      52.889  30.187  35.504  1.00 16.01 LIG 0.18  C 
BRANCH 5 6
ATOM      6  N   VAL C   3      52.594  31.041  34.334  1.00 15.77 LIG-0.35  N 
ATOM      7 H    VAL C   3      52.266  30.633  33.652  1.00 15.77 LIG 0.16  HD
ATOM      8  C   ARG C   2      52.840  32.339  34.397  1.00 16.54 LIG 0.24  C 
ATOM      9 O    ARG C   2      53.217  32.903  35.446  1.00 14.63 LIG-0.27  OA
BRANCH 8 10
ATOM     10  CA  ARG C   2      52.620  33.143  33.130  1.00 19.03 LIG 0.18  C 
BRANCH 10 11
ATOM     11  CB  ARG C   2      51.757  34.367  33.455  1.00 20.38 LIG 0.04  C 
BRANCH 11 12
ATOM     12  CG  ARG C   2      52.468  35.676  33.390  1.00 20.75 LIG 0.02  C 
BRANCH 12 13
ATOM     13  CD  ARG C   2      52.928  36.089  34.717  1.00 22.55 LIG 0.14  C 
BRANCH 13 14
ATOM     14  NE  ARG C   2      53.694  37.305  34.681  1.00 20.36 LIG-0.23  N 
ATOM     15  CZ  ARG C   2      53.180  38.505  34.511  1.00 23.11 LIG 0.67  C 
ATOM     16  NH1 ARG C   2      51.905  38.675  34.494  1.00 23.20 LIG-0.23  N 
ATOM     17  NH2 ARG C   2      53.999  39.563  34.456  1.00 25.55 LIG-0.23  N 
ATOM     18 1HH1 ARG C   2      51.380  38.002  34.595  1.00 23.20 LIG 0.17  HD
ATOM     19 2HH1 ARG C   2      51.578  39.463  34.383  1.00 23.20 LIG 0.17  HD
ATOM     20 2HH2 ARG C   2      53.676  40.352  34.345  1.00 25.55 LIG 0.17  HD
ATOM     21 1HH2 ARG C   2      54.849  39.453  34.532  1.00 25.55 LIG 0.17  HD
ATOM     22 HE   ARG C   2      54.546  37.244  34.776  1.00 20.36 LIG 0.18  HD
ENDBRANCH 13 14
ENDBRANCH 12 13
ENDBRANCH 11 12
ENDBRANCH 10 11
BRANCH 10 23
ATOM     23  N   ARG C   2      51.977  32.322  32.090  1.00 19.42 LIG-0.35  N 
ATOM     24  C   ASP C   1      52.709  31.805  31.112  1.00 19.51 LIG 0.25  C 
ATOM     25 O    ASP C   1      53.950  31.782  31.154  1.00 19.29 LIG-0.27  OA
ATOM     26 H    ARG C   2      51.128  32.218  32.176  1.00 19.42 LIG 0.16  HD
BRANCH 24 27
ATOM     27  CA  ASP C   1      51.986  31.251  29.897  1.00 19.04 LIG 0.28  C 
BRANCH 27 28
ATOM     28  CB  ASP C   1      51.141  32.339  29.286  1.00 21.34 LIG 0.15  C 
BRANCH 28 29
ATOM     29  CG  ASP C   1      49.746  32.441  29.955  1.00 23.67 LIG 0.17  C 
ATOM     30 OD2  ASP C   1      49.534  33.425  30.716  1.00 27.41 LIG-0.65  OA
ATOM     31 OD1  ASP C   1      48.875  31.534  29.749  1.00 20.87 LIG-0.65  OA
ENDBRANCH 28 29
ENDBRANCH 27 28
BRANCH 27 32
ATOM     32  N   ASP C   1      51.125  30.106  30.370  1.00 18.38 LIG-0.07  N 
ATOM     33 H1   ASP C   1      50.270  30.353  30.360  1.00 18.38 LIG 0.28  HD
ATOM     34 H3   ASP C   1      51.359  29.880  31.198  1.00 18.38 LIG 0.28  HD
ATOM     35 H2   ASP C   1      51.237  29.407  29.830  1.00 18.38 LIG 0.28  HD
ENDBRANCH 27 32
ENDBRANCH 24 27
ENDBRANCH 10 23
ENDBRANCH 8 10
ENDBRANCH 5 6
BRANCH 5 36
ATOM     36  CB  VAL C   3      52.173  28.855  35.453  1.00 17.74 LIG 0.01  C 
ATOM     37  CG1 VAL C   3      50.751  29.002  34.956  1.00 20.72 LIG 0.01  C 
ATOM     38  CG2 VAL C   3      52.888  27.884  34.531  1.00 18.64 LIG 0.01  C 
ENDBRANCH 5 36
ENDBRANCH 1 5
BRANCH 3 39
ATOM     39  CA  TYR C   4      56.482  29.473  36.669  1.00 17.90 LIG 0.18  C 
BRANCH 39 40
ATOM     40  CB  TYR C   4      57.253  30.540  35.955  1.00 20.19 LIG 0.07  C 
BRANCH 40 41
ATOM     41  CG  TYR C   4      57.113  31.935  36.502  1.00 23.00 LIG-0.06  A 
ATOM     42  CD2 TYR C   4      55.948  32.671  36.277  1.00 26.62 LIG 0.01  A 
ATOM     43  CE2 TYR C   4      55.801  33.954  36.764  1.00 28.63 LIG 0.04  A 
ATOM     44  CZ  TYR C   4      56.817  34.514  37.476  1.00 25.42 LIG 0.07  A 
ATOM     45  CE1 TYR C   4      57.943  33.816  37.752  1.00 26.89 LIG 0.04  A 
ATOM     46  CD1 TYR C   4      58.094  32.514  37.254  1.00 24.41 LIG 0.01  A 
BRANCH 44 47
ATOM     47 OH   TYR C   4      56.665  35.781  37.962  1.00 32.39 LIG-0.36  OA
ATOM     48 HH   TYR C   4      55.931  35.840  38.366  1.00 32.39 LIG 0.22  HD
ENDBRANCH 44 47
ENDBRANCH 40 41
ENDBRANCH 39 40
BRANCH 39 49
ATOM     49  C   TYR C   4      57.016  29.241  38.112  1.00 20.63 LIG 0.24  C 
ATOM     50 O    TYR C   4      58.028  29.762  38.492  1.00 19.73 LIG-0.27  OA
ATOM     51  N   ILE C   5      56.234  28.550  38.927  1.00 22.91 LIG-0.35  N 
ATOM     52 H    ILE C   5      55.448  28.267  38.719  1.00 22.91 LIG 0.16  HD
BRANCH 51 53
ATOM     53  CA  ILE C   5      56.664  28.209  40.272  1.00 27.58 LIG 0.18  C 
BRANCH 53 54
ATOM     54  C   ILE C   5      55.835  27.037  40.792  1.00 33.14 LIG 0.24  C 
ATOM     55  N   HIS C   6      55.864  26.805  42.111  1.00 39.14 LIG-0.35  N 
ATOM     56 H    HIS C   6      56.369  27.244  42.652  1.00 39.14 LIG 0.16  HD
ATOM     57 O    ILE C   5      55.277  26.311  39.973  1.00 25.88 LIG-0.27  OA
BRANCH 55 58
ATOM     58  CA  HIS C   6      55.023  25.758  42.796  1.00 56.87 LIG 0.17  C 
BRANCH 58 59
ATOM     59  CB  HIS C   6      54.330  26.347  44.059  1.00 66.39 LIG 0.09  C 
BRANCH 59 60
ATOM     60  CG  HIS C   6      55.252  27.065  45.004  1.00 78.50 LIG 0.06  A 
ATOM     61  CD2 HIS C   6      54.978  27.826  46.093  1.00 82.71 LIG 0.14  A 
ATOM     62 NE2  HIS C   6      56.182  28.210  46.638  1.00 84.02 LIG-0.25  NA
ATOM     63  CE1 HIS C   6      57.165  27.685  45.924  1.00 85.20 LIG 0.23  A 
ATOM     64 ND1  HIS C   6      56.632  26.984  44.935  1.00 88.66 LIG-0.24  NA
ENDBRANCH 59 60
ENDBRANCH 58 59
BRANCH 58 65
ATOM     65  C   HIS C   6      53.939  25.064  41.959  1.00 59.18 LIG 0.22  C 
ATOM     66 O    HIS C   6      53.007  24.427  42.519  1.00 63.69 LIG-0.29  OA
ENDBRANCH 58 65
ENDBRANCH 55 58
ENDBRANCH 53 54
BRANCH 53 67
ATOM     67  CB  ILE C   5      56.555  29.430  41.175  1.00 28.54 LIG 0.01  C 
ATOM     68  CG2 ILE C   5      55.077  29.705  41.446  1.00 32.34 LIG 0.01  C 
BRANCH 67 69
ATOM     69  CG1 ILE C   5      57.396  29.143  42.430  1.00 30.21 LIG 0.00  C 
ATOM     70  CD1 ILE C   5      57.128  30.014  43.631  1.00 32.85 LIG 0.01  C 
ENDBRANCH 67 69
ENDBRANCH 53 67
ENDBRANCH 51 53
ENDBRANCH 39 49
ENDBRANCH 3 39
TORSDOF 26
ENDMDL
MODEL 17
USER: ADFR SOLUTION from run 137
USER: SCORE 21.053612 LL:  -5.137 LR: -17.986 RR:   0.000 FEB: -10.230
USER: RMSD 7.322290
USER: SEED 136
USER: STATUS no improvement in best in 22 clusters for 5 generations
USER: GENES 28
USER: genes 0 Translation |==|  0.42027 0.65399 0.47979
USER: genes 1 Rotation |==|  0.34009 0.29694 0.10768 0.67111
USER: genes 2 Torsion [N]-C--CA-[N] |==|  0.42322
USER: genes 3 Torsion [C]-CA--N-[C] |==|  0.84889
USER: genes 4 Torsion [N]-C--CA-[N] |==|  0.01337
USER: genes 5 Torsion [C]-CA--CB-[CG] |==|  0.24153
USER: genes 6 Torsion [CA]-CB--CG-[CD] |==|  0.68740
USER: genes 7 Torsion [CB]-CG--CD-[NE] |==|  0.73827
USER: genes 8 Torsion [CG]-CD--NE-[CZ] |==|  0.43527
USER: genes 9 Torsion [C]-CA--N-[C] |==|  0.17954
USER: genes 10 Torsion [N]-C--CA-[N] |==|  0.38553
USER: genes 11 Torsion [C]-CA--CB-[CG] |==|  0.47032
USER: genes 12 Torsion [CA]-CB--CG-[OD2] |==|  0.22040
USER: genes 13 Torsion [C]-CA--N-[H1] |==|  0.11119
USER: genes 14 Torsion [C]-CA--CB-[CG1] |==|  0.68278
USER: genes 15 Torsion [C]-N--CA-[CB] |==|  0.84377
USER: genes 16 Torsion [N]-CA--CB-[CG] |==|  0.70407
USER: genes 17 Torsion [CA]-CB--CG-[CD2] |==|  0.46067
USER: genes 18 Torsion [CE2]-CZ--OH-[HH] |==|  0.79432
USER: genes 19 Torsion [N]-CA--C-[N] |==|  0.18590
USER: genes 20 Torsion [C]-N--CA-[C] |==|  0.55014
USER: genes 21 Torsion [N]-CA--C-[N] |==|  0.42530
USER: genes 22 Torsion [C]-N--CA-[CB] |==|  0.37491
USER: genes 23 Torsion [N]-CA--CB-[CG] |==|  0.84061
USER: genes 24 Torsion [CA]-CB--CG-[CD2] |==|  0.21759
USER: genes 25 Torsion [N]-CA--C-[O] |==|  0.32598
USER: genes 26 Torsion [N]-CA--CB-[CG1] |==|  0.50231
USER: genes 27 Torsion [CA]-CB--CG1-[CD1] |==|  0.42776
ROOT
ATOM      1  C   VAL C   3      52.769  33.257  33.830  1.00 15.94 LIG 0.24  C 
ATOM      2 O    VAL C   3      53.769  33.408  33.157  1.00 17.86 LIG-0.27  OA
ATOM      3  N   TYR C   4      51.870  32.323  33.536  1.00 16.41 LIG-0.35  N 
ATOM      4 H    TYR C   4      51.143  32.200  33.979  1.00 16.41 LIG 0.16  HD
ENDROOT
BRANCH 1 5
ATOM      5  CA  VAL C   3      52.508  34.191  35.029  1.00 16.01 LIG 0.18  C 
BRANCH 5 6
ATOM      6  N   VAL C   3      53.831  34.614  35.536  1.00 15.77 LIG-0.35  N 
ATOM      7 H    VAL C   3      53.950  35.464  35.593  1.00 15.77 LIG 0.16  HD
ATOM      8  C   ARG C   2      54.728  33.698  35.861  1.00 16.54 LIG 0.24  C 
ATOM      9 O    ARG C   2      54.471  32.475  35.860  1.00 14.63 LIG-0.27  OA
BRANCH 8 10
ATOM     10  CA  ARG C   2      56.102  34.194  36.268  1.00 19.03 LIG 0.18  C 
BRANCH 10 11
ATOM     11  CB  ARG C   2      56.469  33.593  37.629  1.00 20.38 LIG 0.04  C 
BRANCH 11 12
ATOM     12  CG  ARG C   2      57.123  32.253  37.573  1.00 20.75 LIG 0.02  C 
BRANCH 12 13
ATOM     13  CD  ARG C   2      56.251  31.221  38.136  1.00 22.55 LIG 0.14  C 
BRANCH 13 14
ATOM     14  NE  ARG C   2      56.520  30.972  39.527  1.00 20.36 LIG-0.23  N 
ATOM     15  CZ  ARG C   2      55.655  30.455  40.373  1.00 23.11 LIG 0.67  C 
ATOM     16  NH1 ARG C   2      54.521  30.009  39.959  1.00 23.20 LIG-0.23  N 
ATOM     17  NH2 ARG C   2      56.008  30.305  41.655  1.00 25.55 LIG-0.23  N 
ATOM     18 1HH1 ARG C   2      54.323  30.047  39.124  1.00 23.20 LIG 0.17  HD
ATOM     19 2HH1 ARG C   2      53.962  29.672  40.519  1.00 23.20 LIG 0.17  HD
ATOM     20 2HH2 ARG C   2      55.451  29.968  42.218  1.00 25.55 LIG 0.17  HD
ATOM     21 1HH2 ARG C   2      56.791  30.546  41.917  1.00 25.55 LIG 0.17  HD
ATOM     22 HE   ARG C   2      57.300  31.176  39.825  1.00 20.36 LIG 0.18  HD
ENDBRANCH 13 14
ENDBRANCH 12 13
ENDBRANCH 11 12
ENDBRANCH 10 11
BRANCH 10 23
ATOM     23  N   ARG C   2      56.135  35.664  36.329  1.00 19.42 LIG-0.35  N 
ATOM     24  C   ASP C   1      55.392  36.304  37.222  1.00 19.51 LIG 0.25  C 
ATOM     25 O    ASP C   1      54.843  35.719  38.170  1.00 19.29 LIG-0.27  OA
ATOM     26 H    ARG C   2      56.655  36.044  35.760  1.00 19.42 LIG 0.16  HD
BRANCH 24 27
ATOM     27  CA  ASP C   1      55.198  37.800  37.047  1.00 19.04 LIG 0.28  C 
BRANCH 27 28
ATOM     28  CB  ASP C   1      56.117  38.531  37.991  1.00 21.34 LIG 0.15  C 
BRANCH 28 29
ATOM     29  CG  ASP C   1      56.174  40.052  37.691  1.00 23.67 LIG 0.17  C 
ATOM     30 OD2  ASP C   1      55.222  40.766  38.111  1.00 27.41 LIG-0.65  OA
ATOM     31 OD1  ASP C   1      57.144  40.531  37.018  1.00 20.87 LIG-0.65  OA
ENDBRANCH 28 29
ENDBRANCH 27 28
BRANCH 27 32
ATOM     32  N   ASP C   1      53.754  38.106  37.361  1.00 18.38 LIG-0.07  N 
ATOM     33 H1   ASP C   1      53.494  37.621  38.060  1.00 18.38 LIG 0.28  HD
ATOM     34 H3   ASP C   1      53.249  37.907  36.656  1.00 18.38 LIG 0.28  HD
ATOM     35 H2   ASP C   1      53.668  38.971  37.552  1.00 18.38 LIG 0.28  HD
ENDBRANCH 27 32
ENDBRANCH 24 27
ENDBRANCH 10 23
ENDBRANCH 8 10
ENDBRANCH 5 6
BRANCH 5 36
ATOM     36  CB  VAL C   3      51.673  35.350  34.532  1.00 17.74 LIG 0.01  C 
ATOM     37  CG1 VAL C   3      52.431  36.658  34.601  1.00 20.72 LIG 0.01  C 
ATOM     38  CG2 VAL C   3      51.246  35.139  33.091  1.00 18.64 LIG 0.01  C 
ENDBRANCH 5 36
ENDBRANCH 1 5
BRANCH 3 39
ATOM     39  CA  TYR C   4      52.053  31.411  32.413  1.00 17.90 LIG 0.18  C 
BRANCH 39 40
ATOM     40  CB  TYR C   4      52.247  32.171  31.137  1.00 20.19 LIG 0.07  C 
BRANCH 40 41
ATOM     41  CG  TYR C   4      51.084  32.165  30.180  1.00 23.00 LIG-0.06  A 
ATOM     42  CD2 TYR C   4      51.039  33.065  29.115  1.00 26.62 LIG 0.01  A 
ATOM     43  CE2 TYR C   4      49.980  33.081  28.229  1.00 28.63 LIG 0.04  A 
ATOM     44  CZ  TYR C   4      48.956  32.201  28.403  1.00 25.42 LIG 0.07  A 
ATOM     45  CE1 TYR C   4      48.986  31.284  29.399  1.00 26.89 LIG 0.04  A 
ATOM     46  CD1 TYR C   4      50.060  31.270  30.301  1.00 24.41 LIG 0.01  A 
BRANCH 44 47
ATOM     47 OH   TYR C   4      47.914  32.214  27.522  1.00 32.39 LIG-0.36  OA
ATOM     48 HH   TYR C   4      47.433  32.887  27.668  1.00 32.39 LIG 0.22  HD
ENDBRANCH 44 47
ENDBRANCH 40 41
ENDBRANCH 39 40
BRANCH 39 49
ATOM     49  C   TYR C   4      53.189  30.375  32.647  1.00 20.63 LIG 0.24  C 
ATOM     50 O    TYR C   4      54.240  30.463  32.074  1.00 19.73 LIG-0.27  OA
ATOM     51  N   ILE C   5      52.981  29.476  33.597  1.00 22.91 LIG-0.35  N 
ATOM     52 H    ILE C   5      52.289  29.462  34.107  1.00 22.91 LIG 0.16  HD
BRANCH 51 53
ATOM     53  CA  ILE C   5      53.940  28.415  33.851  1.00 27.58 LIG 0.18  C 
BRANCH 53 54
ATOM     54  C   ILE C   5      53.269  27.299  34.649  1.00 33.14 LIG 0.24  C 
ATOM     55  N   HIS C   6      53.766  26.063  34.509  1.00 39.14 LIG-0.35  N 
ATOM     56 H    HIS C   6      54.393  25.872  33.951  1.00 39.14 LIG 0.16  HD
ATOM     57 O    ILE C   5      52.256  27.570  35.287  1.00 25.88 LIG-0.27  OA
BRANCH 55 58
ATOM     58  CA  HIS C   6      53.289  24.874  35.303  1.00 56.87 LIG 0.17  C 
BRANCH 58 59
ATOM     59  CB  HIS C   6      53.086  23.638  34.377  1.00 66.39 LIG 0.09  C 
BRANCH 59 60
ATOM     60  CG  HIS C   6      52.127  23.856  33.241  1.00 78.50 LIG 0.06  A 
ATOM     61  CD2 HIS C   6      52.296  24.492  32.055  1.00 82.71 LIG 0.14  A 
ATOM     62 NE2  HIS C   6      51.121  24.366  31.350  1.00 84.02 LIG-0.25  NA
ATOM     63  CE1 HIS C   6      50.264  23.657  32.066  1.00 85.20 LIG 0.23  A 
ATOM     64 ND1  HIS C   6      50.847  23.330  33.209  1.00 88.66 LIG-0.24  NA
ENDBRANCH 59 60
ENDBRANCH 58 59
BRANCH 58 65
ATOM     65  C   HIS C   6      54.154  24.422  36.488  1.00 59.18 LIG 0.22  C 
ATOM     66 O    HIS C   6      53.699  24.455  37.662  1.00 63.69 LIG-0.29  OA
ENDBRANCH 58 65
ENDBRANCH 55 58
ENDBRANCH 53 54
BRANCH 53 67
ATOM     67  CB  ILE C   5      55.158  28.978  34.571  1.00 28.54 LIG 0.01  C 
ATOM     68  CG2 ILE C   5      54.690  29.667  35.851  1.00 32.34 LIG 0.01  C 
BRANCH 67 69
ATOM     69  CG1 ILE C   5      56.136  27.812  34.788  1.00 30.21 LIG 0.00  C 
ATOM     70  CD1 ILE C   5      57.595  28.175  34.908  1.00 32.85 LIG 0.01  C 
ENDBRANCH 67 69
ENDBRANCH 53 67
ENDBRANCH 51 53
ENDBRANCH 39 49
ENDBRANCH 3 39
TORSDOF 26
ENDMDL
MODEL 18
USER: ADFR SOLUTION from run 177
USER: SCORE 23.358961 LL:  -7.218 LR: -17.980 RR:   0.000 FEB: -10.224
USER: RMSD 4.989141
USER: SEED 176
USER: STATUS 1 or 2 clusters left
USER: GENES 28
USER: genes 0 Translation |==|  0.58342 0.47340 0.50407
USER: genes 1 Rotation |==|  0.14930 0.51771 0.21403 0.71194
USER: genes 2 Torsion [N]-C--CA-[N] |==|  0.82116
USER: genes 3 Torsion [C]-CA--N-[C] |==|  0.61728
USER: genes 4 Torsion [N]-C--CA-[N] |==|  0.18376
USER: genes 5 Torsion [C]-CA--CB-[CG] |==|  0.26310
USER: genes 6 Torsion [CA]-CB--CG-[CD] |==|  0.18027
USER: genes 7 Torsion [CB]-CG--CD-[NE] |==|  0.49982
USER: genes 8 Torsion [CG]-CD--NE-[CZ] |==|  0.52388
USER: genes 9 Torsion [C]-CA--N-[C] |==|  0.78067
USER: genes 10 Torsion [N]-C--CA-[N] |==|  0.37992
USER: genes 11 Torsion [C]-CA--CB-[CG] |==|  0.47325
USER: genes 12 Torsion [CA]-CB--CG-[OD2] |==|  0.49057
USER: genes 13 Torsion [C]-CA--N-[H1] |==|  0.17918
USER: genes 14 Torsion [C]-CA--CB-[CG1] |==|  0.38492
USER: genes 15 Torsion [C]-N--CA-[CB] |==|  0.73076
USER: genes 16 Torsion [N]-CA--CB-[CG] |==|  0.13953
USER: genes 17 Torsion [CA]-CB--CG-[CD2] |==|  0.80914
USER: genes 18 Torsion [CE2]-CZ--OH-[HH] |==|  0.31304
USER: genes 19 Torsion [N]-CA--C-[N] |==|  0.62647
USER: genes 20 Torsion [C]-N--CA-[C] |==|  0.76667
USER: genes 21 Torsion [N]-CA--C-[N] |==|  0.02080
USER: genes 22 Torsion [C]-N--CA-[CB] |==|  0.85453
USER: genes 23 Torsion [N]-CA--CB-[CG] |==|  0.86241
USER: genes 24 Torsion [CA]-CB--CG-[CD2] |==|  0.37624
USER: genes 25 Torsion [N]-CA--C-[O] |==|  0.41961
USER: genes 26 Torsion [N]-CA--CB-[CG1] |==|  0.13392
USER: genes 27 Torsion [CA]-CB--CG1-[CD1] |==|  0.28013
ROOT
ATOM      1  C   VAL C   3      55.583  28.652  34.468  1.00 15.94 LIG 0.24  C 
ATOM      2 O    VAL C   3      55.424  28.991  33.311  1.00 17.86 LIG-0.27  OA
ATOM      3  N   TYR C   4      54.631  28.011  35.139  1.00 16.41 LIG-0.35  N 
ATOM      4 H    TYR C   4      54.701  27.774  35.963  1.00 16.41 LIG 0.16  HD
ENDROOT
BRANCH 1 5
ATOM      5  CA  VAL C   3      56.898  29.005  35.192  1.00 16.01 LIG 0.18  C 
BRANCH 5 6
ATOM      6  N   VAL C   3      56.551  29.961  36.264  1.00 15.77 LIG-0.35  N 
ATOM      7 H    VAL C   3      55.836  29.778  36.706  1.00 15.77 LIG 0.16  HD
ATOM      8  C   ARG C   2      57.329  31.009  36.480  1.00 16.54 LIG 0.24  C 
ATOM      9 O    ARG C   2      58.413  31.176  35.882  1.00 14.63 LIG-0.27  OA
BRANCH 8 10
ATOM     10  CA  ARG C   2      56.861  32.011  37.517  1.00 19.03 LIG 0.18  C 
BRANCH 10 11
ATOM     11  CB  ARG C   2      57.778  33.239  37.478  1.00 20.38 LIG 0.04  C 
BRANCH 11 12
ATOM     12  CG  ARG C   2      57.290  34.364  36.629  1.00 20.75 LIG 0.02  C 
BRANCH 12 13
ATOM     13  CD  ARG C   2      56.051  34.927  37.166  1.00 22.55 LIG 0.14  C 
BRANCH 13 14
ATOM     14  NE  ARG C   2      55.552  36.017  36.372  1.00 20.36 LIG-0.23  N 
ATOM     15  CZ  ARG C   2      54.551  36.797  36.721  1.00 23.11 LIG 0.67  C 
ATOM     16  NH1 ARG C   2      54.025  36.704  37.892  1.00 23.20 LIG-0.23  N 
ATOM     17  NH2 ARG C   2      54.149  37.758  35.880  1.00 25.55 LIG-0.23  N 
ATOM     18 1HH1 ARG C   2      54.328  36.129  38.455  1.00 23.20 LIG 0.17  HD
ATOM     19 2HH1 ARG C   2      53.371  37.218  38.112  1.00 23.20 LIG 0.17  HD
ATOM     20 2HH2 ARG C   2      53.496  38.274  36.096  1.00 25.55 LIG 0.17  HD
ATOM     21 1HH2 ARG C   2      54.545  37.859  35.122  1.00 25.55 LIG 0.17  HD
ATOM     22 HE   ARG C   2      55.934  36.169  35.618  1.00 20.36 LIG 0.18  HD
ENDBRANCH 13 14
ENDBRANCH 12 13
ENDBRANCH 11 12
ENDBRANCH 10 11
BRANCH 10 23
ATOM     23  N   ARG C   2      56.858  31.414  38.863  1.00 19.42 LIG-0.35  N 
ATOM     24  C   ASP C   1      55.864  30.617  39.229  1.00 19.51 LIG 0.25  C 
ATOM     25 O    ASP C   1      55.048  30.158  38.413  1.00 19.29 LIG-0.27  OA
ATOM     26 H    ARG C   2      57.529  31.622  39.359  1.00 19.42 LIG 0.16  HD
BRANCH 24 27
ATOM     27  CA  ASP C   1      55.720  30.287  40.704  1.00 19.04 LIG 0.28  C 
BRANCH 27 28
ATOM     28  CB  ASP C   1      56.238  28.894  40.951  1.00 21.34 LIG 0.15  C 
BRANCH 28 29
ATOM     29  CG  ASP C   1      56.348  28.570  42.464  1.00 23.67 LIG 0.17  C 
ATOM     30 OD2  ASP C   1      56.710  27.406  42.788  1.00 27.41 LIG-0.65  OA
ATOM     31 OD1  ASP C   1      56.050  29.460  43.326  1.00 20.87 LIG-0.65  OA
ENDBRANCH 28 29
ENDBRANCH 27 28
BRANCH 27 32
ATOM     32  N   ASP C   1      54.253  30.381  41.045  1.00 18.38 LIG-0.07  N 
ATOM     33 H1   ASP C   1      53.804  29.757  40.598  1.00 18.38 LIG 0.28  HD
ATOM     34 H3   ASP C   1      53.948  31.186  40.821  1.00 18.38 LIG 0.28  HD
ATOM     35 H2   ASP C   1      54.143  30.257  41.920  1.00 18.38 LIG 0.28  HD
ENDBRANCH 27 32
ENDBRANCH 24 27
ENDBRANCH 10 23
ENDBRANCH 8 10
ENDBRANCH 5 6
BRANCH 5 36
ATOM     36  CB  VAL C   3      57.487  27.716  35.723  1.00 17.74 LIG 0.01  C 
ATOM     37  CG1 VAL C   3      58.987  27.662  35.527  1.00 20.72 LIG 0.01  C 
ATOM     38  CG2 VAL C   3      57.209  27.558  37.207  1.00 18.64 LIG 0.01  C 
ENDBRANCH 5 36
ENDBRANCH 1 5
BRANCH 3 39
ATOM     39  CA  TYR C   4      53.363  27.654  34.515  1.00 17.90 LIG 0.18  C 
BRANCH 39 40
ATOM     40  CB  TYR C   4      52.309  28.671  34.829  1.00 20.19 LIG 0.07  C 
BRANCH 40 41
ATOM     41  CG  TYR C   4      52.683  30.108  34.584  1.00 23.00 LIG-0.06  A 
ATOM     42  CD2 TYR C   4      53.641  30.737  35.380  1.00 26.62 LIG 0.01  A 
ATOM     43  CE2 TYR C   4      53.995  32.055  35.177  1.00 28.63 LIG 0.04  A 
ATOM     44  CZ  TYR C   4      53.391  32.758  34.180  1.00 25.42 LIG 0.07  A 
ATOM     45  CE1 TYR C   4      52.490  32.170  33.359  1.00 26.89 LIG 0.04  A 
ATOM     46  CD1 TYR C   4      52.128  30.831  33.567  1.00 24.41 LIG 0.01  A 
BRANCH 44 47
ATOM     47 OH   TYR C   4      53.748  34.060  33.977  1.00 32.39 LIG-0.36  OA
ATOM     48 HH   TYR C   4      54.142  34.130  33.239  1.00 32.39 LIG 0.22  HD
ENDBRANCH 44 47
ENDBRANCH 40 41
ENDBRANCH 39 40
BRANCH 39 49
ATOM     49  C   TYR C   4      53.486  27.402  32.985  1.00 20.63 LIG 0.24  C 
ATOM     50 O    TYR C   4      54.307  26.648  32.542  1.00 19.73 LIG-0.27  OA
ATOM     51  N   ILE C   5      52.560  27.960  32.219  1.00 22.91 LIG-0.35  N 
ATOM     52 H    ILE C   5      51.889  28.406  32.519  1.00 22.91 LIG 0.16  HD
BRANCH 51 53
ATOM     53  CA  ILE C   5      52.618  27.855  30.772  1.00 27.58 LIG 0.18  C 
BRANCH 53 54
ATOM     54  C   ILE C   5      53.538  28.939  30.216  1.00 33.14 LIG 0.24  C 
ATOM     55  N   HIS C   6      54.230  29.667  31.103  1.00 39.14 LIG-0.35  N 
ATOM     56 H    HIS C   6      54.129  29.587  31.953  1.00 39.14 LIG 0.16  HD
ATOM     57 O    ILE C   5      53.515  29.157  29.008  1.00 25.88 LIG-0.27  OA
BRANCH 55 58
ATOM     58  CA  HIS C   6      55.257  30.702  30.717  1.00 56.87 LIG 0.17  C 
BRANCH 58 59
ATOM     59  CB  HIS C   6      56.306  30.098  29.738  1.00 66.39 LIG 0.09  C 
BRANCH 59 60
ATOM     60  CG  HIS C   6      56.899  28.790  30.182  1.00 78.50 LIG 0.06  A 
ATOM     61  CD2 HIS C   6      57.131  27.648  29.488  1.00 82.71 LIG 0.14  A 
ATOM     62 NE2  HIS C   6      57.737  26.761  30.349  1.00 84.02 LIG-0.25  NA
ATOM     63  CE1 HIS C   6      57.894  27.344  31.527  1.00 85.20 LIG 0.23  A 
ATOM     64 ND1  HIS C   6      57.403  28.571  31.453  1.00 88.66 LIG-0.24  NA
ENDBRANCH 59 60
ENDBRANCH 58 59
BRANCH 58 65
ATOM     65  C   HIS C   6      54.745  32.007  30.092  1.00 59.18 LIG 0.22  C 
ATOM     66 O    HIS C   6      55.387  33.081  30.235  1.00 63.69 LIG-0.29  OA
ENDBRANCH 58 65
ENDBRANCH 55 58
ENDBRANCH 53 54
BRANCH 53 67
ATOM     67  CB  ILE C   5      51.214  27.943  30.189  1.00 28.54 LIG 0.01  C 
ATOM     68  CG2 ILE C   5      50.508  26.609  30.417  1.00 32.34 LIG 0.01  C 
BRANCH 67 69
ATOM     69  CG1 ILE C   5      50.528  29.155  30.842  1.00 30.21 LIG 0.00  C 
ATOM     70  CD1 ILE C   5      50.471  30.417  30.019  1.00 32.85 LIG 0.01  C 
ENDBRANCH 67 69
ENDBRANCH 53 67
ENDBRANCH 51 53
ENDBRANCH 39 49
ENDBRANCH 3 39
TORSDOF 26
ENDMDL
MODEL 19
USER: ADFR SOLUTION from run 20
USER: SCORE 22.120526 LL:  -5.751 LR: -17.895 RR:   0.000 FEB: -10.139
USER: RMSD 7.621301
USER: SEED 19
USER: STATUS 1 or 2 clusters left
USER: GENES 28
USER: genes 0 Translation |==|  0.67308 0.59155 0.57517
USER: genes 1 Rotation |==|  0.21731 0.52646 0.71002 0.85394
USER: genes 2 Torsion [N]-C--CA-[N] |==|  0.43406
USER: genes 3 Torsion [C]-CA--N-[C] |==|  0.49584
USER: genes 4 Torsion [N]-C--CA-[N] |==|  0.57877
USER: genes 5 Torsion [C]-CA--CB-[CG] |==|  0.49654
USER: genes 6 Torsion [CA]-CB--CG-[CD] |==|  0.45686
USER: genes 7 Torsion [CB]-CG--CD-[NE] |==|  0.90880
USER: genes 8 Torsion [CG]-CD--NE-[CZ] |==|  0.54141
USER: genes 9 Torsion [C]-CA--N-[C] |==|  0.61667
USER: genes 10 Torsion [N]-C--CA-[N] |==|  0.88811
USER: genes 11 Torsion [C]-CA--CB-[CG] |==|  0.75516
USER: genes 12 Torsion [CA]-CB--CG-[OD2] |==|  0.29250
USER: genes 13 Torsion [C]-CA--N-[H1] |==|  0.23586
USER: genes 14 Torsion [C]-CA--CB-[CG1] |==|  0.89455
USER: genes 15 Torsion [C]-N--CA-[CB] |==|  0.82948
USER: genes 16 Torsion [N]-CA--CB-[CG] |==|  0.52484
USER: genes 17 Torsion [CA]-CB--CG-[CD2] |==|  0.03007
USER: genes 18 Torsion [CE2]-CZ--OH-[HH] |==|  0.39118
USER: genes 19 Torsion [N]-CA--C-[N] |==|  0.33981
USER: genes 20 Torsion [C]-N--CA-[C] |==|  0.85630
USER: genes 21 Torsion [N]-CA--C-[N] |==|  0.37222
USER: genes 22 Torsion [C]-N--CA-[CB] |==|  0.81658
USER: genes 23 Torsion [N]-CA--CB-[CG] |==|  0.52773
USER: genes 24 Torsion [CA]-CB--CG-[CD2] |==|  0.21406
USER: genes 25 Torsion [N]-CA--C-[O] |==|  0.78360
USER: genes 26 Torsion [N]-CA--CB-[CG1] |==|  0.68299
USER: genes 27 Torsion [CA]-CB--CG1-[CD1] |==|  0.10980
ROOT
ATOM      1  C   VAL C   3      57.130  31.665  36.334  1.00 15.94 LIG 0.24  C 
ATOM      2 O    VAL C   3      56.095  31.098  36.630  1.00 17.86 LIG-0.27  OA
ATOM      3  N   TYR C   4      58.210  30.985  35.963  1.00 16.41 LIG-0.35  N 
ATOM      4 H    TYR C   4      58.963  31.351  35.766  1.00 16.41 LIG 0.16  HD
ENDROOT
BRANCH 1 5
ATOM      5  CA  VAL C   3      57.211  33.202  36.429  1.00 16.01 LIG 0.18  C 
BRANCH 5 6
ATOM      6  N   VAL C   3      55.831  33.712  36.280  1.00 15.77 LIG-0.35  N 
ATOM      7 H    VAL C   3      55.228  33.113  36.149  1.00 15.77 LIG 0.16  HD
ATOM      8  C   ARG C   2      55.606  35.013  36.353  1.00 16.54 LIG 0.24  C 
ATOM      9 O    ARG C   2      56.500  35.835  36.650  1.00 14.63 LIG-0.27  OA
BRANCH 8 10
ATOM     10  CA  ARG C   2      54.190  35.483  36.082  1.00 19.03 LIG 0.18  C 
BRANCH 10 11
ATOM     11  CB  ARG C   2      53.518  34.513  35.103  1.00 20.38 LIG 0.04  C 
BRANCH 11 12
ATOM     12  CG  ARG C   2      52.102  34.837  34.767  1.00 20.75 LIG 0.02  C 
BRANCH 12 13
ATOM     13  CD  ARG C   2      51.665  34.102  33.578  1.00 22.55 LIG 0.14  C 
BRANCH 13 14
ATOM     14  NE  ARG C   2      52.732  33.896  32.636  1.00 20.36 LIG-0.23  N 
ATOM     15  CZ  ARG C   2      52.561  33.523  31.385  1.00 23.11 LIG 0.67  C 
ATOM     16  NH1 ARG C   2      51.379  33.442  30.882  1.00 23.20 LIG-0.23  N 
ATOM     17  NH2 ARG C   2      53.635  33.325  30.612  1.00 25.55 LIG-0.23  N 
ATOM     18 1HH1 ARG C   2      50.693  33.633  31.363  1.00 23.20 LIG 0.17  HD
ATOM     19 2HH1 ARG C   2      51.277  33.199  30.063  1.00 23.20 LIG 0.17  HD
ATOM     20 2HH2 ARG C   2      53.536  33.081  29.793  1.00 25.55 LIG 0.17  HD
ATOM     21 1HH2 ARG C   2      54.424  33.441  30.934  1.00 25.55 LIG 0.17  HD
ATOM     22 HE   ARG C   2      53.537  34.024  32.909  1.00 20.36 LIG 0.18  HD
ENDBRANCH 13 14
ENDBRANCH 12 13
ENDBRANCH 11 12
ENDBRANCH 10 11
BRANCH 10 23
ATOM     23  N   ARG C   2      54.183  36.851  35.538  1.00 19.42 LIG-0.35  N 
ATOM     24  C   ASP C   1      53.284  37.726  35.966  1.00 19.51 LIG 0.25  C 
ATOM     25 O    ASP C   1      52.590  37.524  36.977  1.00 19.29 LIG-0.27  OA
ATOM     26 H    ARG C   2      54.786  37.015  34.948  1.00 19.42 LIG 0.16  HD
BRANCH 24 27
ATOM     27  CA  ASP C   1      53.093  39.002  35.166  1.00 19.04 LIG 0.28  C 
BRANCH 27 28
ATOM     28  CB  ASP C   1      52.223  38.710  33.971  1.00 21.34 LIG 0.15  C 
BRANCH 28 29
ATOM     29  CG  ASP C   1      53.051  38.241  32.746  1.00 23.67 LIG 0.17  C 
ATOM     30 OD2  ASP C   1      53.014  37.015  32.451  1.00 27.41 LIG-0.65  OA
ATOM     31 OD1  ASP C   1      53.756  39.081  32.098  1.00 20.87 LIG-0.65  OA
ENDBRANCH 28 29
ENDBRANCH 27 28
BRANCH 27 32
ATOM     32  N   ASP C   1      54.460  39.470  34.732  1.00 18.38 LIG-0.07  N 
ATOM     33 H1   ASP C   1      54.692  39.053  33.980  1.00 18.38 LIG 0.28  HD
ATOM     34 H3   ASP C   1      55.053  39.284  35.369  1.00 18.38 LIG 0.28  HD
ATOM     35 H2   ASP C   1      54.444  40.348  34.591  1.00 18.38 LIG 0.28  HD
ENDBRANCH 27 32
ENDBRANCH 24 27
ENDBRANCH 10 23
ENDBRANCH 8 10
ENDBRANCH 5 6
BRANCH 5 36
ATOM     36  CB  VAL C   3      57.821  33.545  37.771  1.00 17.74 LIG 0.01  C 
ATOM     37  CG1 VAL C   3      57.338  32.612  38.861  1.00 20.72 LIG 0.01  C 
ATOM     38  CG2 VAL C   3      59.335  33.455  37.723  1.00 18.64 LIG 0.01  C 
ENDBRANCH 5 36
ENDBRANCH 1 5
BRANCH 3 39
ATOM     39  CA  TYR C   4      58.201  29.531  35.859  1.00 17.90 LIG 0.18  C 
BRANCH 39 40
ATOM     40  CB  TYR C   4      57.905  28.904  37.186  1.00 20.19 LIG 0.07  C 
BRANCH 40 41
ATOM     41  CG  TYR C   4      58.072  27.410  37.264  1.00 23.00 LIG-0.06  A 
ATOM     42  CD2 TYR C   4      58.690  26.711  36.226  1.00 26.62 LIG 0.01  A 
ATOM     43  CE2 TYR C   4      58.848  25.341  36.273  1.00 28.63 LIG 0.04  A 
ATOM     44  CZ  TYR C   4      58.386  24.656  37.355  1.00 25.42 LIG 0.07  A 
ATOM     45  CE1 TYR C   4      57.821  25.304  38.401  1.00 26.89 LIG 0.04  A 
ATOM     46  CD1 TYR C   4      57.657  26.696  38.351  1.00 24.41 LIG 0.01  A 
BRANCH 44 47
ATOM     47 OH   TYR C   4      58.550  23.302  37.402  1.00 32.39 LIG-0.36  OA
ATOM     48 HH   TYR C   4      58.746  23.071  38.186  1.00 32.39 LIG 0.22  HD
ENDBRANCH 44 47
ENDBRANCH 40 41
ENDBRANCH 39 40
BRANCH 39 49
ATOM     49  C   TYR C   4      57.251  29.005  34.746  1.00 20.63 LIG 0.24  C 
ATOM     50 O    TYR C   4      56.107  29.360  34.684  1.00 19.73 LIG-0.27  OA
ATOM     51  N   ILE C   5      57.804  28.251  33.806  1.00 22.91 LIG-0.35  N 
ATOM     52 H    ILE C   5      58.645  28.080  33.757  1.00 22.91 LIG 0.16  HD
BRANCH 51 53
ATOM     53  CA  ILE C   5      56.999  27.644  32.761  1.00 27.58 LIG 0.18  C 
BRANCH 53 54
ATOM     54  C   ILE C   5      55.835  26.882  33.389  1.00 33.14 LIG 0.24  C 
ATOM     55  N   HIS C   6      54.623  27.063  32.848  1.00 39.14 LIG-0.35  N 
ATOM     56 H    HIS C   6      54.473  27.627  32.216  1.00 39.14 LIG 0.16  HD
ATOM     57 O    ILE C   5      56.048  26.234  34.410  1.00 25.88 LIG-0.27  OA
BRANCH 55 58
ATOM     58  CA  HIS C   6      53.392  26.307  33.280  1.00 56.87 LIG 0.17  C 
BRANCH 58 59
ATOM     59  CB  HIS C   6      53.524  24.795  32.937  1.00 66.39 LIG 0.09  C 
BRANCH 59 60
ATOM     60  CG  HIS C   6      52.262  23.998  33.111  1.00 78.50 LIG 0.06  A 
ATOM     61  CD2 HIS C   6      51.157  23.917  32.329  1.00 82.71 LIG 0.14  A 
ATOM     62 NE2  HIS C   6      50.307  23.006  32.913  1.00 84.02 LIG-0.25  NA
ATOM     63  CE1 HIS C   6      50.876  22.526  34.006  1.00 85.20 LIG 0.23  A 
ATOM     64 ND1  HIS C   6      52.060  23.102  34.147  1.00 88.66 LIG-0.24  NA
ENDBRANCH 59 60
ENDBRANCH 58 59
BRANCH 58 65
ATOM     65  C   HIS C   6      52.983  26.408  34.757  1.00 59.18 LIG 0.22  C 
ATOM     66 O    HIS C   6      53.589  25.739  35.636  1.00 63.69 LIG-0.29  OA
ENDBRANCH 58 65
ENDBRANCH 55 58
ENDBRANCH 53 54
BRANCH 53 67
ATOM     67  CB  ILE C   5      57.870  26.743  31.895  1.00 28.54 LIG 0.01  C 
ATOM     68  CG2 ILE C   5      57.300  25.327  31.940  1.00 32.34 LIG 0.01  C 
BRANCH 67 69
ATOM     69  CG1 ILE C   5      57.919  27.372  30.492  1.00 30.21 LIG 0.00  C 
ATOM     70  CD1 ILE C   5      58.022  28.876  30.436  1.00 32.85 LIG 0.01  C 
ENDBRANCH 67 69
ENDBRANCH 53 67
ENDBRANCH 51 53
ENDBRANCH 39 49
ENDBRANCH 3 39
TORSDOF 26
ENDMDL
MODEL 20
USER: ADFR SOLUTION from run 15
USER: SCORE 22.363666 LL:  -5.950 LR: -17.878 RR:   0.000 FEB: -10.122
USER: RMSD 5.446136
USER: SEED 636491
USER: STATUS no improvement in best in 9 clusters for 5 generations
USER: GENES 28
USER: genes 0 Translation |==|  0.59665 0.46514 0.50910
USER: genes 1 Rotation |==|  0.60259 0.64565 0.70730 0.91867
USER: genes 2 Torsion [N]-C--CA-[N] |==|  0.32396
USER: genes 3 Torsion [C]-CA--N-[C] |==|  0.60976
USER: genes 4 Torsion [N]-C--CA-[N] |==|  0.17523
USER: genes 5 Torsion [C]-CA--CB-[CG] |==|  0.41831
USER: genes 6 Torsion [CA]-CB--CG-[CD] |==|  0.81856
USER: genes 7 Torsion [CB]-CG--CD-[NE] |==|  0.43104
USER: genes 8 Torsion [CG]-CD--NE-[CZ] |==|  0.38604
USER: genes 9 Torsion [C]-CA--N-[C] |==|  0.77218
USER: genes 10 Torsion [N]-C--CA-[N] |==|  0.40091
USER: genes 11 Torsion [C]-CA--CB-[CG] |==|  0.22952
USER: genes 12 Torsion [CA]-CB--CG-[OD2] |==|  0.21796
USER: genes 13 Torsion [C]-CA--N-[H1] |==|  0.12692
USER: genes 14 Torsion [C]-CA--CB-[CG1] |==|  0.40165
USER: genes 15 Torsion [C]-N--CA-[CB] |==|  0.18036
USER: genes 16 Torsion [N]-CA--CB-[CG] |==|  0.11928
USER: genes 17 Torsion [CA]-CB--CG-[CD2] |==|  0.24625
USER: genes 18 Torsion [CE2]-CZ--OH-[HH] |==|  0.84353
USER: genes 19 Torsion [N]-CA--C-[N] |==|  0.95041
USER: genes 20 Torsion [C]-N--CA-[C] |==|  0.16498
USER: genes 21 Torsion [N]-CA--C-[N] |==|  0.10122
USER: genes 22 Torsion [C]-N--CA-[CB] |==|  0.12876
USER: genes 23 Torsion [N]-CA--CB-[CG] |==|  0.58426
USER: genes 24 Torsion [CA]-CB--CG-[CD2] |==|  0.78121
USER: genes 25 Torsion [N]-CA--C-[O] |==|  0.19041
USER: genes 26 Torsion [N]-CA--CB-[CG1] |==|  0.87601
USER: genes 27 Torsion [CA]-CB--CG1-[CD1] |==|  0.85480
ROOT
ATOM      1  C   VAL C   3      55.811  28.441  34.600  1.00 15.94 LIG 0.24  C 
ATOM      2 O    VAL C   3      55.030  27.775  35.251  1.00 17.86 LIG-0.27  OA
ATOM      3  N   TYR C   4      55.571  28.745  33.328  1.00 16.41 LIG-0.35  N 
ATOM      4 H    TYR C   4      56.109  29.197  32.832  1.00 16.41 LIG 0.16  HD
ENDROOT
BRANCH 1 5
ATOM      5  CA  VAL C   3      57.132  28.913  35.242  1.00 16.01 LIG 0.18  C 
BRANCH 5 6
ATOM      6  N   VAL C   3      56.767  29.845  36.330  1.00 15.77 LIG-0.35  N 
ATOM      7 H    VAL C   3      56.076  29.622  36.792  1.00 15.77 LIG 0.16  HD
ATOM      8  C   ARG C   2      57.495  30.931  36.529  1.00 16.54 LIG 0.24  C 
ATOM      9 O    ARG C   2      58.551  31.157  35.900  1.00 14.63 LIG-0.27  OA
BRANCH 8 10
ATOM     10  CA  ARG C   2      57.008  31.903  37.586  1.00 19.03 LIG 0.18  C 
BRANCH 10 11
ATOM     11  CB  ARG C   2      57.905  33.145  37.579  1.00 20.38 LIG 0.04  C 
BRANCH 11 12
ATOM     12  CG  ARG C   2      57.237  34.410  38.000  1.00 20.75 LIG 0.02  C 
BRANCH 12 13
ATOM     13  CD  ARG C   2      56.194  34.794  37.046  1.00 22.55 LIG 0.14  C 
BRANCH 13 14
ATOM     14  NE  ARG C   2      55.178  35.617  37.644  1.00 20.36 LIG-0.23  N 
ATOM     15  CZ  ARG C   2      54.631  36.665  37.065  1.00 23.11 LIG 0.67  C 
ATOM     16  NH1 ARG C   2      54.894  36.946  35.837  1.00 23.20 LIG-0.23  N 
ATOM     17  NH2 ARG C   2      53.720  37.379  37.736  1.00 25.55 LIG-0.23  N 
ATOM     18 1HH1 ARG C   2      55.431  36.447  35.387  1.00 23.20 LIG 0.17  HD
ATOM     19 2HH1 ARG C   2      54.532  37.632  35.466  1.00 23.20 LIG 0.17  HD
ATOM     20 2HH2 ARG C   2      53.355  38.066  37.368  1.00 25.55 LIG 0.17  HD
ATOM     21 1HH2 ARG C   2      53.499  37.151  38.536  1.00 25.55 LIG 0.17  HD
ATOM     22 HE   ARG C   2      54.910  35.411  38.434  1.00 20.36 LIG 0.18  HD
ENDBRANCH 13 14
ENDBRANCH 12 13
ENDBRANCH 11 12
ENDBRANCH 10 11
BRANCH 10 23
ATOM     23  N   ARG C   2      57.007  31.276  38.918  1.00 19.42 LIG-0.35  N 
ATOM     24  C   ASP C   1      55.993  30.505  39.284  1.00 19.51 LIG 0.25  C 
ATOM     25 O    ASP C   1      55.148  30.091  38.472  1.00 19.29 LIG-0.27  OA
ATOM     26 H    ARG C   2      57.693  31.451  39.407  1.00 19.42 LIG 0.16  HD
BRANCH 24 27
ATOM     27  CA  ASP C   1      55.862  30.146  40.754  1.00 19.04 LIG 0.28  C 
BRANCH 27 28
ATOM     28  CB  ASP C   1      56.507  28.805  40.994  1.00 21.34 LIG 0.15  C 
BRANCH 28 29
ATOM     29  CG  ASP C   1      58.043  28.920  41.175  1.00 23.67 LIG 0.17  C 
ATOM     30 OD2  ASP C   1      58.471  29.312  42.296  1.00 27.41 LIG-0.65  OA
ATOM     31 OD1  ASP C   1      58.819  28.648  40.202  1.00 20.87 LIG-0.65  OA
ENDBRANCH 28 29
ENDBRANCH 27 28
BRANCH 27 32
ATOM     32  N   ASP C   1      54.390  30.098  41.076  1.00 18.38 LIG-0.07  N 
ATOM     33 H1   ASP C   1      53.961  29.645  40.441  1.00 18.38 LIG 0.28  HD
ATOM     34 H3   ASP C   1      54.068  30.926  41.118  1.00 18.38 LIG 0.28  HD
ATOM     35 H2   ASP C   1      54.270  29.694  41.860  1.00 18.38 LIG 0.28  HD
ENDBRANCH 27 32
ENDBRANCH 24 27
ENDBRANCH 10 23
ENDBRANCH 8 10
ENDBRANCH 5 6
BRANCH 5 36
ATOM     36  CB  VAL C   3      57.860  27.685  35.742  1.00 17.74 LIG 0.01  C 
ATOM     37  CG1 VAL C   3      59.360  27.822  35.589  1.00 20.72 LIG 0.01  C 
ATOM     38  CG2 VAL C   3      57.567  27.433  37.210  1.00 18.64 LIG 0.01  C 
ENDBRANCH 5 36
ENDBRANCH 1 5
BRANCH 3 39
ATOM     39  CA  TYR C   4      54.345  28.325  32.660  1.00 17.90 LIG 0.18  C 
BRANCH 39 40
ATOM     40  CB  TYR C   4      53.149  28.981  33.279  1.00 20.19 LIG 0.07  C 
BRANCH 40 41
ATOM     41  CG  TYR C   4      53.291  30.444  33.603  1.00 23.00 LIG-0.06  A 
ATOM     42  CD2 TYR C   4      52.973  31.415  32.652  1.00 26.62 LIG 0.01  A 
ATOM     43  CE2 TYR C   4      53.102  32.761  32.926  1.00 28.63 LIG 0.04  A 
ATOM     44  CZ  TYR C   4      53.552  33.149  34.150  1.00 25.42 LIG 0.07  A 
ATOM     45  CE1 TYR C   4      53.828  32.238  35.113  1.00 26.89 LIG 0.04  A 
ATOM     46  CD1 TYR C   4      53.701  30.870  34.834  1.00 24.41 LIG 0.01  A 
BRANCH 44 47
ATOM     47 OH   TYR C   4      53.671  34.482  34.420  1.00 32.39 LIG-0.36  OA
ATOM     48 HH   TYR C   4      54.171  34.840  33.847  1.00 32.39 LIG 0.22  HD
ENDBRANCH 44 47
ENDBRANCH 40 41
ENDBRANCH 39 40
BRANCH 39 49
ATOM     49  C   TYR C   4      54.387  28.535  31.119  1.00 20.63 LIG 0.24  C 
ATOM     50 O    TYR C   4      53.552  28.056  30.403  1.00 19.73 LIG-0.27  OA
ATOM     51  N   ILE C   5      55.311  29.367  30.662  1.00 22.91 LIG-0.35  N 
ATOM     52 H    ILE C   5      55.845  29.819  31.163  1.00 22.91 LIG 0.16  HD
BRANCH 51 53
ATOM     53  CA  ILE C   5      55.491  29.581  29.237  1.00 27.58 LIG 0.18  C 
BRANCH 53 54
ATOM     54  C   ILE C   5      54.193  30.112  28.632  1.00 33.14 LIG 0.24  C 
ATOM     55  N   HIS C   6      53.470  30.956  29.379  1.00 39.14 LIG-0.35  N 
ATOM     56 H    HIS C   6      53.675  31.155  30.191  1.00 39.14 LIG 0.16  HD
ATOM     57 O    ILE C   5      53.831  29.661  27.549  1.00 25.88 LIG-0.27  OA
BRANCH 55 58
ATOM     58  CA  HIS C   6      52.224  31.650  28.890  1.00 56.87 LIG 0.17  C 
BRANCH 58 59
ATOM     59  CB  HIS C   6      51.282  30.645  28.165  1.00 66.39 LIG 0.09  C 
BRANCH 59 60
ATOM     60  CG  HIS C   6      50.443  31.247  27.073  1.00 78.50 LIG 0.06  A 
ATOM     61  CD2 HIS C   6      49.304  31.980  27.141  1.00 82.71 LIG 0.14  A 
ATOM     62 NE2  HIS C   6      48.965  32.330  25.854  1.00 84.02 LIG-0.25  NA
ATOM     63  CE1 HIS C   6      49.875  31.850  25.023  1.00 85.20 LIG 0.23  A 
ATOM     64 ND1  HIS C   6      50.783  31.197  25.732  1.00 88.66 LIG-0.24  NA
ENDBRANCH 59 60
ENDBRANCH 58 59
BRANCH 58 65
ATOM     65  C   HIS C   6      51.380  32.402  29.929  1.00 59.18 LIG 0.22  C 
ATOM     66 O    HIS C   6      51.820  33.449  30.475  1.00 63.69 LIG-0.29  OA
ENDBRANCH 58 65
ENDBRANCH 55 58
ENDBRANCH 53 54
BRANCH 53 67
ATOM     67  CB  ILE C   5      55.944  28.289  28.572  1.00 28.54 LIG 0.01  C 
ATOM     68  CG2 ILE C   5      56.385  28.604  27.145  1.00 32.34 LIG 0.01  C 
BRANCH 67 69
ATOM     69  CG1 ILE C   5      57.039  27.679  29.464  1.00 30.21 LIG 0.00  C 
ATOM     70  CD1 ILE C   5      58.184  28.588  29.834  1.00 32.85 LIG 0.01  C 
ENDBRANCH 67 69
ENDBRANCH 53 67
ENDBRANCH 51 53
ENDBRANCH 39 49
ENDBRANCH 3 39
TORSDOF 26
ENDMDL
MODEL 21
USER: ADFR SOLUTION from run 83
USER: SCORE 23.674648 LL:  -6.738 LR: -17.844 RR:   0.000 FEB: -10.088
USER: RMSD 6.048299
USER: SEED 82
USER: STATUS no improvement in best in 4 clusters for 5 generations
USER: GENES 28
USER: genes 0 Translation |==|  0.72822 0.41964 0.54903
USER: genes 1 Rotation |==|  0.40392 0.53101 0.58824 0.98168
USER: genes 2 Torsion [N]-C--CA-[N] |==|  0.43649
USER: genes 3 Torsion [C]-CA--N-[C] |==|  0.77675
USER: genes 4 Torsion [N]-C--CA-[N] |==|  0.07394
USER: genes 5 Torsion [C]-CA--CB-[CG] |==|  0.52974
USER: genes 6 Torsion [CA]-CB--CG-[CD] |==|  0.67718
USER: genes 7 Torsion [CB]-CG--CD-[NE] |==|  0.45298
USER: genes 8 Torsion [CG]-CD--NE-[CZ] |==|  0.45450
USER: genes 9 Torsion [C]-CA--N-[C] |==|  0.72335
USER: genes 10 Torsion [N]-C--CA-[N] |==|  0.42223
USER: genes 11 Torsion [C]-CA--CB-[CG] |==|  0.81956
USER: genes 12 Torsion [CA]-CB--CG-[OD2] |==|  0.75386
USER: genes 13 Torsion [C]-CA--N-[H1] |==|  0.72279
USER: genes 14 Torsion [C]-CA--CB-[CG1] |==|  0.57987
USER: genes 15 Torsion [C]-N--CA-[CB] |==|  0.78327
USER: genes 16 Torsion [N]-CA--CB-[CG] |==|  0.87501
USER: genes 17 Torsion [CA]-CB--CG-[CD2] |==|  0.38207
USER: genes 18 Torsion [CE2]-CZ--OH-[HH] |==|  0.59034
USER: genes 19 Torsion [N]-CA--C-[N] |==|  0.13459
USER: genes 20 Torsion [C]-N--CA-[C] |==|  0.15887
USER: genes 21 Torsion [N]-CA--C-[N] |==|  0.12450
USER: genes 22 Torsion [C]-N--CA-[CB] |==|  0.77578
USER: genes 23 Torsion [N]-CA--CB-[CG] |==|  0.17450
USER: genes 24 Torsion [CA]-CB--CG-[CD2] |==|  0.19015
USER: genes 25 Torsion [N]-CA--C-[O] |==|  0.12910
USER: genes 26 Torsion [N]-CA--CB-[CG1] |==|  0.88475
USER: genes 27 Torsion [CA]-CB--CG1-[CD1] |==|  0.46927
ROOT
ATOM      1  C   VAL C   3      58.081  27.281  35.648  1.00 15.94 LIG 0.24  C 
ATOM      2 O    VAL C   3      56.869  27.327  35.740  1.00 17.86 LIG-0.27  OA
ATOM      3  N   TYR C   4      58.676  26.630  34.653  1.00 16.41 LIG-0.35  N 
ATOM      4 H    TYR C   4      59.529  26.560  34.568  1.00 16.41 LIG 0.16  HD
ENDROOT
BRANCH 1 5
ATOM      5  CA  VAL C   3      58.954  27.953  36.727  1.00 16.01 LIG 0.18  C 
BRANCH 5 6
ATOM      6  N   VAL C   3      58.130  29.017  37.340  1.00 15.77 LIG-0.35  N 
ATOM      7 H    VAL C   3      57.765  28.814  38.092  1.00 15.77 LIG 0.16  HD
ATOM      8  C   ARG C   2      58.004  30.180  36.723  1.00 16.54 LIG 0.24  C 
ATOM      9 O    ARG C   2      58.640  30.463  35.685  1.00 14.63 LIG-0.27  OA
BRANCH 8 10
ATOM     10  CA  ARG C   2      57.060  31.190  37.345  1.00 19.03 LIG 0.18  C 
BRANCH 10 11
ATOM     11  CB  ARG C   2      57.576  32.604  37.056  1.00 20.38 LIG 0.04  C 
BRANCH 11 12
ATOM     12  CG  ARG C   2      56.892  33.693  37.813  1.00 20.75 LIG 0.02  C 
BRANCH 12 13
ATOM     13  CD  ARG C   2      56.186  34.598  36.904  1.00 22.55 LIG 0.14  C 
BRANCH 13 14
ATOM     14  NE  ARG C   2      55.215  35.411  37.584  1.00 20.36 LIG-0.23  N 
ATOM     15  CZ  ARG C   2      54.672  36.500  37.082  1.00 23.11 LIG 0.67  C 
ATOM     16  NH1 ARG C   2      54.894  36.840  35.861  1.00 23.20 LIG-0.23  N 
ATOM     17  NH2 ARG C   2      53.805  37.198  37.825  1.00 25.55 LIG-0.23  N 
ATOM     18 1HH1 ARG C   2      55.401  36.354  35.364  1.00 23.20 LIG 0.17  HD
ATOM     19 2HH1 ARG C   2      54.535  37.553  35.540  1.00 23.20 LIG 0.17  HD
ATOM     20 2HH2 ARG C   2      53.443  37.911  37.508  1.00 25.55 LIG 0.17  HD
ATOM     21 1HH2 ARG C   2      53.609  36.933  38.620  1.00 25.55 LIG 0.17  HD
ATOM     22 HE   ARG C   2      54.972  35.170  38.372  1.00 20.36 LIG 0.18  HD
ENDBRANCH 13 14
ENDBRANCH 12 13
ENDBRANCH 11 12
ENDBRANCH 10 11
BRANCH 10 23
ATOM     23  N   ARG C   2      56.937  30.973  38.796  1.00 19.42 LIG-0.35  N 
ATOM     24  C   ASP C   1      55.890  30.320  39.279  1.00 19.51 LIG 0.25  C 
ATOM     25 O    ASP C   1      55.118  29.674  38.551  1.00 19.29 LIG-0.27  OA
ATOM     26 H    ARG C   2      57.578  31.296  39.271  1.00 19.42 LIG 0.16  HD
BRANCH 24 27
ATOM     27  CA  ASP C   1      55.628  30.397  40.773  1.00 19.04 LIG 0.28  C 
BRANCH 27 28
ATOM     28  CB  ASP C   1      56.397  29.303  41.467  1.00 21.34 LIG 0.15  C 
BRANCH 28 29
ATOM     29  CG  ASP C   1      55.897  27.892  41.063  1.00 23.67 LIG 0.17  C 
ATOM     30 OD2  ASP C   1      54.956  27.389  41.737  1.00 27.41 LIG-0.65  OA
ATOM     31 OD1  ASP C   1      56.454  27.273  40.098  1.00 20.87 LIG-0.65  OA
ENDBRANCH 28 29
ENDBRANCH 27 28
BRANCH 27 32
ATOM     32  N   ASP C   1      54.143  30.223  40.979  1.00 18.38 LIG-0.07  N 
ATOM     33 H1   ASP C   1      53.765  31.019  41.099  1.00 18.38 LIG 0.28  HD
ATOM     34 H3   ASP C   1      54.001  29.714  41.695  1.00 18.38 LIG 0.28  HD
ATOM     35 H2   ASP C   1      53.788  29.831  40.263  1.00 18.38 LIG 0.28  HD
ENDBRANCH 27 32
ENDBRANCH 24 27
ENDBRANCH 10 23
ENDBRANCH 8 10
ENDBRANCH 5 6
BRANCH 5 36
ATOM     36  CB  VAL C   3      59.360  26.883  37.717  1.00 17.74 LIG 0.01  C 
ATOM     37  CG1 VAL C   3      59.584  27.455  39.100  1.00 20.72 LIG 0.01  C 
ATOM     38  CG2 VAL C   3      58.296  25.807  37.829  1.00 18.64 LIG 0.01  C 
ENDBRANCH 5 36
ENDBRANCH 1 5
BRANCH 3 39
ATOM     39  CA  TYR C   4      57.909  25.969  33.605  1.00 17.90 LIG 0.18  C 
BRANCH 39 40
ATOM     40  CB  TYR C   4      57.361  24.661  34.089  1.00 20.19 LIG 0.07  C 
BRANCH 40 41
ATOM     41  CG  TYR C   4      58.317  23.788  34.856  1.00 23.00 LIG-0.06  A 
ATOM     42  CD2 TYR C   4      57.898  23.120  36.008  1.00 26.62 LIG 0.01  A 
ATOM     43  CE2 TYR C   4      58.759  22.319  36.731  1.00 28.63 LIG 0.04  A 
ATOM     44  CZ  TYR C   4      60.046  22.181  36.311  1.00 25.42 LIG 0.07  A 
ATOM     45  CE1 TYR C   4      60.477  22.777  35.175  1.00 26.89 LIG 0.04  A 
ATOM     46  CD1 TYR C   4      59.603  23.594  34.442  1.00 24.41 LIG 0.01  A 
BRANCH 44 47
ATOM     47 OH   TYR C   4      60.893  21.382  37.023  1.00 32.39 LIG-0.36  OA
ATOM     48 HH   TYR C   4      61.673  21.692  36.979  1.00 32.39 LIG 0.22  HD
ENDBRANCH 44 47
ENDBRANCH 40 41
ENDBRANCH 39 40
BRANCH 39 49
ATOM     49  C   TYR C   4      56.796  26.873  33.000  1.00 20.63 LIG 0.24  C 
ATOM     50 O    TYR C   4      55.652  26.513  32.965  1.00 19.73 LIG-0.27  OA
ATOM     51  N   ILE C   5      57.158  28.097  32.647  1.00 22.91 LIG-0.35  N 
ATOM     52 H    ILE C   5      57.944  28.424  32.772  1.00 22.91 LIG 0.16  HD
BRANCH 51 53
ATOM     53  CA  ILE C   5      56.222  29.001  32.003  1.00 27.58 LIG 0.18  C 
BRANCH 53 54
ATOM     54  C   ILE C   5      54.995  29.185  32.892  1.00 33.14 LIG 0.24  C 
ATOM     55  N   HIS C   6      55.211  29.389  34.198  1.00 39.14 LIG-0.35  N 
ATOM     56 H    HIS C   6      55.994  29.358  34.552  1.00 39.14 LIG 0.16  HD
ATOM     57 O    ILE C   5      53.885  29.032  32.389  1.00 25.88 LIG-0.27  OA
BRANCH 55 58
ATOM     58  CA  HIS C   6      54.117  29.693  35.190  1.00 56.87 LIG 0.17  C 
BRANCH 58 59
ATOM     59  CB  HIS C   6      53.724  31.198  35.134  1.00 66.39 LIG 0.09  C 
BRANCH 59 60
ATOM     60  CG  HIS C   6      53.154  31.649  33.818  1.00 78.50 LIG 0.06  A 
ATOM     61  CD2 HIS C   6      51.976  31.343  33.218  1.00 82.71 LIG 0.14  A 
ATOM     62 NE2  HIS C   6      51.916  32.060  32.045  1.00 84.02 LIG-0.25  NA
ATOM     63  CE1 HIS C   6      53.007  32.800  31.936  1.00 85.20 LIG 0.23  A 
ATOM     64 ND1  HIS C   6      53.769  32.576  32.996  1.00 88.66 LIG-0.24  NA
ENDBRANCH 59 60
ENDBRANCH 58 59
BRANCH 58 65
ATOM     65  C   HIS C   6      52.821  28.876  35.085  1.00 59.18 LIG 0.22  C 
ATOM     66 O    HIS C   6      52.862  27.624  34.953  1.00 63.69 LIG-0.29  OA
ENDBRANCH 58 65
ENDBRANCH 55 58
ENDBRANCH 53 54
BRANCH 53 67
ATOM     67  CB  ILE C   5      55.853  28.470  30.624  1.00 28.54 LIG 0.01  C 
ATOM     68  CG2 ILE C   5      55.165  29.585  29.841  1.00 32.34 LIG 0.01  C 
BRANCH 67 69
ATOM     69  CG1 ILE C   5      57.146  27.937  29.983  1.00 30.21 LIG 0.00  C 
ATOM     70  CD1 ILE C   5      56.983  27.128  28.720  1.00 32.85 LIG 0.01  C 
ENDBRANCH 67 69
ENDBRANCH 53 67
ENDBRANCH 51 53
ENDBRANCH 39 49
ENDBRANCH 3 39
TORSDOF 26
ENDMDL
MODEL 22
USER: ADFR SOLUTION from run 115
USER: SCORE 22.566629 LL:  -6.009 LR: -17.834 RR:   0.000 FEB: -10.078
USER: RMSD 5.134259
USER: SEED 114
USER: STATUS no improvement in best in 12 clusters for 5 generations
USER: GENES 28
USER: genes 0 Translation |==|  0.67298 0.43284 0.53524
USER: genes 1 Rotation |==|  0.14670 0.40476 0.18004 0.61721
USER: genes 2 Torsion [N]-C--CA-[N] |==|  0.89578
USER: genes 3 Torsion [C]-CA--N-[C] |==|  0.66689
USER: genes 4 Torsion [N]-C--CA-[N] |==|  0.12437
USER: genes 5 Torsion [C]-CA--CB-[CG] |==|  0.29837
USER: genes 6 Torsion [CA]-CB--CG-[CD] |==|  0.29366
USER: genes 7 Torsion [CB]-CG--CD-[NE] |==|  0.43968
USER: genes 8 Torsion [CG]-CD--NE-[CZ] |==|  0.42785
USER: genes 9 Torsion [C]-CA--N-[C] |==|  0.74028
USER: genes 10 Torsion [N]-C--CA-[N] |==|  0.41396
USER: genes 11 Torsion [C]-CA--CB-[CG] |==|  0.80508
USER: genes 12 Torsion [CA]-CB--CG-[OD2] |==|  0.21809
USER: genes 13 Torsion [C]-CA--N-[H1] |==|  0.40680
USER: genes 14 Torsion [C]-CA--CB-[CG1] |==|  0.70815
USER: genes 15 Torsion [C]-N--CA-[CB] |==|  0.83326
USER: genes 16 Torsion [N]-CA--CB-[CG] |==|  0.68289
USER: genes 17 Torsion [CA]-CB--CG-[CD2] |==|  0.65697
USER: genes 18 Torsion [CE2]-CZ--OH-[HH] |==|  0.32037
USER: genes 19 Torsion [N]-CA--C-[N] |==|  0.32794
USER: genes 20 Torsion [C]-N--CA-[C] |==|  0.72897
USER: genes 21 Torsion [N]-CA--C-[N] |==|  0.91667
USER: genes 22 Torsion [C]-N--CA-[CB] |==|  0.30791
USER: genes 23 Torsion [N]-CA--CB-[CG] |==|  0.81459
USER: genes 24 Torsion [CA]-CB--CG-[CD2] |==|  0.68186
USER: genes 25 Torsion [N]-CA--C-[O] |==|  0.69694
USER: genes 26 Torsion [N]-CA--CB-[CG1] |==|  0.88596
USER: genes 27 Torsion [CA]-CB--CG1-[CD1] |==|  0.81354
ROOT
ATOM      1  C   VAL C   3      57.128  27.617  35.286  1.00 15.94 LIG 0.24  C 
ATOM      2 O    VAL C   3      57.294  27.308  34.122  1.00 17.86 LIG-0.27  OA
ATOM      3  N   TYR C   4      56.012  27.300  35.935  1.00 16.41 LIG-0.35  N 
ATOM      4 H    TYR C   4      55.853  27.518  36.752  1.00 16.41 LIG 0.16  HD
ENDROOT
BRANCH 1 5
ATOM      5  CA  VAL C   3      58.212  28.432  36.020  1.00 16.01 LIG 0.18  C 
BRANCH 5 6
ATOM      6  N   VAL C   3      57.506  29.410  36.874  1.00 15.77 LIG-0.35  N 
ATOM      7 H    VAL C   3      56.982  29.072  37.467  1.00 15.77 LIG 0.16  HD
ATOM      8  C   ARG C   2      57.709  30.704  36.688  1.00 16.54 LIG 0.24  C 
ATOM      9 O    ARG C   2      58.559  31.142  35.885  1.00 14.63 LIG-0.27  OA
BRANCH 8 10
ATOM     10  CA  ARG C   2      56.874  31.658  37.520  1.00 19.03 LIG 0.18  C 
BRANCH 10 11
ATOM     11  CB  ARG C   2      57.468  33.066  37.417  1.00 20.38 LIG 0.04  C 
BRANCH 11 12
ATOM     12  CG  ARG C   2      56.677  34.027  36.594  1.00 20.75 LIG 0.02  C 
BRANCH 12 13
ATOM     13  CD  ARG C   2      55.977  34.991  37.444  1.00 22.55 LIG 0.14  C 
BRANCH 13 14
ATOM     14  NE  ARG C   2      55.627  36.194  36.739  1.00 20.36 LIG-0.23  N 
ATOM     15  CZ  ARG C   2      54.623  36.982  37.061  1.00 23.11 LIG 0.67  C 
ATOM     16  NH1 ARG C   2      53.952  36.780  38.140  1.00 23.20 LIG-0.23  N 
ATOM     17  NH2 ARG C   2      54.371  38.058  36.305  1.00 25.55 LIG-0.23  N 
ATOM     18 1HH1 ARG C   2      54.158  36.126  38.658  1.00 23.20 LIG 0.17  HD
ATOM     19 2HH1 ARG C   2      53.297  37.300  38.343  1.00 23.20 LIG 0.17  HD
ATOM     20 2HH2 ARG C   2      53.718  38.580  36.505  1.00 25.55 LIG 0.17  HD
ATOM     21 1HH2 ARG C   2      54.862  38.226  35.619  1.00 25.55 LIG 0.17  HD
ATOM     22 HE   ARG C   2      56.107  36.414  36.061  1.00 20.36 LIG 0.18  HD
ENDBRANCH 13 14
ENDBRANCH 12 13
ENDBRANCH 11 12
ENDBRANCH 10 11
BRANCH 10 23
ATOM     23  N   ARG C   2      56.820  31.224  38.926  1.00 19.42 LIG-0.35  N 
ATOM     24  C   ASP C   1      55.818  30.462  39.344  1.00 19.51 LIG 0.25  C 
ATOM     25 O    ASP C   1      55.041  29.899  38.556  1.00 19.29 LIG-0.27  OA
ATOM     26 H    ARG C   2      57.468  31.498  39.420  1.00 19.42 LIG 0.16  HD
BRANCH 24 27
ATOM     27  CA  ASP C   1      55.617  30.306  40.841  1.00 19.04 LIG 0.28  C 
BRANCH 27 28
ATOM     28  CB  ASP C   1      56.396  29.110  41.322  1.00 21.34 LIG 0.15  C 
BRANCH 28 29
ATOM     29  CG  ASP C   1      55.781  27.775  40.827  1.00 23.67 LIG 0.17  C 
ATOM     30 OD2  ASP C   1      56.014  27.430  39.636  1.00 27.41 LIG-0.65  OA
ATOM     31 OD1  ASP C   1      55.048  27.086  41.609  1.00 20.87 LIG-0.65  OA
ENDBRANCH 28 29
ENDBRANCH 27 28
BRANCH 27 32
ATOM     32  N   ASP C   1      54.139  30.115  41.078  1.00 18.38 LIG-0.07  N 
ATOM     33 H1   ASP C   1      54.018  29.570  41.772  1.00 18.38 LIG 0.28  HD
ATOM     34 H3   ASP C   1      53.766  29.759  40.353  1.00 18.38 LIG 0.28  HD
ATOM     35 H2   ASP C   1      53.761  30.902  41.249  1.00 18.38 LIG 0.28  HD
ENDBRANCH 27 32
ENDBRANCH 24 27
ENDBRANCH 10 23
ENDBRANCH 8 10
ENDBRANCH 5 6
BRANCH 5 36
ATOM     36  CB  VAL C   3      59.054  27.459  36.816  1.00 17.74 LIG 0.01  C 
ATOM     37  CG1 VAL C   3      58.739  27.525  38.296  1.00 20.72 LIG 0.01  C 
ATOM     38  CG2 VAL C   3      58.821  26.030  36.357  1.00 18.64 LIG 0.01  C 
ENDBRANCH 5 36
ENDBRANCH 1 5
BRANCH 3 39
ATOM     39  CA  TYR C   4      54.947  26.537  35.297  1.00 17.90 LIG 0.18  C 
BRANCH 39 40
ATOM     40  CB  TYR C   4      54.418  27.260  34.097  1.00 20.19 LIG 0.07  C 
BRANCH 40 41
ATOM     41  CG  TYR C   4      52.993  27.738  34.187  1.00 23.00 LIG-0.06  A 
ATOM     42  CD2 TYR C   4      52.053  27.346  33.233  1.00 26.62 LIG 0.01  A 
ATOM     43  CE2 TYR C   4      50.743  27.777  33.292  1.00 28.63 LIG 0.04  A 
ATOM     44  CZ  TYR C   4      50.362  28.605  34.303  1.00 25.42 LIG 0.07  A 
ATOM     45  CE1 TYR C   4      51.235  28.970  35.271  1.00 26.89 LIG 0.04  A 
ATOM     46  CD1 TYR C   4      52.567  28.536  35.209  1.00 24.41 LIG 0.01  A 
BRANCH 44 47
ATOM     47 OH   TYR C   4      49.064  29.023  34.363  1.00 32.39 LIG-0.36  OA
ATOM     48 HH   TYR C   4      48.704  28.719  35.058  1.00 32.39 LIG 0.22  HD
ENDBRANCH 44 47
ENDBRANCH 40 41
ENDBRANCH 39 40
BRANCH 39 49
ATOM     49  C   TYR C   4      55.362  25.077  34.955  1.00 20.63 LIG 0.24  C 
ATOM     50 O    TYR C   4      56.325  24.846  34.279  1.00 19.73 LIG-0.27  OA
ATOM     51  N   ILE C   5      54.675  24.113  35.552  1.00 22.91 LIG-0.35  N 
ATOM     52 H    ILE C   5      54.059  24.249  36.136  1.00 22.91 LIG 0.16  HD
BRANCH 51 53
ATOM     53  CA  ILE C   5      54.926  22.715  35.251  1.00 27.58 LIG 0.18  C 
BRANCH 53 54
ATOM     54  C   ILE C   5      53.905  22.222  34.228  1.00 33.14 LIG 0.24  C 
ATOM     55  N   HIS C   6      52.697  22.799  34.243  1.00 39.14 LIG-0.35  N 
ATOM     56 H    HIS C   6      52.463  23.379  34.834  1.00 39.14 LIG 0.16  HD
ATOM     57 O    ILE C   5      54.205  21.260  33.526  1.00 25.88 LIG-0.27  OA
BRANCH 55 58
ATOM     58  CA  HIS C   6      51.615  22.503  33.235  1.00 56.87 LIG 0.17  C 
BRANCH 58 59
ATOM     59  CB  HIS C   6      50.438  21.732  33.901  1.00 66.39 LIG 0.09  C 
BRANCH 59 60
ATOM     60  CG  HIS C   6      50.779  20.344  34.365  1.00 78.50 LIG 0.06  A 
ATOM     61  CD2 HIS C   6      50.327  19.138  33.939  1.00 82.71 LIG 0.14  A 
ATOM     62 NE2  HIS C   6      50.993  18.173  34.661  1.00 84.02 LIG-0.25  NA
ATOM     63  CE1 HIS C   6      51.842  18.763  35.486  1.00 85.20 LIG 0.23  A 
ATOM     64 ND1  HIS C   6      51.739  20.073  35.324  1.00 88.66 LIG-0.24  NA
ENDBRANCH 59 60
ENDBRANCH 58 59
BRANCH 58 65
ATOM     65  C   HIS C   6      51.013  23.693  32.475  1.00 59.18 LIG 0.22  C 
ATOM     66 O    HIS C   6      49.836  24.075  32.713  1.00 63.69 LIG-0.29  OA
ENDBRANCH 58 65
ENDBRANCH 55 58
ENDBRANCH 53 54
BRANCH 53 67
ATOM     67  CB  ILE C   5      54.891  21.894  36.533  1.00 28.54 LIG 0.01  C 
ATOM     68  CG2 ILE C   5      55.505  20.525  36.251  1.00 32.34 LIG 0.01  C 
BRANCH 67 69
ATOM     69  CG1 ILE C   5      55.616  22.713  37.615  1.00 30.21 LIG 0.00  C 
ATOM     70  CD1 ILE C   5      57.098  22.914  37.423  1.00 32.85 LIG 0.01  C 
ENDBRANCH 67 69
ENDBRANCH 53 67
ENDBRANCH 51 53
ENDBRANCH 39 49
ENDBRANCH 3 39
TORSDOF 26
ENDMDL
MODEL 23
USER: ADFR SOLUTION from run 15
USER: SCORE 22.353032 LL:  -5.730 LR: -17.784 RR:   0.000 FEB: -10.028
USER: RMSD 5.422201
USER: SEED 636491
USER: STATUS no improvement in best in 9 clusters for 5 generations
USER: GENES 28
USER: genes 0 Translation |==|  0.61238 0.46744 0.50663
USER: genes 1 Rotation |==|  0.57417 0.66501 0.73713 0.90130
USER: genes 2 Torsion [N]-C--CA-[N] |==|  0.33783
USER: genes 3 Torsion [C]-CA--N-[C] |==|  0.58275
USER: genes 4 Torsion [N]-C--CA-[N] |==|  0.18903
USER: genes 5 Torsion [C]-CA--CB-[CG] |==|  0.23937
USER: genes 6 Torsion [CA]-CB--CG-[CD] |==|  0.22107
USER: genes 7 Torsion [CB]-CG--CD-[NE] |==|  0.46496
USER: genes 8 Torsion [CG]-CD--NE-[CZ] |==|  0.50829
USER: genes 9 Torsion [C]-CA--N-[C] |==|  0.77271
USER: genes 10 Torsion [N]-C--CA-[N] |==|  0.37747
USER: genes 11 Torsion [C]-CA--CB-[CG] |==|  0.25910
USER: genes 12 Torsion [CA]-CB--CG-[OD2] |==|  0.21737
USER: genes 13 Torsion [C]-CA--N-[H1] |==|  0.78387
USER: genes 14 Torsion [C]-CA--CB-[CG1] |==|  0.40485
USER: genes 15 Torsion [C]-N--CA-[CB] |==|  0.20279
USER: genes 16 Torsion [N]-CA--CB-[CG] |==|  0.08931
USER: genes 17 Torsion [CA]-CB--CG-[CD2] |==|  0.23689
USER: genes 18 Torsion [CE2]-CZ--OH-[HH] |==|  0.85001
USER: genes 19 Torsion [N]-CA--C-[N] |==|  0.04835
USER: genes 20 Torsion [C]-N--CA-[C] |==|  0.64893
USER: genes 21 Torsion [N]-CA--C-[N] |==|  0.33518
USER: genes 22 Torsion [C]-N--CA-[CB] |==|  0.74387
USER: genes 23 Torsion [N]-CA--CB-[CG] |==|  0.37151
USER: genes 24 Torsion [CA]-CB--CG-[CD2] |==|  0.30697
USER: genes 25 Torsion [N]-CA--C-[O] |==|  0.20623
USER: genes 26 Torsion [N]-CA--CB-[CG1] |==|  0.85061
USER: genes 27 Torsion [CA]-CB--CG1-[CD1] |==|  0.30727
ROOT
ATOM      1  C   VAL C   3      56.083  28.500  34.535  1.00 15.94 LIG 0.24  C 
ATOM      2 O    VAL C   3      55.436  27.760  35.251  1.00 17.86 LIG-0.27  OA
ATOM      3  N   TYR C   4      55.784  28.655  33.249  1.00 16.41 LIG-0.35  N 
ATOM      4 H    TYR C   4      56.230  29.154  32.709  1.00 16.41 LIG 0.16  HD
ENDROOT
BRANCH 1 5
ATOM      5  CA  VAL C   3      57.302  29.246  35.113  1.00 16.01 LIG 0.18  C 
BRANCH 5 6
ATOM      6  N   VAL C   3      56.801  30.093  36.216  1.00 15.77 LIG-0.35  N 
ATOM      7 H    VAL C   3      56.109  29.791  36.628  1.00 15.77 LIG 0.16  HD
ATOM      8  C   ARG C   2      57.420  31.227  36.499  1.00 16.54 LIG 0.24  C 
ATOM      9 O    ARG C   2      58.483  31.571  35.941  1.00 14.63 LIG-0.27  OA
BRANCH 8 10
ATOM     10  CA  ARG C   2      56.794  32.104  37.567  1.00 19.03 LIG 0.18  C 
BRANCH 10 11
ATOM     11  CB  ARG C   2      57.499  33.464  37.576  1.00 20.38 LIG 0.04  C 
BRANCH 11 12
ATOM     12  CG  ARG C   2      56.957  34.463  36.611  1.00 20.75 LIG 0.02  C 
BRANCH 12 13
ATOM     13  CD  ARG C   2      55.740  35.088  37.132  1.00 22.55 LIG 0.14  C 
BRANCH 13 14
ATOM     14  NE  ARG C   2      55.350  36.248  36.378  1.00 20.36 LIG-0.23  N 
ATOM     15  CZ  ARG C   2      54.327  37.021  36.673  1.00 23.11 LIG 0.67  C 
ATOM     16  NH1 ARG C   2      53.669  36.848  37.765  1.00 23.20 LIG-0.23  N 
ATOM     17  NH2 ARG C   2      54.038  38.054  35.872  1.00 25.55 LIG-0.23  N 
ATOM     18 1HH1 ARG C   2      53.898  36.224  38.310  1.00 23.20 LIG 0.17  HD
ATOM     19 2HH1 ARG C   2      53.002  37.358  37.951  1.00 23.20 LIG 0.17  HD
ATOM     20 2HH2 ARG C   2      53.372  38.567  36.055  1.00 25.55 LIG 0.17  HD
ATOM     21 1HH2 ARG C   2      54.519  38.206  35.175  1.00 25.55 LIG 0.17  HD
ATOM     22 HE   ARG C   2      55.819  36.451  35.686  1.00 20.36 LIG 0.18  HD
ENDBRANCH 13 14
ENDBRANCH 12 13
ENDBRANCH 11 12
ENDBRANCH 10 11
BRANCH 10 23
ATOM     23  N   ARG C   2      56.885  31.468  38.892  1.00 19.42 LIG-0.35  N 
ATOM     24  C   ASP C   1      55.997  30.548  39.244  1.00 19.51 LIG 0.25  C 
ATOM     25 O    ASP C   1      55.225  30.023  38.425  1.00 19.29 LIG-0.27  OA
ATOM     26 H    ARG C   2      57.535  31.738  39.385  1.00 19.42 LIG 0.16  HD
BRANCH 24 27
ATOM     27  CA  ASP C   1      55.919  30.157  40.710  1.00 19.04 LIG 0.28  C 
BRANCH 27 28
ATOM     28  CB  ASP C   1      56.582  28.817  40.898  1.00 21.34 LIG 0.15  C 
BRANCH 28 29
ATOM     29  CG  ASP C   1      58.075  28.954  41.293  1.00 23.67 LIG 0.17  C 
ATOM     30 OD2  ASP C   1      58.338  29.243  42.493  1.00 27.41 LIG-0.65  OA
ATOM     31 OD1  ASP C   1      58.982  28.804  40.410  1.00 20.87 LIG-0.65  OA
ENDBRANCH 28 29
ENDBRANCH 27 28
BRANCH 27 32
ATOM     32  N   ASP C   1      54.458  30.089  41.080  1.00 18.38 LIG-0.07  N 
ATOM     33 H1   ASP C   1      54.144  30.913  41.200  1.00 18.38 LIG 0.28  HD
ATOM     34 H3   ASP C   1      54.364  29.623  41.832  1.00 18.38 LIG 0.28  HD
ATOM     35 H2   ASP C   1      54.004  29.691  40.427  1.00 18.38 LIG 0.28  HD
ENDBRANCH 27 32
ENDBRANCH 24 27
ENDBRANCH 10 23
ENDBRANCH 8 10
ENDBRANCH 5 6
BRANCH 5 36
ATOM     36  CB  VAL C   3      58.296  28.205  35.578  1.00 17.74 LIG 0.01  C 
ATOM     37  CG1 VAL C   3      59.725  28.665  35.377  1.00 20.72 LIG 0.01  C 
ATOM     38  CG2 VAL C   3      58.114  27.892  37.052  1.00 18.64 LIG 0.01  C 
ENDBRANCH 5 36
ENDBRANCH 1 5
BRANCH 3 39
ATOM     39  CA  TYR C   4      54.648  27.973  32.640  1.00 17.90 LIG 0.18  C 
BRANCH 39 40
ATOM     40  CB  TYR C   4      53.357  28.588  33.085  1.00 20.19 LIG 0.07  C 
BRANCH 40 41
ATOM     41  CG  TYR C   4      53.390  30.066  33.367  1.00 23.00 LIG-0.06  A 
ATOM     42  CD2 TYR C   4      53.215  30.989  32.334  1.00 26.62 LIG 0.01  A 
ATOM     43  CE2 TYR C   4      53.248  32.348  32.568  1.00 28.63 LIG 0.04  A 
ATOM     44  CZ  TYR C   4      53.460  32.798  33.835  1.00 25.42 LIG 0.07  A 
ATOM     45  CE1 TYR C   4      53.590  31.935  34.869  1.00 26.89 LIG 0.04  A 
ATOM     46  CD1 TYR C   4      53.560  30.553  34.631  1.00 24.41 LIG 0.01  A 
BRANCH 44 47
ATOM     47 OH   TYR C   4      53.485  34.144  34.065  1.00 32.39 LIG-0.36  OA
ATOM     48 HH   TYR C   4      54.044  34.505  33.551  1.00 32.39 LIG 0.22  HD
ENDBRANCH 44 47
ENDBRANCH 40 41
ENDBRANCH 39 40
BRANCH 39 49
ATOM     49  C   TYR C   4      54.745  27.892  31.090  1.00 20.63 LIG 0.24  C 
ATOM     50 O    TYR C   4      53.764  27.761  30.411  1.00 19.73 LIG-0.27  OA
ATOM     51  N   ILE C   5      55.941  28.101  30.562  1.00 22.91 LIG-0.35  N 
ATOM     52 H    ILE C   5      56.639  28.317  31.016  1.00 22.91 LIG 0.16  HD
BRANCH 51 53
ATOM     53  CA  ILE C   5      56.164  27.975  29.132  1.00 27.58 LIG 0.18  C 
BRANCH 53 54
ATOM     54  C   ILE C   5      57.322  27.012  28.878  1.00 33.14 LIG 0.24  C 
ATOM     55  N   HIS C   6      57.061  25.923  28.143  1.00 39.14 LIG-0.35  N 
ATOM     56 H    HIS C   6      56.270  25.722  27.870  1.00 39.14 LIG 0.16  HD
ATOM     57 O    ILE C   5      58.391  27.228  29.441  1.00 25.88 LIG-0.27  OA
BRANCH 55 58
ATOM     58  CA  HIS C   6      58.112  24.932  27.713  1.00 56.87 LIG 0.17  C 
BRANCH 58 59
ATOM     59  CB  HIS C   6      58.682  25.306  26.313  1.00 66.39 LIG 0.09  C 
BRANCH 59 60
ATOM     60  CG  HIS C   6      60.181  25.257  26.213  1.00 78.50 LIG 0.06  A 
ATOM     61  CD2 HIS C   6      60.992  24.402  25.541  1.00 82.71 LIG 0.14  A 
ATOM     62 NE2  HIS C   6      62.287  24.825  25.737  1.00 84.02 LIG-0.25  NA
ATOM     63  CE1 HIS C   6      62.275  25.916  26.486  1.00 85.20 LIG 0.23  A 
ATOM     64 ND1  HIS C   6      61.016  26.203  26.782  1.00 88.66 LIG-0.24  NA
ENDBRANCH 59 60
ENDBRANCH 58 59
BRANCH 58 65
ATOM     65  C   HIS C   6      59.306  24.717  28.652  1.00 59.18 LIG 0.22  C 
ATOM     66 O    HIS C   6      59.171  24.061  29.720  1.00 63.69 LIG-0.29  OA
ENDBRANCH 58 65
ENDBRANCH 55 58
ENDBRANCH 53 54
BRANCH 53 67
ATOM     67  CB  ILE C   5      56.420  29.348  28.525  1.00 28.54 LIG 0.01  C 
ATOM     68  CG2 ILE C   5      56.606  29.187  27.018  1.00 32.34 LIG 0.01  C 
BRANCH 67 69
ATOM     69  CG1 ILE C   5      55.245  30.252  28.935  1.00 30.21 LIG 0.00  C 
ATOM     70  CD1 ILE C   5      55.557  31.352  29.918  1.00 32.85 LIG 0.01  C 
ENDBRANCH 67 69
ENDBRANCH 53 67
ENDBRANCH 51 53
ENDBRANCH 39 49
ENDBRANCH 3 39
TORSDOF 26
ENDMDL
MODEL 24
USER: ADFR SOLUTION from run 114
USER: SCORE 23.489809 LL:  -7.107 LR: -17.766 RR:   0.000 FEB: -10.010
USER: RMSD 5.108462
USER: SEED 113
USER: STATUS searching
USER: GENES 28
USER: genes 0 Translation |==|  0.56364 0.47471 0.50012
USER: genes 1 Rotation |==|  0.14415 0.51922 0.23561 0.73044
USER: genes 2 Torsion [N]-C--CA-[N] |==|  0.81160
USER: genes 3 Torsion [C]-CA--N-[C] |==|  0.59036
USER: genes 4 Torsion [N]-C--CA-[N] |==|  0.21253
USER: genes 5 Torsion [C]-CA--CB-[CG] |==|  0.40801
USER: genes 6 Torsion [CA]-CB--CG-[CD] |==|  0.83562
USER: genes 7 Torsion [CB]-CG--CD-[NE] |==|  0.60645
USER: genes 8 Torsion [CG]-CD--NE-[CZ] |==|  0.72737
USER: genes 9 Torsion [C]-CA--N-[C] |==|  0.78273
USER: genes 10 Torsion [N]-C--CA-[N] |==|  0.40515
USER: genes 11 Torsion [C]-CA--CB-[CG] |==|  0.75180
USER: genes 12 Torsion [CA]-CB--CG-[OD2] |==|  0.80182
USER: genes 13 Torsion [C]-CA--N-[H1] |==|  0.43455
USER: genes 14 Torsion [C]-CA--CB-[CG1] |==|  0.41408
USER: genes 15 Torsion [C]-N--CA-[CB] |==|  0.76521
USER: genes 16 Torsion [N]-CA--CB-[CG] |==|  0.11914
USER: genes 17 Torsion [CA]-CB--CG-[CD2] |==|  0.78200
USER: genes 18 Torsion [CE2]-CZ--OH-[HH] |==|  0.35268
USER: genes 19 Torsion [N]-CA--C-[N] |==|  0.52778
USER: genes 20 Torsion [C]-N--CA-[C] |==|  0.70849
USER: genes 21 Torsion [N]-CA--C-[N] |==|  0.99859
USER: genes 22 Torsion [C]-N--CA-[CB] |==|  0.85172
USER: genes 23 Torsion [N]-CA--CB-[CG] |==|  0.82057
USER: genes 24 Torsion [CA]-CB--CG-[CD2] |==|  0.71744
USER: genes 25 Torsion [N]-CA--C-[O] |==|  0.31618
USER: genes 26 Torsion [N]-CA--CB-[CG1] |==|  0.19535
USER: genes 27 Torsion [CA]-CB--CG1-[CD1] |==|  0.51105
ROOT
ATOM      1  C   VAL C   3      55.242  28.685  34.364  1.00 15.94 LIG 0.24  C 
ATOM      2 O    VAL C   3      54.973  29.065  33.241  1.00 17.86 LIG-0.27  OA
ATOM      3  N   TYR C   4      54.392  27.943  35.066  1.00 16.41 LIG-0.35  N 
ATOM      4 H    TYR C   4      54.540  27.673  35.869  1.00 16.41 LIG 0.16  HD
ENDROOT
BRANCH 1 5
ATOM      5  CA  VAL C   3      56.577  29.104  35.012  1.00 16.01 LIG 0.18  C 
BRANCH 5 6
ATOM      6  N   VAL C   3      56.246  30.046  36.101  1.00 15.77 LIG-0.35  N 
ATOM      7 H    VAL C   3      55.497  29.902  36.500  1.00 15.77 LIG 0.16  HD
ATOM      8  C   ARG C   2      57.087  31.024  36.396  1.00 16.54 LIG 0.24  C 
ATOM      9 O    ARG C   2      58.210  31.129  35.860  1.00 14.63 LIG-0.27  OA
BRANCH 8 10
ATOM     10  CA  ARG C   2      56.641  32.022  37.447  1.00 19.03 LIG 0.18  C 
BRANCH 10 11
ATOM     11  CB  ARG C   2      57.490  33.292  37.326  1.00 20.38 LIG 0.04  C 
BRANCH 11 12
ATOM     12  CG  ARG C   2      56.780  34.560  37.662  1.00 20.75 LIG 0.02  C 
BRANCH 12 13
ATOM     13  CD  ARG C   2      55.618  34.756  36.794  1.00 22.55 LIG 0.14  C 
BRANCH 13 14
ATOM     14  NE  ARG C   2      55.439  36.132  36.417  1.00 20.36 LIG-0.23  N 
ATOM     15  CZ  ARG C   2      54.603  36.963  37.003  1.00 23.11 LIG 0.67  C 
ATOM     16  NH1 ARG C   2      53.969  36.613  38.067  1.00 23.20 LIG-0.23  N 
ATOM     17  NH2 ARG C   2      54.495  38.214  36.539  1.00 25.55 LIG-0.23  N 
ATOM     18 1HH1 ARG C   2      54.090  35.830  38.401  1.00 23.20 LIG 0.17  HD
ATOM     19 2HH1 ARG C   2      53.425  37.163  38.444  1.00 23.20 LIG 0.17  HD
ATOM     20 2HH2 ARG C   2      53.953  38.766  36.913  1.00 25.55 LIG 0.17  HD
ATOM     21 1HH2 ARG C   2      54.969  38.465  35.866  1.00 25.55 LIG 0.17  HD
ATOM     22 HE   ARG C   2      55.910  36.432  35.764  1.00 20.36 LIG 0.18  HD
ENDBRANCH 13 14
ENDBRANCH 12 13
ENDBRANCH 11 12
ENDBRANCH 10 11
BRANCH 10 23
ATOM     23  N   ARG C   2      56.758  31.451  38.799  1.00 19.42 LIG-0.35  N 
ATOM     24  C   ASP C   1      55.839  30.602  39.239  1.00 19.51 LIG 0.25  C 
ATOM     25 O    ASP C   1      55.004  30.079  38.483  1.00 19.29 LIG-0.27  OA
ATOM     26 H    ARG C   2      57.444  31.709  39.249  1.00 19.42 LIG 0.16  HD
BRANCH 24 27
ATOM     27  CA  ASP C   1      55.808  30.292  40.725  1.00 19.04 LIG 0.28  C 
BRANCH 27 28
ATOM     28  CB  ASP C   1      56.620  29.050  40.987  1.00 21.34 LIG 0.15  C 
BRANCH 28 29
ATOM     29  CG  ASP C   1      55.765  27.760  40.880  1.00 23.67 LIG 0.17  C 
ATOM     30 OD2  ASP C   1      54.924  27.538  41.794  1.00 27.41 LIG-0.65  OA
ATOM     31 OD1  ASP C   1      55.947  26.957  39.907  1.00 20.87 LIG-0.65  OA
ENDBRANCH 28 29
ENDBRANCH 27 28
BRANCH 27 32
ATOM     32  N   ASP C   1      54.365  30.080  41.110  1.00 18.38 LIG-0.07  N 
ATOM     33 H1   ASP C   1      54.324  29.580  41.846  1.00 18.38 LIG 0.28  HD
ATOM     34 H3   ASP C   1      53.938  29.668  40.447  1.00 18.38 LIG 0.28  HD
ATOM     35 H2   ASP C   1      53.980  30.867  41.266  1.00 18.38 LIG 0.28  HD
ENDBRANCH 27 32
ENDBRANCH 24 27
ENDBRANCH 10 23
ENDBRANCH 8 10
ENDBRANCH 5 6
BRANCH 5 36
ATOM     36  CB  VAL C   3      57.257  27.847  35.509  1.00 17.74 LIG 0.01  C 
ATOM     37  CG1 VAL C   3      58.766  27.970  35.461  1.00 20.72 LIG 0.01  C 
ATOM     38  CG2 VAL C   3      56.863  27.542  36.943  1.00 18.64 LIG 0.01  C 
ENDBRANCH 5 36
ENDBRANCH 1 5
BRANCH 3 39
ATOM     39  CA  TYR C   4      53.111  27.518  34.515  1.00 17.90 LIG 0.18  C 
BRANCH 39 40
ATOM     40  CB  TYR C   4      52.073  28.582  34.698  1.00 20.19 LIG 0.07  C 
BRANCH 40 41
ATOM     41  CG  TYR C   4      52.514  29.992  34.412  1.00 23.00 LIG-0.06  A 
ATOM     42  CD2 TYR C   4      53.268  30.702  35.347  1.00 26.62 LIG 0.01  A 
ATOM     43  CE2 TYR C   4      53.678  31.999  35.109  1.00 28.63 LIG 0.04  A 
ATOM     44  CZ  TYR C   4      53.335  32.598  33.936  1.00 25.42 LIG 0.07  A 
ATOM     45  CE1 TYR C   4      52.642  31.926  32.987  1.00 26.89 LIG 0.04  A 
ATOM     46  CD1 TYR C   4      52.222  30.611  33.230  1.00 24.41 LIG 0.01  A 
BRANCH 44 47
ATOM     47 OH   TYR C   4      53.747  33.877  33.700  1.00 32.39 LIG-0.36  OA
ATOM     48 HH   TYR C   4      54.144  33.911  32.960  1.00 32.39 LIG 0.22  HD
ENDBRANCH 44 47
ENDBRANCH 40 41
ENDBRANCH 39 40
BRANCH 39 49
ATOM     49  C   TYR C   4      53.208  27.054  33.033  1.00 20.63 LIG 0.24  C 
ATOM     50 O    TYR C   4      54.265  26.786  32.532  1.00 19.73 LIG-0.27  OA
ATOM     51  N   ILE C   5      52.061  26.849  32.403  1.00 22.91 LIG-0.35  N 
ATOM     52 H    ILE C   5      51.287  26.915  32.773  1.00 22.91 LIG 0.16  HD
BRANCH 51 53
ATOM     53  CA  ILE C   5      52.030  26.487  30.997  1.00 27.58 LIG 0.18  C 
BRANCH 53 54
ATOM     54  C   ILE C   5      51.598  27.694  30.168  1.00 33.14 LIG 0.24  C 
ATOM     55  N   HIS C   6      51.322  28.825  30.831  1.00 39.14 LIG-0.35  N 
ATOM     56 H    HIS C   6      51.320  28.874  31.690  1.00 39.14 LIG 0.16  HD
ATOM     57 O    ILE C   5      51.426  27.539  28.962  1.00 25.88 LIG-0.27  OA
BRANCH 55 58
ATOM     58  CA  HIS C   6      50.986  30.131  30.156  1.00 56.87 LIG 0.17  C 
BRANCH 58 59
ATOM     59  CB  HIS C   6      52.082  30.514  29.120  1.00 66.39 LIG 0.09  C 
BRANCH 59 60
ATOM     60  CG  HIS C   6      53.435  30.792  29.711  1.00 78.50 LIG 0.06  A 
ATOM     61  CD2 HIS C   6      54.059  31.969  29.968  1.00 82.71 LIG 0.14  A 
ATOM     62 NE2  HIS C   6      55.266  31.673  30.559  1.00 84.02 LIG-0.25  NA
ATOM     63  CE1 HIS C   6      55.373  30.360  30.684  1.00 85.20 LIG 0.23  A 
ATOM     64 ND1  HIS C   6      54.280  29.803  30.187  1.00 88.66 LIG-0.24  NA
ENDBRANCH 59 60
ENDBRANCH 58 59
BRANCH 58 65
ATOM     65  C   HIS C   6      49.628  30.230  29.446  1.00 59.18 LIG 0.22  C 
ATOM     66 O    HIS C   6      48.737  31.011  29.874  1.00 63.69 LIG-0.29  OA
ENDBRANCH 58 65
ENDBRANCH 55 58
ENDBRANCH 53 54
BRANCH 53 67
ATOM     67  CB  ILE C   5      51.108  25.293  30.789  1.00 28.54 LIG 0.01  C 
ATOM     68  CG2 ILE C   5      51.552  24.168  31.722  1.00 32.34 LIG 0.01  C 
BRANCH 67 69
ATOM     69  CG1 ILE C   5      49.669  25.786  31.015  1.00 30.21 LIG 0.00  C 
ATOM     70  CD1 ILE C   5      48.585  24.740  30.951  1.00 32.85 LIG 0.01  C 
ENDBRANCH 67 69
ENDBRANCH 53 67
ENDBRANCH 51 53
ENDBRANCH 39 49
ENDBRANCH 3 39
TORSDOF 26
ENDMDL
MODEL 25
USER: ADFR SOLUTION from run 7
USER: SCORE 19.620456 LL:  -5.019 LR: -17.750 RR:   0.000 FEB:  -9.995
USER: RMSD 9.947536
USER: SEED 215705
USER: STATUS no improvement in best in 17 clusters for 5 generations
USER: GENES 28
USER: genes 0 Translation |==|  0.49744 0.53273 0.53873
USER: genes 1 Rotation |==|  0.61175 0.08254 0.32660 0.68213
USER: genes 2 Torsion [N]-C--CA-[N] |==|  0.51492
USER: genes 3 Torsion [C]-CA--N-[C] |==|  0.19427
USER: genes 4 Torsion [N]-C--CA-[N] |==|  0.68763
USER: genes 5 Torsion [C]-CA--CB-[CG] |==|  0.29684
USER: genes 6 Torsion [CA]-CB--CG-[CD] |==|  0.20693
USER: genes 7 Torsion [CB]-CG--CD-[NE] |==|  0.36674
USER: genes 8 Torsion [CG]-CD--NE-[CZ] |==|  0.24837
USER: genes 9 Torsion [C]-CA--N-[C] |==|  0.73071
USER: genes 10 Torsion [N]-C--CA-[N] |==|  0.37306
USER: genes 11 Torsion [C]-CA--CB-[CG] |==|  0.59346
USER: genes 12 Torsion [CA]-CB--CG-[OD2] |==|  0.88298
USER: genes 13 Torsion [C]-CA--N-[H1] |==|  0.99177
USER: genes 14 Torsion [C]-CA--CB-[CG1] |==|  0.21327
USER: genes 15 Torsion [C]-N--CA-[CB] |==|  0.22120
USER: genes 16 Torsion [N]-CA--CB-[CG] |==|  0.75427
USER: genes 17 Torsion [CA]-CB--CG-[CD2] |==|  0.39185
USER: genes 18 Torsion [CE2]-CZ--OH-[HH] |==|  0.84080
USER: genes 19 Torsion [N]-CA--C-[N] |==|  0.73815
USER: genes 20 Torsion [C]-N--CA-[C] |==|  0.54567
USER: genes 21 Torsion [N]-CA--C-[N] |==|  0.43760
USER: genes 22 Torsion [C]-N--CA-[CB] |==|  0.60788
USER: genes 23 Torsion [N]-CA--CB-[CG] |==|  0.93616
USER: genes 24 Torsion [CA]-CB--CG-[CD2] |==|  0.40224
USER: genes 25 Torsion [N]-CA--C-[O] |==|  0.50968
USER: genes 26 Torsion [N]-CA--CB-[CG1] |==|  0.51960
USER: genes 27 Torsion [CA]-CB--CG1-[CD1] |==|  0.30034
ROOT
ATOM      1  C   VAL C   3      54.100  30.165  35.378  1.00 15.94 LIG 0.24  C 
ATOM      2 O    VAL C   3      54.732  31.184  35.179  1.00 17.86 LIG-0.27  OA
ATOM      3  N   TYR C   4      54.682  29.072  35.861  1.00 16.41 LIG-0.35  N 
ATOM      4 H    TYR C   4      54.270  28.328  35.996  1.00 16.41 LIG 0.16  HD
ENDROOT
BRANCH 1 5
ATOM      5  CA  VAL C   3      52.599  30.117  35.024  1.00 16.01 LIG 0.18  C 
BRANCH 5 6
ATOM      6  N   VAL C   3      52.268  31.413  34.396  1.00 15.77 LIG-0.35  N 
ATOM      7 H    VAL C   3      51.769  31.934  34.865  1.00 15.77 LIG 0.16  HD
ATOM      8  C   ARG C   2      52.738  31.693  33.191  1.00 16.54 LIG 0.24  C 
ATOM      9 O    ARG C   2      53.545  30.948  32.595  1.00 14.63 LIG-0.27  OA
BRANCH 8 10
ATOM     10  CA  ARG C   2      52.274  32.989  32.556  1.00 19.03 LIG 0.18  C 
BRANCH 10 11
ATOM     11  CB  ARG C   2      51.513  33.815  33.598  1.00 20.38 LIG 0.04  C 
BRANCH 11 12
ATOM     12  CG  ARG C   2      52.244  35.007  34.116  1.00 20.75 LIG 0.02  C 
BRANCH 12 13
ATOM     13  CD  ARG C   2      52.268  36.081  33.121  1.00 22.55 LIG 0.14  C 
BRANCH 13 14
ATOM     14  NE  ARG C   2      51.895  37.353  33.676  1.00 20.36 LIG-0.23  N 
ATOM     15  CZ  ARG C   2      52.739  38.208  34.214  1.00 23.11 LIG 0.67  C 
ATOM     16  NH1 ARG C   2      54.008  38.000  34.156  1.00 23.20 LIG-0.23  N 
ATOM     17  NH2 ARG C   2      52.269  39.348  34.734  1.00 25.55 LIG-0.23  N 
ATOM     18 1HH1 ARG C   2      54.311  37.298  33.763  1.00 23.20 LIG 0.17  HD
ATOM     19 2HH1 ARG C   2      54.553  38.565  34.510  1.00 23.20 LIG 0.17  HD
ATOM     20 2HH2 ARG C   2      52.811  39.915  35.088  1.00 25.55 LIG 0.17  HD
ATOM     21 1HH2 ARG C   2      51.425  39.515  34.715  1.00 25.55 LIG 0.17  HD
ATOM     22 HE   ARG C   2      51.064  37.570  33.656  1.00 20.36 LIG 0.18  HD
ENDBRANCH 13 14
ENDBRANCH 12 13
ENDBRANCH 11 12
ENDBRANCH 10 11
BRANCH 10 23
ATOM     23  N   ARG C   2      51.421  32.726  31.385  1.00 19.42 LIG-0.35  N 
ATOM     24  C   ASP C   1      51.947  32.745  30.168  1.00 19.51 LIG 0.25  C 
ATOM     25 O    ASP C   1      53.174  32.744  29.976  1.00 19.29 LIG-0.27  OA
ATOM     26 H    ARG C   2      50.594  32.567  31.560  1.00 19.42 LIG 0.16  HD
BRANCH 24 27
ATOM     27  CA  ASP C   1      50.999  32.796  28.982  1.00 19.04 LIG 0.28  C 
BRANCH 27 28
ATOM     28  CB  ASP C   1      50.959  31.442  28.323  1.00 21.34 LIG 0.15  C 
BRANCH 28 29
ATOM     29  CG  ASP C   1      50.769  31.544  26.788  1.00 23.67 LIG 0.17  C 
ATOM     30 OD2  ASP C   1      49.936  32.388  26.357  1.00 27.41 LIG-0.65  OA
ATOM     31 OD1  ASP C   1      51.424  30.772  26.014  1.00 20.87 LIG-0.65  OA
ENDBRANCH 28 29
ENDBRANCH 27 28
BRANCH 27 32
ATOM     32  N   ASP C   1      51.527  33.840  28.029  1.00 18.38 LIG-0.07  N 
ATOM     33 H1   ASP C   1      52.247  34.227  28.383  1.00 18.38 LIG 0.28  HD
ATOM     34 H3   ASP C   1      50.900  34.455  27.885  1.00 18.38 LIG 0.28  HD
ATOM     35 H2   ASP C   1      51.747  33.455  27.258  1.00 18.38 LIG 0.28  HD
ENDBRANCH 27 32
ENDBRANCH 24 27
ENDBRANCH 10 23
ENDBRANCH 8 10
ENDBRANCH 5 6
BRANCH 5 36
ATOM     36  CB  VAL C   3      52.387  28.943  34.094  1.00 17.74 LIG 0.01  C 
ATOM     37  CG1 VAL C   3      52.394  27.626  34.842  1.00 20.72 LIG 0.01  C 
ATOM     38  CG2 VAL C   3      51.059  29.054  33.366  1.00 18.64 LIG 0.01  C 
ENDBRANCH 5 36
ENDBRANCH 1 5
BRANCH 3 39
ATOM     39  CA  TYR C   4      56.097  29.049  36.210  1.00 17.90 LIG 0.18  C 
BRANCH 39 40
ATOM     40  CB  TYR C   4      56.327  29.684  37.547  1.00 20.19 LIG 0.07  C 
BRANCH 40 41
ATOM     41  CG  TYR C   4      56.559  31.171  37.542  1.00 23.00 LIG-0.06  A 
ATOM     42  CD2 TYR C   4      56.015  31.977  38.543  1.00 26.62 LIG 0.01  A 
ATOM     43  CE2 TYR C   4      56.210  33.343  38.554  1.00 28.63 LIG 0.04  A 
ATOM     44  CZ  TYR C   4      56.948  33.916  37.564  1.00 25.42 LIG 0.07  A 
ATOM     45  CE1 TYR C   4      57.528  33.162  36.602  1.00 26.89 LIG 0.04  A 
ATOM     46  CD1 TYR C   4      57.327  31.774  36.587  1.00 24.41 LIG 0.01  A 
BRANCH 44 47
ATOM     47 OH   TYR C   4      57.145  35.267  37.582  1.00 32.39 LIG-0.36  OA
ATOM     48 HH   TYR C   4      56.402  35.658  37.582  1.00 32.39 LIG 0.22  HD
ENDBRANCH 44 47
ENDBRANCH 40 41
ENDBRANCH 39 40
BRANCH 39 49
ATOM     49  C   TYR C   4      56.722  27.627  36.131  1.00 20.63 LIG 0.24  C 
ATOM     50 O    TYR C   4      57.248  27.233  35.127  1.00 19.73 LIG-0.27  OA
ATOM     51  N   ILE C   5      56.755  26.933  37.259  1.00 22.91 LIG-0.35  N 
ATOM     52 H    ILE C   5      56.496  27.236  38.021  1.00 22.91 LIG 0.16  HD
BRANCH 51 53
ATOM     53  CA  ILE C   5      57.247  25.567  37.287  1.00 27.58 LIG 0.18  C 
BRANCH 53 54
ATOM     54  C   ILE C   5      56.802  24.889  38.580  1.00 33.14 LIG 0.24  C 
ATOM     55  N   HIS C   6      56.752  23.550  38.584  1.00 39.14 LIG-0.35  N 
ATOM     56 H    HIS C   6      56.900  23.076  37.881  1.00 39.14 LIG 0.16  HD
ATOM     57 O    ILE C   5      56.414  25.599  39.504  1.00 25.88 LIG-0.27  OA
BRANCH 55 58
ATOM     58  CA  HIS C   6      56.436  22.727  39.807  1.00 56.87 LIG 0.17  C 
BRANCH 58 59
ATOM     59  CB  HIS C   6      57.318  21.445  39.851  1.00 66.39 LIG 0.09  C 
BRANCH 59 60
ATOM     60  CG  HIS C   6      57.853  21.005  38.518  1.00 78.50 LIG 0.06  A 
ATOM     61  CD2 HIS C   6      59.038  20.432  38.190  1.00 82.71 LIG 0.14  A 
ATOM     62 NE2  HIS C   6      59.011  20.180  36.837  1.00 84.02 LIG-0.25  NA
ATOM     63  CE1 HIS C   6      57.842  20.563  36.351  1.00 85.20 LIG 0.23  A 
ATOM     64 ND1  HIS C   6      57.121  21.059  37.344  1.00 88.66 LIG-0.24  NA
ENDBRANCH 59 60
ENDBRANCH 58 59
BRANCH 58 65
ATOM     65  C   HIS C   6      56.560  23.416  41.173  1.00 59.18 LIG 0.22  C 
ATOM     66 O    HIS C   6      56.374  22.767  42.237  1.00 63.69 LIG-0.29  OA
ENDBRANCH 58 65
ENDBRANCH 55 58
ENDBRANCH 53 54
BRANCH 53 67
ATOM     67  CB  ILE C   5      58.762  25.559  37.131  1.00 28.54 LIG 0.01  C 
ATOM     68  CG2 ILE C   5      59.377  26.294  38.319  1.00 32.34 LIG 0.01  C 
BRANCH 67 69
ATOM     69  CG1 ILE C   5      59.195  24.090  36.989  1.00 30.21 LIG 0.00  C 
ATOM     70  CD1 ILE C   5      59.654  23.656  35.620  1.00 32.85 LIG 0.01  C 
ENDBRANCH 67 69
ENDBRANCH 53 67
ENDBRANCH 51 53
ENDBRANCH 39 49
ENDBRANCH 3 39
TORSDOF 26
ENDMDL
MODEL 26
USER: ADFR SOLUTION from run 15
USER: SCORE 23.116991 LL:  -6.674 LR: -17.739 RR:   0.000 FEB:  -9.983
USER: RMSD 5.237192
USER: SEED 636491
USER: STATUS no improvement in best in 9 clusters for 5 generations
USER: GENES 28
USER: genes 0 Translation |==|  0.61091 0.46760 0.50597
USER: genes 1 Rotation |==|  0.50195 0.65445 0.69468 0.93387
USER: genes 2 Torsion [N]-C--CA-[N] |==|  0.39901
USER: genes 3 Torsion [C]-CA--N-[C] |==|  0.57334
USER: genes 4 Torsion [N]-C--CA-[N] |==|  0.18725
USER: genes 5 Torsion [C]-CA--CB-[CG] |==|  0.23619
USER: genes 6 Torsion [CA]-CB--CG-[CD] |==|  0.24092
USER: genes 7 Torsion [CB]-CG--CD-[NE] |==|  0.47980
USER: genes 8 Torsion [CG]-CD--NE-[CZ] |==|  0.49380
USER: genes 9 Torsion [C]-CA--N-[C] |==|  0.76263
USER: genes 10 Torsion [N]-C--CA-[N] |==|  0.37612
USER: genes 11 Torsion [C]-CA--CB-[CG] |==|  0.24491
USER: genes 12 Torsion [CA]-CB--CG-[OD2] |==|  0.23087
USER: genes 13 Torsion [C]-CA--N-[H1] |==|  0.13229
USER: genes 14 Torsion [C]-CA--CB-[CG1] |==|  0.40501
USER: genes 15 Torsion [C]-N--CA-[CB] |==|  0.76437
USER: genes 16 Torsion [N]-CA--CB-[CG] |==|  0.01949
USER: genes 17 Torsion [CA]-CB--CG-[CD2] |==|  0.26677
USER: genes 18 Torsion [CE2]-CZ--OH-[HH] |==|  0.82844
USER: genes 19 Torsion [N]-CA--C-[N] |==|  0.17364
USER: genes 20 Torsion [C]-N--CA-[C] |==|  0.59248
USER: genes 21 Torsion [N]-CA--C-[N] |==|  0.17128
USER: genes 22 Torsion [C]-N--CA-[CB] |==|  0.27596
USER: genes 23 Torsion [N]-CA--CB-[CG] |==|  0.97784
USER: genes 24 Torsion [CA]-CB--CG-[CD2] |==|  0.25370
USER: genes 25 Torsion [N]-CA--C-[O] |==|  0.27559
USER: genes 26 Torsion [N]-CA--CB-[CG1] |==|  0.07311
USER: genes 27 Torsion [CA]-CB--CG1-[CD1] |==|  0.23136
ROOT
ATOM      1  C   VAL C   3      56.057  28.504  34.518  1.00 15.94 LIG 0.24  C 
ATOM      2 O    VAL C   3      55.205  28.060  35.263  1.00 17.86 LIG-0.27  OA
ATOM      3  N   TYR C   4      56.005  28.299  33.205  1.00 16.41 LIG-0.35  N 
ATOM      4 H    TYR C   4      56.599  28.581  32.651  1.00 16.41 LIG 0.16  HD
ENDROOT
BRANCH 1 5
ATOM      5  CA  VAL C   3      57.250  29.286  35.103  1.00 16.01 LIG 0.18  C 
BRANCH 5 6
ATOM      6  N   VAL C   3      56.720  30.102  36.217  1.00 15.77 LIG-0.35  N 
ATOM      7 H    VAL C   3      56.012  29.793  36.597  1.00 15.77 LIG 0.16  HD
ATOM      8  C   ARG C   2      57.338  31.220  36.557  1.00 16.54 LIG 0.24  C 
ATOM      9 O    ARG C   2      58.422  31.572  36.045  1.00 14.63 LIG-0.27  OA
BRANCH 8 10
ATOM     10  CA  ARG C   2      56.685  32.067  37.632  1.00 19.03 LIG 0.18  C 
BRANCH 10 11
ATOM     11  CB  ARG C   2      57.411  33.414  37.720  1.00 20.38 LIG 0.04  C 
BRANCH 11 12
ATOM     12  CG  ARG C   2      56.940  34.449  36.754  1.00 20.75 LIG 0.02  C 
BRANCH 12 13
ATOM     13  CD  ARG C   2      55.806  35.197  37.299  1.00 22.55 LIG 0.14  C 
BRANCH 13 14
ATOM     14  NE  ARG C   2      55.432  36.311  36.470  1.00 20.36 LIG-0.23  N 
ATOM     15  CZ  ARG C   2      54.419  37.115  36.714  1.00 23.11 LIG 0.67  C 
ATOM     16  NH1 ARG C   2      53.760  37.023  37.815  1.00 23.20 LIG-0.23  N 
ATOM     17  NH2 ARG C   2      54.144  38.098  35.848  1.00 25.55 LIG-0.23  N 
ATOM     18 1HH1 ARG C   2      53.980  36.432  38.400  1.00 23.20 LIG 0.17  HD
ATOM     19 2HH1 ARG C   2      53.100  37.553  37.967  1.00 23.20 LIG 0.17  HD
ATOM     20 2HH2 ARG C   2      53.485  38.630  35.996  1.00 25.55 LIG 0.17  HD
ATOM     21 1HH2 ARG C   2      54.627  38.197  35.142  1.00 25.55 LIG 0.17  HD
ATOM     22 HE   ARG C   2      55.903  36.461  35.767  1.00 20.36 LIG 0.18  HD
ENDBRANCH 13 14
ENDBRANCH 12 13
ENDBRANCH 11 12
ENDBRANCH 10 11
BRANCH 10 23
ATOM     23  N   ARG C   2      56.714  31.381  38.934  1.00 19.42 LIG-0.35  N 
ATOM     24  C   ASP C   1      55.757  30.518  39.247  1.00 19.51 LIG 0.25  C 
ATOM     25 O    ASP C   1      54.959  30.079  38.402  1.00 19.29 LIG-0.27  OA
ATOM     26 H    ARG C   2      57.376  31.586  39.443  1.00 19.42 LIG 0.16  HD
BRANCH 24 27
ATOM     27  CA  ASP C   1      55.634  30.083  40.697  1.00 19.04 LIG 0.28  C 
BRANCH 27 28
ATOM     28  CB  ASP C   1      56.184  28.688  40.842  1.00 21.34 LIG 0.15  C 
BRANCH 28 29
ATOM     29  CG  ASP C   1      57.709  28.688  41.127  1.00 23.67 LIG 0.17  C 
ATOM     30 OD2  ASP C   1      58.080  28.856  42.321  1.00 27.41 LIG-0.65  OA
ATOM     31 OD1  ASP C   1      58.534  28.550  40.165  1.00 20.87 LIG-0.65  OA
ENDBRANCH 28 29
ENDBRANCH 27 28
BRANCH 27 32
ATOM     32  N   ASP C   1      54.169  30.122  41.055  1.00 18.38 LIG-0.07  N 
ATOM     33 H1   ASP C   1      53.697  29.714  40.419  1.00 18.38 LIG 0.28  HD
ATOM     34 H3   ASP C   1      53.903  30.968  41.125  1.00 18.38 LIG 0.28  HD
ATOM     35 H2   ASP C   1      54.041  29.706  41.831  1.00 18.38 LIG 0.28  HD
ENDBRANCH 27 32
ENDBRANCH 24 27
ENDBRANCH 10 23
ENDBRANCH 8 10
ENDBRANCH 5 6
BRANCH 5 36
ATOM     36  CB  VAL C   3      58.281  28.276  35.556  1.00 17.74 LIG 0.01  C 
ATOM     37  CG1 VAL C   3      59.692  28.789  35.361  1.00 20.72 LIG 0.01  C 
ATOM     38  CG2 VAL C   3      58.110  27.938  37.026  1.00 18.64 LIG 0.01  C 
ENDBRANCH 5 36
ENDBRANCH 1 5
BRANCH 3 39
ATOM     39  CA  TYR C   4      54.908  27.562  32.589  1.00 17.90 LIG 0.18  C 
BRANCH 39 40
ATOM     40  CB  TYR C   4      55.164  26.087  32.635  1.00 20.19 LIG 0.07  C 
BRANCH 40 41
ATOM     41  CG  TYR C   4      56.369  25.650  33.424  1.00 23.00 LIG-0.06  A 
ATOM     42  CD2 TYR C   4      56.236  25.236  34.750  1.00 26.62 LIG 0.01  A 
ATOM     43  CE2 TYR C   4      57.328  24.836  35.494  1.00 28.63 LIG 0.04  A 
ATOM     44  CZ  TYR C   4      58.563  24.850  34.920  1.00 25.42 LIG 0.07  A 
ATOM     45  CE1 TYR C   4      58.725  25.203  33.624  1.00 26.89 LIG 0.04  A 
ATOM     46  CD1 TYR C   4      57.616  25.613  32.869  1.00 24.41 LIG 0.01  A 
BRANCH 44 47
ATOM     47 OH   TYR C   4      59.639  24.448  35.656  1.00 32.39 LIG-0.36  OA
ATOM     48 HH   TYR C   4      59.730  24.956  36.320  1.00 32.39 LIG 0.22  HD
ENDBRANCH 44 47
ENDBRANCH 40 41
ENDBRANCH 39 40
BRANCH 39 49
ATOM     49  C   TYR C   4      53.518  27.926  33.186  1.00 20.63 LIG 0.24  C 
ATOM     50 O    TYR C   4      52.897  27.138  33.844  1.00 19.73 LIG-0.27  OA
ATOM     51  N   ILE C   5      53.121  29.181  33.035  1.00 22.91 LIG-0.35  N 
ATOM     52 H    ILE C   5      53.598  29.799  32.674  1.00 22.91 LIG 0.16  HD
BRANCH 51 53
ATOM     53  CA  ILE C   5      51.810  29.614  33.485  1.00 27.58 LIG 0.18  C 
BRANCH 53 54
ATOM     54  C   ILE C   5      51.282  30.700  32.552  1.00 33.14 LIG 0.24  C 
ATOM     55  N   HIS C   6      51.095  30.366  31.268  1.00 39.14 LIG-0.35  N 
ATOM     56 H    HIS C   6      51.315  29.599  30.948  1.00 39.14 LIG 0.16  HD
ATOM     57 O    ILE C   5      51.159  31.838  32.997  1.00 25.88 LIG-0.27  OA
BRANCH 55 58
ATOM     58  CA  HIS C   6      50.482  31.288  30.244  1.00 56.87 LIG 0.17  C 
BRANCH 58 59
ATOM     59  CB  HIS C   6      51.587  31.966  29.382  1.00 66.39 LIG 0.09  C 
BRANCH 59 60
ATOM     60  CG  HIS C   6      52.991  31.722  29.857  1.00 78.50 LIG 0.06  A 
ATOM     61  CD2 HIS C   6      53.877  30.750  29.524  1.00 82.71 LIG 0.14  A 
ATOM     62 NE2  HIS C   6      55.044  31.007  30.205  1.00 84.02 LIG-0.25  NA
ATOM     63  CE1 HIS C   6      54.892  32.112  30.917  1.00 85.20 LIG 0.23  A 
ATOM     64 ND1  HIS C   6      53.665  32.568  30.720  1.00 88.66 LIG-0.24  NA
ENDBRANCH 59 60
ENDBRANCH 58 59
BRANCH 58 65
ATOM     65  C   HIS C   6      49.452  30.685  29.278  1.00 59.18 LIG 0.22  C 
ATOM     66 O    HIS C   6      48.218  30.830  29.486  1.00 63.69 LIG-0.29  OA
ENDBRANCH 58 65
ENDBRANCH 55 58
ENDBRANCH 53 54
BRANCH 53 67
ATOM     67  CB  ILE C   5      51.889  30.091  34.929  1.00 28.54 LIG 0.01  C 
ATOM     68  CG2 ILE C   5      51.431  28.955  35.842  1.00 32.34 LIG 0.01  C 
BRANCH 67 69
ATOM     69  CG1 ILE C   5      53.330  30.569  35.171  1.00 30.21 LIG 0.00  C 
ATOM     70  CD1 ILE C   5      53.650  31.977  34.737  1.00 32.85 LIG 0.01  C 
ENDBRANCH 67 69
ENDBRANCH 53 67
ENDBRANCH 51 53
ENDBRANCH 39 49
ENDBRANCH 3 39
TORSDOF 26
ENDMDL
MODEL 27
USER: ADFR SOLUTION from run 137
USER: SCORE 21.831391 LL:  -5.830 LR: -17.693 RR:   0.000 FEB:  -9.937
USER: RMSD 6.960367
USER: SEED 136
USER: STATUS no improvement in best in 22 clusters for 5 generations
USER: GENES 28
USER: genes 0 Translation |==|  0.42528 0.64783 0.47437
USER: genes 1 Rotation |==|  0.35272 0.28691 0.13077 0.71579
USER: genes 2 Torsion [N]-C--CA-[N] |==|  0.38889
USER: genes 3 Torsion [C]-CA--N-[C] |==|  0.85298
USER: genes 4 Torsion [N]-C--CA-[N] |==|  0.99016
USER: genes 5 Torsion [C]-CA--CB-[CG] |==|  0.31617
USER: genes 6 Torsion [CA]-CB--CG-[CD] |==|  0.68046
USER: genes 7 Torsion [CB]-CG--CD-[NE] |==|  0.87471
USER: genes 8 Torsion [CG]-CD--NE-[CZ] |==|  0.47281
USER: genes 9 Torsion [C]-CA--N-[C] |==|  0.20350
USER: genes 10 Torsion [N]-C--CA-[N] |==|  0.38527
USER: genes 11 Torsion [C]-CA--CB-[CG] |==|  0.49141
USER: genes 12 Torsion [CA]-CB--CG-[OD2] |==|  0.20323
USER: genes 13 Torsion [C]-CA--N-[H1] |==|  0.13443
USER: genes 14 Torsion [C]-CA--CB-[CG1] |==|  0.75075
USER: genes 15 Torsion [C]-N--CA-[CB] |==|  0.22537
USER: genes 16 Torsion [N]-CA--CB-[CG] |==|  0.21367
USER: genes 17 Torsion [CA]-CB--CG-[CD2] |==|  0.90648
USER: genes 18 Torsion [CE2]-CZ--OH-[HH] |==|  0.36790
USER: genes 19 Torsion [N]-CA--C-[N] |==|  0.54071
USER: genes 20 Torsion [C]-N--CA-[C] |==|  0.69723
USER: genes 21 Torsion [N]-CA--C-[N] |==|  0.42621
USER: genes 22 Torsion [C]-N--CA-[CB] |==|  0.61680
USER: genes 23 Torsion [N]-CA--CB-[CG] |==|  0.05259
USER: genes 24 Torsion [CA]-CB--CG-[CD2] |==|  0.30598
USER: genes 25 Torsion [N]-CA--C-[O] |==|  0.36435
USER: genes 26 Torsion [N]-CA--CB-[CG1] |==|  0.69041
USER: genes 27 Torsion [CA]-CB--CG1-[CD1] |==|  0.16891
ROOT
ATOM      1  C   VAL C   3      52.855  33.100  33.688  1.00 15.94 LIG 0.24  C 
ATOM      2 O    VAL C   3      53.769  33.453  32.969  1.00 17.86 LIG-0.27  OA
ATOM      3  N   TYR C   4      52.152  32.002  33.428  1.00 16.41 LIG-0.35  N 
ATOM      4 H    TYR C   4      51.488  31.733  33.903  1.00 16.41 LIG 0.16  HD
ENDROOT
BRANCH 1 5
ATOM      5  CA  VAL C   3      52.469  33.961  34.908  1.00 16.01 LIG 0.18  C 
BRANCH 5 6
ATOM      6  N   VAL C   3      53.732  34.402  35.536  1.00 15.77 LIG-0.35  N 
ATOM      7 H    VAL C   3      53.806  35.250  35.662  1.00 15.77 LIG 0.16  HD
ATOM      8  C   ARG C   2      54.648  33.504  35.858  1.00 16.54 LIG 0.24  C 
ATOM      9 O    ARG C   2      54.452  32.274  35.751  1.00 14.63 LIG-0.27  OA
BRANCH 8 10
ATOM     10  CA  ARG C   2      55.966  34.027  36.396  1.00 19.03 LIG 0.18  C 
BRANCH 10 11
ATOM     11  CB  ARG C   2      56.168  33.505  37.823  1.00 20.38 LIG 0.04  C 
BRANCH 11 12
ATOM     12  CG  ARG C   2      57.307  32.557  37.993  1.00 20.75 LIG 0.02  C 
BRANCH 12 13
ATOM     13  CD  ARG C   2      56.829  31.227  38.375  1.00 22.55 LIG 0.14  C 
BRANCH 13 14
ATOM     14  NE  ARG C   2      55.828  31.277  39.406  1.00 20.36 LIG-0.23  N 
ATOM     15  CZ  ARG C   2      55.107  30.248  39.797  1.00 23.11 LIG 0.67  C 
ATOM     16  NH1 ARG C   2      55.356  29.067  39.350  1.00 23.20 LIG-0.23  N 
ATOM     17  NH2 ARG C   2      54.177  30.425  40.742  1.00 25.55 LIG-0.23  N 
ATOM     18 1HH1 ARG C   2      55.998  28.945  38.791  1.00 23.20 LIG 0.17  HD
ATOM     19 2HH1 ARG C   2      54.881  28.399  39.611  1.00 23.20 LIG 0.17  HD
ATOM     20 2HH2 ARG C   2      53.700  29.760  41.006  1.00 25.55 LIG 0.17  HD
ATOM     21 1HH2 ARG C   2      54.055  31.204  41.086  1.00 25.55 LIG 0.17  HD
ATOM     22 HE   ARG C   2      55.691  32.032  39.794  1.00 20.36 LIG 0.18  HD
ENDBRANCH 13 14
ENDBRANCH 12 13
ENDBRANCH 11 12
ENDBRANCH 10 11
BRANCH 10 23
ATOM     23  N   ARG C   2      55.995  35.499  36.378  1.00 19.42 LIG-0.35  N 
ATOM     24  C   ASP C   1      55.279  36.184  37.258  1.00 19.51 LIG 0.25  C 
ATOM     25 O    ASP C   1      54.763  35.649  38.253  1.00 19.29 LIG-0.27  OA
ATOM     26 H    ARG C   2      56.496  35.849  35.773  1.00 19.42 LIG 0.16  HD
BRANCH 24 27
ATOM     27  CA  ASP C   1      55.074  37.669  37.011  1.00 19.04 LIG 0.28  C 
BRANCH 27 28
ATOM     28  CB  ASP C   1      56.019  38.450  37.886  1.00 21.34 LIG 0.15  C 
BRANCH 28 29
ATOM     29  CG  ASP C   1      55.921  39.977  37.633  1.00 23.67 LIG 0.17  C 
ATOM     30 OD2  ASP C   1      54.898  40.577  38.064  1.00 27.41 LIG-0.65  OA
ATOM     31 OD1  ASP C   1      56.843  40.573  36.986  1.00 20.87 LIG-0.65  OA
ENDBRANCH 28 29
ENDBRANCH 27 28
BRANCH 27 32
ATOM     32  N   ASP C   1      53.639  37.987  37.352  1.00 18.38 LIG-0.07  N 
ATOM     33 H1   ASP C   1      53.438  37.638  38.146  1.00 18.38 LIG 0.28  HD
ATOM     34 H3   ASP C   1      53.103  37.642  36.731  1.00 18.38 LIG 0.28  HD
ATOM     35 H2   ASP C   1      53.529  38.870  37.380  1.00 18.38 LIG 0.28  HD
ENDBRANCH 27 32
ENDBRANCH 24 27
ENDBRANCH 10 23
ENDBRANCH 8 10
ENDBRANCH 5 6
BRANCH 5 36
ATOM     36  CB  VAL C   3      51.630  35.115  34.405  1.00 17.74 LIG 0.01  C 
ATOM     37  CG1 VAL C   3      52.483  36.310  34.037  1.00 20.72 LIG 0.01  C 
ATOM     38  CG2 VAL C   3      50.835  34.718  33.174  1.00 18.64 LIG 0.01  C 
ENDBRANCH 5 36
ENDBRANCH 1 5
BRANCH 3 39
ATOM     39  CA  TYR C   4      52.462  31.148  32.288  1.00 17.90 LIG 0.18  C 
BRANCH 39 40
ATOM     40  CB  TYR C   4      53.601  30.228  32.605  1.00 20.19 LIG 0.07  C 
BRANCH 40 41
ATOM     41  CG  TYR C   4      53.270  29.040  33.469  1.00 23.00 LIG-0.06  A 
ATOM     42  CD2 TYR C   4      52.299  29.138  34.466  1.00 26.62 LIG 0.01  A 
ATOM     43  CE2 TYR C   4      51.984  28.064  35.274  1.00 28.63 LIG 0.04  A 
ATOM     44  CZ  TYR C   4      52.641  26.885  35.096  1.00 25.42 LIG 0.07  A 
ATOM     45  CE1 TYR C   4      53.558  26.740  34.111  1.00 26.89 LIG 0.04  A 
ATOM     46  CD1 TYR C   4      53.880  27.832  33.292  1.00 24.41 LIG 0.01  A 
BRANCH 44 47
ATOM     47 OH   TYR C   4      52.323  25.823  35.892  1.00 32.39 LIG-0.36  OA
ATOM     48 HH   TYR C   4      52.216  25.139  35.416  1.00 32.39 LIG 0.22  HD
ENDBRANCH 44 47
ENDBRANCH 40 41
ENDBRANCH 39 40
BRANCH 39 49
ATOM     49  C   TYR C   4      51.224  30.372  31.752  1.00 20.63 LIG 0.24  C 
ATOM     50 O    TYR C   4      50.108  30.745  31.984  1.00 19.73 LIG-0.27  OA
ATOM     51  N   ILE C   5      51.471  29.365  30.928  1.00 22.91 LIG-0.35  N 
ATOM     52 H    ILE C   5      52.255  29.150  30.647  1.00 22.91 LIG 0.16  HD
BRANCH 51 53
ATOM     53  CA  ILE C   5      50.398  28.524  30.426  1.00 27.58 LIG 0.18  C 
BRANCH 53 54
ATOM     54  C   ILE C   5      50.486  27.143  31.072  1.00 33.14 LIG 0.24  C 
ATOM     55  N   HIS C   6      49.348  26.444  31.176  1.00 39.14 LIG-0.35  N 
ATOM     56 H    HIS C   6      48.581  26.764  30.954  1.00 39.14 LIG 0.16  HD
ATOM     57 O    ILE C   5      51.560  26.794  31.552  1.00 25.88 LIG-0.27  OA
BRANCH 55 58
ATOM     58  CA  HIS C   6      49.279  25.028  31.690  1.00 56.87 LIG 0.17  C 
BRANCH 58 59
ATOM     59  CB  HIS C   6      48.306  24.175  30.825  1.00 66.39 LIG 0.09  C 
BRANCH 59 60
ATOM     60  CG  HIS C   6      48.006  24.747  29.468  1.00 78.50 LIG 0.06  A 
ATOM     61  CD2 HIS C   6      48.372  24.321  28.233  1.00 82.71 LIG 0.14  A 
ATOM     62 NE2  HIS C   6      47.794  25.172  27.319  1.00 84.02 LIG-0.25  NA
ATOM     63  CE1 HIS C   6      47.078  26.078  27.966  1.00 85.20 LIG 0.23  A 
ATOM     64 ND1  HIS C   6      47.183  25.841  29.264  1.00 88.66 LIG-0.24  NA
ENDBRANCH 59 60
ENDBRANCH 58 59
BRANCH 58 65
ATOM     65  C   HIS C   6      50.599  24.251  31.797  1.00 59.18 LIG 0.22  C 
ATOM     66 O    HIS C   6      50.893  23.631  32.854  1.00 63.69 LIG-0.29  OA
ENDBRANCH 58 65
ENDBRANCH 55 58
ENDBRANCH 53 54
BRANCH 53 67
ATOM     67  CB  ILE C   5      50.466  28.449  28.907  1.00 28.54 LIG 0.01  C 
ATOM     68  CG2 ILE C   5      50.551  26.981  28.496  1.00 32.34 LIG 0.01  C 
BRANCH 67 69
ATOM     69  CG1 ILE C   5      49.241  29.200  28.360  1.00 30.21 LIG 0.00  C 
ATOM     70  CD1 ILE C   5      49.137  30.662  28.716  1.00 32.85 LIG 0.01  C 
ENDBRANCH 67 69
ENDBRANCH 53 67
ENDBRANCH 51 53
ENDBRANCH 39 49
ENDBRANCH 3 39
TORSDOF 26
ENDMDL
MODEL 28
USER: ADFR SOLUTION from run 31
USER: SCORE 21.254724 LL:  -5.990 LR: -17.640 RR:   0.000 FEB:  -9.884
USER: RMSD 9.049078
USER: SEED 30
USER: STATUS no improvement in best in 9 clusters for 5 generations
USER: GENES 28
USER: genes 0 Translation |==|  0.54258 0.60036 0.54851
USER: genes 1 Rotation |==|  0.66347 0.11361 0.31245 0.69699
USER: genes 2 Torsion [N]-C--CA-[N] |==|  0.51825
USER: genes 3 Torsion [C]-CA--N-[C] |==|  0.20499
USER: genes 4 Torsion [N]-C--CA-[N] |==|  0.66971
USER: genes 5 Torsion [C]-CA--CB-[CG] |==|  0.27454
USER: genes 6 Torsion [CA]-CB--CG-[CD] |==|  0.89446
USER: genes 7 Torsion [CB]-CG--CD-[NE] |==|  0.41167
USER: genes 8 Torsion [CG]-CD--NE-[CZ] |==|  0.23198
USER: genes 9 Torsion [C]-CA--N-[C] |==|  0.15164
USER: genes 10 Torsion [N]-C--CA-[N] |==|  0.10685
USER: genes 11 Torsion [C]-CA--CB-[CG] |==|  0.51288
USER: genes 12 Torsion [CA]-CB--CG-[OD2] |==|  0.89407
USER: genes 13 Torsion [C]-CA--N-[H1] |==|  0.14243
USER: genes 14 Torsion [C]-CA--CB-[CG1] |==|  0.21051
USER: genes 15 Torsion [C]-N--CA-[CB] |==|  0.21245
USER: genes 16 Torsion [N]-CA--CB-[CG] |==|  0.16379
USER: genes 17 Torsion [CA]-CB--CG-[CD2] |==|  0.25924
USER: genes 18 Torsion [CE2]-CZ--OH-[HH] |==|  0.42054
USER: genes 19 Torsion [N]-CA--C-[N] |==|  0.86566
USER: genes 20 Torsion [C]-N--CA-[C] |==|  0.73385
USER: genes 21 Torsion [N]-CA--C-[N] |==|  0.29631
USER: genes 22 Torsion [C]-N--CA-[CB] |==|  0.78229
USER: genes 23 Torsion [N]-CA--CB-[CG] |==|  0.91697
USER: genes 24 Torsion [CA]-CB--CG-[CD2] |==|  0.25226
USER: genes 25 Torsion [N]-CA--C-[O] |==|  0.05295
USER: genes 26 Torsion [N]-CA--CB-[CG1] |==|  0.11809
USER: genes 27 Torsion [CA]-CB--CG1-[CD1] |==|  0.41279
ROOT
ATOM      1  C   VAL C   3      54.878  31.889  35.634  1.00 15.94 LIG 0.24  C 
ATOM      2 O    VAL C   3      55.287  33.033  35.583  1.00 17.86 LIG-0.27  OA
ATOM      3  N   TYR C   4      55.687  30.877  35.931  1.00 16.41 LIG-0.35  N 
ATOM      4 H    TYR C   4      55.437  30.054  35.957  1.00 16.41 LIG 0.16  HD
ENDROOT
BRANCH 1 5
ATOM      5  CA  VAL C   3      53.401  31.593  35.308  1.00 16.01 LIG 0.18  C 
BRANCH 5 6
ATOM      6  N   VAL C   3      52.797  32.868  34.867  1.00 15.77 LIG-0.35  N 
ATOM      7 H    VAL C   3      52.269  33.242  35.433  1.00 15.77 LIG 0.16  HD
ATOM      8  C   ARG C   2      53.090  33.347  33.669  1.00 16.54 LIG 0.24  C 
ATOM      9 O    ARG C   2      53.944  32.821  32.925  1.00 14.63 LIG-0.27  OA
BRANCH 8 10
ATOM     10  CA  ARG C   2      52.356  34.600  33.231  1.00 19.03 LIG 0.18  C 
BRANCH 10 11
ATOM     11  CB  ARG C   2      51.452  35.077  34.373  1.00 20.38 LIG 0.04  C 
BRANCH 11 12
ATOM     12  CG  ARG C   2      52.013  36.184  35.202  1.00 20.75 LIG 0.02  C 
BRANCH 12 13
ATOM     13  CD  ARG C   2      53.453  36.011  35.401  1.00 22.55 LIG 0.14  C 
BRANCH 13 14
ATOM     14  NE  ARG C   2      54.148  37.265  35.508  1.00 20.36 LIG-0.23  N 
ATOM     15  CZ  ARG C   2      54.254  37.967  36.617  1.00 23.11 LIG 0.67  C 
ATOM     16  NH1 ARG C   2      53.835  37.490  37.736  1.00 23.20 LIG-0.23  N 
ATOM     17  NH2 ARG C   2      54.895  39.141  36.586  1.00 25.55 LIG-0.23  N 
ATOM     18 1HH1 ARG C   2      53.481  36.706  37.764  1.00 23.20 LIG 0.17  HD
ATOM     19 2HH1 ARG C   2      53.908  37.955  38.456  1.00 23.20 LIG 0.17  HD
ATOM     20 2HH2 ARG C   2      54.971  39.609  37.303  1.00 25.55 LIG 0.17  HD
ATOM     21 1HH2 ARG C   2      55.231  39.429  35.848  1.00 25.55 LIG 0.17  HD
ATOM     22 HE   ARG C   2      54.520  37.578  34.799  1.00 20.36 LIG 0.18  HD
ENDBRANCH 13 14
ENDBRANCH 12 13
ENDBRANCH 11 12
ENDBRANCH 10 11
BRANCH 10 23
ATOM     23  N   ARG C   2      51.561  34.348  32.018  1.00 19.42 LIG-0.35  N 
ATOM     24  C   ASP C   1      50.680  33.357  32.000  1.00 19.51 LIG 0.25  C 
ATOM     25 O    ASP C   1      50.318  32.773  33.035  1.00 19.29 LIG-0.27  OA
ATOM     26 H    ARG C   2      51.718  34.878  31.359  1.00 19.42 LIG 0.16  HD
BRANCH 24 27
ATOM     27  CA  ASP C   1      50.123  32.921  30.656  1.00 19.04 LIG 0.28  C 
BRANCH 27 28
ATOM     28  CB  ASP C   1      49.589  31.517  30.775  1.00 21.34 LIG 0.15  C 
BRANCH 28 29
ATOM     29  CG  ASP C   1      49.107  30.958  29.412  1.00 23.67 LIG 0.17  C 
ATOM     30 OD2  ASP C   1      48.519  31.753  28.629  1.00 27.41 LIG-0.65  OA
ATOM     31 OD1  ASP C   1      49.287  29.728  29.130  1.00 20.87 LIG-0.65  OA
ENDBRANCH 28 29
ENDBRANCH 27 28
BRANCH 27 32
ATOM     32  N   ASP C   1      51.255  32.981  29.660  1.00 18.38 LIG-0.07  N 
ATOM     33 H1   ASP C   1      51.956  32.537  29.981  1.00 18.38 LIG 0.28  HD
ATOM     34 H3   ASP C   1      51.481  33.830  29.519  1.00 18.38 LIG 0.28  HD
ATOM     35 H2   ASP C   1      50.996  32.613  28.893  1.00 18.38 LIG 0.28  HD
ENDBRANCH 27 32
ENDBRANCH 24 27
ENDBRANCH 10 23
ENDBRANCH 8 10
ENDBRANCH 5 6
BRANCH 5 36
ATOM     36  CB  VAL C   3      53.375  30.529  34.233  1.00 17.74 LIG 0.01  C 
ATOM     37  CG1 VAL C   3      53.694  29.158  34.793  1.00 20.72 LIG 0.01  C 
ATOM     38  CG2 VAL C   3      52.012  30.452  33.570  1.00 18.64 LIG 0.01  C 
ENDBRANCH 5 36
ENDBRANCH 1 5
BRANCH 3 39
ATOM     39  CA  TYR C   4      57.095  31.089  36.243  1.00 17.90 LIG 0.18  C 
BRANCH 39 40
ATOM     40  CB  TYR C   4      57.258  31.625  37.632  1.00 20.19 LIG 0.07  C 
BRANCH 40 41
ATOM     41  CG  TYR C   4      56.711  30.767  38.741  1.00 23.00 LIG-0.06  A 
ATOM     42  CD2 TYR C   4      57.532  29.852  39.401  1.00 26.62 LIG 0.01  A 
ATOM     43  CE2 TYR C   4      57.050  29.051  40.417  1.00 28.63 LIG 0.04  A 
ATOM     44  CZ  TYR C   4      55.742  29.154  40.778  1.00 25.42 LIG 0.07  A 
ATOM     45  CE1 TYR C   4      54.925  30.060  40.191  1.00 26.89 LIG 0.04  A 
ATOM     46  CD1 TYR C   4      55.414  30.872  39.157  1.00 24.41 LIG 0.01  A 
BRANCH 44 47
ATOM     47 OH   TYR C   4      55.269  28.365  41.787  1.00 32.39 LIG-0.36  OA
ATOM     48 HH   TYR C   4      54.632  28.755  42.172  1.00 32.39 LIG 0.22  HD
ENDBRANCH 44 47
ENDBRANCH 40 41
ENDBRANCH 39 40
BRANCH 39 49
ATOM     49  C   TYR C   4      57.970  29.824  36.006  1.00 20.63 LIG 0.24  C 
ATOM     50 O    TYR C   4      59.050  29.903  35.489  1.00 19.73 LIG-0.27  OA
ATOM     51  N   ILE C   5      57.517  28.689  36.516  1.00 22.91 LIG-0.35  N 
ATOM     52 H    ILE C   5      56.806  28.624  36.996  1.00 22.91 LIG 0.16  HD
BRANCH 51 53
ATOM     53  CA  ILE C   5      58.212  27.434  36.292  1.00 27.58 LIG 0.18  C 
BRANCH 53 54
ATOM     54  C   ILE C   5      57.578  26.702  35.111  1.00 33.14 LIG 0.24  C 
ATOM     55  N   HIS C   6      58.269  26.680  33.964  1.00 39.14 LIG-0.35  N 
ATOM     56 H    HIS C   6      59.008  27.106  33.855  1.00 39.14 LIG 0.16  HD
ATOM     57 O    ILE C   5      56.437  26.269  35.242  1.00 25.88 LIG-0.27  OA
BRANCH 55 58
ATOM     58  CA  HIS C   6      57.835  25.913  32.740  1.00 56.87 LIG 0.17  C 
BRANCH 58 59
ATOM     59  CB  HIS C   6      58.162  24.399  32.894  1.00 66.39 LIG 0.09  C 
BRANCH 59 60
ATOM     60  CG  HIS C   6      59.363  24.100  33.746  1.00 78.50 LIG 0.06  A 
ATOM     61  CD2 HIS C   6      59.461  23.864  35.078  1.00 82.71 LIG 0.14  A 
ATOM     62 NE2  HIS C   6      60.782  23.594  35.351  1.00 84.02 LIG-0.25  NA
ATOM     63  CE1 HIS C   6      61.472  23.638  34.223  1.00 85.20 LIG 0.23  A 
ATOM     64 ND1  HIS C   6      60.640  23.935  33.237  1.00 88.66 LIG-0.24  NA
ENDBRANCH 59 60
ENDBRANCH 58 59
BRANCH 58 65
ATOM     65  C   HIS C   6      56.362  26.024  32.323  1.00 59.18 LIG 0.22  C 
ATOM     66 O    HIS C   6      55.648  26.976  32.739  1.00 63.69 LIG-0.29  OA
ENDBRANCH 58 65
ENDBRANCH 55 58
ENDBRANCH 53 54
BRANCH 53 67
ATOM     67  CB  ILE C   5      58.189  26.595  37.562  1.00 28.54 LIG 0.01  C 
ATOM     68  CG2 ILE C   5      59.306  27.078  38.485  1.00 32.34 LIG 0.01  C 
BRANCH 67 69
ATOM     69  CG1 ILE C   5      56.774  26.705  38.153  1.00 30.21 LIG 0.00  C 
ATOM     70  CD1 ILE C   5      56.266  25.501  38.906  1.00 32.85 LIG 0.01  C 
ENDBRANCH 67 69
ENDBRANCH 53 67
ENDBRANCH 51 53
ENDBRANCH 39 49
ENDBRANCH 3 39
TORSDOF 26
ENDMDL
MODEL 29
USER: ADFR SOLUTION from run 47
USER: SCORE 22.315007 LL:  -6.330 LR: -17.610 RR:   0.000 FEB:  -9.855
USER: RMSD 5.653170
USER: SEED 46
USER: STATUS no improvement in best in 3 clusters for 5 generations
USER: GENES 28
USER: genes 0 Translation |==|  0.64473 0.48379 0.49700
USER: genes 1 Rotation |==|  0.22776 0.54507 0.08408 0.52946
USER: genes 2 Torsion [N]-C--CA-[N] |==|  0.92223
USER: genes 3 Torsion [C]-CA--N-[C] |==|  0.75355
USER: genes 4 Torsion [N]-C--CA-[N] |==|  0.15193
USER: genes 5 Torsion [C]-CA--CB-[CG] |==|  0.26827
USER: genes 6 Torsion [CA]-CB--CG-[CD] |==|  0.24294
USER: genes 7 Torsion [CB]-CG--CD-[NE] |==|  0.45940
USER: genes 8 Torsion [CG]-CD--NE-[CZ] |==|  0.47279
USER: genes 9 Torsion [C]-CA--N-[C] |==|  0.75577
USER: genes 10 Torsion [N]-C--CA-[N] |==|  0.42157
USER: genes 11 Torsion [C]-CA--CB-[CG] |==|  0.78563
USER: genes 12 Torsion [CA]-CB--CG-[OD2] |==|  0.78965
USER: genes 13 Torsion [C]-CA--N-[H1] |==|  0.69932
USER: genes 14 Torsion [C]-CA--CB-[CG1] |==|  0.44233
USER: genes 15 Torsion [C]-N--CA-[CB] |==|  0.19510
USER: genes 16 Torsion [N]-CA--CB-[CG] |==|  0.08041
USER: genes 17 Torsion [CA]-CB--CG-[CD2] |==|  0.19958
USER: genes 18 Torsion [CE2]-CZ--OH-[HH] |==|  0.76868
USER: genes 19 Torsion [N]-CA--C-[N] |==|  0.26111
USER: genes 20 Torsion [C]-N--CA-[C] |==|  0.79719
USER: genes 21 Torsion [N]-CA--C-[N] |==|  0.89817
USER: genes 22 Torsion [C]-N--CA-[CB] |==|  0.30782
USER: genes 23 Torsion [N]-CA--CB-[CG] |==|  0.50979
USER: genes 24 Torsion [CA]-CB--CG-[CD2] |==|  0.19923
USER: genes 25 Torsion [N]-CA--C-[O] |==|  0.17615
USER: genes 26 Torsion [N]-CA--CB-[CG1] |==|  0.71200
USER: genes 27 Torsion [CA]-CB--CG1-[CD1] |==|  0.64346
ROOT
ATOM      1  C   VAL C   3      56.641  28.917  34.282  1.00 15.94 LIG 0.24  C 
ATOM      2 O    VAL C   3      57.129  28.696  33.191  1.00 17.86 LIG-0.27  OA
ATOM      3  N   TYR C   4      55.384  29.331  34.408  1.00 16.41 LIG-0.35  N 
ATOM      4 H    TYR C   4      55.012  29.515  35.161  1.00 16.41 LIG 0.16  HD
ENDROOT
BRANCH 1 5
ATOM      5  CA  VAL C   3      57.503  28.754  35.550  1.00 16.01 LIG 0.18  C 
BRANCH 5 6
ATOM      6  N   VAL C   3      56.980  29.712  36.547  1.00 15.77 LIG-0.35  N 
ATOM      7 H    VAL C   3      56.372  29.405  37.072  1.00 15.77 LIG 0.16  HD
ATOM      8  C   ARG C   2      57.458  30.945  36.579  1.00 16.54 LIG 0.24  C 
ATOM      9 O    ARG C   2      58.416  31.314  35.866  1.00 14.63 LIG-0.27  OA
BRANCH 8 10
ATOM     10  CA  ARG C   2      56.806  31.911  37.549  1.00 19.03 LIG 0.18  C 
BRANCH 10 11
ATOM     11  CB  ARG C   2      57.548  33.251  37.498  1.00 20.38 LIG 0.04  C 
BRANCH 11 12
ATOM     12  CG  ARG C   2      56.932  34.281  36.611  1.00 20.75 LIG 0.02  C 
BRANCH 12 13
ATOM     13  CD  ARG C   2      55.923  35.058  37.332  1.00 22.55 LIG 0.14  C 
BRANCH 13 14
ATOM     14  NE  ARG C   2      55.551  36.258  36.634  1.00 20.36 LIG-0.23  N 
ATOM     15  CZ  ARG C   2      54.541  37.033  36.969  1.00 23.11 LIG 0.67  C 
ATOM     16  NH1 ARG C   2      53.884  36.820  38.055  1.00 23.20 LIG-0.23  N 
ATOM     17  NH2 ARG C   2      54.267  38.107  36.219  1.00 25.55 LIG-0.23  N 
ATOM     18 1HH1 ARG C   2      54.103  36.167  38.569  1.00 23.20 LIG 0.17  HD
ATOM     19 2HH1 ARG C   2      53.226  37.331  38.267  1.00 23.20 LIG 0.17  HD
ATOM     20 2HH2 ARG C   2      53.610  38.622  36.428  1.00 25.55 LIG 0.17  HD
ATOM     21 1HH2 ARG C   2      54.748  38.284  35.528  1.00 25.55 LIG 0.17  HD
ATOM     22 HE   ARG C   2      56.020  36.485  35.951  1.00 20.36 LIG 0.18  HD
ENDBRANCH 13 14
ENDBRANCH 12 13
ENDBRANCH 11 12
ENDBRANCH 10 11
BRANCH 10 23
ATOM     23  N   ARG C   2      56.814  31.370  38.918  1.00 19.42 LIG-0.35  N 
ATOM     24  C   ASP C   1      55.818  30.596  39.327  1.00 19.51 LIG 0.25  C 
ATOM     25 O    ASP C   1      54.990  30.110  38.540  1.00 19.29 LIG-0.27  OA
ATOM     26 H    ARG C   2      57.491  31.594  39.398  1.00 19.42 LIG 0.16  HD
BRANCH 24 27
ATOM     27  CA  ASP C   1      55.689  30.328  40.817  1.00 19.04 LIG 0.28  C 
BRANCH 27 28
ATOM     28  CB  ASP C   1      56.520  29.123  41.175  1.00 21.34 LIG 0.15  C 
BRANCH 28 29
ATOM     29  CG  ASP C   1      55.832  27.796  40.764  1.00 23.67 LIG 0.17  C 
ATOM     30 OD2  ASP C   1      54.872  27.390  41.476  1.00 27.41 LIG-0.65  OA
ATOM     31 OD1  ASP C   1      56.259  27.145  39.756  1.00 20.87 LIG-0.65  OA
ENDBRANCH 28 29
ENDBRANCH 27 28
BRANCH 27 32
ATOM     32  N   ASP C   1      54.229  30.077  41.103  1.00 18.38 LIG-0.07  N 
ATOM     33 H1   ASP C   1      53.890  30.772  41.545  1.00 18.38 LIG 0.28  HD
ATOM     34 H3   ASP C   1      54.146  29.342  41.597  1.00 18.38 LIG 0.28  HD
ATOM     35 H2   ASP C   1      53.790  29.970  40.337  1.00 18.38 LIG 0.28  HD
ENDBRANCH 27 32
ENDBRANCH 24 27
ENDBRANCH 10 23
ENDBRANCH 8 10
ENDBRANCH 5 6
BRANCH 5 36
ATOM     36  CB  VAL C   3      57.384  27.315  36.002  1.00 17.74 LIG 0.01  C 
ATOM     37  CG1 VAL C   3      58.537  26.911  36.897  1.00 20.72 LIG 0.01  C 
ATOM     38  CG2 VAL C   3      56.098  27.087  36.774  1.00 18.64 LIG 0.01  C 
ENDBRANCH 5 36
ENDBRANCH 1 5
BRANCH 3 39
ATOM     39  CA  TYR C   4      54.518  29.511  33.249  1.00 17.90 LIG 0.18  C 
BRANCH 39 40
ATOM     40  CB  TYR C   4      54.152  28.189  32.648  1.00 20.19 LIG 0.07  C 
BRANCH 40 41
ATOM     41  CG  TYR C   4      54.106  27.021  33.596  1.00 23.00 LIG-0.06  A 
ATOM     42  CD2 TYR C   4      53.077  26.908  34.533  1.00 26.62 LIG 0.01  A 
ATOM     43  CE2 TYR C   4      53.019  25.849  35.416  1.00 28.63 LIG 0.04  A 
ATOM     44  CZ  TYR C   4      53.990  24.896  35.374  1.00 25.42 LIG 0.07  A 
ATOM     45  CE1 TYR C   4      54.978  24.948  34.451  1.00 26.89 LIG 0.04  A 
ATOM     46  CD1 TYR C   4      55.040  26.026  33.556  1.00 24.41 LIG 0.01  A 
BRANCH 44 47
ATOM     47 OH   TYR C   4      53.926  23.846  36.244  1.00 32.39 LIG-0.36  OA
ATOM     48 HH   TYR C   4      54.258  24.073  36.981  1.00 32.39 LIG 0.22  HD
ENDBRANCH 44 47
ENDBRANCH 40 41
ENDBRANCH 39 40
BRANCH 39 49
ATOM     49  C   TYR C   4      53.261  30.375  33.555  1.00 20.63 LIG 0.24  C 
ATOM     50 O    TYR C   4      52.302  29.907  34.102  1.00 19.73 LIG-0.27  OA
ATOM     51  N   ILE C   5      53.358  31.671  33.295  1.00 22.91 LIG-0.35  N 
ATOM     52 H    ILE C   5      54.075  32.055  33.016  1.00 22.91 LIG 0.16  HD
BRANCH 51 53
ATOM     53  CA  ILE C   5      52.224  32.559  33.471  1.00 27.58 LIG 0.18  C 
BRANCH 53 54
ATOM     54  C   ILE C   5      51.207  32.316  32.358  1.00 33.14 LIG 0.24  C 
ATOM     55  N   HIS C   6      51.689  32.034  31.140  1.00 39.14 LIG-0.35  N 
ATOM     56 H    HIS C   6      52.529  32.047  30.956  1.00 39.14 LIG 0.16  HD
ATOM     57 O    ILE C   5      50.018  32.494  32.609  1.00 25.88 LIG-0.27  OA
BRANCH 55 58
ATOM     58  CA  HIS C   6      50.823  31.666  29.962  1.00 56.87 LIG 0.17  C 
BRANCH 58 59
ATOM     59  CB  HIS C   6      50.834  32.798  28.894  1.00 66.39 LIG 0.09  C 
BRANCH 59 60
ATOM     60  CG  HIS C   6      49.932  32.559  27.716  1.00 78.50 LIG 0.06  A 
ATOM     61  CD2 HIS C   6      48.579  32.586  27.624  1.00 82.71 LIG 0.14  A 
ATOM     62 NE2  HIS C   6      48.253  32.347  26.308  1.00 84.02 LIG-0.25  NA
ATOM     63  CE1 HIS C   6      49.366  32.200  25.609  1.00 85.20 LIG 0.23  A 
ATOM     64 ND1  HIS C   6      50.395  32.330  26.432  1.00 88.66 LIG-0.24  NA
ENDBRANCH 59 60
ENDBRANCH 58 59
BRANCH 58 65
ATOM     65  C   HIS C   6      51.139  30.350  29.238  1.00 59.18 LIG 0.22  C 
ATOM     66 O    HIS C   6      51.030  29.247  29.837  1.00 63.69 LIG-0.29  OA
ENDBRANCH 58 65
ENDBRANCH 55 58
ENDBRANCH 53 54
BRANCH 53 67
ATOM     67  CB  ILE C   5      52.699  34.006  33.503  1.00 28.54 LIG 0.01  C 
ATOM     68  CG2 ILE C   5      51.822  34.827  32.561  1.00 32.34 LIG 0.01  C 
BRANCH 67 69
ATOM     69  CG1 ILE C   5      52.666  34.461  34.972  1.00 30.21 LIG 0.00  C 
ATOM     70  CD1 ILE C   5      51.932  35.747  35.259  1.00 32.85 LIG 0.01  C 
ENDBRANCH 67 69
ENDBRANCH 53 67
ENDBRANCH 51 53
ENDBRANCH 39 49
ENDBRANCH 3 39
TORSDOF 26
ENDMDL
MODEL 30
USER: ADFR SOLUTION from run 127
USER: SCORE 22.227329 LL:  -5.634 LR: -17.605 RR:   0.000 FEB:  -9.849
USER: RMSD 9.573157
USER: SEED 126
USER: STATUS no improvement in best in 3 clusters for 5 generations
USER: GENES 28
USER: genes 0 Translation |==|  0.58765 0.49155 0.55108
USER: genes 1 Rotation |==|  0.51090 0.03287 0.41793 0.65789
USER: genes 2 Torsion [N]-C--CA-[N] |==|  0.43507
USER: genes 3 Torsion [C]-CA--N-[C] |==|  0.57857
USER: genes 4 Torsion [N]-C--CA-[N] |==|  0.13020
USER: genes 5 Torsion [C]-CA--CB-[CG] |==|  0.47394
USER: genes 6 Torsion [CA]-CB--CG-[CD] |==|  0.90317
USER: genes 7 Torsion [CB]-CG--CD-[NE] |==|  0.58807
USER: genes 8 Torsion [CG]-CD--NE-[CZ] |==|  0.53423
USER: genes 9 Torsion [C]-CA--N-[C] |==|  0.15537
USER: genes 10 Torsion [N]-C--CA-[N] |==|  0.92662
USER: genes 11 Torsion [C]-CA--CB-[CG] |==|  0.48195
USER: genes 12 Torsion [CA]-CB--CG-[OD2] |==|  0.92253
USER: genes 13 Torsion [C]-CA--N-[H1] |==|  0.30757
USER: genes 14 Torsion [C]-CA--CB-[CG1] |==|  0.00315
USER: genes 15 Torsion [C]-N--CA-[CB] |==|  0.19583
USER: genes 16 Torsion [N]-CA--CB-[CG] |==|  0.23610
USER: genes 17 Torsion [CA]-CB--CG-[CD2] |==|  0.76920
USER: genes 18 Torsion [CE2]-CZ--OH-[HH] |==|  0.10213
USER: genes 19 Torsion [N]-CA--C-[N] |==|  0.88101
USER: genes 20 Torsion [C]-N--CA-[C] |==|  0.81923
USER: genes 21 Torsion [N]-CA--C-[N] |==|  0.35605
USER: genes 22 Torsion [C]-N--CA-[CB] |==|  0.19099
USER: genes 23 Torsion [N]-CA--CB-[CG] |==|  0.18343
USER: genes 24 Torsion [CA]-CB--CG-[CD2] |==|  0.74332
USER: genes 25 Torsion [N]-CA--C-[O] |==|  0.40878
USER: genes 26 Torsion [N]-CA--CB-[CG1] |==|  0.74594
USER: genes 27 Torsion [CA]-CB--CG1-[CD1] |==|  0.45143
ROOT
ATOM      1  C   VAL C   3      55.656  29.114  35.702  1.00 15.94 LIG 0.24  C 
ATOM      2 O    VAL C   3      56.563  29.714  35.158  1.00 17.86 LIG-0.27  OA
ATOM      3  N   TYR C   4      55.881  28.296  36.724  1.00 16.41 LIG-0.35  N 
ATOM      4 H    TYR C   4      55.268  27.842  37.120  1.00 16.41 LIG 0.16  HD
ENDROOT
BRANCH 1 5
ATOM      5  CA  VAL C   3      54.215  29.270  35.174  1.00 16.01 LIG 0.18  C 
BRANCH 5 6
ATOM      6  N   VAL C   3      54.150  30.579  34.490  1.00 15.77 LIG-0.35  N 
ATOM      7 H    VAL C   3      54.891  30.856  34.152  1.00 15.77 LIG 0.16  HD
ATOM      8  C   ARG C   2      53.000  31.230  34.437  1.00 16.54 LIG 0.24  C 
ATOM      9 O    ARG C   2      51.929  30.737  34.850  1.00 14.63 LIG-0.27  OA
BRANCH 8 10
ATOM     10  CA  ARG C   2      53.021  32.614  33.819  1.00 19.03 LIG 0.18  C 
BRANCH 10 11
ATOM     11  CB  ARG C   2      51.581  33.085  33.592  1.00 20.38 LIG 0.04  C 
BRANCH 11 12
ATOM     12  CG  ARG C   2      51.439  34.515  33.194  1.00 20.75 LIG 0.02  C 
BRANCH 12 13
ATOM     13  CD  ARG C   2      52.452  35.345  33.850  1.00 22.55 LIG 0.14  C 
BRANCH 13 14
ATOM     14  NE  ARG C   2      51.984  36.678  34.115  1.00 20.36 LIG-0.23  N 
ATOM     15  CZ  ARG C   2      52.755  37.681  34.479  1.00 23.11 LIG 0.67  C 
ATOM     16  NH1 ARG C   2      54.035  37.550  34.494  1.00 23.20 LIG-0.23  N 
ATOM     17  NH2 ARG C   2      52.199  38.871  34.736  1.00 25.55 LIG-0.23  N 
ATOM     18 1HH1 ARG C   2      54.394  36.803  34.266  1.00 23.20 LIG 0.17  HD
ATOM     19 2HH1 ARG C   2      54.532  38.211  34.733  1.00 23.20 LIG 0.17  HD
ATOM     20 2HH2 ARG C   2      52.692  39.534  34.974  1.00 25.55 LIG 0.17  HD
ATOM     21 1HH2 ARG C   2      51.348  38.972  34.663  1.00 25.55 LIG 0.17  HD
ATOM     22 HE   ARG C   2      51.142  36.830  34.031  1.00 20.36 LIG 0.18  HD
ENDBRANCH 13 14
ENDBRANCH 12 13
ENDBRANCH 11 12
ENDBRANCH 10 11
BRANCH 10 23
ATOM     23  N   ARG C   2      53.769  32.615  32.551  1.00 19.42 LIG-0.35  N 
ATOM     24  C   ASP C   1      53.417  31.786  31.577  1.00 19.51 LIG 0.25  C 
ATOM     25 O    ASP C   1      52.339  31.169  31.590  1.00 19.29 LIG-0.27  OA
ATOM     26 H    ARG C   2      54.420  33.175  32.508  1.00 19.42 LIG 0.16  HD
BRANCH 24 27
ATOM     27  CA  ASP C   1      54.389  31.580  30.429  1.00 19.04 LIG 0.28  C 
BRANCH 27 28
ATOM     28  CB  ASP C   1      55.246  30.374  30.718  1.00 21.34 LIG 0.15  C 
BRANCH 28 29
ATOM     29  CG  ASP C   1      56.155  30.003  29.519  1.00 23.67 LIG 0.17  C 
ATOM     30 OD2  ASP C   1      55.752  30.308  28.363  1.00 27.41 LIG-0.65  OA
ATOM     31 OD1  ASP C   1      57.252  29.386  29.720  1.00 20.87 LIG-0.65  OA
ENDBRANCH 28 29
ENDBRANCH 27 28
BRANCH 27 32
ATOM     32  N   ASP C   1      55.234  32.825  30.327  1.00 18.38 LIG-0.07  N 
ATOM     33 H1   ASP C   1      56.069  32.639  30.575  1.00 18.38 LIG 0.28  HD
ATOM     34 H3   ASP C   1      54.900  33.456  30.858  1.00 18.38 LIG 0.28  HD
ATOM     35 H2   ASP C   1      55.234  33.117  29.486  1.00 18.38 LIG 0.28  HD
ENDBRANCH 27 32
ENDBRANCH 24 27
ENDBRANCH 10 23
ENDBRANCH 8 10
ENDBRANCH 5 6
BRANCH 5 36
ATOM     36  CB  VAL C   3      53.942  28.108  34.244  1.00 17.74 LIG 0.01  C 
ATOM     37  CG1 VAL C   3      55.129  27.172  34.153  1.00 20.72 LIG 0.01  C 
ATOM     38  CG2 VAL C   3      52.749  27.297  34.717  1.00 18.64 LIG 0.01  C 
ENDBRANCH 5 36
ENDBRANCH 1 5
BRANCH 3 39
ATOM     39  CA  TYR C   4      57.220  28.100  37.267  1.00 17.90 LIG 0.18  C 
BRANCH 39 40
ATOM     40  CB  TYR C   4      57.686  29.325  37.992  1.00 20.19 LIG 0.07  C 
BRANCH 40 41
ATOM     41  CG  TYR C   4      57.257  29.446  39.430  1.00 23.00 LIG-0.06  A 
ATOM     42  CD2 TYR C   4      55.999  29.955  39.754  1.00 26.62 LIG 0.01  A 
ATOM     43  CE2 TYR C   4      55.587  30.080  41.065  1.00 28.63 LIG 0.04  A 
ATOM     44  CZ  TYR C   4      56.431  29.702  42.064  1.00 25.42 LIG 0.07  A 
ATOM     45  CE1 TYR C   4      57.642  29.164  41.788  1.00 26.89 LIG 0.04  A 
ATOM     46  CD1 TYR C   4      58.062  29.040  40.455  1.00 24.41 LIG 0.01  A 
BRANCH 44 47
ATOM     47 OH   TYR C   4      56.019  29.821  43.360  1.00 32.39 LIG-0.36  OA
ATOM     48 HH   TYR C   4      55.201  29.638  43.411  1.00 32.39 LIG 0.22  HD
ENDBRANCH 44 47
ENDBRANCH 40 41
ENDBRANCH 39 40
BRANCH 39 49
ATOM     49  C   TYR C   4      57.340  26.825  38.150  1.00 20.63 LIG 0.24  C 
ATOM     50 O    TYR C   4      58.336  26.155  38.144  1.00 19.73 LIG-0.27  OA
ATOM     51  N   ILE C   5      56.346  26.597  38.995  1.00 22.91 LIG-0.35  N 
ATOM     52 H    ILE C   5      55.677  27.126  39.109  1.00 22.91 LIG 0.16  HD
BRANCH 51 53
ATOM     53  CA  ILE C   5      56.316  25.398  39.815  1.00 27.58 LIG 0.18  C 
BRANCH 53 54
ATOM     54  C   ILE C   5      56.175  24.170  38.919  1.00 33.14 LIG 0.24  C 
ATOM     55  N   HIS C   6      57.060  23.180  39.096  1.00 39.14 LIG-0.35  N 
ATOM     56 H    HIS C   6      57.724  23.238  39.640  1.00 39.14 LIG 0.16  HD
ATOM     57 O    ILE C   5      55.337  24.198  38.022  1.00 25.88 LIG-0.27  OA
BRANCH 55 58
ATOM     58  CA  HIS C   6      56.996  21.860  38.370  1.00 56.87 LIG 0.17  C 
BRANCH 58 59
ATOM     59  CB  HIS C   6      57.309  22.048  36.856  1.00 66.39 LIG 0.09  C 
BRANCH 59 60
ATOM     60  CG  HIS C   6      58.715  22.484  36.556  1.00 78.50 LIG 0.06  A 
ATOM     61  CD2 HIS C   6      59.237  23.726  36.400  1.00 82.71 LIG 0.14  A 
ATOM     62 NE2  HIS C   6      60.589  23.579  36.186  1.00 84.02 LIG-0.25  NA
ATOM     63  CE1 HIS C   6      60.894  22.293  36.231  1.00 85.20 LIG 0.23  A 
ATOM     64 ND1  HIS C   6      59.783  21.609  36.460  1.00 88.66 LIG-0.24  NA
ENDBRANCH 59 60
ENDBRANCH 58 59
BRANCH 58 65
ATOM     65  C   HIS C   6      57.892  20.726  38.886  1.00 59.18 LIG 0.22  C 
ATOM     66 O    HIS C   6      57.516  19.525  38.807  1.00 63.69 LIG-0.29  OA
ENDBRANCH 58 65
ENDBRANCH 55 58
ENDBRANCH 53 54
BRANCH 53 67
ATOM     67  CB  ILE C   5      55.187  25.494  40.832  1.00 28.54 LIG 0.01  C 
ATOM     68  CG2 ILE C   5      54.585  24.104  41.024  1.00 32.34 LIG 0.01  C 
BRANCH 67 69
ATOM     69  CG1 ILE C   5      55.777  26.121  42.106  1.00 30.21 LIG 0.00  C 
ATOM     70  CD1 ILE C   5      54.788  26.687  43.095  1.00 32.85 LIG 0.01  C 
ENDBRANCH 67 69
ENDBRANCH 53 67
ENDBRANCH 51 53
ENDBRANCH 39 49
ENDBRANCH 3 39
TORSDOF 26
ENDMDL
MODEL 31
USER: ADFR SOLUTION from run 10
USER: SCORE 22.479757 LL:  -6.185 LR: -17.558 RR:   0.000 FEB:  -9.802
USER: RMSD 5.043085
USER: SEED 745168
USER: STATUS searching
USER: GENES 28
USER: genes 0 Translation |==|  0.68052 0.45781 0.51418
USER: genes 1 Rotation |==|  0.19850 0.47614 0.14457 0.67943
USER: genes 2 Torsion [N]-C--CA-[N] |==|  0.84676
USER: genes 3 Torsion [C]-CA--N-[C] |==|  0.72406
USER: genes 4 Torsion [N]-C--CA-[N] |==|  0.12228
USER: genes 5 Torsion [C]-CA--CB-[CG] |==|  0.27796
USER: genes 6 Torsion [CA]-CB--CG-[CD] |==|  0.28098
USER: genes 7 Torsion [CB]-CG--CD-[NE] |==|  0.47312
USER: genes 8 Torsion [CG]-CD--NE-[CZ] |==|  0.45141
USER: genes 9 Torsion [C]-CA--N-[C] |==|  0.75033
USER: genes 10 Torsion [N]-C--CA-[N] |==|  0.36181
USER: genes 11 Torsion [C]-CA--CB-[CG] |==|  0.46286
USER: genes 12 Torsion [CA]-CB--CG-[OD2] |==|  0.97623
USER: genes 13 Torsion [C]-CA--N-[H1] |==|  0.83154
USER: genes 14 Torsion [C]-CA--CB-[CG1] |==|  0.74395
USER: genes 15 Torsion [C]-N--CA-[CB] |==|  0.78432
USER: genes 16 Torsion [N]-CA--CB-[CG] |==|  0.67944
USER: genes 17 Torsion [CA]-CB--CG-[CD2] |==|  0.70563
USER: genes 18 Torsion [CE2]-CZ--OH-[HH] |==|  0.33851
USER: genes 19 Torsion [N]-CA--C-[N] |==|  0.51111
USER: genes 20 Torsion [C]-N--CA-[C] |==|  0.79892
USER: genes 21 Torsion [N]-CA--C-[N] |==|  0.90315
USER: genes 22 Torsion [C]-N--CA-[CB] |==|  0.41722
USER: genes 23 Torsion [N]-CA--CB-[CG] |==|  0.16650
USER: genes 24 Torsion [CA]-CB--CG-[CD2] |==|  0.83803
USER: genes 25 Torsion [N]-CA--C-[O] |==|  0.04093
USER: genes 26 Torsion [N]-CA--CB-[CG1] |==|  0.16545
USER: genes 27 Torsion [CA]-CB--CG1-[CD1] |==|  0.68757
ROOT
ATOM      1  C   VAL C   3      57.258  28.254  34.733  1.00 15.94 LIG 0.24  C 
ATOM      2 O    VAL C   3      57.563  28.454  33.574  1.00 17.86 LIG-0.27  OA
ATOM      3  N   TYR C   4      56.068  27.762  35.062  1.00 16.41 LIG-0.35  N 
ATOM      4 H    TYR C   4      55.811  27.626  35.871  1.00 16.41 LIG 0.16  HD
ENDROOT
BRANCH 1 5
ATOM      5  CA  VAL C   3      58.251  28.616  35.856  1.00 16.01 LIG 0.18  C 
BRANCH 5 6
ATOM      6  N   VAL C   3      57.552  29.555  36.758  1.00 15.77 LIG-0.35  N 
ATOM      7 H    VAL C   3      57.018  29.193  37.328  1.00 15.77 LIG 0.16  HD
ATOM      8  C   ARG C   2      57.774  30.855  36.646  1.00 16.54 LIG 0.24  C 
ATOM      9 O    ARG C   2      58.637  31.325  35.874  1.00 14.63 LIG-0.27  OA
BRANCH 8 10
ATOM     10  CA  ARG C   2      56.945  31.773  37.523  1.00 19.03 LIG 0.18  C 
BRANCH 10 11
ATOM     11  CB  ARG C   2      57.571  33.172  37.518  1.00 20.38 LIG 0.04  C 
BRANCH 11 12
ATOM     12  CG  ARG C   2      56.912  34.155  36.611  1.00 20.75 LIG 0.02  C 
BRANCH 12 13
ATOM     13  CD  ARG C   2      56.035  35.055  37.361  1.00 22.55 LIG 0.14  C 
BRANCH 13 14
ATOM     14  NE  ARG C   2      55.557  36.150  36.562  1.00 20.36 LIG-0.23  N 
ATOM     15  CZ  ARG C   2      54.522  36.903  36.871  1.00 23.11 LIG 0.67  C 
ATOM     16  NH1 ARG C   2      53.937  36.776  38.011  1.00 23.20 LIG-0.23  N 
ATOM     17  NH2 ARG C   2      54.146  37.872  36.029  1.00 25.55 LIG-0.23  N 
ATOM     18 1HH1 ARG C   2      54.221  36.196  38.578  1.00 23.20 LIG 0.17  HD
ATOM     19 2HH1 ARG C   2      53.262  37.272  38.205  1.00 23.20 LIG 0.17  HD
ATOM     20 2HH2 ARG C   2      53.472  38.371  36.219  1.00 25.55 LIG 0.17  HD
ATOM     21 1HH2 ARG C   2      54.580  37.997  35.296  1.00 25.55 LIG 0.17  HD
ATOM     22 HE   ARG C   2      55.976  36.325  35.833  1.00 20.36 LIG 0.18  HD
ENDBRANCH 13 14
ENDBRANCH 12 13
ENDBRANCH 11 12
ENDBRANCH 10 11
BRANCH 10 23
ATOM     23  N   ARG C   2      56.860  31.252  38.898  1.00 19.42 LIG-0.35  N 
ATOM     24  C   ASP C   1      55.875  30.430  39.232  1.00 19.51 LIG 0.25  C 
ATOM     25 O    ASP C   1      55.148  29.887  38.384  1.00 19.29 LIG-0.27  OA
ATOM     26 H    ARG C   2      57.478  31.521  39.432  1.00 19.42 LIG 0.16  HD
BRANCH 24 27
ATOM     27  CA  ASP C   1      55.626  30.177  40.709  1.00 19.04 LIG 0.28  C 
BRANCH 27 28
ATOM     28  CB  ASP C   1      56.038  28.766  41.044  1.00 21.34 LIG 0.15  C 
BRANCH 28 29
ATOM     29  CG  ASP C   1      56.130  28.532  42.574  1.00 23.67 LIG 0.17  C 
ATOM     30 OD2  ASP C   1      56.026  29.540  43.326  1.00 27.41 LIG-0.65  OA
ATOM     31 OD1  ASP C   1      56.333  27.358  43.025  1.00 20.87 LIG-0.65  OA
ENDBRANCH 28 29
ENDBRANCH 27 28
BRANCH 27 32
ATOM     32  N   ASP C   1      54.153  30.379  40.958  1.00 18.38 LIG-0.07  N 
ATOM     33 H1   ASP C   1      53.929  31.216  40.751  1.00 18.38 LIG 0.28  HD
ATOM     34 H3   ASP C   1      53.973  30.228  41.817  1.00 18.38 LIG 0.28  HD
ATOM     35 H2   ASP C   1      53.685  29.814  40.454  1.00 18.38 LIG 0.28  HD
ENDBRANCH 27 32
ENDBRANCH 24 27
ENDBRANCH 10 23
ENDBRANCH 8 10
ENDBRANCH 5 6
BRANCH 5 36
ATOM     36  CB  VAL C   3      58.651  27.330  36.544  1.00 17.74 LIG 0.01  C 
ATOM     37  CG1 VAL C   3      57.760  27.029  37.731  1.00 20.72 LIG 0.01  C 
ATOM     38  CG2 VAL C   3      58.567  26.150  35.593  1.00 18.64 LIG 0.01  C 
ENDBRANCH 5 36
ENDBRANCH 1 5
BRANCH 3 39
ATOM     39  CA  TYR C   4      55.082  27.404  34.049  1.00 17.90 LIG 0.18  C 
BRANCH 39 40
ATOM     40  CB  TYR C   4      54.401  28.627  33.515  1.00 20.19 LIG 0.07  C 
BRANCH 40 41
ATOM     41  CG  TYR C   4      52.925  28.737  33.793  1.00 23.00 LIG-0.06  A 
ATOM     42  CD2 TYR C   4      51.994  28.519  32.777  1.00 26.62 LIG 0.01  A 
ATOM     43  CE2 TYR C   4      50.637  28.621  33.009  1.00 28.63 LIG 0.04  A 
ATOM     44  CZ  TYR C   4      50.199  28.945  34.256  1.00 25.42 LIG 0.07  A 
ATOM     45  CE1 TYR C   4      51.071  29.121  35.277  1.00 26.89 LIG 0.04  A 
ATOM     46  CD1 TYR C   4      52.450  29.021  35.041  1.00 24.41 LIG 0.01  A 
BRANCH 44 47
ATOM     47 OH   TYR C   4      48.857  29.039  34.484  1.00 32.39 LIG-0.36  OA
ATOM     48 HH   TYR C   4      48.639  28.504  35.093  1.00 32.39 LIG 0.22  HD
ENDBRANCH 44 47
ENDBRANCH 40 41
ENDBRANCH 39 40
BRANCH 39 49
ATOM     49  C   TYR C   4      55.669  26.524  32.909  1.00 20.63 LIG 0.24  C 
ATOM     50 O    TYR C   4      56.767  26.047  32.993  1.00 19.73 LIG-0.27  OA
ATOM     51  N   ILE C   5      54.850  26.229  31.910  1.00 22.91 LIG-0.35  N 
ATOM     52 H    ILE C   5      54.020  26.456  31.882  1.00 22.91 LIG 0.16  HD
BRANCH 51 53
ATOM     53  CA  ILE C   5      55.312  25.478  30.756  1.00 27.58 LIG 0.18  C 
BRANCH 53 54
ATOM     54  C   ILE C   5      56.214  26.362  29.898  1.00 33.14 LIG 0.24  C 
ATOM     55  N   HIS C   6      55.907  27.665  29.830  1.00 39.14 LIG-0.35  N 
ATOM     56 H    HIS C   6      55.203  27.998  30.193  1.00 39.14 LIG 0.16  HD
ATOM     57 O    ILE C   5      57.098  25.823  29.239  1.00 25.88 LIG-0.27  OA
BRANCH 55 58
ATOM     58  CA  HIS C   6      56.754  28.687  29.115  1.00 56.87 LIG 0.17  C 
BRANCH 58 59
ATOM     59  CB  HIS C   6      55.872  29.846  28.566  1.00 66.39 LIG 0.09  C 
BRANCH 59 60
ATOM     60  CG  HIS C   6      55.103  30.600  29.614  1.00 78.50 LIG 0.06  A 
ATOM     61  CD2 HIS C   6      54.190  30.166  30.519  1.00 82.71 LIG 0.14  A 
ATOM     62 NE2  HIS C   6      53.822  31.250  31.283  1.00 84.02 LIG-0.25  NA
ATOM     63  CE1 HIS C   6      54.500  32.311  30.879  1.00 85.20 LIG 0.23  A 
ATOM     64 ND1  HIS C   6      55.286  31.947  29.877  1.00 88.66 LIG-0.24  NA
ENDBRANCH 59 60
ENDBRANCH 58 59
BRANCH 58 65
ATOM     65  C   HIS C   6      57.909  29.322  29.902  1.00 59.18 LIG 0.22  C 
ATOM     66 O    HIS C   6      58.305  28.811  30.983  1.00 63.69 LIG-0.29  OA
ENDBRANCH 58 65
ENDBRANCH 55 58
ENDBRANCH 53 54
BRANCH 53 67
ATOM     67  CB  ILE C   5      54.119  24.948  29.972  1.00 28.54 LIG 0.01  C 
ATOM     68  CG2 ILE C   5      53.370  23.944  30.845  1.00 32.34 LIG 0.01  C 
BRANCH 67 69
ATOM     69  CG1 ILE C   5      53.287  26.165  29.533  1.00 30.21 LIG 0.00  C 
ATOM     70  CD1 ILE C   5      51.925  26.309  30.165  1.00 32.85 LIG 0.01  C 
ENDBRANCH 67 69
ENDBRANCH 53 67
ENDBRANCH 51 53
ENDBRANCH 39 49
ENDBRANCH 3 39
TORSDOF 26
ENDMDL
MODEL 32
USER: ADFR SOLUTION from run 136
USER: SCORE 21.522944 LL:  -6.015 LR: -17.528 RR:   0.000 FEB:  -9.772
USER: RMSD 8.528991
USER: SEED 135
USER: STATUS no improvement in best in 12 clusters for 5 generations
USER: GENES 28
USER: genes 0 Translation |==|  0.65316 0.60883 0.57784
USER: genes 1 Rotation |==|  0.23760 0.18890 0.20979 0.51185
USER: genes 2 Torsion [N]-C--CA-[N] |==|  0.91933
USER: genes 3 Torsion [C]-CA--N-[C] |==|  0.49073
USER: genes 4 Torsion [N]-C--CA-[N] |==|  0.97603
USER: genes 5 Torsion [C]-CA--CB-[CG] |==|  0.10084
USER: genes 6 Torsion [CA]-CB--CG-[CD] |==|  0.28592
USER: genes 7 Torsion [CB]-CG--CD-[NE] |==|  0.83866
USER: genes 8 Torsion [CG]-CD--NE-[CZ] |==|  0.58424
USER: genes 9 Torsion [C]-CA--N-[C] |==|  0.63333
USER: genes 10 Torsion [N]-C--CA-[N] |==|  0.39055
USER: genes 11 Torsion [C]-CA--CB-[CG] |==|  0.56205
USER: genes 12 Torsion [CA]-CB--CG-[OD2] |==|  0.71366
USER: genes 13 Torsion [C]-CA--N-[H1] |==|  0.67235
USER: genes 14 Torsion [C]-CA--CB-[CG1] |==|  0.91220
USER: genes 15 Torsion [C]-N--CA-[CB] |==|  0.81496
USER: genes 16 Torsion [N]-CA--CB-[CG] |==|  0.68399
USER: genes 17 Torsion [CA]-CB--CG-[CD2] |==|  0.04910
USER: genes 18 Torsion [CE2]-CZ--OH-[HH] |==|  0.73840
USER: genes 19 Torsion [N]-CA--C-[N] |==|  0.31823
USER: genes 20 Torsion [C]-N--CA-[C] |==|  0.82606
USER: genes 21 Torsion [N]-CA--C-[N] |==|  0.92301
USER: genes 22 Torsion [C]-N--CA-[CB] |==|  0.86337
USER: genes 23 Torsion [N]-CA--CB-[CG] |==|  0.84840
USER: genes 24 Torsion [CA]-CB--CG-[CD2] |==|  0.83437
USER: genes 25 Torsion [N]-CA--C-[O] |==|  0.62776
USER: genes 26 Torsion [N]-CA--CB-[CG1] |==|  0.71483
USER: genes 27 Torsion [CA]-CB--CG1-[CD1] |==|  0.06862
ROOT
ATOM      1  C   VAL C   3      56.786  32.105  36.404  1.00 15.94 LIG 0.24  C 
ATOM      2 O    VAL C   3      57.621  31.328  35.983  1.00 17.86 LIG-0.27  OA
ATOM      3  N   TYR C   4      55.593  31.686  36.814  1.00 16.41 LIG-0.35  N 
ATOM      4 H    TYR C   4      54.972  32.209  37.099  1.00 16.41 LIG 0.16  HD
ENDROOT
BRANCH 1 5
ATOM      5  CA  VAL C   3      57.094  33.616  36.428  1.00 16.01 LIG 0.18  C 
BRANCH 5 6
ATOM      6  N   VAL C   3      55.807  34.317  36.240  1.00 15.77 LIG-0.35  N 
ATOM      7 H    VAL C   3      55.125  33.809  36.106  1.00 15.77 LIG 0.16  HD
ATOM      8  C   ARG C   2      55.771  35.639  36.286  1.00 16.54 LIG 0.24  C 
ATOM      9 O    ARG C   2      56.769  36.328  36.588  1.00 14.63 LIG-0.27  OA
BRANCH 8 10
ATOM     10  CA  ARG C   2      54.444  36.302  35.977  1.00 19.03 LIG 0.18  C 
BRANCH 10 11
ATOM     11  CB  ARG C   2      53.916  36.984  37.244  1.00 20.38 LIG 0.04  C 
BRANCH 11 12
ATOM     12  CG  ARG C   2      54.961  37.600  38.111  1.00 20.75 LIG 0.02  C 
BRANCH 12 13
ATOM     13  CD  ARG C   2      54.989  39.055  37.945  1.00 22.55 LIG 0.14  C 
BRANCH 13 14
ATOM     14  NE  ARG C   2      55.232  39.448  36.584  1.00 20.36 LIG-0.23  N 
ATOM     15  CZ  ARG C   2      55.851  40.553  36.226  1.00 23.11 LIG 0.67  C 
ATOM     16  NH1 ARG C   2      56.405  41.308  37.108  1.00 23.20 LIG-0.23  N 
ATOM     17  NH2 ARG C   2      55.986  40.832  34.924  1.00 25.55 LIG-0.23  N 
ATOM     18 1HH1 ARG C   2      56.374  41.093  37.940  1.00 23.20 LIG 0.17  HD
ATOM     19 2HH1 ARG C   2      56.808  42.028  36.865  1.00 23.20 LIG 0.17  HD
ATOM     20 2HH2 ARG C   2      56.389  41.551  34.677  1.00 25.55 LIG 0.17  HD
ATOM     21 1HH2 ARG C   2      55.670  40.292  34.333  1.00 25.55 LIG 0.17  HD
ATOM     22 HE   ARG C   2      54.954  38.925  35.961  1.00 20.36 LIG 0.18  HD
ENDBRANCH 13 14
ENDBRANCH 12 13
ENDBRANCH 11 12
ENDBRANCH 10 11
BRANCH 10 23
ATOM     23  N   ARG C   2      53.467  35.321  35.476  1.00 19.42 LIG-0.35  N 
ATOM     24  C   ASP C   1      52.765  35.588  34.383  1.00 19.51 LIG 0.25  C 
ATOM     25 O    ASP C   1      53.053  36.527  33.623  1.00 19.29 LIG-0.27  OA
ATOM     26 H    ARG C   2      53.403  34.598  35.937  1.00 19.42 LIG 0.16  HD
BRANCH 24 27
ATOM     27  CA  ASP C   1      51.555  34.720  34.083  1.00 19.04 LIG 0.28  C 
BRANCH 27 28
ATOM     28  CB  ASP C   1      51.934  33.682  33.059  1.00 21.34 LIG 0.15  C 
BRANCH 28 29
ATOM     29  CG  ASP C   1      50.699  33.136  32.297  1.00 23.67 LIG 0.17  C 
ATOM     30 OD2  ASP C   1      50.268  31.996  32.624  1.00 27.41 LIG-0.65  OA
ATOM     31 OD1  ASP C   1      50.176  33.823  31.360  1.00 20.87 LIG-0.65  OA
ENDBRANCH 28 29
ENDBRANCH 27 28
BRANCH 27 32
ATOM     32  N   ASP C   1      50.472  35.627  33.553  1.00 18.38 LIG-0.07  N 
ATOM     33 H1   ASP C   1      49.771  35.603  34.100  1.00 18.38 LIG 0.28  HD
ATOM     34 H3   ASP C   1      50.226  35.353  32.743  1.00 18.38 LIG 0.28  HD
ATOM     35 H2   ASP C   1      50.780  36.460  33.502  1.00 18.38 LIG 0.28  HD
ENDBRANCH 27 32
ENDBRANCH 24 27
ENDBRANCH 10 23
ENDBRANCH 8 10
ENDBRANCH 5 6
BRANCH 5 36
ATOM     36  CB  VAL C   3      57.744  33.929  37.758  1.00 17.74 LIG 0.01  C 
ATOM     37  CG1 VAL C   3      57.232  33.023  38.858  1.00 20.72 LIG 0.01  C 
ATOM     38  CG2 VAL C   3      59.251  33.762  37.685  1.00 18.64 LIG 0.01  C 
ENDBRANCH 5 36
ENDBRANCH 1 5
BRANCH 3 39
ATOM     39  CA  TYR C   4      55.236  30.273  36.811  1.00 17.90 LIG 0.18  C 
BRANCH 39 40
ATOM     40  CB  TYR C   4      55.156  29.746  35.412  1.00 20.19 LIG 0.07  C 
BRANCH 40 41
ATOM     41  CG  TYR C   4      53.790  29.323  34.941  1.00 23.00 LIG-0.06  A 
ATOM     42  CD2 TYR C   4      52.645  29.754  35.613  1.00 26.62 LIG 0.01  A 
ATOM     43  CE2 TYR C   4      51.383  29.374  35.203  1.00 28.63 LIG 0.04  A 
ATOM     44  CZ  TYR C   4      51.254  28.558  34.121  1.00 25.42 LIG 0.07  A 
ATOM     45  CE1 TYR C   4      52.339  28.156  33.418  1.00 26.89 LIG 0.04  A 
ATOM     46  CD1 TYR C   4      53.622  28.539  33.837  1.00 24.41 LIG 0.01  A 
BRANCH 44 47
ATOM     47 OH   TYR C   4      50.005  28.189  33.713  1.00 32.39 LIG-0.36  OA
ATOM     48 HH   TYR C   4      49.804  27.451  34.060  1.00 32.39 LIG 0.22  HD
ENDBRANCH 44 47
ENDBRANCH 40 41
ENDBRANCH 39 40
BRANCH 39 49
ATOM     49  C   TYR C   4      56.172  29.405  37.702  1.00 20.63 LIG 0.24  C 
ATOM     50 O    TYR C   4      57.353  29.354  37.499  1.00 19.73 LIG-0.27  OA
ATOM     51  N   ILE C   5      55.616  28.837  38.762  1.00 22.91 LIG-0.35  N 
ATOM     52 H    ILE C   5      54.798  28.955  39.001  1.00 22.91 LIG 0.16  HD
BRANCH 51 53
ATOM     53  CA  ILE C   5      56.375  27.946  39.622  1.00 27.58 LIG 0.18  C 
BRANCH 53 54
ATOM     54  C   ILE C   5      56.822  26.724  38.824  1.00 33.14 LIG 0.24  C 
ATOM     55  N   HIS C   6      56.058  26.358  37.786  1.00 39.14 LIG-0.35  N 
ATOM     56 H    HIS C   6      55.311  26.741  37.598  1.00 39.14 LIG 0.16  HD
ATOM     57 O    ILE C   5      57.787  26.084  39.233  1.00 25.88 LIG-0.27  OA
BRANCH 55 58
ATOM     58  CA  HIS C   6      56.414  25.243  36.836  1.00 56.87 LIG 0.17  C 
BRANCH 58 59
ATOM     59  CB  HIS C   6      57.879  25.396  36.330  1.00 66.39 LIG 0.09  C 
BRANCH 59 60
ATOM     60  CG  HIS C   6      58.191  26.727  35.707  1.00 78.50 LIG 0.06  A 
ATOM     61  CD2 HIS C   6      57.642  27.347  34.632  1.00 82.71 LIG 0.14  A 
ATOM     62 NE2  HIS C   6      58.253  28.574  34.509  1.00 84.02 LIG-0.25  NA
ATOM     63  CE1 HIS C   6      59.133  28.716  35.487  1.00 85.20 LIG 0.23  A 
ATOM     64 ND1  HIS C   6      59.112  27.619  36.229  1.00 88.66 LIG-0.24  NA
ENDBRANCH 59 60
ENDBRANCH 58 59
BRANCH 58 65
ATOM     65  C   HIS C   6      56.253  23.803  37.345  1.00 59.18 LIG 0.22  C 
ATOM     66 O    HIS C   6      57.163  22.952  37.155  1.00 63.69 LIG-0.29  OA
ENDBRANCH 58 65
ENDBRANCH 55 58
ENDBRANCH 53 54
BRANCH 53 67
ATOM     67  CB  ILE C   5      55.540  27.561  40.836  1.00 28.54 LIG 0.01  C 
ATOM     68  CG2 ILE C   5      55.634  26.050  41.031  1.00 32.34 LIG 0.01  C 
BRANCH 67 69
ATOM     69  CG1 ILE C   5      56.052  28.396  42.022  1.00 30.21 LIG 0.00  C 
ATOM     70  CD1 ILE C   5      56.734  29.697  41.680  1.00 32.85 LIG 0.01  C 
ENDBRANCH 67 69
ENDBRANCH 53 67
ENDBRANCH 51 53
ENDBRANCH 39 49
ENDBRANCH 3 39
TORSDOF 26
ENDMDL
MODEL 33
USER: ADFR SOLUTION from run 155
USER: SCORE 20.405474 LL:  -4.904 LR: -17.529 RR:   0.000 FEB:  -9.773
USER: RMSD 8.485036
USER: SEED 154
USER: STATUS no improvement in best in 4 clusters for 5 generations
USER: GENES 28
USER: genes 0 Translation |==|  0.63226 0.49467 0.67795
USER: genes 1 Rotation |==|  0.74983 0.43973 0.64894 0.90221
USER: genes 2 Torsion [N]-C--CA-[N] |==|  0.62272
USER: genes 3 Torsion [C]-CA--N-[C] |==|  0.14495
USER: genes 4 Torsion [N]-C--CA-[N] |==|  0.68380
USER: genes 5 Torsion [C]-CA--CB-[CG] |==|  0.23470
USER: genes 6 Torsion [CA]-CB--CG-[CD] |==|  0.51255
USER: genes 7 Torsion [CB]-CG--CD-[NE] |==|  0.28875
USER: genes 8 Torsion [CG]-CD--NE-[CZ] |==|  0.34861
USER: genes 9 Torsion [C]-CA--N-[C] |==|  0.65556
USER: genes 10 Torsion [N]-C--CA-[N] |==|  0.93538
USER: genes 11 Torsion [C]-CA--CB-[CG] |==|  0.69482
USER: genes 12 Torsion [CA]-CB--CG-[OD2] |==|  0.30770
USER: genes 13 Torsion [C]-CA--N-[H1] |==|  0.49438
USER: genes 14 Torsion [C]-CA--CB-[CG1] |==|  0.33361
USER: genes 15 Torsion [C]-N--CA-[CB] |==|  0.49520
USER: genes 16 Torsion [N]-CA--CB-[CG] |==|  0.60402
USER: genes 17 Torsion [CA]-CB--CG-[CD2] |==|  0.34864
USER: genes 18 Torsion [CE2]-CZ--OH-[HH] |==|  0.25129
USER: genes 19 Torsion [N]-CA--C-[N] |==|  0.44027
USER: genes 20 Torsion [C]-N--CA-[C] |==|  0.63740
USER: genes 21 Torsion [N]-CA--C-[N] |==|  0.42026
USER: genes 22 Torsion [C]-N--CA-[CB] |==|  0.87038
USER: genes 23 Torsion [N]-CA--CB-[CG] |==|  0.73876
USER: genes 24 Torsion [CA]-CB--CG-[CD2] |==|  0.61492
USER: genes 25 Torsion [N]-CA--C-[O] |==|  0.19510
USER: genes 26 Torsion [N]-CA--CB-[CG1] |==|  0.70694
USER: genes 27 Torsion [CA]-CB--CG1-[CD1] |==|  0.82895
ROOT
ATOM      1  C   VAL C   3      56.426  29.194  39.032  1.00 15.94 LIG 0.24  C 
ATOM      2 O    VAL C   3      55.265  28.899  38.825  1.00 17.86 LIG-0.27  OA
ATOM      3  N   TYR C   4      56.990  30.242  38.442  1.00 16.41 LIG-0.35  N 
ATOM      4 H    TYR C   4      57.813  30.469  38.550  1.00 16.41 LIG 0.16  HD
ENDROOT
BRANCH 1 5
ATOM      5  CA  VAL C   3      57.280  28.314  39.967  1.00 16.01 LIG 0.18  C 
BRANCH 5 6
ATOM      6  N   VAL C   3      56.966  26.908  39.634  1.00 15.77 LIG-0.35  N 
ATOM      7 H    VAL C   3      56.742  26.412  40.301  1.00 15.77 LIG 0.16  HD
ATOM      8  C   ARG C   2      57.043  26.503  38.378  1.00 16.54 LIG 0.24  C 
ATOM      9 O    ARG C   2      57.270  27.286  37.431  1.00 14.63 LIG-0.27  OA
BRANCH 8 10
ATOM     10  CA  ARG C   2      56.816  25.027  38.116  1.00 19.03 LIG 0.18  C 
BRANCH 10 11
ATOM     11  CB  ARG C   2      56.339  24.355  39.408  1.00 20.38 LIG 0.04  C 
BRANCH 11 12
ATOM     12  CG  ARG C   2      54.872  24.448  39.663  1.00 20.75 LIG 0.02  C 
BRANCH 12 13
ATOM     13  CD  ARG C   2      54.530  23.874  40.966  1.00 22.55 LIG 0.14  C 
BRANCH 13 14
ATOM     14  NE  ARG C   2      54.262  24.880  41.957  1.00 20.36 LIG-0.23  N 
ATOM     15  CZ  ARG C   2      53.159  24.948  42.672  1.00 23.11 LIG 0.67  C 
ATOM     16  NH1 ARG C   2      52.280  24.010  42.611  1.00 23.20 LIG-0.23  N 
ATOM     17  NH2 ARG C   2      53.006  25.955  43.541  1.00 25.55 LIG-0.23  N 
ATOM     18 1HH1 ARG C   2      52.411  23.331  42.100  1.00 23.20 LIG 0.17  HD
ATOM     19 2HH1 ARG C   2      51.562  24.062  43.082  1.00 23.20 LIG 0.17  HD
ATOM     20 2HH2 ARG C   2      52.290  26.010  44.014  1.00 25.55 LIG 0.17  HD
ATOM     21 1HH2 ARG C   2      53.624  26.547  43.626  1.00 25.55 LIG 0.17  HD
ATOM     22 HE   ARG C   2      54.864  25.479  42.092  1.00 20.36 LIG 0.18  HD
ENDBRANCH 13 14
ENDBRANCH 12 13
ENDBRANCH 11 12
ENDBRANCH 10 11
BRANCH 10 23
ATOM     23  N   ARG C   2      58.046  24.383  37.626  1.00 19.42 LIG-0.35  N 
ATOM     24  C   ASP C   1      58.034  23.730  36.472  1.00 19.51 LIG 0.25  C 
ATOM     25 O    ASP C   1      57.097  23.829  35.664  1.00 19.29 LIG-0.27  OA
ATOM     26 H    ARG C   2      58.734  24.469  38.135  1.00 19.42 LIG 0.16  HD
BRANCH 24 27
ATOM     27  CA  ASP C   1      59.205  22.815  36.158  1.00 19.04 LIG 0.28  C 
BRANCH 27 28
ATOM     28  CB  ASP C   1      58.838  21.400  36.523  1.00 21.34 LIG 0.15  C 
BRANCH 28 29
ATOM     29  CG  ASP C   1      59.622  20.894  37.761  1.00 23.67 LIG 0.17  C 
ATOM     30 OD2  ASP C   1      58.974  20.712  38.828  1.00 27.41 LIG-0.65  OA
ATOM     31 OD1  ASP C   1      60.879  20.705  37.683  1.00 20.87 LIG-0.65  OA
ENDBRANCH 28 29
ENDBRANCH 27 28
BRANCH 27 32
ATOM     32  N   ASP C   1      60.380  23.292  36.975  1.00 18.38 LIG-0.07  N 
ATOM     33 H1   ASP C   1      61.077  22.756  36.834  1.00 18.38 LIG 0.28  HD
ATOM     34 H3   ASP C   1      60.166  23.280  37.838  1.00 18.38 LIG 0.28  HD
ATOM     35 H2   ASP C   1      60.592  24.122  36.735  1.00 18.38 LIG 0.28  HD
ENDBRANCH 27 32
ENDBRANCH 24 27
ENDBRANCH 10 23
ENDBRANCH 8 10
ENDBRANCH 5 6
BRANCH 5 36
ATOM     36  CB  VAL C   3      58.732  28.664  39.722  1.00 17.74 LIG 0.01  C 
ATOM     37  CG1 VAL C   3      59.404  29.176  40.978  1.00 20.72 LIG 0.01  C 
ATOM     38  CG2 VAL C   3      59.513  27.456  39.239  1.00 18.64 LIG 0.01  C 
ENDBRANCH 5 36
ENDBRANCH 1 5
BRANCH 3 39
ATOM     39  CA  TYR C   4      56.240  31.111  37.543  1.00 17.90 LIG 0.18  C 
BRANCH 39 40
ATOM     40  CB  TYR C   4      57.097  32.235  37.049  1.00 20.19 LIG 0.07  C 
BRANCH 40 41
ATOM     41  CG  TYR C   4      56.416  33.569  36.897  1.00 23.00 LIG-0.06  A 
ATOM     42  CD2 TYR C   4      56.930  34.703  37.527  1.00 26.62 LIG 0.01  A 
ATOM     43  CE2 TYR C   4      56.319  35.935  37.406  1.00 28.63 LIG 0.04  A 
ATOM     44  CZ  TYR C   4      55.186  36.043  36.660  1.00 25.42 LIG 0.07  A 
ATOM     45  CE1 TYR C   4      54.682  34.974  36.000  1.00 26.89 LIG 0.04  A 
ATOM     46  CD1 TYR C   4      55.301  33.722  36.125  1.00 24.41 LIG 0.01  A 
BRANCH 44 47
ATOM     47 OH   TYR C   4      54.587  37.263  36.538  1.00 32.39 LIG-0.36  OA
ATOM     48 HH   TYR C   4      54.897  37.661  35.866  1.00 32.39 LIG 0.22  HD
ENDBRANCH 44 47
ENDBRANCH 40 41
ENDBRANCH 39 40
BRANCH 39 49
ATOM     49  C   TYR C   4      55.565  30.340  36.372  1.00 20.63 LIG 0.24  C 
ATOM     50 O    TYR C   4      55.888  29.218  36.097  1.00 19.73 LIG-0.27  OA
ATOM     51  N   ILE C   5      54.539  30.939  35.785  1.00 22.91 LIG-0.35  N 
ATOM     52 H    ILE C   5      54.208  31.691  36.040  1.00 22.91 LIG 0.16  HD
BRANCH 51 53
ATOM     53  CA  ILE C   5      53.882  30.347  34.633  1.00 27.58 LIG 0.18  C 
BRANCH 53 54
ATOM     54  C   ILE C   5      53.749  31.391  33.527  1.00 33.14 LIG 0.24  C 
ATOM     55  N   HIS C   6      53.735  30.946  32.264  1.00 39.14 LIG-0.35  N 
ATOM     56 H    HIS C   6      53.858  30.120  32.059  1.00 39.14 LIG 0.16  HD
ATOM     57 O    ILE C   5      53.769  32.578  33.844  1.00 25.88 LIG-0.27  OA
BRANCH 55 58
ATOM     58  CA  HIS C   6      53.505  31.832  31.066  1.00 56.87 LIG 0.17  C 
BRANCH 58 59
ATOM     59  CB  HIS C   6      52.289  32.775  31.304  1.00 66.39 LIG 0.09  C 
BRANCH 59 60
ATOM     60  CG  HIS C   6      50.980  32.256  30.779  1.00 78.50 LIG 0.06  A 
ATOM     61  CD2 HIS C   6      49.977  32.896  30.127  1.00 82.71 LIG 0.14  A 
ATOM     62 NE2  HIS C   6      49.022  31.955  29.820  1.00 84.02 LIG-0.25  NA
ATOM     63  CE1 HIS C   6      49.430  30.771  30.247  1.00 85.20 LIG 0.23  A 
ATOM     64 ND1  HIS C   6      50.613  30.923  30.824  1.00 88.66 LIG-0.24  NA
ENDBRANCH 59 60
ENDBRANCH 58 59
BRANCH 58 65
ATOM     65  C   HIS C   6      54.677  32.705  30.598  1.00 59.18 LIG 0.22  C 
ATOM     66 O    HIS C   6      55.688  32.183  30.056  1.00 63.69 LIG-0.29  OA
ENDBRANCH 58 65
ENDBRANCH 55 58
ENDBRANCH 53 54
BRANCH 53 67
ATOM     67  CB  ILE C   5      52.532  29.776  35.044  1.00 28.54 LIG 0.01  C 
ATOM     68  CG2 ILE C   5      51.471  30.288  34.073  1.00 32.34 LIG 0.01  C 
BRANCH 67 69
ATOM     69  CG1 ILE C   5      52.680  28.246  35.086  1.00 30.21 LIG 0.00  C 
ATOM     70  CD1 ILE C   5      53.039  27.572  33.786  1.00 32.85 LIG 0.01  C 
ENDBRANCH 67 69
ENDBRANCH 53 67
ENDBRANCH 51 53
ENDBRANCH 39 49
ENDBRANCH 3 39
TORSDOF 26
ENDMDL
MODEL 34
USER: ADFR SOLUTION from run 15
USER: SCORE 22.564651 LL:  -6.471 LR: -17.494 RR:   0.000 FEB:  -9.738
USER: RMSD 5.031798
USER: SEED 636491
USER: STATUS no improvement in best in 9 clusters for 5 generations
USER: GENES 28
USER: genes 0 Translation |==|  0.58106 0.45839 0.51489
USER: genes 1 Rotation |==|  0.62055 0.66323 0.70584 0.90799
USER: genes 2 Torsion [N]-C--CA-[N] |==|  0.31215
USER: genes 3 Torsion [C]-CA--N-[C] |==|  0.59885
USER: genes 4 Torsion [N]-C--CA-[N] |==|  0.17255
USER: genes 5 Torsion [C]-CA--CB-[CG] |==|  0.40152
USER: genes 6 Torsion [CA]-CB--CG-[CD] |==|  0.87374
USER: genes 7 Torsion [CB]-CG--CD-[NE] |==|  0.41649
USER: genes 8 Torsion [CG]-CD--NE-[CZ] |==|  0.32895
USER: genes 9 Torsion [C]-CA--N-[C] |==|  0.77645
USER: genes 10 Torsion [N]-C--CA-[N] |==|  0.40600
USER: genes 11 Torsion [C]-CA--CB-[CG] |==|  0.23525
USER: genes 12 Torsion [CA]-CB--CG-[OD2] |==|  0.22898
USER: genes 13 Torsion [C]-CA--N-[H1] |==|  0.11806
USER: genes 14 Torsion [C]-CA--CB-[CG1] |==|  0.17091
USER: genes 15 Torsion [C]-N--CA-[CB] |==|  0.18925
USER: genes 16 Torsion [N]-CA--CB-[CG] |==|  0.12423
USER: genes 17 Torsion [CA]-CB--CG-[CD2] |==|  0.30094
USER: genes 18 Torsion [CE2]-CZ--OH-[HH] |==|  0.84482
USER: genes 19 Torsion [N]-CA--C-[N] |==|  0.81674
USER: genes 20 Torsion [C]-N--CA-[C] |==|  0.76879
USER: genes 21 Torsion [N]-CA--C-[N] |==|  0.35813
USER: genes 22 Torsion [C]-N--CA-[CB] |==|  0.23656
USER: genes 23 Torsion [N]-CA--CB-[CG] |==|  0.90589
USER: genes 24 Torsion [CA]-CB--CG-[CD2] |==|  0.26839
USER: genes 25 Torsion [N]-CA--C-[O] |==|  0.26494
USER: genes 26 Torsion [N]-CA--CB-[CG1] |==|  0.09424
USER: genes 27 Torsion [CA]-CB--CG1-[CD1] |==|  0.20996
ROOT
ATOM      1  C   VAL C   3      55.542  28.269  34.752  1.00 15.94 LIG 0.24  C 
ATOM      2 O    VAL C   3      54.835  27.572  35.453  1.00 17.86 LIG-0.27  OA
ATOM      3  N   TYR C   4      55.171  28.618  33.524  1.00 16.41 LIG-0.35  N 
ATOM      4 H    TYR C   4      55.654  29.093  32.994  1.00 16.41 LIG 0.16  HD
ENDROOT
BRANCH 1 5
ATOM      5  CA  VAL C   3      56.919  28.727  35.274  1.00 16.01 LIG 0.18  C 
BRANCH 5 6
ATOM      6  N   VAL C   3      56.663  29.695  36.361  1.00 15.77 LIG-0.35  N 
ATOM      7 H    VAL C   3      55.975  29.528  36.850  1.00 15.77 LIG 0.16  HD
ATOM      8  C   ARG C   2      57.474  30.728  36.519  1.00 16.54 LIG 0.24  C 
ATOM      9 O    ARG C   2      58.520  30.870  35.850  1.00 14.63 LIG-0.27  OA
BRANCH 8 10
ATOM     10  CA  ARG C   2      57.096  31.744  37.579  1.00 19.03 LIG 0.18  C 
BRANCH 10 11
ATOM     11  CB  ARG C   2      58.094  32.906  37.539  1.00 20.38 LIG 0.04  C 
BRANCH 11 12
ATOM     12  CG  ARG C   2      57.512  34.249  37.828  1.00 20.75 LIG 0.02  C 
BRANCH 12 13
ATOM     13  CD  ARG C   2      56.260  34.446  37.096  1.00 22.55 LIG 0.14  C 
BRANCH 13 14
ATOM     14  NE  ARG C   2      55.346  35.311  37.791  1.00 20.36 LIG-0.23  N 
ATOM     15  CZ  ARG C   2      54.908  36.462  37.326  1.00 23.11 LIG 0.67  C 
ATOM     16  NH1 ARG C   2      55.185  36.830  36.124  1.00 23.20 LIG-0.23  N 
ATOM     17  NH2 ARG C   2      54.088  37.201  38.082  1.00 25.55 LIG-0.23  N 
ATOM     18 1HH1 ARG C   2      55.659  36.323  35.617  1.00 23.20 LIG 0.17  HD
ATOM     19 2HH1 ARG C   2      54.894  37.583  35.827  1.00 23.20 LIG 0.17  HD
ATOM     20 2HH2 ARG C   2      53.795  37.955  37.789  1.00 25.55 LIG 0.17  HD
ATOM     21 1HH2 ARG C   2      53.853  36.922  38.861  1.00 25.55 LIG 0.17  HD
ATOM     22 HE   ARG C   2      55.067  35.060  38.564  1.00 20.36 LIG 0.18  HD
ENDBRANCH 13 14
ENDBRANCH 12 13
ENDBRANCH 11 12
ENDBRANCH 10 11
BRANCH 10 23
ATOM     23  N   ARG C   2      57.076  31.128  38.916  1.00 19.42 LIG-0.35  N 
ATOM     24  C   ASP C   1      56.023  30.421  39.301  1.00 19.51 LIG 0.25  C 
ATOM     25 O    ASP C   1      55.144  30.053  38.505  1.00 19.29 LIG-0.27  OA
ATOM     26 H    ARG C   2      57.777  31.266  39.394  1.00 19.42 LIG 0.16  HD
BRANCH 24 27
ATOM     27  CA  ASP C   1      55.892  30.082  40.776  1.00 19.04 LIG 0.28  C 
BRANCH 27 28
ATOM     28  CB  ASP C   1      56.499  28.726  41.027  1.00 21.34 LIG 0.15  C 
BRANCH 28 29
ATOM     29  CG  ASP C   1      58.032  28.805  41.249  1.00 23.67 LIG 0.17  C 
ATOM     30 OD2  ASP C   1      58.440  29.108  42.403  1.00 27.41 LIG-0.65  OA
ATOM     31 OD1  ASP C   1      58.826  28.594  40.275  1.00 20.87 LIG-0.65  OA
ENDBRANCH 28 29
ENDBRANCH 27 28
BRANCH 27 32
ATOM     32  N   ASP C   1      54.420  30.080  41.108  1.00 18.38 LIG-0.07  N 
ATOM     33 H1   ASP C   1      53.970  29.673  40.457  1.00 18.38 LIG 0.28  HD
ATOM     34 H3   ASP C   1      54.132  30.918  41.188  1.00 18.38 LIG 0.28  HD
ATOM     35 H2   ASP C   1      54.288  29.647  41.874  1.00 18.38 LIG 0.28  HD
ENDBRANCH 27 32
ENDBRANCH 24 27
ENDBRANCH 10 23
ENDBRANCH 8 10
ENDBRANCH 5 6
BRANCH 5 36
ATOM     36  CB  VAL C   3      57.660  27.496  35.748  1.00 17.74 LIG 0.01  C 
ATOM     37  CG1 VAL C   3      57.889  26.511  34.621  1.00 20.72 LIG 0.01  C 
ATOM     38  CG2 VAL C   3      59.016  27.861  36.325  1.00 18.64 LIG 0.01  C 
ENDBRANCH 5 36
ENDBRANCH 1 5
BRANCH 3 39
ATOM     39  CA  TYR C   4      53.886  28.213  32.969  1.00 17.90 LIG 0.18  C 
BRANCH 39 40
ATOM     40  CB  TYR C   4      52.759  28.896  33.681  1.00 20.19 LIG 0.07  C 
BRANCH 40 41
ATOM     41  CG  TYR C   4      52.935  30.368  33.939  1.00 23.00 LIG-0.06  A 
ATOM     42  CD2 TYR C   4      52.188  31.307  33.227  1.00 26.62 LIG 0.01  A 
ATOM     43  CE2 TYR C   4      52.337  32.662  33.443  1.00 28.63 LIG 0.04  A 
ATOM     44  CZ  TYR C   4      53.237  33.091  34.370  1.00 25.42 LIG 0.07  A 
ATOM     45  CE1 TYR C   4      53.948  32.209  35.111  1.00 26.89 LIG 0.04  A 
ATOM     46  CD1 TYR C   4      53.799  30.833  34.889  1.00 24.41 LIG 0.01  A 
BRANCH 44 47
ATOM     47 OH   TYR C   4      53.378  34.431  34.586  1.00 32.39 LIG-0.36  OA
ATOM     48 HH   TYR C   4      53.560  34.814  33.861  1.00 32.39 LIG 0.22  HD
ENDBRANCH 44 47
ENDBRANCH 40 41
ENDBRANCH 39 40
BRANCH 39 49
ATOM     49  C   TYR C   4      53.798  28.408  31.428  1.00 20.63 LIG 0.24  C 
ATOM     50 O    TYR C   4      53.591  27.482  30.694  1.00 19.73 LIG-0.27  OA
ATOM     51  N   ILE C   5      53.835  29.657  30.988  1.00 22.91 LIG-0.35  N 
ATOM     52 H    ILE C   5      53.861  30.349  31.499  1.00 22.91 LIG 0.16  HD
BRANCH 51 53
ATOM     53  CA  ILE C   5      53.836  29.954  29.567  1.00 27.58 LIG 0.18  C 
BRANCH 53 54
ATOM     54  C   ILE C   5      55.259  29.847  29.023  1.00 33.14 LIG 0.24  C 
ATOM     55  N   HIS C   6      55.442  29.087  27.934  1.00 39.14 LIG-0.35  N 
ATOM     56 H    HIS C   6      54.812  28.621  27.579  1.00 39.14 LIG 0.16  HD
ATOM     57 O    ILE C   5      56.167  30.368  29.664  1.00 25.88 LIG-0.27  OA
BRANCH 55 58
ATOM     58  CA  HIS C   6      56.760  28.962  27.213  1.00 56.87 LIG 0.17  C 
BRANCH 58 59
ATOM     59  CB  HIS C   6      57.648  27.868  27.874  1.00 66.39 LIG 0.09  C 
BRANCH 59 60
ATOM     60  CG  HIS C   6      57.494  27.751  29.364  1.00 78.50 LIG 0.06  A 
ATOM     61  CD2 HIS C   6      56.735  26.907  30.108  1.00 82.71 LIG 0.14  A 
ATOM     62 NE2  HIS C   6      56.994  27.181  31.431  1.00 84.02 LIG-0.25  NA
ATOM     63  CE1 HIS C   6      57.898  28.145  31.503  1.00 85.20 LIG 0.23  A 
ATOM     64 ND1  HIS C   6      58.222  28.503  30.270  1.00 88.66 LIG-0.24  NA
ENDBRANCH 59 60
ENDBRANCH 58 59
BRANCH 58 65
ATOM     65  C   HIS C   6      56.715  28.668  25.707  1.00 59.18 LIG 0.22  C 
ATOM     66 O    HIS C   6      56.786  29.606  24.869  1.00 63.69 LIG-0.29  OA
ENDBRANCH 58 65
ENDBRANCH 55 58
ENDBRANCH 53 54
BRANCH 53 67
ATOM     67  CB  ILE C   5      53.235  31.332  29.324  1.00 28.54 LIG 0.01  C 
ATOM     68  CG2 ILE C   5      51.732  31.176  29.110  1.00 32.34 LIG 0.01  C 
BRANCH 67 69
ATOM     69  CG1 ILE C   5      53.626  32.214  30.522  1.00 30.21 LIG 0.00  C 
ATOM     70  CD1 ILE C   5      55.051  32.705  30.556  1.00 32.85 LIG 0.01  C 
ENDBRANCH 67 69
ENDBRANCH 53 67
ENDBRANCH 51 53
ENDBRANCH 39 49
ENDBRANCH 3 39
TORSDOF 26
ENDMDL
MODEL 35
USER: ADFR SOLUTION from run 171
USER: SCORE 21.358789 LL:  -5.824 LR: -17.441 RR:   0.000 FEB:  -9.685
USER: RMSD 9.519563
USER: SEED 170
USER: STATUS no improvement in best in 14 clusters for 5 generations
USER: GENES 28
USER: genes 0 Translation |==|  0.52653 0.52130 0.52834
USER: genes 1 Rotation |==|  0.41712 0.10224 0.57174 0.78243
USER: genes 2 Torsion [N]-C--CA-[N] |==|  0.36920
USER: genes 3 Torsion [C]-CA--N-[C] |==|  0.84744
USER: genes 4 Torsion [N]-C--CA-[N] |==|  0.46053
USER: genes 5 Torsion [C]-CA--CB-[CG] |==|  0.19299
USER: genes 6 Torsion [CA]-CB--CG-[CD] |==|  0.23652
USER: genes 7 Torsion [CB]-CG--CD-[NE] |==|  0.17046
USER: genes 8 Torsion [CG]-CD--NE-[CZ] |==|  0.29779
USER: genes 9 Torsion [C]-CA--N-[C] |==|  0.76567
USER: genes 10 Torsion [N]-C--CA-[N] |==|  0.90304
USER: genes 11 Torsion [C]-CA--CB-[CG] |==|  0.74971
USER: genes 12 Torsion [CA]-CB--CG-[OD2] |==|  0.70724
USER: genes 13 Torsion [C]-CA--N-[H1] |==|  0.66341
USER: genes 14 Torsion [C]-CA--CB-[CG1] |==|  0.44039
USER: genes 15 Torsion [C]-N--CA-[CB] |==|  0.39600
USER: genes 16 Torsion [N]-CA--CB-[CG] |==|  0.84838
USER: genes 17 Torsion [CA]-CB--CG-[CD2] |==|  0.21105
USER: genes 18 Torsion [CE2]-CZ--OH-[HH] |==|  0.22599
USER: genes 19 Torsion [N]-CA--C-[N] |==|  0.86233
USER: genes 20 Torsion [C]-N--CA-[C] |==|  0.50869
USER: genes 21 Torsion [N]-CA--C-[N] |==|  0.49774
USER: genes 22 Torsion [C]-N--CA-[CB] |==|  0.63559
USER: genes 23 Torsion [N]-CA--CB-[CG] |==|  0.83481
USER: genes 24 Torsion [CA]-CB--CG-[CD2] |==|  0.23546
USER: genes 25 Torsion [N]-CA--C-[O] |==|  0.62540
USER: genes 26 Torsion [N]-CA--CB-[CG1] |==|  0.55046
USER: genes 27 Torsion [CA]-CB--CG1-[CD1] |==|  0.48675
ROOT
ATOM      1  C   VAL C   3      54.602  29.873  35.105  1.00 15.94 LIG 0.24  C 
ATOM      2 O    VAL C   3      54.956  29.797  33.945  1.00 17.86 LIG-0.27  OA
ATOM      3  N   TYR C   4      55.471  29.757  36.104  1.00 16.41 LIG-0.35  N 
ATOM      4 H    TYR C   4      55.253  29.786  36.935  1.00 16.41 LIG 0.16  HD
ENDROOT
BRANCH 1 5
ATOM      5  CA  VAL C   3      53.108  30.068  35.435  1.00 16.01 LIG 0.18  C 
BRANCH 5 6
ATOM      6  N   VAL C   3      52.625  31.179  34.587  1.00 15.77 LIG-0.35  N 
ATOM      7 H    VAL C   3      51.942  30.999  34.096  1.00 15.77 LIG 0.16  HD
ATOM      8  C   ARG C   2      53.246  32.346  34.627  1.00 16.54 LIG 0.24  C 
ATOM      9 O    ARG C   2      54.168  32.590  35.434  1.00 14.63 LIG-0.27  OA
BRANCH 8 10
ATOM     10  CA  ARG C   2      52.773  33.410  33.656  1.00 19.03 LIG 0.18  C 
BRANCH 10 11
ATOM     11  CB  ARG C   2      53.222  33.033  32.240  1.00 20.38 LIG 0.04  C 
BRANCH 11 12
ATOM     12  CG  ARG C   2      52.532  31.848  31.654  1.00 20.75 LIG 0.02  C 
BRANCH 12 13
ATOM     13  CD  ARG C   2      51.269  32.236  31.023  1.00 22.55 LIG 0.14  C 
BRANCH 13 14
ATOM     14  NE  ARG C   2      51.457  33.163  29.940  1.00 20.36 LIG-0.23  N 
ATOM     15  CZ  ARG C   2      51.325  32.858  28.666  1.00 23.11 LIG 0.67  C 
ATOM     16  NH1 ARG C   2      50.880  31.704  28.312  1.00 23.20 LIG-0.23  N 
ATOM     17  NH2 ARG C   2      51.563  33.798  27.743  1.00 25.55 LIG-0.23  N 
ATOM     18 1HH1 ARG C   2      50.666  31.124  28.909  1.00 23.20 LIG 0.17  HD
ATOM     19 2HH1 ARG C   2      50.796  31.513  27.477  1.00 23.20 LIG 0.17  HD
ATOM     20 2HH2 ARG C   2      51.480  33.612  26.908  1.00 25.55 LIG 0.17  HD
ATOM     21 1HH2 ARG C   2      51.799  34.589  27.986  1.00 25.55 LIG 0.17  HD
ATOM     22 HE   ARG C   2      51.670  33.971  30.139  1.00 20.36 LIG 0.18  HD
ENDBRANCH 13 14
ENDBRANCH 12 13
ENDBRANCH 11 12
ENDBRANCH 10 11
BRANCH 10 23
ATOM     23  N   ARG C   2      53.299  34.734  34.027  1.00 19.42 LIG-0.35  N 
ATOM     24  C   ASP C   1      52.666  35.466  34.933  1.00 19.51 LIG 0.25  C 
ATOM     25 O    ASP C   1      51.776  34.995  35.660  1.00 19.29 LIG-0.27  OA
ATOM     26 H    ARG C   2      54.019  34.971  33.619  1.00 19.42 LIG 0.16  HD
BRANCH 24 27
ATOM     27  CA  ASP C   1      53.038  36.933  35.052  1.00 19.04 LIG 0.28  C 
BRANCH 27 28
ATOM     28  CB  ASP C   1      52.246  37.727  34.045  1.00 21.34 LIG 0.15  C 
BRANCH 28 29
ATOM     29  CG  ASP C   1      52.985  37.850  32.687  1.00 23.67 LIG 0.17  C 
ATOM     30 OD2  ASP C   1      53.513  38.962  32.408  1.00 27.41 LIG-0.65  OA
ATOM     31 OD1  ASP C   1      53.019  36.857  31.890  1.00 20.87 LIG-0.65  OA
ENDBRANCH 28 29
ENDBRANCH 27 28
BRANCH 27 32
ATOM     32  N   ASP C   1      54.517  37.046  34.780  1.00 18.38 LIG-0.07  N 
ATOM     33 H1   ASP C   1      54.922  37.406  35.486  1.00 18.38 LIG 0.28  HD
ATOM     34 H3   ASP C   1      54.650  37.561  34.066  1.00 18.38 LIG 0.28  HD
ATOM     35 H2   ASP C   1      54.854  36.236  34.627  1.00 18.38 LIG 0.28  HD
ENDBRANCH 27 32
ENDBRANCH 24 27
ENDBRANCH 10 23
ENDBRANCH 8 10
ENDBRANCH 5 6
BRANCH 5 36
ATOM     36  CB  VAL C   3      52.403  28.761  35.146  1.00 17.74 LIG 0.01  C 
ATOM     37  CG1 VAL C   3      51.091  28.654  35.895  1.00 20.72 LIG 0.01  C 
ATOM     38  CG2 VAL C   3      52.102  28.615  33.665  1.00 18.64 LIG 0.01  C 
ENDBRANCH 5 36
ENDBRANCH 1 5
BRANCH 3 39
ATOM     39  CA  TYR C   4      56.895  29.565  35.860  1.00 17.90 LIG 0.18  C 
BRANCH 39 40
ATOM     40  CB  TYR C   4      57.713  30.315  36.867  1.00 20.19 LIG 0.07  C 
BRANCH 40 41
ATOM     41  CG  TYR C   4      57.424  31.787  36.991  1.00 23.00 LIG-0.06  A 
ATOM     42  CD2 TYR C   4      56.283  32.230  37.662  1.00 26.62 LIG 0.01  A 
ATOM     43  CE2 TYR C   4      55.995  33.575  37.783  1.00 28.63 LIG 0.04  A 
ATOM     44  CZ  TYR C   4      56.841  34.487  37.231  1.00 25.42 LIG 0.07  A 
ATOM     45  CE1 TYR C   4      57.979  34.096  36.611  1.00 26.89 LIG 0.04  A 
ATOM     46  CD1 TYR C   4      58.271  32.730  36.485  1.00 24.41 LIG 0.01  A 
BRANCH 44 47
ATOM     47 OH   TYR C   4      56.557  35.816  37.358  1.00 32.39 LIG-0.36  OA
ATOM     48 HH   TYR C   4      56.810  36.085  38.112  1.00 32.39 LIG 0.22  HD
ENDBRANCH 44 47
ENDBRANCH 40 41
ENDBRANCH 39 40
BRANCH 39 49
ATOM     49  C   TYR C   4      57.305  28.067  35.783  1.00 20.63 LIG 0.24  C 
ATOM     50 O    TYR C   4      58.060  27.671  34.938  1.00 19.73 LIG-0.27  OA
ATOM     51  N   ILE C   5      56.881  27.287  36.767  1.00 22.91 LIG-0.35  N 
ATOM     52 H    ILE C   5      56.441  27.568  37.450  1.00 22.91 LIG 0.16  HD
BRANCH 51 53
ATOM     53  CA  ILE C   5      57.140  25.859  36.758  1.00 27.58 LIG 0.18  C 
BRANCH 53 54
ATOM     54  C   ILE C   5      56.472  25.210  37.968  1.00 33.14 LIG 0.24  C 
ATOM     55  N   HIS C   6      56.602  23.884  38.101  1.00 39.14 LIG-0.35  N 
ATOM     56 H    HIS C   6      56.985  23.390  37.509  1.00 39.14 LIG 0.16  HD
ATOM     57 O    ILE C   5      55.771  25.914  38.690  1.00 25.88 LIG-0.27  OA
BRANCH 55 58
ATOM     58  CA  HIS C   6      56.095  23.108  39.290  1.00 56.87 LIG 0.17  C 
BRANCH 58 59
ATOM     59  CB  HIS C   6      57.198  22.156  39.838  1.00 66.39 LIG 0.09  C 
BRANCH 59 60
ATOM     60  CG  HIS C   6      57.700  21.142  38.849  1.00 78.50 LIG 0.06  A 
ATOM     61  CD2 HIS C   6      58.658  21.242  37.894  1.00 82.71 LIG 0.14  A 
ATOM     62 NE2  HIS C   6      58.768  20.010  37.291  1.00 84.02 LIG-0.25  NA
ATOM     63  CE1 HIS C   6      57.923  19.172  37.869  1.00 85.20 LIG 0.23  A 
ATOM     64 ND1  HIS C   6      57.270  19.826  38.817  1.00 88.66 LIG-0.24  NA
ENDBRANCH 59 60
ENDBRANCH 58 59
BRANCH 58 65
ATOM     65  C   HIS C   6      55.552  23.912  40.479  1.00 59.18 LIG 0.22  C 
ATOM     66 O    HIS C   6      55.879  23.613  41.658  1.00 63.69 LIG-0.29  OA
ENDBRANCH 58 65
ENDBRANCH 55 58
ENDBRANCH 53 54
BRANCH 53 67
ATOM     67  CB  ILE C   5      58.642  25.604  36.731  1.00 28.54 LIG 0.01  C 
ATOM     68  CG2 ILE C   5      59.214  25.919  38.111  1.00 32.34 LIG 0.01  C 
BRANCH 67 69
ATOM     69  CG1 ILE C   5      58.848  24.153  36.265  1.00 30.21 LIG 0.00  C 
ATOM     70  CD1 ILE C   5      60.275  23.713  36.056  1.00 32.85 LIG 0.01  C 
ENDBRANCH 67 69
ENDBRANCH 53 67
ENDBRANCH 51 53
ENDBRANCH 39 49
ENDBRANCH 3 39
TORSDOF 26
ENDMDL
MODEL 36
USER: ADFR SOLUTION from run 31
USER: SCORE 20.785927 LL:  -6.306 LR: -17.428 RR:   0.000 FEB:  -9.672
USER: RMSD 9.089735
USER: SEED 30
USER: STATUS no improvement in best in 9 clusters for 5 generations
USER: GENES 28
USER: genes 0 Translation |==|  0.53406 0.59419 0.54525
USER: genes 1 Rotation |==|  0.64549 0.11503 0.29886 0.70043
USER: genes 2 Torsion [N]-C--CA-[N] |==|  0.52345
USER: genes 3 Torsion [C]-CA--N-[C] |==|  0.19790
USER: genes 4 Torsion [N]-C--CA-[N] |==|  0.66324
USER: genes 5 Torsion [C]-CA--CB-[CG] |==|  0.28293
USER: genes 6 Torsion [CA]-CB--CG-[CD] |==|  0.89263
USER: genes 7 Torsion [CB]-CG--CD-[NE] |==|  0.41430
USER: genes 8 Torsion [CG]-CD--NE-[CZ] |==|  0.23427
USER: genes 9 Torsion [C]-CA--N-[C] |==|  0.15033
USER: genes 10 Torsion [N]-C--CA-[N] |==|  0.11425
USER: genes 11 Torsion [C]-CA--CB-[CG] |==|  0.52702
USER: genes 12 Torsion [CA]-CB--CG-[OD2] |==|  0.90342
USER: genes 13 Torsion [C]-CA--N-[H1] |==|  0.41585
USER: genes 14 Torsion [C]-CA--CB-[CG1] |==|  0.21164
USER: genes 15 Torsion [C]-N--CA-[CB] |==|  0.19290
USER: genes 16 Torsion [N]-CA--CB-[CG] |==|  0.17843
USER: genes 17 Torsion [CA]-CB--CG-[CD2] |==|  0.27372
USER: genes 18 Torsion [CE2]-CZ--OH-[HH] |==|  0.43963
USER: genes 19 Torsion [N]-CA--C-[N] |==|  0.89317
USER: genes 20 Torsion [C]-N--CA-[C] |==|  0.67500
USER: genes 21 Torsion [N]-CA--C-[N] |==|  0.72124
USER: genes 22 Torsion [C]-N--CA-[CB] |==|  0.39825
USER: genes 23 Torsion [N]-CA--CB-[CG] |==|  0.00962
USER: genes 24 Torsion [CA]-CB--CG-[CD2] |==|  0.29992
USER: genes 25 Torsion [N]-CA--C-[O] |==|  0.81753
USER: genes 26 Torsion [N]-CA--CB-[CG1] |==|  0.10547
USER: genes 27 Torsion [CA]-CB--CG1-[CD1] |==|  0.40014
ROOT
ATOM      1  C   VAL C   3      54.732  31.732  35.549  1.00 15.94 LIG 0.24  C 
ATOM      2 O    VAL C   3      55.216  32.845  35.485  1.00 17.86 LIG-0.27  OA
ATOM      3  N   TYR C   4      55.483  30.662  35.789  1.00 16.41 LIG-0.35  N 
ATOM      4 H    TYR C   4      55.178  29.859  35.822  1.00 16.41 LIG 0.16  HD
ENDROOT
BRANCH 1 5
ATOM      5  CA  VAL C   3      53.220  31.543  35.306  1.00 16.01 LIG 0.18  C 
BRANCH 5 6
ATOM      6  N   VAL C   3      52.692  32.852  34.868  1.00 15.77 LIG-0.35  N 
ATOM      7 H    VAL C   3      52.196  33.261  35.440  1.00 15.77 LIG 0.16  HD
ATOM      8  C   ARG C   2      52.998  33.309  33.665  1.00 16.54 LIG 0.24  C 
ATOM      9 O    ARG C   2      53.807  32.728  32.911  1.00 14.63 LIG-0.27  OA
BRANCH 8 10
ATOM     10  CA  ARG C   2      52.338  34.604  33.232  1.00 19.03 LIG 0.18  C 
BRANCH 10 11
ATOM     11  CB  ARG C   2      51.436  35.110  34.363  1.00 20.38 LIG 0.04  C 
BRANCH 11 12
ATOM     12  CG  ARG C   2      52.007  36.223  35.176  1.00 20.75 LIG 0.02  C 
BRANCH 12 13
ATOM     13  CD  ARG C   2      53.441  36.028  35.397  1.00 22.55 LIG 0.14  C 
BRANCH 13 14
ATOM     14  NE  ARG C   2      54.155  37.271  35.509  1.00 20.36 LIG-0.23  N 
ATOM     15  CZ  ARG C   2      54.269  37.968  36.620  1.00 23.11 LIG 0.67  C 
ATOM     16  NH1 ARG C   2      53.840  37.494  37.737  1.00 23.20 LIG-0.23  N 
ATOM     17  NH2 ARG C   2      54.927  39.133  36.594  1.00 25.55 LIG-0.23  N 
ATOM     18 1HH1 ARG C   2      53.476  36.715  37.762  1.00 23.20 LIG 0.17  HD
ATOM     19 2HH1 ARG C   2      53.920  37.955  38.459  1.00 23.20 LIG 0.17  HD
ATOM     20 2HH2 ARG C   2      55.009  39.597  37.313  1.00 25.55 LIG 0.17  HD
ATOM     21 1HH2 ARG C   2      55.269  39.417  35.857  1.00 25.55 LIG 0.17  HD
ATOM     22 HE   ARG C   2      54.532  37.580  34.802  1.00 20.36 LIG 0.18  HD
ENDBRANCH 13 14
ENDBRANCH 12 13
ENDBRANCH 11 12
ENDBRANCH 10 11
BRANCH 10 23
ATOM     23  N   ARG C   2      51.557  34.411  31.999  1.00 19.42 LIG-0.35  N 
ATOM     24  C   ASP C   1      50.633  33.461  31.945  1.00 19.51 LIG 0.25  C 
ATOM     25 O    ASP C   1      50.226  32.874  32.960  1.00 19.29 LIG-0.27  OA
ATOM     26 H    ARG C   2      51.750  34.946  31.354  1.00 19.42 LIG 0.16  HD
BRANCH 24 27
ATOM     27  CA  ASP C   1      50.085  33.076  30.582  1.00 19.04 LIG 0.28  C 
BRANCH 27 28
ATOM     28  CB  ASP C   1      49.429  31.723  30.678  1.00 21.34 LIG 0.15  C 
BRANCH 28 29
ATOM     29  CG  ASP C   1      49.059  31.153  29.284  1.00 23.67 LIG 0.17  C 
ATOM     30 OD2  ASP C   1      48.690  31.971  28.398  1.00 27.41 LIG-0.65  OA
ATOM     31 OD1  ASP C   1      49.107  29.896  29.079  1.00 20.87 LIG-0.65  OA
ENDBRANCH 28 29
ENDBRANCH 27 28
BRANCH 27 32
ATOM     32  N   ASP C   1      51.249  33.041  29.623  1.00 18.38 LIG-0.07  N 
ATOM     33 H1   ASP C   1      51.091  32.438  28.987  1.00 18.38 LIG 0.28  HD
ATOM     34 H3   ASP C   1      51.990  32.821  30.063  1.00 18.38 LIG 0.28  HD
ATOM     35 H2   ASP C   1      51.353  33.843  29.251  1.00 18.38 LIG 0.28  HD
ENDBRANCH 27 32
ENDBRANCH 24 27
ENDBRANCH 10 23
ENDBRANCH 8 10
ENDBRANCH 5 6
BRANCH 5 36
ATOM     36  CB  VAL C   3      53.058  30.465  34.258  1.00 17.74 LIG 0.01  C 
ATOM     37  CG1 VAL C   3      53.292  29.084  34.833  1.00 20.72 LIG 0.01  C 
ATOM     38  CG2 VAL C   3      51.662  30.486  33.661  1.00 18.64 LIG 0.01  C 
ENDBRANCH 5 36
ENDBRANCH 1 5
BRANCH 3 39
ATOM     39  CA  TYR C   4      56.918  30.771  36.021  1.00 17.90 LIG 0.18  C 
BRANCH 39 40
ATOM     40  CB  TYR C   4      57.196  31.434  37.335  1.00 20.19 LIG 0.07  C 
BRANCH 40 41
ATOM     41  CG  TYR C   4      56.736  30.692  38.561  1.00 23.00 LIG-0.06  A 
ATOM     42  CD2 TYR C   4      57.632  29.917  39.299  1.00 26.62 LIG 0.01  A 
ATOM     43  CE2 TYR C   4      57.230  29.224  40.423  1.00 28.63 LIG 0.04  A 
ATOM     44  CZ  TYR C   4      55.929  29.295  40.816  1.00 25.42 LIG 0.07  A 
ATOM     45  CE1 TYR C   4      55.041  30.070  40.151  1.00 26.89 LIG 0.04  A 
ATOM     46  CD1 TYR C   4      55.448  30.772  39.007  1.00 24.41 LIG 0.01  A 
BRANCH 44 47
ATOM     47 OH   TYR C   4      55.535  28.613  41.931  1.00 32.39 LIG-0.36  OA
ATOM     48 HH   TYR C   4      54.831  28.955  42.234  1.00 32.39 LIG 0.22  HD
ENDBRANCH 44 47
ENDBRANCH 40 41
ENDBRANCH 39 40
BRANCH 39 49
ATOM     49  C   TYR C   4      57.662  29.411  35.890  1.00 20.63 LIG 0.24  C 
ATOM     50 O    TYR C   4      58.791  29.356  35.486  1.00 19.73 LIG-0.27  OA
ATOM     51  N   ILE C   5      57.034  28.346  36.366  1.00 22.91 LIG-0.35  N 
ATOM     52 H    ILE C   5      56.276  28.373  36.771  1.00 22.91 LIG 0.16  HD
BRANCH 51 53
ATOM     53  CA  ILE C   5      57.601  27.016  36.230  1.00 27.58 LIG 0.18  C 
BRANCH 53 54
ATOM     54  C   ILE C   5      56.679  26.153  35.372  1.00 33.14 LIG 0.24  C 
ATOM     55  N   HIS C   6      55.870  25.299  36.012  1.00 39.14 LIG-0.35  N 
ATOM     56 H    HIS C   6      55.896  25.179  36.864  1.00 39.14 LIG 0.16  HD
ATOM     57 O    ILE C   5      56.802  26.209  34.151  1.00 25.88 LIG-0.27  OA
BRANCH 55 58
ATOM     58  CA  HIS C   6      54.829  24.454  35.322  1.00 56.87 LIG 0.17  C 
BRANCH 58 59
ATOM     59  CB  HIS C   6      54.723  23.053  35.992  1.00 66.39 LIG 0.09  C 
BRANCH 59 60
ATOM     60  CG  HIS C   6      55.594  22.869  37.203  1.00 78.50 LIG 0.06  A 
ATOM     61  CD2 HIS C   6      55.269  22.792  38.518  1.00 82.71 LIG 0.14  A 
ATOM     62 NE2  HIS C   6      56.434  22.571  39.216  1.00 84.02 LIG-0.25  NA
ATOM     63  CE1 HIS C   6      57.440  22.491  38.360  1.00 85.20 LIG 0.23  A 
ATOM     64 ND1  HIS C   6      56.961  22.660  37.137  1.00 88.66 LIG-0.24  NA
ENDBRANCH 59 60
ENDBRANCH 58 59
BRANCH 58 65
ATOM     65  C   HIS C   6      53.407  25.025  35.225  1.00 59.18 LIG 0.22  C 
ATOM     66 O    HIS C   6      52.718  25.207  36.265  1.00 63.69 LIG-0.29  OA
ENDBRANCH 58 65
ENDBRANCH 55 58
ENDBRANCH 53 54
BRANCH 53 67
ATOM     67  CB  ILE C   5      57.833  26.409  37.607  1.00 28.54 LIG 0.01  C 
ATOM     68  CG2 ILE C   5      59.205  26.854  38.110  1.00 32.34 LIG 0.01  C 
BRANCH 67 69
ATOM     69  CG1 ILE C   5      56.653  26.836  38.496  1.00 30.21 LIG 0.00  C 
ATOM     70  CD1 ILE C   5      56.172  25.823  39.504  1.00 32.85 LIG 0.01  C 
ENDBRANCH 67 69
ENDBRANCH 53 67
ENDBRANCH 51 53
ENDBRANCH 39 49
ENDBRANCH 3 39
TORSDOF 26
ENDMDL
MODEL 37
USER: ADFR SOLUTION from run 137
USER: SCORE 22.151246 LL:  -5.912 LR: -17.415 RR:   0.000 FEB:  -9.660
USER: RMSD 7.634231
USER: SEED 136
USER: STATUS no improvement in best in 22 clusters for 5 generations
USER: GENES 28
USER: genes 0 Translation |==|  0.42557 0.64477 0.47987
USER: genes 1 Rotation |==|  0.30174 0.23134 0.16938 0.67090
USER: genes 2 Torsion [N]-C--CA-[N] |==|  0.36461
USER: genes 3 Torsion [C]-CA--N-[C] |==|  0.88284
USER: genes 4 Torsion [N]-C--CA-[N] |==|  0.03429
USER: genes 5 Torsion [C]-CA--CB-[CG] |==|  0.23118
USER: genes 6 Torsion [CA]-CB--CG-[CD] |==|  0.66776
USER: genes 7 Torsion [CB]-CG--CD-[NE] |==|  0.72112
USER: genes 8 Torsion [CG]-CD--NE-[CZ] |==|  0.46480
USER: genes 9 Torsion [C]-CA--N-[C] |==|  0.17990
USER: genes 10 Torsion [N]-C--CA-[N] |==|  0.39029
USER: genes 11 Torsion [C]-CA--CB-[CG] |==|  0.47525
USER: genes 12 Torsion [CA]-CB--CG-[OD2] |==|  0.21343
USER: genes 13 Torsion [C]-CA--N-[H1] |==|  0.06750
USER: genes 14 Torsion [C]-CA--CB-[CG1] |==|  0.67038
USER: genes 15 Torsion [C]-N--CA-[CB] |==|  0.51358
USER: genes 16 Torsion [N]-CA--CB-[CG] |==|  0.49298
USER: genes 17 Torsion [CA]-CB--CG-[CD2] |==|  0.66183
USER: genes 18 Torsion [CE2]-CZ--OH-[HH] |==|  0.82240
USER: genes 19 Torsion [N]-CA--C-[N] |==|  0.39552
USER: genes 20 Torsion [C]-N--CA-[C] |==|  0.81667
USER: genes 21 Torsion [N]-CA--C-[N] |==|  0.35568
USER: genes 22 Torsion [C]-N--CA-[CB] |==|  0.32408
USER: genes 23 Torsion [N]-CA--CB-[CG] |==|  0.92335
USER: genes 24 Torsion [CA]-CB--CG-[CD2] |==|  0.28440
USER: genes 25 Torsion [N]-CA--C-[O] |==|  0.79466
USER: genes 26 Torsion [N]-CA--CB-[CG1] |==|  0.81856
USER: genes 27 Torsion [CA]-CB--CG1-[CD1] |==|  0.46844
ROOT
ATOM      1  C   VAL C   3      52.860  33.022  33.833  1.00 15.94 LIG 0.24  C 
ATOM      2 O    VAL C   3      53.771  33.005  33.028  1.00 17.86 LIG-0.27  OA
ATOM      3  N   TYR C   4      52.061  31.972  33.996  1.00 16.41 LIG-0.35  N 
ATOM      4 H    TYR C   4      51.396  31.956  34.541  1.00 16.41 LIG 0.16  HD
ENDROOT
BRANCH 1 5
ATOM      5  CA  VAL C   3      52.594  34.298  34.656  1.00 16.01 LIG 0.18  C 
BRANCH 5 6
ATOM      6  N   VAL C   3      53.887  34.701  35.249  1.00 15.77 LIG-0.35  N 
ATOM      7 H    VAL C   3      54.055  35.545  35.228  1.00 15.77 LIG 0.16  HD
ATOM      8  C   ARG C   2      54.686  33.779  35.759  1.00 16.54 LIG 0.24  C 
ATOM      9 O    ARG C   2      54.350  32.579  35.860  1.00 14.63 LIG-0.27  OA
BRANCH 8 10
ATOM     10  CA  ARG C   2      56.043  34.240  36.251  1.00 19.03 LIG 0.18  C 
BRANCH 10 11
ATOM     11  CB  ARG C   2      56.318  33.619  37.625  1.00 20.38 LIG 0.04  C 
BRANCH 11 12
ATOM     12  CG  ARG C   2      56.864  32.232  37.593  1.00 20.75 LIG 0.02  C 
BRANCH 12 13
ATOM     13  CD  ARG C   2      55.968  31.300  38.280  1.00 22.55 LIG 0.14  C 
BRANCH 13 14
ATOM     14  NE  ARG C   2      56.411  30.992  39.613  1.00 20.36 LIG-0.23  N 
ATOM     15  CZ  ARG C   2      55.680  30.380  40.520  1.00 23.11 LIG 0.67  C 
ATOM     16  NH1 ARG C   2      54.528  29.893  40.213  1.00 23.20 LIG-0.23  N 
ATOM     17  NH2 ARG C   2      56.188  30.181  41.742  1.00 25.55 LIG-0.23  N 
ATOM     18 1HH1 ARG C   2      54.231  29.966  39.409  1.00 23.20 LIG 0.17  HD
ATOM     19 2HH1 ARG C   2      54.057  29.495  40.812  1.00 23.20 LIG 0.17  HD
ATOM     20 2HH2 ARG C   2      55.720  29.782  42.343  1.00 25.55 LIG 0.17  HD
ATOM     21 1HH2 ARG C   2      56.984  30.451  41.926  1.00 25.55 LIG 0.17  HD
ATOM     22 HE   ARG C   2      57.210  31.223  39.832  1.00 20.36 LIG 0.18  HD
ENDBRANCH 13 14
ENDBRANCH 12 13
ENDBRANCH 11 12
ENDBRANCH 10 11
BRANCH 10 23
ATOM     23  N   ARG C   2      56.104  35.709  36.329  1.00 19.42 LIG-0.35  N 
ATOM     24  C   ASP C   1      55.326  36.357  37.185  1.00 19.51 LIG 0.25  C 
ATOM     25 O    ASP C   1      54.713  35.775  38.095  1.00 19.29 LIG-0.27  OA
ATOM     26 H    ARG C   2      56.664  36.083  35.794  1.00 19.42 LIG 0.16  HD
BRANCH 24 27
ATOM     27  CA  ASP C   1      55.174  37.859  37.016  1.00 19.04 LIG 0.28  C 
BRANCH 27 28
ATOM     28  CB  ASP C   1      56.086  38.561  37.988  1.00 21.34 LIG 0.15  C 
BRANCH 28 29
ATOM     29  CG  ASP C   1      56.154  40.088  37.728  1.00 23.67 LIG 0.17  C 
ATOM     30 OD2  ASP C   1      55.178  40.790  38.112  1.00 27.41 LIG-0.65  OA
ATOM     31 OD1  ASP C   1      57.158  40.584  37.121  1.00 20.87 LIG-0.65  OA
ENDBRANCH 28 29
ENDBRANCH 27 28
BRANCH 27 32
ATOM     32  N   ASP C   1      53.731  38.199  37.293  1.00 18.38 LIG-0.07  N 
ATOM     33 H1   ASP C   1      53.374  37.572  37.815  1.00 18.38 LIG 0.28  HD
ATOM     34 H3   ASP C   1      53.282  38.237  36.526  1.00 18.38 LIG 0.28  HD
ATOM     35 H2   ASP C   1      53.684  38.987  37.702  1.00 18.38 LIG 0.28  HD
ENDBRANCH 27 32
ENDBRANCH 24 27
ENDBRANCH 10 23
ENDBRANCH 8 10
ENDBRANCH 5 6
BRANCH 5 36
ATOM     36  CB  VAL C   3      52.029  35.339  33.715  1.00 17.74 LIG 0.01  C 
ATOM     37  CG1 VAL C   3      52.920  36.561  33.632  1.00 20.72 LIG 0.01  C 
ATOM     38  CG2 VAL C   3      51.875  34.783  32.311  1.00 18.64 LIG 0.01  C 
ENDBRANCH 5 36
ENDBRANCH 1 5
BRANCH 3 39
ATOM     39  CA  TYR C   4      52.255  30.738  33.244  1.00 17.90 LIG 0.18  C 
BRANCH 39 40
ATOM     40  CB  TYR C   4      51.154  29.763  33.528  1.00 20.19 LIG 0.07  C 
BRANCH 40 41
ATOM     41  CG  TYR C   4      51.207  28.466  32.765  1.00 23.00 LIG-0.06  A 
ATOM     42  CD2 TYR C   4      50.142  28.080  31.950  1.00 26.62 LIG 0.01  A 
ATOM     43  CE2 TYR C   4      50.166  26.892  31.247  1.00 28.63 LIG 0.04  A 
ATOM     44  CZ  TYR C   4      51.252  26.079  31.355  1.00 25.42 LIG 0.07  A 
ATOM     45  CE1 TYR C   4      52.322  26.441  32.101  1.00 26.89 LIG 0.04  A 
ATOM     46  CD1 TYR C   4      52.296  27.645  32.819  1.00 24.41 LIG 0.01  A 
BRANCH 44 47
ATOM     47 OH   TYR C   4      51.276  24.909  30.653  1.00 32.39 LIG-0.36  OA
ATOM     48 HH   TYR C   4      50.661  24.406  30.926  1.00 32.39 LIG 0.22  HD
ENDBRANCH 44 47
ENDBRANCH 40 41
ENDBRANCH 39 40
BRANCH 39 49
ATOM     49  C   TYR C   4      52.437  30.976  31.717  1.00 20.63 LIG 0.24  C 
ATOM     50 O    TYR C   4      51.899  31.893  31.161  1.00 19.73 LIG-0.27  OA
ATOM     51  N   ILE C   5      53.311  30.195  31.099  1.00 22.91 LIG-0.35  N 
ATOM     52 H    ILE C   5      53.801  29.610  31.495  1.00 22.91 LIG 0.16  HD
BRANCH 51 53
ATOM     53  CA  ILE C   5      53.507  30.277  29.663  1.00 27.58 LIG 0.18  C 
BRANCH 53 54
ATOM     54  C   ILE C   5      52.237  29.824  28.946  1.00 33.14 LIG 0.24  C 
ATOM     55  N   HIS C   6      51.731  30.646  28.018  1.00 39.14 LIG-0.35  N 
ATOM     56 H    HIS C   6      52.055  31.428  27.860  1.00 39.14 LIG 0.16  HD
ATOM     57 O    ILE C   5      51.692  28.792  29.329  1.00 25.88 LIG-0.27  OA
BRANCH 55 58
ATOM     58  CA  HIS C   6      50.548  30.302  27.149  1.00 56.87 LIG 0.17  C 
BRANCH 58 59
ATOM     59  CB  HIS C   6      49.361  31.269  27.426  1.00 66.39 LIG 0.09  C 
BRANCH 59 60
ATOM     60  CG  HIS C   6      49.333  31.847  28.813  1.00 78.50 LIG 0.06  A 
ATOM     61  CD2 HIS C   6      49.693  33.075  29.262  1.00 82.71 LIG 0.14  A 
ATOM     62 NE2  HIS C   6      49.425  33.113  30.612  1.00 84.02 LIG-0.25  NA
ATOM     63  CE1 HIS C   6      48.898  31.956  30.979  1.00 85.20 LIG 0.23  A 
ATOM     64 ND1  HIS C   6      48.824  31.176  29.912  1.00 88.66 LIG-0.24  NA
ENDBRANCH 59 60
ENDBRANCH 58 59
BRANCH 58 65
ATOM     65  C   HIS C   6      50.772  30.274  25.630  1.00 59.18 LIG 0.22  C 
ATOM     66 O    HIS C   6      50.900  31.347  24.982  1.00 63.69 LIG-0.29  OA
ENDBRANCH 58 65
ENDBRANCH 55 58
ENDBRANCH 53 54
BRANCH 53 67
ATOM     67  CB  ILE C   5      54.718  29.448  29.257  1.00 28.54 LIG 0.01  C 
ATOM     68  CG2 ILE C   5      54.754  29.354  27.733  1.00 32.34 LIG 0.01  C 
BRANCH 67 69
ATOM     69  CG1 ILE C   5      55.953  30.109  29.890  1.00 30.21 LIG 0.00  C 
ATOM     70  CD1 ILE C   5      57.235  29.316  29.845  1.00 32.85 LIG 0.01  C 
ENDBRANCH 67 69
ENDBRANCH 53 67
ENDBRANCH 51 53
ENDBRANCH 39 49
ENDBRANCH 3 39
TORSDOF 26
ENDMDL
MODEL 38
USER: ADFR SOLUTION from run 171
USER: SCORE 21.668139 LL:  -6.187 LR: -17.401 RR:   0.000 FEB:  -9.645
USER: RMSD 9.319417
USER: SEED 170
USER: STATUS no improvement in best in 14 clusters for 5 generations
USER: GENES 28
USER: genes 0 Translation |==|  0.51650 0.50635 0.51091
USER: genes 1 Rotation |==|  0.43176 0.12004 0.47492 0.81677
USER: genes 2 Torsion [N]-C--CA-[N] |==|  0.42650
USER: genes 3 Torsion [C]-CA--N-[C] |==|  0.82113
USER: genes 4 Torsion [N]-C--CA-[N] |==|  0.46374
USER: genes 5 Torsion [C]-CA--CB-[CG] |==|  0.19791
USER: genes 6 Torsion [CA]-CB--CG-[CD] |==|  0.23720
USER: genes 7 Torsion [CB]-CG--CD-[NE] |==|  0.18625
USER: genes 8 Torsion [CG]-CD--NE-[CZ] |==|  0.25279
USER: genes 9 Torsion [C]-CA--N-[C] |==|  0.73889
USER: genes 10 Torsion [N]-C--CA-[N] |==|  0.92991
USER: genes 11 Torsion [C]-CA--CB-[CG] |==|  0.74797
USER: genes 12 Torsion [CA]-CB--CG-[OD2] |==|  0.68271
USER: genes 13 Torsion [C]-CA--N-[H1] |==|  0.16668
USER: genes 14 Torsion [C]-CA--CB-[CG1] |==|  0.58291
USER: genes 15 Torsion [C]-N--CA-[CB] |==|  0.34927
USER: genes 16 Torsion [N]-CA--CB-[CG] |==|  0.94337
USER: genes 17 Torsion [CA]-CB--CG-[CD2] |==|  0.72391
USER: genes 18 Torsion [CE2]-CZ--OH-[HH] |==|  0.43814
USER: genes 19 Torsion [N]-CA--C-[N] |==|  0.65852
USER: genes 20 Torsion [C]-N--CA-[C] |==|  0.80613
USER: genes 21 Torsion [N]-CA--C-[N] |==|  0.90101
USER: genes 22 Torsion [C]-N--CA-[CB] |==|  0.45237
USER: genes 23 Torsion [N]-CA--CB-[CG] |==|  0.73457
USER: genes 24 Torsion [CA]-CB--CG-[CD2] |==|  0.59370
USER: genes 25 Torsion [N]-CA--C-[O] |==|  0.96314
USER: genes 26 Torsion [N]-CA--CB-[CG1] |==|  0.52280
USER: genes 27 Torsion [CA]-CB--CG1-[CD1] |==|  0.59326
ROOT
ATOM      1  C   VAL C   3      54.429  29.492  34.647  1.00 15.94 LIG 0.24  C 
ATOM      2 O    VAL C   3      54.693  29.769  33.494  1.00 17.86 LIG-0.27  OA
ATOM      3  N   TYR C   4      55.306  28.871  35.429  1.00 16.41 LIG-0.35  N 
ATOM      4 H    TYR C   4      55.147  28.643  36.243  1.00 16.41 LIG 0.16  HD
ENDROOT
BRANCH 1 5
ATOM      5  CA  VAL C   3      53.033  29.826  35.211  1.00 16.01 LIG 0.18  C 
BRANCH 5 6
ATOM      6  N   VAL C   3      52.539  31.000  34.461  1.00 15.77 LIG-0.35  N 
ATOM      7 H    VAL C   3      51.839  30.863  33.979  1.00 15.77 LIG 0.16  HD
ATOM      8  C   ARG C   2      53.176  32.155  34.565  1.00 16.54 LIG 0.24  C 
ATOM      9 O    ARG C   2      54.125  32.330  35.359  1.00 14.63 LIG-0.27  OA
BRANCH 8 10
ATOM     10  CA  ARG C   2      52.688  33.291  33.687  1.00 19.03 LIG 0.18  C 
BRANCH 10 11
ATOM     11  CB  ARG C   2      53.064  32.997  32.231  1.00 20.38 LIG 0.04  C 
BRANCH 11 12
ATOM     12  CG  ARG C   2      52.289  31.897  31.588  1.00 20.75 LIG 0.02  C 
BRANCH 12 13
ATOM     13  CD  ARG C   2      51.030  32.397  31.034  1.00 22.55 LIG 0.14  C 
BRANCH 13 14
ATOM     14  NE  ARG C   2      51.233  33.290  29.925  1.00 20.36 LIG-0.23  N 
ATOM     15  CZ  ARG C   2      51.286  32.914  28.665  1.00 23.11 LIG 0.67  C 
ATOM     16  NH1 ARG C   2      51.024  31.699  28.332  1.00 23.20 LIG-0.23  N 
ATOM     17  NH2 ARG C   2      51.519  33.833  27.720  1.00 25.55 LIG-0.23  N 
ATOM     18 1HH1 ARG C   2      50.811  31.124  28.935  1.00 23.20 LIG 0.17  HD
ATOM     19 2HH1 ARG C   2      51.060  31.462  27.506  1.00 23.20 LIG 0.17  HD
ATOM     20 2HH2 ARG C   2      51.556  33.600  26.893  1.00 25.55 LIG 0.17  HD
ATOM     21 1HH2 ARG C   2      51.631  34.658  27.940  1.00 25.55 LIG 0.17  HD
ATOM     22 HE   ARG C   2      51.326  34.127  30.098  1.00 20.36 LIG 0.18  HD
ENDBRANCH 13 14
ENDBRANCH 12 13
ENDBRANCH 11 12
ENDBRANCH 10 11
BRANCH 10 23
ATOM     23  N   ARG C   2      53.265  34.575  34.119  1.00 19.42 LIG-0.35  N 
ATOM     24  C   ASP C   1      52.593  35.351  34.958  1.00 19.51 LIG 0.25  C 
ATOM     25 O    ASP C   1      51.602  34.945  35.587  1.00 19.29 LIG-0.27  OA
ATOM     26 H    ARG C   2      54.037  34.760  33.789  1.00 19.42 LIG 0.16  HD
BRANCH 24 27
ATOM     27  CA  ASP C   1      53.053  36.789  35.124  1.00 19.04 LIG 0.28  C 
BRANCH 27 28
ATOM     28  CB  ASP C   1      52.251  37.672  34.204  1.00 21.34 LIG 0.15  C 
BRANCH 28 29
ATOM     29  CG  ASP C   1      52.926  37.837  32.817  1.00 23.67 LIG 0.17  C 
ATOM     30 OD2  ASP C   1      53.342  38.986  32.502  1.00 27.41 LIG-0.65  OA
ATOM     31 OD1  ASP C   1      53.019  36.836  32.034  1.00 20.87 LIG-0.65  OA
ENDBRANCH 28 29
ENDBRANCH 27 28
BRANCH 27 32
ATOM     32  N   ASP C   1      54.518  36.836  34.771  1.00 18.38 LIG-0.07  N 
ATOM     33 H1   ASP C   1      54.630  36.568  33.929  1.00 18.38 LIG 0.28  HD
ATOM     34 H3   ASP C   1      54.973  36.299  35.316  1.00 18.38 LIG 0.28  HD
ATOM     35 H2   ASP C   1      54.819  37.669  34.858  1.00 18.38 LIG 0.28  HD
ENDBRANCH 27 32
ENDBRANCH 24 27
ENDBRANCH 10 23
ENDBRANCH 8 10
ENDBRANCH 5 6
BRANCH 5 36
ATOM     36  CB  VAL C   3      52.161  28.603  35.026  1.00 17.74 LIG 0.01  C 
ATOM     37  CG1 VAL C   3      50.705  28.975  34.844  1.00 20.72 LIG 0.01  C 
ATOM     38  CG2 VAL C   3      52.590  27.803  33.809  1.00 18.64 LIG 0.01  C 
ENDBRANCH 5 36
ENDBRANCH 1 5
BRANCH 3 39
ATOM     39  CA  TYR C   4      56.640  28.522  34.956  1.00 17.90 LIG 0.18  C 
BRANCH 39 40
ATOM     40  CB  TYR C   4      57.691  29.072  35.871  1.00 20.19 LIG 0.07  C 
BRANCH 40 41
ATOM     41  CG  TYR C   4      57.267  30.213  36.756  1.00 23.00 LIG-0.06  A 
ATOM     42  CD2 TYR C   4      57.573  31.530  36.411  1.00 26.62 LIG 0.01  A 
ATOM     43  CE2 TYR C   4      57.199  32.591  37.211  1.00 28.63 LIG 0.04  A 
ATOM     44  CZ  TYR C   4      56.519  32.345  38.364  1.00 25.42 LIG 0.07  A 
ATOM     45  CE1 TYR C   4      56.166  31.085  38.709  1.00 26.89 LIG 0.04  A 
ATOM     46  CD1 TYR C   4      56.549  30.006  37.899  1.00 24.41 LIG 0.01  A 
BRANCH 44 47
ATOM     47 OH   TYR C   4      56.145  33.396  39.149  1.00 32.39 LIG-0.36  OA
ATOM     48 HH   TYR C   4      55.501  33.166  39.637  1.00 32.39 LIG 0.22  HD
ENDBRANCH 44 47
ENDBRANCH 40 41
ENDBRANCH 39 40
BRANCH 39 49
ATOM     49  C   TYR C   4      56.823  26.996  34.717  1.00 20.63 LIG 0.24  C 
ATOM     50 O    TYR C   4      56.180  26.414  33.887  1.00 19.73 LIG-0.27  OA
ATOM     51  N   ILE C   5      57.807  26.409  35.382  1.00 22.91 LIG-0.35  N 
ATOM     52 H    ILE C   5      58.362  26.824  35.891  1.00 22.91 LIG 0.16  HD
BRANCH 51 53
ATOM     53  CA  ILE C   5      58.022  24.975  35.294  1.00 27.58 LIG 0.18  C 
BRANCH 53 54
ATOM     54  C   ILE C   5      56.887  24.243  36.005  1.00 33.14 LIG 0.24  C 
ATOM     55  N   HIS C   6      56.385  24.816  37.106  1.00 39.14 LIG-0.35  N 
ATOM     56 H    HIS C   6      56.713  25.533  37.451  1.00 39.14 LIG 0.16  HD
ATOM     57 O    ILE C   5      56.570  23.128  35.598  1.00 25.88 LIG-0.27  OA
BRANCH 55 58
ATOM     58  CA  HIS C   6      55.196  24.279  37.863  1.00 56.87 LIG 0.17  C 
BRANCH 58 59
ATOM     59  CB  HIS C   6      55.129  24.893  39.292  1.00 66.39 LIG 0.09  C 
BRANCH 59 60
ATOM     60  CG  HIS C   6      55.755  24.051  40.367  1.00 78.50 LIG 0.06  A 
ATOM     61  CD2 HIS C   6      55.414  23.890  41.670  1.00 82.71 LIG 0.14  A 
ATOM     62 NE2  HIS C   6      56.282  22.968  42.210  1.00 84.02 LIG-0.25  NA
ATOM     63  CE1 HIS C   6      57.115  22.557  41.268  1.00 85.20 LIG 0.23  A 
ATOM     64 ND1  HIS C   6      56.815  23.189  40.143  1.00 88.66 LIG-0.24  NA
ENDBRANCH 59 60
ENDBRANCH 58 59
BRANCH 58 65
ATOM     65  C   HIS C   6      53.813  24.455  37.222  1.00 59.18 LIG 0.22  C 
ATOM     66 O    HIS C   6      53.654  25.235  36.245  1.00 63.69 LIG-0.29  OA
ENDBRANCH 58 65
ENDBRANCH 55 58
ENDBRANCH 53 54
BRANCH 53 67
ATOM     67  CB  ILE C   5      59.384  24.619  35.875  1.00 28.54 LIG 0.01  C 
ATOM     68  CG2 ILE C   5      59.385  24.970  37.361  1.00 32.34 LIG 0.01  C 
BRANCH 67 69
ATOM     69  CG1 ILE C   5      59.636  23.134  35.564  1.00 30.21 LIG 0.00  C 
ATOM     70  CD1 ILE C   5      60.417  22.357  36.594  1.00 32.85 LIG 0.01  C 
ENDBRANCH 67 69
ENDBRANCH 53 67
ENDBRANCH 51 53
ENDBRANCH 39 49
ENDBRANCH 3 39
TORSDOF 26
ENDMDL
MODEL 39
USER: ADFR SOLUTION from run 7
USER: SCORE 20.635961 LL:  -5.138 LR: -17.398 RR:   0.000 FEB:  -9.642
USER: RMSD 10.261923
USER: SEED 215705
USER: STATUS no improvement in best in 17 clusters for 5 generations
USER: GENES 28
USER: genes 0 Translation |==|  0.46575 0.54326 0.52389
USER: genes 1 Rotation |==|  0.71550 0.12196 0.28937 0.62760
USER: genes 2 Torsion [N]-C--CA-[N] |==|  0.52180
USER: genes 3 Torsion [C]-CA--N-[C] |==|  0.16115
USER: genes 4 Torsion [N]-C--CA-[N] |==|  0.34246
USER: genes 5 Torsion [C]-CA--CB-[CG] |==|  0.11897
USER: genes 6 Torsion [CA]-CB--CG-[CD] |==|  0.69511
USER: genes 7 Torsion [CB]-CG--CD-[NE] |==|  0.00262
USER: genes 8 Torsion [CG]-CD--NE-[CZ] |==|  0.36383
USER: genes 9 Torsion [C]-CA--N-[C] |==|  0.70664
USER: genes 10 Torsion [N]-C--CA-[N] |==|  0.87987
USER: genes 11 Torsion [C]-CA--CB-[CG] |==|  0.75897
USER: genes 12 Torsion [CA]-CB--CG-[OD2] |==|  0.66772
USER: genes 13 Torsion [C]-CA--N-[H1] |==|  0.07187
USER: genes 14 Torsion [C]-CA--CB-[CG1] |==|  0.21173
USER: genes 15 Torsion [C]-N--CA-[CB] |==|  0.13466
USER: genes 16 Torsion [N]-CA--CB-[CG] |==|  0.62195
USER: genes 17 Torsion [CA]-CB--CG-[CD2] |==|  0.25917
USER: genes 18 Torsion [CE2]-CZ--OH-[HH] |==|  0.76886
USER: genes 19 Torsion [N]-CA--C-[N] |==|  0.65619
USER: genes 20 Torsion [C]-N--CA-[C] |==|  0.58414
USER: genes 21 Torsion [N]-CA--C-[N] |==|  0.39564
USER: genes 22 Torsion [C]-N--CA-[CB] |==|  0.25172
USER: genes 23 Torsion [N]-CA--CB-[CG] |==|  0.64957
USER: genes 24 Torsion [CA]-CB--CG-[CD2] |==|  0.53480
USER: genes 25 Torsion [N]-CA--C-[O] |==|  0.49061
USER: genes 26 Torsion [N]-CA--CB-[CG1] |==|  0.55600
USER: genes 27 Torsion [CA]-CB--CG1-[CD1] |==|  0.26451
ROOT
ATOM      1  C   VAL C   3      53.553  30.433  34.988  1.00 15.94 LIG 0.24  C 
ATOM      2 O    VAL C   3      53.890  31.551  35.327  1.00 17.86 LIG-0.27  OA
ATOM      3  N   TYR C   4      54.328  29.377  35.216  1.00 16.41 LIG-0.35  N 
ATOM      4 H    TYR C   4      54.131  28.576  34.974  1.00 16.41 LIG 0.16  HD
ENDROOT
BRANCH 1 5
ATOM      5  CA  VAL C   3      52.219  30.232  34.241  1.00 16.01 LIG 0.18  C 
BRANCH 5 6
ATOM      6  N   VAL C   3      51.677  31.579  33.967  1.00 15.77 LIG-0.35  N 
ATOM      7 H    VAL C   3      50.894  31.735  34.288  1.00 15.77 LIG 0.16  HD
ATOM      8  C   ARG C   2      52.396  32.442  33.268  1.00 16.54 LIG 0.24  C 
ATOM      9 O    ARG C   2      53.570  32.206  32.912  1.00 14.63 LIG-0.27  OA
BRANCH 8 10
ATOM     10  CA  ARG C   2      51.741  33.766  32.926  1.00 19.03 LIG 0.18  C 
BRANCH 10 11
ATOM     11  CB  ARG C   2      51.563  33.861  31.407  1.00 20.38 LIG 0.04  C 
BRANCH 11 12
ATOM     12  CG  ARG C   2      51.075  32.615  30.749  1.00 20.75 LIG 0.02  C 
BRANCH 12 13
ATOM     13  CD  ARG C   2      52.130  32.001  29.941  1.00 22.55 LIG 0.14  C 
BRANCH 13 14
ATOM     14  NE  ARG C   2      53.366  32.733  30.001  1.00 20.36 LIG-0.23  N 
ATOM     15  CZ  ARG C   2      54.542  32.194  30.239  1.00 23.11 LIG 0.67  C 
ATOM     16  NH1 ARG C   2      54.674  30.915  30.309  1.00 23.20 LIG-0.23  N 
ATOM     17  NH2 ARG C   2      55.620  32.984  30.309  1.00 25.55 LIG-0.23  N 
ATOM     18 1HH1 ARG C   2      53.990  30.406  30.199  1.00 23.20 LIG 0.17  HD
ATOM     19 2HH1 ARG C   2      55.446  30.571  30.465  1.00 23.20 LIG 0.17  HD
ATOM     20 2HH2 ARG C   2      56.394  32.643  30.464  1.00 25.55 LIG 0.17  HD
ATOM     21 1HH2 ARG C   2      55.538  33.833  30.198  1.00 25.55 LIG 0.17  HD
ATOM     22 HE   ARG C   2      53.333  33.583  29.872  1.00 20.36 LIG 0.18  HD
ENDBRANCH 13 14
ENDBRANCH 12 13
ENDBRANCH 11 12
ENDBRANCH 10 11
BRANCH 10 23
ATOM     23  N   ARG C   2      52.545  34.895  33.422  1.00 19.42 LIG-0.35  N 
ATOM     24  C   ASP C   1      52.143  35.573  34.488  1.00 19.51 LIG 0.25  C 
ATOM     25 O    ASP C   1      51.242  35.160  35.235  1.00 19.29 LIG-0.27  OA
ATOM     26 H    ARG C   2      53.260  35.061  32.975  1.00 19.42 LIG 0.16  HD
BRANCH 24 27
ATOM     27  CA  ASP C   1      52.804  36.910  34.774  1.00 19.04 LIG 0.28  C 
BRANCH 27 28
ATOM     28  CB  ASP C   1      52.242  37.949  33.837  1.00 21.34 LIG 0.15  C 
BRANCH 28 29
ATOM     29  CG  ASP C   1      53.005  37.991  32.487  1.00 23.67 LIG 0.17  C 
ATOM     30 OD2  ASP C   1      53.571  39.073  32.170  1.00 27.41 LIG-0.65  OA
ATOM     31 OD1  ASP C   1      53.019  36.963  31.734  1.00 20.87 LIG-0.65  OA
ENDBRANCH 28 29
ENDBRANCH 27 28
BRANCH 27 32
ATOM     32  N   ASP C   1      54.286  36.736  34.555  1.00 18.38 LIG-0.07  N 
ATOM     33 H1   ASP C   1      54.425  36.073  33.977  1.00 18.38 LIG 0.28  HD
ATOM     34 H3   ASP C   1      54.680  36.542  35.328  1.00 18.38 LIG 0.28  HD
ATOM     35 H2   ASP C   1      54.629  37.489  34.228  1.00 18.38 LIG 0.28  HD
ENDBRANCH 27 32
ENDBRANCH 24 27
ENDBRANCH 10 23
ENDBRANCH 8 10
ENDBRANCH 5 6
BRANCH 5 36
ATOM     36  CB  VAL C   3      52.516  29.451  32.979  1.00 17.74 LIG 0.01  C 
ATOM     37  CG1 VAL C   3      52.748  27.984  33.270  1.00 20.72 LIG 0.01  C 
ATOM     38  CG2 VAL C   3      51.369  29.551  31.990  1.00 18.64 LIG 0.01  C 
ENDBRANCH 5 36
ENDBRANCH 1 5
BRANCH 3 39
ATOM     39  CA  TYR C   4      55.603  29.500  35.912  1.00 17.90 LIG 0.18  C 
BRANCH 39 40
ATOM     40  CB  TYR C   4      55.450  30.301  37.168  1.00 20.19 LIG 0.07  C 
BRANCH 40 41
ATOM     41  CG  TYR C   4      56.517  31.330  37.431  1.00 23.00 LIG-0.06  A 
ATOM     42  CD2 TYR C   4      56.347  32.651  37.014  1.00 26.62 LIG 0.01  A 
ATOM     43  CE2 TYR C   4      57.315  33.609  37.239  1.00 28.63 LIG 0.04  A 
ATOM     44  CZ  TYR C   4      58.462  33.254  37.880  1.00 25.42 LIG 0.07  A 
ATOM     45  CE1 TYR C   4      58.644  31.994  38.338  1.00 26.89 LIG 0.04  A 
ATOM     46  CD1 TYR C   4      57.663  31.019  38.106  1.00 24.41 LIG 0.01  A 
BRANCH 44 47
ATOM     47 OH   TYR C   4      59.415  34.205  38.108  1.00 32.39 LIG-0.36  OA
ATOM     48 HH   TYR C   4      59.890  34.295  37.421  1.00 32.39 LIG 0.22  HD
ENDBRANCH 44 47
ENDBRANCH 40 41
ENDBRANCH 39 40
BRANCH 39 49
ATOM     49  C   TYR C   4      56.287  28.129  36.181  1.00 20.63 LIG 0.24  C 
ATOM     50 O    TYR C   4      56.629  27.416  35.278  1.00 19.73 LIG-0.27  OA
ATOM     51  N   ILE C   5      56.583  27.855  37.443  1.00 22.91 LIG-0.35  N 
ATOM     52 H    ILE C   5      56.460  28.399  38.097  1.00 22.91 LIG 0.16  HD
BRANCH 51 53
ATOM     53  CA  ILE C   5      57.153  26.574  37.819  1.00 27.58 LIG 0.18  C 
BRANCH 53 54
ATOM     54  C   ILE C   5      56.716  26.217  39.238  1.00 33.14 LIG 0.24  C 
ATOM     55  N   HIS C   6      56.446  24.929  39.489  1.00 39.14 LIG-0.35  N 
ATOM     56 H    HIS C   6      56.450  24.323  38.878  1.00 39.14 LIG 0.16  HD
ATOM     57 O    ILE C   5      56.535  27.131  40.037  1.00 25.88 LIG-0.27  OA
BRANCH 55 58
ATOM     58  CA  HIS C   6      56.106  24.396  40.858  1.00 56.87 LIG 0.17  C 
BRANCH 58 59
ATOM     59  CB  HIS C   6      54.568  24.433  41.097  1.00 66.39 LIG 0.09  C 
BRANCH 59 60
ATOM     60  CG  HIS C   6      54.145  25.153  42.347  1.00 78.50 LIG 0.06  A 
ATOM     61  CD2 HIS C   6      52.946  25.188  42.980  1.00 82.71 LIG 0.14  A 
ATOM     62 NE2  HIS C   6      53.101  25.955  44.111  1.00 84.02 LIG-0.25  NA
ATOM     63  CE1 HIS C   6      54.358  26.361  44.187  1.00 85.20 LIG 0.23  A 
ATOM     64 ND1  HIS C   6      55.013  25.886  43.138  1.00 88.66 LIG-0.24  NA
ENDBRANCH 59 60
ENDBRANCH 58 59
BRANCH 58 65
ATOM     65  C   HIS C   6      56.590  22.981  41.205  1.00 59.18 LIG 0.22  C 
ATOM     66 O    HIS C   6      56.394  22.501  42.353  1.00 63.69 LIG-0.29  OA
ENDBRANCH 58 65
ENDBRANCH 55 58
ENDBRANCH 53 54
BRANCH 53 67
ATOM     67  CB  ILE C   5      58.669  26.622  37.684  1.00 28.54 LIG 0.01  C 
ATOM     68  CG2 ILE C   5      59.237  27.413  38.860  1.00 32.34 LIG 0.01  C 
BRANCH 67 69
ATOM     69  CG1 ILE C   5      59.163  25.168  37.589  1.00 30.21 LIG 0.00  C 
ATOM     70  CD1 ILE C   5      59.373  24.622  36.199  1.00 32.85 LIG 0.01  C 
ENDBRANCH 67 69
ENDBRANCH 53 67
ENDBRANCH 51 53
ENDBRANCH 39 49
ENDBRANCH 3 39
TORSDOF 26
ENDMDL
MODEL 40
USER: ADFR SOLUTION from run 18
USER: SCORE 21.053050 LL:  -7.300 LR: -17.310 RR:   0.000 FEB:  -9.554
USER: RMSD 8.687212
USER: SEED 17
USER: STATUS no improvement in best in 2 clusters for 5 generations
USER: GENES 28
USER: genes 0 Translation |==|  0.69460 0.57958 0.57846
USER: genes 1 Rotation |==|  0.39973 0.08613 0.27204 0.62920
USER: genes 2 Torsion [N]-C--CA-[N] |==|  0.89634
USER: genes 3 Torsion [C]-CA--N-[C] |==|  0.56943
USER: genes 4 Torsion [N]-C--CA-[N] |==|  0.54895
USER: genes 5 Torsion [C]-CA--CB-[CG] |==|  0.30858
USER: genes 6 Torsion [CA]-CB--CG-[CD] |==|  0.17808
USER: genes 7 Torsion [CB]-CG--CD-[NE] |==|  0.26522
USER: genes 8 Torsion [CG]-CD--NE-[CZ] |==|  0.70018
USER: genes 9 Torsion [C]-CA--N-[C] |==|  0.16433
USER: genes 10 Torsion [N]-C--CA-[N] |==|  0.56436
USER: genes 11 Torsion [C]-CA--CB-[CG] |==|  0.82215
USER: genes 12 Torsion [CA]-CB--CG-[OD2] |==|  0.89659
USER: genes 13 Torsion [C]-CA--N-[H1] |==|  0.79073
USER: genes 14 Torsion [C]-CA--CB-[CG1] |==|  0.87137
USER: genes 15 Torsion [C]-N--CA-[CB] |==|  0.45910
USER: genes 16 Torsion [N]-CA--CB-[CG] |==|  0.85122
USER: genes 17 Torsion [CA]-CB--CG-[CD2] |==|  0.24572
USER: genes 18 Torsion [CE2]-CZ--OH-[HH] |==|  0.03245
USER: genes 19 Torsion [N]-CA--C-[N] |==|  0.70174
USER: genes 20 Torsion [C]-N--CA-[C] |==|  0.77498
USER: genes 21 Torsion [N]-CA--C-[N] |==|  0.32880
USER: genes 22 Torsion [C]-N--CA-[CB] |==|  0.16592
USER: genes 23 Torsion [N]-CA--CB-[CG] |==|  0.67855
USER: genes 24 Torsion [CA]-CB--CG-[CD2] |==|  0.11164
USER: genes 25 Torsion [N]-CA--C-[O] |==|  0.00743
USER: genes 26 Torsion [N]-CA--CB-[CG1] |==|  0.92806
USER: genes 27 Torsion [CA]-CB--CG1-[CD1] |==|  0.70314
ROOT
ATOM      1  C   VAL C   3      57.501  31.359  36.421  1.00 15.94 LIG 0.24  C 
ATOM      2 O    VAL C   3      58.633  31.511  36.006  1.00 17.86 LIG-0.27  OA
ATOM      3  N   TYR C   4      57.115  30.216  36.978  1.00 16.41 LIG-0.35  N 
ATOM      4 H    TYR C   4      56.318  30.067  37.265  1.00 16.41 LIG 0.16  HD
ENDROOT
BRANCH 1 5
ATOM      5  CA  VAL C   3      56.472  32.497  36.263  1.00 16.01 LIG 0.18  C 
BRANCH 5 6
ATOM      6  N   VAL C   3      55.182  31.862  35.923  1.00 15.77 LIG-0.35  N 
ATOM      7 H    VAL C   3      55.091  31.047  36.184  1.00 15.77 LIG 0.16  HD
ATOM      8  C   ARG C   2      54.269  32.553  35.261  1.00 16.54 LIG 0.24  C 
ATOM      9 O    ARG C   2      54.406  33.767  34.997  1.00 14.63 LIG-0.27  OA
BRANCH 8 10
ATOM     10  CA  ARG C   2      53.012  31.814  34.846  1.00 19.03 LIG 0.18  C 
BRANCH 10 11
ATOM     11  CB  ARG C   2      53.392  30.410  34.363  1.00 20.38 LIG 0.04  C 
BRANCH 11 12
ATOM     12  CG  ARG C   2      52.952  29.295  35.250  1.00 20.75 LIG 0.02  C 
BRANCH 12 13
ATOM     13  CD  ARG C   2      51.491  29.225  35.317  1.00 22.55 LIG 0.14  C 
BRANCH 13 14
ATOM     14  NE  ARG C   2      50.943  28.278  34.385  1.00 20.36 LIG-0.23  N 
ATOM     15  CZ  ARG C   2      50.282  28.602  33.293  1.00 23.11 LIG 0.67  C 
ATOM     16  NH1 ARG C   2      50.197  29.830  32.920  1.00 23.20 LIG-0.23  N 
ATOM     17  NH2 ARG C   2      49.784  27.629  32.520  1.00 25.55 LIG-0.23  N 
ATOM     18 1HH1 ARG C   2      50.573  30.448  33.385  1.00 23.20 LIG 0.17  HD
ATOM     19 2HH1 ARG C   2      49.763  30.033  32.205  1.00 23.20 LIG 0.17  HD
ATOM     20 2HH2 ARG C   2      49.351  27.828  31.804  1.00 25.55 LIG 0.17  HD
ATOM     21 1HH2 ARG C   2      49.898  26.805  32.739  1.00 25.55 LIG 0.17  HD
ATOM     22 HE   ARG C   2      51.054  27.442  34.552  1.00 20.36 LIG 0.18  HD
ENDBRANCH 13 14
ENDBRANCH 12 13
ENDBRANCH 11 12
ENDBRANCH 10 11
BRANCH 10 23
ATOM     23  N   ARG C   2      52.294  32.545  33.789  1.00 19.42 LIG-0.35  N 
ATOM     24  C   ASP C   1      52.900  32.805  32.639  1.00 19.51 LIG 0.25  C 
ATOM     25 O    ASP C   1      53.968  32.259  32.314  1.00 19.29 LIG-0.27  OA
ATOM     26 H    ARG C   2      51.488  32.774  33.983  1.00 19.42 LIG 0.16  HD
BRANCH 24 27
ATOM     27  CA  ASP C   1      52.264  33.827  31.712  1.00 19.04 LIG 0.28  C 
BRANCH 27 28
ATOM     28  CB  ASP C   1      50.765  33.695  31.787  1.00 21.34 LIG 0.15  C 
BRANCH 28 29
ATOM     29  CG  ASP C   1      50.273  32.320  31.269  1.00 23.67 LIG 0.17  C 
ATOM     30 OD2  ASP C   1      50.875  31.818  30.280  1.00 27.41 LIG-0.65  OA
ATOM     31 OD1  ASP C   1      49.275  31.752  31.823  1.00 20.87 LIG-0.65  OA
ENDBRANCH 28 29
ENDBRANCH 27 28
BRANCH 27 32
ATOM     32  N   ASP C   1      52.759  33.537  30.317  1.00 18.38 LIG-0.07  N 
ATOM     33 H1   ASP C   1      53.600  33.817  30.236  1.00 18.38 LIG 0.28  HD
ATOM     34 H3   ASP C   1      52.246  33.962  29.726  1.00 18.38 LIG 0.28  HD
ATOM     35 H2   ASP C   1      52.722  32.661  30.164  1.00 18.38 LIG 0.28  HD
ENDBRANCH 27 32
ENDBRANCH 24 27
ENDBRANCH 10 23
ENDBRANCH 8 10
ENDBRANCH 5 6
BRANCH 5 36
ATOM     36  CB  VAL C   3      56.426  33.255  37.572  1.00 17.74 LIG 0.01  C 
ATOM     37  CG1 VAL C   3      56.344  32.319  38.759  1.00 20.72 LIG 0.01  C 
ATOM     38  CG2 VAL C   3      57.662  34.119  37.749  1.00 18.64 LIG 0.01  C 
ENDBRANCH 5 36
ENDBRANCH 1 5
BRANCH 3 39
ATOM     39  CA  TYR C   4      58.036  29.100  37.151  1.00 17.90 LIG 0.18  C 
BRANCH 39 40
ATOM     40  CB  TYR C   4      57.475  28.088  38.103  1.00 20.19 LIG 0.07  C 
BRANCH 40 41
ATOM     41  CG  TYR C   4      57.042  28.613  39.446  1.00 23.00 LIG-0.06  A 
ATOM     42  CD2 TYR C   4      55.745  29.092  39.636  1.00 26.62 LIG 0.01  A 
ATOM     43  CE2 TYR C   4      55.329  29.583  40.857  1.00 28.63 LIG 0.04  A 
ATOM     44  CZ  TYR C   4      56.207  29.602  41.898  1.00 25.42 LIG 0.07  A 
ATOM     45  CE1 TYR C   4      57.458  29.105  41.764  1.00 26.89 LIG 0.04  A 
ATOM     46  CD1 TYR C   4      57.882  28.610  40.522  1.00 24.41 LIG 0.01  A 
BRANCH 44 47
ATOM     47 OH   TYR C   4      55.791  30.082  43.106  1.00 32.39 LIG-0.36  OA
ATOM     48 HH   TYR C   4      54.955  30.172  43.099  1.00 32.39 LIG 0.22  HD
ENDBRANCH 44 47
ENDBRANCH 40 41
ENDBRANCH 39 40
BRANCH 39 49
ATOM     49  C   TYR C   4      58.467  28.450  35.805  1.00 20.63 LIG 0.24  C 
ATOM     50 O    TYR C   4      59.306  28.953  35.111  1.00 19.73 LIG-0.27  OA
ATOM     51  N   ILE C   5      57.955  27.258  35.535  1.00 22.91 LIG-0.35  N 
ATOM     52 H    ILE C   5      57.446  26.818  36.071  1.00 22.91 LIG 0.16  HD
BRANCH 51 53
ATOM     53  CA  ILE C   5      58.228  26.591  34.275  1.00 27.58 LIG 0.18  C 
BRANCH 53 54
ATOM     54  C   ILE C   5      57.310  27.150  33.191  1.00 33.14 LIG 0.24  C 
ATOM     55  N   HIS C   6      57.893  27.754  32.147  1.00 39.14 LIG-0.35  N 
ATOM     56 H    HIS C   6      58.742  27.889  32.099  1.00 39.14 LIG 0.16  HD
ATOM     57 O    ILE C   5      56.097  27.113  33.381  1.00 25.88 LIG-0.27  OA
BRANCH 55 58
ATOM     58  CA  HIS C   6      57.138  28.265  30.946  1.00 56.87 LIG 0.17  C 
BRANCH 58 59
ATOM     59  CB  HIS C   6      56.088  29.333  31.368  1.00 66.39 LIG 0.09  C 
BRANCH 59 60
ATOM     60  CG  HIS C   6      54.659  28.939  31.124  1.00 78.50 LIG 0.06  A 
ATOM     61  CD2 HIS C   6      54.032  27.748  31.296  1.00 82.71 LIG 0.14  A 
ATOM     62 NE2  HIS C   6      52.707  27.932  30.975  1.00 84.02 LIG-0.25  NA
ATOM     63  CE1 HIS C   6      52.517  29.197  30.638  1.00 85.20 LIG 0.23  A 
ATOM     64 ND1  HIS C   6      53.677  29.830  30.726  1.00 88.66 LIG-0.24  NA
ENDBRANCH 59 60
ENDBRANCH 58 59
BRANCH 58 65
ATOM     65  C   HIS C   6      57.961  28.860  29.795  1.00 59.18 LIG 0.22  C 
ATOM     66 O    HIS C   6      59.220  28.867  29.845  1.00 63.69 LIG-0.29  OA
ENDBRANCH 58 65
ENDBRANCH 55 58
ENDBRANCH 53 54
BRANCH 53 67
ATOM     67  CB  ILE C   5      58.066  25.086  34.439  1.00 28.54 LIG 0.01  C 
ATOM     68  CG2 ILE C   5      59.005  24.385  33.460  1.00 32.34 LIG 0.01  C 
BRANCH 67 69
ATOM     69  CG1 ILE C   5      58.321  24.761  35.920  1.00 30.21 LIG 0.00  C 
ATOM     70  CD1 ILE C   5      59.626  24.076  36.240  1.00 32.85 LIG 0.01  C 
ENDBRANCH 67 69
ENDBRANCH 53 67
ENDBRANCH 51 53
ENDBRANCH 39 49
ENDBRANCH 3 39
TORSDOF 26
ENDMDL
MODEL 41
USER: ADFR SOLUTION from run 137
USER: SCORE 20.735868 LL:  -4.780 LR: -17.314 RR:   0.000 FEB:  -9.558
USER: RMSD 7.678952
USER: SEED 136
USER: STATUS no improvement in best in 22 clusters for 5 generations
USER: GENES 28
USER: genes 0 Translation |==|  0.42040 0.65233 0.47836
USER: genes 1 Rotation |==|  0.33745 0.29032 0.11196 0.67040
USER: genes 2 Torsion [N]-C--CA-[N] |==|  0.41959
USER: genes 3 Torsion [C]-CA--N-[C] |==|  0.84900
USER: genes 4 Torsion [N]-C--CA-[N] |==|  0.01864
USER: genes 5 Torsion [C]-CA--CB-[CG] |==|  0.22641
USER: genes 6 Torsion [CA]-CB--CG-[CD] |==|  0.68303
USER: genes 7 Torsion [CB]-CG--CD-[NE] |==|  0.73889
USER: genes 8 Torsion [CG]-CD--NE-[CZ] |==|  0.46385
USER: genes 9 Torsion [C]-CA--N-[C] |==|  0.18488
USER: genes 10 Torsion [N]-C--CA-[N] |==|  0.37856
USER: genes 11 Torsion [C]-CA--CB-[CG] |==|  0.47350
USER: genes 12 Torsion [CA]-CB--CG-[OD2] |==|  0.20825
USER: genes 13 Torsion [C]-CA--N-[H1] |==|  0.11513
USER: genes 14 Torsion [C]-CA--CB-[CG1] |==|  0.67563
USER: genes 15 Torsion [C]-N--CA-[CB] |==|  0.85500
USER: genes 16 Torsion [N]-CA--CB-[CG] |==|  0.71177
USER: genes 17 Torsion [CA]-CB--CG-[CD2] |==|  0.46331
USER: genes 18 Torsion [CE2]-CZ--OH-[HH] |==|  0.81440
USER: genes 19 Torsion [N]-CA--C-[N] |==|  0.37321
USER: genes 20 Torsion [C]-N--CA-[C] |==|  0.12423
USER: genes 21 Torsion [N]-CA--C-[N] |==|  0.59497
USER: genes 22 Torsion [C]-N--CA-[CB] |==|  0.28521
USER: genes 23 Torsion [N]-CA--CB-[CG] |==|  0.92821
USER: genes 24 Torsion [CA]-CB--CG-[CD2] |==|  0.27245
USER: genes 25 Torsion [N]-CA--C-[O] |==|  0.29086
USER: genes 26 Torsion [N]-CA--CB-[CG1] |==|  0.20745
USER: genes 27 Torsion [CA]-CB--CG1-[CD1] |==|  0.43092
ROOT
ATOM      1  C   VAL C   3      52.771  33.214  33.793  1.00 15.94 LIG 0.24  C 
ATOM      2 O    VAL C   3      53.768  33.352  33.111  1.00 17.86 LIG-0.27  OA
ATOM      3  N   TYR C   4      51.879  32.264  33.532  1.00 16.41 LIG-0.35  N 
ATOM      4 H    TYR C   4      51.154  32.150  33.981  1.00 16.41 LIG 0.16  HD
ENDROOT
BRANCH 1 5
ATOM      5  CA  VAL C   3      52.507  34.185  34.962  1.00 16.01 LIG 0.18  C 
BRANCH 5 6
ATOM      6  N   VAL C   3      53.829  34.609  35.470  1.00 15.77 LIG-0.35  N 
ATOM      7 H    VAL C   3      53.956  35.460  35.505  1.00 15.77 LIG 0.16  HD
ATOM      8  C   ARG C   2      54.714  33.694  35.830  1.00 16.54 LIG 0.24  C 
ATOM      9 O    ARG C   2      54.445  32.474  35.860  1.00 14.63 LIG-0.27  OA
BRANCH 8 10
ATOM     10  CA  ARG C   2      56.088  34.189  36.238  1.00 19.03 LIG 0.18  C 
BRANCH 10 11
ATOM     11  CB  ARG C   2      56.456  33.584  37.598  1.00 20.38 LIG 0.04  C 
BRANCH 11 12
ATOM     12  CG  ARG C   2      56.991  32.194  37.547  1.00 20.75 LIG 0.02  C 
BRANCH 12 13
ATOM     13  CD  ARG C   2      56.075  31.255  38.198  1.00 22.55 LIG 0.14  C 
BRANCH 13 14
ATOM     14  NE  ARG C   2      56.408  31.029  39.578  1.00 20.36 LIG-0.23  N 
ATOM     15  CZ  ARG C   2      55.620  30.433  40.447  1.00 23.11 LIG 0.67  C 
ATOM     16  NH1 ARG C   2      54.519  29.887  40.066  1.00 23.20 LIG-0.23  N 
ATOM     17  NH2 ARG C   2      56.024  30.313  41.718  1.00 25.55 LIG-0.23  N 
ATOM     18 1HH1 ARG C   2      54.292  29.909  39.237  1.00 23.20 LIG 0.17  HD
ATOM     19 2HH1 ARG C   2      54.010  29.500  40.641  1.00 23.20 LIG 0.17  HD
ATOM     20 2HH2 ARG C   2      55.518  29.926  42.295  1.00 25.55 LIG 0.17  HD
ATOM     21 1HH2 ARG C   2      56.791  30.623  41.957  1.00 25.55 LIG 0.17  HD
ATOM     22 HE   ARG C   2      57.175  31.302  39.854  1.00 20.36 LIG 0.18  HD
ENDBRANCH 13 14
ENDBRANCH 12 13
ENDBRANCH 11 12
ENDBRANCH 10 11
BRANCH 10 23
ATOM     23  N   ARG C   2      56.122  35.659  36.302  1.00 19.42 LIG-0.35  N 
ATOM     24  C   ASP C   1      55.409  36.296  37.221  1.00 19.51 LIG 0.25  C 
ATOM     25 O    ASP C   1      54.893  35.707  38.185  1.00 19.29 LIG-0.27  OA
ATOM     26 H    ARG C   2      56.622  36.041  35.716  1.00 19.42 LIG 0.16  HD
BRANCH 24 27
ATOM     27  CA  ASP C   1      55.208  37.792  37.058  1.00 19.04 LIG 0.28  C 
BRANCH 27 28
ATOM     28  CB  ASP C   1      56.115  38.520  38.016  1.00 21.34 LIG 0.15  C 
BRANCH 28 29
ATOM     29  CG  ASP C   1      56.143  40.047  37.748  1.00 23.67 LIG 0.17  C 
ATOM     30 OD2  ASP C   1      55.139  40.722  38.108  1.00 27.41 LIG-0.65  OA
ATOM     31 OD1  ASP C   1      57.144  40.570  37.158  1.00 20.87 LIG-0.65  OA
ENDBRANCH 28 29
ENDBRANCH 27 28
BRANCH 27 32
ATOM     32  N   ASP C   1      53.760  38.087  37.361  1.00 18.38 LIG-0.07  N 
ATOM     33 H1   ASP C   1      53.501  37.609  38.067  1.00 18.38 LIG 0.28  HD
ATOM     34 H3   ASP C   1      53.259  37.872  36.658  1.00 18.38 LIG 0.28  HD
ATOM     35 H2   ASP C   1      53.663  38.954  37.538  1.00 18.38 LIG 0.28  HD
ENDBRANCH 27 32
ENDBRANCH 24 27
ENDBRANCH 10 23
ENDBRANCH 8 10
ENDBRANCH 5 6
BRANCH 5 36
ATOM     36  CB  VAL C   3      51.689  35.337  34.423  1.00 17.74 LIG 0.01  C 
ATOM     37  CG1 VAL C   3      52.436  36.650  34.521  1.00 20.72 LIG 0.01  C 
ATOM     38  CG2 VAL C   3      51.328  35.118  32.965  1.00 18.64 LIG 0.01  C 
ENDBRANCH 5 36
ENDBRANCH 1 5
BRANCH 3 39
ATOM     39  CA  TYR C   4      52.065  31.319  32.438  1.00 17.90 LIG 0.18  C 
BRANCH 39 40
ATOM     40  CB  TYR C   4      52.346  32.038  31.155  1.00 20.19 LIG 0.07  C 
BRANCH 40 41
ATOM     41  CG  TYR C   4      51.203  32.117  30.178  1.00 23.00 LIG-0.06  A 
ATOM     42  CD2 TYR C   4      51.262  32.986  29.087  1.00 26.62 LIG 0.01  A 
ATOM     43  CE2 TYR C   4      50.224  33.079  28.182  1.00 28.63 LIG 0.04  A 
ATOM     44  CZ  TYR C   4      49.117  32.308  28.361  1.00 25.42 LIG 0.07  A 
ATOM     45  CE1 TYR C   4      49.042  31.423  29.382  1.00 26.89 LIG 0.04  A 
ATOM     46  CD1 TYR C   4      50.095  31.330  30.304  1.00 24.41 LIG 0.01  A 
BRANCH 44 47
ATOM     47 OH   TYR C   4      48.095  32.398  27.461  1.00 32.39 LIG-0.36  OA
ATOM     48 HH   TYR C   4      47.742  33.158  27.513  1.00 32.39 LIG 0.22  HD
ENDBRANCH 44 47
ENDBRANCH 40 41
ENDBRANCH 39 40
BRANCH 39 49
ATOM     49  C   TYR C   4      53.142  30.238  32.742  1.00 20.63 LIG 0.24  C 
ATOM     50 O    TYR C   4      54.155  30.514  33.322  1.00 19.73 LIG-0.27  OA
ATOM     51  N   ILE C   5      52.822  28.987  32.444  1.00 22.91 LIG-0.35  N 
ATOM     52 H    ILE C   5      52.056  28.743  32.140  1.00 22.91 LIG 0.16  HD
BRANCH 51 53
ATOM     53  CA  ILE C   5      53.778  27.907  32.615  1.00 27.58 LIG 0.18  C 
BRANCH 53 54
ATOM     54  C   ILE C   5      54.478  28.052  33.964  1.00 33.14 LIG 0.24  C 
ATOM     55  N   HIS C   6      55.762  27.673  34.030  1.00 39.14 LIG-0.35  N 
ATOM     56 H    HIS C   6      56.174  27.303  33.372  1.00 39.14 LIG 0.16  HD
ATOM     57 O    ILE C   5      53.809  28.404  34.931  1.00 25.88 LIG-0.27  OA
BRANCH 55 58
ATOM     58  CA  HIS C   6      56.624  27.850  35.254  1.00 56.87 LIG 0.17  C 
BRANCH 58 59
ATOM     59  CB  HIS C   6      56.783  26.501  36.015  1.00 66.39 LIG 0.09  C 
BRANCH 59 60
ATOM     60  CG  HIS C   6      55.659  25.526  35.806  1.00 78.50 LIG 0.06  A 
ATOM     61  CD2 HIS C   6      55.559  24.465  34.968  1.00 82.71 LIG 0.14  A 
ATOM     62 NE2  HIS C   6      54.340  23.870  35.203  1.00 84.02 LIG-0.25  NA
ATOM     63  CE1 HIS C   6      53.719  24.529  36.168  1.00 85.20 LIG 0.23  A 
ATOM     64 ND1  HIS C   6      54.495  25.529  36.555  1.00 88.66 LIG-0.24  NA
ENDBRANCH 59 60
ENDBRANCH 58 59
BRANCH 58 65
ATOM     65  C   HIS C   6      58.031  28.429  35.049  1.00 59.18 LIG 0.22  C 
ATOM     66 O    HIS C   6      58.284  29.623  35.362  1.00 63.69 LIG-0.29  OA
ENDBRANCH 58 65
ENDBRANCH 55 58
ENDBRANCH 53 54
BRANCH 53 67
ATOM     67  CB  ILE C   5      54.766  27.901  31.456  1.00 28.54 LIG 0.01  C 
ATOM     68  CG2 ILE C   5      53.981  27.959  30.147  1.00 32.34 LIG 0.01  C 
BRANCH 67 69
ATOM     69  CG1 ILE C   5      55.733  29.075  31.679  1.00 30.21 LIG 0.00  C 
ATOM     70  CD1 ILE C   5      57.094  28.951  31.041  1.00 32.85 LIG 0.01  C 
ENDBRANCH 67 69
ENDBRANCH 53 67
ENDBRANCH 51 53
ENDBRANCH 39 49
ENDBRANCH 3 39
TORSDOF 26
ENDMDL
MODEL 42
USER: ADFR SOLUTION from run 15
USER: SCORE 22.086383 LL:  -5.681 LR: -17.307 RR:   0.000 FEB:  -9.552
USER: RMSD 3.761625
USER: SEED 636491
USER: STATUS no improvement in best in 9 clusters for 5 generations
USER: GENES 28
USER: genes 0 Translation |==|  0.68328 0.45847 0.51167
USER: genes 1 Rotation |==|  0.48178 0.55152 0.62817 0.98019
USER: genes 2 Torsion [N]-C--CA-[N] |==|  0.41295
USER: genes 3 Torsion [C]-CA--N-[C] |==|  0.70687
USER: genes 4 Torsion [N]-C--CA-[N] |==|  0.14265
USER: genes 5 Torsion [C]-CA--CB-[CG] |==|  0.30896
USER: genes 6 Torsion [CA]-CB--CG-[CD] |==|  0.36208
USER: genes 7 Torsion [CB]-CG--CD-[NE] |==|  0.45159
USER: genes 8 Torsion [CG]-CD--NE-[CZ] |==|  0.33846
USER: genes 9 Torsion [C]-CA--N-[C] |==|  0.74350
USER: genes 10 Torsion [N]-C--CA-[N] |==|  0.39722
USER: genes 11 Torsion [C]-CA--CB-[CG] |==|  0.74507
USER: genes 12 Torsion [CA]-CB--CG-[OD2] |==|  0.33107
USER: genes 13 Torsion [C]-CA--N-[H1] |==|  0.10727
USER: genes 14 Torsion [C]-CA--CB-[CG1] |==|  0.72957
USER: genes 15 Torsion [C]-N--CA-[CB] |==|  0.79266
USER: genes 16 Torsion [N]-CA--CB-[CG] |==|  0.21793
USER: genes 17 Torsion [CA]-CB--CG-[CD2] |==|  0.19596
USER: genes 18 Torsion [CE2]-CZ--OH-[HH] |==|  0.01575
USER: genes 19 Torsion [N]-CA--C-[N] |==|  0.46111
USER: genes 20 Torsion [C]-N--CA-[C] |==|  0.72465
USER: genes 21 Torsion [N]-CA--C-[N] |==|  0.87653
USER: genes 22 Torsion [C]-N--CA-[CB] |==|  0.11861
USER: genes 23 Torsion [N]-CA--CB-[CG] |==|  0.41127
USER: genes 24 Torsion [CA]-CB--CG-[CD2] |==|  0.20919
USER: genes 25 Torsion [N]-CA--C-[O] |==|  0.10568
USER: genes 26 Torsion [N]-CA--CB-[CG1] |==|  0.85753
USER: genes 27 Torsion [CA]-CB--CG1-[CD1] |==|  0.81741
ROOT
ATOM      1  C   VAL C   3      57.306  28.271  34.667  1.00 15.94 LIG 0.24  C 
ATOM      2 O    VAL C   3      56.132  28.117  34.943  1.00 17.86 LIG-0.27  OA
ATOM      3  N   TYR C   4      57.770  28.016  33.448  1.00 16.41 LIG-0.35  N 
ATOM      4 H    TYR C   4      58.596  28.095  33.223  1.00 16.41 LIG 0.16  HD
ENDROOT
BRANCH 1 5
ATOM      5  CA  VAL C   3      58.292  28.731  35.760  1.00 16.01 LIG 0.18  C 
BRANCH 5 6
ATOM      6  N   VAL C   3      57.539  29.626  36.665  1.00 15.77 LIG-0.35  N 
ATOM      7 H    VAL C   3      56.987  29.234  37.197  1.00 15.77 LIG 0.16  HD
ATOM      8  C   ARG C   2      57.744  30.931  36.611  1.00 16.54 LIG 0.24  C 
ATOM      9 O    ARG C   2      58.632  31.443  35.895  1.00 14.63 LIG-0.27  OA
BRANCH 8 10
ATOM     10  CA  ARG C   2      56.864  31.803  37.484  1.00 19.03 LIG 0.18  C 
BRANCH 10 11
ATOM     11  CB  ARG C   2      57.361  33.251  37.411  1.00 20.38 LIG 0.04  C 
BRANCH 11 12
ATOM     12  CG  ARG C   2      56.448  34.197  36.708  1.00 20.75 LIG 0.02  C 
BRANCH 12 13
ATOM     13  CD  ARG C   2      56.219  35.400  37.511  1.00 22.55 LIG 0.14  C 
BRANCH 13 14
ATOM     14  NE  ARG C   2      55.692  36.488  36.734  1.00 20.36 LIG-0.23  N 
ATOM     15  CZ  ARG C   2      54.552  37.098  36.982  1.00 23.11 LIG 0.67  C 
ATOM     16  NH1 ARG C   2      53.882  36.827  38.047  1.00 23.20 LIG-0.23  N 
ATOM     17  NH2 ARG C   2      54.144  38.076  36.165  1.00 25.55 LIG-0.23  N 
ATOM     18 1HH1 ARG C   2      54.179  36.243  38.605  1.00 23.20 LIG 0.17  HD
ATOM     19 2HH1 ARG C   2      53.138  37.230  38.202  1.00 23.20 LIG 0.17  HD
ATOM     20 2HH2 ARG C   2      53.401  38.482  36.316  1.00 25.55 LIG 0.17  HD
ATOM     21 1HH2 ARG C   2      54.626  38.299  35.487  1.00 25.55 LIG 0.17  HD
ATOM     22 HE   ARG C   2      56.153  36.760  36.062  1.00 20.36 LIG 0.18  HD
ENDBRANCH 13 14
ENDBRANCH 12 13
ENDBRANCH 11 12
ENDBRANCH 10 11
BRANCH 10 23
ATOM     23  N   ARG C   2      56.868  31.327  38.878  1.00 19.42 LIG-0.35  N 
ATOM     24  C   ASP C   1      55.941  30.471  39.285  1.00 19.51 LIG 0.25  C 
ATOM     25 O    ASP C   1      55.204  29.864  38.490  1.00 19.29 LIG-0.27  OA
ATOM     26 H    ARG C   2      57.496  31.644  39.372  1.00 19.42 LIG 0.16  HD
BRANCH 24 27
ATOM     27  CA  ASP C   1      55.774  30.257  40.779  1.00 19.04 LIG 0.28  C 
BRANCH 27 28
ATOM     28  CB  ASP C   1      56.544  29.029  41.192  1.00 21.34 LIG 0.15  C 
BRANCH 28 29
ATOM     29  CG  ASP C   1      55.669  27.750  41.148  1.00 23.67 LIG 0.17  C 
ATOM     30 OD2  ASP C   1      56.028  26.823  40.370  1.00 27.41 LIG-0.65  OA
ATOM     31 OD1  ASP C   1      54.617  27.676  41.862  1.00 20.87 LIG-0.65  OA
ENDBRANCH 28 29
ENDBRANCH 27 28
BRANCH 27 32
ATOM     32  N   ASP C   1      54.300  30.081  41.046  1.00 18.38 LIG-0.07  N 
ATOM     33 H1   ASP C   1      53.935  29.602  40.391  1.00 18.38 LIG 0.28  HD
ATOM     34 H3   ASP C   1      53.907  30.878  41.085  1.00 18.38 LIG 0.28  HD
ATOM     35 H2   ASP C   1      54.186  29.657  41.821  1.00 18.38 LIG 0.28  HD
ENDBRANCH 27 32
ENDBRANCH 24 27
ENDBRANCH 10 23
ENDBRANCH 8 10
ENDBRANCH 5 6
BRANCH 5 36
ATOM     36  CB  VAL C   3      58.811  27.493  36.457  1.00 17.74 LIG 0.01  C 
ATOM     37  CG1 VAL C   3      58.054  27.213  37.739  1.00 20.72 LIG 0.01  C 
ATOM     38  CG2 VAL C   3      58.683  26.269  35.568  1.00 18.64 LIG 0.01  C 
ENDBRANCH 5 36
ENDBRANCH 1 5
BRANCH 3 39
ATOM     39  CA  TYR C   4      56.892  27.572  32.372  1.00 17.90 LIG 0.18  C 
BRANCH 39 40
ATOM     40  CB  TYR C   4      56.500  26.139  32.562  1.00 20.19 LIG 0.07  C 
BRANCH 40 41
ATOM     41  CG  TYR C   4      55.418  25.878  33.576  1.00 23.00 LIG-0.06  A 
ATOM     42  CD2 TYR C   4      54.100  26.255  33.319  1.00 26.62 LIG 0.01  A 
ATOM     43  CE2 TYR C   4      53.093  26.031  34.236  1.00 28.63 LIG 0.04  A 
ATOM     44  CZ  TYR C   4      53.397  25.432  35.420  1.00 25.42 LIG 0.07  A 
ATOM     45  CE1 TYR C   4      54.656  25.012  35.687  1.00 26.89 LIG 0.04  A 
ATOM     46  CD1 TYR C   4      55.679  25.243  34.756  1.00 24.41 LIG 0.01  A 
BRANCH 44 47
ATOM     47 OH   TYR C   4      52.399  25.205  36.323  1.00 32.39 LIG-0.36  OA
ATOM     48 HH   TYR C   4      51.660  25.413  35.981  1.00 32.39 LIG 0.22  HD
ENDBRANCH 44 47
ENDBRANCH 40 41
ENDBRANCH 39 40
BRANCH 39 49
ATOM     49  C   TYR C   4      55.651  28.490  32.179  1.00 20.63 LIG 0.24  C 
ATOM     50 O    TYR C   4      55.403  29.373  32.953  1.00 19.73 LIG-0.27  OA
ATOM     51  N   ILE C   5      54.967  28.328  31.056  1.00 22.91 LIG-0.35  N 
ATOM     52 H    ILE C   5      55.192  27.787  30.427  1.00 22.91 LIG 0.16  HD
BRANCH 51 53
ATOM     53  CA  ILE C   5      53.748  29.077  30.804  1.00 27.58 LIG 0.18  C 
BRANCH 53 54
ATOM     54  C   ILE C   5      52.536  28.207  31.127  1.00 33.14 LIG 0.24  C 
ATOM     55  N   HIS C   6      52.559  26.940  30.690  1.00 39.14 LIG-0.35  N 
ATOM     56 H    HIS C   6      53.189  26.629  30.194  1.00 39.14 LIG 0.16  HD
ATOM     57 O    ILE C   5      51.570  28.735  31.670  1.00 25.88 LIG-0.27  OA
BRANCH 55 58
ATOM     58  CA  HIS C   6      51.494  25.924  31.014  1.00 56.87 LIG 0.17  C 
BRANCH 58 59
ATOM     59  CB  HIS C   6      50.076  26.556  30.898  1.00 66.39 LIG 0.09  C 
BRANCH 59 60
ATOM     60  CG  HIS C   6      49.000  25.606  30.453  1.00 78.50 LIG 0.06  A 
ATOM     61  CD2 HIS C   6      48.362  24.619  31.131  1.00 82.71 LIG 0.14  A 
ATOM     62 NE2  HIS C   6      47.424  24.077  30.281  1.00 84.02 LIG-0.25  NA
ATOM     63  CE1 HIS C   6      47.466  24.722  29.127  1.00 85.20 LIG 0.23  A 
ATOM     64 ND1  HIS C   6      48.404  25.655  29.205  1.00 88.66 LIG-0.24  NA
ENDBRANCH 59 60
ENDBRANCH 58 59
BRANCH 58 65
ATOM     65  C   HIS C   6      51.485  24.625  30.195  1.00 59.18 LIG 0.22  C 
ATOM     66 O    HIS C   6      52.567  24.073  29.859  1.00 63.69 LIG-0.29  OA
ENDBRANCH 58 65
ENDBRANCH 55 58
ENDBRANCH 53 54
BRANCH 53 67
ATOM     67  CB  ILE C   5      53.731  29.568  29.363  1.00 28.54 LIG 0.01  C 
ATOM     68  CG2 ILE C   5      52.493  30.440  29.161  1.00 32.34 LIG 0.01  C 
BRANCH 67 69
ATOM     69  CG1 ILE C   5      55.069  30.283  29.111  1.00 30.21 LIG 0.00  C 
ATOM     70  CD1 ILE C   5      55.309  31.551  29.892  1.00 32.85 LIG 0.01  C 
ENDBRANCH 67 69
ENDBRANCH 53 67
ENDBRANCH 51 53
ENDBRANCH 39 49
ENDBRANCH 3 39
TORSDOF 26
ENDMDL
MODEL 43
USER: ADFR SOLUTION from run 31
USER: SCORE 21.647786 LL:  -6.621 LR: -17.261 RR:   0.000 FEB:  -9.505
USER: RMSD 8.678132
USER: SEED 30
USER: STATUS no improvement in best in 9 clusters for 5 generations
USER: GENES 28
USER: genes 0 Translation |==|  0.54348 0.60504 0.54996
USER: genes 1 Rotation |==|  0.67767 0.12104 0.30621 0.69305
USER: genes 2 Torsion [N]-C--CA-[N] |==|  0.52695
USER: genes 3 Torsion [C]-CA--N-[C] |==|  0.20961
USER: genes 4 Torsion [N]-C--CA-[N] |==|  0.67078
USER: genes 5 Torsion [C]-CA--CB-[CG] |==|  0.26922
USER: genes 6 Torsion [CA]-CB--CG-[CD] |==|  0.89433
USER: genes 7 Torsion [CB]-CG--CD-[NE] |==|  0.40956
USER: genes 8 Torsion [CG]-CD--NE-[CZ] |==|  0.23368
USER: genes 9 Torsion [C]-CA--N-[C] |==|  0.15165
USER: genes 10 Torsion [N]-C--CA-[N] |==|  0.10173
USER: genes 11 Torsion [C]-CA--CB-[CG] |==|  0.51436
USER: genes 12 Torsion [CA]-CB--CG-[OD2] |==|  0.88817
USER: genes 13 Torsion [C]-CA--N-[H1] |==|  0.41409
USER: genes 14 Torsion [C]-CA--CB-[CG1] |==|  0.20952
USER: genes 15 Torsion [C]-N--CA-[CB] |==|  0.21002
USER: genes 16 Torsion [N]-CA--CB-[CG] |==|  0.15996
USER: genes 17 Torsion [CA]-CB--CG-[CD2] |==|  0.25153
USER: genes 18 Torsion [CE2]-CZ--OH-[HH] |==|  0.44047
USER: genes 19 Torsion [N]-CA--C-[N] |==|  0.86410
USER: genes 20 Torsion [C]-N--CA-[C] |==|  0.77220
USER: genes 21 Torsion [N]-CA--C-[N] |==|  0.98350
USER: genes 22 Torsion [C]-N--CA-[CB] |==|  0.21629
USER: genes 23 Torsion [N]-CA--CB-[CG] |==|  0.09367
USER: genes 24 Torsion [CA]-CB--CG-[CD2] |==|  0.78493
USER: genes 25 Torsion [N]-CA--C-[O] |==|  0.26816
USER: genes 26 Torsion [N]-CA--CB-[CG1] |==|  0.09315
USER: genes 27 Torsion [CA]-CB--CG1-[CD1] |==|  0.48717
ROOT
ATOM      1  C   VAL C   3      54.894  32.009  35.672  1.00 15.94 LIG 0.24  C 
ATOM      2 O    VAL C   3      55.259  33.168  35.694  1.00 17.86 LIG-0.27  OA
ATOM      3  N   TYR C   4      55.737  31.012  35.922  1.00 16.41 LIG-0.35  N 
ATOM      4 H    TYR C   4      55.518  30.180  35.897  1.00 16.41 LIG 0.16  HD
ENDROOT
BRANCH 1 5
ATOM      5  CA  VAL C   3      53.433  31.676  35.308  1.00 16.01 LIG 0.18  C 
BRANCH 5 6
ATOM      6  N   VAL C   3      52.808  32.938  34.859  1.00 15.77 LIG-0.35  N 
ATOM      7 H    VAL C   3      52.273  33.308  35.423  1.00 15.77 LIG 0.16  HD
ATOM      8  C   ARG C   2      53.092  33.415  33.658  1.00 16.54 LIG 0.24  C 
ATOM      9 O    ARG C   2      53.955  32.899  32.917  1.00 14.63 LIG-0.27  OA
BRANCH 8 10
ATOM     10  CA  ARG C   2      52.337  34.652  33.213  1.00 19.03 LIG 0.18  C 
BRANCH 10 11
ATOM     11  CB  ARG C   2      51.433  35.127  34.355  1.00 20.38 LIG 0.04  C 
BRANCH 11 12
ATOM     12  CG  ARG C   2      52.001  36.220  35.197  1.00 20.75 LIG 0.02  C 
BRANCH 12 13
ATOM     13  CD  ARG C   2      53.438  36.030  35.403  1.00 22.55 LIG 0.14  C 
BRANCH 13 14
ATOM     14  NE  ARG C   2      54.148  37.276  35.508  1.00 20.36 LIG-0.23  N 
ATOM     15  CZ  ARG C   2      54.268  37.974  36.618  1.00 23.11 LIG 0.67  C 
ATOM     16  NH1 ARG C   2      53.849  37.500  37.738  1.00 23.20 LIG-0.23  N 
ATOM     17  NH2 ARG C   2      54.922  39.141  36.586  1.00 25.55 LIG-0.23  N 
ATOM     18 1HH1 ARG C   2      53.487  36.720  37.767  1.00 23.20 LIG 0.17  HD
ATOM     19 2HH1 ARG C   2      53.932  37.962  38.459  1.00 23.20 LIG 0.17  HD
ATOM     20 2HH2 ARG C   2      55.007  39.606  37.304  1.00 25.55 LIG 0.17  HD
ATOM     21 1HH2 ARG C   2      55.257  39.426  35.846  1.00 25.55 LIG 0.17  HD
ATOM     22 HE   ARG C   2      54.519  37.586  34.798  1.00 20.36 LIG 0.18  HD
ENDBRANCH 13 14
ENDBRANCH 12 13
ENDBRANCH 11 12
ENDBRANCH 10 11
BRANCH 10 23
ATOM     23  N   ARG C   2      51.539  34.377  32.006  1.00 19.42 LIG-0.35  N 
ATOM     24  C   ASP C   1      50.673  33.374  32.003  1.00 19.51 LIG 0.25  C 
ATOM     25 O    ASP C   1      50.326  32.794  33.045  1.00 19.29 LIG-0.27  OA
ATOM     26 H    ARG C   2      51.685  34.903  31.342  1.00 19.42 LIG 0.16  HD
BRANCH 24 27
ATOM     27  CA  ASP C   1      50.116  32.916  30.666  1.00 19.04 LIG 0.28  C 
BRANCH 27 28
ATOM     28  CB  ASP C   1      49.645  31.490  30.790  1.00 21.34 LIG 0.15  C 
BRANCH 28 29
ATOM     29  CG  ASP C   1      49.179  30.909  29.430  1.00 23.67 LIG 0.17  C 
ATOM     30 OD2  ASP C   1      48.516  31.665  28.667  1.00 27.41 LIG-0.65  OA
ATOM     31 OD1  ASP C   1      49.447  29.699  29.131  1.00 20.87 LIG-0.65  OA
ENDBRANCH 28 29
ENDBRANCH 27 28
BRANCH 27 32
ATOM     32  N   ASP C   1      51.228  33.027  29.654  1.00 18.38 LIG-0.07  N 
ATOM     33 H1   ASP C   1      51.126  32.401  29.030  1.00 18.38 LIG 0.28  HD
ATOM     34 H3   ASP C   1      52.012  32.916  30.060  1.00 18.38 LIG 0.28  HD
ATOM     35 H2   ASP C   1      51.205  33.831  29.273  1.00 18.38 LIG 0.28  HD
ENDBRANCH 27 32
ENDBRANCH 24 27
ENDBRANCH 10 23
ENDBRANCH 8 10
ENDBRANCH 5 6
BRANCH 5 36
ATOM     36  CB  VAL C   3      53.461  30.619  34.226  1.00 17.74 LIG 0.01  C 
ATOM     37  CG1 VAL C   3      53.810  29.255  34.785  1.00 20.72 LIG 0.01  C 
ATOM     38  CG2 VAL C   3      52.115  30.505  33.535  1.00 18.64 LIG 0.01  C 
ENDBRANCH 5 36
ENDBRANCH 1 5
BRANCH 3 39
ATOM     39  CA  TYR C   4      57.132  31.258  36.267  1.00 17.90 LIG 0.18  C 
BRANCH 39 40
ATOM     40  CB  TYR C   4      57.255  31.738  37.680  1.00 20.19 LIG 0.07  C 
BRANCH 40 41
ATOM     41  CG  TYR C   4      56.692  30.829  38.739  1.00 23.00 LIG-0.06  A 
ATOM     42  CD2 TYR C   4      57.494  29.858  39.341  1.00 26.62 LIG 0.01  A 
ATOM     43  CE2 TYR C   4      56.997  29.010  40.309  1.00 28.63 LIG 0.04  A 
ATOM     44  CZ  TYR C   4      55.693  29.121  40.683  1.00 25.42 LIG 0.07  A 
ATOM     45  CE1 TYR C   4      54.896  30.079  40.154  1.00 26.89 LIG 0.04  A 
ATOM     46  CD1 TYR C   4      55.400  30.939  39.167  1.00 24.41 LIG 0.01  A 
BRANCH 44 47
ATOM     47 OH   TYR C   4      55.206  28.286  41.646  1.00 32.39 LIG-0.36  OA
ATOM     48 HH   TYR C   4      54.519  28.625  41.989  1.00 32.39 LIG 0.22  HD
ENDBRANCH 44 47
ENDBRANCH 40 41
ENDBRANCH 39 40
BRANCH 39 49
ATOM     49  C   TYR C   4      58.054  30.035  35.990  1.00 20.63 LIG 0.24  C 
ATOM     50 O    TYR C   4      59.134  30.172  35.486  1.00 19.73 LIG-0.27  OA
ATOM     51  N   ILE C   5      57.638  28.866  36.453  1.00 22.91 LIG-0.35  N 
ATOM     52 H    ILE C   5      56.927  28.758  36.924  1.00 22.91 LIG 0.16  HD
BRANCH 51 53
ATOM     53  CA  ILE C   5      58.380  27.646  36.188  1.00 27.58 LIG 0.18  C 
BRANCH 53 54
ATOM     54  C   ILE C   5      58.019  27.119  34.802  1.00 33.14 LIG 0.24  C 
ATOM     55  N   HIS C   6      57.041  27.753  34.142  1.00 39.14 LIG-0.35  N 
ATOM     56 H    HIS C   6      56.579  28.390  34.490  1.00 39.14 LIG 0.16  HD
ATOM     57 O    ILE C   5      58.564  26.090  34.412  1.00 25.88 LIG-0.27  OA
BRANCH 55 58
ATOM     58  CA  HIS C   6      56.637  27.426  32.726  1.00 56.87 LIG 0.17  C 
BRANCH 58 59
ATOM     59  CB  HIS C   6      55.761  26.140  32.686  1.00 66.39 LIG 0.09  C 
BRANCH 59 60
ATOM     60  CG  HIS C   6      54.867  25.952  33.879  1.00 78.50 LIG 0.06  A 
ATOM     61  CD2 HIS C   6      55.151  25.521  35.133  1.00 82.71 LIG 0.14  A 
ATOM     62 NE2  HIS C   6      53.985  25.579  35.861  1.00 84.02 LIG-0.25  NA
ATOM     63  CE1 HIS C   6      53.019  26.051  35.089  1.00 85.20 LIG 0.23  A 
ATOM     64 ND1  HIS C   6      53.525  26.291  33.889  1.00 88.66 LIG-0.24  NA
ENDBRANCH 59 60
ENDBRANCH 58 59
BRANCH 58 65
ATOM     65  C   HIS C   6      55.895  28.512  31.935  1.00 59.18 LIG 0.22  C 
ATOM     66 O    HIS C   6      56.521  29.273  31.150  1.00 63.69 LIG-0.29  OA
ENDBRANCH 58 65
ENDBRANCH 55 58
ENDBRANCH 53 54
BRANCH 53 67
ATOM     67  CB  ILE C   5      58.099  26.621  37.279  1.00 28.54 LIG 0.01  C 
ATOM     68  CG2 ILE C   5      59.138  26.791  38.385  1.00 32.34 LIG 0.01  C 
BRANCH 67 69
ATOM     69  CG1 ILE C   5      56.642  26.825  37.728  1.00 30.21 LIG 0.00  C 
ATOM     70  CD1 ILE C   5      56.108  25.840  38.737  1.00 32.85 LIG 0.01  C 
ENDBRANCH 67 69
ENDBRANCH 53 67
ENDBRANCH 51 53
ENDBRANCH 39 49
ENDBRANCH 3 39
TORSDOF 26
ENDMDL
MODEL 44
USER: ADFR SOLUTION from run 27
USER: SCORE 22.313976 LL:  -6.099 LR: -17.264 RR:   0.000 FEB:  -9.508
USER: RMSD 10.532469
USER: SEED 26
USER: STATUS 1 or 2 clusters left
USER: GENES 28
USER: genes 0 Translation |==|  0.62735 0.39681 0.53229
USER: genes 1 Rotation |==|  0.61825 0.97235 0.61177 0.52020
USER: genes 2 Torsion [N]-C--CA-[N] |==|  0.19939
USER: genes 3 Torsion [C]-CA--N-[C] |==|  0.77767
USER: genes 4 Torsion [N]-C--CA-[N] |==|  0.93670
USER: genes 5 Torsion [C]-CA--CB-[CG] |==|  0.72879
USER: genes 6 Torsion [CA]-CB--CG-[CD] |==|  0.26517
USER: genes 7 Torsion [CB]-CG--CD-[NE] |==|  0.29396
USER: genes 8 Torsion [CG]-CD--NE-[CZ] |==|  0.32377
USER: genes 9 Torsion [C]-CA--N-[C] |==|  0.76667
USER: genes 10 Torsion [N]-C--CA-[N] |==|  0.36849
USER: genes 11 Torsion [C]-CA--CB-[CG] |==|  0.17252
USER: genes 12 Torsion [CA]-CB--CG-[OD2] |==|  0.25574
USER: genes 13 Torsion [C]-CA--N-[H1] |==|  0.00815
USER: genes 14 Torsion [C]-CA--CB-[CG1] |==|  0.18222
USER: genes 15 Torsion [C]-N--CA-[CB] |==|  0.83630
USER: genes 16 Torsion [N]-CA--CB-[CG] |==|  0.58911
USER: genes 17 Torsion [CA]-CB--CG-[CD2] |==|  0.85748
USER: genes 18 Torsion [CE2]-CZ--OH-[HH] |==|  0.32439
USER: genes 19 Torsion [N]-CA--C-[N] |==|  0.28447
USER: genes 20 Torsion [C]-N--CA-[C] |==|  0.60414
USER: genes 21 Torsion [N]-CA--C-[N] |==|  0.45917
USER: genes 22 Torsion [C]-N--CA-[CB] |==|  0.47914
USER: genes 23 Torsion [N]-CA--CB-[CG] |==|  0.96638
USER: genes 24 Torsion [CA]-CB--CG-[CD2] |==|  0.68577
USER: genes 25 Torsion [N]-CA--C-[O] |==|  0.43164
USER: genes 26 Torsion [N]-CA--CB-[CG1] |==|  0.64125
USER: genes 27 Torsion [CA]-CB--CG1-[CD1] |==|  0.04003
ROOT
ATOM      1  C   VAL C   3      56.341  26.699  35.209  1.00 15.94 LIG 0.24  C 
ATOM      2 O    VAL C   3      57.540  26.544  35.338  1.00 17.86 LIG-0.27  OA
ATOM      3  N   TYR C   4      55.476  26.147  36.054  1.00 16.41 LIG-0.35  N 
ATOM      4 H    TYR C   4      54.622  26.220  35.982  1.00 16.41 LIG 0.16  HD
ENDROOT
BRANCH 1 5
ATOM      5  CA  VAL C   3      55.802  27.516  34.017  1.00 16.01 LIG 0.18  C 
BRANCH 5 6
ATOM      6  N   VAL C   3      55.264  28.776  34.573  1.00 15.77 LIG-0.35  N 
ATOM      7 H    VAL C   3      55.780  29.460  34.504  1.00 15.77 LIG 0.16  HD
ATOM      8  C   ARG C   2      54.062  28.784  35.125  1.00 16.54 LIG 0.24  C 
ATOM      9 O    ARG C   2      53.307  27.788  35.107  1.00 14.63 LIG-0.27  OA
BRANCH 8 10
ATOM     10  CA  ARG C   2      53.612  30.078  35.774  1.00 19.03 LIG 0.18  C 
BRANCH 10 11
ATOM     11  CB  ARG C   2      52.695  30.833  34.806  1.00 20.38 LIG 0.04  C 
BRANCH 11 12
ATOM     12  CG  ARG C   2      53.361  31.905  34.011  1.00 20.75 LIG 0.02  C 
BRANCH 12 13
ATOM     13  CD  ARG C   2      53.769  31.405  32.697  1.00 22.55 LIG 0.14  C 
BRANCH 13 14
ATOM     14  NE  ARG C   2      52.925  31.888  31.638  1.00 20.36 LIG-0.23  N 
ATOM     15  CZ  ARG C   2      53.333  32.661  30.653  1.00 23.11 LIG 0.67  C 
ATOM     16  NH1 ARG C   2      54.582  32.933  30.509  1.00 23.20 LIG-0.23  N 
ATOM     17  NH2 ARG C   2      52.445  33.080  29.744  1.00 25.55 LIG-0.23  N 
ATOM     18 1HH1 ARG C   2      55.159  32.610  31.058  1.00 23.20 LIG 0.17  HD
ATOM     19 2HH1 ARG C   2      54.840  33.439  29.862  1.00 23.20 LIG 0.17  HD
ATOM     20 2HH2 ARG C   2      52.699  33.585  29.095  1.00 25.55 LIG 0.17  HD
ATOM     21 1HH2 ARG C   2      51.620  32.844  29.807  1.00 25.55 LIG 0.17  HD
ATOM     22 HE   ARG C   2      52.098  31.656  31.649  1.00 20.36 LIG 0.18  HD
ENDBRANCH 13 14
ENDBRANCH 12 13
ENDBRANCH 11 12
ENDBRANCH 10 11
BRANCH 10 23
ATOM     23  N   ARG C   2      54.767  30.912  36.144  1.00 19.42 LIG-0.35  N 
ATOM     24  C   ASP C   1      55.394  30.699  37.293  1.00 19.51 LIG 0.25  C 
ATOM     25 O    ASP C   1      55.203  29.677  37.973  1.00 19.29 LIG-0.27  OA
ATOM     26 H    ARG C   2      54.982  31.517  35.572  1.00 19.42 LIG 0.16  HD
BRANCH 24 27
ATOM     27  CA  ASP C   1      56.355  31.765  37.791  1.00 19.04 LIG 0.28  C 
BRANCH 27 28
ATOM     28  CB  ASP C   1      57.769  31.271  37.625  1.00 21.34 LIG 0.15  C 
BRANCH 28 29
ATOM     29  CG  ASP C   1      58.125  31.011  36.138  1.00 23.67 LIG 0.17  C 
ATOM     30 OD2  ASP C   1      58.653  31.956  35.490  1.00 27.41 LIG-0.65  OA
ATOM     31 OD1  ASP C   1      57.858  29.883  35.609  1.00 20.87 LIG-0.65  OA
ENDBRANCH 28 29
ENDBRANCH 27 28
BRANCH 27 32
ATOM     32  N   ASP C   1      56.040  32.010  39.246  1.00 18.38 LIG-0.07  N 
ATOM     33 H1   ASP C   1      55.396  31.454  39.508  1.00 18.38 LIG 0.28  HD
ATOM     34 H3   ASP C   1      55.768  32.850  39.353  1.00 18.38 LIG 0.28  HD
ATOM     35 H2   ASP C   1      56.769  31.870  39.736  1.00 18.38 LIG 0.28  HD
ENDBRANCH 27 32
ENDBRANCH 24 27
ENDBRANCH 10 23
ENDBRANCH 8 10
ENDBRANCH 5 6
BRANCH 5 36
ATOM     36  CB  VAL C   3      56.952  27.741  33.060  1.00 17.74 LIG 0.01  C 
ATOM     37  CG1 VAL C   3      57.434  26.442  32.449  1.00 20.72 LIG 0.01  C 
ATOM     38  CG2 VAL C   3      56.548  28.664  31.925  1.00 18.64 LIG 0.01  C 
ENDBRANCH 5 36
ENDBRANCH 1 5
BRANCH 3 39
ATOM     39  CA  TYR C   4      55.920  25.359  37.197  1.00 17.90 LIG 0.18  C 
BRANCH 39 40
ATOM     40  CB  TYR C   4      56.743  24.190  36.750  1.00 20.19 LIG 0.07  C 
BRANCH 40 41
ATOM     41  CG  TYR C   4      56.646  22.950  37.598  1.00 23.00 LIG-0.06  A 
ATOM     42  CD2 TYR C   4      56.833  23.019  38.979  1.00 26.62 LIG 0.01  A 
ATOM     43  CE2 TYR C   4      56.754  21.894  39.775  1.00 28.63 LIG 0.04  A 
ATOM     44  CZ  TYR C   4      56.493  20.690  39.197  1.00 25.42 LIG 0.07  A 
ATOM     45  CE1 TYR C   4      56.262  20.590  37.867  1.00 26.89 LIG 0.04  A 
ATOM     46  CD1 TYR C   4      56.345  21.732  37.057  1.00 24.41 LIG 0.01  A 
BRANCH 44 47
ATOM     47 OH   TYR C   4      56.409  19.580  39.987  1.00 32.39 LIG-0.36  OA
ATOM     48 HH   TYR C   4      55.632  19.263  39.943  1.00 32.39 LIG 0.22  HD
ENDBRANCH 44 47
ENDBRANCH 40 41
ENDBRANCH 39 40
BRANCH 39 49
ATOM     49  C   TYR C   4      56.656  26.205  38.274  1.00 20.63 LIG 0.24  C 
ATOM     50 O    TYR C   4      57.755  26.644  38.077  1.00 19.73 LIG-0.27  OA
ATOM     51  N   ILE C   5      55.959  26.519  39.356  1.00 22.91 LIG-0.35  N 
ATOM     52 H    ILE C   5      55.129  26.322  39.471  1.00 22.91 LIG 0.16  HD
BRANCH 51 53
ATOM     53  CA  ILE C   5      56.567  27.241  40.459  1.00 27.58 LIG 0.18  C 
BRANCH 53 54
ATOM     54  C   ILE C   5      56.022  26.709  41.782  1.00 33.14 LIG 0.24  C 
ATOM     55  N   HIS C   6      56.686  27.043  42.896  1.00 39.14 LIG-0.35  N 
ATOM     56 H    HIS C   6      57.424  27.484  42.885  1.00 39.14 LIG 0.16  HD
ATOM     57 O    ILE C   5      55.078  25.924  41.747  1.00 25.88 LIG-0.27  OA
BRANCH 55 58
ATOM     58  CA  HIS C   6      56.221  26.689  44.286  1.00 56.87 LIG 0.17  C 
BRANCH 58 59
ATOM     59  CB  HIS C   6      57.306  27.057  45.340  1.00 66.39 LIG 0.09  C 
BRANCH 59 60
ATOM     60  CG  HIS C   6      58.651  27.399  44.764  1.00 78.50 LIG 0.06  A 
ATOM     61  CD2 HIS C   6      59.838  26.749  44.854  1.00 82.71 LIG 0.14  A 
ATOM     62 NE2  HIS C   6      60.750  27.455  44.103  1.00 84.02 LIG-0.25  NA
ATOM     63  CE1 HIS C   6      60.141  28.491  43.549  1.00 85.20 LIG 0.23  A 
ATOM     64 ND1  HIS C   6      58.872  28.478  43.926  1.00 88.66 LIG-0.24  NA
ENDBRANCH 59 60
ENDBRANCH 58 59
BRANCH 58 65
ATOM     65  C   HIS C   6      54.894  27.296  44.763  1.00 59.18 LIG 0.22  C 
ATOM     66 O    HIS C   6      54.217  26.730  45.662  1.00 63.69 LIG-0.29  OA
ENDBRANCH 58 65
ENDBRANCH 55 58
ENDBRANCH 53 54
BRANCH 53 67
ATOM     67  CB  ILE C   5      56.319  28.735  40.300  1.00 28.54 LIG 0.01  C 
ATOM     68  CG2 ILE C   5      55.269  29.166  41.321  1.00 32.34 LIG 0.01  C 
BRANCH 67 69
ATOM     69  CG1 ILE C   5      57.679  29.438  40.440  1.00 30.21 LIG 0.00  C 
ATOM     70  CD1 ILE C   5      58.901  28.559  40.350  1.00 32.85 LIG 0.01  C 
ENDBRANCH 67 69
ENDBRANCH 53 67
ENDBRANCH 51 53
ENDBRANCH 39 49
ENDBRANCH 3 39
TORSDOF 26
ENDMDL
MODEL 45
USER: ADFR SOLUTION from run 55
USER: SCORE 19.875728 LL:  -5.763 LR: -17.193 RR:   0.000 FEB:  -9.437
USER: RMSD 11.400427
USER: SEED 54
USER: STATUS no improvement in best in 1 clusters for 5 generations
USER: GENES 28
USER: genes 0 Translation |==|  0.72846 0.45179 0.54739
USER: genes 1 Rotation |==|  0.29134 0.93717 0.37698 0.51443
USER: genes 2 Torsion [N]-C--CA-[N] |==|  0.81555
USER: genes 3 Torsion [C]-CA--N-[C] |==|  0.20087
USER: genes 4 Torsion [N]-C--CA-[N] |==|  0.57222
USER: genes 5 Torsion [C]-CA--CB-[CG] |==|  0.48815
USER: genes 6 Torsion [CA]-CB--CG-[CD] |==|  0.55505
USER: genes 7 Torsion [CB]-CG--CD-[NE] |==|  0.96931
USER: genes 8 Torsion [CG]-CD--NE-[CZ] |==|  0.75341
USER: genes 9 Torsion [C]-CA--N-[C] |==|  0.12830
USER: genes 10 Torsion [N]-C--CA-[N] |==|  0.96869
USER: genes 11 Torsion [C]-CA--CB-[CG] |==|  0.74072
USER: genes 12 Torsion [CA]-CB--CG-[OD2] |==|  0.81517
USER: genes 13 Torsion [C]-CA--N-[H1] |==|  0.22800
USER: genes 14 Torsion [C]-CA--CB-[CG1] |==|  0.14310
USER: genes 15 Torsion [C]-N--CA-[CB] |==|  0.23123
USER: genes 16 Torsion [N]-CA--CB-[CG] |==|  0.66115
USER: genes 17 Torsion [CA]-CB--CG-[CD2] |==|  0.38451
USER: genes 18 Torsion [CE2]-CZ--OH-[HH] |==|  0.76017
USER: genes 19 Torsion [N]-CA--C-[N] |==|  0.71927
USER: genes 20 Torsion [C]-N--CA-[C] |==|  0.58014
USER: genes 21 Torsion [N]-CA--C-[N] |==|  0.39116
USER: genes 22 Torsion [C]-N--CA-[CB] |==|  0.82797
USER: genes 23 Torsion [N]-CA--CB-[CG] |==|  0.86380
USER: genes 24 Torsion [CA]-CB--CG-[CD2] |==|  0.50916
USER: genes 25 Torsion [N]-CA--C-[O] |==|  0.40725
USER: genes 26 Torsion [N]-CA--CB-[CG1] |==|  0.60006
USER: genes 27 Torsion [CA]-CB--CG1-[CD1] |==|  0.26499
ROOT
ATOM      1  C   VAL C   3      58.085  28.101  35.605  1.00 15.94 LIG 0.24  C 
ATOM      2 O    VAL C   3      58.508  29.163  35.191  1.00 17.86 LIG-0.27  OA
ATOM      3  N   TYR C   4      57.756  27.936  36.882  1.00 16.41 LIG-0.35  N 
ATOM      4 H    TYR C   4      57.472  27.195  37.214  1.00 16.41 LIG 0.16  HD
ENDROOT
BRANCH 1 5
ATOM      5  CA  VAL C   3      57.964  26.901  34.643  1.00 16.01 LIG 0.18  C 
BRANCH 5 6
ATOM      6  N   VAL C   3      58.968  25.905  35.075  1.00 15.77 LIG-0.35  N 
ATOM      7 H    VAL C   3      59.652  25.822  34.559  1.00 15.77 LIG 0.16  HD
ATOM      8  C   ARG C   2      58.769  25.221  36.189  1.00 16.54 LIG 0.24  C 
ATOM      9 O    ARG C   2      57.812  25.452  36.959  1.00 14.63 LIG-0.27  OA
BRANCH 8 10
ATOM     10  CA  ARG C   2      59.778  24.138  36.521  1.00 19.03 LIG 0.18  C 
BRANCH 10 11
ATOM     11  CB  ARG C   2      60.313  23.535  35.218  1.00 20.38 LIG 0.04  C 
BRANCH 11 12
ATOM     12  CG  ARG C   2      61.393  22.521  35.388  1.00 20.75 LIG 0.02  C 
BRANCH 12 13
ATOM     13  CD  ARG C   2      62.152  22.350  34.148  1.00 22.55 LIG 0.14  C 
BRANCH 13 14
ATOM     14  NE  ARG C   2      61.525  22.994  33.026  1.00 20.36 LIG-0.23  N 
ATOM     15  CZ  ARG C   2      60.631  22.426  32.245  1.00 23.11 LIG 0.67  C 
ATOM     16  NH1 ARG C   2      60.156  21.264  32.528  1.00 23.20 LIG-0.23  N 
ATOM     17  NH2 ARG C   2      60.144  23.114  31.205  1.00 25.55 LIG-0.23  N 
ATOM     18 1HH1 ARG C   2      60.423  20.851  33.234  1.00 23.20 LIG 0.17  HD
ATOM     19 2HH1 ARG C   2      59.572  20.901  32.013  1.00 23.20 LIG 0.17  HD
ATOM     20 2HH2 ARG C   2      59.559  22.755  30.687  1.00 25.55 LIG 0.17  HD
ATOM     21 1HH2 ARG C   2      60.416  23.916  31.054  1.00 25.55 LIG 0.17  HD
ATOM     22 HE   ARG C   2      61.751  23.805  32.854  1.00 20.36 LIG 0.18  HD
ENDBRANCH 13 14
ENDBRANCH 12 13
ENDBRANCH 11 12
ENDBRANCH 10 11
BRANCH 10 23
ATOM     23  N   ARG C   2      59.171  23.092  37.361  1.00 19.42 LIG-0.35  N 
ATOM     24  C   ASP C   1      57.983  22.598  37.044  1.00 19.51 LIG 0.25  C 
ATOM     25 O    ASP C   1      57.452  22.804  35.940  1.00 19.29 LIG-0.27  OA
ATOM     26 H    ARG C   2      59.640  22.849  38.040  1.00 19.42 LIG 0.16  HD
BRANCH 24 27
ATOM     27  CA  ASP C   1      57.250  21.775  38.089  1.00 19.04 LIG 0.28  C 
BRANCH 27 28
ATOM     28  CB  ASP C   1      56.073  22.564  38.602  1.00 21.34 LIG 0.15  C 
BRANCH 28 29
ATOM     29  CG  ASP C   1      56.423  23.373  39.878  1.00 23.67 LIG 0.17  C 
ATOM     30 OD2  ASP C   1      56.692  22.725  40.926  1.00 27.41 LIG-0.65  OA
ATOM     31 OD1  ASP C   1      56.405  24.647  39.846  1.00 20.87 LIG-0.65  OA
ENDBRANCH 28 29
ENDBRANCH 27 28
BRANCH 27 32
ATOM     32  N   ASP C   1      58.228  21.487  39.201  1.00 18.38 LIG-0.07  N 
ATOM     33 H1   ASP C   1      58.269  22.188  39.749  1.00 18.38 LIG 0.28  HD
ATOM     34 H3   ASP C   1      59.033  21.333  38.856  1.00 18.38 LIG 0.28  HD
ATOM     35 H2   ASP C   1      57.959  20.771  39.656  1.00 18.38 LIG 0.28  HD
ENDBRANCH 27 32
ENDBRANCH 24 27
ENDBRANCH 10 23
ENDBRANCH 8 10
ENDBRANCH 5 6
BRANCH 5 36
ATOM     36  CB  VAL C   3      56.546  26.383  34.736  1.00 17.74 LIG 0.01  C 
ATOM     37  CG1 VAL C   3      55.531  27.490  34.549  1.00 20.72 LIG 0.01  C 
ATOM     38  CG2 VAL C   3      56.278  25.327  33.679  1.00 18.64 LIG 0.01  C 
ENDBRANCH 5 36
ENDBRANCH 1 5
BRANCH 3 39
ATOM     39  CA  TYR C   4      57.853  29.028  37.844  1.00 17.90 LIG 0.18  C 
BRANCH 39 40
ATOM     40  CB  TYR C   4      56.635  29.898  37.787  1.00 20.19 LIG 0.07  C 
BRANCH 40 41
ATOM     41  CG  TYR C   4      56.874  31.352  37.483  1.00 23.00 LIG-0.06  A 
ATOM     42  CD2 TYR C   4      56.032  32.043  36.611  1.00 26.62 LIG 0.01  A 
ATOM     43  CE2 TYR C   4      56.236  33.375  36.313  1.00 28.63 LIG 0.04  A 
ATOM     44  CZ  TYR C   4      57.287  34.028  36.882  1.00 25.42 LIG 0.07  A 
ATOM     45  CE1 TYR C   4      58.099  33.404  37.766  1.00 26.89 LIG 0.04  A 
ATOM     46  CD1 TYR C   4      57.894  32.049  38.066  1.00 24.41 LIG 0.01  A 
BRANCH 44 47
ATOM     47 OH   TYR C   4      57.482  35.347  36.591  1.00 32.39 LIG-0.36  OA
ATOM     48 HH   TYR C   4      57.939  35.414  35.889  1.00 32.39 LIG 0.22  HD
ENDBRANCH 44 47
ENDBRANCH 40 41
ENDBRANCH 39 40
BRANCH 39 49
ATOM     49  C   TYR C   4      58.148  28.541  39.292  1.00 20.63 LIG 0.24  C 
ATOM     50 O    TYR C   4      59.271  28.336  39.662  1.00 19.73 LIG-0.27  OA
ATOM     51  N   ILE C   5      57.115  28.492  40.120  1.00 22.91 LIG-0.35  N 
ATOM     52 H    ILE C   5      56.320  28.750  39.917  1.00 22.91 LIG 0.16  HD
BRANCH 51 53
ATOM     53  CA  ILE C   5      57.260  27.983  41.472  1.00 27.58 LIG 0.18  C 
BRANCH 53 54
ATOM     54  C   ILE C   5      55.937  27.377  41.934  1.00 33.14 LIG 0.24  C 
ATOM     55  N   HIS C   6      56.000  26.251  42.659  1.00 39.14 LIG-0.35  N 
ATOM     56 H    HIS C   6      56.737  25.837  42.814  1.00 39.14 LIG 0.16  HD
ATOM     57 O    ILE C   5      54.894  27.886  41.534  1.00 25.88 LIG-0.27  OA
BRANCH 55 58
ATOM     58  CA  HIS C   6      54.797  25.587  43.279  1.00 56.87 LIG 0.17  C 
BRANCH 58 59
ATOM     59  CB  HIS C   6      54.120  26.530  44.316  1.00 66.39 LIG 0.09  C 
BRANCH 59 60
ATOM     60  CG  HIS C   6      55.062  27.149  45.310  1.00 78.50 LIG 0.06  A 
ATOM     61  CD2 HIS C   6      54.815  27.958  46.370  1.00 82.71 LIG 0.14  A 
ATOM     62 NE2  HIS C   6      56.021  28.205  46.987  1.00 84.02 LIG-0.25  NA
ATOM     63  CE1 HIS C   6      56.975  27.553  46.343  1.00 85.20 LIG 0.23  A 
ATOM     64 ND1  HIS C   6      56.424  26.902  45.330  1.00 88.66 LIG-0.24  NA
ENDBRANCH 59 60
ENDBRANCH 58 59
BRANCH 58 65
ATOM     65  C   HIS C   6      53.700  25.085  42.330  1.00 59.18 LIG 0.22  C 
ATOM     66 O    HIS C   6      53.037  24.049  42.608  1.00 63.69 LIG-0.29  OA
ENDBRANCH 58 65
ENDBRANCH 55 58
ENDBRANCH 53 54
BRANCH 53 67
ATOM     67  CB  ILE C   5      57.732  29.096  42.398  1.00 28.54 LIG 0.01  C 
ATOM     68  CG2 ILE C   5      56.507  29.777  43.003  1.00 32.34 LIG 0.01  C 
BRANCH 67 69
ATOM     69  CG1 ILE C   5      58.687  28.460  43.422  1.00 30.21 LIG 0.00  C 
ATOM     70  CD1 ILE C   5      60.159  28.538  43.103  1.00 32.85 LIG 0.01  C 
ENDBRANCH 67 69
ENDBRANCH 53 67
ENDBRANCH 51 53
ENDBRANCH 39 49
ENDBRANCH 3 39
TORSDOF 26
ENDMDL
MODEL 46
USER: ADFR SOLUTION from run 139
USER: SCORE 20.678221 LL:  -5.115 LR: -17.189 RR:   0.000 FEB:  -9.433
USER: RMSD 6.131628
USER: SEED 138
USER: STATUS no improvement in best in 7 clusters for 5 generations
USER: GENES 28
USER: genes 0 Translation |==|  0.60658 0.32113 0.63530
USER: genes 1 Rotation |==|  0.59427 0.47954 0.76456 0.91316
USER: genes 2 Torsion [N]-C--CA-[N] |==|  0.02247
USER: genes 3 Torsion [C]-CA--N-[C] |==|  0.20599
USER: genes 4 Torsion [N]-C--CA-[N] |==|  0.51665
USER: genes 5 Torsion [C]-CA--CB-[CG] |==|  0.69831
USER: genes 6 Torsion [CA]-CB--CG-[CD] |==|  0.19771
USER: genes 7 Torsion [CB]-CG--CD-[NE] |==|  0.72958
USER: genes 8 Torsion [CG]-CD--NE-[CZ] |==|  0.37784
USER: genes 9 Torsion [C]-CA--N-[C] |==|  0.82521
USER: genes 10 Torsion [N]-C--CA-[N] |==|  0.98069
USER: genes 11 Torsion [C]-CA--CB-[CG] |==|  0.85430
USER: genes 12 Torsion [CA]-CB--CG-[OD2] |==|  0.31380
USER: genes 13 Torsion [C]-CA--N-[H1] |==|  0.27436
USER: genes 14 Torsion [C]-CA--CB-[CG1] |==|  0.17576
USER: genes 15 Torsion [C]-N--CA-[CB] |==|  0.81984
USER: genes 16 Torsion [N]-CA--CB-[CG] |==|  0.94096
USER: genes 17 Torsion [CA]-CB--CG-[CD2] |==|  0.81105
USER: genes 18 Torsion [CE2]-CZ--OH-[HH] |==|  0.27842
USER: genes 19 Torsion [N]-CA--C-[N] |==|  0.33889
USER: genes 20 Torsion [C]-N--CA-[C] |==|  0.70177
USER: genes 21 Torsion [N]-CA--C-[N] |==|  0.12450
USER: genes 22 Torsion [C]-N--CA-[CB] |==|  0.54935
USER: genes 23 Torsion [N]-CA--CB-[CG] |==|  0.15257
USER: genes 24 Torsion [CA]-CB--CG-[CD2] |==|  0.60628
USER: genes 25 Torsion [N]-CA--C-[O] |==|  0.24900
USER: genes 26 Torsion [N]-CA--CB-[CG1] |==|  0.95587
USER: genes 27 Torsion [CA]-CB--CG1-[CD1] |==|  0.40785
ROOT
ATOM      1  C   VAL C   3      55.982  24.769  37.913  1.00 15.94 LIG 0.24  C 
ATOM      2 O    VAL C   3      55.095  23.950  37.769  1.00 17.86 LIG-0.27  OA
ATOM      3  N   TYR C   4      56.450  25.472  36.886  1.00 16.41 LIG-0.35  N 
ATOM      4 H    TYR C   4      57.089  26.044  36.948  1.00 16.41 LIG 0.16  HD
ENDROOT
BRANCH 1 5
ATOM      5  CA  VAL C   3      56.613  24.972  39.305  1.00 16.01 LIG 0.18  C 
BRANCH 5 6
ATOM      6  N   VAL C   3      57.536  26.121  39.192  1.00 15.77 LIG-0.35  N 
ATOM      7 H    VAL C   3      58.374  25.923  39.184  1.00 15.77 LIG 0.16  HD
ATOM      8  C   ARG C   2      57.044  27.346  39.111  1.00 16.54 LIG 0.24  C 
ATOM      9 O    ARG C   2      55.819  27.574  39.020  1.00 14.63 LIG-0.27  OA
BRANCH 8 10
ATOM     10  CA  ARG C   2      58.041  28.489  39.108  1.00 19.03 LIG 0.18  C 
BRANCH 10 11
ATOM     11  CB  ARG C   2      58.984  28.336  40.306  1.00 20.38 LIG 0.04  C 
BRANCH 11 12
ATOM     12  CG  ARG C   2      58.783  29.330  41.400  1.00 20.75 LIG 0.02  C 
BRANCH 12 13
ATOM     13  CD  ARG C   2      57.536  29.069  42.121  1.00 22.55 LIG 0.14  C 
BRANCH 13 14
ATOM     14  NE  ARG C   2      56.451  29.892  41.659  1.00 20.36 LIG-0.23  N 
ATOM     15  CZ  ARG C   2      55.229  29.457  41.432  1.00 23.11 LIG 0.67  C 
ATOM     16  NH1 ARG C   2      54.894  28.254  41.745  1.00 23.20 LIG-0.23  N 
ATOM     17  NH2 ARG C   2      54.309  30.310  40.966  1.00 25.55 LIG-0.23  N 
ATOM     18 1HH1 ARG C   2      55.470  27.727  42.105  1.00 23.20 LIG 0.17  HD
ATOM     19 2HH1 ARG C   2      54.093  27.978  41.594  1.00 23.20 LIG 0.17  HD
ATOM     20 2HH2 ARG C   2      53.508  30.038  40.815  1.00 25.55 LIG 0.17  HD
ATOM     21 1HH2 ARG C   2      54.520  31.131  40.818  1.00 25.55 LIG 0.17  HD
ATOM     22 HE   ARG C   2      56.611  30.725  41.520  1.00 20.36 LIG 0.18  HD
ENDBRANCH 13 14
ENDBRANCH 12 13
ENDBRANCH 11 12
ENDBRANCH 10 11
BRANCH 10 23
ATOM     23  N   ARG C   2      57.352  29.789  39.158  1.00 19.42 LIG-0.35  N 
ATOM     24  C   ASP C   1      56.551  30.150  38.165  1.00 19.51 LIG 0.25  C 
ATOM     25 O    ASP C   1      56.165  29.347  37.300  1.00 19.29 LIG-0.27  OA
ATOM     26 H    ARG C   2      57.514  30.264  39.857  1.00 19.42 LIG 0.16  HD
BRANCH 24 27
ATOM     27  CA  ASP C   1      56.123  31.605  38.087  1.00 19.04 LIG 0.28  C 
BRANCH 27 28
ATOM     28  CB  ASP C   1      56.727  32.232  36.857  1.00 21.34 LIG 0.15  C 
BRANCH 28 29
ATOM     29  CG  ASP C   1      58.260  32.016  36.784  1.00 23.67 LIG 0.17  C 
ATOM     30 OD2  ASP C   1      58.704  31.279  35.861  1.00 27.41 LIG-0.65  OA
ATOM     31 OD1  ASP C   1      59.019  32.554  37.655  1.00 20.87 LIG-0.65  OA
ENDBRANCH 28 29
ENDBRANCH 27 28
BRANCH 27 32
ATOM     32  N   ASP C   1      56.621  32.288  39.336  1.00 18.38 LIG-0.07  N 
ATOM     33 H1   ASP C   1      57.377  32.721  39.156  1.00 18.38 LIG 0.28  HD
ATOM     34 H3   ASP C   1      56.770  31.680  39.968  1.00 18.38 LIG 0.28  HD
ATOM     35 H2   ASP C   1      56.009  32.868  39.622  1.00 18.38 LIG 0.28  HD
ENDBRANCH 27 32
ENDBRANCH 24 27
ENDBRANCH 10 23
ENDBRANCH 8 10
ENDBRANCH 5 6
BRANCH 5 36
ATOM     36  CB  VAL C   3      55.487  25.218  40.285  1.00 17.74 LIG 0.01  C 
ATOM     37  CG1 VAL C   3      54.568  24.020  40.396  1.00 20.72 LIG 0.01  C 
ATOM     38  CG2 VAL C   3      56.024  25.519  41.673  1.00 18.64 LIG 0.01  C 
ENDBRANCH 5 36
ENDBRANCH 1 5
BRANCH 3 39
ATOM     39  CA  TYR C   4      55.902  25.323  35.544  1.00 17.90 LIG 0.18  C 
BRANCH 39 40
ATOM     40  CB  TYR C   4      56.160  23.947  35.012  1.00 20.19 LIG 0.07  C 
BRANCH 40 41
ATOM     41  CG  TYR C   4      57.289  23.189  35.658  1.00 23.00 LIG-0.06  A 
ATOM     42  CD2 TYR C   4      58.610  23.604  35.487  1.00 26.62 LIG 0.01  A 
ATOM     43  CE2 TYR C   4      59.661  22.921  36.065  1.00 28.63 LIG 0.04  A 
ATOM     44  CZ  TYR C   4      59.401  21.816  36.815  1.00 25.42 LIG 0.07  A 
ATOM     45  CE1 TYR C   4      58.130  21.409  37.040  1.00 26.89 LIG 0.04  A 
ATOM     46  CD1 TYR C   4      57.063  22.100  36.450  1.00 24.41 LIG 0.01  A 
BRANCH 44 47
ATOM     47 OH   TYR C   4      60.442  21.147  37.391  1.00 32.39 LIG-0.36  OA
ATOM     48 HH   TYR C   4      60.501  21.363  38.201  1.00 32.39 LIG 0.22  HD
ENDBRANCH 44 47
ENDBRANCH 40 41
ENDBRANCH 39 40
BRANCH 39 49
ATOM     49  C   TYR C   4      54.396  25.704  35.454  1.00 20.63 LIG 0.24  C 
ATOM     50 O    TYR C   4      53.588  25.232  36.205  1.00 19.73 LIG-0.27  OA
ATOM     51  N   ILE C   5      54.081  26.664  34.597  1.00 22.91 LIG-0.35  N 
ATOM     52 H    ILE C   5      54.654  27.106  34.133  1.00 22.91 LIG 0.16  HD
BRANCH 51 53
ATOM     53  CA  ILE C   5      52.698  27.049  34.375  1.00 27.58 LIG 0.18  C 
BRANCH 53 54
ATOM     54  C   ILE C   5      52.241  26.549  33.007  1.00 33.14 LIG 0.24  C 
ATOM     55  N   HIS C   6      52.566  25.293  32.674  1.00 39.14 LIG-0.35  N 
ATOM     56 H    HIS C   6      53.064  24.793  33.167  1.00 39.14 LIG 0.16  HD
ATOM     57 O    ILE C   5      51.699  27.349  32.248  1.00 25.88 LIG-0.27  OA
BRANCH 55 58
ATOM     58  CA  HIS C   6      52.103  24.615  31.410  1.00 56.87 LIG 0.17  C 
BRANCH 58 59
ATOM     59  CB  HIS C   6      52.262  23.071  31.523  1.00 66.39 LIG 0.09  C 
BRANCH 59 60
ATOM     60  CG  HIS C   6      51.581  22.455  32.713  1.00 78.50 LIG 0.06  A 
ATOM     61  CD2 HIS C   6      51.974  21.442  33.525  1.00 82.71 LIG 0.14  A 
ATOM     62 NE2  HIS C   6      51.009  21.299  34.497  1.00 84.02 LIG-0.25  NA
ATOM     63  CE1 HIS C   6      50.066  22.206  34.304  1.00 85.20 LIG 0.23  A 
ATOM     64 ND1  HIS C   6      50.389  22.922  33.238  1.00 88.66 LIG-0.24  NA
ENDBRANCH 59 60
ENDBRANCH 58 59
BRANCH 58 65
ATOM     65  C   HIS C   6      50.667  24.895  30.943  1.00 59.18 LIG 0.22  C 
ATOM     66 O    HIS C   6      50.422  25.861  30.172  1.00 63.69 LIG-0.29  OA
ENDBRANCH 58 65
ENDBRANCH 55 58
ENDBRANCH 53 54
BRANCH 53 67
ATOM     67  CB  ILE C   5      52.553  28.559  34.509  1.00 28.54 LIG 0.01  C 
ATOM     68  CG2 ILE C   5      51.245  28.859  35.239  1.00 32.34 LIG 0.01  C 
BRANCH 67 69
ATOM     69  CG1 ILE C   5      53.817  29.075  35.217  1.00 30.21 LIG 0.00  C 
ATOM     70  CD1 ILE C   5      54.297  30.446  34.813  1.00 32.85 LIG 0.01  C 
ENDBRANCH 67 69
ENDBRANCH 53 67
ENDBRANCH 51 53
ENDBRANCH 39 49
ENDBRANCH 3 39
TORSDOF 26
ENDMDL
MODEL 47
USER: ADFR SOLUTION from run 114
USER: SCORE 22.887093 LL:  -7.073 LR: -17.184 RR:   0.000 FEB:  -9.428
USER: RMSD 4.863181
USER: SEED 113
USER: STATUS searching
USER: GENES 28
USER: genes 0 Translation |==|  0.58123 0.47570 0.50440
USER: genes 1 Rotation |==|  0.13522 0.50182 0.23940 0.72141
USER: genes 2 Torsion [N]-C--CA-[N] |==|  0.82765
USER: genes 3 Torsion [C]-CA--N-[C] |==|  0.59549
USER: genes 4 Torsion [N]-C--CA-[N] |==|  0.19491
USER: genes 5 Torsion [C]-CA--CB-[CG] |==|  0.40083
USER: genes 6 Torsion [CA]-CB--CG-[CD] |==|  0.84327
USER: genes 7 Torsion [CB]-CG--CD-[NE] |==|  0.60841
USER: genes 8 Torsion [CG]-CD--NE-[CZ] |==|  0.73044
USER: genes 9 Torsion [C]-CA--N-[C] |==|  0.77892
USER: genes 10 Torsion [N]-C--CA-[N] |==|  0.40415
USER: genes 11 Torsion [C]-CA--CB-[CG] |==|  0.74479
USER: genes 12 Torsion [CA]-CB--CG-[OD2] |==|  0.79689
USER: genes 13 Torsion [C]-CA--N-[H1] |==|  0.44186
USER: genes 14 Torsion [C]-CA--CB-[CG1] |==|  0.41464
USER: genes 15 Torsion [C]-N--CA-[CB] |==|  0.75554
USER: genes 16 Torsion [N]-CA--CB-[CG] |==|  0.12296
USER: genes 17 Torsion [CA]-CB--CG-[CD2] |==|  0.78177
USER: genes 18 Torsion [CE2]-CZ--OH-[HH] |==|  0.32501
USER: genes 19 Torsion [N]-CA--C-[N] |==|  0.07594
USER: genes 20 Torsion [C]-N--CA-[C] |==|  0.81703
USER: genes 21 Torsion [N]-CA--C-[N] |==|  0.93553
USER: genes 22 Torsion [C]-N--CA-[CB] |==|  0.48715
USER: genes 23 Torsion [N]-CA--CB-[CG] |==|  0.05581
USER: genes 24 Torsion [CA]-CB--CG-[CD2] |==|  0.19810
USER: genes 25 Torsion [N]-CA--C-[O] |==|  0.76854
USER: genes 26 Torsion [N]-CA--CB-[CG1] |==|  0.13706
USER: genes 27 Torsion [CA]-CB--CG1-[CD1] |==|  0.50736
ROOT
ATOM      1  C   VAL C   3      55.545  28.710  34.477  1.00 15.94 LIG 0.24  C 
ATOM      2 O    VAL C   3      55.265  28.990  33.327  1.00 17.86 LIG-0.27  OA
ATOM      3  N   TYR C   4      54.723  27.993  35.235  1.00 16.41 LIG-0.35  N 
ATOM      4 H    TYR C   4      54.879  27.793  36.057  1.00 16.41 LIG 0.16  HD
ENDROOT
BRANCH 1 5
ATOM      5  CA  VAL C   3      56.862  29.230  35.089  1.00 16.01 LIG 0.18  C 
BRANCH 5 6
ATOM      6  N   VAL C   3      56.489  30.135  36.197  1.00 15.77 LIG-0.35  N 
ATOM      7 H    VAL C   3      55.780  29.915  36.631  1.00 15.77 LIG 0.16  HD
ATOM      8  C   ARG C   2      57.237  31.195  36.452  1.00 16.54 LIG 0.24  C 
ATOM      9 O    ARG C   2      58.316  31.415  35.861  1.00 14.63 LIG-0.27  OA
BRANCH 8 10
ATOM     10  CA  ARG C   2      56.743  32.143  37.527  1.00 19.03 LIG 0.18  C 
BRANCH 10 11
ATOM     11  CB  ARG C   2      57.560  33.438  37.469  1.00 20.38 LIG 0.04  C 
BRANCH 11 12
ATOM     12  CG  ARG C   2      56.796  34.682  37.775  1.00 20.75 LIG 0.02  C 
BRANCH 12 13
ATOM     13  CD  ARG C   2      55.643  34.821  36.883  1.00 22.55 LIG 0.14  C 
BRANCH 13 14
ATOM     14  NE  ARG C   2      55.427  36.181  36.471  1.00 20.36 LIG-0.23  N 
ATOM     15  CZ  ARG C   2      54.570  37.005  37.037  1.00 23.11 LIG 0.67  C 
ATOM     16  NH1 ARG C   2      53.946  36.665  38.110  1.00 23.20 LIG-0.23  N 
ATOM     17  NH2 ARG C   2      54.428  38.240  36.541  1.00 25.55 LIG-0.23  N 
ATOM     18 1HH1 ARG C   2      54.088  35.894  38.465  1.00 23.20 LIG 0.17  HD
ATOM     19 2HH1 ARG C   2      53.388  37.210  38.474  1.00 23.20 LIG 0.17  HD
ATOM     20 2HH2 ARG C   2      53.872  38.787  36.902  1.00 25.55 LIG 0.17  HD
ATOM     21 1HH2 ARG C   2      54.894  38.486  35.861  1.00 25.55 LIG 0.17  HD
ATOM     22 HE   ARG C   2      55.889  36.477  35.810  1.00 20.36 LIG 0.18  HD
ENDBRANCH 13 14
ENDBRANCH 12 13
ENDBRANCH 11 12
ENDBRANCH 10 11
BRANCH 10 23
ATOM     23  N   ARG C   2      56.848  31.528  38.861  1.00 19.42 LIG-0.35  N 
ATOM     24  C   ASP C   1      55.928  30.662  39.262  1.00 19.51 LIG 0.25  C 
ATOM     25 O    ASP C   1      55.104  30.160  38.479  1.00 19.29 LIG-0.27  OA
ATOM     26 H    ARG C   2      57.527  31.774  39.327  1.00 19.42 LIG 0.16  HD
BRANCH 24 27
ATOM     27  CA  ASP C   1      55.881  30.302  40.736  1.00 19.04 LIG 0.28  C 
BRANCH 27 28
ATOM     28  CB  ASP C   1      56.688  29.050  40.965  1.00 21.34 LIG 0.15  C 
BRANCH 28 29
ATOM     29  CG  ASP C   1      55.820  27.769  40.868  1.00 23.67 LIG 0.17  C 
ATOM     30 OD2  ASP C   1      55.026  27.528  41.818  1.00 27.41 LIG-0.65  OA
ATOM     31 OD1  ASP C   1      55.945  26.992  39.866  1.00 20.87 LIG-0.65  OA
ENDBRANCH 28 29
ENDBRANCH 27 28
BRANCH 27 32
ATOM     32  N   ASP C   1      54.434  30.080  41.099  1.00 18.38 LIG-0.07  N 
ATOM     33 H1   ASP C   1      54.385  29.587  41.839  1.00 18.38 LIG 0.28  HD
ATOM     34 H3   ASP C   1      54.022  29.657  40.434  1.00 18.38 LIG 0.28  HD
ATOM     35 H2   ASP C   1      54.039  30.865  41.240  1.00 18.38 LIG 0.28  HD
ENDBRANCH 27 32
ENDBRANCH 24 27
ENDBRANCH 10 23
ENDBRANCH 8 10
ENDBRANCH 5 6
BRANCH 5 36
ATOM     36  CB  VAL C   3      57.655  28.029  35.554  1.00 17.74 LIG 0.01  C 
ATOM     37  CG1 VAL C   3      59.146  28.273  35.468  1.00 20.72 LIG 0.01  C 
ATOM     38  CG2 VAL C   3      57.326  27.679  36.994  1.00 18.64 LIG 0.01  C 
ENDBRANCH 5 36
ENDBRANCH 1 5
BRANCH 3 39
ATOM     39  CA  TYR C   4      53.461  27.477  34.719  1.00 17.90 LIG 0.18  C 
BRANCH 39 40
ATOM     40  CB  TYR C   4      52.363  28.480  34.896  1.00 20.19 LIG 0.07  C 
BRANCH 40 41
ATOM     41  CG  TYR C   4      52.702  29.902  34.536  1.00 23.00 LIG-0.06  A 
ATOM     42  CD2 TYR C   4      53.439  30.699  35.414  1.00 26.62 LIG 0.01  A 
ATOM     43  CE2 TYR C   4      53.756  32.006  35.107  1.00 28.63 LIG 0.04  A 
ATOM     44  CZ  TYR C   4      53.336  32.530  33.923  1.00 25.42 LIG 0.07  A 
ATOM     45  CE1 TYR C   4      52.658  31.775  33.028  1.00 26.89 LIG 0.04  A 
ATOM     46  CD1 TYR C   4      52.332  30.448  33.341  1.00 24.41 LIG 0.01  A 
BRANCH 44 47
ATOM     47 OH   TYR C   4      53.657  33.822  33.620  1.00 32.39 LIG-0.36  OA
ATOM     48 HH   TYR C   4      54.144  33.836  32.935  1.00 32.39 LIG 0.22  HD
ENDBRANCH 44 47
ENDBRANCH 40 41
ENDBRANCH 39 40
BRANCH 39 49
ATOM     49  C   TYR C   4      53.560  26.981  33.248  1.00 20.63 LIG 0.24  C 
ATOM     50 O    TYR C   4      52.635  27.089  32.491  1.00 19.73 LIG-0.27  OA
ATOM     51  N   ILE C   5      54.749  26.557  32.847  1.00 22.91 LIG-0.35  N 
ATOM     52 H    ILE C   5      55.460  26.582  33.331  1.00 22.91 LIG 0.16  HD
BRANCH 51 53
ATOM     53  CA  ILE C   5      54.940  26.003  31.519  1.00 27.58 LIG 0.18  C 
BRANCH 53 54
ATOM     54  C   ILE C   5      54.166  24.693  31.395  1.00 33.14 LIG 0.24  C 
ATOM     55  N   HIS C   6      53.881  24.041  32.530  1.00 39.14 LIG-0.35  N 
ATOM     56 H    HIS C   6      54.166  24.297  33.300  1.00 39.14 LIG 0.16  HD
ATOM     57 O    ILE C   5      53.941  24.256  30.269  1.00 25.88 LIG-0.27  OA
BRANCH 55 58
ATOM     58  CA  HIS C   6      53.035  22.794  32.590  1.00 56.87 LIG 0.17  C 
BRANCH 58 59
ATOM     59  CB  HIS C   6      52.995  22.225  34.038  1.00 66.39 LIG 0.09  C 
BRANCH 59 60
ATOM     60  CG  HIS C   6      53.356  23.213  35.111  1.00 78.50 LIG 0.06  A 
ATOM     61  CD2 HIS C   6      52.674  24.286  35.586  1.00 82.71 LIG 0.14  A 
ATOM     62 NE2  HIS C   6      53.423  24.830  36.604  1.00 84.02 LIG-0.25  NA
ATOM     63  CE1 HIS C   6      54.518  24.105  36.768  1.00 85.20 LIG 0.23  A 
ATOM     64 ND1  HIS C   6      54.500  23.119  35.884  1.00 88.66 LIG-0.24  NA
ENDBRANCH 59 60
ENDBRANCH 58 59
BRANCH 58 65
ATOM     65  C   HIS C   6      51.585  22.900  32.098  1.00 59.18 LIG 0.22  C 
ATOM     66 O    HIS C   6      50.680  23.330  32.861  1.00 63.69 LIG-0.29  OA
ENDBRANCH 58 65
ENDBRANCH 55 58
ENDBRANCH 53 54
BRANCH 53 67
ATOM     67  CB  ILE C   5      56.427  25.815  31.245  1.00 28.54 LIG 0.01  C 
ATOM     68  CG2 ILE C   5      57.046  27.183  30.965  1.00 32.34 LIG 0.01  C 
BRANCH 67 69
ATOM     69  CG1 ILE C   5      57.021  25.075  32.455  1.00 30.21 LIG 0.00  C 
ATOM     70  CD1 ILE C   5      58.509  24.834  32.427  1.00 32.85 LIG 0.01  C 
ENDBRANCH 67 69
ENDBRANCH 53 67
ENDBRANCH 51 53
ENDBRANCH 39 49
ENDBRANCH 3 39
TORSDOF 26
ENDMDL
MODEL 48
USER: ADFR SOLUTION from run 5
USER: SCORE 22.952181 LL:  -6.755 LR: -17.162 RR:   0.000 FEB:  -9.406
USER: RMSD 7.534183
USER: SEED 253297
USER: STATUS 1 or 2 clusters left
USER: GENES 28
USER: genes 0 Translation |==|  0.45612 0.61873 0.45810
USER: genes 1 Rotation |==|  0.36911 0.17409 0.25247 0.75570
USER: genes 2 Torsion [N]-C--CA-[N] |==|  0.34597
USER: genes 3 Torsion [C]-CA--N-[C] |==|  0.83669
USER: genes 4 Torsion [N]-C--CA-[N] |==|  0.03214
USER: genes 5 Torsion [C]-CA--CB-[CG] |==|  0.29123
USER: genes 6 Torsion [CA]-CB--CG-[CD] |==|  0.77711
USER: genes 7 Torsion [CB]-CG--CD-[NE] |==|  0.79955
USER: genes 8 Torsion [CG]-CD--NE-[CZ] |==|  0.51811
USER: genes 9 Torsion [C]-CA--N-[C] |==|  0.18052
USER: genes 10 Torsion [N]-C--CA-[N] |==|  0.90809
USER: genes 11 Torsion [C]-CA--CB-[CG] |==|  0.70698
USER: genes 12 Torsion [CA]-CB--CG-[OD2] |==|  0.32629
USER: genes 13 Torsion [C]-CA--N-[H1] |==|  0.86026
USER: genes 14 Torsion [C]-CA--CB-[CG1] |==|  0.18082
USER: genes 15 Torsion [C]-N--CA-[CB] |==|  0.50720
USER: genes 16 Torsion [N]-CA--CB-[CG] |==|  0.21678
USER: genes 17 Torsion [CA]-CB--CG-[CD2] |==|  0.35768
USER: genes 18 Torsion [CE2]-CZ--OH-[HH] |==|  0.66561
USER: genes 19 Torsion [N]-CA--C-[N] |==|  0.44023
USER: genes 20 Torsion [C]-N--CA-[C] |==|  0.84444
USER: genes 21 Torsion [N]-CA--C-[N] |==|  0.34864
USER: genes 22 Torsion [C]-N--CA-[CB] |==|  0.21120
USER: genes 23 Torsion [N]-CA--CB-[CG] |==|  0.17696
USER: genes 24 Torsion [CA]-CB--CG-[CD2] |==|  0.44116
USER: genes 25 Torsion [N]-CA--C-[O] |==|  0.90928
USER: genes 26 Torsion [N]-CA--CB-[CG1] |==|  0.88533
USER: genes 27 Torsion [CA]-CB--CG1-[CD1] |==|  0.30342
ROOT
ATOM      1  C   VAL C   3      53.387  32.358  33.261  1.00 15.94 LIG 0.24  C 
ATOM      2 O    VAL C   3      54.135  32.748  32.386  1.00 17.86 LIG-0.27  OA
ATOM      3  N   TYR C   4      53.303  31.069  33.577  1.00 16.41 LIG-0.35  N 
ATOM      4 H    TYR C   4      52.772  30.756  34.176  1.00 16.41 LIG 0.16  HD
ENDROOT
BRANCH 1 5
ATOM      5  CA  VAL C   3      52.482  33.367  33.997  1.00 16.01 LIG 0.18  C 
BRANCH 5 6
ATOM      6  N   VAL C   3      53.373  34.390  34.583  1.00 15.77 LIG-0.35  N 
ATOM      7 H    VAL C   3      53.227  35.198  34.326  1.00 15.77 LIG 0.16  HD
ATOM      8  C   ARG C   2      54.313  34.023  35.439  1.00 16.54 LIG 0.24  C 
ATOM      9 O    ARG C   2      54.417  32.852  35.861  1.00 14.63 LIG-0.27  OA
BRANCH 8 10
ATOM     10  CA  ARG C   2      55.264  35.102  35.920  1.00 19.03 LIG 0.18  C 
BRANCH 10 11
ATOM     11  CB  ARG C   2      55.409  35.000  37.442  1.00 20.38 LIG 0.04  C 
BRANCH 11 12
ATOM     12  CG  ARG C   2      56.693  34.407  37.916  1.00 20.75 LIG 0.02  C 
BRANCH 12 13
ATOM     13  CD  ARG C   2      56.657  32.946  37.834  1.00 22.55 LIG 0.14  C 
BRANCH 13 14
ATOM     14  NE  ARG C   2      55.805  32.359  38.832  1.00 20.36 LIG-0.23  N 
ATOM     15  CZ  ARG C   2      55.694  31.067  39.053  1.00 23.11 LIG 0.67  C 
ATOM     16  NH1 ARG C   2      56.466  30.231  38.450  1.00 23.20 LIG-0.23  N 
ATOM     17  NH2 ARG C   2      54.838  30.635  39.987  1.00 25.55 LIG-0.23  N 
ATOM     18 1HH1 ARG C   2      57.060  30.516  37.897  1.00 23.20 LIG 0.17  HD
ATOM     19 2HH1 ARG C   2      56.387  29.388  38.600  1.00 23.20 LIG 0.17  HD
ATOM     20 2HH2 ARG C   2      54.757  29.793  40.140  1.00 25.55 LIG 0.17  HD
ATOM     21 1HH2 ARG C   2      54.369  31.201  40.434  1.00 25.55 LIG 0.17  HD
ATOM     22 HE   ARG C   2      55.336  32.890  39.319  1.00 20.36 LIG 0.18  HD
ENDBRANCH 13 14
ENDBRANCH 12 13
ENDBRANCH 11 12
ENDBRANCH 10 11
BRANCH 10 23
ATOM     23  N   ARG C   2      54.782  36.439  35.537  1.00 19.42 LIG-0.35  N 
ATOM     24  C   ASP C   1      53.650  36.904  36.048  1.00 19.51 LIG 0.25  C 
ATOM     25 O    ASP C   1      53.089  36.365  37.016  1.00 19.29 LIG-0.27  OA
ATOM     26 H    ARG C   2      55.281  36.864  34.980  1.00 19.42 LIG 0.16  HD
BRANCH 24 27
ATOM     27  CA  ASP C   1      53.021  38.123  35.396  1.00 19.04 LIG 0.28  C 
BRANCH 27 28
ATOM     28  CB  ASP C   1      52.130  37.674  34.266  1.00 21.34 LIG 0.15  C 
BRANCH 28 29
ATOM     29  CG  ASP C   1      52.764  37.950  32.878  1.00 23.67 LIG 0.17  C 
ATOM     30 OD2  ASP C   1      53.017  36.956  32.143  1.00 27.41 LIG-0.65  OA
ATOM     31 OD1  ASP C   1      53.036  39.145  32.531  1.00 20.87 LIG-0.65  OA
ENDBRANCH 28 29
ENDBRANCH 27 28
BRANCH 27 32
ATOM     32  N   ASP C   1      54.144  38.988  34.883  1.00 18.38 LIG-0.07  N 
ATOM     33 H1   ASP C   1      54.741  39.116  35.531  1.00 18.38 LIG 0.28  HD
ATOM     34 H3   ASP C   1      53.818  39.774  34.621  1.00 18.38 LIG 0.28  HD
ATOM     35 H2   ASP C   1      54.537  38.587  34.193  1.00 18.38 LIG 0.28  HD
ENDBRANCH 27 32
ENDBRANCH 24 27
ENDBRANCH 10 23
ENDBRANCH 8 10
ENDBRANCH 5 6
BRANCH 5 36
ATOM     36  CB  VAL C   3      51.518  33.940  32.981  1.00 17.74 LIG 0.01  C 
ATOM     37  CG1 VAL C   3      50.577  32.884  32.443  1.00 20.72 LIG 0.01  C 
ATOM     38  CG2 VAL C   3      50.674  35.045  33.590  1.00 18.64 LIG 0.01  C 
ENDBRANCH 5 36
ENDBRANCH 1 5
BRANCH 3 39
ATOM     39  CA  TYR C   4      54.126  30.064  32.916  1.00 17.90 LIG 0.18  C 
BRANCH 39 40
ATOM     40  CB  TYR C   4      53.791  28.691  33.412  1.00 20.19 LIG 0.07  C 
BRANCH 40 41
ATOM     41  CG  TYR C   4      52.539  28.072  32.852  1.00 23.00 LIG-0.06  A 
ATOM     42  CD2 TYR C   4      52.566  26.790  32.303  1.00 26.62 LIG 0.01  A 
ATOM     43  CE2 TYR C   4      51.431  26.205  31.778  1.00 28.63 LIG 0.04  A 
ATOM     44  CZ  TYR C   4      50.260  26.899  31.795  1.00 25.42 LIG 0.07  A 
ATOM     45  CE1 TYR C   4      50.185  28.127  32.359  1.00 26.89 LIG 0.04  A 
ATOM     46  CD1 TYR C   4      51.339  28.722  32.888  1.00 24.41 LIG 0.01  A 
BRANCH 44 47
ATOM     47 OH   TYR C   4      49.137  26.316  31.282  1.00 32.39 LIG-0.36  OA
ATOM     48 HH   TYR C   4      48.842  26.785  30.651  1.00 32.39 LIG 0.22  HD
ENDBRANCH 44 47
ENDBRANCH 40 41
ENDBRANCH 39 40
BRANCH 39 49
ATOM     49  C   TYR C   4      54.063  30.148  31.364  1.00 20.63 LIG 0.24  C 
ATOM     50 O    TYR C   4      53.205  30.776  30.809  1.00 19.73 LIG-0.27  OA
ATOM     51  N   ILE C   5      55.073  29.603  30.702  1.00 22.91 LIG-0.35  N 
ATOM     52 H    ILE C   5      55.764  29.253  31.077  1.00 22.91 LIG 0.16  HD
BRANCH 51 53
ATOM     53  CA  ILE C   5      55.083  29.556  29.251  1.00 27.58 LIG 0.18  C 
BRANCH 53 54
ATOM     54  C   ILE C   5      53.821  28.855  28.753  1.00 33.14 LIG 0.24  C 
ATOM     55  N   HIS C   6      53.062  29.516  27.869  1.00 39.14 LIG-0.35  N 
ATOM     56 H    HIS C   6      53.225  30.326  27.627  1.00 39.14 LIG 0.16  HD
ATOM     57 O    ILE C   5      53.515  27.780  29.262  1.00 25.88 LIG-0.27  OA
BRANCH 55 58
ATOM     58  CA  HIS C   6      51.846  28.925  27.202  1.00 56.87 LIG 0.17  C 
BRANCH 58 59
ATOM     59  CB  HIS C   6      50.641  28.886  28.187  1.00 66.39 LIG 0.09  C 
BRANCH 59 60
ATOM     60  CG  HIS C   6      50.161  30.235  28.644  1.00 78.50 LIG 0.06  A 
ATOM     61  CD2 HIS C   6      48.965  30.615  29.159  1.00 82.71 LIG 0.14  A 
ATOM     62 NE2  HIS C   6      49.056  31.955  29.462  1.00 84.02 LIG-0.25  NA
ATOM     63  CE1 HIS C   6      50.273  32.381  29.164  1.00 85.20 LIG 0.23  A 
ATOM     64 ND1  HIS C   6      50.963  31.362  28.675  1.00 88.66 LIG-0.24  NA
ENDBRANCH 59 60
ENDBRANCH 58 59
BRANCH 58 65
ATOM     65  C   HIS C   6      51.358  29.589  25.907  1.00 59.18 LIG 0.22  C 
ATOM     66 O    HIS C   6      51.490  30.830  25.734  1.00 63.69 LIG-0.29  OA
ENDBRANCH 58 65
ENDBRANCH 55 58
ENDBRANCH 53 54
BRANCH 53 67
ATOM     67  CB  ILE C   5      56.349  28.866  28.763  1.00 28.54 LIG 0.01  C 
ATOM     68  CG2 ILE C   5      56.510  29.143  27.270  1.00 32.34 LIG 0.01  C 
BRANCH 67 69
ATOM     69  CG1 ILE C   5      57.508  29.372  29.639  1.00 30.21 LIG 0.00  C 
ATOM     70  CD1 ILE C   5      58.092  28.381  30.614  1.00 32.85 LIG 0.01  C 
ENDBRANCH 67 69
ENDBRANCH 53 67
ENDBRANCH 51 53
ENDBRANCH 39 49
ENDBRANCH 3 39
TORSDOF 26
ENDMDL
MODEL 49
USER: ADFR SOLUTION from run 137
USER: SCORE 21.096357 LL:  -5.532 LR: -17.153 RR:   0.000 FEB:  -9.397
USER: RMSD 7.491509
USER: SEED 136
USER: STATUS no improvement in best in 22 clusters for 5 generations
USER: GENES 28
USER: genes 0 Translation |==|  0.42820 0.64996 0.48304
USER: genes 1 Rotation |==|  0.32879 0.24635 0.17390 0.72362
USER: genes 2 Torsion [N]-C--CA-[N] |==|  0.36577
USER: genes 3 Torsion [C]-CA--N-[C] |==|  0.86503
USER: genes 4 Torsion [N]-C--CA-[N] |==|  0.01111
USER: genes 5 Torsion [C]-CA--CB-[CG] |==|  0.31024
USER: genes 6 Torsion [CA]-CB--CG-[CD] |==|  0.71405
USER: genes 7 Torsion [CB]-CG--CD-[NE] |==|  0.85994
USER: genes 8 Torsion [CG]-CD--NE-[CZ] |==|  0.48548
USER: genes 9 Torsion [C]-CA--N-[C] |==|  0.18402
USER: genes 10 Torsion [N]-C--CA-[N] |==|  0.36503
USER: genes 11 Torsion [C]-CA--CB-[CG] |==|  0.34312
USER: genes 12 Torsion [CA]-CB--CG-[OD2] |==|  0.10145
USER: genes 13 Torsion [C]-CA--N-[H1] |==|  0.42154
USER: genes 14 Torsion [C]-CA--CB-[CG1] |==|  0.73420
USER: genes 15 Torsion [C]-N--CA-[CB] |==|  0.13289
USER: genes 16 Torsion [N]-CA--CB-[CG] |==|  0.59821
USER: genes 17 Torsion [CA]-CB--CG-[CD2] |==|  0.66328
USER: genes 18 Torsion [CE2]-CZ--OH-[HH] |==|  0.85455
USER: genes 19 Torsion [N]-CA--C-[N] |==|  0.61678
USER: genes 20 Torsion [C]-N--CA-[C] |==|  0.63968
USER: genes 21 Torsion [N]-CA--C-[N] |==|  0.85465
USER: genes 22 Torsion [C]-N--CA-[CB] |==|  0.57187
USER: genes 23 Torsion [N]-CA--CB-[CG] |==|  0.20439
USER: genes 24 Torsion [CA]-CB--CG-[CD2] |==|  0.45326
USER: genes 25 Torsion [N]-CA--C-[O] |==|  0.57980
USER: genes 26 Torsion [N]-CA--CB-[CG1] |==|  0.76350
USER: genes 27 Torsion [CA]-CB--CG1-[CD1] |==|  0.25870
ROOT
ATOM      1  C   VAL C   3      52.905  33.154  33.916  1.00 15.94 LIG 0.24  C 
ATOM      2 O    VAL C   3      53.736  33.421  33.069  1.00 17.86 LIG-0.27  OA
ATOM      3  N   TYR C   4      52.316  31.963  33.958  1.00 16.41 LIG-0.35  N 
ATOM      4 H    TYR C   4      51.712  31.747  34.530  1.00 16.41 LIG 0.16  HD
ENDROOT
BRANCH 1 5
ATOM      5  CA  VAL C   3      52.491  34.228  34.942  1.00 16.01 LIG 0.18  C 
BRANCH 5 6
ATOM      6  N   VAL C   3      53.739  34.780  35.509  1.00 15.77 LIG-0.35  N 
ATOM      7 H    VAL C   3      53.787  35.639  35.530  1.00 15.77 LIG 0.16  HD
ATOM      8  C   ARG C   2      54.680  33.956  35.940  1.00 16.54 LIG 0.24  C 
ATOM      9 O    ARG C   2      54.519  32.718  35.986  1.00 14.63 LIG-0.27  OA
BRANCH 8 10
ATOM     10  CA  ARG C   2      55.979  34.580  36.408  1.00 19.03 LIG 0.18  C 
BRANCH 10 11
ATOM     11  CB  ARG C   2      56.288  34.092  37.828  1.00 20.38 LIG 0.04  C 
BRANCH 11 12
ATOM     12  CG  ARG C   2      57.471  33.191  37.942  1.00 20.75 LIG 0.02  C 
BRANCH 12 13
ATOM     13  CD  ARG C   2      57.054  31.795  38.092  1.00 22.55 LIG 0.14  C 
BRANCH 13 14
ATOM     14  NE  ARG C   2      56.074  31.622  39.128  1.00 20.36 LIG-0.23  N 
ATOM     15  CZ  ARG C   2      55.465  30.486  39.397  1.00 23.11 LIG 0.67  C 
ATOM     16  NH1 ARG C   2      55.819  29.398  38.808  1.00 23.20 LIG-0.23  N 
ATOM     17  NH2 ARG C   2      54.540  30.455  40.364  1.00 25.55 LIG-0.23  N 
ATOM     18 1HH1 ARG C   2      56.459  29.409  38.234  1.00 23.20 LIG 0.17  HD
ATOM     19 2HH1 ARG C   2      55.417  28.660  38.990  1.00 23.20 LIG 0.17  HD
ATOM     20 2HH2 ARG C   2      54.135  29.719  40.549  1.00 25.55 LIG 0.17  HD
ATOM     21 1HH2 ARG C   2      54.350  31.172  40.801  1.00 25.55 LIG 0.17  HD
ATOM     22 HE   ARG C   2      55.871  32.307  39.606  1.00 20.36 LIG 0.18  HD
ENDBRANCH 13 14
ENDBRANCH 12 13
ENDBRANCH 11 12
ENDBRANCH 10 11
BRANCH 10 23
ATOM     23  N   ARG C   2      55.900  36.050  36.376  1.00 19.42 LIG-0.35  N 
ATOM     24  C   ASP C   1      55.072  36.685  37.194  1.00 19.51 LIG 0.25  C 
ATOM     25 O    ASP C   1      54.525  36.118  38.154  1.00 19.29 LIG-0.27  OA
ATOM     26 H    ARG C   2      56.417  36.433  35.805  1.00 19.42 LIG 0.16  HD
BRANCH 24 27
ATOM     27  CA  ASP C   1      54.775  38.148  36.915  1.00 19.04 LIG 0.28  C 
BRANCH 27 28
ATOM     28  CB  ASP C   1      55.450  38.996  37.961  1.00 21.34 LIG 0.15  C 
BRANCH 28 29
ATOM     29  CG  ASP C   1      56.403  40.047  37.335  1.00 23.67 LIG 0.17  C 
ATOM     30 OD2  ASP C   1      56.051  40.581  36.247  1.00 27.41 LIG-0.65  OA
ATOM     31 OD1  ASP C   1      57.509  40.321  37.906  1.00 20.87 LIG-0.65  OA
ENDBRANCH 28 29
ENDBRANCH 27 28
BRANCH 27 32
ATOM     32  N   ASP C   1      53.277  38.321  36.969  1.00 18.38 LIG-0.07  N 
ATOM     33 H1   ASP C   1      53.084  39.153  37.218  1.00 18.38 LIG 0.28  HD
ATOM     34 H3   ASP C   1      52.933  37.748  37.556  1.00 18.38 LIG 0.28  HD
ATOM     35 H2   ASP C   1      52.931  38.164  36.165  1.00 18.38 LIG 0.28  HD
ENDBRANCH 27 32
ENDBRANCH 24 27
ENDBRANCH 10 23
ENDBRANCH 8 10
ENDBRANCH 5 6
BRANCH 5 36
ATOM     36  CB  VAL C   3      51.670  35.266  34.209  1.00 17.74 LIG 0.01  C 
ATOM     37  CG1 VAL C   3      52.516  36.444  33.772  1.00 20.72 LIG 0.01  C 
ATOM     38  CG2 VAL C   3      51.022  34.678  32.969  1.00 18.64 LIG 0.01  C 
ENDBRANCH 5 36
ENDBRANCH 1 5
BRANCH 3 39
ATOM     39  CA  TYR C   4      52.659  30.907  33.013  1.00 17.90 LIG 0.18  C 
BRANCH 39 40
ATOM     40  CB  TYR C   4      54.144  30.748  32.906  1.00 20.19 LIG 0.07  C 
BRANCH 40 41
ATOM     41  CG  TYR C   4      54.675  30.391  31.543  1.00 23.00 LIG-0.06  A 
ATOM     42  CD2 TYR C   4      55.415  29.223  31.355  1.00 26.62 LIG 0.01  A 
ATOM     43  CE2 TYR C   4      55.916  28.880  30.116  1.00 28.63 LIG 0.04  A 
ATOM     44  CZ  TYR C   4      55.685  29.701  29.055  1.00 25.42 LIG 0.07  A 
ATOM     45  CE1 TYR C   4      54.935  30.820  29.191  1.00 26.89 LIG 0.04  A 
ATOM     46  CD1 TYR C   4      54.429  31.171  30.450  1.00 24.41 LIG 0.01  A 
BRANCH 44 47
ATOM     47 OH   TYR C   4      56.177  29.356  27.830  1.00 32.39 LIG-0.36  OA
ATOM     48 HH   TYR C   4      56.998  29.193  27.893  1.00 32.39 LIG 0.22  HD
ENDBRANCH 44 47
ENDBRANCH 40 41
ENDBRANCH 39 40
BRANCH 39 49
ATOM     49  C   TYR C   4      51.955  29.555  33.328  1.00 20.63 LIG 0.24  C 
ATOM     50 O    TYR C   4      50.777  29.504  33.551  1.00 19.73 LIG-0.27  OA
ATOM     51  N   ILE C   5      52.695  28.463  33.210  1.00 22.91 LIG-0.35  N 
ATOM     52 H    ILE C   5      53.510  28.459  32.934  1.00 22.91 LIG 0.16  HD
BRANCH 51 53
ATOM     53  CA  ILE C   5      52.165  27.155  33.551  1.00 27.58 LIG 0.18  C 
BRANCH 53 54
ATOM     54  C   ILE C   5      53.135  26.437  34.486  1.00 33.14 LIG 0.24  C 
ATOM     55  N   HIS C   6      54.413  26.350  34.092  1.00 39.14 LIG-0.35  N 
ATOM     56 H    HIS C   6      54.684  26.624  33.323  1.00 39.14 LIG 0.16  HD
ATOM     57 O    ILE C   5      52.680  25.890  35.486  1.00 25.88 LIG-0.27  OA
BRANCH 55 58
ATOM     58  CA  HIS C   6      55.513  25.769  34.943  1.00 56.87 LIG 0.17  C 
BRANCH 58 59
ATOM     59  CB  HIS C   6      56.894  26.367  34.542  1.00 66.39 LIG 0.09  C 
BRANCH 59 60
ATOM     60  CG  HIS C   6      57.113  27.788  34.981  1.00 78.50 LIG 0.06  A 
ATOM     61  CD2 HIS C   6      58.257  28.511  35.083  1.00 82.71 LIG 0.14  A 
ATOM     62 NE2  HIS C   6      57.905  29.779  35.486  1.00 84.02 LIG-0.25  NA
ATOM     63  CE1 HIS C   6      56.590  29.843  35.607  1.00 85.20 LIG 0.23  A 
ATOM     64 ND1  HIS C   6      56.085  28.657  35.302  1.00 88.66 LIG-0.24  NA
ENDBRANCH 59 60
ENDBRANCH 58 59
BRANCH 58 65
ATOM     65  C   HIS C   6      55.378  25.909  36.465  1.00 59.18 LIG 0.22  C 
ATOM     66 O    HIS C   6      56.402  25.964  37.197  1.00 63.69 LIG-0.29  OA
ENDBRANCH 58 65
ENDBRANCH 55 58
ENDBRANCH 53 54
BRANCH 53 67
ATOM     67  CB  ILE C   5      51.899  26.357  32.281  1.00 28.54 LIG 0.01  C 
ATOM     68  CG2 ILE C   5      52.068  24.872  32.596  1.00 32.34 LIG 0.01  C 
BRANCH 67 69
ATOM     69  CG1 ILE C   5      50.500  26.753  31.781  1.00 30.21 LIG 0.00  C 
ATOM     70  CD1 ILE C   5      50.441  27.870  30.769  1.00 32.85 LIG 0.01  C 
ENDBRANCH 67 69
ENDBRANCH 53 67
ENDBRANCH 51 53
ENDBRANCH 39 49
ENDBRANCH 3 39
TORSDOF 26
ENDMDL
MODEL 50
USER: ADFR SOLUTION from run 7
USER: SCORE 19.191772 LL:  -5.274 LR: -17.138 RR:   0.000 FEB:  -9.383
USER: RMSD 9.726822
USER: SEED 215705
USER: STATUS no improvement in best in 17 clusters for 5 generations
USER: GENES 28
USER: genes 0 Translation |==|  0.49508 0.52972 0.53706
USER: genes 1 Rotation |==|  0.57575 0.08737 0.31626 0.70060
USER: genes 2 Torsion [N]-C--CA-[N] |==|  0.52078
USER: genes 3 Torsion [C]-CA--N-[C] |==|  0.19753
USER: genes 4 Torsion [N]-C--CA-[N] |==|  0.65380
USER: genes 5 Torsion [C]-CA--CB-[CG] |==|  0.25799
USER: genes 6 Torsion [CA]-CB--CG-[CD] |==|  0.20053
USER: genes 7 Torsion [CB]-CG--CD-[NE] |==|  0.32271
USER: genes 8 Torsion [CG]-CD--NE-[CZ] |==|  0.33094
USER: genes 9 Torsion [C]-CA--N-[C] |==|  0.71636
USER: genes 10 Torsion [N]-C--CA-[N] |==|  0.38825
USER: genes 11 Torsion [C]-CA--CB-[CG] |==|  0.59532
USER: genes 12 Torsion [CA]-CB--CG-[OD2] |==|  0.86628
USER: genes 13 Torsion [C]-CA--N-[H1] |==|  0.98437
USER: genes 14 Torsion [C]-CA--CB-[CG1] |==|  0.22154
USER: genes 15 Torsion [C]-N--CA-[CB] |==|  0.14110
USER: genes 16 Torsion [N]-CA--CB-[CG] |==|  0.20908
USER: genes 17 Torsion [CA]-CB--CG-[CD2] |==|  0.30776
USER: genes 18 Torsion [CE2]-CZ--OH-[HH] |==|  0.64275
USER: genes 19 Torsion [N]-CA--C-[N] |==|  0.59176
USER: genes 20 Torsion [C]-N--CA-[C] |==|  0.23288
USER: genes 21 Torsion [N]-CA--C-[N] |==|  0.81720
USER: genes 22 Torsion [C]-N--CA-[CB] |==|  0.29017
USER: genes 23 Torsion [N]-CA--CB-[CG] |==|  0.79922
USER: genes 24 Torsion [CA]-CB--CG-[CD2] |==|  0.85420
USER: genes 25 Torsion [N]-CA--C-[O] |==|  0.40939
USER: genes 26 Torsion [N]-CA--CB-[CG1] |==|  0.80861
USER: genes 27 Torsion [CA]-CB--CG1-[CD1] |==|  0.61030
ROOT
ATOM      1  C   VAL C   3      54.059  30.088  35.334  1.00 15.94 LIG 0.24  C 
ATOM      2 O    VAL C   3      54.762  31.030  35.023  1.00 17.86 LIG-0.27  OA
ATOM      3  N   TYR C   4      54.582  28.950  35.778  1.00 16.41 LIG-0.35  N 
ATOM      4 H    TYR C   4      54.118  28.257  35.988  1.00 16.41 LIG 0.16  HD
ENDROOT
BRANCH 1 5
ATOM      5  CA  VAL C   3      52.529  30.193  35.174  1.00 16.01 LIG 0.18  C 
BRANCH 5 6
ATOM      6  N   VAL C   3      52.258  31.481  34.501  1.00 15.77 LIG-0.35  N 
ATOM      7 H    VAL C   3      51.898  32.087  34.995  1.00 15.77 LIG 0.16  HD
ATOM      8  C   ARG C   2      52.571  31.629  33.225  1.00 16.54 LIG 0.24  C 
ATOM      9 O    ARG C   2      53.189  30.755  32.579  1.00 14.63 LIG-0.27  OA
BRANCH 8 10
ATOM     10  CA  ARG C   2      52.169  32.933  32.564  1.00 19.03 LIG 0.18  C 
BRANCH 10 11
ATOM     11  CB  ARG C   2      51.396  33.789  33.572  1.00 20.38 LIG 0.04  C 
BRANCH 11 12
ATOM     12  CG  ARG C   2      52.227  34.755  34.348  1.00 20.75 LIG 0.02  C 
BRANCH 12 13
ATOM     13  CD  ARG C   2      52.667  35.866  33.503  1.00 22.55 LIG 0.14  C 
BRANCH 13 14
ATOM     14  NE  ARG C   2      52.133  37.129  33.933  1.00 20.36 LIG-0.23  N 
ATOM     15  CZ  ARG C   2      52.862  38.154  34.320  1.00 23.11 LIG 0.67  C 
ATOM     16  NH1 ARG C   2      54.144  38.125  34.211  1.00 23.20 LIG-0.23  N 
ATOM     17  NH2 ARG C   2      52.250  39.270  34.736  1.00 25.55 LIG-0.23  N 
ATOM     18 1HH1 ARG C   2      54.532  37.431  33.882  1.00 23.20 LIG 0.17  HD
ATOM     19 2HH1 ARG C   2      54.613  38.799  34.466  1.00 23.20 LIG 0.17  HD
ATOM     20 2HH2 ARG C   2      52.715  39.946  34.991  1.00 25.55 LIG 0.17  HD
ATOM     21 1HH2 ARG C   2      51.391  39.310  34.748  1.00 25.55 LIG 0.17  HD
ATOM     22 HE   ARG C   2      51.278  37.221  33.937  1.00 20.36 LIG 0.18  HD
ENDBRANCH 13 14
ENDBRANCH 12 13
ENDBRANCH 11 12
ENDBRANCH 10 11
BRANCH 10 23
ATOM     23  N   ARG C   2      51.351  32.685  31.365  1.00 19.42 LIG-0.35  N 
ATOM     24  C   ASP C   1      51.898  32.781  30.161  1.00 19.51 LIG 0.25  C 
ATOM     25 O    ASP C   1      53.128  32.840  29.995  1.00 19.29 LIG-0.27  OA
ATOM     26 H    ARG C   2      50.529  32.484  31.516  1.00 19.42 LIG 0.16  HD
BRANCH 24 27
ATOM     27  CA  ASP C   1      50.973  32.844  28.959  1.00 19.04 LIG 0.28  C 
BRANCH 27 28
ATOM     28  CB  ASP C   1      50.900  31.481  28.320  1.00 21.34 LIG 0.15  C 
BRANCH 28 29
ATOM     29  CG  ASP C   1      50.755  31.566  26.779  1.00 23.67 LIG 0.17  C 
ATOM     30 OD2  ASP C   1      49.881  32.350  26.316  1.00 27.41 LIG-0.65  OA
ATOM     31 OD1  ASP C   1      51.485  30.836  26.031  1.00 20.87 LIG-0.65  OA
ENDBRANCH 28 29
ENDBRANCH 27 28
BRANCH 27 32
ATOM     32  N   ASP C   1      51.550  33.855  28.000  1.00 18.38 LIG-0.07  N 
ATOM     33 H1   ASP C   1      52.253  34.252  28.375  1.00 18.38 LIG 0.28  HD
ATOM     34 H3   ASP C   1      50.932  34.466  27.806  1.00 18.38 LIG 0.28  HD
ATOM     35 H2   ASP C   1      51.805  33.445  27.253  1.00 18.38 LIG 0.28  HD
ENDBRANCH 27 32
ENDBRANCH 24 27
ENDBRANCH 10 23
ENDBRANCH 8 10
ENDBRANCH 5 6
BRANCH 5 36
ATOM     36  CB  VAL C   3      52.072  29.001  34.363  1.00 17.74 LIG 0.01  C 
ATOM     37  CG1 VAL C   3      51.967  27.752  35.213  1.00 20.72 LIG 0.01  C 
ATOM     38  CG2 VAL C   3      50.710  29.251  33.740  1.00 18.64 LIG 0.01  C 
ENDBRANCH 5 36
ENDBRANCH 1 5
BRANCH 3 39
ATOM     39  CA  TYR C   4      56.021  28.783  35.946  1.00 17.90 LIG 0.18  C 
BRANCH 39 40
ATOM     40  CB  TYR C   4      56.599  29.912  36.743  1.00 20.19 LIG 0.07  C 
BRANCH 40 41
ATOM     41  CG  TYR C   4      56.334  29.879  38.224  1.00 23.00 LIG-0.06  A 
ATOM     42  CD2 TYR C   4      57.373  29.635  39.124  1.00 26.62 LIG 0.01  A 
ATOM     43  CE2 TYR C   4      57.152  29.594  40.486  1.00 28.63 LIG 0.04  A 
ATOM     44  CZ  TYR C   4      55.892  29.793  40.960  1.00 25.42 LIG 0.07  A 
ATOM     45  CE1 TYR C   4      54.868  30.077  40.121  1.00 26.89 LIG 0.04  A 
ATOM     46  CD1 TYR C   4      55.091  30.114  38.737  1.00 24.41 LIG 0.01  A 
BRANCH 44 47
ATOM     47 OH   TYR C   4      55.678  29.759  42.308  1.00 32.39 LIG-0.36  OA
ATOM     48 HH   TYR C   4      55.046  29.233  42.478  1.00 32.39 LIG 0.22  HD
ENDBRANCH 44 47
ENDBRANCH 40 41
ENDBRANCH 39 40
BRANCH 39 49
ATOM     49  C   TYR C   4      56.410  27.399  36.540  1.00 20.63 LIG 0.24  C 
ATOM     50 O    TYR C   4      55.840  26.396  36.207  1.00 19.73 LIG-0.27  OA
ATOM     51  N   ILE C   5      57.477  27.372  37.325  1.00 22.91 LIG-0.35  N 
ATOM     52 H    ILE C   5      57.977  28.054  37.483  1.00 22.91 LIG 0.16  HD
BRANCH 51 53
ATOM     53  CA  ILE C   5      57.888  26.151  37.993  1.00 27.58 LIG 0.18  C 
BRANCH 53 54
ATOM     54  C   ILE C   5      58.732  25.306  37.042  1.00 33.14 LIG 0.24  C 
ATOM     55  N   HIS C   6      58.120  24.810  35.958  1.00 39.14 LIG-0.35  N 
ATOM     56 H    HIS C   6      57.276  24.898  35.817  1.00 39.14 LIG 0.16  HD
ATOM     57 O    ILE C   5      59.885  25.039  37.370  1.00 25.88 LIG-0.27  OA
BRANCH 55 58
ATOM     58  CA  HIS C   6      58.833  24.048  34.869  1.00 56.87 LIG 0.17  C 
BRANCH 58 59
ATOM     59  CB  HIS C   6      58.538  22.524  34.981  1.00 66.39 LIG 0.09  C 
BRANCH 59 60
ATOM     60  CG  HIS C   6      59.213  21.837  36.134  1.00 78.50 LIG 0.06  A 
ATOM     61  CD2 HIS C   6      60.516  21.820  36.508  1.00 82.71 LIG 0.14  A 
ATOM     62 NE2  HIS C   6      60.601  21.081  37.666  1.00 84.02 LIG-0.25  NA
ATOM     63  CE1 HIS C   6      59.389  20.675  38.007  1.00 85.20 LIG 0.23  A 
ATOM     64 ND1  HIS C   6      58.531  21.122  37.104  1.00 88.66 LIG-0.24  NA
ENDBRANCH 59 60
ENDBRANCH 58 59
BRANCH 58 65
ATOM     65  C   HIS C   6      58.555  24.465  33.418  1.00 59.18 LIG 0.22  C 
ATOM     66 O    HIS C   6      59.456  24.370  32.542  1.00 63.69 LIG-0.29  OA
ENDBRANCH 58 65
ENDBRANCH 55 58
ENDBRANCH 53 54
BRANCH 53 67
ATOM     67  CB  ILE C   5      56.663  25.396  38.492  1.00 28.54 LIG 0.01  C 
ATOM     68  CG2 ILE C   5      57.088  23.983  38.884  1.00 32.34 LIG 0.01  C 
BRANCH 67 69
ATOM     69  CG1 ILE C   5      56.054  26.225  39.636  1.00 30.21 LIG 0.00  C 
ATOM     70  CD1 ILE C   5      55.533  25.451  40.821  1.00 32.85 LIG 0.01  C 
ENDBRANCH 67 69
ENDBRANCH 53 67
ENDBRANCH 51 53
ENDBRANCH 39 49
ENDBRANCH 3 39
TORSDOF 26
ENDMDL
MODEL 51
USER: ADFR SOLUTION from run 137
USER: SCORE 20.744230 LL:  -5.090 LR: -17.140 RR:   0.000 FEB:  -9.385
USER: RMSD 6.488824
USER: SEED 136
USER: STATUS no improvement in best in 22 clusters for 5 generations
USER: GENES 28
USER: genes 0 Translation |==|  0.42485 0.64824 0.47623
USER: genes 1 Rotation |==|  0.35261 0.26277 0.14727 0.71812
USER: genes 2 Torsion [N]-C--CA-[N] |==|  0.39030
USER: genes 3 Torsion [C]-CA--N-[C] |==|  0.85497
USER: genes 4 Torsion [N]-C--CA-[N] |==|  0.00002
USER: genes 5 Torsion [C]-CA--CB-[CG] |==|  0.32597
USER: genes 6 Torsion [CA]-CB--CG-[CD] |==|  0.70189
USER: genes 7 Torsion [CB]-CG--CD-[NE] |==|  0.87240
USER: genes 8 Torsion [CG]-CD--NE-[CZ] |==|  0.47412
USER: genes 9 Torsion [C]-CA--N-[C] |==|  0.19299
USER: genes 10 Torsion [N]-C--CA-[N] |==|  0.37646
USER: genes 11 Torsion [C]-CA--CB-[CG] |==|  0.34633
USER: genes 12 Torsion [CA]-CB--CG-[OD2] |==|  0.11238
USER: genes 13 Torsion [C]-CA--N-[H1] |==|  0.11979
USER: genes 14 Torsion [C]-CA--CB-[CG1] |==|  0.71902
USER: genes 15 Torsion [C]-N--CA-[CB] |==|  0.22035
USER: genes 16 Torsion [N]-CA--CB-[CG] |==|  0.60545
USER: genes 17 Torsion [CA]-CB--CG-[CD2] |==|  0.57889
USER: genes 18 Torsion [CE2]-CZ--OH-[HH] |==|  0.82064
USER: genes 19 Torsion [N]-CA--C-[N] |==|  0.39854
USER: genes 20 Torsion [C]-N--CA-[C] |==|  0.80974
USER: genes 21 Torsion [N]-CA--C-[N] |==|  0.41379
USER: genes 22 Torsion [C]-N--CA-[CB] |==|  0.53107
USER: genes 23 Torsion [N]-CA--CB-[CG] |==|  0.16364
USER: genes 24 Torsion [CA]-CB--CG-[CD2] |==|  0.40779
USER: genes 25 Torsion [N]-CA--C-[O] |==|  0.84325
USER: genes 26 Torsion [N]-CA--CB-[CG1] |==|  0.71342
USER: genes 27 Torsion [CA]-CB--CG1-[CD1] |==|  0.17701
ROOT
ATOM      1  C   VAL C   3      52.848  33.110  33.737  1.00 15.94 LIG 0.24  C 
ATOM      2 O    VAL C   3      53.753  33.450  33.000  1.00 17.86 LIG-0.27  OA
ATOM      3  N   TYR C   4      52.221  31.949  33.574  1.00 16.41 LIG-0.35  N 
ATOM      4 H    TYR C   4      51.565  31.685  34.064  1.00 16.41 LIG 0.16  HD
ENDROOT
BRANCH 1 5
ATOM      5  CA  VAL C   3      52.383  34.058  34.862  1.00 16.01 LIG 0.18  C 
BRANCH 5 6
ATOM      6  N   VAL C   3      53.602  34.647  35.454  1.00 15.77 LIG-0.35  N 
ATOM      7 H    VAL C   3      53.610  35.506  35.505  1.00 15.77 LIG 0.16  HD
ATOM      8  C   ARG C   2      54.579  33.853  35.859  1.00 16.54 LIG 0.24  C 
ATOM      9 O    ARG C   2      54.476  32.608  35.861  1.00 14.63 LIG-0.27  OA
BRANCH 8 10
ATOM     10  CA  ARG C   2      55.847  34.520  36.356  1.00 19.03 LIG 0.18  C 
BRANCH 10 11
ATOM     11  CB  ARG C   2      56.119  34.073  37.796  1.00 20.38 LIG 0.04  C 
BRANCH 11 12
ATOM     12  CG  ARG C   2      57.389  33.316  37.993  1.00 20.75 LIG 0.02  C 
BRANCH 12 13
ATOM     13  CD  ARG C   2      57.122  31.896  38.230  1.00 22.55 LIG 0.14  C 
BRANCH 13 14
ATOM     14  NE  ARG C   2      56.067  31.687  39.185  1.00 20.36 LIG-0.23  N 
ATOM     15  CZ  ARG C   2      55.516  30.520  39.444  1.00 23.11 LIG 0.67  C 
ATOM     16  NH1 ARG C   2      55.994  29.442  38.930  1.00 23.20 LIG-0.23  N 
ATOM     17  NH2 ARG C   2      54.514  30.455  40.328  1.00 25.55 LIG-0.23  N 
ATOM     18 1HH1 ARG C   2      56.680  29.479  38.412  1.00 23.20 LIG 0.17  HD
ATOM     19 2HH1 ARG C   2      55.628  28.683  39.105  1.00 23.20 LIG 0.17  HD
ATOM     20 2HH2 ARG C   2      54.145  29.699  40.506  1.00 25.55 LIG 0.17  HD
ATOM     21 1HH2 ARG C   2      54.237  31.170  40.719  1.00 25.55 LIG 0.17  HD
ATOM     22 HE   ARG C   2      55.777  32.372  39.616  1.00 20.36 LIG 0.18  HD
ENDBRANCH 13 14
ENDBRANCH 12 13
ENDBRANCH 11 12
ENDBRANCH 10 11
BRANCH 10 23
ATOM     23  N   ARG C   2      55.733  35.987  36.285  1.00 19.42 LIG-0.35  N 
ATOM     24  C   ASP C   1      54.909  36.625  37.104  1.00 19.51 LIG 0.25  C 
ATOM     25 O    ASP C   1      54.397  36.072  38.092  1.00 19.29 LIG-0.27  OA
ATOM     26 H    ARG C   2      56.228  36.365  35.692  1.00 19.42 LIG 0.16  HD
BRANCH 24 27
ATOM     27  CA  ASP C   1      54.573  38.072  36.793  1.00 19.04 LIG 0.28  C 
BRANCH 27 28
ATOM     28  CB  ASP C   1      55.332  38.969  37.737  1.00 21.34 LIG 0.15  C 
BRANCH 28 29
ATOM     29  CG  ASP C   1      56.191  40.017  36.983  1.00 23.67 LIG 0.17  C 
ATOM     30 OD2  ASP C   1      55.685  40.563  35.964  1.00 27.41 LIG-0.65  OA
ATOM     31 OD1  ASP C   1      57.372  40.278  37.384  1.00 20.87 LIG-0.65  OA
ENDBRANCH 28 29
ENDBRANCH 27 28
BRANCH 27 32
ATOM     32  N   ASP C   1      53.085  38.238  36.977  1.00 18.38 LIG-0.07  N 
ATOM     33 H1   ASP C   1      52.829  37.817  37.719  1.00 18.38 LIG 0.28  HD
ATOM     34 H3   ASP C   1      52.659  37.891  36.277  1.00 18.38 LIG 0.28  HD
ATOM     35 H2   ASP C   1      52.888  39.103  37.044  1.00 18.38 LIG 0.28  HD
ENDBRANCH 27 32
ENDBRANCH 24 27
ENDBRANCH 10 23
ENDBRANCH 8 10
ENDBRANCH 5 6
BRANCH 5 36
ATOM     36  CB  VAL C   3      51.474  35.094  34.238  1.00 17.74 LIG 0.01  C 
ATOM     37  CG1 VAL C   3      52.192  36.408  34.015  1.00 20.72 LIG 0.01  C 
ATOM     38  CG2 VAL C   3      50.945  34.623  32.896  1.00 18.64 LIG 0.01  C 
ENDBRANCH 5 36
ENDBRANCH 1 5
BRANCH 3 39
ATOM     39  CA  TYR C   4      52.607  31.011  32.527  1.00 17.90 LIG 0.18  C 
BRANCH 39 40
ATOM     40  CB  TYR C   4      53.821  30.232  32.932  1.00 20.19 LIG 0.07  C 
BRANCH 40 41
ATOM     41  CG  TYR C   4      54.817  29.946  31.840  1.00 23.00 LIG-0.06  A 
ATOM     42  CD2 TYR C   4      55.625  28.810  31.898  1.00 26.62 LIG 0.01  A 
ATOM     43  CE2 TYR C   4      56.550  28.531  30.912  1.00 28.63 LIG 0.04  A 
ATOM     44  CZ  TYR C   4      56.678  29.388  29.862  1.00 25.42 LIG 0.07  A 
ATOM     45  CE1 TYR C   4      55.882  30.477  29.749  1.00 26.89 LIG 0.04  A 
ATOM     46  CD1 TYR C   4      54.945  30.762  30.753  1.00 24.41 LIG 0.01  A 
BRANCH 44 47
ATOM     47 OH   TYR C   4      57.588  29.107  28.885  1.00 32.39 LIG-0.36  OA
ATOM     48 HH   TYR C   4      58.363  29.131  29.209  1.00 32.39 LIG 0.22  HD
ENDBRANCH 44 47
ENDBRANCH 40 41
ENDBRANCH 39 40
BRANCH 39 49
ATOM     49  C   TYR C   4      51.443  30.080  32.083  1.00 20.63 LIG 0.24  C 
ATOM     50 O    TYR C   4      50.578  29.755  32.848  1.00 19.73 LIG-0.27  OA
ATOM     51  N   ILE C   5      51.392  29.774  30.795  1.00 22.91 LIG-0.35  N 
ATOM     52 H    ILE C   5      51.928  30.090  30.201  1.00 22.91 LIG 0.16  HD
BRANCH 51 53
ATOM     53  CA  ILE C   5      50.395  28.852  30.281  1.00 27.58 LIG 0.18  C 
BRANCH 53 54
ATOM     54  C   ILE C   5      50.685  27.444  30.795  1.00 33.14 LIG 0.24  C 
ATOM     55  N   HIS C   6      49.635  26.635  30.987  1.00 39.14 LIG-0.35  N 
ATOM     56 H    HIS C   6      48.821  26.895  30.892  1.00 39.14 LIG 0.16  HD
ATOM     57 O    ILE C   5      51.840  27.166  31.104  1.00 25.88 LIG-0.27  OA
BRANCH 55 58
ATOM     58  CA  HIS C   6      49.757  25.187  31.389  1.00 56.87 LIG 0.17  C 
BRANCH 58 59
ATOM     59  CB  HIS C   6      48.386  24.460  31.255  1.00 66.39 LIG 0.09  C 
BRANCH 59 60
ATOM     60  CG  HIS C   6      47.796  24.483  29.873  1.00 78.50 LIG 0.06  A 
ATOM     61  CD2 HIS C   6      47.037  23.564  29.225  1.00 82.71 LIG 0.14  A 
ATOM     62 NE2  HIS C   6      46.715  24.093  27.996  1.00 84.02 LIG-0.25  NA
ATOM     63  CE1 HIS C   6      47.238  25.304  27.897  1.00 85.20 LIG 0.23  A 
ATOM     64 ND1  HIS C   6      47.890  25.568  29.019  1.00 88.66 LIG-0.24  NA
ENDBRANCH 59 60
ENDBRANCH 58 59
BRANCH 58 65
ATOM     65  C   HIS C   6      50.801  24.335  30.653  1.00 59.18 LIG 0.22  C 
ATOM     66 O    HIS C   6      50.774  24.233  29.397  1.00 63.69 LIG-0.29  OA
ENDBRANCH 58 65
ENDBRANCH 55 58
ENDBRANCH 53 54
BRANCH 53 67
ATOM     67  CB  ILE C   5      50.371  28.910  28.759  1.00 28.54 LIG 0.01  C 
ATOM     68  CG2 ILE C   5      50.392  27.482  28.218  1.00 32.34 LIG 0.01  C 
BRANCH 67 69
ATOM     69  CG1 ILE C   5      49.137  29.733  28.355  1.00 30.21 LIG 0.00  C 
ATOM     70  CD1 ILE C   5      49.126  31.178  28.784  1.00 32.85 LIG 0.01  C 
ENDBRANCH 67 69
ENDBRANCH 53 67
ENDBRANCH 51 53
ENDBRANCH 39 49
ENDBRANCH 3 39
TORSDOF 26
ENDMDL
MODEL 52
USER: ADFR SOLUTION from run 136
USER: SCORE 21.025052 LL:  -6.128 LR: -17.132 RR:   0.000 FEB:  -9.376
USER: RMSD 8.505919
USER: SEED 135
USER: STATUS no improvement in best in 12 clusters for 5 generations
USER: GENES 28
USER: genes 0 Translation |==|  0.65876 0.60122 0.57564
USER: genes 1 Rotation |==|  0.24500 0.19620 0.19628 0.52092
USER: genes 2 Torsion [N]-C--CA-[N] |==|  0.90622
USER: genes 3 Torsion [C]-CA--N-[C] |==|  0.45478
USER: genes 4 Torsion [N]-C--CA-[N] |==|  0.03159
USER: genes 5 Torsion [C]-CA--CB-[CG] |==|  0.19841
USER: genes 6 Torsion [CA]-CB--CG-[CD] |==|  0.18724
USER: genes 7 Torsion [CB]-CG--CD-[NE] |==|  0.09307
USER: genes 8 Torsion [CG]-CD--NE-[CZ] |==|  0.64877
USER: genes 9 Torsion [C]-CA--N-[C] |==|  0.61766
USER: genes 10 Torsion [N]-C--CA-[N] |==|  0.38278
USER: genes 11 Torsion [C]-CA--CB-[CG] |==|  0.57977
USER: genes 12 Torsion [CA]-CB--CG-[OD2] |==|  0.74123
USER: genes 13 Torsion [C]-CA--N-[H1] |==|  0.03424
USER: genes 14 Torsion [C]-CA--CB-[CG1] |==|  0.91645
USER: genes 15 Torsion [C]-N--CA-[CB] |==|  0.77827
USER: genes 16 Torsion [N]-CA--CB-[CG] |==|  0.72376
USER: genes 17 Torsion [CA]-CB--CG-[CD2] |==|  0.44121
USER: genes 18 Torsion [CE2]-CZ--OH-[HH] |==|  0.88856
USER: genes 19 Torsion [N]-CA--C-[N] |==|  0.13922
USER: genes 20 Torsion [C]-N--CA-[C] |==|  0.85376
USER: genes 21 Torsion [N]-CA--C-[N] |==|  0.87837
USER: genes 22 Torsion [C]-N--CA-[CB] |==|  0.85815
USER: genes 23 Torsion [N]-CA--CB-[CG] |==|  0.76011
USER: genes 24 Torsion [CA]-CB--CG-[CD2] |==|  0.79507
USER: genes 25 Torsion [N]-CA--C-[O] |==|  0.39234
USER: genes 26 Torsion [N]-CA--CB-[CG1] |==|  0.55821
USER: genes 27 Torsion [CA]-CB--CG1-[CD1] |==|  0.53750
ROOT
ATOM      1  C   VAL C   3      56.883  31.911  36.346  1.00 15.94 LIG 0.24  C 
ATOM      2 O    VAL C   3      57.744  31.184  35.891  1.00 17.86 LIG-0.27  OA
ATOM      3  N   TYR C   4      55.691  31.438  36.698  1.00 16.41 LIG-0.35  N 
ATOM      4 H    TYR C   4      55.052  31.925  37.005  1.00 16.41 LIG 0.16  HD
ENDROOT
BRANCH 1 5
ATOM      5  CA  VAL C   3      57.155  33.423  36.483  1.00 16.01 LIG 0.18  C 
BRANCH 5 6
ATOM      6  N   VAL C   3      55.878  34.113  36.201  1.00 15.77 LIG-0.35  N 
ATOM      7 H    VAL C   3      55.279  33.637  35.807  1.00 15.77 LIG 0.16  HD
ATOM      8  C   ARG C   2      55.729  35.379  36.555  1.00 16.54 LIG 0.24  C 
ATOM      9 O    ARG C   2      56.589  35.997  37.219  1.00 14.63 LIG-0.27  OA
BRANCH 8 10
ATOM     10  CA  ARG C   2      54.441  36.062  36.141  1.00 19.03 LIG 0.18  C 
BRANCH 10 11
ATOM     11  CB  ARG C   2      53.867  36.822  37.341  1.00 20.38 LIG 0.04  C 
BRANCH 11 12
ATOM     12  CG  ARG C   2      54.624  38.045  37.735  1.00 20.75 LIG 0.02  C 
BRANCH 12 13
ATOM     13  CD  ARG C   2      54.519  39.081  36.706  1.00 22.55 LIG 0.14  C 
BRANCH 13 14
ATOM     14  NE  ARG C   2      53.248  39.063  36.035  1.00 20.36 LIG-0.23  N 
ATOM     15  CZ  ARG C   2      53.094  38.995  34.730  1.00 23.11 LIG 0.67  C 
ATOM     16  NH1 ARG C   2      54.107  38.805  33.960  1.00 23.20 LIG-0.23  N 
ATOM     17  NH2 ARG C   2      51.858  39.024  34.217  1.00 25.55 LIG-0.23  N 
ATOM     18 1HH1 ARG C   2      54.894  38.721  34.297  1.00 23.20 LIG 0.17  HD
ATOM     19 2HH1 ARG C   2      53.998  38.761  33.108  1.00 23.20 LIG 0.17  HD
ATOM     20 2HH2 ARG C   2      51.744  38.979  33.366  1.00 25.55 LIG 0.17  HD
ATOM     21 1HH2 ARG C   2      51.177  39.086  34.739  1.00 25.55 LIG 0.17  HD
ATOM     22 HE   ARG C   2      52.539  39.100  36.521  1.00 20.36 LIG 0.18  HD
ENDBRANCH 13 14
ENDBRANCH 12 13
ENDBRANCH 11 12
ENDBRANCH 10 11
BRANCH 10 23
ATOM     23  N   ARG C   2      53.464  35.084  35.636  1.00 19.42 LIG-0.35  N 
ATOM     24  C   ASP C   1      52.747  35.363  34.556  1.00 19.51 LIG 0.25  C 
ATOM     25 O    ASP C   1      53.023  36.314  33.806  1.00 19.29 LIG-0.27  OA
ATOM     26 H    ARG C   2      53.407  34.354  36.087  1.00 19.42 LIG 0.16  HD
BRANCH 24 27
ATOM     27  CA  ASP C   1      51.538  34.495  34.257  1.00 19.04 LIG 0.28  C 
BRANCH 27 28
ATOM     28  CB  ASP C   1      51.890  33.518  33.164  1.00 21.34 LIG 0.15  C 
BRANCH 28 29
ATOM     29  CG  ASP C   1      50.653  33.115  32.320  1.00 23.67 LIG 0.17  C 
ATOM     30 OD2  ASP C   1      50.024  32.077  32.663  1.00 27.41 LIG-0.65  OA
ATOM     31 OD1  ASP C   1      50.323  33.811  31.305  1.00 20.87 LIG-0.65  OA
ENDBRANCH 28 29
ENDBRANCH 27 28
BRANCH 27 32
ATOM     32  N   ASP C   1      50.423  35.411  33.818  1.00 18.38 LIG-0.07  N 
ATOM     33 H1   ASP C   1      50.753  36.223  33.656  1.00 18.38 LIG 0.28  HD
ATOM     34 H3   ASP C   1      49.811  35.462  34.461  1.00 18.38 LIG 0.28  HD
ATOM     35 H2   ASP C   1      50.049  35.091  33.077  1.00 18.38 LIG 0.28  HD
ENDBRANCH 27 32
ENDBRANCH 24 27
ENDBRANCH 10 23
ENDBRANCH 8 10
ENDBRANCH 5 6
BRANCH 5 36
ATOM     36  CB  VAL C   3      57.658  33.671  37.888  1.00 17.74 LIG 0.01  C 
ATOM     37  CG1 VAL C   3      57.084  32.674  38.873  1.00 20.72 LIG 0.01  C 
ATOM     38  CG2 VAL C   3      59.171  33.569  37.954  1.00 18.64 LIG 0.01  C 
ENDBRANCH 5 36
ENDBRANCH 1 5
BRANCH 3 39
ATOM     39  CA  TYR C   4      55.368  30.020  36.589  1.00 17.90 LIG 0.18  C 
BRANCH 39 40
ATOM     40  CB  TYR C   4      55.017  29.662  35.177  1.00 20.19 LIG 0.07  C 
BRANCH 40 41
ATOM     41  CG  TYR C   4      53.547  29.565  34.866  1.00 23.00 LIG-0.06  A 
ATOM     42  CD2 TYR C   4      53.093  29.677  33.551  1.00 26.62 LIG 0.01  A 
ATOM     43  CE2 TYR C   4      51.750  29.598  33.243  1.00 28.63 LIG 0.04  A 
ATOM     44  CZ  TYR C   4      50.849  29.410  34.246  1.00 25.42 LIG 0.07  A 
ATOM     45  CE1 TYR C   4      51.256  29.254  35.528  1.00 26.89 LIG 0.04  A 
ATOM     46  CD1 TYR C   4      52.620  29.338  35.841  1.00 24.41 LIG 0.01  A 
BRANCH 44 47
ATOM     47 OH   TYR C   4      49.522  29.325  33.938  1.00 32.39 LIG-0.36  OA
ATOM     48 HH   TYR C   4      49.337  29.888  33.342  1.00 32.39 LIG 0.22  HD
ENDBRANCH 44 47
ENDBRANCH 40 41
ENDBRANCH 39 40
BRANCH 39 49
ATOM     49  C   TYR C   4      56.480  29.095  37.160  1.00 20.63 LIG 0.24  C 
ATOM     50 O    TYR C   4      56.988  28.242  36.486  1.00 19.73 LIG-0.27  OA
ATOM     51  N   ILE C   5      56.919  29.382  38.377  1.00 22.91 LIG-0.35  N 
ATOM     52 H    ILE C   5      56.660  30.061  38.837  1.00 22.91 LIG 0.16  HD
BRANCH 51 53
ATOM     53  CA  ILE C   5      57.901  28.542  39.040  1.00 27.58 LIG 0.18  C 
BRANCH 53 54
ATOM     54  C   ILE C   5      57.423  27.092  39.029  1.00 33.14 LIG 0.24  C 
ATOM     55  N   HIS C   6      56.136  26.870  39.327  1.00 39.14 LIG-0.35  N 
ATOM     56 H    HIS C   6      55.600  27.494  39.577  1.00 39.14 LIG 0.16  HD
ATOM     57 O    ILE C   5      58.257  26.207  38.856  1.00 25.88 LIG-0.27  OA
BRANCH 55 58
ATOM     58  CA  HIS C   6      55.483  25.512  39.258  1.00 56.87 LIG 0.17  C 
BRANCH 58 59
ATOM     59  CB  HIS C   6      55.755  24.840  37.881  1.00 66.39 LIG 0.09  C 
BRANCH 59 60
ATOM     60  CG  HIS C   6      54.778  25.208  36.799  1.00 78.50 LIG 0.06  A 
ATOM     61  CD2 HIS C   6      53.489  24.829  36.611  1.00 82.71 LIG 0.14  A 
ATOM     62 NE2  HIS C   6      53.026  25.489  35.496  1.00 84.02 LIG-0.25  NA
ATOM     63  CE1 HIS C   6      53.989  26.265  35.025  1.00 85.20 LIG 0.23  A 
ATOM     64 ND1  HIS C   6      55.055  26.120  35.796  1.00 88.66 LIG-0.24  NA
ENDBRANCH 59 60
ENDBRANCH 58 59
BRANCH 58 65
ATOM     65  C   HIS C   6      55.853  24.495  40.346  1.00 59.18 LIG 0.22  C 
ATOM     66 O    HIS C   6      54.977  23.730  40.831  1.00 63.69 LIG-0.29  OA
ENDBRANCH 58 65
ENDBRANCH 55 58
ENDBRANCH 53 54
BRANCH 53 67
ATOM     67  CB  ILE C   5      58.149  29.051  40.453  1.00 28.54 LIG 0.01  C 
ATOM     68  CG2 ILE C   5      56.973  28.634  41.334  1.00 32.34 LIG 0.01  C 
BRANCH 67 69
ATOM     69  CG1 ILE C   5      59.514  28.502  40.900  1.00 30.21 LIG 0.00  C 
ATOM     70  CD1 ILE C   5      59.831  28.610  42.371  1.00 32.85 LIG 0.01  C 
ENDBRANCH 67 69
ENDBRANCH 53 67
ENDBRANCH 51 53
ENDBRANCH 39 49
ENDBRANCH 3 39
TORSDOF 26
ENDMDL
MODEL 53
USER: ADFR SOLUTION from run 115
USER: SCORE 22.596041 LL:  -6.515 LR: -17.118 RR:   0.000 FEB:  -9.362
USER: RMSD 6.784604
USER: SEED 114
USER: STATUS no improvement in best in 12 clusters for 5 generations
USER: GENES 28
USER: genes 0 Translation |==|  0.67374 0.43226 0.54555
USER: genes 1 Rotation |==|  0.14850 0.40858 0.16581 0.58006
USER: genes 2 Torsion [N]-C--CA-[N] |==|  0.91115
USER: genes 3 Torsion [C]-CA--N-[C] |==|  0.69551
USER: genes 4 Torsion [N]-C--CA-[N] |==|  0.09676
USER: genes 5 Torsion [C]-CA--CB-[CG] |==|  0.28702
USER: genes 6 Torsion [CA]-CB--CG-[CD] |==|  0.30751
USER: genes 7 Torsion [CB]-CG--CD-[NE] |==|  0.49633
USER: genes 8 Torsion [CG]-CD--NE-[CZ] |==|  0.40169
USER: genes 9 Torsion [C]-CA--N-[C] |==|  0.76324
USER: genes 10 Torsion [N]-C--CA-[N] |==|  0.40048
USER: genes 11 Torsion [C]-CA--CB-[CG] |==|  0.78654
USER: genes 12 Torsion [CA]-CB--CG-[OD2] |==|  0.24656
USER: genes 13 Torsion [C]-CA--N-[H1] |==|  0.41857
USER: genes 14 Torsion [C]-CA--CB-[CG1] |==|  0.69706
USER: genes 15 Torsion [C]-N--CA-[CB] |==|  0.85959
USER: genes 16 Torsion [N]-CA--CB-[CG] |==|  0.61874
USER: genes 17 Torsion [CA]-CB--CG-[CD2] |==|  0.65968
USER: genes 18 Torsion [CE2]-CZ--OH-[HH] |==|  0.96017
USER: genes 19 Torsion [N]-CA--C-[N] |==|  0.89901
USER: genes 20 Torsion [C]-N--CA-[C] |==|  0.84247
USER: genes 21 Torsion [N]-CA--C-[N] |==|  0.88334
USER: genes 22 Torsion [C]-N--CA-[CB] |==|  0.26468
USER: genes 23 Torsion [N]-CA--CB-[CG] |==|  0.86185
USER: genes 24 Torsion [CA]-CB--CG-[CD2] |==|  0.76263
USER: genes 25 Torsion [N]-CA--C-[O] |==|  0.48429
USER: genes 26 Torsion [N]-CA--CB-[CG1] |==|  0.88669
USER: genes 27 Torsion [CA]-CB--CG1-[CD1] |==|  0.84096
ROOT
ATOM      1  C   VAL C   3      57.141  27.603  35.557  1.00 15.94 LIG 0.24  C 
ATOM      2 O    VAL C   3      57.343  27.177  34.436  1.00 17.86 LIG-0.27  OA
ATOM      3  N   TYR C   4      55.956  27.472  36.144  1.00 16.41 LIG-0.35  N 
ATOM      4 H    TYR C   4      55.772  27.778  36.927  1.00 16.41 LIG 0.16  HD
ENDROOT
BRANCH 1 5
ATOM      5  CA  VAL C   3      58.266  28.348  36.303  1.00 16.01 LIG 0.18  C 
BRANCH 5 6
ATOM      6  N   VAL C   3      57.614  29.386  37.129  1.00 15.77 LIG-0.35  N 
ATOM      7 H    VAL C   3      57.165  29.095  37.803  1.00 15.77 LIG 0.16  HD
ATOM      8  C   ARG C   2      57.752  30.661  36.803  1.00 16.54 LIG 0.24  C 
ATOM      9 O    ARG C   2      58.502  31.040  35.878  1.00 14.63 LIG-0.27  OA
BRANCH 8 10
ATOM     10  CA  ARG C   2      56.971  31.669  37.622  1.00 19.03 LIG 0.18  C 
BRANCH 10 11
ATOM     11  CB  ARG C   2      57.655  33.037  37.520  1.00 20.38 LIG 0.04  C 
BRANCH 11 12
ATOM     12  CG  ARG C   2      56.987  34.011  36.611  1.00 20.75 LIG 0.02  C 
BRANCH 12 13
ATOM     13  CD  ARG C   2      56.385  35.109  37.370  1.00 22.55 LIG 0.14  C 
BRANCH 13 14
ATOM     14  NE  ARG C   2      55.756  36.085  36.523  1.00 20.36 LIG-0.23  N 
ATOM     15  CZ  ARG C   2      54.657  36.741  36.828  1.00 23.11 LIG 0.67  C 
ATOM     16  NH1 ARG C   2      54.134  36.634  37.999  1.00 23.20 LIG-0.23  N 
ATOM     17  NH2 ARG C   2      54.142  37.600  35.940  1.00 25.55 LIG-0.23  N 
ATOM     18 1HH1 ARG C   2      54.503  36.130  38.591  1.00 23.20 LIG 0.17  HD
ATOM     19 2HH1 ARG C   2      53.416  37.066  38.191  1.00 23.20 LIG 0.17  HD
ATOM     20 2HH2 ARG C   2      53.425  38.035  36.128  1.00 25.55 LIG 0.17  HD
ATOM     21 1HH2 ARG C   2      54.530  37.718  35.181  1.00 25.55 LIG 0.17  HD
ATOM     22 HE   ARG C   2      56.124  36.251  35.764  1.00 20.36 LIG 0.18  HD
ENDBRANCH 13 14
ENDBRANCH 12 13
ENDBRANCH 11 12
ENDBRANCH 10 11
BRANCH 10 23
ATOM     23  N   ARG C   2      56.876  31.245  39.029  1.00 19.42 LIG-0.35  N 
ATOM     24  C   ASP C   1      55.912  30.415  39.404  1.00 19.51 LIG 0.25  C 
ATOM     25 O    ASP C   1      55.220  29.789  38.584  1.00 19.29 LIG-0.27  OA
ATOM     26 H    ARG C   2      57.474  31.572  39.553  1.00 19.42 LIG 0.16  HD
BRANCH 24 27
ATOM     27  CA  ASP C   1      55.643  30.258  40.890  1.00 19.04 LIG 0.28  C 
BRANCH 27 28
ATOM     28  CB  ASP C   1      56.390  29.054  41.403  1.00 21.34 LIG 0.15  C 
BRANCH 28 29
ATOM     29  CG  ASP C   1      55.690  27.725  41.016  1.00 23.67 LIG 0.17  C 
ATOM     30 OD2  ASP C   1      56.001  27.201  39.911  1.00 27.41 LIG-0.65  OA
ATOM     31 OD1  ASP C   1      54.815  27.219  41.793  1.00 20.87 LIG-0.65  OA
ENDBRANCH 28 29
ENDBRANCH 27 28
BRANCH 27 32
ATOM     32  N   ASP C   1      54.155  30.080  41.062  1.00 18.38 LIG-0.07  N 
ATOM     33 H1   ASP C   1      53.997  29.586  41.785  1.00 18.38 LIG 0.28  HD
ATOM     34 H3   ASP C   1      53.820  29.673  40.345  1.00 18.38 LIG 0.28  HD
ATOM     35 H2   ASP C   1      53.769  30.876  41.157  1.00 18.38 LIG 0.28  HD
ENDBRANCH 27 32
ENDBRANCH 24 27
ENDBRANCH 10 23
ENDBRANCH 8 10
ENDBRANCH 5 6
BRANCH 5 36
ATOM     36  CB  VAL C   3      59.019  27.328  37.129  1.00 17.74 LIG 0.01  C 
ATOM     37  CG1 VAL C   3      58.755  27.501  38.610  1.00 20.72 LIG 0.01  C 
ATOM     38  CG2 VAL C   3      58.621  25.914  36.750  1.00 18.64 LIG 0.01  C 
ENDBRANCH 5 36
ENDBRANCH 1 5
BRANCH 3 39
ATOM     39  CA  TYR C   4      54.850  26.784  35.491  1.00 17.90 LIG 0.18  C 
BRANCH 39 40
ATOM     40  CB  TYR C   4      54.640  27.310  34.104  1.00 20.19 LIG 0.07  C 
BRANCH 40 41
ATOM     41  CG  TYR C   4      53.210  27.536  33.692  1.00 23.00 LIG-0.06  A 
ATOM     42  CD2 TYR C   4      52.687  26.898  32.566  1.00 26.62 LIG 0.01  A 
ATOM     43  CE2 TYR C   4      51.381  27.096  32.166  1.00 28.63 LIG 0.04  A 
ATOM     44  CZ  TYR C   4      50.587  27.935  32.885  1.00 25.42 LIG 0.07  A 
ATOM     45  CE1 TYR C   4      51.045  28.537  34.008  1.00 26.89 LIG 0.04  A 
ATOM     46  CD1 TYR C   4      52.373  28.339  34.412  1.00 24.41 LIG 0.01  A 
BRANCH 44 47
ATOM     47 OH   TYR C   4      49.294  28.123  32.492  1.00 32.39 LIG-0.36  OA
ATOM     48 HH   TYR C   4      49.193  27.830  31.711  1.00 32.39 LIG 0.22  HD
ENDBRANCH 44 47
ENDBRANCH 40 41
ENDBRANCH 39 40
BRANCH 39 49
ATOM     49  C   TYR C   4      55.000  25.236  35.505  1.00 20.63 LIG 0.24  C 
ATOM     50 O    TYR C   4      54.039  24.517  35.523  1.00 19.73 LIG-0.27  OA
ATOM     51  N   ILE C   5      56.229  24.761  35.368  1.00 22.91 LIG-0.35  N 
ATOM     52 H    ILE C   5      56.923  25.250  35.230  1.00 22.91 LIG 0.16  HD
BRANCH 51 53
ATOM     53  CA  ILE C   5      56.497  23.336  35.442  1.00 27.58 LIG 0.18  C 
BRANCH 53 54
ATOM     54  C   ILE C   5      55.992  22.789  36.775  1.00 33.14 LIG 0.24  C 
ATOM     55  N   HIS C   6      56.222  23.530  37.866  1.00 39.14 LIG-0.35  N 
ATOM     56 H    HIS C   6      56.687  24.254  37.850  1.00 39.14 LIG 0.16  HD
ATOM     57 O    ILE C   5      55.502  21.663  36.792  1.00 25.88 LIG-0.27  OA
BRANCH 55 58
ATOM     58  CA  HIS C   6      55.699  23.186  39.238  1.00 56.87 LIG 0.17  C 
BRANCH 58 59
ATOM     59  CB  HIS C   6      56.768  22.405  40.056  1.00 66.39 LIG 0.09  C 
BRANCH 59 60
ATOM     60  CG  HIS C   6      57.381  21.238  39.333  1.00 78.50 LIG 0.06  A 
ATOM     61  CD2 HIS C   6      56.959  19.954  39.217  1.00 82.71 LIG 0.14  A 
ATOM     62 NE2  HIS C   6      57.858  19.299  38.406  1.00 84.02 LIG-0.25  NA
ATOM     63  CE1 HIS C   6      58.790  20.153  38.018  1.00 85.20 LIG 0.23  A 
ATOM     64 ND1  HIS C   6      58.523  21.333  38.557  1.00 88.66 LIG-0.24  NA
ENDBRANCH 59 60
ENDBRANCH 58 59
BRANCH 58 65
ATOM     65  C   HIS C   6      55.206  24.344  40.117  1.00 59.18 LIG 0.22  C 
ATOM     66 O    HIS C   6      54.659  24.116  41.229  1.00 63.69 LIG-0.29  OA
ENDBRANCH 58 65
ENDBRANCH 55 58
ENDBRANCH 53 54
BRANCH 53 67
ATOM     67  CB  ILE C   5      57.985  23.077  35.246  1.00 28.54 LIG 0.01  C 
ATOM     68  CG2 ILE C   5      58.186  21.591  34.960  1.00 32.34 LIG 0.01  C 
BRANCH 67 69
ATOM     69  CG1 ILE C   5      58.465  24.018  34.128  1.00 30.21 LIG 0.00  C 
ATOM     70  CD1 ILE C   5      57.757  23.899  32.802  1.00 32.85 LIG 0.01  C 
ENDBRANCH 67 69
ENDBRANCH 53 67
ENDBRANCH 51 53
ENDBRANCH 39 49
ENDBRANCH 3 39
TORSDOF 26
ENDMDL
MODEL 54
USER: ADFR SOLUTION from run 31
USER: SCORE 20.193918 LL:  -5.972 LR: -17.119 RR:   0.000 FEB:  -9.364
USER: RMSD 9.001361
USER: SEED 30
USER: STATUS no improvement in best in 9 clusters for 5 generations
USER: GENES 28
USER: genes 0 Translation |==|  0.52888 0.58068 0.54284
USER: genes 1 Rotation |==|  0.64723 0.11388 0.29009 0.68753
USER: genes 2 Torsion [N]-C--CA-[N] |==|  0.52334
USER: genes 3 Torsion [C]-CA--N-[C] |==|  0.19134
USER: genes 4 Torsion [N]-C--CA-[N] |==|  0.67673
USER: genes 5 Torsion [C]-CA--CB-[CG] |==|  0.27338
USER: genes 6 Torsion [CA]-CB--CG-[CD] |==|  0.91718
USER: genes 7 Torsion [CB]-CG--CD-[NE] |==|  0.42261
USER: genes 8 Torsion [CG]-CD--NE-[CZ] |==|  0.18775
USER: genes 9 Torsion [C]-CA--N-[C] |==|  0.15371
USER: genes 10 Torsion [N]-C--CA-[N] |==|  0.10588
USER: genes 11 Torsion [C]-CA--CB-[CG] |==|  0.51173
USER: genes 12 Torsion [CA]-CB--CG-[OD2] |==|  0.96472
USER: genes 13 Torsion [C]-CA--N-[H1] |==|  0.13414
USER: genes 14 Torsion [C]-CA--CB-[CG1] |==|  0.21662
USER: genes 15 Torsion [C]-N--CA-[CB] |==|  0.19890
USER: genes 16 Torsion [N]-CA--CB-[CG] |==|  0.78342
USER: genes 17 Torsion [CA]-CB--CG-[CD2] |==|  0.83948
USER: genes 18 Torsion [CE2]-CZ--OH-[HH] |==|  0.71458
USER: genes 19 Torsion [N]-CA--C-[N] |==|  0.84257
USER: genes 20 Torsion [C]-N--CA-[C] |==|  0.70164
USER: genes 21 Torsion [N]-CA--C-[N] |==|  0.65412
USER: genes 22 Torsion [C]-N--CA-[CB] |==|  0.43459
USER: genes 23 Torsion [N]-CA--CB-[CG] |==|  0.08204
USER: genes 24 Torsion [CA]-CB--CG-[CD2] |==|  0.23699
USER: genes 25 Torsion [N]-CA--C-[O] |==|  0.02809
USER: genes 26 Torsion [N]-CA--CB-[CG1] |==|  0.11208
USER: genes 27 Torsion [CA]-CB--CG1-[CD1] |==|  0.35097
ROOT
ATOM      1  C   VAL C   3      54.642  31.387  35.486  1.00 15.94 LIG 0.24  C 
ATOM      2 O    VAL C   3      55.162  32.486  35.486  1.00 17.86 LIG-0.27  OA
ATOM      3  N   TYR C   4      55.352  30.285  35.704  1.00 16.41 LIG-0.35  N 
ATOM      4 H    TYR C   4      55.022  29.491  35.692  1.00 16.41 LIG 0.16  HD
ENDROOT
BRANCH 1 5
ATOM      5  CA  VAL C   3      53.135  31.257  35.184  1.00 16.01 LIG 0.18  C 
BRANCH 5 6
ATOM      6  N   VAL C   3      52.662  32.600  34.787  1.00 15.77 LIG-0.35  N 
ATOM      7 H    VAL C   3      52.133  32.985  35.346  1.00 15.77 LIG 0.16  HD
ATOM      8  C   ARG C   2      53.061  33.118  33.637  1.00 16.54 LIG 0.24  C 
ATOM      9 O    ARG C   2      53.912  32.563  32.910  1.00 14.63 LIG-0.27  OA
BRANCH 8 10
ATOM     10  CA  ARG C   2      52.455  34.448  33.235  1.00 19.03 LIG 0.18  C 
BRANCH 10 11
ATOM     11  CB  ARG C   2      51.578  34.967  34.380  1.00 20.38 LIG 0.04  C 
BRANCH 11 12
ATOM     12  CG  ARG C   2      52.226  35.978  35.264  1.00 20.75 LIG 0.02  C 
BRANCH 12 13
ATOM     13  CD  ARG C   2      53.674  35.768  35.327  1.00 22.55 LIG 0.14  C 
BRANCH 13 14
ATOM     14  NE  ARG C   2      54.396  36.983  35.590  1.00 20.36 LIG-0.23  N 
ATOM     15  CZ  ARG C   2      54.346  37.650  36.724  1.00 23.11 LIG 0.67  C 
ATOM     16  NH1 ARG C   2      53.724  37.165  37.741  1.00 23.20 LIG-0.23  N 
ATOM     17  NH2 ARG C   2      55.034  38.792  36.839  1.00 25.55 LIG-0.23  N 
ATOM     18 1HH1 ARG C   2      53.337  36.400  37.685  1.00 23.20 LIG 0.17  HD
ATOM     19 2HH1 ARG C   2      53.697  37.608  38.479  1.00 23.20 LIG 0.17  HD
ATOM     20 2HH2 ARG C   2      55.009  39.237  37.575  1.00 25.55 LIG 0.17  HD
ATOM     21 1HH2 ARG C   2      55.501  39.081  36.177  1.00 25.55 LIG 0.17  HD
ATOM     22 HE   ARG C   2      54.894  37.295  34.963  1.00 20.36 LIG 0.18  HD
ENDBRANCH 13 14
ENDBRANCH 12 13
ENDBRANCH 11 12
ENDBRANCH 10 11
BRANCH 10 23
ATOM     23  N   ARG C   2      51.665  34.316  32.000  1.00 19.42 LIG-0.35  N 
ATOM     24  C   ASP C   1      50.686  33.424  31.936  1.00 19.51 LIG 0.25  C 
ATOM     25 O    ASP C   1      50.244  32.851  32.945  1.00 19.29 LIG-0.27  OA
ATOM     26 H    ARG C   2      51.890  34.846  31.361  1.00 19.42 LIG 0.16  HD
BRANCH 24 27
ATOM     27  CA  ASP C   1      50.116  33.088  30.569  1.00 19.04 LIG 0.28  C 
BRANCH 27 28
ATOM     28  CB  ASP C   1      49.443  31.741  30.633  1.00 21.34 LIG 0.15  C 
BRANCH 28 29
ATOM     29  CG  ASP C   1      48.927  31.280  29.245  1.00 23.67 LIG 0.17  C 
ATOM     30 OD2  ASP C   1      48.894  32.136  28.320  1.00 27.41 LIG-0.65  OA
ATOM     31 OD1  ASP C   1      48.529  30.080  29.082  1.00 20.87 LIG-0.65  OA
ENDBRANCH 28 29
ENDBRANCH 27 28
BRANCH 27 32
ATOM     32  N   ASP C   1      51.267  33.067  29.595  1.00 18.38 LIG-0.07  N 
ATOM     33 H1   ASP C   1      51.932  32.580  29.931  1.00 18.38 LIG 0.28  HD
ATOM     34 H3   ASP C   1      51.551  33.898  29.452  1.00 18.38 LIG 0.28  HD
ATOM     35 H2   ASP C   1      50.999  32.710  28.825  1.00 18.38 LIG 0.28  HD
ENDBRANCH 27 32
ENDBRANCH 24 27
ENDBRANCH 10 23
ENDBRANCH 8 10
ENDBRANCH 5 6
BRANCH 5 36
ATOM     36  CB  VAL C   3      52.977  30.230  34.085  1.00 17.74 LIG 0.01  C 
ATOM     37  CG1 VAL C   3      53.106  28.817  34.614  1.00 20.72 LIG 0.01  C 
ATOM     38  CG2 VAL C   3      51.621  30.350  33.414  1.00 18.64 LIG 0.01  C 
ENDBRANCH 5 36
ENDBRANCH 1 5
BRANCH 3 39
ATOM     39  CA  TYR C   4      56.781  30.339  35.989  1.00 17.90 LIG 0.18  C 
BRANCH 39 40
ATOM     40  CB  TYR C   4      57.031  30.888  37.360  1.00 20.19 LIG 0.07  C 
BRANCH 40 41
ATOM     41  CG  TYR C   4      56.917  32.382  37.505  1.00 23.00 LIG-0.06  A 
ATOM     42  CD2 TYR C   4      57.709  33.231  36.732  1.00 26.62 LIG 0.01  A 
ATOM     43  CE2 TYR C   4      57.625  34.604  36.853  1.00 28.63 LIG 0.04  A 
ATOM     44  CZ  TYR C   4      56.753  35.139  37.750  1.00 25.42 LIG 0.07  A 
ATOM     45  CE1 TYR C   4      55.937  34.348  38.486  1.00 26.89 LIG 0.04  A 
ATOM     46  CD1 TYR C   4      56.025  32.953  38.366  1.00 24.41 LIG 0.01  A 
BRANCH 44 47
ATOM     47 OH   TYR C   4      56.668  36.496  37.863  1.00 32.39 LIG-0.36  OA
ATOM     48 HH   TYR C   4      57.079  36.746  38.552  1.00 32.39 LIG 0.22  HD
ENDBRANCH 44 47
ENDBRANCH 40 41
ENDBRANCH 39 40
BRANCH 39 49
ATOM     49  C   TYR C   4      57.498  28.975  35.772  1.00 20.63 LIG 0.24  C 
ATOM     50 O    TYR C   4      58.495  28.895  35.110  1.00 19.73 LIG-0.27  OA
ATOM     51  N   ILE C   5      57.025  27.945  36.457  1.00 22.91 LIG-0.35  N 
ATOM     52 H    ILE C   5      56.388  27.998  37.033  1.00 22.91 LIG 0.16  HD
BRANCH 51 53
ATOM     53  CA  ILE C   5      57.568  26.610  36.278  1.00 27.58 LIG 0.18  C 
BRANCH 53 54
ATOM     54  C   ILE C   5      56.566  25.749  35.514  1.00 33.14 LIG 0.24  C 
ATOM     55  N   HIS C   6      56.183  24.600  36.088  1.00 39.14 LIG-0.35  N 
ATOM     56 H    HIS C   6      56.522  24.310  36.824  1.00 39.14 LIG 0.16  HD
ATOM     57 O    ILE C   5      56.247  26.096  34.380  1.00 25.88 LIG-0.27  OA
BRANCH 55 58
ATOM     58  CA  HIS C   6      55.125  23.690  35.517  1.00 56.87 LIG 0.17  C 
BRANCH 58 59
ATOM     59  CB  HIS C   6      55.314  22.234  36.034  1.00 66.39 LIG 0.09  C 
BRANCH 59 60
ATOM     60  CG  HIS C   6      55.937  22.127  37.397  1.00 78.50 LIG 0.06  A 
ATOM     61  CD2 HIS C   6      55.372  22.180  38.629  1.00 82.71 LIG 0.14  A 
ATOM     62 NE2  HIS C   6      56.376  21.980  39.549  1.00 84.02 LIG-0.25  NA
ATOM     63  CE1 HIS C   6      57.516  21.787  38.907  1.00 85.20 LIG 0.23  A 
ATOM     64 ND1  HIS C   6      57.279  21.864  37.606  1.00 88.66 LIG-0.24  NA
ENDBRANCH 59 60
ENDBRANCH 58 59
BRANCH 58 65
ATOM     65  C   HIS C   6      53.659  24.076  35.756  1.00 59.18 LIG 0.22  C 
ATOM     66 O    HIS C   6      53.363  25.203  36.236  1.00 63.69 LIG-0.29  OA
ENDBRANCH 58 65
ENDBRANCH 55 58
ENDBRANCH 53 54
BRANCH 53 67
ATOM     67  CB  ILE C   5      57.923  26.008  37.631  1.00 28.54 LIG 0.01  C 
ATOM     68  CG2 ILE C   5      59.315  26.494  38.029  1.00 32.34 LIG 0.01  C 
BRANCH 67 69
ATOM     69  CG1 ILE C   5      56.802  26.398  38.609  1.00 30.21 LIG 0.00  C 
ATOM     70  CD1 ILE C   5      56.146  25.268  39.361  1.00 32.85 LIG 0.01  C 
ENDBRANCH 67 69
ENDBRANCH 53 67
ENDBRANCH 51 53
ENDBRANCH 39 49
ENDBRANCH 3 39
TORSDOF 26
ENDMDL
MODEL 55
USER: ADFR SOLUTION from run 36
USER: SCORE 21.944215 LL:  -6.104 LR: -17.108 RR:   0.000 FEB:  -9.352
USER: RMSD 9.714421
USER: SEED 35
USER: STATUS no improvement in best in 3 clusters for 5 generations
USER: GENES 28
USER: genes 0 Translation |==|  0.57679 0.46715 0.52446
USER: genes 1 Rotation |==|  0.46660 0.06257 0.35558 0.69152
USER: genes 2 Torsion [N]-C--CA-[N] |==|  0.45800
USER: genes 3 Torsion [C]-CA--N-[C] |==|  0.62637
USER: genes 4 Torsion [N]-C--CA-[N] |==|  0.13644
USER: genes 5 Torsion [C]-CA--CB-[CG] |==|  0.36658
USER: genes 6 Torsion [CA]-CB--CG-[CD] |==|  0.26438
USER: genes 7 Torsion [CB]-CG--CD-[NE] |==|  0.52000
USER: genes 8 Torsion [CG]-CD--NE-[CZ] |==|  0.68165
USER: genes 9 Torsion [C]-CA--N-[C] |==|  0.13889
USER: genes 10 Torsion [N]-C--CA-[N] |==|  0.83900
USER: genes 11 Torsion [C]-CA--CB-[CG] |==|  0.71847
USER: genes 12 Torsion [CA]-CB--CG-[OD2] |==|  0.58652
USER: genes 13 Torsion [C]-CA--N-[H1] |==|  0.80599
USER: genes 14 Torsion [C]-CA--CB-[CG1] |==|  0.22630
USER: genes 15 Torsion [C]-N--CA-[CB] |==|  0.23856
USER: genes 16 Torsion [N]-CA--CB-[CG] |==|  0.05908
USER: genes 17 Torsion [CA]-CB--CG-[CD2] |==|  0.26086
USER: genes 18 Torsion [CE2]-CZ--OH-[HH] |==|  0.49045
USER: genes 19 Torsion [N]-CA--C-[N] |==|  0.51374
USER: genes 20 Torsion [C]-N--CA-[C] |==|  0.82135
USER: genes 21 Torsion [N]-CA--C-[N] |==|  0.90061
USER: genes 22 Torsion [C]-N--CA-[CB] |==|  0.77657
USER: genes 23 Torsion [N]-CA--CB-[CG] |==|  0.57693
USER: genes 24 Torsion [CA]-CB--CG-[CD2] |==|  0.17236
USER: genes 25 Torsion [N]-CA--C-[O] |==|  0.43951
USER: genes 26 Torsion [N]-CA--CB-[CG1] |==|  0.84764
USER: genes 27 Torsion [CA]-CB--CG1-[CD1] |==|  0.57286
ROOT
ATOM      1  C   VAL C   3      55.469  28.492  35.003  1.00 15.94 LIG 0.24  C 
ATOM      2 O    VAL C   3      56.383  29.002  34.385  1.00 17.86 LIG-0.27  OA
ATOM      3  N   TYR C   4      55.669  27.447  35.799  1.00 16.41 LIG-0.35  N 
ATOM      4 H    TYR C   4      55.044  27.049  36.236  1.00 16.41 LIG 0.16  HD
ENDROOT
BRANCH 1 5
ATOM      5  CA  VAL C   3      54.036  29.037  34.833  1.00 16.01 LIG 0.18  C 
BRANCH 5 6
ATOM      6  N   VAL C   3      54.159  30.376  34.219  1.00 15.77 LIG-0.35  N 
ATOM      7 H    VAL C   3      54.705  30.430  33.556  1.00 15.77 LIG 0.16  HD
ATOM      8  C   ARG C   2      53.450  31.382  34.703  1.00 16.54 LIG 0.24  C 
ATOM      9 O    ARG C   2      52.592  31.231  35.599  1.00 14.63 LIG-0.27  OA
BRANCH 8 10
ATOM     10  CA  ARG C   2      53.701  32.752  34.104  1.00 19.03 LIG 0.18  C 
BRANCH 10 11
ATOM     11  CB  ARG C   2      52.644  33.731  34.627  1.00 20.38 LIG 0.04  C 
BRANCH 11 12
ATOM     12  CG  ARG C   2      53.179  35.028  35.133  1.00 20.75 LIG 0.02  C 
BRANCH 12 13
ATOM     13  CD  ARG C   2      53.132  36.056  34.092  1.00 22.55 LIG 0.14  C 
BRANCH 13 14
ATOM     14  NE  ARG C   2      53.790  37.271  34.489  1.00 20.36 LIG-0.23  N 
ATOM     15  CZ  ARG C   2      53.181  38.425  34.667  1.00 23.11 LIG 0.67  C 
ATOM     16  NH1 ARG C   2      51.898  38.502  34.618  1.00 23.20 LIG-0.23  N 
ATOM     17  NH2 ARG C   2      53.906  39.499  35.000  1.00 25.55 LIG-0.23  N 
ATOM     18 1HH1 ARG C   2      51.429  37.797  34.468  1.00 23.20 LIG 0.17  HD
ATOM     19 2HH1 ARG C   2      51.508  39.260  34.736  1.00 23.20 LIG 0.17  HD
ATOM     20 2HH2 ARG C   2      53.520  40.258  35.120  1.00 25.55 LIG 0.17  HD
ATOM     21 1HH2 ARG C   2      54.758  39.431  35.095  1.00 25.55 LIG 0.17  HD
ATOM     22 HE   ARG C   2      54.639  37.242  34.618  1.00 20.36 LIG 0.18  HD
ENDBRANCH 13 14
ENDBRANCH 12 13
ENDBRANCH 11 12
ENDBRANCH 10 11
BRANCH 10 23
ATOM     23  N   ARG C   2      53.669  32.698  32.633  1.00 19.42 LIG-0.35  N 
ATOM     24  C   ASP C   1      52.652  32.113  32.016  1.00 19.51 LIG 0.25  C 
ATOM     25 O    ASP C   1      51.603  31.810  32.609  1.00 19.29 LIG-0.27  OA
ATOM     26 H    ARG C   2      54.339  33.064  32.238  1.00 19.42 LIG 0.16  HD
BRANCH 24 27
ATOM     27  CA  ASP C   1      52.805  31.787  30.541  1.00 19.04 LIG 0.28  C 
BRANCH 27 28
ATOM     28  CB  ASP C   1      53.936  30.807  30.366  1.00 21.34 LIG 0.15  C 
BRANCH 28 29
ATOM     29  CG  ASP C   1      55.235  31.497  29.876  1.00 23.67 LIG 0.17  C 
ATOM     30 OD2  ASP C   1      56.014  30.825  29.145  1.00 27.41 LIG-0.65  OA
ATOM     31 OD1  ASP C   1      55.495  32.692  30.236  1.00 20.87 LIG-0.65  OA
ENDBRANCH 28 29
ENDBRANCH 27 28
BRANCH 27 32
ATOM     32  N   ASP C   1      53.099  33.080  29.823  1.00 18.38 LIG-0.07  N 
ATOM     33 H1   ASP C   1      52.372  33.594  29.827  1.00 18.38 LIG 0.28  HD
ATOM     34 H3   ASP C   1      53.334  32.906  28.983  1.00 18.38 LIG 0.28  HD
ATOM     35 H2   ASP C   1      53.764  33.504  30.234  1.00 18.38 LIG 0.28  HD
ENDBRANCH 27 32
ENDBRANCH 24 27
ENDBRANCH 10 23
ENDBRANCH 8 10
ENDBRANCH 5 6
BRANCH 5 36
ATOM     36  CB  VAL C   3      53.277  28.060  33.962  1.00 17.74 LIG 0.01  C 
ATOM     37  CG1 VAL C   3      52.765  26.879  34.758  1.00 20.72 LIG 0.01  C 
ATOM     38  CG2 VAL C   3      52.082  28.726  33.304  1.00 18.64 LIG 0.01  C 
ENDBRANCH 5 36
ENDBRANCH 1 5
BRANCH 3 39
ATOM     39  CA  TYR C   4      56.997  26.881  35.999  1.00 17.90 LIG 0.18  C 
BRANCH 39 40
ATOM     40  CB  TYR C   4      57.727  27.604  37.089  1.00 20.19 LIG 0.07  C 
BRANCH 40 41
ATOM     41  CG  TYR C   4      56.871  28.366  38.065  1.00 23.00 LIG-0.06  A 
ATOM     42  CD2 TYR C   4      56.461  27.775  39.261  1.00 26.62 LIG 0.01  A 
ATOM     43  CE2 TYR C   4      55.671  28.452  40.168  1.00 28.63 LIG 0.04  A 
ATOM     44  CZ  TYR C   4      55.281  29.725  39.885  1.00 25.42 LIG 0.07  A 
ATOM     45  CE1 TYR C   4      55.694  30.347  38.756  1.00 26.89 LIG 0.04  A 
ATOM     46  CD1 TYR C   4      56.494  29.658  37.833  1.00 24.41 LIG 0.01  A 
BRANCH 44 47
ATOM     47 OH   TYR C   4      54.505  30.396  40.786  1.00 32.39 LIG-0.36  OA
ATOM     48 HH   TYR C   4      54.375  31.180  40.515  1.00 32.39 LIG 0.22  HD
ENDBRANCH 44 47
ENDBRANCH 40 41
ENDBRANCH 39 40
BRANCH 39 49
ATOM     49  C   TYR C   4      56.976  25.344  36.240  1.00 20.63 LIG 0.24  C 
ATOM     50 O    TYR C   4      55.981  24.699  36.057  1.00 19.73 LIG-0.27  OA
ATOM     51  N   ILE C   5      58.137  24.776  36.530  1.00 22.91 LIG-0.35  N 
ATOM     52 H    ILE C   5      58.888  25.194  36.548  1.00 22.91 LIG 0.16  HD
BRANCH 51 53
ATOM     53  CA  ILE C   5      58.223  23.361  36.847  1.00 27.58 LIG 0.18  C 
BRANCH 53 54
ATOM     54  C   ILE C   5      57.456  23.079  38.137  1.00 33.14 LIG 0.24  C 
ATOM     55  N   HIS C   6      57.494  24.020  39.089  1.00 39.14 LIG-0.35  N 
ATOM     56 H    HIS C   6      57.974  24.731  39.025  1.00 39.14 LIG 0.16  HD
ATOM     57 O    ILE C   5      56.939  21.973  38.274  1.00 25.88 LIG-0.27  OA
BRANCH 55 58
ATOM     58  CA  HIS C   6      56.707  23.943  40.373  1.00 56.87 LIG 0.17  C 
BRANCH 58 59
ATOM     59  CB  HIS C   6      55.232  24.385  40.143  1.00 66.39 LIG 0.09  C 
BRANCH 59 60
ATOM     60  CG  HIS C   6      54.556  24.967  41.352  1.00 78.50 LIG 0.06  A 
ATOM     61  CD2 HIS C   6      54.850  26.075  42.077  1.00 82.71 LIG 0.14  A 
ATOM     62 NE2  HIS C   6      53.889  26.192  43.055  1.00 84.02 LIG-0.25  NA
ATOM     63  CE1 HIS C   6      53.019  25.204  42.924  1.00 85.20 LIG 0.23  A 
ATOM     64 ND1  HIS C   6      53.393  24.453  41.900  1.00 88.66 LIG-0.24  NA
ENDBRANCH 59 60
ENDBRANCH 58 59
BRANCH 58 65
ATOM     65  C   HIS C   6      56.674  22.592  41.101  1.00 59.18 LIG 0.22  C 
ATOM     66 O    HIS C   6      56.408  22.534  42.332  1.00 63.69 LIG-0.29  OA
ENDBRANCH 58 65
ENDBRANCH 55 58
ENDBRANCH 53 54
BRANCH 53 67
ATOM     67  CB  ILE C   5      59.683  22.941  36.948  1.00 28.54 LIG 0.01  C 
ATOM     68  CG2 ILE C   5      59.739  21.448  37.264  1.00 32.34 LIG 0.01  C 
BRANCH 67 69
ATOM     69  CG1 ILE C   5      60.364  23.345  35.629  1.00 30.21 LIG 0.00  C 
ATOM     70  CD1 ILE C   5      61.574  22.540  35.226  1.00 32.85 LIG 0.01  C 
ENDBRANCH 67 69
ENDBRANCH 53 67
ENDBRANCH 51 53
ENDBRANCH 39 49
ENDBRANCH 3 39
TORSDOF 26
ENDMDL
MODEL 56
USER: ADFR SOLUTION from run 166
USER: SCORE 21.869643 LL:  -7.135 LR: -17.101 RR:   0.000 FEB:  -9.345
USER: RMSD 8.354367
USER: SEED 165
USER: STATUS 1 or 2 clusters left
USER: GENES 28
USER: genes 0 Translation |==|  0.47170 0.64431 0.51355
USER: genes 1 Rotation |==|  0.77669 0.38642 0.90057 0.50949
USER: genes 2 Torsion [N]-C--CA-[N] |==|  0.40104
USER: genes 3 Torsion [C]-CA--N-[C] |==|  0.62561
USER: genes 4 Torsion [N]-C--CA-[N] |==|  0.04294
USER: genes 5 Torsion [C]-CA--CB-[CG] |==|  0.93002
USER: genes 6 Torsion [CA]-CB--CG-[CD] |==|  0.35579
USER: genes 7 Torsion [CB]-CG--CD-[NE] |==|  0.76510
USER: genes 8 Torsion [CG]-CD--NE-[CZ] |==|  0.73640
USER: genes 9 Torsion [C]-CA--N-[C] |==|  0.51721
USER: genes 10 Torsion [N]-C--CA-[N] |==|  0.42144
USER: genes 11 Torsion [C]-CA--CB-[CG] |==|  0.49682
USER: genes 12 Torsion [CA]-CB--CG-[OD2] |==|  0.53514
USER: genes 13 Torsion [C]-CA--N-[H1] |==|  0.49375
USER: genes 14 Torsion [C]-CA--CB-[CG1] |==|  0.16845
USER: genes 15 Torsion [C]-N--CA-[CB] |==|  0.81545
USER: genes 16 Torsion [N]-CA--CB-[CG] |==|  0.81147
USER: genes 17 Torsion [CA]-CB--CG-[CD2] |==|  0.55158
USER: genes 18 Torsion [CE2]-CZ--OH-[HH] |==|  0.80153
USER: genes 19 Torsion [N]-CA--C-[N] |==|  0.74652
USER: genes 20 Torsion [C]-N--CA-[C] |==|  0.84007
USER: genes 21 Torsion [N]-CA--C-[N] |==|  0.90975
USER: genes 22 Torsion [C]-N--CA-[CB] |==|  0.30456
USER: genes 23 Torsion [N]-CA--CB-[CG] |==|  0.55079
USER: genes 24 Torsion [CA]-CB--CG-[CD2] |==|  0.29307
USER: genes 25 Torsion [N]-CA--C-[O] |==|  0.34451
USER: genes 26 Torsion [N]-CA--CB-[CG1] |==|  0.08836
USER: genes 27 Torsion [CA]-CB--CG1-[CD1] |==|  0.28652
ROOT
ATOM      1  C   VAL C   3      53.656  33.010  34.717  1.00 15.94 LIG 0.24  C 
ATOM      2 O    VAL C   3      54.001  32.842  33.563  1.00 17.86 LIG-0.27  OA
ATOM      3  N   TYR C   4      52.572  33.717  35.019  1.00 16.41 LIG-0.35  N 
ATOM      4 H    TYR C   4      52.309  33.873  35.823  1.00 16.41 LIG 0.16  HD
ENDROOT
BRANCH 1 5
ATOM      5  CA  VAL C   3      54.511  32.429  35.861  1.00 16.01 LIG 0.18  C 
BRANCH 5 6
ATOM      6  N   VAL C   3      55.014  31.120  35.395  1.00 15.77 LIG-0.35  N 
ATOM      7 H    VAL C   3      55.327  31.108  34.593  1.00 15.77 LIG 0.16  HD
ATOM      8  C   ARG C   2      54.961  30.075  36.204  1.00 16.54 LIG 0.24  C 
ATOM      9 O    ARG C   2      54.596  30.166  37.396  1.00 14.63 LIG-0.27  OA
BRANCH 8 10
ATOM     10  CA  ARG C   2      55.389  28.738  35.632  1.00 19.03 LIG 0.18  C 
BRANCH 10 11
ATOM     11  CB  ARG C   2      56.250  28.003  36.664  1.00 20.38 LIG 0.04  C 
BRANCH 11 12
ATOM     12  CG  ARG C   2      56.950  28.882  37.645  1.00 20.75 LIG 0.02  C 
BRANCH 12 13
ATOM     13  CD  ARG C   2      56.687  28.448  39.019  1.00 22.55 LIG 0.14  C 
BRANCH 13 14
ATOM     14  NE  ARG C   2      55.457  28.981  39.538  1.00 20.36 LIG-0.23  N 
ATOM     15  CZ  ARG C   2      55.365  30.076  40.262  1.00 23.11 LIG 0.67  C 
ATOM     16  NH1 ARG C   2      56.394  30.828  40.446  1.00 23.20 LIG-0.23  N 
ATOM     17  NH2 ARG C   2      54.167  30.455  40.724  1.00 25.55 LIG-0.23  N 
ATOM     18 1HH1 ARG C   2      57.149  30.616  40.094  1.00 23.20 LIG 0.17  HD
ATOM     19 2HH1 ARG C   2      56.325  31.542  40.920  1.00 23.20 LIG 0.17  HD
ATOM     20 2HH2 ARG C   2      54.095  31.169  41.198  1.00 25.55 LIG 0.17  HD
ATOM     21 1HH2 ARG C   2      53.469  29.984  40.545  1.00 25.55 LIG 0.17  HD
ATOM     22 HE   ARG C   2      54.731  28.555  39.364  1.00 20.36 LIG 0.18  HD
ENDBRANCH 13 14
ENDBRANCH 12 13
ENDBRANCH 11 12
ENDBRANCH 10 11
BRANCH 10 23
ATOM     23  N   ARG C   2      56.134  28.917  34.375  1.00 19.42 LIG-0.35  N 
ATOM     24  C   ASP C   1      56.486  27.858  33.660  1.00 19.51 LIG 0.25  C 
ATOM     25 O    ASP C   1      56.017  26.728  33.874  1.00 19.29 LIG-0.27  OA
ATOM     26 H    ARG C   2      56.308  29.732  34.163  1.00 19.42 LIG 0.16  HD
BRANCH 24 27
ATOM     27  CA  ASP C   1      57.518  28.048  32.562  1.00 19.04 LIG 0.28  C 
BRANCH 27 28
ATOM     28  CB  ASP C   1      56.816  28.437  31.286  1.00 21.34 LIG 0.15  C 
BRANCH 28 29
ATOM     29  CG  ASP C   1      57.811  28.678  30.122  1.00 23.67 LIG 0.17  C 
ATOM     30 OD2  ASP C   1      57.369  29.240  29.082  1.00 27.41 LIG-0.65  OA
ATOM     31 OD1  ASP C   1      59.019  28.286  30.228  1.00 20.87 LIG-0.65  OA
ENDBRANCH 28 29
ENDBRANCH 27 28
BRANCH 27 32
ATOM     32  N   ASP C   1      58.245  26.737  32.395  1.00 18.38 LIG-0.07  N 
ATOM     33 H1   ASP C   1      58.837  26.808  31.734  1.00 18.38 LIG 0.28  HD
ATOM     34 H3   ASP C   1      57.659  26.095  32.203  1.00 18.38 LIG 0.28  HD
ATOM     35 H2   ASP C   1      58.669  26.534  33.151  1.00 18.38 LIG 0.28  HD
ENDBRANCH 27 32
ENDBRANCH 24 27
ENDBRANCH 10 23
ENDBRANCH 8 10
ENDBRANCH 5 6
BRANCH 5 36
ATOM     36  CB  VAL C   3      55.621  33.416  36.147  1.00 17.74 LIG 0.01  C 
ATOM     37  CG1 VAL C   3      55.078  34.762  36.579  1.00 20.72 LIG 0.01  C 
ATOM     38  CG2 VAL C   3      56.533  32.910  37.251  1.00 18.64 LIG 0.01  C 
ENDBRANCH 5 36
ENDBRANCH 1 5
BRANCH 3 39
ATOM     39  CA  TYR C   4      51.724  34.298  33.985  1.00 17.90 LIG 0.18  C 
BRANCH 39 40
ATOM     40  CB  TYR C   4      52.455  35.369  33.237  1.00 20.19 LIG 0.07  C 
BRANCH 40 41
ATOM     41  CG  TYR C   4      52.777  36.618  34.014  1.00 23.00 LIG-0.06  A 
ATOM     42  CD2 TYR C   4      53.094  37.804  33.350  1.00 26.62 LIG 0.01  A 
ATOM     43  CE2 TYR C   4      53.398  38.959  34.042  1.00 28.63 LIG 0.04  A 
ATOM     44  CZ  TYR C   4      53.391  38.937  35.403  1.00 25.42 LIG 0.07  A 
ATOM     45  CE1 TYR C   4      53.046  37.818  36.081  1.00 26.89 LIG 0.04  A 
ATOM     46  CD1 TYR C   4      52.740  36.644  35.378  1.00 24.41 LIG 0.01  A 
BRANCH 44 47
ATOM     47 OH   TYR C   4      53.685  40.082  36.085  1.00 32.39 LIG-0.36  OA
ATOM     48 HH   TYR C   4      54.505  40.252  36.007  1.00 32.39 LIG 0.22  HD
ENDBRANCH 44 47
ENDBRANCH 40 41
ENDBRANCH 39 40
BRANCH 39 49
ATOM     49  C   TYR C   4      51.116  33.235  33.026  1.00 20.63 LIG 0.24  C 
ATOM     50 O    TYR C   4      50.020  32.784  33.212  1.00 19.73 LIG-0.27  OA
ATOM     51  N   ILE C   5      51.815  32.955  31.936  1.00 22.91 LIG-0.35  N 
ATOM     52 H    ILE C   5      52.545  33.352  31.715  1.00 22.91 LIG 0.16  HD
BRANCH 51 53
ATOM     53  CA  ILE C   5      51.381  31.926  31.009  1.00 27.58 LIG 0.18  C 
BRANCH 53 54
ATOM     54  C   ILE C   5      51.250  30.595  31.746  1.00 33.14 LIG 0.24  C 
ATOM     55  N   HIS C   6      52.096  30.372  32.760  1.00 39.14 LIG-0.35  N 
ATOM     56 H    HIS C   6      52.734  30.912  32.963  1.00 39.14 LIG 0.16  HD
ATOM     57 O    ILE C   5      50.457  29.765  31.310  1.00 25.88 LIG-0.27  OA
BRANCH 55 58
ATOM     58  CA  HIS C   6      52.031  29.160  33.654  1.00 56.87 LIG 0.17  C 
BRANCH 58 59
ATOM     59  CB  HIS C   6      53.233  28.209  33.383  1.00 66.39 LIG 0.09  C 
BRANCH 59 60
ATOM     60  CG  HIS C   6      53.048  26.805  33.885  1.00 78.50 LIG 0.06  A 
ATOM     61  CD2 HIS C   6      52.789  25.656  33.211  1.00 82.71 LIG 0.14  A 
ATOM     62 NE2  HIS C   6      52.762  24.636  34.135  1.00 84.02 LIG-0.25  NA
ATOM     63  CE1 HIS C   6      53.019  25.134  35.333  1.00 85.20 LIG 0.23  A 
ATOM     64 ND1  HIS C   6      53.202  26.440  35.211  1.00 88.66 LIG-0.24  NA
ENDBRANCH 59 60
ENDBRANCH 58 59
BRANCH 58 65
ATOM     65  C   HIS C   6      51.970  29.402  35.169  1.00 59.18 LIG 0.22  C 
ATOM     66 O    HIS C   6      51.029  28.924  35.857  1.00 63.69 LIG-0.29  OA
ENDBRANCH 58 65
ENDBRANCH 55 58
ENDBRANCH 53 54
BRANCH 53 67
ATOM     67  CB  ILE C   5      52.354  31.837  29.840  1.00 28.54 LIG 0.01  C 
ATOM     68  CG2 ILE C   5      51.849  32.740  28.717  1.00 32.34 LIG 0.01  C 
BRANCH 67 69
ATOM     69  CG1 ILE C   5      53.746  32.201  30.381  1.00 30.21 LIG 0.00  C 
ATOM     70  CD1 ILE C   5      54.695  31.053  30.618  1.00 32.85 LIG 0.01  C 
ENDBRANCH 67 69
ENDBRANCH 53 67
ENDBRANCH 51 53
ENDBRANCH 39 49
ENDBRANCH 3 39
TORSDOF 26
ENDMDL
MODEL 57
USER: ADFR SOLUTION from run 115
USER: SCORE 22.539124 LL:  -6.492 LR: -17.102 RR:   0.000 FEB:  -9.346
USER: RMSD 6.261478
USER: SEED 114
USER: STATUS no improvement in best in 12 clusters for 5 generations
USER: GENES 28
USER: genes 0 Translation |==|  0.68826 0.44493 0.53174
USER: genes 1 Rotation |==|  0.16564 0.43743 0.18719 0.69089
USER: genes 2 Torsion [N]-C--CA-[N] |==|  0.84477
USER: genes 3 Torsion [C]-CA--N-[C] |==|  0.70710
USER: genes 4 Torsion [N]-C--CA-[N] |==|  0.10442
USER: genes 5 Torsion [C]-CA--CB-[CG] |==|  0.28860
USER: genes 6 Torsion [CA]-CB--CG-[CD] |==|  0.35678
USER: genes 7 Torsion [CB]-CG--CD-[NE] |==|  0.48542
USER: genes 8 Torsion [CG]-CD--NE-[CZ] |==|  0.38493
USER: genes 9 Torsion [C]-CA--N-[C] |==|  0.74419
USER: genes 10 Torsion [N]-C--CA-[N] |==|  0.40308
USER: genes 11 Torsion [C]-CA--CB-[CG] |==|  0.79591
USER: genes 12 Torsion [CA]-CB--CG-[OD2] |==|  0.23258
USER: genes 13 Torsion [C]-CA--N-[H1] |==|  0.41910
USER: genes 14 Torsion [C]-CA--CB-[CG1] |==|  0.72568
USER: genes 15 Torsion [C]-N--CA-[CB] |==|  0.85556
USER: genes 16 Torsion [N]-CA--CB-[CG] |==|  0.68268
USER: genes 17 Torsion [CA]-CB--CG-[CD2] |==|  0.69679
USER: genes 18 Torsion [CE2]-CZ--OH-[HH] |==|  0.30778
USER: genes 19 Torsion [N]-CA--C-[N] |==|  0.88466
USER: genes 20 Torsion [C]-N--CA-[C] |==|  0.81114
USER: genes 21 Torsion [N]-CA--C-[N] |==|  0.87283
USER: genes 22 Torsion [C]-N--CA-[CB] |==|  0.81863
USER: genes 23 Torsion [N]-CA--CB-[CG] |==|  0.87635
USER: genes 24 Torsion [CA]-CB--CG-[CD2] |==|  0.87954
USER: genes 25 Torsion [N]-CA--C-[O] |==|  0.40786
USER: genes 26 Torsion [N]-CA--CB-[CG1] |==|  0.68578
USER: genes 27 Torsion [CA]-CB--CG1-[CD1] |==|  0.03444
ROOT
ATOM      1  C   VAL C   3      57.392  27.926  35.194  1.00 15.94 LIG 0.24  C 
ATOM      2 O    VAL C   3      57.501  27.999  33.986  1.00 17.86 LIG-0.27  OA
ATOM      3  N   TYR C   4      56.369  27.293  35.760  1.00 16.41 LIG-0.35  N 
ATOM      4 H    TYR C   4      56.249  27.239  36.610  1.00 16.41 LIG 0.16  HD
ENDROOT
BRANCH 1 5
ATOM      5  CA  VAL C   3      58.435  28.615  36.097  1.00 16.01 LIG 0.18  C 
BRANCH 5 6
ATOM      6  N   VAL C   3      57.695  29.558  36.961  1.00 15.77 LIG-0.35  N 
ATOM      7 H    VAL C   3      57.244  29.199  37.600  1.00 15.77 LIG 0.16  HD
ATOM      8  C   ARG C   2      57.762  30.856  36.716  1.00 16.54 LIG 0.24  C 
ATOM      9 O    ARG C   2      58.514  31.337  35.841  1.00 14.63 LIG-0.27  OA
BRANCH 8 10
ATOM     10  CA  ARG C   2      56.895  31.763  37.567  1.00 19.03 LIG 0.18  C 
BRANCH 10 11
ATOM     11  CB  ARG C   2      57.456  33.188  37.514  1.00 20.38 LIG 0.04  C 
BRANCH 11 12
ATOM     12  CG  ARG C   2      56.696  34.135  36.647  1.00 20.75 LIG 0.02  C 
BRANCH 12 13
ATOM     13  CD  ARG C   2      56.362  35.360  37.375  1.00 22.55 LIG 0.14  C 
BRANCH 13 14
ATOM     14  NE  ARG C   2      55.735  36.345  36.537  1.00 20.36 LIG-0.23  N 
ATOM     15  CZ  ARG C   2      54.712  37.090  36.898  1.00 23.11 LIG 0.67  C 
ATOM     16  NH1 ARG C   2      54.280  37.066  38.110  1.00 23.20 LIG-0.23  N 
ATOM     17  NH2 ARG C   2      54.187  37.949  36.016  1.00 25.55 LIG-0.23  N 
ATOM     18 1HH1 ARG C   2      54.661  36.561  38.692  1.00 23.20 LIG 0.17  HD
ATOM     19 2HH1 ARG C   2      53.611  37.556  38.338  1.00 23.20 LIG 0.17  HD
ATOM     20 2HH2 ARG C   2      53.519  38.441  36.240  1.00 25.55 LIG 0.17  HD
ATOM     21 1HH2 ARG C   2      54.519  38.009  35.224  1.00 25.55 LIG 0.17  HD
ATOM     22 HE   ARG C   2      56.051  36.455  35.745  1.00 20.36 LIG 0.18  HD
ENDBRANCH 13 14
ENDBRANCH 12 13
ENDBRANCH 11 12
ENDBRANCH 10 11
BRANCH 10 23
ATOM     23  N   ARG C   2      56.837  31.284  38.958  1.00 19.42 LIG-0.35  N 
ATOM     24  C   ASP C   1      55.865  30.463  39.332  1.00 19.51 LIG 0.25  C 
ATOM     25 O    ASP C   1      55.130  29.889  38.513  1.00 19.29 LIG-0.27  OA
ATOM     26 H    ARG C   2      57.461  31.574  39.473  1.00 19.42 LIG 0.16  HD
BRANCH 24 27
ATOM     27  CA  ASP C   1      55.643  30.252  40.820  1.00 19.04 LIG 0.28  C 
BRANCH 27 28
ATOM     28  CB  ASP C   1      56.394  29.022  41.261  1.00 21.34 LIG 0.15  C 
BRANCH 28 29
ATOM     29  CG  ASP C   1      55.713  27.717  40.776  1.00 23.67 LIG 0.17  C 
ATOM     30 OD2  ASP C   1      55.971  27.323  39.605  1.00 27.41 LIG-0.65  OA
ATOM     31 OD1  ASP C   1      54.904  27.100  41.543  1.00 20.87 LIG-0.65  OA
ENDBRANCH 28 29
ENDBRANCH 27 28
BRANCH 27 32
ATOM     32  N   ASP C   1      54.160  30.081  41.034  1.00 18.38 LIG-0.07  N 
ATOM     33 H1   ASP C   1      54.021  29.563  41.744  1.00 18.38 LIG 0.28  HD
ATOM     34 H3   ASP C   1      53.798  29.702  40.315  1.00 18.38 LIG 0.28  HD
ATOM     35 H2   ASP C   1      53.785  30.876  41.169  1.00 18.38 LIG 0.28  HD
ENDBRANCH 27 32
ENDBRANCH 24 27
ENDBRANCH 10 23
ENDBRANCH 8 10
ENDBRANCH 5 6
BRANCH 5 36
ATOM     36  CB  VAL C   3      59.144  27.533  36.882  1.00 17.74 LIG 0.01  C 
ATOM     37  CG1 VAL C   3      58.578  27.393  38.280  1.00 20.72 LIG 0.01  C 
ATOM     38  CG2 VAL C   3      59.018  26.185  36.196  1.00 18.64 LIG 0.01  C 
ENDBRANCH 5 36
ENDBRANCH 1 5
BRANCH 3 39
ATOM     39  CA  TYR C   4      55.345  26.627  34.964  1.00 17.90 LIG 0.18  C 
BRANCH 39 40
ATOM     40  CB  TYR C   4      54.788  27.555  33.928  1.00 20.19 LIG 0.07  C 
BRANCH 40 41
ATOM     41  CG  TYR C   4      53.341  27.935  34.090  1.00 23.00 LIG-0.06  A 
ATOM     42  CD2 TYR C   4      52.377  27.445  33.208  1.00 26.62 LIG 0.01  A 
ATOM     43  CE2 TYR C   4      51.045  27.785  33.334  1.00 28.63 LIG 0.04  A 
ATOM     44  CZ  TYR C   4      50.666  28.620  34.340  1.00 25.42 LIG 0.07  A 
ATOM     45  CE1 TYR C   4      51.565  29.079  35.241  1.00 26.89 LIG 0.04  A 
ATOM     46  CD1 TYR C   4      52.919  28.737  35.111  1.00 24.41 LIG 0.01  A 
BRANCH 44 47
ATOM     47 OH   TYR C   4      49.347  28.949  34.466  1.00 32.39 LIG-0.36  OA
ATOM     48 HH   TYR C   4      49.035  28.593  35.160  1.00 32.39 LIG 0.22  HD
ENDBRANCH 44 47
ENDBRANCH 40 41
ENDBRANCH 39 40
BRANCH 39 49
ATOM     49  C   TYR C   4      55.834  25.289  34.338  1.00 20.63 LIG 0.24  C 
ATOM     50 O    TYR C   4      55.094  24.353  34.215  1.00 19.73 LIG-0.27  OA
ATOM     51  N   ILE C   5      57.060  25.285  33.837  1.00 22.91 LIG-0.35  N 
ATOM     52 H    ILE C   5      57.570  25.977  33.802  1.00 22.91 LIG 0.16  HD
BRANCH 51 53
ATOM     53  CA  ILE C   5      57.647  24.072  33.297  1.00 27.58 LIG 0.18  C 
BRANCH 53 54
ATOM     54  C   ILE C   5      57.893  23.075  34.427  1.00 33.14 LIG 0.24  C 
ATOM     55  N   HIS C   6      58.463  23.545  35.544  1.00 39.14 LIG-0.35  N 
ATOM     56 H    HIS C   6      58.745  24.355  35.620  1.00 39.14 LIG 0.16  HD
ATOM     57 O    ILE C   5      57.656  21.889  34.216  1.00 25.88 LIG-0.27  OA
BRANCH 55 58
ATOM     58  CA  HIS C   6      58.677  22.719  36.787  1.00 56.87 LIG 0.17  C 
BRANCH 58 59
ATOM     59  CB  HIS C   6      57.313  22.308  37.416  1.00 66.39 LIG 0.09  C 
BRANCH 59 60
ATOM     60  CG  HIS C   6      56.298  23.413  37.490  1.00 78.50 LIG 0.06  A 
ATOM     61  CD2 HIS C   6      56.435  24.711  37.858  1.00 82.71 LIG 0.14  A 
ATOM     62 NE2  HIS C   6      55.207  25.313  37.702  1.00 84.02 LIG-0.25  NA
ATOM     63  CE1 HIS C   6      54.348  24.424  37.233  1.00 85.20 LIG 0.23  A 
ATOM     64 ND1  HIS C   6      54.981  23.270  37.089  1.00 88.66 LIG-0.24  NA
ENDBRANCH 59 60
ENDBRANCH 58 59
BRANCH 58 65
ATOM     65  C   HIS C   6      59.522  21.445  36.651  1.00 59.18 LIG 0.22  C 
ATOM     66 O    HIS C   6      60.250  21.055  37.603  1.00 63.69 LIG-0.29  OA
ENDBRANCH 58 65
ENDBRANCH 55 58
ENDBRANCH 53 54
BRANCH 53 67
ATOM     67  CB  ILE C   5      58.927  24.407  32.543  1.00 28.54 LIG 0.01  C 
ATOM     68  CG2 ILE C   5      60.077  23.615  33.162  1.00 32.34 LIG 0.01  C 
BRANCH 67 69
ATOM     69  CG1 ILE C   5      58.669  24.110  31.056  1.00 30.21 LIG 0.00  C 
ATOM     70  CD1 ILE C   5      57.234  23.871  30.660  1.00 32.85 LIG 0.01  C 
ENDBRANCH 67 69
ENDBRANCH 53 67
ENDBRANCH 51 53
ENDBRANCH 39 49
ENDBRANCH 3 39
TORSDOF 26
ENDMDL
MODEL 58
USER: ADFR SOLUTION from run 137
USER: SCORE 20.806394 LL:  -5.569 LR: -17.071 RR:   0.000 FEB:  -9.315
USER: RMSD 7.729646
USER: SEED 136
USER: STATUS no improvement in best in 22 clusters for 5 generations
USER: GENES 28
USER: genes 0 Translation |==|  0.42040 0.65371 0.47879
USER: genes 1 Rotation |==|  0.34723 0.29362 0.11082 0.68058
USER: genes 2 Torsion [N]-C--CA-[N] |==|  0.41102
USER: genes 3 Torsion [C]-CA--N-[C] |==|  0.85343
USER: genes 4 Torsion [N]-C--CA-[N] |==|  0.99833
USER: genes 5 Torsion [C]-CA--CB-[CG] |==|  0.31186
USER: genes 6 Torsion [CA]-CB--CG-[CD] |==|  0.68673
USER: genes 7 Torsion [CB]-CG--CD-[NE] |==|  0.87861
USER: genes 8 Torsion [CG]-CD--NE-[CZ] |==|  0.49909
USER: genes 9 Torsion [C]-CA--N-[C] |==|  0.18541
USER: genes 10 Torsion [N]-C--CA-[N] |==|  0.38696
USER: genes 11 Torsion [C]-CA--CB-[CG] |==|  0.48715
USER: genes 12 Torsion [CA]-CB--CG-[OD2] |==|  0.21430
USER: genes 13 Torsion [C]-CA--N-[H1] |==|  0.09423
USER: genes 14 Torsion [C]-CA--CB-[CG1] |==|  0.70152
USER: genes 15 Torsion [C]-N--CA-[CB] |==|  0.83532
USER: genes 16 Torsion [N]-CA--CB-[CG] |==|  0.70508
USER: genes 17 Torsion [CA]-CB--CG-[CD2] |==|  0.48409
USER: genes 18 Torsion [CE2]-CZ--OH-[HH] |==|  0.85436
USER: genes 19 Torsion [N]-CA--C-[N] |==|  0.15569
USER: genes 20 Torsion [C]-N--CA-[C] |==|  0.61229
USER: genes 21 Torsion [N]-CA--C-[N] |==|  0.42061
USER: genes 22 Torsion [C]-N--CA-[CB] |==|  0.50455
USER: genes 23 Torsion [N]-CA--CB-[CG] |==|  0.12422
USER: genes 24 Torsion [CA]-CB--CG-[CD2] |==|  0.36065
USER: genes 25 Torsion [N]-CA--C-[O] |==|  0.29058
USER: genes 26 Torsion [N]-CA--CB-[CG1] |==|  0.51670
USER: genes 27 Torsion [CA]-CB--CG1-[CD1] |==|  0.45859
ROOT
ATOM      1  C   VAL C   3      52.771  33.250  33.804  1.00 15.94 LIG 0.24  C 
ATOM      2 O    VAL C   3      53.767  33.455  33.139  1.00 17.86 LIG-0.27  OA
ATOM      3  N   TYR C   4      51.922  32.274  33.497  1.00 16.41 LIG-0.35  N 
ATOM      4 H    TYR C   4      51.199  32.112  33.933  1.00 16.41 LIG 0.16  HD
ENDROOT
BRANCH 1 5
ATOM      5  CA  VAL C   3      52.456  34.162  35.007  1.00 16.01 LIG 0.18  C 
BRANCH 5 6
ATOM      6  N   VAL C   3      53.753  34.561  35.592  1.00 15.77 LIG-0.35  N 
ATOM      7 H    VAL C   3      53.868  35.408  35.694  1.00 15.77 LIG 0.16  HD
ATOM      8  C   ARG C   2      54.636  33.630  35.915  1.00 16.54 LIG 0.24  C 
ATOM      9 O    ARG C   2      54.381  32.409  35.846  1.00 14.63 LIG-0.27  OA
BRANCH 8 10
ATOM     10  CA  ARG C   2      55.989  34.107  36.407  1.00 19.03 LIG 0.18  C 
BRANCH 10 11
ATOM     11  CB  ARG C   2      56.235  33.551  37.814  1.00 20.38 LIG 0.04  C 
BRANCH 11 12
ATOM     12  CG  ARG C   2      57.329  32.542  37.912  1.00 20.75 LIG 0.02  C 
BRANCH 12 13
ATOM     13  CD  ARG C   2      56.795  31.221  38.248  1.00 22.55 LIG 0.14  C 
BRANCH 13 14
ATOM     14  NE  ARG C   2      55.800  31.278  39.285  1.00 20.36 LIG-0.23  N 
ATOM     15  CZ  ARG C   2      55.162  30.231  39.764  1.00 23.11 LIG 0.67  C 
ATOM     16  NH1 ARG C   2      55.496  29.041  39.407  1.00 23.20 LIG-0.23  N 
ATOM     17  NH2 ARG C   2      54.226  30.412  40.704  1.00 25.55 LIG-0.23  N 
ATOM     18 1HH1 ARG C   2      56.141  28.923  38.851  1.00 23.20 LIG 0.17  HD
ATOM     19 2HH1 ARG C   2      55.074  28.362  39.726  1.00 23.20 LIG 0.17  HD
ATOM     20 2HH2 ARG C   2      53.803  29.736  41.025  1.00 25.55 LIG 0.17  HD
ATOM     21 1HH2 ARG C   2      54.049  31.205  40.987  1.00 25.55 LIG 0.17  HD
ATOM     22 HE   ARG C   2      55.609  32.048  39.614  1.00 20.36 LIG 0.18  HD
ENDBRANCH 13 14
ENDBRANCH 12 13
ENDBRANCH 11 12
ENDBRANCH 10 11
BRANCH 10 23
ATOM     23  N   ARG C   2      56.059  35.577  36.414  1.00 19.42 LIG-0.35  N 
ATOM     24  C   ASP C   1      55.301  36.270  37.252  1.00 19.51 LIG 0.25  C 
ATOM     25 O    ASP C   1      54.700  35.735  38.199  1.00 19.29 LIG-0.27  OA
ATOM     26 H    ARG C   2      56.611  35.921  35.852  1.00 19.42 LIG 0.16  HD
BRANCH 24 27
ATOM     27  CA  ASP C   1      55.154  37.763  37.014  1.00 19.04 LIG 0.28  C 
BRANCH 27 28
ATOM     28  CB  ASP C   1      56.066  38.505  37.957  1.00 21.34 LIG 0.15  C 
BRANCH 28 29
ATOM     29  CG  ASP C   1      56.057  40.033  37.696  1.00 23.67 LIG 0.17  C 
ATOM     30 OD2  ASP C   1      55.067  40.693  38.118  1.00 27.41 LIG-0.65  OA
ATOM     31 OD1  ASP C   1      57.015  40.572  37.051  1.00 20.87 LIG-0.65  OA
ENDBRANCH 28 29
ENDBRANCH 27 28
BRANCH 27 32
ATOM     32  N   ASP C   1      53.711  38.119  37.272  1.00 18.38 LIG-0.07  N 
ATOM     33 H1   ASP C   1      53.390  37.605  37.924  1.00 18.38 LIG 0.28  HD
ATOM     34 H3   ASP C   1      53.236  37.989  36.531  1.00 18.38 LIG 0.28  HD
ATOM     35 H2   ASP C   1      53.654  38.974  37.514  1.00 18.38 LIG 0.28  HD
ENDBRANCH 27 32
ENDBRANCH 24 27
ENDBRANCH 10 23
ENDBRANCH 8 10
ENDBRANCH 5 6
BRANCH 5 36
ATOM     36  CB  VAL C   3      51.659  35.340  34.490  1.00 17.74 LIG 0.01  C 
ATOM     37  CG1 VAL C   3      52.482  36.610  34.474  1.00 20.72 LIG 0.01  C 
ATOM     38  CG2 VAL C   3      51.167  35.090  33.076  1.00 18.64 LIG 0.01  C 
ENDBRANCH 5 36
ENDBRANCH 1 5
BRANCH 3 39
ATOM     39  CA  TYR C   4      52.159  31.380  32.370  1.00 17.90 LIG 0.18  C 
BRANCH 39 40
ATOM     40  CB  TYR C   4      52.250  32.151  31.089  1.00 20.19 LIG 0.07  C 
BRANCH 40 41
ATOM     41  CG  TYR C   4      51.066  32.044  30.166  1.00 23.00 LIG-0.06  A 
ATOM     42  CD2 TYR C   4      51.000  32.816  29.005  1.00 26.62 LIG 0.01  A 
ATOM     43  CE2 TYR C   4      49.921  32.738  28.148  1.00 28.63 LIG 0.04  A 
ATOM     44  CZ  TYR C   4      48.897  31.892  28.445  1.00 25.42 LIG 0.07  A 
ATOM     45  CE1 TYR C   4      48.946  31.096  29.539  1.00 26.89 LIG 0.04  A 
ATOM     46  CD1 TYR C   4      50.040  31.177  30.412  1.00 24.41 LIG 0.01  A 
BRANCH 44 47
ATOM     47 OH   TYR C   4      47.835  31.812  27.593  1.00 32.39 LIG-0.36  OA
ATOM     48 HH   TYR C   4      47.536  32.583  27.445  1.00 32.39 LIG 0.22  HD
ENDBRANCH 44 47
ENDBRANCH 40 41
ENDBRANCH 39 40
BRANCH 39 49
ATOM     49  C   TYR C   4      53.390  30.452  32.575  1.00 20.63 LIG 0.24  C 
ATOM     50 O    TYR C   4      54.341  30.509  31.846  1.00 19.73 LIG-0.27  OA
ATOM     51  N   ILE C   5      53.383  29.695  33.662  1.00 22.91 LIG-0.35  N 
ATOM     52 H    ILE C   5      52.772  29.722  34.266  1.00 22.91 LIG 0.16  HD
BRANCH 51 53
ATOM     53  CA  ILE C   5      54.444  28.736  33.917  1.00 27.58 LIG 0.18  C 
BRANCH 53 54
ATOM     54  C   ILE C   5      53.846  27.450  34.482  1.00 33.14 LIG 0.24  C 
ATOM     55  N   HIS C   6      54.505  26.310  34.237  1.00 39.14 LIG-0.35  N 
ATOM     56 H    HIS C   6      55.201  26.271  33.732  1.00 39.14 LIG 0.16  HD
ATOM     57 O    ILE C   5      52.751  27.513  35.034  1.00 25.88 LIG-0.27  OA
BRANCH 55 58
ATOM     58  CA  HIS C   6      54.107  24.973  34.810  1.00 56.87 LIG 0.17  C 
BRANCH 58 59
ATOM     59  CB  HIS C   6      55.103  23.863  34.362  1.00 66.39 LIG 0.09  C 
BRANCH 59 60
ATOM     60  CG  HIS C   6      56.553  24.246  34.458  1.00 78.50 LIG 0.06  A 
ATOM     61  CD2 HIS C   6      57.600  23.597  35.027  1.00 82.71 LIG 0.14  A 
ATOM     62 NE2  HIS C   6      58.726  24.352  34.794  1.00 84.02 LIG-0.25  NA
ATOM     63  CE1 HIS C   6      58.391  25.418  34.086  1.00 85.20 LIG 0.23  A 
ATOM     64 ND1  HIS C   6      57.087  25.377  33.863  1.00 88.66 LIG-0.24  NA
ENDBRANCH 59 60
ENDBRANCH 58 59
BRANCH 58 65
ATOM     65  C   HIS C   6      53.965  24.873  36.335  1.00 59.18 LIG 0.22  C 
ATOM     66 O    HIS C   6      52.824  24.835  36.871  1.00 63.69 LIG-0.29  OA
ENDBRANCH 58 65
ENDBRANCH 55 58
ENDBRANCH 53 54
BRANCH 53 67
ATOM     67  CB  ILE C   5      55.479  29.344  34.854  1.00 28.54 LIG 0.01  C 
ATOM     68  CG2 ILE C   5      54.799  29.675  36.180  1.00 32.34 LIG 0.01  C 
BRANCH 67 69
ATOM     69  CG1 ILE C   5      56.640  28.342  34.958  1.00 30.21 LIG 0.00  C 
ATOM     70  CD1 ILE C   5      57.926  28.867  35.547  1.00 32.85 LIG 0.01  C 
ENDBRANCH 67 69
ENDBRANCH 53 67
ENDBRANCH 51 53
ENDBRANCH 39 49
ENDBRANCH 3 39
TORSDOF 26
ENDMDL
MODEL 59
USER: ADFR SOLUTION from run 85
USER: SCORE 21.402295 LL:  -5.687 LR: -17.067 RR:   0.000 FEB:  -9.311
USER: RMSD 7.768793
USER: SEED 84
USER: STATUS no improvement in best in 4 clusters for 5 generations
USER: GENES 28
USER: genes 0 Translation |==|  0.57989 0.51511 0.58934
USER: genes 1 Rotation |==|  0.30189 0.61780 0.06745 0.59887
USER: genes 2 Torsion [N]-C--CA-[N] |==|  0.38882
USER: genes 3 Torsion [C]-CA--N-[C] |==|  0.54380
USER: genes 4 Torsion [N]-C--CA-[N] |==|  0.57867
USER: genes 5 Torsion [C]-CA--CB-[CG] |==|  0.56677
USER: genes 6 Torsion [CA]-CB--CG-[CD] |==|  0.82019
USER: genes 7 Torsion [CB]-CG--CD-[NE] |==|  0.70127
USER: genes 8 Torsion [CG]-CD--NE-[CZ] |==|  0.55673
USER: genes 9 Torsion [C]-CA--N-[C] |==|  0.14778
USER: genes 10 Torsion [N]-C--CA-[N] |==|  0.93674
USER: genes 11 Torsion [C]-CA--CB-[CG] |==|  0.60998
USER: genes 12 Torsion [CA]-CB--CG-[OD2] |==|  0.85196
USER: genes 13 Torsion [C]-CA--N-[H1] |==|  0.53532
USER: genes 14 Torsion [C]-CA--CB-[CG1] |==|  0.02420
USER: genes 15 Torsion [C]-N--CA-[CB] |==|  0.83264
USER: genes 16 Torsion [N]-CA--CB-[CG] |==|  0.60846
USER: genes 17 Torsion [CA]-CB--CG-[CD2] |==|  0.88291
USER: genes 18 Torsion [CE2]-CZ--OH-[HH] |==|  0.29486
USER: genes 19 Torsion [N]-CA--C-[N] |==|  0.34351
USER: genes 20 Torsion [C]-N--CA-[C] |==|  0.78402
USER: genes 21 Torsion [N]-CA--C-[N] |==|  0.92089
USER: genes 22 Torsion [C]-N--CA-[CB] |==|  0.37832
USER: genes 23 Torsion [N]-CA--CB-[CG] |==|  0.84613
USER: genes 24 Torsion [CA]-CB--CG-[CD2] |==|  0.20033
USER: genes 25 Torsion [N]-CA--C-[O] |==|  0.28945
USER: genes 26 Torsion [N]-CA--CB-[CG1] |==|  0.89195
USER: genes 27 Torsion [CA]-CB--CG1-[CD1] |==|  0.27146
ROOT
ATOM      1  C   VAL C   3      55.522  29.715  36.706  1.00 15.94 LIG 0.24  C 
ATOM      2 O    VAL C   3      56.309  29.938  35.807  1.00 17.86 LIG-0.27  OA
ATOM      3  N   TYR C   4      54.244  30.069  36.612  1.00 16.41 LIG-0.35  N 
ATOM      4 H    TYR C   4      53.664  29.945  37.235  1.00 16.41 LIG 0.16  HD
ENDROOT
BRANCH 1 5
ATOM      5  CA  VAL C   3      56.017  29.046  38.004  1.00 16.01 LIG 0.18  C 
BRANCH 5 6
ATOM      6  N   VAL C   3      56.951  27.974  37.602  1.00 15.77 LIG-0.35  N 
ATOM      7 H    VAL C   3      57.238  28.018  36.791  1.00 15.77 LIG 0.16  HD
ATOM      8  C   ARG C   2      57.286  27.038  38.475  1.00 16.54 LIG 0.24  C 
ATOM      9 O    ARG C   2      56.927  27.077  39.672  1.00 14.63 LIG-0.27  OA
BRANCH 8 10
ATOM     10  CA  ARG C   2      58.159  25.906  37.971  1.00 19.03 LIG 0.18  C 
BRANCH 10 11
ATOM     11  CB  ARG C   2      57.874  25.677  36.483  1.00 20.38 LIG 0.04  C 
BRANCH 11 12
ATOM     12  CG  ARG C   2      58.195  24.309  35.982  1.00 20.75 LIG 0.02  C 
BRANCH 12 13
ATOM     13  CD  ARG C   2      59.633  24.046  36.063  1.00 22.55 LIG 0.14  C 
BRANCH 13 14
ATOM     14  NE  ARG C   2      60.265  24.045  34.772  1.00 20.36 LIG-0.23  N 
ATOM     15  CZ  ARG C   2      61.423  23.475  34.509  1.00 23.11 LIG 0.67  C 
ATOM     16  NH1 ARG C   2      62.013  22.753  35.395  1.00 23.20 LIG-0.23  N 
ATOM     17  NH2 ARG C   2      61.932  23.573  33.275  1.00 25.55 LIG-0.23  N 
ATOM     18 1HH1 ARG C   2      61.652  22.638  36.167  1.00 23.20 LIG 0.17  HD
ATOM     19 2HH1 ARG C   2      62.769  22.384  35.214  1.00 23.20 LIG 0.17  HD
ATOM     20 2HH2 ARG C   2      62.687  23.205  33.090  1.00 25.55 LIG 0.17  HD
ATOM     21 1HH2 ARG C   2      61.503  24.004  32.666  1.00 25.55 LIG 0.17  HD
ATOM     22 HE   ARG C   2      59.860  24.444  34.128  1.00 20.36 LIG 0.18  HD
ENDBRANCH 13 14
ENDBRANCH 12 13
ENDBRANCH 11 12
ENDBRANCH 10 11
BRANCH 10 23
ATOM     23  N   ARG C   2      57.918  24.673  38.738  1.00 19.42 LIG-0.35  N 
ATOM     24  C   ASP C   1      56.683  24.207  38.867  1.00 19.51 LIG 0.25  C 
ATOM     25 O    ASP C   1      55.740  24.630  38.179  1.00 19.29 LIG-0.27  OA
ATOM     26 H    ARG C   2      58.619  24.306  39.073  1.00 19.42 LIG 0.16  HD
BRANCH 24 27
ATOM     27  CA  ASP C   1      56.430  23.140  39.917  1.00 19.04 LIG 0.28  C 
BRANCH 27 28
ATOM     28  CB  ASP C   1      55.893  23.792  41.165  1.00 21.34 LIG 0.15  C 
BRANCH 28 29
ATOM     29  CG  ASP C   1      56.480  23.160  42.453  1.00 23.67 LIG 0.17  C 
ATOM     30 OD2  ASP C   1      56.386  21.908  42.585  1.00 27.41 LIG-0.65  OA
ATOM     31 OD1  ASP C   1      57.007  23.905  43.343  1.00 20.87 LIG-0.65  OA
ENDBRANCH 28 29
ENDBRANCH 27 28
BRANCH 27 32
ATOM     32  N   ASP C   1      57.747  22.458  40.193  1.00 18.38 LIG-0.07  N 
ATOM     33 H1   ASP C   1      57.604  21.714  40.660  1.00 18.38 LIG 0.28  HD
ATOM     34 H3   ASP C   1      58.272  23.005  40.659  1.00 18.38 LIG 0.28  HD
ATOM     35 H2   ASP C   1      58.143  22.253  39.423  1.00 18.38 LIG 0.28  HD
ENDBRANCH 27 32
ENDBRANCH 24 27
ENDBRANCH 10 23
ENDBRANCH 8 10
ENDBRANCH 5 6
BRANCH 5 36
ATOM     36  CB  VAL C   3      56.679  30.115  38.845  1.00 17.74 LIG 0.01  C 
ATOM     37  CG1 VAL C   3      56.462  31.498  38.267  1.00 20.72 LIG 0.01  C 
ATOM     38  CG2 VAL C   3      56.132  30.115  40.262  1.00 18.64 LIG 0.01  C 
ENDBRANCH 5 36
ENDBRANCH 1 5
BRANCH 3 39
ATOM     39  CA  TYR C   4      53.714  30.710  35.415  1.00 17.90 LIG 0.18  C 
BRANCH 39 40
ATOM     40  CB  TYR C   4      54.416  32.006  35.150  1.00 20.19 LIG 0.07  C 
BRANCH 40 41
ATOM     41  CG  TYR C   4      53.554  33.137  34.655  1.00 23.00 LIG-0.06  A 
ATOM     42  CD2 TYR C   4      52.568  32.909  33.694  1.00 26.62 LIG 0.01  A 
ATOM     43  CE2 TYR C   4      51.770  33.931  33.222  1.00 28.63 LIG 0.04  A 
ATOM     44  CZ  TYR C   4      51.953  35.191  33.704  1.00 25.42 LIG 0.07  A 
ATOM     45  CE1 TYR C   4      52.868  35.443  34.668  1.00 26.89 LIG 0.04  A 
ATOM     46  CD1 TYR C   4      53.682  34.405  35.145  1.00 24.41 LIG 0.01  A 
BRANCH 44 47
ATOM     47 OH   TYR C   4      51.158  36.199  33.240  1.00 32.39 LIG-0.36  OA
ATOM     48 HH   TYR C   4      50.599  36.409  33.831  1.00 32.39 LIG 0.22  HD
ENDBRANCH 44 47
ENDBRANCH 40 41
ENDBRANCH 39 40
BRANCH 39 49
ATOM     49  C   TYR C   4      53.726  29.780  34.168  1.00 20.63 LIG 0.24  C 
ATOM     50 O    TYR C   4      54.715  29.181  33.848  1.00 19.73 LIG-0.27  OA
ATOM     51  N   ILE C   5      52.563  29.590  33.562  1.00 22.91 LIG-0.35  N 
ATOM     52 H    ILE C   5      51.815  29.910  33.841  1.00 22.91 LIG 0.16  HD
BRANCH 51 53
ATOM     53  CA  ILE C   5      52.470  28.803  32.346  1.00 27.58 LIG 0.18  C 
BRANCH 53 54
ATOM     54  C   ILE C   5      52.947  29.636  31.159  1.00 33.14 LIG 0.24  C 
ATOM     55  N   HIS C   6      52.796  30.965  31.245  1.00 39.14 LIG-0.35  N 
ATOM     56 H    HIS C   6      52.394  31.348  31.901  1.00 39.14 LIG 0.16  HD
ATOM     57 O    ILE C   5      53.341  29.047  30.156  1.00 25.88 LIG-0.27  OA
BRANCH 55 58
ATOM     58  CA  HIS C   6      53.310  31.934  30.210  1.00 56.87 LIG 0.17  C 
BRANCH 58 59
ATOM     59  CB  HIS C   6      52.242  33.023  29.897  1.00 66.39 LIG 0.09  C 
BRANCH 59 60
ATOM     60  CG  HIS C   6      50.907  32.487  29.465  1.00 78.50 LIG 0.06  A 
ATOM     61  CD2 HIS C   6      49.939  31.856  30.177  1.00 82.71 LIG 0.14  A 
ATOM     62 NE2  HIS C   6      48.890  31.615  29.319  1.00 84.02 LIG-0.25  NA
ATOM     63  CE1 HIS C   6      49.190  32.100  28.126  1.00 85.20 LIG 0.23  A 
ATOM     64 ND1  HIS C   6      50.399  32.637  28.186  1.00 88.66 LIG-0.24  NA
ENDBRANCH 59 60
ENDBRANCH 58 59
BRANCH 58 65
ATOM     65  C   HIS C   6      54.629  32.658  30.514  1.00 59.18 LIG 0.22  C 
ATOM     66 O    HIS C   6      55.697  32.310  29.943  1.00 63.69 LIG-0.29  OA
ENDBRANCH 58 65
ENDBRANCH 55 58
ENDBRANCH 53 54
BRANCH 53 67
ATOM     67  CB  ILE C   5      51.042  28.308  32.158  1.00 28.54 LIG 0.01  C 
ATOM     68  CG2 ILE C   5      51.052  27.170  31.139  1.00 32.34 LIG 0.01  C 
BRANCH 67 69
ATOM     69  CG1 ILE C   5      50.509  27.922  33.548  1.00 30.21 LIG 0.00  C 
ATOM     70  CD1 ILE C   5      49.663  28.954  34.250  1.00 32.85 LIG 0.01  C 
ENDBRANCH 67 69
ENDBRANCH 53 67
ENDBRANCH 51 53
ENDBRANCH 39 49
ENDBRANCH 3 39
TORSDOF 26
ENDMDL
MODEL 60
USER: ADFR SOLUTION from run 7
USER: SCORE 19.890479 LL:  -5.634 LR: -17.042 RR:   0.000 FEB:  -9.287
USER: RMSD 9.902882
USER: SEED 215705
USER: STATUS no improvement in best in 17 clusters for 5 generations
USER: GENES 28
USER: genes 0 Translation |==|  0.52845 0.55570 0.54354
USER: genes 1 Rotation |==|  0.61405 0.10623 0.29695 0.70176
USER: genes 2 Torsion [N]-C--CA-[N] |==|  0.48653
USER: genes 3 Torsion [C]-CA--N-[C] |==|  0.18823
USER: genes 4 Torsion [N]-C--CA-[N] |==|  0.25142
USER: genes 5 Torsion [C]-CA--CB-[CG] |==|  0.16071
USER: genes 6 Torsion [CA]-CB--CG-[CD] |==|  0.70111
USER: genes 7 Torsion [CB]-CG--CD-[NE] |==|  0.94618
USER: genes 8 Torsion [CG]-CD--NE-[CZ] |==|  0.36875
USER: genes 9 Torsion [C]-CA--N-[C] |==|  0.67860
USER: genes 10 Torsion [N]-C--CA-[N] |==|  0.44432
USER: genes 11 Torsion [C]-CA--CB-[CG] |==|  0.56263
USER: genes 12 Torsion [CA]-CB--CG-[OD2] |==|  0.93960
USER: genes 13 Torsion [C]-CA--N-[H1] |==|  0.48041
USER: genes 14 Torsion [C]-CA--CB-[CG1] |==|  0.98311
USER: genes 15 Torsion [C]-N--CA-[CB] |==|  0.15606
USER: genes 16 Torsion [N]-CA--CB-[CG] |==|  0.19080
USER: genes 17 Torsion [CA]-CB--CG-[CD2] |==|  0.28714
USER: genes 18 Torsion [CE2]-CZ--OH-[HH] |==|  0.54243
USER: genes 19 Torsion [N]-CA--C-[N] |==|  0.82440
USER: genes 20 Torsion [C]-N--CA-[C] |==|  0.48889
USER: genes 21 Torsion [N]-CA--C-[N] |==|  0.45981
USER: genes 22 Torsion [C]-N--CA-[CB] |==|  0.20350
USER: genes 23 Torsion [N]-CA--CB-[CG] |==|  0.67754
USER: genes 24 Torsion [CA]-CB--CG-[CD2] |==|  0.57726
USER: genes 25 Torsion [N]-CA--C-[O] |==|  0.47987
USER: genes 26 Torsion [N]-CA--CB-[CG1] |==|  0.55237
USER: genes 27 Torsion [CA]-CB--CG1-[CD1] |==|  0.30214
ROOT
ATOM      1  C   VAL C   3      54.635  30.750  35.504  1.00 15.94 LIG 0.24  C 
ATOM      2 O    VAL C   3      55.232  31.798  35.352  1.00 17.86 LIG-0.27  OA
ATOM      3  N   TYR C   4      55.278  29.620  35.780  1.00 16.41 LIG-0.35  N 
ATOM      4 H    TYR C   4      54.891  28.858  35.875  1.00 16.41 LIG 0.16  HD
ENDROOT
BRANCH 1 5
ATOM      5  CA  VAL C   3      53.103  30.714  35.333  1.00 16.01 LIG 0.18  C 
BRANCH 5 6
ATOM      6  N   VAL C   3      52.660  32.113  35.154  1.00 15.77 LIG-0.35  N 
ATOM      7 H    VAL C   3      52.190  32.437  35.798  1.00 15.77 LIG 0.16  HD
ATOM      8  C   ARG C   2      52.997  32.767  34.055  1.00 16.54 LIG 0.24  C 
ATOM      9 O    ARG C   2      53.770  32.289  33.197  1.00 14.63 LIG-0.27  OA
BRANCH 8 10
ATOM     10  CA  ARG C   2      52.422  34.159  33.880  1.00 19.03 LIG 0.18  C 
BRANCH 10 11
ATOM     11  CB  ARG C   2      52.202  34.427  32.387  1.00 20.38 LIG 0.04  C 
BRANCH 11 12
ATOM     12  CG  ARG C   2      51.306  33.455  31.696  1.00 20.75 LIG 0.02  C 
BRANCH 12 13
ATOM     13  CD  ARG C   2      52.071  32.573  30.813  1.00 22.55 LIG 0.14  C 
BRANCH 13 14
ATOM     14  NE  ARG C   2      53.362  33.112  30.481  1.00 20.36 LIG-0.23  N 
ATOM     15  CZ  ARG C   2      54.489  32.434  30.534  1.00 23.11 LIG 0.67  C 
ATOM     16  NH1 ARG C   2      54.483  31.170  30.772  1.00 23.20 LIG-0.23  N 
ATOM     17  NH2 ARG C   2      55.638  33.055  30.238  1.00 25.55 LIG-0.23  N 
ATOM     18 1HH1 ARG C   2      53.737  30.760  30.898  1.00 23.20 LIG 0.17  HD
ATOM     19 2HH1 ARG C   2      55.224  30.734  30.804  1.00 23.20 LIG 0.17  HD
ATOM     20 2HH2 ARG C   2      56.381  32.623  30.268  1.00 25.55 LIG 0.17  HD
ATOM     21 1HH2 ARG C   2      55.633  33.886  30.016  1.00 25.55 LIG 0.17  HD
ATOM     22 HE   ARG C   2      53.400  33.934  30.231  1.00 20.36 LIG 0.18  HD
ENDBRANCH 13 14
ENDBRANCH 12 13
ENDBRANCH 11 12
ENDBRANCH 10 11
BRANCH 10 23
ATOM     23  N   ARG C   2      53.316  35.176  34.459  1.00 19.42 LIG-0.35  N 
ATOM     24  C   ASP C   1      52.908  35.902  35.490  1.00 19.51 LIG 0.25  C 
ATOM     25 O    ASP C   1      51.895  35.611  36.147  1.00 19.29 LIG-0.27  OA
ATOM     26 H    ARG C   2      54.085  35.247  34.081  1.00 19.42 LIG 0.16  HD
BRANCH 24 27
ATOM     27  CA  ASP C   1      53.706  37.143  35.849  1.00 19.04 LIG 0.28  C 
BRANCH 27 28
ATOM     28  CB  ASP C   1      54.927  36.736  36.633  1.00 21.34 LIG 0.15  C 
BRANCH 28 29
ATOM     29  CG  ASP C   1      55.480  37.898  37.498  1.00 23.67 LIG 0.17  C 
ATOM     30 OD2  ASP C   1      55.173  39.074  37.162  1.00 27.41 LIG-0.65  OA
ATOM     31 OD1  ASP C   1      56.238  37.645  38.491  1.00 20.87 LIG-0.65  OA
ENDBRANCH 28 29
ENDBRANCH 27 28
BRANCH 27 32
ATOM     32  N   ASP C   1      52.810  38.031  36.676  1.00 18.38 LIG-0.07  N 
ATOM     33 H1   ASP C   1      53.280  38.720  36.988  1.00 18.38 LIG 0.28  HD
ATOM     34 H3   ASP C   1      52.477  37.565  37.357  1.00 18.38 LIG 0.28  HD
ATOM     35 H2   ASP C   1      52.142  38.333  36.171  1.00 18.38 LIG 0.28  HD
ENDBRANCH 27 32
ENDBRANCH 24 27
ENDBRANCH 10 23
ENDBRANCH 8 10
ENDBRANCH 5 6
BRANCH 5 36
ATOM     36  CB  VAL C   3      52.798  29.844  34.133  1.00 17.74 LIG 0.01  C 
ATOM     37  CG1 VAL C   3      54.060  29.421  33.412  1.00 20.72 LIG 0.01  C 
ATOM     38  CG2 VAL C   3      52.056  28.584  34.544  1.00 18.64 LIG 0.01  C 
ENDBRANCH 5 36
ENDBRANCH 1 5
BRANCH 3 39
ATOM     39  CA  TYR C   4      56.726  29.586  35.948  1.00 17.90 LIG 0.18  C 
BRANCH 39 40
ATOM     40  CB  TYR C   4      57.162  30.546  37.012  1.00 20.19 LIG 0.07  C 
BRANCH 40 41
ATOM     41  CG  TYR C   4      56.765  30.197  38.422  1.00 23.00 LIG-0.06  A 
ATOM     42  CD2 TYR C   4      57.699  29.663  39.310  1.00 26.62 LIG 0.01  A 
ATOM     43  CE2 TYR C   4      57.355  29.330  40.605  1.00 28.63 LIG 0.04  A 
ATOM     44  CZ  TYR C   4      56.074  29.524  41.021  1.00 25.42 LIG 0.07  A 
ATOM     45  CE1 TYR C   4      55.151  30.080  40.202  1.00 26.89 LIG 0.04  A 
ATOM     46  CD1 TYR C   4      55.499  30.415  38.886  1.00 24.41 LIG 0.01  A 
BRANCH 44 47
ATOM     47 OH   TYR C   4      55.739  29.200  42.304  1.00 32.39 LIG-0.36  OA
ATOM     48 HH   TYR C   4      54.902  29.166  42.374  1.00 32.39 LIG 0.22  HD
ENDBRANCH 44 47
ENDBRANCH 40 41
ENDBRANCH 39 40
BRANCH 39 49
ATOM     49  C   TYR C   4      57.277  28.153  36.202  1.00 20.63 LIG 0.24  C 
ATOM     50 O    TYR C   4      58.112  27.671  35.487  1.00 19.73 LIG-0.27  OA
ATOM     51  N   ILE C   5      56.871  27.553  37.311  1.00 22.91 LIG-0.35  N 
ATOM     52 H    ILE C   5      56.368  27.921  37.904  1.00 22.91 LIG 0.16  HD
BRANCH 51 53
ATOM     53  CA  ILE C   5      57.262  26.187  37.612  1.00 27.58 LIG 0.18  C 
BRANCH 53 54
ATOM     54  C   ILE C   5      56.734  25.796  38.991  1.00 33.14 LIG 0.24  C 
ATOM     55  N   HIS C   6      56.742  24.493  39.302  1.00 39.14 LIG-0.35  N 
ATOM     56 H    HIS C   6      56.970  23.881  38.743  1.00 39.14 LIG 0.16  HD
ATOM     57 O    ILE C   5      56.238  26.673  39.693  1.00 25.88 LIG-0.27  OA
BRANCH 55 58
ATOM     58  CA  HIS C   6      56.356  23.954  40.656  1.00 56.87 LIG 0.17  C 
BRANCH 58 59
ATOM     59  CB  HIS C   6      54.816  24.038  40.864  1.00 66.39 LIG 0.09  C 
BRANCH 59 60
ATOM     60  CG  HIS C   6      54.382  24.950  41.977  1.00 78.50 LIG 0.06  A 
ATOM     61  CD2 HIS C   6      53.276  24.916  42.762  1.00 82.71 LIG 0.14  A 
ATOM     62 NE2  HIS C   6      53.381  25.952  43.662  1.00 84.02 LIG-0.25  NA
ATOM     63  CE1 HIS C   6      54.522  26.589  43.455  1.00 85.20 LIG 0.23  A 
ATOM     64 ND1  HIS C   6      55.149  26.001  42.447  1.00 88.66 LIG-0.24  NA
ENDBRANCH 59 60
ENDBRANCH 58 59
BRANCH 58 65
ATOM     65  C   HIS C   6      56.787  22.519  40.994  1.00 59.18 LIG 0.22  C 
ATOM     66 O    HIS C   6      56.617  22.056  42.153  1.00 63.69 LIG-0.29  OA
ENDBRANCH 58 65
ENDBRANCH 55 58
ENDBRANCH 53 54
BRANCH 53 67
ATOM     67  CB  ILE C   5      58.775  26.048  37.520  1.00 28.54 LIG 0.01  C 
ATOM     68  CG2 ILE C   5      59.400  26.710  38.747  1.00 32.34 LIG 0.01  C 
BRANCH 67 69
ATOM     69  CG1 ILE C   5      59.085  24.549  37.370  1.00 30.21 LIG 0.00  C 
ATOM     70  CD1 ILE C   5      59.578  24.099  36.018  1.00 32.85 LIG 0.01  C 
ENDBRANCH 67 69
ENDBRANCH 53 67
ENDBRANCH 51 53
ENDBRANCH 39 49
ENDBRANCH 3 39
TORSDOF 26
ENDMDL
MODEL 61
USER: ADFR SOLUTION from run 7
USER: SCORE 19.737398 LL:  -5.713 LR: -17.045 RR:   0.000 FEB:  -9.289
USER: RMSD 10.210462
USER: SEED 215705
USER: STATUS no improvement in best in 17 clusters for 5 generations
USER: GENES 28
USER: genes 0 Translation |==|  0.49423 0.54223 0.53389
USER: genes 1 Rotation |==|  0.55438 0.10079 0.26133 0.67524
USER: genes 2 Torsion [N]-C--CA-[N] |==|  0.53620
USER: genes 3 Torsion [C]-CA--N-[C] |==|  0.17564
USER: genes 4 Torsion [N]-C--CA-[N] |==|  0.60705
USER: genes 5 Torsion [C]-CA--CB-[CG] |==|  0.31973
USER: genes 6 Torsion [CA]-CB--CG-[CD] |==|  0.89742
USER: genes 7 Torsion [CB]-CG--CD-[NE] |==|  0.45265
USER: genes 8 Torsion [CG]-CD--NE-[CZ] |==|  0.19991
USER: genes 9 Torsion [C]-CA--N-[C] |==|  0.17018
USER: genes 10 Torsion [N]-C--CA-[N] |==|  0.23719
USER: genes 11 Torsion [C]-CA--CB-[CG] |==|  0.69017
USER: genes 12 Torsion [CA]-CB--CG-[OD2] |==|  0.82284
USER: genes 13 Torsion [C]-CA--N-[H1] |==|  0.11604
USER: genes 14 Torsion [C]-CA--CB-[CG1] |==|  0.24885
USER: genes 15 Torsion [C]-N--CA-[CB] |==|  0.12222
USER: genes 16 Torsion [N]-CA--CB-[CG] |==|  0.20761
USER: genes 17 Torsion [CA]-CB--CG-[CD2] |==|  0.29275
USER: genes 18 Torsion [CE2]-CZ--OH-[HH] |==|  0.52608
USER: genes 19 Torsion [N]-CA--C-[N] |==|  0.52888
USER: genes 20 Torsion [C]-N--CA-[C] |==|  0.81004
USER: genes 21 Torsion [N]-CA--C-[N] |==|  0.49071
USER: genes 22 Torsion [C]-N--CA-[CB] |==|  0.18119
USER: genes 23 Torsion [N]-CA--CB-[CG] |==|  0.62057
USER: genes 24 Torsion [CA]-CB--CG-[CD2] |==|  0.57996
USER: genes 25 Torsion [N]-CA--C-[O] |==|  0.46072
USER: genes 26 Torsion [N]-CA--CB-[CG1] |==|  0.55990
USER: genes 27 Torsion [CA]-CB--CG1-[CD1] |==|  0.43717
ROOT
ATOM      1  C   VAL C   3      54.044  30.407  35.251  1.00 15.94 LIG 0.24  C 
ATOM      2 O    VAL C   3      54.915  31.242  35.101  1.00 17.86 LIG-0.27  OA
ATOM      3  N   TYR C   4      54.340  29.130  35.472  1.00 16.41 LIG-0.35  N 
ATOM      4 H    TYR C   4      53.751  28.510  35.563  1.00 16.41 LIG 0.16  HD
ENDROOT
BRANCH 1 5
ATOM      5  CA  VAL C   3      52.563  30.822  35.142  1.00 16.01 LIG 0.18  C 
BRANCH 5 6
ATOM      6  N   VAL C   3      52.544  32.193  34.589  1.00 15.77 LIG-0.35  N 
ATOM      7 H    VAL C   3      52.215  32.796  35.108  1.00 15.77 LIG 0.16  HD
ATOM      8  C   ARG C   2      53.015  32.411  33.373  1.00 16.54 LIG 0.24  C 
ATOM      9 O    ARG C   2      53.579  31.522  32.700  1.00 14.63 LIG-0.27  OA
BRANCH 8 10
ATOM     10  CA  ARG C   2      52.867  33.815  32.820  1.00 19.03 LIG 0.18  C 
BRANCH 10 11
ATOM     11  CB  ARG C   2      51.775  34.551  33.604  1.00 20.38 LIG 0.04  C 
BRANCH 11 12
ATOM     12  CG  ARG C   2      52.248  35.722  34.398  1.00 20.75 LIG 0.02  C 
BRANCH 12 13
ATOM     13  CD  ARG C   2      53.568  35.464  34.976  1.00 22.55 LIG 0.14  C 
BRANCH 13 14
ATOM     14  NE  ARG C   2      54.225  36.668  35.407  1.00 20.36 LIG-0.23  N 
ATOM     15  CZ  ARG C   2      53.874  37.374  36.461  1.00 23.11 LIG 0.67  C 
ATOM     16  NH1 ARG C   2      52.969  36.940  37.267  1.00 23.20 LIG-0.23  N 
ATOM     17  NH2 ARG C   2      54.538  38.501  36.742  1.00 25.55 LIG-0.23  N 
ATOM     18 1HH1 ARG C   2      52.589  36.183  37.120  1.00 23.20 LIG 0.17  HD
ATOM     19 2HH1 ARG C   2      52.746  37.407  37.954  1.00 23.20 LIG 0.17  HD
ATOM     20 2HH2 ARG C   2      54.318  38.971  37.428  1.00 25.55 LIG 0.17  HD
ATOM     21 1HH2 ARG C   2      55.186  38.756  36.236  1.00 25.55 LIG 0.17  HD
ATOM     22 HE   ARG C   2      54.893  36.947  34.943  1.00 20.36 LIG 0.18  HD
ENDBRANCH 13 14
ENDBRANCH 12 13
ENDBRANCH 11 12
ENDBRANCH 10 11
BRANCH 10 23
ATOM     23  N   ARG C   2      52.538  33.785  31.385  1.00 19.42 LIG-0.35  N 
ATOM     24  C   ASP C   1      51.418  33.204  30.977  1.00 19.51 LIG 0.25  C 
ATOM     25 O    ASP C   1      50.512  32.886  31.764  1.00 19.29 LIG-0.27  OA
ATOM     26 H    ARG C   2      53.113  34.161  30.868  1.00 19.42 LIG 0.16  HD
BRANCH 24 27
ATOM     27  CA  ASP C   1      51.270  32.903  29.496  1.00 19.04 LIG 0.28  C 
BRANCH 27 28
ATOM     28  CB  ASP C   1      49.805  32.854  29.147  1.00 21.34 LIG 0.15  C 
BRANCH 28 29
ATOM     29  CG  ASP C   1      49.339  31.422  28.778  1.00 23.67 LIG 0.17  C 
ATOM     30 OD2  ASP C   1      49.845  30.889  27.752  1.00 27.41 LIG-0.65  OA
ATOM     31 OD1  ASP C   1      48.455  30.839  29.487  1.00 20.87 LIG-0.65  OA
ENDBRANCH 28 29
ENDBRANCH 27 28
BRANCH 27 32
ATOM     32  N   ASP C   1      51.926  31.569  29.240  1.00 18.38 LIG-0.07  N 
ATOM     33 H1   ASP C   1      51.719  31.005  29.898  1.00 18.38 LIG 0.28  HD
ATOM     34 H3   ASP C   1      52.809  31.674  29.206  1.00 18.38 LIG 0.28  HD
ATOM     35 H2   ASP C   1      51.638  31.239  28.466  1.00 18.38 LIG 0.28  HD
ENDBRANCH 27 32
ENDBRANCH 24 27
ENDBRANCH 10 23
ENDBRANCH 8 10
ENDBRANCH 5 6
BRANCH 5 36
ATOM     36  CB  VAL C   3      51.872  29.818  34.246  1.00 17.74 LIG 0.01  C 
ATOM     37  CG1 VAL C   3      51.321  28.649  35.035  1.00 20.72 LIG 0.01  C 
ATOM     38  CG2 VAL C   3      50.717  30.456  33.497  1.00 18.64 LIG 0.01  C 
ENDBRANCH 5 36
ENDBRANCH 1 5
BRANCH 3 39
ATOM     39  CA  TYR C   4      55.719  28.671  35.579  1.00 17.90 LIG 0.18  C 
BRANCH 39 40
ATOM     40  CB  TYR C   4      56.527  29.606  36.426  1.00 20.19 LIG 0.07  C 
BRANCH 40 41
ATOM     41  CG  TYR C   4      56.285  29.531  37.910  1.00 23.00 LIG-0.06  A 
ATOM     42  CD2 TYR C   4      57.217  28.922  38.751  1.00 26.62 LIG 0.01  A 
ATOM     43  CE2 TYR C   4      57.012  28.837  40.113  1.00 28.63 LIG 0.04  A 
ATOM     44  CZ  TYR C   4      55.872  29.356  40.646  1.00 25.42 LIG 0.07  A 
ATOM     45  CE1 TYR C   4      54.966  29.994  39.868  1.00 26.89 LIG 0.04  A 
ATOM     46  CD1 TYR C   4      55.173  30.077  38.483  1.00 24.41 LIG 0.01  A 
BRANCH 44 47
ATOM     47 OH   TYR C   4      55.676  29.277  41.994  1.00 32.39 LIG-0.36  OA
ATOM     48 HH   TYR C   4      54.890  29.513  42.177  1.00 32.39 LIG 0.22  HD
ENDBRANCH 44 47
ENDBRANCH 40 41
ENDBRANCH 39 40
BRANCH 39 49
ATOM     49  C   TYR C   4      55.837  27.199  36.069  1.00 20.63 LIG 0.24  C 
ATOM     50 O    TYR C   4      54.895  26.456  36.041  1.00 19.73 LIG-0.27  OA
ATOM     51  N   ILE C   5      57.051  26.781  36.394  1.00 22.91 LIG-0.35  N 
ATOM     52 H    ILE C   5      57.765  27.254  36.309  1.00 22.91 LIG 0.16  HD
BRANCH 51 53
ATOM     53  CA  ILE C   5      57.268  25.451  36.935  1.00 27.58 LIG 0.18  C 
BRANCH 53 54
ATOM     54  C   ILE C   5      56.657  25.361  38.331  1.00 33.14 LIG 0.24  C 
ATOM     55  N   HIS C   6      56.710  24.172  38.946  1.00 39.14 LIG-0.35  N 
ATOM     56 H    HIS C   6      57.013  23.462  38.566  1.00 39.14 LIG 0.16  HD
ATOM     57 O    ILE C   5      56.062  26.341  38.769  1.00 25.88 LIG-0.27  OA
BRANCH 55 58
ATOM     58  CA  HIS C   6      56.250  23.941  40.363  1.00 56.87 LIG 0.17  C 
BRANCH 58 59
ATOM     59  CB  HIS C   6      54.714  24.163  40.487  1.00 66.39 LIG 0.09  C 
BRANCH 59 60
ATOM     60  CG  HIS C   6      54.288  24.943  41.699  1.00 78.50 LIG 0.06  A 
ATOM     61  CD2 HIS C   6      53.134  24.903  42.410  1.00 82.71 LIG 0.14  A 
ATOM     62 NE2  HIS C   6      53.269  25.783  43.460  1.00 84.02 LIG-0.25  NA
ATOM     63  CE1 HIS C   6      54.472  26.330  43.411  1.00 85.20 LIG 0.23  A 
ATOM     64 ND1  HIS C   6      55.112  25.836  42.362  1.00 88.66 LIG-0.24  NA
ENDBRANCH 59 60
ENDBRANCH 58 59
BRANCH 58 65
ATOM     65  C   HIS C   6      56.568  22.579  40.996  1.00 59.18 LIG 0.22  C 
ATOM     66 O    HIS C   6      56.456  22.409  42.240  1.00 63.69 LIG-0.29  OA
ENDBRANCH 58 65
ENDBRANCH 55 58
ENDBRANCH 53 54
BRANCH 53 67
ATOM     67  CB  ILE C   5      58.757  25.131  36.942  1.00 28.54 LIG 0.01  C 
ATOM     68  CG2 ILE C   5      59.407  25.863  38.113  1.00 32.34 LIG 0.01  C 
BRANCH 67 69
ATOM     69  CG1 ILE C   5      58.891  23.599  36.986  1.00 30.21 LIG 0.00  C 
ATOM     70  CD1 ILE C   5      60.191  23.026  36.481  1.00 32.85 LIG 0.01  C 
ENDBRANCH 67 69
ENDBRANCH 53 67
ENDBRANCH 51 53
ENDBRANCH 39 49
ENDBRANCH 3 39
TORSDOF 26
ENDMDL
MODEL 62
USER: ADFR SOLUTION from run 36
USER: SCORE 22.359295 LL:  -6.280 LR: -17.031 RR:   0.000 FEB:  -9.275
USER: RMSD 9.021902
USER: SEED 35
USER: STATUS no improvement in best in 3 clusters for 5 generations
USER: GENES 28
USER: genes 0 Translation |==|  0.58688 0.48612 0.51452
USER: genes 1 Rotation |==|  0.40583 0.05429 0.51149 0.70577
USER: genes 2 Torsion [N]-C--CA-[N] |==|  0.34166
USER: genes 3 Torsion [C]-CA--N-[C] |==|  0.65742
USER: genes 4 Torsion [N]-C--CA-[N] |==|  0.13412
USER: genes 5 Torsion [C]-CA--CB-[CG] |==|  0.36663
USER: genes 6 Torsion [CA]-CB--CG-[CD] |==|  0.21855
USER: genes 7 Torsion [CB]-CG--CD-[NE] |==|  0.53399
USER: genes 8 Torsion [CG]-CD--NE-[CZ] |==|  0.70056
USER: genes 9 Torsion [C]-CA--N-[C] |==|  0.15026
USER: genes 10 Torsion [N]-C--CA-[N] |==|  0.86301
USER: genes 11 Torsion [C]-CA--CB-[CG] |==|  0.80812
USER: genes 12 Torsion [CA]-CB--CG-[OD2] |==|  0.38091
USER: genes 13 Torsion [C]-CA--N-[H1] |==|  0.47058
USER: genes 14 Torsion [C]-CA--CB-[CG1] |==|  0.23810
USER: genes 15 Torsion [C]-N--CA-[CB] |==|  0.20622
USER: genes 16 Torsion [N]-CA--CB-[CG] |==|  0.11528
USER: genes 17 Torsion [CA]-CB--CG-[CD2] |==|  0.13086
USER: genes 18 Torsion [CE2]-CZ--OH-[HH] |==|  0.99158
USER: genes 19 Torsion [N]-CA--C-[N] |==|  0.95619
USER: genes 20 Torsion [C]-N--CA-[C] |==|  0.78543
USER: genes 21 Torsion [N]-CA--C-[N] |==|  0.43427
USER: genes 22 Torsion [C]-N--CA-[CB] |==|  0.19894
USER: genes 23 Torsion [N]-CA--CB-[CG] |==|  0.59919
USER: genes 24 Torsion [CA]-CB--CG-[CD2] |==|  0.16857
USER: genes 25 Torsion [N]-CA--C-[O] |==|  0.11003
USER: genes 26 Torsion [N]-CA--CB-[CG1] |==|  0.87966
USER: genes 27 Torsion [CA]-CB--CG1-[CD1] |==|  0.68250
ROOT
ATOM      1  C   VAL C   3      55.643  28.976  34.742  1.00 15.94 LIG 0.24  C 
ATOM      2 O    VAL C   3      56.422  28.997  33.809  1.00 17.86 LIG-0.27  OA
ATOM      3  N   TYR C   4      56.035  28.635  35.965  1.00 16.41 LIG-0.35  N 
ATOM      4 H    TYR C   4      55.509  28.590  36.644  1.00 16.41 LIG 0.16  HD
ENDROOT
BRANCH 1 5
ATOM      5  CA  VAL C   3      54.157  29.311  34.502  1.00 16.01 LIG 0.18  C 
BRANCH 5 6
ATOM      6  N   VAL C   3      54.113  30.677  33.940  1.00 15.77 LIG-0.35  N 
ATOM      7 H    VAL C   3      54.569  30.796  33.220  1.00 15.77 LIG 0.16  HD
ATOM      8  C   ARG C   2      53.401  31.611  34.550  1.00 16.54 LIG 0.24  C 
ATOM      9 O    ARG C   2      52.670  31.364  35.533  1.00 14.63 LIG-0.27  OA
BRANCH 8 10
ATOM     10  CA  ARG C   2      53.484  33.016  33.989  1.00 19.03 LIG 0.18  C 
BRANCH 10 11
ATOM     11  CB  ARG C   2      52.420  33.890  34.662  1.00 20.38 LIG 0.04  C 
BRANCH 11 12
ATOM     12  CG  ARG C   2      52.910  35.206  35.165  1.00 20.75 LIG 0.02  C 
BRANCH 12 13
ATOM     13  CD  ARG C   2      53.039  36.170  34.071  1.00 22.55 LIG 0.14  C 
BRANCH 13 14
ATOM     14  NE  ARG C   2      53.765  37.348  34.458  1.00 20.36 LIG-0.23  N 
ATOM     15  CZ  ARG C   2      53.221  38.532  34.645  1.00 23.11 LIG 0.67  C 
ATOM     16  NH1 ARG C   2      51.943  38.678  34.614  1.00 23.20 LIG-0.23  N 
ATOM     17  NH2 ARG C   2      54.006  39.567  34.968  1.00 25.55 LIG-0.23  N 
ATOM     18 1HH1 ARG C   2      51.436  37.998  34.470  1.00 23.20 LIG 0.17  HD
ATOM     19 2HH1 ARG C   2      51.595  39.455  34.737  1.00 23.20 LIG 0.17  HD
ATOM     20 2HH2 ARG C   2      53.663  40.345  35.093  1.00 25.55 LIG 0.17  HD
ATOM     21 1HH2 ARG C   2      54.855  39.453  35.051  1.00 25.55 LIG 0.17  HD
ATOM     22 HE   ARG C   2      54.613  37.275  34.575  1.00 20.36 LIG 0.18  HD
ENDBRANCH 13 14
ENDBRANCH 12 13
ENDBRANCH 11 12
ENDBRANCH 10 11
BRANCH 10 23
ATOM     23  N   ARG C   2      53.297  33.013  32.528  1.00 19.42 LIG-0.35  N 
ATOM     24  C   ASP C   1      52.223  32.442  32.002  1.00 19.51 LIG 0.25  C 
ATOM     25 O    ASP C   1      51.243  32.112  32.690  1.00 19.29 LIG-0.27  OA
ATOM     26 H    ARG C   2      53.921  33.396  32.077  1.00 19.42 LIG 0.16  HD
BRANCH 24 27
ATOM     27  CA  ASP C   1      52.220  32.167  30.508  1.00 19.04 LIG 0.28  C 
BRANCH 27 28
ATOM     28  CB  ASP C   1      53.183  31.048  30.210  1.00 21.34 LIG 0.15  C 
BRANCH 28 29
ATOM     29  CG  ASP C   1      54.658  31.474  30.426  1.00 23.67 LIG 0.17  C 
ATOM     30 OD2  ASP C   1      55.423  30.658  31.011  1.00 27.41 LIG-0.65  OA
ATOM     31 OD1  ASP C   1      55.050  32.624  30.043  1.00 20.87 LIG-0.65  OA
ENDBRANCH 28 29
ENDBRANCH 27 28
BRANCH 27 32
ATOM     32  N   ASP C   1      52.644  33.439  29.817  1.00 18.38 LIG-0.07  N 
ATOM     33 H1   ASP C   1      52.801  33.271  28.956  1.00 18.38 LIG 0.28  HD
ATOM     34 H3   ASP C   1      53.385  33.751  30.198  1.00 18.38 LIG 0.28  HD
ATOM     35 H2   ASP C   1      51.997  34.046  29.887  1.00 18.38 LIG 0.28  HD
ENDBRANCH 27 32
ENDBRANCH 24 27
ENDBRANCH 10 23
ENDBRANCH 8 10
ENDBRANCH 5 6
BRANCH 5 36
ATOM     36  CB  VAL C   3      53.601  28.269  33.556  1.00 17.74 LIG 0.01  C 
ATOM     37  CG1 VAL C   3      53.132  27.034  34.295  1.00 20.72 LIG 0.01  C 
ATOM     38  CG2 VAL C   3      52.422  28.815  32.771  1.00 18.64 LIG 0.01  C 
ENDBRANCH 5 36
ENDBRANCH 1 5
BRANCH 3 39
ATOM     39  CA  TYR C   4      57.424  28.301  36.258  1.00 17.90 LIG 0.18  C 
BRANCH 39 40
ATOM     40  CB  TYR C   4      58.275  29.533  36.281  1.00 20.19 LIG 0.07  C 
BRANCH 40 41
ATOM     41  CG  TYR C   4      57.676  30.738  36.955  1.00 23.00 LIG-0.06  A 
ATOM     42  CD2 TYR C   4      57.067  30.621  38.206  1.00 26.62 LIG 0.01  A 
ATOM     43  CE2 TYR C   4      56.506  31.711  38.840  1.00 28.63 LIG 0.04  A 
ATOM     44  CZ  TYR C   4      56.545  32.927  38.229  1.00 25.42 LIG 0.07  A 
ATOM     45  CE1 TYR C   4      57.165  33.088  37.037  1.00 26.89 LIG 0.04  A 
ATOM     46  CD1 TYR C   4      57.732  31.980  36.390  1.00 24.41 LIG 0.01  A 
BRANCH 44 47
ATOM     47 OH   TYR C   4      55.995  34.004  38.861  1.00 32.39 LIG-0.36  OA
ATOM     48 HH   TYR C   4      55.643  33.756  39.582  1.00 32.39 LIG 0.22  HD
ENDBRANCH 44 47
ENDBRANCH 40 41
ENDBRANCH 39 40
BRANCH 39 49
ATOM     49  C   TYR C   4      57.589  27.461  37.557  1.00 20.63 LIG 0.24  C 
ATOM     50 O    TYR C   4      58.642  26.963  37.846  1.00 19.73 LIG-0.27  OA
ATOM     51  N   ILE C   5      56.551  27.434  38.378  1.00 22.91 LIG-0.35  N 
ATOM     52 H    ILE C   5      55.826  27.881  38.256  1.00 22.91 LIG 0.16  HD
BRANCH 51 53
ATOM     53  CA  ILE C   5      56.565  26.622  39.582  1.00 27.58 LIG 0.18  C 
BRANCH 53 54
ATOM     54  C   ILE C   5      56.322  25.160  39.216  1.00 33.14 LIG 0.24  C 
ATOM     55  N   HIS C   6      56.769  24.232  40.073  1.00 39.14 LIG-0.35  N 
ATOM     56 H    HIS C   6      57.231  24.426  40.772  1.00 39.14 LIG 0.16  HD
ATOM     57 O    ILE C   5      55.830  24.911  38.119  1.00 25.88 LIG-0.27  OA
BRANCH 55 58
ATOM     58  CA  HIS C   6      56.518  22.754  39.913  1.00 56.87 LIG 0.17  C 
BRANCH 58 59
ATOM     59  CB  HIS C   6      57.354  22.178  38.733  1.00 66.39 LIG 0.09  C 
BRANCH 59 60
ATOM     60  CG  HIS C   6      56.668  21.095  37.948  1.00 78.50 LIG 0.06  A 
ATOM     61  CD2 HIS C   6      55.513  21.119  37.238  1.00 82.71 LIG 0.14  A 
ATOM     62 NE2  HIS C   6      55.356  19.877  36.667  1.00 84.02 LIG-0.25  NA
ATOM     63  CE1 HIS C   6      56.390  19.119  36.994  1.00 85.20 LIG 0.23  A 
ATOM     64 ND1  HIS C   6      57.201  19.831  37.762  1.00 88.66 LIG-0.24  NA
ENDBRANCH 59 60
ENDBRANCH 58 59
BRANCH 58 65
ATOM     65  C   HIS C   6      56.769  21.859  41.134  1.00 59.18 LIG 0.22  C 
ATOM     66 O    HIS C   6      56.446  22.246  42.289  1.00 63.69 LIG-0.29  OA
ENDBRANCH 58 65
ENDBRANCH 55 58
ENDBRANCH 53 54
BRANCH 53 67
ATOM     67  CB  ILE C   5      55.531  27.143  40.571  1.00 28.54 LIG 0.01  C 
ATOM     68  CG2 ILE C   5      55.774  26.479  41.924  1.00 32.34 LIG 0.01  C 
BRANCH 67 69
ATOM     69  CG1 ILE C   5      55.641  28.676  40.578  1.00 30.21 LIG 0.00  C 
ATOM     70  CD1 ILE C   5      56.114  29.308  41.863  1.00 32.85 LIG 0.01  C 
ENDBRANCH 67 69
ENDBRANCH 53 67
ENDBRANCH 51 53
ENDBRANCH 39 49
ENDBRANCH 3 39
TORSDOF 26
ENDMDL
MODEL 63
USER: ADFR SOLUTION from run 83
USER: SCORE 22.398430 LL:  -6.784 LR: -17.031 RR:   0.000 FEB:  -9.275
USER: RMSD 5.557484
USER: SEED 82
USER: STATUS no improvement in best in 4 clusters for 5 generations
USER: GENES 28
USER: genes 0 Translation |==|  0.73776 0.41301 0.54766
USER: genes 1 Rotation |==|  0.38181 0.50568 0.57527 0.97993
USER: genes 2 Torsion [N]-C--CA-[N] |==|  0.45430
USER: genes 3 Torsion [C]-CA--N-[C] |==|  0.75397
USER: genes 4 Torsion [N]-C--CA-[N] |==|  0.11740
USER: genes 5 Torsion [C]-CA--CB-[CG] |==|  0.55880
USER: genes 6 Torsion [CA]-CB--CG-[CD] |==|  0.66785
USER: genes 7 Torsion [CB]-CG--CD-[NE] |==|  0.47380
USER: genes 8 Torsion [CG]-CD--NE-[CZ] |==|  0.42233
USER: genes 9 Torsion [C]-CA--N-[C] |==|  0.72651
USER: genes 10 Torsion [N]-C--CA-[N] |==|  0.41932
USER: genes 11 Torsion [C]-CA--CB-[CG] |==|  0.79380
USER: genes 12 Torsion [CA]-CB--CG-[OD2] |==|  0.71065
USER: genes 13 Torsion [C]-CA--N-[H1] |==|  0.71314
USER: genes 14 Torsion [C]-CA--CB-[CG1] |==|  0.55454
USER: genes 15 Torsion [C]-N--CA-[CB] |==|  0.79274
USER: genes 16 Torsion [N]-CA--CB-[CG] |==|  0.86513
USER: genes 17 Torsion [CA]-CB--CG-[CD2] |==|  0.38955
USER: genes 18 Torsion [CE2]-CZ--OH-[HH] |==|  0.82819
USER: genes 19 Torsion [N]-CA--C-[N] |==|  0.13963
USER: genes 20 Torsion [C]-N--CA-[C] |==|  0.15003
USER: genes 21 Torsion [N]-CA--C-[N] |==|  0.06351
USER: genes 22 Torsion [C]-N--CA-[CB] |==|  0.34130
USER: genes 23 Torsion [N]-CA--CB-[CG] |==|  0.85106
USER: genes 24 Torsion [CA]-CB--CG-[CD2] |==|  0.42885
USER: genes 25 Torsion [N]-CA--C-[O] |==|  0.39230
USER: genes 26 Torsion [N]-CA--CB-[CG1] |==|  0.23307
USER: genes 27 Torsion [CA]-CB--CG1-[CD1] |==|  0.43670
ROOT
ATOM      1  C   VAL C   3      58.245  27.112  35.612  1.00 15.94 LIG 0.24  C 
ATOM      2 O    VAL C   3      57.034  27.188  35.550  1.00 17.86 LIG-0.27  OA
ATOM      3  N   TYR C   4      58.938  26.379  34.746  1.00 16.41 LIG-0.35  N 
ATOM      4 H    TYR C   4      59.793  26.286  34.772  1.00 16.41 LIG 0.16  HD
ENDROOT
BRANCH 1 5
ATOM      5  CA  VAL C   3      58.999  27.844  36.741  1.00 16.01 LIG 0.18  C 
BRANCH 5 6
ATOM      6  N   VAL C   3      58.075  28.866  37.277  1.00 15.77 LIG-0.35  N 
ATOM      7 H    VAL C   3      57.587  28.612  37.939  1.00 15.77 LIG 0.16  HD
ATOM      8  C   ARG C   2      58.049  30.071  36.732  1.00 16.54 LIG 0.24  C 
ATOM      9 O    ARG C   2      58.852  30.424  35.842  1.00 14.63 LIG-0.27  OA
BRANCH 8 10
ATOM     10  CA  ARG C   2      57.005  31.039  37.253  1.00 19.03 LIG 0.18  C 
BRANCH 10 11
ATOM     11  CB  ARG C   2      57.372  32.460  36.810  1.00 20.38 LIG 0.04  C 
BRANCH 11 12
ATOM     12  CG  ARG C   2      56.760  33.552  37.620  1.00 20.75 LIG 0.02  C 
BRANCH 12 13
ATOM     13  CD  ARG C   2      55.914  34.410  36.789  1.00 22.55 LIG 0.14  C 
BRANCH 13 14
ATOM     14  NE  ARG C   2      55.139  35.338  37.566  1.00 20.36 LIG-0.23  N 
ATOM     15  CZ  ARG C   2      54.728  36.512  37.135  1.00 23.11 LIG 0.67  C 
ATOM     16  NH1 ARG C   2      54.894  36.852  35.905  1.00 23.20 LIG-0.23  N 
ATOM     17  NH2 ARG C   2      54.044  37.309  37.964  1.00 25.55 LIG-0.23  N 
ATOM     18 1HH1 ARG C   2      55.277  36.311  35.357  1.00 23.20 LIG 0.17  HD
ATOM     19 2HH1 ARG C   2      54.622  37.621  35.631  1.00 23.20 LIG 0.17  HD
ATOM     20 2HH2 ARG C   2      53.770  38.078  37.694  1.00 25.55 LIG 0.17  HD
ATOM     21 1HH2 ARG C   2      53.878  37.051  38.769  1.00 25.55 LIG 0.17  HD
ATOM     22 HE   ARG C   2      54.931  35.111  38.369  1.00 20.36 LIG 0.18  HD
ENDBRANCH 13 14
ENDBRANCH 12 13
ENDBRANCH 11 12
ENDBRANCH 10 11
BRANCH 10 23
ATOM     23  N   ARG C   2      56.906  30.968  38.721  1.00 19.42 LIG-0.35  N 
ATOM     24  C   ASP C   1      55.945  30.247  39.282  1.00 19.51 LIG 0.25  C 
ATOM     25 O    ASP C   1      55.261  29.436  38.637  1.00 19.29 LIG-0.27  OA
ATOM     26 H    ARG C   2      57.500  31.416  39.151  1.00 19.42 LIG 0.16  HD
BRANCH 24 27
ATOM     27  CA  ASP C   1      55.670  30.454  40.762  1.00 19.04 LIG 0.28  C 
BRANCH 27 28
ATOM     28  CB  ASP C   1      56.548  29.526  41.561  1.00 21.34 LIG 0.15  C 
BRANCH 28 29
ATOM     29  CG  ASP C   1      56.058  28.056  41.493  1.00 23.67 LIG 0.17  C 
ATOM     30 OD2  ASP C   1      55.460  27.592  42.503  1.00 27.41 LIG-0.65  OA
ATOM     31 OD1  ASP C   1      56.289  27.357  40.453  1.00 20.87 LIG-0.65  OA
ENDBRANCH 28 29
ENDBRANCH 27 28
BRANCH 27 32
ATOM     32  N   ASP C   1      54.212  30.147  40.995  1.00 18.38 LIG-0.07  N 
ATOM     33 H1   ASP C   1      53.759  30.908  41.084  1.00 18.38 LIG 0.28  HD
ATOM     34 H3   ASP C   1      54.126  29.661  41.736  1.00 18.38 LIG 0.28  HD
ATOM     35 H2   ASP C   1      53.890  29.690  40.303  1.00 18.38 LIG 0.28  HD
ENDBRANCH 27 32
ENDBRANCH 24 27
ENDBRANCH 10 23
ENDBRANCH 8 10
ENDBRANCH 5 6
BRANCH 5 36
ATOM     36  CB  VAL C   3      59.392  26.810  37.773  1.00 17.74 LIG 0.01  C 
ATOM     37  CG1 VAL C   3      59.700  27.444  39.113  1.00 20.72 LIG 0.01  C 
ATOM     38  CG2 VAL C   3      58.282  25.797  37.984  1.00 18.64 LIG 0.01  C 
ENDBRANCH 5 36
ENDBRANCH 1 5
BRANCH 3 39
ATOM     39  CA  TYR C   4      58.286  25.658  33.660  1.00 17.90 LIG 0.18  C 
BRANCH 39 40
ATOM     40  CB  TYR C   4      57.577  24.443  34.177  1.00 20.19 LIG 0.07  C 
BRANCH 40 41
ATOM     41  CG  TYR C   4      58.372  23.555  35.097  1.00 23.00 LIG-0.06  A 
ATOM     42  CD2 TYR C   4      57.771  22.973  36.214  1.00 26.62 LIG 0.01  A 
ATOM     43  CE2 TYR C   4      58.481  22.160  37.074  1.00 28.63 LIG 0.04  A 
ATOM     44  CZ  TYR C   4      59.799  21.926  36.828  1.00 25.42 LIG 0.07  A 
ATOM     45  CE1 TYR C   4      60.405  22.437  35.731  1.00 26.89 LIG 0.04  A 
ATOM     46  CD1 TYR C   4      59.685  23.266  34.859  1.00 24.41 LIG 0.01  A 
BRANCH 44 47
ATOM     47 OH   TYR C   4      60.498  21.117  37.676  1.00 32.39 LIG-0.36  OA
ATOM     48 HH   TYR C   4      60.504  21.456  38.445  1.00 32.39 LIG 0.22  HD
ENDBRANCH 44 47
ENDBRANCH 40 41
ENDBRANCH 39 40
BRANCH 39 49
ATOM     49  C   TYR C   4      57.345  26.557  32.809  1.00 20.63 LIG 0.24  C 
ATOM     50 O    TYR C   4      56.187  26.282  32.660  1.00 19.73 LIG-0.27  OA
ATOM     51  N   ILE C   5      57.858  27.697  32.369  1.00 22.91 LIG-0.35  N 
ATOM     52 H    ILE C   5      58.647  27.978  32.562  1.00 22.91 LIG 0.16  HD
BRANCH 51 53
ATOM     53  CA  ILE C   5      57.095  28.579  31.503  1.00 27.58 LIG 0.18  C 
BRANCH 53 54
ATOM     54  C   ILE C   5      55.752  28.900  32.154  1.00 33.14 LIG 0.24  C 
ATOM     55  N   HIS C   6      55.672  28.771  33.485  1.00 39.14 LIG-0.35  N 
ATOM     56 H    HIS C   6      56.316  28.462  33.965  1.00 39.14 LIG 0.16  HD
ATOM     57 O    ILE C   5      54.799  29.154  31.424  1.00 25.88 LIG-0.27  OA
BRANCH 55 58
ATOM     58  CA  HIS C   6      54.455  29.149  34.291  1.00 56.87 LIG 0.17  C 
BRANCH 58 59
ATOM     59  CB  HIS C   6      53.937  27.932  35.111  1.00 66.39 LIG 0.09  C 
BRANCH 59 60
ATOM     60  CG  HIS C   6      53.679  26.693  34.300  1.00 78.50 LIG 0.06  A 
ATOM     61  CD2 HIS C   6      53.680  25.386  34.664  1.00 82.71 LIG 0.14  A 
ATOM     62 NE2  HIS C   6      53.333  24.651  33.553  1.00 84.02 LIG-0.25  NA
ATOM     63  CE1 HIS C   6      53.103  25.476  32.545  1.00 85.20 LIG 0.23  A 
ATOM     64 ND1  HIS C   6      53.298  26.716  32.970  1.00 88.66 LIG-0.24  NA
ENDBRANCH 59 60
ENDBRANCH 58 59
BRANCH 58 65
ATOM     65  C   HIS C   6      54.589  30.332  35.261  1.00 59.18 LIG 0.22  C 
ATOM     66 O    HIS C   6      53.644  31.152  35.405  1.00 63.69 LIG-0.29  OA
ENDBRANCH 58 65
ENDBRANCH 55 58
ENDBRANCH 53 54
BRANCH 53 67
ATOM     67  CB  ILE C   5      56.926  27.939  30.132  1.00 28.54 LIG 0.01  C 
ATOM     68  CG2 ILE C   5      58.239  27.263  29.745  1.00 32.34 LIG 0.01  C 
BRANCH 67 69
ATOM     69  CG1 ILE C   5      55.717  26.992  30.219  1.00 30.21 LIG 0.00  C 
ATOM     70  CD1 ILE C   5      55.031  26.660  28.918  1.00 32.85 LIG 0.01  C 
ENDBRANCH 67 69
ENDBRANCH 53 67
ENDBRANCH 51 53
ENDBRANCH 39 49
ENDBRANCH 3 39
TORSDOF 26
ENDMDL
MODEL 64
USER: ADFR SOLUTION from run 15
USER: SCORE 22.482586 LL:  -6.229 LR: -17.003 RR:   0.000 FEB:  -9.247
USER: RMSD 4.063211
USER: SEED 636491
USER: STATUS no improvement in best in 9 clusters for 5 generations
USER: GENES 28
USER: genes 0 Translation |==|  0.68652 0.45120 0.51675
USER: genes 1 Rotation |==|  0.49330 0.53014 0.61820 0.98484
USER: genes 2 Torsion [N]-C--CA-[N] |==|  0.39794
USER: genes 3 Torsion [C]-CA--N-[C] |==|  0.73721
USER: genes 4 Torsion [N]-C--CA-[N] |==|  0.13691
USER: genes 5 Torsion [C]-CA--CB-[CG] |==|  0.32123
USER: genes 6 Torsion [CA]-CB--CG-[CD] |==|  0.35909
USER: genes 7 Torsion [CB]-CG--CD-[NE] |==|  0.45686
USER: genes 8 Torsion [CG]-CD--NE-[CZ] |==|  0.34530
USER: genes 9 Torsion [C]-CA--N-[C] |==|  0.75122
USER: genes 10 Torsion [N]-C--CA-[N] |==|  0.39375
USER: genes 11 Torsion [C]-CA--CB-[CG] |==|  0.50170
USER: genes 12 Torsion [CA]-CB--CG-[OD2] |==|  0.36322
USER: genes 13 Torsion [C]-CA--N-[H1] |==|  0.09062
USER: genes 14 Torsion [C]-CA--CB-[CG1] |==|  0.75814
USER: genes 15 Torsion [C]-N--CA-[CB] |==|  0.79648
USER: genes 16 Torsion [N]-CA--CB-[CG] |==|  0.20253
USER: genes 17 Torsion [CA]-CB--CG-[CD2] |==|  0.18357
USER: genes 18 Torsion [CE2]-CZ--OH-[HH] |==|  0.11476
USER: genes 19 Torsion [N]-CA--C-[N] |==|  0.44439
USER: genes 20 Torsion [C]-N--CA-[C] |==|  0.66848
USER: genes 21 Torsion [N]-CA--C-[N] |==|  0.07134
USER: genes 22 Torsion [C]-N--CA-[CB] |==|  0.36658
USER: genes 23 Torsion [N]-CA--CB-[CG] |==|  0.00608
USER: genes 24 Torsion [CA]-CB--CG-[CD2] |==|  0.32683
USER: genes 25 Torsion [N]-CA--C-[O] |==|  0.23800
USER: genes 26 Torsion [N]-CA--CB-[CG1] |==|  0.03941
USER: genes 27 Torsion [CA]-CB--CG1-[CD1] |==|  0.27303
ROOT
ATOM      1  C   VAL C   3      57.361  28.086  34.801  1.00 15.94 LIG 0.24  C 
ATOM      2 O    VAL C   3      56.165  27.971  34.981  1.00 17.86 LIG-0.27  OA
ATOM      3  N   TYR C   4      57.905  27.884  33.605  1.00 16.41 LIG-0.35  N 
ATOM      4 H    TYR C   4      58.748  27.938  33.445  1.00 16.41 LIG 0.16  HD
ENDROOT
BRANCH 1 5
ATOM      5  CA  VAL C   3      58.281  28.432  35.989  1.00 16.01 LIG 0.18  C 
BRANCH 5 6
ATOM      6  N   VAL C   3      57.550  29.407  36.825  1.00 15.77 LIG-0.35  N 
ATOM      7 H    VAL C   3      57.010  29.068  37.403  1.00 15.77 LIG 0.16  HD
ATOM      8  C   ARG C   2      57.756  30.702  36.647  1.00 16.54 LIG 0.24  C 
ATOM      9 O    ARG C   2      58.628  31.143  35.868  1.00 14.63 LIG-0.27  OA
BRANCH 8 10
ATOM     10  CA  ARG C   2      56.896  31.653  37.457  1.00 19.03 LIG 0.18  C 
BRANCH 10 11
ATOM     11  CB  ARG C   2      57.425  33.080  37.281  1.00 20.38 LIG 0.04  C 
BRANCH 11 12
ATOM     12  CG  ARG C   2      56.489  34.022  36.603  1.00 20.75 LIG 0.02  C 
BRANCH 12 13
ATOM     13  CD  ARG C   2      56.333  35.255  37.377  1.00 22.55 LIG 0.14  C 
BRANCH 13 14
ATOM     14  NE  ARG C   2      55.739  36.315  36.610  1.00 20.36 LIG-0.23  N 
ATOM     15  CZ  ARG C   2      54.651  36.969  36.958  1.00 23.11 LIG 0.67  C 
ATOM     16  NH1 ARG C   2      54.109  36.774  38.109  1.00 23.20 LIG-0.23  N 
ATOM     17  NH2 ARG C   2      54.169  37.914  36.141  1.00 25.55 LIG-0.23  N 
ATOM     18 1HH1 ARG C   2      54.459  36.212  38.659  1.00 23.20 LIG 0.17  HD
ATOM     19 2HH1 ARG C   2      53.399  37.205  38.328  1.00 23.20 LIG 0.17  HD
ATOM     20 2HH2 ARG C   2      53.458  38.348  36.358  1.00 25.55 LIG 0.17  HD
ATOM     21 1HH2 ARG C   2      54.570  38.087  35.400  1.00 25.55 LIG 0.17  HD
ATOM     22 HE   ARG C   2      56.121  36.538  35.873  1.00 20.36 LIG 0.18  HD
ENDBRANCH 13 14
ENDBRANCH 12 13
ENDBRANCH 11 12
ENDBRANCH 10 11
BRANCH 10 23
ATOM     23  N   ARG C   2      56.891  31.277  38.880  1.00 19.42 LIG-0.35  N 
ATOM     24  C   ASP C   1      55.980  30.429  39.336  1.00 19.51 LIG 0.25  C 
ATOM     25 O    ASP C   1      55.269  29.750  38.577  1.00 19.29 LIG-0.27  OA
ATOM     26 H    ARG C   2      57.505  31.643  39.359  1.00 19.42 LIG 0.16  HD
BRANCH 24 27
ATOM     27  CA  ASP C   1      55.796  30.318  40.839  1.00 19.04 LIG 0.28  C 
BRANCH 27 28
ATOM     28  CB  ASP C   1      56.564  29.123  41.343  1.00 21.34 LIG 0.15  C 
BRANCH 28 29
ATOM     29  CG  ASP C   1      56.412  28.934  42.874  1.00 23.67 LIG 0.17  C 
ATOM     30 OD2  ASP C   1      56.107  27.784  43.294  1.00 27.41 LIG-0.65  OA
ATOM     31 OD1  ASP C   1      56.568  29.929  43.655  1.00 20.87 LIG-0.65  OA
ENDBRANCH 28 29
ENDBRANCH 27 28
BRANCH 27 32
ATOM     32  N   ASP C   1      54.320  30.155  41.101  1.00 18.38 LIG-0.07  N 
ATOM     33 H1   ASP C   1      53.947  29.704  40.430  1.00 18.38 LIG 0.28  HD
ATOM     34 H3   ASP C   1      53.940  30.957  41.167  1.00 18.38 LIG 0.28  HD
ATOM     35 H2   ASP C   1      54.200  29.708  41.861  1.00 18.38 LIG 0.28  HD
ENDBRANCH 27 32
ENDBRANCH 24 27
ENDBRANCH 10 23
ENDBRANCH 8 10
ENDBRANCH 5 6
BRANCH 5 36
ATOM     36  CB  VAL C   3      58.585  27.143  36.722  1.00 17.74 LIG 0.01  C 
ATOM     37  CG1 VAL C   3      57.530  26.827  37.761  1.00 20.72 LIG 0.01  C 
ATOM     38  CG2 VAL C   3      58.654  25.970  35.761  1.00 18.64 LIG 0.01  C 
ENDBRANCH 5 36
ENDBRANCH 1 5
BRANCH 3 39
ATOM     39  CA  TYR C   4      57.092  27.548  32.442  1.00 17.90 LIG 0.18  C 
BRANCH 39 40
ATOM     40  CB  TYR C   4      56.599  26.137  32.526  1.00 20.19 LIG 0.07  C 
BRANCH 40 41
ATOM     41  CG  TYR C   4      55.510  25.875  33.533  1.00 23.00 LIG-0.06  A 
ATOM     42  CD2 TYR C   4      54.245  26.442  33.372  1.00 26.62 LIG 0.01  A 
ATOM     43  CE2 TYR C   4      53.235  26.221  34.286  1.00 28.63 LIG 0.04  A 
ATOM     44  CZ  TYR C   4      53.481  25.435  35.369  1.00 25.42 LIG 0.07  A 
ATOM     45  CE1 TYR C   4      54.681  24.833  35.536  1.00 26.89 LIG 0.04  A 
ATOM     46  CD1 TYR C   4      55.709  25.060  34.610  1.00 24.41 LIG 0.01  A 
BRANCH 44 47
ATOM     47 OH   TYR C   4      52.477  25.212  36.268  1.00 32.39 LIG-0.36  OA
ATOM     48 HH   TYR C   4      51.756  25.084  35.856  1.00 32.39 LIG 0.22  HD
ENDBRANCH 44 47
ENDBRANCH 40 41
ENDBRANCH 39 40
BRANCH 39 49
ATOM     49  C   TYR C   4      55.930  28.553  32.199  1.00 20.63 LIG 0.24  C 
ATOM     50 O    TYR C   4      55.604  29.344  33.041  1.00 19.73 LIG-0.27  OA
ATOM     51  N   ILE C   5      55.412  28.573  30.980  1.00 22.91 LIG-0.35  N 
ATOM     52 H    ILE C   5      55.706  28.103  30.322  1.00 22.91 LIG 0.16  HD
BRANCH 51 53
ATOM     53  CA  ILE C   5      54.274  29.416  30.660  1.00 27.58 LIG 0.18  C 
BRANCH 53 54
ATOM     54  C   ILE C   5      53.107  28.547  30.198  1.00 33.14 LIG 0.24  C 
ATOM     55  N   HIS C   6      53.075  27.282  30.637  1.00 39.14 LIG-0.35  N 
ATOM     56 H    HIS C   6      53.707  26.935  31.107  1.00 39.14 LIG 0.16  HD
ATOM     57 O    ILE C   5      52.325  29.015  29.375  1.00 25.88 LIG-0.27  OA
BRANCH 55 58
ATOM     58  CA  HIS C   6      51.940  26.328  30.362  1.00 56.87 LIG 0.17  C 
BRANCH 58 59
ATOM     59  CB  HIS C   6      52.482  24.959  29.857  1.00 66.39 LIG 0.09  C 
BRANCH 59 60
ATOM     60  CG  HIS C   6      53.980  24.858  29.802  1.00 78.50 LIG 0.06  A 
ATOM     61  CD2 HIS C   6      54.833  24.038  30.466  1.00 82.71 LIG 0.14  A 
ATOM     62 NE2  HIS C   6      56.104  24.318  30.018  1.00 84.02 LIG-0.25  NA
ATOM     63  CE1 HIS C   6      56.036  25.261  29.094  1.00 85.20 LIG 0.23  A 
ATOM     64 ND1  HIS C   6      54.766  25.602  28.938  1.00 88.66 LIG-0.24  NA
ENDBRANCH 59 60
ENDBRANCH 58 59
BRANCH 58 65
ATOM     65  C   HIS C   6      50.965  26.040  31.511  1.00 59.18 LIG 0.22  C 
ATOM     66 O    HIS C   6      49.981  26.799  31.722  1.00 63.69 LIG-0.29  OA
ENDBRANCH 58 65
ENDBRANCH 55 58
ENDBRANCH 53 54
BRANCH 53 67
ATOM     67  CB  ILE C   5      54.670  30.445  29.609  1.00 28.54 LIG 0.01  C 
ATOM     68  CG2 ILE C   5      54.697  31.824  30.263  1.00 32.34 LIG 0.01  C 
BRANCH 67 69
ATOM     69  CG1 ILE C   5      56.013  29.990  29.013  1.00 30.21 LIG 0.00  C 
ATOM     70  CD1 ILE C   5      55.947  29.245  27.703  1.00 32.85 LIG 0.01  C 
ENDBRANCH 67 69
ENDBRANCH 53 67
ENDBRANCH 51 53
ENDBRANCH 39 49
ENDBRANCH 3 39
TORSDOF 26
ENDMDL
MODEL 65
USER: ADFR SOLUTION from run 7
USER: SCORE 21.110453 LL:  -5.890 LR: -16.983 RR:   0.000 FEB:  -9.227
USER: RMSD 9.170936
USER: SEED 215705
USER: STATUS no improvement in best in 17 clusters for 5 generations
USER: GENES 28
USER: genes 0 Translation |==|  0.52272 0.55034 0.53563
USER: genes 1 Rotation |==|  0.66031 0.16438 0.23620 0.70511
USER: genes 2 Torsion [N]-C--CA-[N] |==|  0.56487
USER: genes 3 Torsion [C]-CA--N-[C] |==|  0.16245
USER: genes 4 Torsion [N]-C--CA-[N] |==|  0.26043
USER: genes 5 Torsion [C]-CA--CB-[CG] |==|  0.14057
USER: genes 6 Torsion [CA]-CB--CG-[CD] |==|  0.68332
USER: genes 7 Torsion [CB]-CG--CD-[NE] |==|  0.97239
USER: genes 8 Torsion [CG]-CD--NE-[CZ] |==|  0.34643
USER: genes 9 Torsion [C]-CA--N-[C] |==|  0.67397
USER: genes 10 Torsion [N]-C--CA-[N] |==|  0.93432
USER: genes 11 Torsion [C]-CA--CB-[CG] |==|  0.74947
USER: genes 12 Torsion [CA]-CB--CG-[OD2] |==|  0.62265
USER: genes 13 Torsion [C]-CA--N-[H1] |==|  0.98155
USER: genes 14 Torsion [C]-CA--CB-[CG1] |==|  0.23937
USER: genes 15 Torsion [C]-N--CA-[CB] |==|  0.20040
USER: genes 16 Torsion [N]-CA--CB-[CG] |==|  0.76730
USER: genes 17 Torsion [CA]-CB--CG-[CD2] |==|  0.32418
USER: genes 18 Torsion [CE2]-CZ--OH-[HH] |==|  0.55086
USER: genes 19 Torsion [N]-CA--C-[N] |==|  0.98649
USER: genes 20 Torsion [C]-N--CA-[C] |==|  0.16172
USER: genes 21 Torsion [N]-CA--C-[N] |==|  0.10009
USER: genes 22 Torsion [C]-N--CA-[CB] |==|  0.51026
USER: genes 23 Torsion [N]-CA--CB-[CG] |==|  0.83832
USER: genes 24 Torsion [CA]-CB--CG-[CD2] |==|  0.86634
USER: genes 25 Torsion [N]-CA--C-[O] |==|  0.41724
USER: genes 26 Torsion [N]-CA--CB-[CG1] |==|  0.90122
USER: genes 27 Torsion [CA]-CB--CG1-[CD1] |==|  0.41937
ROOT
ATOM      1  C   VAL C   3      54.536  30.614  35.296  1.00 15.94 LIG 0.24  C 
ATOM      2 O    VAL C   3      55.018  31.713  35.488  1.00 17.86 LIG-0.27  OA
ATOM      3  N   TYR C   4      55.302  29.543  35.111  1.00 16.41 LIG-0.35  N 
ATOM      4 H    TYR C   4      54.996  28.755  34.954  1.00 16.41 LIG 0.16  HD
ENDROOT
BRANCH 1 5
ATOM      5  CA  VAL C   3      53.004  30.456  35.222  1.00 16.01 LIG 0.18  C 
BRANCH 5 6
ATOM      6  N   VAL C   3      52.453  31.788  34.892  1.00 15.77 LIG-0.35  N 
ATOM      7 H    VAL C   3      51.894  32.108  35.462  1.00 15.77 LIG 0.16  HD
ATOM      8  C   ARG C   2      52.835  32.393  33.780  1.00 16.54 LIG 0.24  C 
ATOM      9 O    ARG C   2      53.729  31.934  33.037  1.00 14.63 LIG-0.27  OA
BRANCH 8 10
ATOM     10  CA  ARG C   2      52.154  33.705  33.441  1.00 19.03 LIG 0.18  C 
BRANCH 10 11
ATOM     11  CB  ARG C   2      51.985  33.806  31.922  1.00 20.38 LIG 0.04  C 
BRANCH 11 12
ATOM     12  CG  ARG C   2      51.359  32.616  31.275  1.00 20.75 LIG 0.02  C 
BRANCH 12 13
ATOM     13  CD  ARG C   2      52.310  31.938  30.393  1.00 22.55 LIG 0.14  C 
BRANCH 13 14
ATOM     14  NE  ARG C   2      53.513  32.699  30.191  1.00 20.36 LIG-0.23  N 
ATOM     15  CZ  ARG C   2      54.728  32.250  30.426  1.00 23.11 LIG 0.67  C 
ATOM     16  NH1 ARG C   2      54.921  31.017  30.739  1.00 23.20 LIG-0.23  N 
ATOM     17  NH2 ARG C   2      55.772  33.066  30.236  1.00 25.55 LIG-0.23  N 
ATOM     18 1HH1 ARG C   2      54.253  30.478  30.797  1.00 23.20 LIG 0.17  HD
ATOM     19 2HH1 ARG C   2      55.718  30.732  30.890  1.00 23.20 LIG 0.17  HD
ATOM     20 2HH2 ARG C   2      56.570  32.784  30.385  1.00 25.55 LIG 0.17  HD
ATOM     21 1HH2 ARG C   2      55.644  33.872  29.964  1.00 25.55 LIG 0.17  HD
ATOM     22 HE   ARG C   2      53.432  33.503  29.898  1.00 20.36 LIG 0.18  HD
ENDBRANCH 13 14
ENDBRANCH 12 13
ENDBRANCH 11 12
ENDBRANCH 10 11
BRANCH 10 23
ATOM     23  N   ARG C   2      52.929  34.848  33.950  1.00 19.42 LIG-0.35  N 
ATOM     24  C   ASP C   1      52.399  35.652  34.862  1.00 19.51 LIG 0.25  C 
ATOM     25 O    ASP C   1      51.366  35.356  35.485  1.00 19.29 LIG-0.27  OA
ATOM     26 H    ARG C   2      53.716  34.937  33.615  1.00 19.42 LIG 0.16  HD
BRANCH 24 27
ATOM     27  CA  ASP C   1      53.078  36.985  35.120  1.00 19.04 LIG 0.28  C 
BRANCH 27 28
ATOM     28  CB  ASP C   1      52.385  38.056  34.318  1.00 21.34 LIG 0.15  C 
BRANCH 28 29
ATOM     29  CG  ASP C   1      53.014  38.231  32.911  1.00 23.67 LIG 0.17  C 
ATOM     30 OD2  ASP C   1      53.212  39.408  32.502  1.00 27.41 LIG-0.65  OA
ATOM     31 OD1  ASP C   1      53.285  37.205  32.205  1.00 20.87 LIG-0.65  OA
ENDBRANCH 28 29
ENDBRANCH 27 28
BRANCH 27 32
ATOM     32  N   ASP C   1      54.519  36.845  34.696  1.00 18.38 LIG-0.07  N 
ATOM     33 H1   ASP C   1      54.684  35.997  34.480  1.00 18.38 LIG 0.28  HD
ATOM     34 H3   ASP C   1      55.051  37.090  35.366  1.00 18.38 LIG 0.28  HD
ATOM     35 H2   ASP C   1      54.673  37.365  33.991  1.00 18.38 LIG 0.28  HD
ENDBRANCH 27 32
ENDBRANCH 24 27
ENDBRANCH 10 23
ENDBRANCH 8 10
ENDBRANCH 5 6
BRANCH 5 36
ATOM     36  CB  VAL C   3      52.702  29.418  34.164  1.00 17.74 LIG 0.01  C 
ATOM     37  CG1 VAL C   3      52.739  28.014  34.730  1.00 20.72 LIG 0.01  C 
ATOM     38  CG2 VAL C   3      51.327  29.636  33.558  1.00 18.64 LIG 0.01  C 
ENDBRANCH 5 36
ENDBRANCH 1 5
BRANCH 3 39
ATOM     39  CA  TYR C   4      56.757  29.626  35.163  1.00 17.90 LIG 0.18  C 
BRANCH 39 40
ATOM     40  CB  TYR C   4      57.230  29.828  36.570  1.00 20.19 LIG 0.07  C 
BRANCH 40 41
ATOM     41  CG  TYR C   4      57.230  31.248  37.070  1.00 23.00 LIG-0.06  A 
ATOM     42  CD2 TYR C   4      56.415  31.623  38.138  1.00 26.62 LIG 0.01  A 
ATOM     43  CE2 TYR C   4      56.395  32.920  38.609  1.00 28.63 LIG 0.04  A 
ATOM     44  CZ  TYR C   4      57.186  33.854  38.014  1.00 25.42 LIG 0.07  A 
ATOM     45  CE1 TYR C   4      58.022  33.518  37.004  1.00 26.89 LIG 0.04  A 
ATOM     46  CD1 TYR C   4      58.040  32.201  36.523  1.00 24.41 LIG 0.01  A 
BRANCH 44 47
ATOM     47 OH   TYR C   4      57.169  35.135  38.486  1.00 32.39 LIG-0.36  OA
ATOM     48 HH   TYR C   4      57.487  35.651  37.905  1.00 32.39 LIG 0.22  HD
ENDBRANCH 44 47
ENDBRANCH 40 41
ENDBRANCH 39 40
BRANCH 39 49
ATOM     49  C   TYR C   4      57.461  28.415  34.485  1.00 20.63 LIG 0.24  C 
ATOM     50 O    TYR C   4      58.657  28.322  34.465  1.00 19.73 LIG-0.27  OA
ATOM     51  N   ILE C   5      56.673  27.442  34.050  1.00 22.91 LIG-0.35  N 
ATOM     52 H    ILE C   5      55.820  27.425  34.160  1.00 22.91 LIG 0.16  HD
BRANCH 51 53
ATOM     53  CA  ILE C   5      57.215  26.300  33.335  1.00 27.58 LIG 0.18  C 
BRANCH 53 54
ATOM     54  C   ILE C   5      58.251  25.595  34.207  1.00 33.14 LIG 0.24  C 
ATOM     55  N   HIS C   6      58.013  25.552  35.525  1.00 39.14 LIG-0.35  N 
ATOM     56 H    HIS C   6      57.346  25.951  35.893  1.00 39.14 LIG 0.16  HD
ATOM     57 O    ILE C   5      59.286  25.203  33.676  1.00 25.88 LIG-0.27  OA
BRANCH 55 58
ATOM     58  CA  HIS C   6      58.879  24.805  36.507  1.00 56.87 LIG 0.17  C 
BRANCH 58 59
ATOM     59  CB  HIS C   6      58.276  24.879  37.941  1.00 66.39 LIG 0.09  C 
BRANCH 59 60
ATOM     60  CG  HIS C   6      58.090  26.272  38.472  1.00 78.50 LIG 0.06  A 
ATOM     61  CD2 HIS C   6      58.944  27.326  38.496  1.00 82.71 LIG 0.14  A 
ATOM     62 NE2  HIS C   6      58.266  28.390  39.048  1.00 84.02 LIG-0.25  NA
ATOM     63  CE1 HIS C   6      57.032  28.012  39.334  1.00 85.20 LIG 0.23  A 
ATOM     64 ND1  HIS C   6      56.895  26.740  38.991  1.00 88.66 LIG-0.24  NA
ENDBRANCH 59 60
ENDBRANCH 58 59
BRANCH 58 65
ATOM     65  C   HIS C   6      59.173  23.328  36.209  1.00 59.18 LIG 0.22  C 
ATOM     66 O    HIS C   6      60.251  22.799  36.593  1.00 63.69 LIG-0.29  OA
ENDBRANCH 58 65
ENDBRANCH 55 58
ENDBRANCH 53 54
BRANCH 53 67
ATOM     67  CB  ILE C   5      57.802  26.753  32.005  1.00 28.54 LIG 0.01  C 
ATOM     68  CG2 ILE C   5      57.900  25.542  31.079  1.00 32.34 LIG 0.01  C 
BRANCH 67 69
ATOM     69  CG1 ILE C   5      56.912  27.892  31.481  1.00 30.21 LIG 0.00  C 
ATOM     70  CD1 ILE C   5      57.587  28.923  30.610  1.00 32.85 LIG 0.01  C 
ENDBRANCH 67 69
ENDBRANCH 53 67
ENDBRANCH 51 53
ENDBRANCH 39 49
ENDBRANCH 3 39
TORSDOF 26
ENDMDL
MODEL 66
USER: ADFR SOLUTION from run 129
USER: SCORE 21.103338 LL:  -6.006 LR: -16.946 RR:   0.000 FEB:  -9.190
USER: RMSD 8.581092
USER: SEED 128
USER: STATUS no improvement in best in 8 clusters for 5 generations
USER: GENES 28
USER: genes 0 Translation |==|  0.53116 0.50785 0.51410
USER: genes 1 Rotation |==|  0.42354 0.11775 0.49139 0.81299
USER: genes 2 Torsion [N]-C--CA-[N] |==|  0.37669
USER: genes 3 Torsion [C]-CA--N-[C] |==|  0.83462
USER: genes 4 Torsion [N]-C--CA-[N] |==|  0.98766
USER: genes 5 Torsion [C]-CA--CB-[CG] |==|  0.55123
USER: genes 6 Torsion [CA]-CB--CG-[CD] |==|  0.86225
USER: genes 7 Torsion [CB]-CG--CD-[NE] |==|  0.71739
USER: genes 8 Torsion [CG]-CD--NE-[CZ] |==|  0.77378
USER: genes 9 Torsion [C]-CA--N-[C] |==|  0.74256
USER: genes 10 Torsion [N]-C--CA-[N] |==|  0.45913
USER: genes 11 Torsion [C]-CA--CB-[CG] |==|  0.63030
USER: genes 12 Torsion [CA]-CB--CG-[OD2] |==|  0.65662
USER: genes 13 Torsion [C]-CA--N-[H1] |==|  0.22118
USER: genes 14 Torsion [C]-CA--CB-[CG1] |==|  0.43166
USER: genes 15 Torsion [C]-N--CA-[CB] |==|  0.32148
USER: genes 16 Torsion [N]-CA--CB-[CG] |==|  0.97436
USER: genes 17 Torsion [CA]-CB--CG-[CD2] |==|  0.69968
USER: genes 18 Torsion [CE2]-CZ--OH-[HH] |==|  0.49831
USER: genes 19 Torsion [N]-CA--C-[N] |==|  0.60687
USER: genes 20 Torsion [C]-N--CA-[C] |==|  0.16151
USER: genes 21 Torsion [N]-CA--C-[N] |==|  0.13012
USER: genes 22 Torsion [C]-N--CA-[CB] |==|  0.83508
USER: genes 23 Torsion [N]-CA--CB-[CG] |==|  0.95560
USER: genes 24 Torsion [CA]-CB--CG-[CD2] |==|  0.35272
USER: genes 25 Torsion [N]-CA--C-[O] |==|  0.97481
USER: genes 26 Torsion [N]-CA--CB-[CG1] |==|  0.86229
USER: genes 27 Torsion [CA]-CB--CG1-[CD1] |==|  0.91191
ROOT
ATOM      1  C   VAL C   3      54.682  29.530  34.731  1.00 15.94 LIG 0.24  C 
ATOM      2 O    VAL C   3      54.949  29.727  33.562  1.00 17.86 LIG-0.27  OA
ATOM      3  N   TYR C   4      55.564  28.984  35.562  1.00 16.41 LIG-0.35  N 
ATOM      4 H    TYR C   4      55.402  28.813  36.389  1.00 16.41 LIG 0.16  HD
ENDROOT
BRANCH 1 5
ATOM      5  CA  VAL C   3      53.276  29.880  35.260  1.00 16.01 LIG 0.18  C 
BRANCH 5 6
ATOM      6  N   VAL C   3      52.950  31.227  34.746  1.00 15.77 LIG-0.35  N 
ATOM      7 H    VAL C   3      52.245  31.274  34.254  1.00 15.77 LIG 0.16  HD
ATOM      8  C   ARG C   2      53.728  32.250  35.057  1.00 16.54 LIG 0.24  C 
ATOM      9 O    ARG C   2      54.680  32.150  35.861  1.00 14.63 LIG-0.27  OA
BRANCH 8 10
ATOM     10  CA  ARG C   2      53.404  33.583  34.411  1.00 19.03 LIG 0.18  C 
BRANCH 10 11
ATOM     11  CB  ARG C   2      53.038  34.594  35.502  1.00 20.38 LIG 0.04  C 
BRANCH 11 12
ATOM     12  CG  ARG C   2      52.294  35.795  35.026  1.00 20.75 LIG 0.02  C 
BRANCH 12 13
ATOM     13  CD  ARG C   2      52.960  36.401  33.871  1.00 22.55 LIG 0.14  C 
BRANCH 13 14
ATOM     14  NE  ARG C   2      53.719  37.570  34.225  1.00 20.36 LIG-0.23  N 
ATOM     15  CZ  ARG C   2      53.206  38.772  34.387  1.00 23.11 LIG 0.67  C 
ATOM     16  NH1 ARG C   2      51.932  38.949  34.361  1.00 23.20 LIG-0.23  N 
ATOM     17  NH2 ARG C   2      54.020  39.793  34.680  1.00 25.55 LIG-0.23  N 
ATOM     18 1HH1 ARG C   2      51.407  38.279  34.237  1.00 23.20 LIG 0.17  HD
ATOM     19 2HH1 ARG C   2      51.605  39.737  34.468  1.00 23.20 LIG 0.17  HD
ATOM     20 2HH2 ARG C   2      53.697  40.583  34.788  1.00 25.55 LIG 0.17  HD
ATOM     21 1HH2 ARG C   2      54.866  39.660  34.760  1.00 25.55 LIG 0.17  HD
ATOM     22 HE   ARG C   2      54.566  37.477  34.338  1.00 20.36 LIG 0.18  HD
ENDBRANCH 13 14
ENDBRANCH 12 13
ENDBRANCH 11 12
ENDBRANCH 10 11
BRANCH 10 23
ATOM     23  N   ARG C   2      52.302  33.446  33.445  1.00 19.42 LIG-0.35  N 
ATOM     24  C   ASP C   1      52.569  33.217  32.167  1.00 19.51 LIG 0.25  C 
ATOM     25 O    ASP C   1      53.698  32.877  31.776  1.00 19.29 LIG-0.27  OA
ATOM     26 H    ARG C   2      51.512  33.526  33.775  1.00 19.42 LIG 0.16  HD
BRANCH 24 27
ATOM     27  CA  ASP C   1      51.449  33.406  31.158  1.00 19.04 LIG 0.28  C 
BRANCH 27 28
ATOM     28  CB  ASP C   1      50.485  32.253  31.270  1.00 21.34 LIG 0.15  C 
BRANCH 28 29
ATOM     29  CG  ASP C   1      50.116  31.663  29.884  1.00 23.67 LIG 0.17  C 
ATOM     30 OD2  ASP C   1      48.894  31.618  29.574  1.00 27.41 LIG-0.65  OA
ATOM     31 OD1  ASP C   1      51.034  31.222  29.118  1.00 20.87 LIG-0.65  OA
ENDBRANCH 28 29
ENDBRANCH 27 28
BRANCH 27 32
ATOM     32  N   ASP C   1      52.079  33.446  29.788  1.00 18.38 LIG-0.07  N 
ATOM     33 H1   ASP C   1      52.258  32.617  29.519  1.00 18.38 LIG 0.28  HD
ATOM     34 H3   ASP C   1      52.834  33.916  29.823  1.00 18.38 LIG 0.28  HD
ATOM     35 H2   ASP C   1      51.518  33.830  29.214  1.00 18.38 LIG 0.28  HD
ENDBRANCH 27 32
ENDBRANCH 24 27
ENDBRANCH 10 23
ENDBRANCH 8 10
ENDBRANCH 5 6
BRANCH 5 36
ATOM     36  CB  VAL C   3      52.323  28.815  34.763  1.00 17.74 LIG 0.01  C 
ATOM     37  CG1 VAL C   3      51.105  28.693  35.654  1.00 20.72 LIG 0.01  C 
ATOM     38  CG2 VAL C   3      51.839  29.126  33.358  1.00 18.64 LIG 0.01  C 
ENDBRANCH 5 36
ENDBRANCH 1 5
BRANCH 3 39
ATOM     39  CA  TYR C   4      56.907  28.625  35.123  1.00 17.90 LIG 0.18  C 
BRANCH 39 40
ATOM     40  CB  TYR C   4      57.938  29.441  35.840  1.00 20.19 LIG 0.07  C 
BRANCH 40 41
ATOM     41  CG  TYR C   4      57.417  30.581  36.674  1.00 23.00 LIG-0.06  A 
ATOM     42  CD2 TYR C   4      57.598  31.902  36.261  1.00 26.62 LIG 0.01  A 
ATOM     43  CE2 TYR C   4      57.134  32.963  37.012  1.00 28.63 LIG 0.04  A 
ATOM     44  CZ  TYR C   4      56.488  32.713  38.184  1.00 25.42 LIG 0.07  A 
ATOM     45  CE1 TYR C   4      56.255  31.445  38.595  1.00 26.89 LIG 0.04  A 
ATOM     46  CD1 TYR C   4      56.730  30.367  37.834  1.00 24.41 LIG 0.01  A 
BRANCH 44 47
ATOM     47 OH   TYR C   4      56.024  33.764  38.921  1.00 32.39 LIG-0.36  OA
ATOM     48 HH   TYR C   4      55.642  33.474  39.611  1.00 32.39 LIG 0.22  HD
ENDBRANCH 44 47
ENDBRANCH 40 41
ENDBRANCH 39 40
BRANCH 39 49
ATOM     49  C   TYR C   4      57.198  27.100  35.234  1.00 20.63 LIG 0.24  C 
ATOM     50 O    TYR C   4      56.397  26.286  34.867  1.00 19.73 LIG-0.27  OA
ATOM     51  N   ILE C   5      58.415  26.759  35.631  1.00 22.91 LIG-0.35  N 
ATOM     52 H    ILE C   5      59.048  27.321  35.784  1.00 22.91 LIG 0.16  HD
BRANCH 51 53
ATOM     53  CA  ILE C   5      58.774  25.368  35.842  1.00 27.58 LIG 0.18  C 
BRANCH 53 54
ATOM     54  C   ILE C   5      58.556  24.582  34.551  1.00 33.14 LIG 0.24  C 
ATOM     55  N   HIS C   6      59.029  25.121  33.420  1.00 39.14 LIG-0.35  N 
ATOM     56 H    HIS C   6      59.387  25.903  33.389  1.00 39.14 LIG 0.16  HD
ATOM     57 O    ILE C   5      57.874  23.563  34.601  1.00 25.88 LIG-0.27  OA
BRANCH 55 58
ATOM     58  CA  HIS C   6      58.991  24.427  32.082  1.00 56.87 LIG 0.17  C 
BRANCH 58 59
ATOM     59  CB  HIS C   6      59.772  23.082  32.136  1.00 66.39 LIG 0.09  C 
BRANCH 59 60
ATOM     60  CG  HIS C   6      60.687  22.935  33.319  1.00 78.50 LIG 0.06  A 
ATOM     61  CD2 HIS C   6      60.778  21.947  34.245  1.00 82.71 LIG 0.14  A 
ATOM     62 NE2  HIS C   6      61.815  22.271  35.089  1.00 84.02 LIG-0.25  NA
ATOM     63  CE1 HIS C   6      62.359  23.407  34.686  1.00 85.20 LIG 0.23  A 
ATOM     64 ND1  HIS C   6      61.703  23.827  33.616  1.00 88.66 LIG-0.24  NA
ENDBRANCH 59 60
ENDBRANCH 58 59
BRANCH 58 65
ATOM     65  C   HIS C   6      57.610  24.132  31.479  1.00 59.18 LIG 0.22  C 
ATOM     66 O    HIS C   6      56.564  24.306  32.160  1.00 63.69 LIG-0.29  OA
ENDBRANCH 58 65
ENDBRANCH 55 58
ENDBRANCH 53 54
BRANCH 53 67
ATOM     67  CB  ILE C   5      57.970  24.796  37.002  1.00 28.54 LIG 0.01  C 
ATOM     68  CG2 ILE C   5      58.476  23.385  37.294  1.00 32.34 LIG 0.01  C 
BRANCH 67 69
ATOM     69  CG1 ILE C   5      58.101  25.781  38.175  1.00 30.21 LIG 0.00  C 
ATOM     70  CD1 ILE C   5      59.399  26.543  38.268  1.00 32.85 LIG 0.01  C 
ENDBRANCH 67 69
ENDBRANCH 53 67
ENDBRANCH 51 53
ENDBRANCH 39 49
ENDBRANCH 3 39
TORSDOF 26
ENDMDL
MODEL 67
USER: ADFR SOLUTION from run 7
USER: SCORE 19.265193 LL:  -4.924 LR: -16.931 RR:   0.000 FEB:  -9.175
USER: RMSD 10.202622
USER: SEED 215705
USER: STATUS no improvement in best in 17 clusters for 5 generations
USER: GENES 28
USER: genes 0 Translation |==|  0.48019 0.53720 0.52690
USER: genes 1 Rotation |==|  0.60756 0.09035 0.31164 0.68746
USER: genes 2 Torsion [N]-C--CA-[N] |==|  0.52792
USER: genes 3 Torsion [C]-CA--N-[C] |==|  0.19169
USER: genes 4 Torsion [N]-C--CA-[N] |==|  0.67250
USER: genes 5 Torsion [C]-CA--CB-[CG] |==|  0.24000
USER: genes 6 Torsion [CA]-CB--CG-[CD] |==|  0.19126
USER: genes 7 Torsion [CB]-CG--CD-[NE] |==|  0.32510
USER: genes 8 Torsion [CG]-CD--NE-[CZ] |==|  0.33269
USER: genes 9 Torsion [C]-CA--N-[C] |==|  0.72592
USER: genes 10 Torsion [N]-C--CA-[N] |==|  0.40066
USER: genes 11 Torsion [C]-CA--CB-[CG] |==|  0.61339
USER: genes 12 Torsion [CA]-CB--CG-[OD2] |==|  0.86641
USER: genes 13 Torsion [C]-CA--N-[H1] |==|  0.16549
USER: genes 14 Torsion [C]-CA--CB-[CG1] |==|  0.21451
USER: genes 15 Torsion [C]-N--CA-[CB] |==|  0.19869
USER: genes 16 Torsion [N]-CA--CB-[CG] |==|  0.71531
USER: genes 17 Torsion [CA]-CB--CG-[CD2] |==|  0.30700
USER: genes 18 Torsion [CE2]-CZ--OH-[HH] |==|  0.64566
USER: genes 19 Torsion [N]-CA--C-[N] |==|  0.66966
USER: genes 20 Torsion [C]-N--CA-[C] |==|  0.61492
USER: genes 21 Torsion [N]-CA--C-[N] |==|  0.42324
USER: genes 22 Torsion [C]-N--CA-[CB] |==|  0.22116
USER: genes 23 Torsion [N]-CA--CB-[CG] |==|  0.70220
USER: genes 24 Torsion [CA]-CB--CG-[CD2] |==|  0.53647
USER: genes 25 Torsion [N]-CA--C-[O] |==|  0.48263
USER: genes 26 Torsion [N]-CA--CB-[CG1] |==|  0.50243
USER: genes 27 Torsion [CA]-CB--CG1-[CD1] |==|  0.33783
ROOT
ATOM      1  C   VAL C   3      53.802  30.279  35.067  1.00 15.94 LIG 0.24  C 
ATOM      2 O    VAL C   3      54.447  31.294  34.889  1.00 17.86 LIG-0.27  OA
ATOM      3  N   TYR C   4      54.382  29.151  35.467  1.00 16.41 LIG-0.35  N 
ATOM      4 H    TYR C   4      53.961  28.410  35.585  1.00 16.41 LIG 0.16  HD
ENDROOT
BRANCH 1 5
ATOM      5  CA  VAL C   3      52.286  30.279  34.785  1.00 16.01 LIG 0.18  C 
BRANCH 5 6
ATOM      6  N   VAL C   3      51.974  31.568  34.134  1.00 15.77 LIG-0.35  N 
ATOM      7 H    VAL C   3      51.507  32.117  34.604  1.00 15.77 LIG 0.16  HD
ATOM      8  C   ARG C   2      52.412  31.802  32.908  1.00 16.54 LIG 0.24  C 
ATOM      9 O    ARG C   2      53.175  31.017  32.305  1.00 14.63 LIG-0.27  OA
BRANCH 8 10
ATOM     10  CA  ARG C   2      51.967  33.095  32.252  1.00 19.03 LIG 0.18  C 
BRANCH 10 11
ATOM     11  CB  ARG C   2      51.149  33.912  33.258  1.00 20.38 LIG 0.04  C 
BRANCH 11 12
ATOM     12  CG  ARG C   2      51.950  34.792  34.157  1.00 20.75 LIG 0.02  C 
BRANCH 12 13
ATOM     13  CD  ARG C   2      52.553  35.896  33.409  1.00 22.55 LIG 0.14  C 
BRANCH 13 14
ATOM     14  NE  ARG C   2      52.073  37.180  33.840  1.00 20.36 LIG-0.23  N 
ATOM     15  CZ  ARG C   2      52.835  38.135  34.331  1.00 23.11 LIG 0.67  C 
ATOM     16  NH1 ARG C   2      54.117  38.014  34.333  1.00 23.20 LIG-0.23  N 
ATOM     17  NH2 ARG C   2      52.269  39.278  34.736  1.00 25.55 LIG-0.23  N 
ATOM     18 1HH1 ARG C   2      54.482  37.304  34.012  1.00 23.20 LIG 0.17  HD
ATOM     19 2HH1 ARG C   2      54.607  38.642  34.655  1.00 23.20 LIG 0.17  HD
ATOM     20 2HH2 ARG C   2      52.756  39.909  35.058  1.00 25.55 LIG 0.17  HD
ATOM     21 1HH2 ARG C   2      51.417  39.381  34.674  1.00 25.55 LIG 0.17  HD
ATOM     22 HE   ARG C   2      51.230  37.335  33.774  1.00 20.36 LIG 0.18  HD
ENDBRANCH 13 14
ENDBRANCH 12 13
ENDBRANCH 11 12
ENDBRANCH 10 11
BRANCH 10 23
ATOM     23  N   ARG C   2      51.174  32.826  31.041  1.00 19.42 LIG-0.35  N 
ATOM     24  C   ASP C   1      51.750  32.887  29.849  1.00 19.51 LIG 0.25  C 
ATOM     25 O    ASP C   1      52.983  32.930  29.710  1.00 19.29 LIG-0.27  OA
ATOM     26 H    ARG C   2      50.346  32.637  31.179  1.00 19.42 LIG 0.16  HD
BRANCH 24 27
ATOM     27  CA  ASP C   1      50.852  32.930  28.624  1.00 19.04 LIG 0.28  C 
BRANCH 27 28
ATOM     28  CB  ASP C   1      50.691  31.534  28.081  1.00 21.34 LIG 0.15  C 
BRANCH 28 29
ATOM     29  CG  ASP C   1      50.742  31.501  26.532  1.00 23.67 LIG 0.17  C 
ATOM     30 OD2  ASP C   1      50.032  32.335  25.906  1.00 27.41 LIG-0.65  OA
ATOM     31 OD1  ASP C   1      51.462  30.633  25.938  1.00 20.87 LIG-0.65  OA
ENDBRANCH 28 29
ENDBRANCH 27 28
BRANCH 27 32
ATOM     32  N   ASP C   1      51.518  33.827  27.610  1.00 18.38 LIG-0.07  N 
ATOM     33 H1   ASP C   1      52.320  33.498  27.405  1.00 18.38 LIG 0.28  HD
ATOM     34 H3   ASP C   1      51.610  34.644  27.951  1.00 18.38 LIG 0.28  HD
ATOM     35 H2   ASP C   1      51.018  33.868  26.875  1.00 18.38 LIG 0.28  HD
ENDBRANCH 27 32
ENDBRANCH 24 27
ENDBRANCH 10 23
ENDBRANCH 8 10
ENDBRANCH 5 6
BRANCH 5 36
ATOM     36  CB  VAL C   3      51.985  29.087  33.903  1.00 17.74 LIG 0.01  C 
ATOM     37  CG1 VAL C   3      51.968  27.795  34.692  1.00 20.72 LIG 0.01  C 
ATOM     38  CG2 VAL C   3      50.635  29.234  33.226  1.00 18.64 LIG 0.01  C 
ENDBRANCH 5 36
ENDBRANCH 1 5
BRANCH 3 39
ATOM     39  CA  TYR C   4      55.811  29.082  35.745  1.00 17.90 LIG 0.18  C 
BRANCH 39 40
ATOM     40  CB  TYR C   4      56.145  29.817  37.007  1.00 20.19 LIG 0.07  C 
BRANCH 40 41
ATOM     41  CG  TYR C   4      56.763  31.179  36.835  1.00 23.00 LIG-0.06  A 
ATOM     42  CD2 TYR C   4      56.048  32.329  37.173  1.00 26.62 LIG 0.01  A 
ATOM     43  CE2 TYR C   4      56.592  33.588  37.019  1.00 28.63 LIG 0.04  A 
ATOM     44  CZ  TYR C   4      57.854  33.709  36.521  1.00 25.42 LIG 0.07  A 
ATOM     45  CE1 TYR C   4      58.593  32.615  36.223  1.00 26.89 LIG 0.04  A 
ATOM     46  CD1 TYR C   4      58.039  31.336  36.377  1.00 24.41 LIG 0.01  A 
BRANCH 44 47
ATOM     47 OH   TYR C   4      58.392  34.954  36.375  1.00 32.39 LIG-0.36  OA
ATOM     48 HH   TYR C   4      58.675  35.047  35.590  1.00 32.39 LIG 0.22  HD
ENDBRANCH 44 47
ENDBRANCH 40 41
ENDBRANCH 39 40
BRANCH 39 49
ATOM     49  C   TYR C   4      56.360  27.627  35.761  1.00 20.63 LIG 0.24  C 
ATOM     50 O    TYR C   4      56.400  26.965  34.761  1.00 19.73 LIG-0.27  OA
ATOM     51  N   ILE C   5      56.893  27.210  36.901  1.00 22.91 LIG-0.35  N 
ATOM     52 H    ILE C   5      56.989  27.704  37.599  1.00 22.91 LIG 0.16  HD
BRANCH 51 53
ATOM     53  CA  ILE C   5      57.368  25.847  37.054  1.00 27.58 LIG 0.18  C 
BRANCH 53 54
ATOM     54  C   ILE C   5      56.969  25.317  38.429  1.00 33.14 LIG 0.24  C 
ATOM     55  N   HIS C   6      56.800  23.994  38.549  1.00 39.14 LIG-0.35  N 
ATOM     56 H    HIS C   6      56.846  23.454  37.880  1.00 39.14 LIG 0.16  HD
ATOM     57 O    ILE C   5      56.724  26.130  39.315  1.00 25.88 LIG-0.27  OA
BRANCH 55 58
ATOM     58  CA  HIS C   6      56.510  23.302  39.857  1.00 56.87 LIG 0.17  C 
BRANCH 58 59
ATOM     59  CB  HIS C   6      55.006  23.440  40.232  1.00 66.39 LIG 0.09  C 
BRANCH 59 60
ATOM     60  CG  HIS C   6      54.726  24.389  41.364  1.00 78.50 LIG 0.06  A 
ATOM     61  CD2 HIS C   6      53.601  24.575  42.099  1.00 82.71 LIG 0.14  A 
ATOM     62 NE2  HIS C   6      53.884  25.532  43.046  1.00 84.02 LIG-0.25  NA
ATOM     63  CE1 HIS C   6      55.146  25.907  42.916  1.00 85.20 LIG 0.23  A 
ATOM     64 ND1  HIS C   6      55.680  25.228  41.912  1.00 88.66 LIG-0.24  NA
ENDBRANCH 59 60
ENDBRANCH 58 59
BRANCH 58 65
ATOM     65  C   HIS C   6      56.875  21.815  39.966  1.00 59.18 LIG 0.22  C 
ATOM     66 O    HIS C   6      56.769  21.208  41.065  1.00 63.69 LIG-0.29  OA
ENDBRANCH 58 65
ENDBRANCH 55 58
ENDBRANCH 53 54
BRANCH 53 67
ATOM     67  CB  ILE C   5      58.875  25.796  36.838  1.00 28.54 LIG 0.01  C 
ATOM     68  CG2 ILE C   5      59.539  26.762  37.816  1.00 32.34 LIG 0.01  C 
BRANCH 67 69
ATOM     69  CG1 ILE C   5      59.306  24.328  36.991  1.00 30.21 LIG 0.00  C 
ATOM     70  CD1 ILE C   5      59.999  23.705  35.805  1.00 32.85 LIG 0.01  C 
ENDBRANCH 67 69
ENDBRANCH 53 67
ENDBRANCH 51 53
ENDBRANCH 39 49
ENDBRANCH 3 39
TORSDOF 26
ENDMDL
MODEL 68
USER: ADFR SOLUTION from run 19
USER: SCORE 21.867132 LL:  -6.478 LR: -16.912 RR:   0.000 FEB:  -9.156
USER: RMSD 7.103279
USER: SEED 18
USER: STATUS no improvement in best in 6 clusters for 5 generations
USER: GENES 28
USER: genes 0 Translation |==|  0.39198 0.60766 0.47105
USER: genes 1 Rotation |==|  0.18460 0.48220 0.75090 0.79539
USER: genes 2 Torsion [N]-C--CA-[N] |==|  0.87722
USER: genes 3 Torsion [C]-CA--N-[C] |==|  0.70493
USER: genes 4 Torsion [N]-C--CA-[N] |==|  0.80980
USER: genes 5 Torsion [C]-CA--CB-[CG] |==|  0.16083
USER: genes 6 Torsion [CA]-CB--CG-[CD] |==|  0.29951
USER: genes 7 Torsion [CB]-CG--CD-[NE] |==|  0.86400
USER: genes 8 Torsion [CG]-CD--NE-[CZ] |==|  0.32260
USER: genes 9 Torsion [C]-CA--N-[C] |==|  0.59648
USER: genes 10 Torsion [N]-C--CA-[N] |==|  0.70176
USER: genes 11 Torsion [C]-CA--CB-[CG] |==|  0.52978
USER: genes 12 Torsion [CA]-CB--CG-[OD2] |==|  0.49731
USER: genes 13 Torsion [C]-CA--N-[H1] |==|  0.54022
USER: genes 14 Torsion [C]-CA--CB-[CG1] |==|  0.88348
USER: genes 15 Torsion [C]-N--CA-[CB] |==|  0.83848
USER: genes 16 Torsion [N]-CA--CB-[CG] |==|  0.69942
USER: genes 17 Torsion [CA]-CB--CG-[CD2] |==|  0.35978
USER: genes 18 Torsion [CE2]-CZ--OH-[HH] |==|  0.86536
USER: genes 19 Torsion [N]-CA--C-[N] |==|  0.89463
USER: genes 20 Torsion [C]-N--CA-[C] |==|  0.63967
USER: genes 21 Torsion [N]-CA--C-[N] |==|  0.21268
USER: genes 22 Torsion [C]-N--CA-[CB] |==|  0.83917
USER: genes 23 Torsion [N]-CA--CB-[CG] |==|  0.35777
USER: genes 24 Torsion [CA]-CB--CG-[CD2] |==|  0.74162
USER: genes 25 Torsion [N]-CA--C-[O] |==|  0.34976
USER: genes 26 Torsion [N]-CA--CB-[CG1] |==|  0.08584
USER: genes 27 Torsion [CA]-CB--CG1-[CD1] |==|  0.74992
ROOT
ATOM      1  C   VAL C   3      52.281  32.075  33.601  1.00 15.94 LIG 0.24  C 
ATOM      2 O    VAL C   3      51.450  31.249  33.926  1.00 17.86 LIG-0.27  OA
ATOM      3  N   TYR C   4      53.549  31.738  33.393  1.00 16.41 LIG-0.35  N 
ATOM      4 H    TYR C   4      54.167  32.298  33.182  1.00 16.41 LIG 0.16  HD
ENDROOT
BRANCH 1 5
ATOM      5  CA  VAL C   3      51.871  33.556  33.466  1.00 16.01 LIG 0.18  C 
BRANCH 5 6
ATOM      6  N   VAL C   3      52.909  34.351  34.155  1.00 15.77 LIG-0.35  N 
ATOM      7 H    VAL C   3      53.661  34.415  33.741  1.00 15.77 LIG 0.16  HD
ATOM      8  C   ARG C   2      52.639  34.900  35.327  1.00 16.54 LIG 0.24  C 
ATOM      9 O    ARG C   2      51.499  34.866  35.839  1.00 14.63 LIG-0.27  OA
BRANCH 8 10
ATOM     10  CA  ARG C   2      53.777  35.609  36.034  1.00 19.03 LIG 0.18  C 
BRANCH 10 11
ATOM     11  CB  ARG C   2      54.393  36.641  35.084  1.00 20.38 LIG 0.04  C 
BRANCH 11 12
ATOM     12  CG  ARG C   2      53.444  37.670  34.569  1.00 20.75 LIG 0.02  C 
BRANCH 12 13
ATOM     13  CD  ARG C   2      53.701  38.974  35.183  1.00 22.55 LIG 0.14  C 
BRANCH 13 14
ATOM     14  NE  ARG C   2      53.810  38.896  36.614  1.00 20.36 LIG-0.23  N 
ATOM     15  CZ  ARG C   2      54.901  39.177  37.296  1.00 23.11 LIG 0.67  C 
ATOM     16  NH1 ARG C   2      55.931  39.676  36.707  1.00 23.20 LIG-0.23  N 
ATOM     17  NH2 ARG C   2      54.894  39.031  38.626  1.00 25.55 LIG-0.23  N 
ATOM     18 1HH1 ARG C   2      55.910  39.830  35.861  1.00 23.20 LIG 0.17  HD
ATOM     19 2HH1 ARG C   2      56.639  39.857  37.160  1.00 23.20 LIG 0.17  HD
ATOM     20 2HH2 ARG C   2      55.600  39.211  39.082  1.00 25.55 LIG 0.17  HD
ATOM     21 1HH2 ARG C   2      54.182  38.757  39.025  1.00 25.55 LIG 0.17  HD
ATOM     22 HE   ARG C   2      53.115  38.650  37.055  1.00 20.36 LIG 0.18  HD
ENDBRANCH 13 14
ENDBRANCH 12 13
ENDBRANCH 11 12
ENDBRANCH 10 11
BRANCH 10 23
ATOM     23  N   ARG C   2      54.799  34.648  36.483  1.00 19.42 LIG-0.35  N 
ATOM     24  C   ASP C   1      55.453  34.862  37.617  1.00 19.51 LIG 0.25  C 
ATOM     25 O    ASP C   1      55.084  35.711  38.444  1.00 19.29 LIG-0.27  OA
ATOM     26 H    ARG C   2      54.923  33.974  35.964  1.00 19.42 LIG 0.16  HD
BRANCH 24 27
ATOM     27  CA  ASP C   1      56.706  34.046  37.882  1.00 19.04 LIG 0.28  C 
BRANCH 27 28
ATOM     28  CB  ASP C   1      57.123  33.353  36.611  1.00 21.34 LIG 0.15  C 
BRANCH 28 29
ATOM     29  CG  ASP C   1      58.231  32.297  36.858  1.00 23.67 LIG 0.17  C 
ATOM     30 OD2  ASP C   1      58.644  31.640  35.863  1.00 27.41 LIG-0.65  OA
ATOM     31 OD1  ASP C   1      58.669  32.101  38.038  1.00 20.87 LIG-0.65  OA
ENDBRANCH 28 29
ENDBRANCH 27 28
BRANCH 27 32
ATOM     32  N   ASP C   1      56.369  33.041  38.956  1.00 18.38 LIG-0.07  N 
ATOM     33 H1   ASP C   1      57.121  32.693  39.282  1.00 18.38 LIG 0.28  HD
ATOM     34 H3   ASP C   1      55.868  32.393  38.609  1.00 18.38 LIG 0.28  HD
ATOM     35 H2   ASP C   1      55.920  33.444  39.610  1.00 18.38 LIG 0.28  HD
ENDBRANCH 27 32
ENDBRANCH 24 27
ENDBRANCH 10 23
ENDBRANCH 8 10
ENDBRANCH 5 6
BRANCH 5 36
ATOM     36  CB  VAL C   3      51.776  33.870  31.989  1.00 17.74 LIG 0.01  C 
ATOM     37  CG1 VAL C   3      52.918  33.252  31.210  1.00 20.72 LIG 0.01  C 
ATOM     38  CG2 VAL C   3      50.478  33.348  31.400  1.00 18.64 LIG 0.01  C 
ENDBRANCH 5 36
ENDBRANCH 1 5
BRANCH 3 39
ATOM     39  CA  TYR C   4      54.003  30.357  33.511  1.00 17.90 LIG 0.18  C 
BRANCH 39 40
ATOM     40  CB  TYR C   4      53.717  29.817  34.878  1.00 20.19 LIG 0.07  C 
BRANCH 40 41
ATOM     41  CG  TYR C   4      54.911  29.620  35.774  1.00 23.00 LIG-0.06  A 
ATOM     42  CD2 TYR C   4      54.916  30.134  37.072  1.00 26.62 LIG 0.01  A 
ATOM     43  CE2 TYR C   4      56.001  29.970  37.909  1.00 28.63 LIG 0.04  A 
ATOM     44  CZ  TYR C   4      57.093  29.295  37.454  1.00 25.42 LIG 0.07  A 
ATOM     45  CE1 TYR C   4      57.108  28.745  36.218  1.00 26.89 LIG 0.04  A 
ATOM     46  CD1 TYR C   4      56.006  28.915  35.366  1.00 24.41 LIG 0.01  A 
BRANCH 44 47
ATOM     47 OH   TYR C   4      58.162  29.129  38.286  1.00 32.39 LIG-0.36  OA
ATOM     48 HH   TYR C   4      58.360  29.866  38.637  1.00 32.39 LIG 0.22  HD
ENDBRANCH 44 47
ENDBRANCH 40 41
ENDBRANCH 39 40
BRANCH 39 49
ATOM     49  C   TYR C   4      53.438  29.432  32.395  1.00 20.63 LIG 0.24  C 
ATOM     50 O    TYR C   4      54.069  28.498  31.982  1.00 19.73 LIG-0.27  OA
ATOM     51  N   ILE C   5      52.186  29.654  32.022  1.00 22.91 LIG-0.35  N 
ATOM     52 H    ILE C   5      51.670  30.237  32.386  1.00 22.91 LIG 0.16  HD
BRANCH 51 53
ATOM     53  CA  ILE C   5      51.581  28.901  30.938  1.00 27.58 LIG 0.18  C 
BRANCH 53 54
ATOM     54  C   ILE C   5      50.934  29.864  29.946  1.00 33.14 LIG 0.24  C 
ATOM     55  N   HIS C   6      51.750  30.521  29.110  1.00 39.14 LIG-0.35  N 
ATOM     56 H    HIS C   6      52.607  30.465  29.155  1.00 39.14 LIG 0.16  HD
ATOM     57 O    ILE C   5      49.726  30.065  30.035  1.00 25.88 LIG-0.27  OA
BRANCH 55 58
ATOM     58  CA  HIS C   6      51.265  31.424  28.004  1.00 56.87 LIG 0.17  C 
BRANCH 58 59
ATOM     59  CB  HIS C   6      50.334  30.648  27.027  1.00 66.39 LIG 0.09  C 
BRANCH 59 60
ATOM     60  CG  HIS C   6      49.015  31.314  26.756  1.00 78.50 LIG 0.06  A 
ATOM     61  CD2 HIS C   6      47.810  31.162  27.361  1.00 82.71 LIG 0.14  A 
ATOM     62 NE2  HIS C   6      46.937  32.044  26.766  1.00 84.02 LIG-0.25  NA
ATOM     63  CE1 HIS C   6      47.586  32.733  25.841  1.00 85.20 LIG 0.23  A 
ATOM     64 ND1  HIS C   6      48.843  32.318  25.818  1.00 88.66 LIG-0.24  NA
ENDBRANCH 59 60
ENDBRANCH 58 59
BRANCH 58 65
ATOM     65  C   HIS C   6      50.533  32.709  28.412  1.00 59.18 LIG 0.22  C 
ATOM     66 O    HIS C   6      50.920  33.830  27.986  1.00 63.69 LIG-0.29  OA
ENDBRANCH 58 65
ENDBRANCH 55 58
ENDBRANCH 53 54
BRANCH 53 67
ATOM     67  CB  ILE C   5      50.579  27.901  31.498  1.00 28.54 LIG 0.01  C 
ATOM     68  CG2 ILE C   5      51.287  26.562  31.697  1.00 32.34 LIG 0.01  C 
BRANCH 67 69
ATOM     69  CG1 ILE C   5      49.992  28.515  32.780  1.00 30.21 LIG 0.00  C 
ATOM     70  CD1 ILE C   5      50.719  28.205  34.065  1.00 32.85 LIG 0.01  C 
ENDBRANCH 67 69
ENDBRANCH 53 67
ENDBRANCH 51 53
ENDBRANCH 39 49
ENDBRANCH 3 39
TORSDOF 26
ENDMDL
MODEL 69
USER: ADFR SOLUTION from run 129
USER: SCORE 20.684518 LL:  -5.917 LR: -16.910 RR:   0.000 FEB:  -9.154
USER: RMSD 11.107533
USER: SEED 128
USER: STATUS no improvement in best in 8 clusters for 5 generations
USER: GENES 28
USER: genes 0 Translation |==|  0.40776 0.61149 0.45574
USER: genes 1 Rotation |==|  0.39459 0.06116 0.68275 0.61360
USER: genes 2 Torsion [N]-C--CA-[N] |==|  0.42176
USER: genes 3 Torsion [C]-CA--N-[C] |==|  0.63397
USER: genes 4 Torsion [N]-C--CA-[N] |==|  0.11333
USER: genes 5 Torsion [C]-CA--CB-[CG] |==|  0.62888
USER: genes 6 Torsion [CA]-CB--CG-[CD] |==|  0.54750
USER: genes 7 Torsion [CB]-CG--CD-[NE] |==|  0.32603
USER: genes 8 Torsion [CG]-CD--NE-[CZ] |==|  0.41639
USER: genes 9 Torsion [C]-CA--N-[C] |==|  0.13762
USER: genes 10 Torsion [N]-C--CA-[N] |==|  0.56629
USER: genes 11 Torsion [C]-CA--CB-[CG] |==|  0.87143
USER: genes 12 Torsion [CA]-CB--CG-[OD2] |==|  0.34264
USER: genes 13 Torsion [C]-CA--N-[H1] |==|  0.19272
USER: genes 14 Torsion [C]-CA--CB-[CG1] |==|  0.66190
USER: genes 15 Torsion [C]-N--CA-[CB] |==|  0.43394
USER: genes 16 Torsion [N]-CA--CB-[CG] |==|  0.83150
USER: genes 17 Torsion [CA]-CB--CG-[CD2] |==|  0.55530
USER: genes 18 Torsion [CE2]-CZ--OH-[HH] |==|  0.87686
USER: genes 19 Torsion [N]-CA--C-[N] |==|  0.46315
USER: genes 20 Torsion [C]-N--CA-[C] |==|  0.19977
USER: genes 21 Torsion [N]-CA--C-[N] |==|  0.79671
USER: genes 22 Torsion [C]-N--CA-[CB] |==|  0.14184
USER: genes 23 Torsion [N]-CA--CB-[CG] |==|  0.11972
USER: genes 24 Torsion [CA]-CB--CG-[CD2] |==|  0.15050
USER: genes 25 Torsion [N]-CA--C-[O] |==|  0.92759
USER: genes 26 Torsion [N]-CA--CB-[CG1] |==|  0.81359
USER: genes 27 Torsion [CA]-CB--CG1-[CD1] |==|  0.95606
ROOT
ATOM      1  C   VAL C   3      52.553  32.173  33.199  1.00 15.94 LIG 0.24  C 
ATOM      2 O    VAL C   3      53.534  31.835  32.567  1.00 17.86 LIG-0.27  OA
ATOM      3  N   TYR C   4      52.663  32.802  34.365  1.00 16.41 LIG-0.35  N 
ATOM      4 H    TYR C   4      51.992  33.039  34.848  1.00 16.41 LIG 0.16  HD
ENDROOT
BRANCH 1 5
ATOM      5  CA  VAL C   3      51.147  31.832  32.665  1.00 16.01 LIG 0.18  C 
BRANCH 5 6
ATOM      6  N   VAL C   3      51.246  31.803  31.191  1.00 15.77 LIG-0.35  N 
ATOM      7 H    VAL C   3      51.904  31.349  30.873  1.00 15.77 LIG 0.16  HD
ATOM      8  C   ARG C   2      50.352  32.454  30.465  1.00 16.54 LIG 0.24  C 
ATOM      9 O    ARG C   2      49.354  33.013  30.969  1.00 14.63 LIG-0.27  OA
BRANCH 8 10
ATOM     10  CA  ARG C   2      50.570  32.479  28.965  1.00 19.03 LIG 0.18  C 
BRANCH 10 11
ATOM     11  CB  ARG C   2      49.262  32.879  28.274  1.00 20.38 LIG 0.04  C 
BRANCH 11 12
ATOM     12  CG  ARG C   2      48.881  32.034  27.105  1.00 20.75 LIG 0.02  C 
BRANCH 12 13
ATOM     13  CD  ARG C   2      47.876  32.705  26.279  1.00 22.55 LIG 0.14  C 
BRANCH 13 14
ATOM     14  NE  ARG C   2      48.349  32.976  24.949  1.00 20.36 LIG-0.23  N 
ATOM     15  CZ  ARG C   2      47.583  33.026  23.880  1.00 23.11 LIG 0.67  C 
ATOM     16  NH1 ARG C   2      46.303  32.958  23.988  1.00 23.20 LIG-0.23  N 
ATOM     17  NH2 ARG C   2      48.144  33.250  22.685  1.00 25.55 LIG-0.23  N 
ATOM     18 1HH1 ARG C   2      45.940  32.879  24.764  1.00 23.20 LIG 0.17  HD
ATOM     19 2HH1 ARG C   2      45.809  32.991  23.285  1.00 23.20 LIG 0.17  HD
ATOM     20 2HH2 ARG C   2      47.654  33.285  21.980  1.00 25.55 LIG 0.17  HD
ATOM     21 1HH2 ARG C   2      48.995  33.359  22.624  1.00 25.55 LIG 0.17  HD
ATOM     22 HE   ARG C   2      49.191  33.115  24.845  1.00 20.36 LIG 0.18  HD
ENDBRANCH 13 14
ENDBRANCH 12 13
ENDBRANCH 11 12
ENDBRANCH 10 11
BRANCH 10 23
ATOM     23  N   ARG C   2      51.030  31.168  28.477  1.00 19.42 LIG-0.35  N 
ATOM     24  C   ASP C   1      50.379  30.068  28.830  1.00 19.51 LIG 0.25  C 
ATOM     25 O    ASP C   1      49.259  30.103  29.363  1.00 19.29 LIG-0.27  OA
ATOM     26 H    ARG C   2      51.724  31.187  27.969  1.00 19.42 LIG 0.16  HD
BRANCH 24 27
ATOM     27  CA  ASP C   1      51.056  28.730  28.587  1.00 19.04 LIG 0.28  C 
BRANCH 27 28
ATOM     28  CB  ASP C   1      51.842  28.800  27.303  1.00 21.34 LIG 0.15  C 
BRANCH 28 29
ATOM     29  CG  ASP C   1      51.025  29.443  26.153  1.00 23.67 LIG 0.17  C 
ATOM     30 OD2  ASP C   1      51.517  30.455  25.582  1.00 27.41 LIG-0.65  OA
ATOM     31 OD1  ASP C   1      49.889  28.962  25.835  1.00 20.87 LIG-0.65  OA
ENDBRANCH 28 29
ENDBRANCH 27 28
BRANCH 27 32
ATOM     32  N   ASP C   1      49.970  27.687  28.495  1.00 18.38 LIG-0.07  N 
ATOM     33 H1   ASP C   1      49.506  27.808  27.745  1.00 18.38 LIG 0.28  HD
ATOM     34 H3   ASP C   1      49.427  27.761  29.196  1.00 18.38 LIG 0.28  HD
ATOM     35 H2   ASP C   1      50.337  26.876  28.489  1.00 18.38 LIG 0.28  HD
ENDBRANCH 27 32
ENDBRANCH 24 27
ENDBRANCH 10 23
ENDBRANCH 8 10
ENDBRANCH 5 6
BRANCH 5 36
ATOM     36  CB  VAL C   3      50.748  30.495  33.252  1.00 17.74 LIG 0.01  C 
ATOM     37  CG1 VAL C   3      50.447  29.477  32.173  1.00 20.72 LIG 0.01  C 
ATOM     38  CG2 VAL C   3      51.852  29.929  34.127  1.00 18.64 LIG 0.01  C 
ENDBRANCH 5 36
ENDBRANCH 1 5
BRANCH 3 39
ATOM     39  CA  TYR C   4      53.962  33.149  34.928  1.00 17.90 LIG 0.18  C 
BRANCH 39 40
ATOM     40  CB  TYR C   4      53.840  34.297  35.882  1.00 20.19 LIG 0.07  C 
BRANCH 40 41
ATOM     41  CG  TYR C   4      53.317  35.585  35.303  1.00 23.00 LIG-0.06  A 
ATOM     42  CD2 TYR C   4      53.543  36.798  35.955  1.00 26.62 LIG 0.01  A 
ATOM     43  CE2 TYR C   4      53.067  37.990  35.446  1.00 28.63 LIG 0.04  A 
ATOM     44  CZ  TYR C   4      52.358  37.979  34.284  1.00 25.42 LIG 0.07  A 
ATOM     45  CE1 TYR C   4      52.156  36.827  33.601  1.00 26.89 LIG 0.04  A 
ATOM     46  CD1 TYR C   4      52.636  35.616  34.120  1.00 24.41 LIG 0.01  A 
BRANCH 44 47
ATOM     47 OH   TYR C   4      51.894  39.159  33.780  1.00 32.39 LIG-0.36  OA
ATOM     48 HH   TYR C   4      51.560  39.617  34.400  1.00 32.39 LIG 0.22  HD
ENDBRANCH 44 47
ENDBRANCH 40 41
ENDBRANCH 39 40
BRANCH 39 49
ATOM     49  C   TYR C   4      54.690  31.936  35.574  1.00 20.63 LIG 0.24  C 
ATOM     50 O    TYR C   4      54.144  30.874  35.696  1.00 19.73 LIG-0.27  OA
ATOM     51  N   ILE C   5      55.973  32.102  35.861  1.00 22.91 LIG-0.35  N 
ATOM     52 H    ILE C   5      56.422  32.811  35.673  1.00 22.91 LIG 0.16  HD
BRANCH 51 53
ATOM     53  CA  ILE C   5      56.733  31.065  36.535  1.00 27.58 LIG 0.18  C 
BRANCH 53 54
ATOM     54  C   ILE C   5      56.977  29.904  35.573  1.00 33.14 LIG 0.24  C 
ATOM     55  N   HIS C   6      55.931  29.118  35.285  1.00 39.14 LIG-0.35  N 
ATOM     56 H    HIS C   6      55.163  29.206  35.662  1.00 39.14 LIG 0.16  HD
ATOM     57 O    ILE C   5      58.128  29.689  35.203  1.00 25.88 LIG-0.27  OA
BRANCH 55 58
ATOM     58  CA  HIS C   6      55.978  27.998  34.277  1.00 56.87 LIG 0.17  C 
BRANCH 58 59
ATOM     59  CB  HIS C   6      57.190  27.060  34.551  1.00 66.39 LIG 0.09  C 
BRANCH 59 60
ATOM     60  CG  HIS C   6      57.406  26.722  35.999  1.00 78.50 LIG 0.06  A 
ATOM     61  CD2 HIS C   6      56.557  26.194  36.916  1.00 82.71 LIG 0.14  A 
ATOM     62 NE2  HIS C   6      57.265  26.034  38.086  1.00 84.02 LIG-0.25  NA
ATOM     63  CE1 HIS C   6      58.513  26.429  37.891  1.00 85.20 LIG 0.23  A 
ATOM     64 ND1  HIS C   6      58.628  26.842  36.638  1.00 88.66 LIG-0.24  NA
ENDBRANCH 59 60
ENDBRANCH 58 59
BRANCH 58 65
ATOM     65  C   HIS C   6      54.732  27.112  34.147  1.00 59.18 LIG 0.22  C 
ATOM     66 O    HIS C   6      53.941  26.973  35.119  1.00 63.69 LIG-0.29  OA
ENDBRANCH 58 65
ENDBRANCH 55 58
ENDBRANCH 53 54
BRANCH 53 67
ATOM     67  CB  ILE C   5      56.000  30.619  37.793  1.00 28.54 LIG 0.01  C 
ATOM     68  CG2 ILE C   5      56.662  29.347  38.317  1.00 32.34 LIG 0.01  C 
BRANCH 67 69
ATOM     69  CG1 ILE C   5      56.018  31.804  38.772  1.00 30.21 LIG 0.00  C 
ATOM     70  CD1 ILE C   5      57.003  32.906  38.472  1.00 32.85 LIG 0.01  C 
ENDBRANCH 67 69
ENDBRANCH 53 67
ENDBRANCH 51 53
ENDBRANCH 39 49
ENDBRANCH 3 39
TORSDOF 26
ENDMDL
MODEL 70
USER: ADFR SOLUTION from run 188
USER: SCORE 22.526134 LL:  -6.807 LR: -16.907 RR:   0.000 FEB:  -9.151
USER: RMSD 9.109153
USER: SEED 187
USER: STATUS 1 or 2 clusters left
USER: GENES 28
USER: genes 0 Translation |==|  0.59365 0.62691 0.58635
USER: genes 1 Rotation |==|  0.42106 0.83413 0.79134 0.71737
USER: genes 2 Torsion [N]-C--CA-[N] |==|  0.24321
USER: genes 3 Torsion [C]-CA--N-[C] |==|  0.73988
USER: genes 4 Torsion [N]-C--CA-[N] |==|  0.11091
USER: genes 5 Torsion [C]-CA--CB-[CG] |==|  0.22543
USER: genes 6 Torsion [CA]-CB--CG-[CD] |==|  0.62443
USER: genes 7 Torsion [CB]-CG--CD-[NE] |==|  0.19295
USER: genes 8 Torsion [CG]-CD--NE-[CZ] |==|  0.46775
USER: genes 9 Torsion [C]-CA--N-[C] |==|  0.16073
USER: genes 10 Torsion [N]-C--CA-[N] |==|  0.14043
USER: genes 11 Torsion [C]-CA--CB-[CG] |==|  0.58445
USER: genes 12 Torsion [CA]-CB--CG-[OD2] |==|  0.92097
USER: genes 13 Torsion [C]-CA--N-[H1] |==|  0.48655
USER: genes 14 Torsion [C]-CA--CB-[CG1] |==|  0.79560
USER: genes 15 Torsion [C]-N--CA-[CB] |==|  0.50556
USER: genes 16 Torsion [N]-CA--CB-[CG] |==|  0.85532
USER: genes 17 Torsion [CA]-CB--CG-[CD2] |==|  0.74212
USER: genes 18 Torsion [CE2]-CZ--OH-[HH] |==|  0.87350
USER: genes 19 Torsion [N]-CA--C-[N] |==|  0.36498
USER: genes 20 Torsion [C]-N--CA-[C] |==|  0.76319
USER: genes 21 Torsion [N]-CA--C-[N] |==|  0.89315
USER: genes 22 Torsion [C]-N--CA-[CB] |==|  0.22950
USER: genes 23 Torsion [N]-CA--CB-[CG] |==|  0.12453
USER: genes 24 Torsion [CA]-CB--CG-[CD2] |==|  0.53819
USER: genes 25 Torsion [N]-CA--C-[O] |==|  0.99322
USER: genes 26 Torsion [N]-CA--CB-[CG1] |==|  0.91727
USER: genes 27 Torsion [CA]-CB--CG1-[CD1] |==|  0.29315
ROOT
ATOM      1  C   VAL C   3      55.759  32.566  36.628  1.00 15.94 LIG 0.24  C 
ATOM      2 O    VAL C   3      56.099  32.391  37.782  1.00 17.86 LIG-0.27  OA
ATOM      3  N   TYR C   4      55.312  31.564  35.877  1.00 16.41 LIG-0.35  N 
ATOM      4 H    TYR C   4      55.082  31.648  35.053  1.00 16.41 LIG 0.16  HD
ENDROOT
BRANCH 1 5
ATOM      5  CA  VAL C   3      55.886  33.969  36.000  1.00 16.01 LIG 0.18  C 
BRANCH 5 6
ATOM      6  N   VAL C   3      54.576  34.632  36.169  1.00 15.77 LIG-0.35  N 
ATOM      7 H    VAL C   3      54.462  35.042  36.917  1.00 15.77 LIG 0.16  HD
ATOM      8  C   ARG C   2      53.681  34.562  35.198  1.00 16.54 LIG 0.24  C 
ATOM      9 O    ARG C   2      53.931  34.045  34.088  1.00 14.63 LIG-0.27  OA
BRANCH 8 10
ATOM     10  CA  ARG C   2      52.318  35.167  35.474  1.00 19.03 LIG 0.18  C 
BRANCH 10 11
ATOM     11  CB  ARG C   2      51.594  35.402  34.143  1.00 20.38 LIG 0.04  C 
BRANCH 11 12
ATOM     12  CG  ARG C   2      50.931  34.199  33.564  1.00 20.75 LIG 0.02  C 
BRANCH 12 13
ATOM     13  CD  ARG C   2      51.203  34.091  32.129  1.00 22.55 LIG 0.14  C 
BRANCH 13 14
ATOM     14  NE  ARG C   2      52.575  33.764  31.851  1.00 20.36 LIG-0.23  N 
ATOM     15  CZ  ARG C   2      53.030  33.397  30.672  1.00 23.11 LIG 0.67  C 
ATOM     16  NH1 ARG C   2      52.269  33.435  29.635  1.00 23.20 LIG-0.23  N 
ATOM     17  NH2 ARG C   2      54.324  33.080  30.543  1.00 25.55 LIG-0.23  N 
ATOM     18 1HH1 ARG C   2      51.455  33.702  29.709  1.00 23.20 LIG 0.17  HD
ATOM     19 2HH1 ARG C   2      52.575  33.194  28.868  1.00 23.20 LIG 0.17  HD
ATOM     20 2HH2 ARG C   2      54.634  32.839  29.778  1.00 25.55 LIG 0.17  HD
ATOM     21 1HH2 ARG C   2      54.846  33.117  31.226  1.00 25.55 LIG 0.17  HD
ATOM     22 HE   ARG C   2      53.136  33.811  32.501  1.00 20.36 LIG 0.18  HD
ENDBRANCH 13 14
ENDBRANCH 12 13
ENDBRANCH 11 12
ENDBRANCH 10 11
BRANCH 10 23
ATOM     23  N   ARG C   2      52.442  36.429  36.222  1.00 19.42 LIG-0.35  N 
ATOM     24  C   ASP C   1      53.156  37.427  35.719  1.00 19.51 LIG 0.25  C 
ATOM     25 O    ASP C   1      53.535  37.439  34.536  1.00 19.29 LIG-0.27  OA
ATOM     26 H    ARG C   2      52.029  36.451  36.976  1.00 19.42 LIG 0.16  HD
BRANCH 24 27
ATOM     27  CA  ASP C   1      53.532  38.572  36.642  1.00 19.04 LIG 0.28  C 
BRANCH 27 28
ATOM     28  CB  ASP C   1      54.519  39.468  35.940  1.00 21.34 LIG 0.15  C 
BRANCH 28 29
ATOM     29  CG  ASP C   1      55.494  40.153  36.933  1.00 23.67 LIG 0.17  C 
ATOM     30 OD2  ASP C   1      55.080  40.366  38.105  1.00 27.41 LIG-0.65  OA
ATOM     31 OD1  ASP C   1      56.655  40.504  36.542  1.00 20.87 LIG-0.65  OA
ENDBRANCH 28 29
ENDBRANCH 27 28
BRANCH 27 32
ATOM     32  N   ASP C   1      54.144  37.967  37.882  1.00 18.38 LIG-0.07  N 
ATOM     33 H1   ASP C   1      54.440  38.617  38.414  1.00 18.38 LIG 0.28  HD
ATOM     34 H3   ASP C   1      54.823  37.440  37.651  1.00 18.38 LIG 0.28  HD
ATOM     35 H2   ASP C   1      53.531  37.487  38.313  1.00 18.38 LIG 0.28  HD
ENDBRANCH 27 32
ENDBRANCH 24 27
ENDBRANCH 10 23
ENDBRANCH 8 10
ENDBRANCH 5 6
BRANCH 5 36
ATOM     36  CB  VAL C   3      57.005  34.691  36.719  1.00 17.74 LIG 0.01  C 
ATOM     37  CG1 VAL C   3      56.593  35.120  38.111  1.00 20.72 LIG 0.01  C 
ATOM     38  CG2 VAL C   3      58.231  33.806  36.852  1.00 18.64 LIG 0.01  C 
ENDBRANCH 5 36
ENDBRANCH 1 5
BRANCH 3 39
ATOM     39  CA  TYR C   4      55.174  30.214  36.407  1.00 17.90 LIG 0.18  C 
BRANCH 39 40
ATOM     40  CB  TYR C   4      54.698  29.270  35.346  1.00 20.19 LIG 0.07  C 
BRANCH 40 41
ATOM     41  CG  TYR C   4      53.460  29.687  34.597  1.00 23.00 LIG-0.06  A 
ATOM     42  CD2 TYR C   4      52.199  29.266  35.022  1.00 26.62 LIG 0.01  A 
ATOM     43  CE2 TYR C   4      51.052  29.631  34.348  1.00 28.63 LIG 0.04  A 
ATOM     44  CZ  TYR C   4      51.154  30.416  33.241  1.00 25.42 LIG 0.07  A 
ATOM     45  CE1 TYR C   4      52.355  30.880  32.825  1.00 26.89 LIG 0.04  A 
ATOM     46  CD1 TYR C   4      53.522  30.507  33.507  1.00 24.41 LIG 0.01  A 
BRANCH 44 47
ATOM     47 OH   TYR C   4      50.017  30.781  32.580  1.00 32.39 LIG-0.36  OA
ATOM     48 HH   TYR C   4      49.520  30.110  32.488  1.00 32.39 LIG 0.22  HD
ENDBRANCH 44 47
ENDBRANCH 40 41
ENDBRANCH 39 40
BRANCH 39 49
ATOM     49  C   TYR C   4      56.466  29.696  37.103  1.00 20.63 LIG 0.24  C 
ATOM     50 O    TYR C   4      57.549  29.886  36.625  1.00 19.73 LIG-0.27  OA
ATOM     51  N   ILE C   5      56.313  29.154  38.303  1.00 22.91 LIG-0.35  N 
ATOM     52 H    ILE C   5      55.564  29.114  38.723  1.00 22.91 LIG 0.16  HD
BRANCH 51 53
ATOM     53  CA  ILE C   5      57.437  28.570  39.012  1.00 27.58 LIG 0.18  C 
BRANCH 53 54
ATOM     54  C   ILE C   5      57.630  27.124  38.563  1.00 33.14 LIG 0.24  C 
ATOM     55  N   HIS C   6      56.525  26.400  38.338  1.00 39.14 LIG-0.35  N 
ATOM     56 H    HIS C   6      55.733  26.697  38.495  1.00 39.14 LIG 0.16  HD
ATOM     57 O    ILE C   5      58.772  26.672  38.533  1.00 25.88 LIG-0.27  OA
BRANCH 55 58
ATOM     58  CA  HIS C   6      56.541  24.996  37.791  1.00 56.87 LIG 0.17  C 
BRANCH 58 59
ATOM     59  CB  HIS C   6      56.803  23.964  38.927  1.00 66.39 LIG 0.09  C 
BRANCH 59 60
ATOM     60  CG  HIS C   6      56.012  24.200  40.183  1.00 78.50 LIG 0.06  A 
ATOM     61  CD2 HIS C   6      56.157  23.676  41.426  1.00 82.71 LIG 0.14  A 
ATOM     62 NE2  HIS C   6      55.204  24.259  42.230  1.00 84.02 LIG-0.25  NA
ATOM     63  CE1 HIS C   6      54.510  25.128  41.514  1.00 85.20 LIG 0.23  A 
ATOM     64 ND1  HIS C   6      54.980  25.118  40.277  1.00 88.66 LIG-0.24  NA
ENDBRANCH 59 60
ENDBRANCH 58 59
BRANCH 58 65
ATOM     65  C   HIS C   6      55.299  24.524  37.021  1.00 59.18 LIG 0.22  C 
ATOM     66 O    HIS C   6      54.296  25.277  36.901  1.00 63.69 LIG-0.29  OA
ENDBRANCH 58 65
ENDBRANCH 55 58
ENDBRANCH 53 54
BRANCH 53 67
ATOM     67  CB  ILE C   5      57.213  28.676  40.514  1.00 28.54 LIG 0.01  C 
ATOM     68  CG2 ILE C   5      58.573  28.679  41.210  1.00 32.34 LIG 0.01  C 
BRANCH 67 69
ATOM     69  CG1 ILE C   5      56.363  29.933  40.759  1.00 30.21 LIG 0.00  C 
ATOM     70  CD1 ILE C   5      54.914  29.705  41.110  1.00 32.85 LIG 0.01  C 
ENDBRANCH 67 69
ENDBRANCH 53 67
ENDBRANCH 51 53
ENDBRANCH 39 49
ENDBRANCH 3 39
TORSDOF 26
ENDMDL
MODEL 71
USER: ADFR SOLUTION from run 31
USER: SCORE 20.092264 LL:  -5.684 LR: -16.904 RR:   0.000 FEB:  -9.148
USER: RMSD 8.644396
USER: SEED 30
USER: STATUS no improvement in best in 9 clusters for 5 generations
USER: GENES 28
USER: genes 0 Translation |==|  0.54019 0.60013 0.54882
USER: genes 1 Rotation |==|  0.65182 0.11063 0.31146 0.69948
USER: genes 2 Torsion [N]-C--CA-[N] |==|  0.51777
USER: genes 3 Torsion [C]-CA--N-[C] |==|  0.20343
USER: genes 4 Torsion [N]-C--CA-[N] |==|  0.66236
USER: genes 5 Torsion [C]-CA--CB-[CG] |==|  0.27446
USER: genes 6 Torsion [CA]-CB--CG-[CD] |==|  0.89718
USER: genes 7 Torsion [CB]-CG--CD-[NE] |==|  0.40782
USER: genes 8 Torsion [CG]-CD--NE-[CZ] |==|  0.23499
USER: genes 9 Torsion [C]-CA--N-[C] |==|  0.15097
USER: genes 10 Torsion [N]-C--CA-[N] |==|  0.10706
USER: genes 11 Torsion [C]-CA--CB-[CG] |==|  0.50953
USER: genes 12 Torsion [CA]-CB--CG-[OD2] |==|  0.92553
USER: genes 13 Torsion [C]-CA--N-[H1] |==|  0.10588
USER: genes 14 Torsion [C]-CA--CB-[CG1] |==|  0.21273
USER: genes 15 Torsion [C]-N--CA-[CB] |==|  0.22297
USER: genes 16 Torsion [N]-CA--CB-[CG] |==|  0.15733
USER: genes 17 Torsion [CA]-CB--CG-[CD2] |==|  0.23860
USER: genes 18 Torsion [CE2]-CZ--OH-[HH] |==|  0.44256
USER: genes 19 Torsion [N]-CA--C-[N] |==|  0.92222
USER: genes 20 Torsion [C]-N--CA-[C] |==|  0.69162
USER: genes 21 Torsion [N]-CA--C-[N] |==|  0.35719
USER: genes 22 Torsion [C]-N--CA-[CB] |==|  0.28163
USER: genes 23 Torsion [N]-CA--CB-[CG] |==|  0.43407
USER: genes 24 Torsion [CA]-CB--CG-[CD2] |==|  0.19330
USER: genes 25 Torsion [N]-CA--C-[O] |==|  0.01908
USER: genes 26 Torsion [N]-CA--CB-[CG1] |==|  0.10624
USER: genes 27 Torsion [CA]-CB--CG1-[CD1] |==|  0.45081
ROOT
ATOM      1  C   VAL C   3      54.837  31.883  35.643  1.00 15.94 LIG 0.24  C 
ATOM      2 O    VAL C   3      55.287  33.009  35.556  1.00 17.86 LIG-0.27  OA
ATOM      3  N   TYR C   4      55.614  30.848  35.946  1.00 16.41 LIG-0.35  N 
ATOM      4 H    TYR C   4      55.334  30.036  35.996  1.00 16.41 LIG 0.16  HD
ENDROOT
BRANCH 1 5
ATOM      5  CA  VAL C   3      53.342  31.636  35.355  1.00 16.01 LIG 0.18  C 
BRANCH 5 6
ATOM      6  N   VAL C   3      52.777  32.923  34.901  1.00 15.77 LIG-0.35  N 
ATOM      7 H    VAL C   3      52.269  33.325  35.468  1.00 15.77 LIG 0.16  HD
ATOM      8  C   ARG C   2      53.069  33.374  33.692  1.00 16.54 LIG 0.24  C 
ATOM      9 O    ARG C   2      53.894  32.807  32.944  1.00 14.63 LIG-0.27  OA
BRANCH 8 10
ATOM     10  CA  ARG C   2      52.371  34.643  33.243  1.00 19.03 LIG 0.18  C 
BRANCH 10 11
ATOM     11  CB  ARG C   2      51.450  35.133  34.366  1.00 20.38 LIG 0.04  C 
BRANCH 11 12
ATOM     12  CG  ARG C   2      52.013  36.223  35.214  1.00 20.75 LIG 0.02  C 
BRANCH 12 13
ATOM     13  CD  ARG C   2      53.449  36.031  35.429  1.00 22.55 LIG 0.14  C 
BRANCH 13 14
ATOM     14  NE  ARG C   2      54.161  37.276  35.528  1.00 20.36 LIG-0.23  N 
ATOM     15  CZ  ARG C   2      54.285  37.979  36.634  1.00 23.11 LIG 0.67  C 
ATOM     16  NH1 ARG C   2      53.867  37.510  37.758  1.00 23.20 LIG-0.23  N 
ATOM     17  NH2 ARG C   2      54.941  39.145  36.596  1.00 25.55 LIG-0.23  N 
ATOM     18 1HH1 ARG C   2      53.503  36.732  37.790  1.00 23.20 LIG 0.17  HD
ATOM     19 2HH1 ARG C   2      53.952  37.976  38.476  1.00 23.20 LIG 0.17  HD
ATOM     20 2HH2 ARG C   2      55.029  39.613  37.312  1.00 25.55 LIG 0.17  HD
ATOM     21 1HH2 ARG C   2      55.275  39.426  35.855  1.00 25.55 LIG 0.17  HD
ATOM     22 HE   ARG C   2      54.532  37.582  34.816  1.00 20.36 LIG 0.18  HD
ENDBRANCH 13 14
ENDBRANCH 12 13
ENDBRANCH 11 12
ENDBRANCH 10 11
BRANCH 10 23
ATOM     23  N   ARG C   2      51.602  34.414  32.009  1.00 19.42 LIG-0.35  N 
ATOM     24  C   ASP C   1      50.704  33.439  31.963  1.00 19.51 LIG 0.25  C 
ATOM     25 O    ASP C   1      50.308  32.853  32.984  1.00 19.29 LIG-0.27  OA
ATOM     26 H    ARG C   2      51.783  34.946  31.359  1.00 19.42 LIG 0.16  HD
BRANCH 24 27
ATOM     27  CA  ASP C   1      50.173  33.023  30.602  1.00 19.04 LIG 0.28  C 
BRANCH 27 28
ATOM     28  CB  ASP C   1      49.611  31.628  30.698  1.00 21.34 LIG 0.15  C 
BRANCH 28 29
ATOM     29  CG  ASP C   1      49.124  31.099  29.324  1.00 23.67 LIG 0.17  C 
ATOM     30 OD2  ASP C   1      48.758  31.949  28.467  1.00 27.41 LIG-0.65  OA
ATOM     31 OD1  ASP C   1      49.081  29.844  29.106  1.00 20.87 LIG-0.65  OA
ENDBRANCH 28 29
ENDBRANCH 27 28
BRANCH 27 32
ATOM     32  N   ASP C   1      51.329  33.069  29.635  1.00 18.38 LIG-0.07  N 
ATOM     33 H1   ASP C   1      52.067  32.780  30.040  1.00 18.38 LIG 0.28  HD
ATOM     34 H3   ASP C   1      51.451  33.906  29.358  1.00 18.38 LIG 0.28  HD
ATOM     35 H2   ASP C   1      51.153  32.549  28.935  1.00 18.38 LIG 0.28  HD
ENDBRANCH 27 32
ENDBRANCH 24 27
ENDBRANCH 10 23
ENDBRANCH 8 10
ENDBRANCH 5 6
BRANCH 5 36
ATOM     36  CB  VAL C   3      53.254  30.552  34.303  1.00 17.74 LIG 0.01  C 
ATOM     37  CG1 VAL C   3      53.515  29.180  34.887  1.00 20.72 LIG 0.01  C 
ATOM     38  CG2 VAL C   3      51.880  30.526  33.658  1.00 18.64 LIG 0.01  C 
ENDBRANCH 5 36
ENDBRANCH 1 5
BRANCH 3 39
ATOM     39  CA  TYR C   4      57.035  31.013  36.223  1.00 17.90 LIG 0.18  C 
BRANCH 39 40
ATOM     40  CB  TYR C   4      57.253  31.487  37.627  1.00 20.19 LIG 0.07  C 
BRANCH 40 41
ATOM     41  CG  TYR C   4      56.670  30.625  38.714  1.00 23.00 LIG-0.06  A 
ATOM     42  CD2 TYR C   4      57.388  29.539  39.219  1.00 26.62 LIG 0.01  A 
ATOM     43  CE2 TYR C   4      56.870  28.732  40.212  1.00 28.63 LIG 0.04  A 
ATOM     44  CZ  TYR C   4      55.630  28.999  40.705  1.00 25.42 LIG 0.07  A 
ATOM     45  CE1 TYR C   4      54.923  30.068  40.271  1.00 26.89 LIG 0.04  A 
ATOM     46  CD1 TYR C   4      55.447  30.887  39.261  1.00 24.41 LIG 0.01  A 
BRANCH 44 47
ATOM     47 OH   TYR C   4      55.124  28.203  41.691  1.00 32.39 LIG-0.36  OA
ATOM     48 HH   TYR C   4      54.513  28.613  42.097  1.00 32.39 LIG 0.22  HD
ENDBRANCH 44 47
ENDBRANCH 40 41
ENDBRANCH 39 40
BRANCH 39 49
ATOM     49  C   TYR C   4      57.871  29.739  35.907  1.00 20.63 LIG 0.24  C 
ATOM     50 O    TYR C   4      59.052  29.804  35.705  1.00 19.73 LIG-0.27  OA
ATOM     51  N   ILE C   5      57.237  28.580  36.000  1.00 22.91 LIG-0.35  N 
ATOM     52 H    ILE C   5      56.422  28.494  36.262  1.00 22.91 LIG 0.16  HD
BRANCH 51 53
ATOM     53  CA  ILE C   5      57.897  27.333  35.656  1.00 27.58 LIG 0.18  C 
BRANCH 53 54
ATOM     54  C   ILE C   5      57.278  26.762  34.382  1.00 33.14 LIG 0.24  C 
ATOM     55  N   HIS C   6      58.116  26.424  33.393  1.00 39.14 LIG-0.35  N 
ATOM     56 H    HIS C   6      58.962  26.573  33.427  1.00 39.14 LIG 0.16  HD
ATOM     57 O    ILE C   5      56.053  26.741  34.290  1.00 25.88 LIG-0.27  OA
BRANCH 55 58
ATOM     58  CA  HIS C   6      57.677  25.752  32.117  1.00 56.87 LIG 0.17  C 
BRANCH 58 59
ATOM     59  CB  HIS C   6      57.589  26.782  30.953  1.00 66.39 LIG 0.09  C 
BRANCH 59 60
ATOM     60  CG  HIS C   6      57.717  26.188  29.579  1.00 78.50 LIG 0.06  A 
ATOM     61  CD2 HIS C   6      56.869  25.390  28.882  1.00 82.71 LIG 0.14  A 
ATOM     62 NE2  HIS C   6      57.437  25.167  27.648  1.00 84.02 LIG-0.25  NA
ATOM     63  CE1 HIS C   6      58.584  25.822  27.577  1.00 85.20 LIG 0.23  A 
ATOM     64 ND1  HIS C   6      58.775  26.452  28.726  1.00 88.66 LIG-0.24  NA
ENDBRANCH 59 60
ENDBRANCH 58 59
BRANCH 58 65
ATOM     65  C   HIS C   6      58.516  24.567  31.619  1.00 59.18 LIG 0.22  C 
ATOM     66 O    HIS C   6      59.450  24.101  32.325  1.00 63.69 LIG-0.29  OA
ENDBRANCH 58 65
ENDBRANCH 55 58
ENDBRANCH 53 54
BRANCH 53 67
ATOM     67  CB  ILE C   5      57.804  26.358  36.822  1.00 28.54 LIG 0.01  C 
ATOM     68  CG2 ILE C   5      58.969  26.624  37.772  1.00 32.34 LIG 0.01  C 
BRANCH 67 69
ATOM     69  CG1 ILE C   5      56.410  26.532  37.448  1.00 30.21 LIG 0.00  C 
ATOM     70  CD1 ILE C   5      55.932  25.412  38.339  1.00 32.85 LIG 0.01  C 
ENDBRANCH 67 69
ENDBRANCH 53 67
ENDBRANCH 51 53
ENDBRANCH 39 49
ENDBRANCH 3 39
TORSDOF 26
ENDMDL
MODEL 72
USER: ADFR SOLUTION from run 200
USER: SCORE 20.325660 LL:  -5.269 LR: -16.899 RR:   0.000 FEB:  -9.143
USER: RMSD 8.073807
USER: SEED 199
USER: STATUS no improvement in best in 10 clusters for 5 generations
USER: GENES 28
USER: genes 0 Translation |==|  0.65100 0.58138 0.58426
USER: genes 1 Rotation |==|  0.13681 0.37108 0.58959 0.80569
USER: genes 2 Torsion [N]-C--CA-[N] |==|  0.54765
USER: genes 3 Torsion [C]-CA--N-[C] |==|  0.52360
USER: genes 4 Torsion [N]-C--CA-[N] |==|  0.98253
USER: genes 5 Torsion [C]-CA--CB-[CG] |==|  0.08004
USER: genes 6 Torsion [CA]-CB--CG-[CD] |==|  0.31526
USER: genes 7 Torsion [CB]-CG--CD-[NE] |==|  0.79077
USER: genes 8 Torsion [CG]-CD--NE-[CZ] |==|  0.29897
USER: genes 9 Torsion [C]-CA--N-[C] |==|  0.75114
USER: genes 10 Torsion [N]-C--CA-[N] |==|  0.46473
USER: genes 11 Torsion [C]-CA--CB-[CG] |==|  0.46878
USER: genes 12 Torsion [CA]-CB--CG-[OD2] |==|  0.04726
USER: genes 13 Torsion [C]-CA--N-[H1] |==|  0.91126
USER: genes 14 Torsion [C]-CA--CB-[CG1] |==|  0.88581
USER: genes 15 Torsion [C]-N--CA-[CB] |==|  0.84774
USER: genes 16 Torsion [N]-CA--CB-[CG] |==|  0.80951
USER: genes 17 Torsion [CA]-CB--CG-[CD2] |==|  0.85349
USER: genes 18 Torsion [CE2]-CZ--OH-[HH] |==|  0.36584
USER: genes 19 Torsion [N]-CA--C-[N] |==|  0.52222
USER: genes 20 Torsion [C]-N--CA-[C] |==|  0.80521
USER: genes 21 Torsion [N]-CA--C-[N] |==|  0.37144
USER: genes 22 Torsion [C]-N--CA-[CB] |==|  0.40850
USER: genes 23 Torsion [N]-CA--CB-[CG] |==|  0.67428
USER: genes 24 Torsion [CA]-CB--CG-[CD2] |==|  0.59946
USER: genes 25 Torsion [N]-CA--C-[O] |==|  0.92831
USER: genes 26 Torsion [N]-CA--CB-[CG1] |==|  0.51594
USER: genes 27 Torsion [CA]-CB--CG1-[CD1] |==|  0.36296
ROOT
ATOM      1  C   VAL C   3      56.749  31.405  36.573  1.00 15.94 LIG 0.24  C 
ATOM      2 O    VAL C   3      55.889  30.713  36.063  1.00 17.86 LIG-0.27  OA
ATOM      3  N   TYR C   4      57.765  30.868  37.240  1.00 16.41 LIG-0.35  N 
ATOM      4 H    TYR C   4      58.380  31.327  37.629  1.00 16.41 LIG 0.16  HD
ENDROOT
BRANCH 1 5
ATOM      5  CA  VAL C   3      56.643  32.941  36.484  1.00 16.01 LIG 0.18  C 
BRANCH 5 6
ATOM      6  N   VAL C   3      55.256  33.250  36.077  1.00 15.77 LIG-0.35  N 
ATOM      7 H    VAL C   3      54.715  32.581  36.068  1.00 15.77 LIG 0.16  HD
ATOM      8  C   ARG C   2      54.931  34.493  35.760  1.00 16.54 LIG 0.24  C 
ATOM      9 O    ARG C   2      55.725  35.449  35.890  1.00 14.63 LIG-0.27  OA
BRANCH 8 10
ATOM     10  CA  ARG C   2      53.524  34.726  35.246  1.00 19.03 LIG 0.18  C 
BRANCH 10 11
ATOM     11  CB  ARG C   2      52.769  35.619  36.236  1.00 20.38 LIG 0.04  C 
BRANCH 11 12
ATOM     12  CG  ARG C   2      53.623  36.562  37.015  1.00 20.75 LIG 0.02  C 
BRANCH 12 13
ATOM     13  CD  ARG C   2      53.336  37.951  36.651  1.00 22.55 LIG 0.14  C 
BRANCH 13 14
ATOM     14  NE  ARG C   2      53.894  38.313  35.377  1.00 20.36 LIG-0.23  N 
ATOM     15  CZ  ARG C   2      53.189  38.501  34.281  1.00 23.11 LIG 0.67  C 
ATOM     16  NH1 ARG C   2      51.903  38.496  34.320  1.00 23.20 LIG-0.23  N 
ATOM     17  NH2 ARG C   2      53.825  38.799  33.141  1.00 25.55 LIG-0.23  N 
ATOM     18 1HH1 ARG C   2      51.496  38.369  35.067  1.00 23.20 LIG 0.17  HD
ATOM     19 2HH1 ARG C   2      51.451  38.621  33.599  1.00 23.20 LIG 0.17  HD
ATOM     20 2HH2 ARG C   2      53.376  38.924  32.418  1.00 25.55 LIG 0.17  HD
ATOM     21 1HH2 ARG C   2      54.682  38.865  33.131  1.00 25.55 LIG 0.17  HD
ATOM     22 HE   ARG C   2      54.746  38.412  35.327  1.00 20.36 LIG 0.18  HD
ENDBRANCH 13 14
ENDBRANCH 12 13
ENDBRANCH 11 12
ENDBRANCH 10 11
BRANCH 10 23
ATOM     23  N   ARG C   2      52.813  33.451  35.057  1.00 19.42 LIG-0.35  N 
ATOM     24  C   ASP C   1      52.888  32.820  33.893  1.00 19.51 LIG 0.25  C 
ATOM     25 O    ASP C   1      53.718  33.130  33.023  1.00 19.29 LIG-0.27  OA
ATOM     26 H    ARG C   2      52.370  33.173  35.740  1.00 19.42 LIG 0.16  HD
BRANCH 24 27
ATOM     27  CA  ASP C   1      51.898  31.700  33.625  1.00 19.04 LIG 0.28  C 
BRANCH 27 28
ATOM     28  CB  ASP C   1      52.268  30.503  34.462  1.00 21.34 LIG 0.15  C 
BRANCH 28 29
ATOM     29  CG  ASP C   1      51.157  29.421  34.458  1.00 23.67 LIG 0.17  C 
ATOM     30 OD2  ASP C   1      50.281  29.486  33.553  1.00 27.41 LIG-0.65  OA
ATOM     31 OD1  ASP C   1      51.138  28.527  35.366  1.00 20.87 LIG-0.65  OA
ENDBRANCH 28 29
ENDBRANCH 27 28
BRANCH 27 32
ATOM     32  N   ASP C   1      51.980  31.371  32.155  1.00 18.38 LIG-0.07  N 
ATOM     33 H1   ASP C   1      52.177  32.108  31.696  1.00 18.38 LIG 0.28  HD
ATOM     34 H3   ASP C   1      51.197  31.050  31.878  1.00 18.38 LIG 0.28  HD
ATOM     35 H2   ASP C   1      52.613  30.760  32.021  1.00 18.38 LIG 0.28  HD
ENDBRANCH 27 32
ENDBRANCH 24 27
ENDBRANCH 10 23
ENDBRANCH 8 10
ENDBRANCH 5 6
BRANCH 5 36
ATOM     36  CB  VAL C   3      56.994  33.502  37.845  1.00 17.74 LIG 0.01  C 
ATOM     37  CG1 VAL C   3      56.389  32.681  38.963  1.00 20.72 LIG 0.01  C 
ATOM     38  CG2 VAL C   3      58.497  33.532  38.054  1.00 18.64 LIG 0.01  C 
ENDBRANCH 5 36
ENDBRANCH 1 5
BRANCH 3 39
ATOM     39  CA  TYR C   4      57.920  29.424  37.366  1.00 17.90 LIG 0.18  C 
BRANCH 39 40
ATOM     40  CB  TYR C   4      56.684  28.804  37.940  1.00 20.19 LIG 0.07  C 
BRANCH 40 41
ATOM     41  CG  TYR C   4      56.389  29.126  39.380  1.00 23.00 LIG-0.06  A 
ATOM     42  CD2 TYR C   4      57.359  28.928  40.364  1.00 26.62 LIG 0.01  A 
ATOM     43  CE2 TYR C   4      57.109  29.212  41.691  1.00 28.63 LIG 0.04  A 
ATOM     44  CZ  TYR C   4      55.886  29.691  42.048  1.00 25.42 LIG 0.07  A 
ATOM     45  CE1 TYR C   4      54.935  29.937  41.117  1.00 26.89 LIG 0.04  A 
ATOM     46  CD1 TYR C   4      55.188  29.646  39.769  1.00 24.41 LIG 0.01  A 
BRANCH 44 47
ATOM     47 OH   TYR C   4      55.644  29.976  43.361  1.00 32.39 LIG-0.36  OA
ATOM     48 HH   TYR C   4      55.297  30.739  43.422  1.00 32.39 LIG 0.22  HD
ENDBRANCH 44 47
ENDBRANCH 40 41
ENDBRANCH 39 40
BRANCH 39 49
ATOM     49  C   TYR C   4      58.348  28.738  36.037  1.00 20.63 LIG 0.24  C 
ATOM     50 O    TYR C   4      58.763  29.378  35.111  1.00 19.73 LIG-0.27  OA
ATOM     51  N   ILE C   5      58.349  27.413  36.031  1.00 22.91 LIG-0.35  N 
ATOM     52 H    ILE C   5      58.173  26.926  36.718  1.00 22.91 LIG 0.16  HD
BRANCH 51 53
ATOM     53  CA  ILE C   5      58.658  26.667  34.824  1.00 27.58 LIG 0.18  C 
BRANCH 53 54
ATOM     54  C   ILE C   5      57.518  26.824  33.820  1.00 33.14 LIG 0.24  C 
ATOM     55  N   HIS C   6      57.853  27.103  32.554  1.00 39.14 LIG-0.35  N 
ATOM     56 H    HIS C   6      58.663  27.254  32.307  1.00 39.14 LIG 0.16  HD
ATOM     57 O    ILE C   5      56.365  26.793  34.242  1.00 25.88 LIG-0.27  OA
BRANCH 55 58
ATOM     58  CA  HIS C   6      56.858  27.184  31.423  1.00 56.87 LIG 0.17  C 
BRANCH 58 59
ATOM     59  CB  HIS C   6      57.300  28.248  30.376  1.00 66.39 LIG 0.09  C 
BRANCH 59 60
ATOM     60  CG  HIS C   6      56.352  29.403  30.217  1.00 78.50 LIG 0.06  A 
ATOM     61  CD2 HIS C   6      56.006  30.112  29.113  1.00 82.71 LIG 0.14  A 
ATOM     62 NE2  HIS C   6      55.061  31.035  29.499  1.00 84.02 LIG-0.25  NA
ATOM     63  CE1 HIS C   6      54.816  30.887  30.790  1.00 85.20 LIG 0.23  A 
ATOM     64 ND1  HIS C   6      55.577  29.904  31.248  1.00 88.66 LIG-0.24  NA
ENDBRANCH 59 60
ENDBRANCH 58 59
BRANCH 58 65
ATOM     65  C   HIS C   6      56.549  25.889  30.659  1.00 59.18 LIG 0.22  C 
ATOM     66 O    HIS C   6      57.396  24.957  30.612  1.00 63.69 LIG-0.29  OA
ENDBRANCH 58 65
ENDBRANCH 55 58
ENDBRANCH 53 54
BRANCH 53 67
ATOM     67  CB  ILE C   5      58.917  25.207  35.169  1.00 28.54 LIG 0.01  C 
ATOM     68  CG2 ILE C   5      57.651  24.623  35.794  1.00 32.34 LIG 0.01  C 
BRANCH 67 69
ATOM     69  CG1 ILE C   5      59.377  24.510  33.878  1.00 30.21 LIG 0.00  C 
ATOM     70  CD1 ILE C   5      60.627  23.672  33.978  1.00 32.85 LIG 0.01  C 
ENDBRANCH 67 69
ENDBRANCH 53 67
ENDBRANCH 51 53
ENDBRANCH 39 49
ENDBRANCH 3 39
TORSDOF 26
ENDMDL
MODEL 73
USER: ADFR SOLUTION from run 137
USER: SCORE 20.770945 LL:  -5.700 LR: -16.873 RR:   0.000 FEB:  -9.118
USER: RMSD 7.096995
USER: SEED 136
USER: STATUS no improvement in best in 22 clusters for 5 generations
USER: GENES 28
USER: genes 0 Translation |==|  0.41920 0.66036 0.47999
USER: genes 1 Rotation |==|  0.35094 0.32353 0.09127 0.67199
USER: genes 2 Torsion [N]-C--CA-[N] |==|  0.43491
USER: genes 3 Torsion [C]-CA--N-[C] |==|  0.83889
USER: genes 4 Torsion [N]-C--CA-[N] |==|  0.00344
USER: genes 5 Torsion [C]-CA--CB-[CG] |==|  0.24162
USER: genes 6 Torsion [CA]-CB--CG-[CD] |==|  0.68200
USER: genes 7 Torsion [CB]-CG--CD-[NE] |==|  0.73337
USER: genes 8 Torsion [CG]-CD--NE-[CZ] |==|  0.43676
USER: genes 9 Torsion [C]-CA--N-[C] |==|  0.17078
USER: genes 10 Torsion [N]-C--CA-[N] |==|  0.39445
USER: genes 11 Torsion [C]-CA--CB-[CG] |==|  0.48346
USER: genes 12 Torsion [CA]-CB--CG-[OD2] |==|  0.18559
USER: genes 13 Torsion [C]-CA--N-[H1] |==|  0.11064
USER: genes 14 Torsion [C]-CA--CB-[CG1] |==|  0.70778
USER: genes 15 Torsion [C]-N--CA-[CB] |==|  0.23679
USER: genes 16 Torsion [N]-CA--CB-[CG] |==|  0.63525
USER: genes 17 Torsion [CA]-CB--CG-[CD2] |==|  0.56277
USER: genes 18 Torsion [CE2]-CZ--OH-[HH] |==|  0.82199
USER: genes 19 Torsion [N]-CA--C-[N] |==|  0.37279
USER: genes 20 Torsion [C]-N--CA-[C] |==|  0.77140
USER: genes 21 Torsion [N]-CA--C-[N] |==|  0.97983
USER: genes 22 Torsion [C]-N--CA-[CB] |==|  0.76152
USER: genes 23 Torsion [N]-CA--CB-[CG] |==|  0.85939
USER: genes 24 Torsion [CA]-CB--CG-[CD2] |==|  0.27893
USER: genes 25 Torsion [N]-CA--C-[O] |==|  0.67675
USER: genes 26 Torsion [N]-CA--CB-[CG1] |==|  0.50611
USER: genes 27 Torsion [CA]-CB--CG1-[CD1] |==|  0.46241
ROOT
ATOM      1  C   VAL C   3      52.750  33.419  33.836  1.00 15.94 LIG 0.24  C 
ATOM      2 O    VAL C   3      53.768  33.617  33.201  1.00 17.86 LIG-0.27  OA
ATOM      3  N   TYR C   4      51.825  32.563  33.413  1.00 16.41 LIG-0.35  N 
ATOM      4 H    TYR C   4      51.086  32.413  33.825  1.00 16.41 LIG 0.16  HD
ENDROOT
BRANCH 1 5
ATOM      5  CA  VAL C   3      52.500  34.205  35.139  1.00 16.01 LIG 0.18  C 
BRANCH 5 6
ATOM      6  N   VAL C   3      53.825  34.600  35.660  1.00 15.77 LIG-0.35  N 
ATOM      7 H    VAL C   3      53.943  35.446  35.766  1.00 15.77 LIG 0.16  HD
ATOM      8  C   ARG C   2      54.725  33.669  35.927  1.00 16.54 LIG 0.24  C 
ATOM      9 O    ARG C   2      54.470  32.447  35.857  1.00 14.63 LIG-0.27  OA
BRANCH 8 10
ATOM     10  CA  ARG C   2      56.101  34.143  36.353  1.00 19.03 LIG 0.18  C 
BRANCH 10 11
ATOM     11  CB  ARG C   2      56.440  33.535  37.718  1.00 20.38 LIG 0.04  C 
BRANCH 11 12
ATOM     12  CG  ARG C   2      57.075  32.186  37.669  1.00 20.75 LIG 0.02  C 
BRANCH 12 13
ATOM     13  CD  ARG C   2      56.199  31.173  38.261  1.00 22.55 LIG 0.14  C 
BRANCH 13 14
ATOM     14  NE  ARG C   2      56.514  30.910  39.639  1.00 20.36 LIG-0.23  N 
ATOM     15  CZ  ARG C   2      55.672  30.402  40.513  1.00 23.11 LIG 0.67  C 
ATOM     16  NH1 ARG C   2      54.516  29.978  40.138  1.00 23.20 LIG-0.23  N 
ATOM     17  NH2 ARG C   2      56.069  30.237  41.780  1.00 25.55 LIG-0.23  N 
ATOM     18 1HH1 ARG C   2      54.288  30.025  39.310  1.00 23.20 LIG 0.17  HD
ATOM     19 2HH1 ARG C   2      53.972  29.646  40.716  1.00 23.20 LIG 0.17  HD
ATOM     20 2HH2 ARG C   2      55.528  29.905  42.361  1.00 25.55 LIG 0.17  HD
ATOM     21 1HH2 ARG C   2      56.865  30.462  42.015  1.00 25.55 LIG 0.17  HD
ATOM     22 HE   ARG C   2      57.308  31.099  39.910  1.00 20.36 LIG 0.18  HD
ENDBRANCH 13 14
ENDBRANCH 12 13
ENDBRANCH 11 12
ENDBRANCH 10 11
BRANCH 10 23
ATOM     23  N   ARG C   2      56.156  35.613  36.416  1.00 19.42 LIG-0.35  N 
ATOM     24  C   ASP C   1      55.365  36.267  37.256  1.00 19.51 LIG 0.25  C 
ATOM     25 O    ASP C   1      54.742  35.692  38.164  1.00 19.29 LIG-0.27  OA
ATOM     26 H    ARG C   2      56.720  35.983  35.884  1.00 19.42 LIG 0.16  HD
BRANCH 24 27
ATOM     27  CA  ASP C   1      55.210  37.766  37.068  1.00 19.04 LIG 0.28  C 
BRANCH 27 28
ATOM     28  CB  ASP C   1      56.134  38.481  38.019  1.00 21.34 LIG 0.15  C 
BRANCH 28 29
ATOM     29  CG  ASP C   1      56.141  40.014  37.785  1.00 23.67 LIG 0.17  C 
ATOM     30 OD2  ASP C   1      55.082  40.649  38.041  1.00 27.41 LIG-0.65  OA
ATOM     31 OD1  ASP C   1      57.185  40.581  37.324  1.00 20.87 LIG-0.65  OA
ENDBRANCH 28 29
ENDBRANCH 27 28
BRANCH 27 32
ATOM     32  N   ASP C   1      53.770  38.109  37.361  1.00 18.38 LIG-0.07  N 
ATOM     33 H1   ASP C   1      53.487  37.633  38.058  1.00 18.38 LIG 0.28  HD
ATOM     34 H3   ASP C   1      53.269  37.920  36.650  1.00 18.38 LIG 0.28  HD
ATOM     35 H2   ASP C   1      53.703  38.976  37.548  1.00 18.38 LIG 0.28  HD
ENDBRANCH 27 32
ENDBRANCH 24 27
ENDBRANCH 10 23
ENDBRANCH 8 10
ENDBRANCH 5 6
BRANCH 5 36
ATOM     36  CB  VAL C   3      51.626  35.391  34.796  1.00 17.74 LIG 0.01  C 
ATOM     37  CG1 VAL C   3      52.415  36.684  34.785  1.00 20.72 LIG 0.01  C 
ATOM     38  CG2 VAL C   3      50.990  35.226  33.427  1.00 18.64 LIG 0.01  C 
ENDBRANCH 5 36
ENDBRANCH 1 5
BRANCH 3 39
ATOM     39  CA  TYR C   4      51.998  31.794  32.187  1.00 17.90 LIG 0.18  C 
BRANCH 39 40
ATOM     40  CB  TYR C   4      52.777  30.542  32.448  1.00 20.19 LIG 0.07  C 
BRANCH 40 41
ATOM     41  CG  TYR C   4      53.922  30.267  31.511  1.00 23.00 LIG-0.06  A 
ATOM     42  CD2 TYR C   4      54.407  28.969  31.345  1.00 26.62 LIG 0.01  A 
ATOM     43  CE2 TYR C   4      55.460  28.695  30.495  1.00 28.63 LIG 0.04  A 
ATOM     44  CZ  TYR C   4      56.040  29.716  29.807  1.00 25.42 LIG 0.07  A 
ATOM     45  CE1 TYR C   4      55.569  30.981  29.909  1.00 26.89 LIG 0.04  A 
ATOM     46  CD1 TYR C   4      54.502  31.260  30.774  1.00 24.41 LIG 0.01  A 
BRANCH 44 47
ATOM     47 OH   TYR C   4      57.076  29.441  28.963  1.00 32.39 LIG-0.36  OA
ATOM     48 HH   TYR C   4      57.727  29.147  29.405  1.00 32.39 LIG 0.22  HD
ENDBRANCH 44 47
ENDBRANCH 40 41
ENDBRANCH 39 40
BRANCH 39 49
ATOM     49  C   TYR C   4      50.656  31.498  31.457  1.00 20.63 LIG 0.24  C 
ATOM     50 O    TYR C   4      49.664  31.214  32.070  1.00 19.73 LIG-0.27  OA
ATOM     51  N   ILE C   5      50.639  31.701  30.148  1.00 22.91 LIG-0.35  N 
ATOM     52 H    ILE C   5      51.300  32.021  29.700  1.00 22.91 LIG 0.16  HD
BRANCH 51 53
ATOM     53  CA  ILE C   5      49.465  31.386  29.355  1.00 27.58 LIG 0.18  C 
BRANCH 53 54
ATOM     54  C   ILE C   5      49.456  29.896  29.023  1.00 33.14 LIG 0.24  C 
ATOM     55  N   HIS C   6      50.542  29.188  29.359  1.00 39.14 LIG-0.35  N 
ATOM     56 H    HIS C   6      51.250  29.548  29.689  1.00 39.14 LIG 0.16  HD
ATOM     57 O    ILE C   5      48.510  29.450  28.379  1.00 25.88 LIG-0.27  OA
BRANCH 55 58
ATOM     58  CA  HIS C   6      50.650  27.693  29.198  1.00 56.87 LIG 0.17  C 
BRANCH 58 59
ATOM     59  CB  HIS C   6      50.059  26.961  30.439  1.00 66.39 LIG 0.09  C 
BRANCH 59 60
ATOM     60  CG  HIS C   6      50.579  27.449  31.761  1.00 78.50 LIG 0.06  A 
ATOM     61  CD2 HIS C   6      50.025  28.292  32.668  1.00 82.71 LIG 0.14  A 
ATOM     62 NE2  HIS C   6      50.889  28.372  33.736  1.00 84.02 LIG-0.25  NA
ATOM     63  CE1 HIS C   6      51.931  27.589  33.506  1.00 85.20 LIG 0.23  A 
ATOM     64 ND1  HIS C   6      51.766  27.015  32.324  1.00 88.66 LIG-0.24  NA
ENDBRANCH 59 60
ENDBRANCH 58 59
BRANCH 58 65
ATOM     65  C   HIS C   6      50.010  27.069  27.950  1.00 59.18 LIG 0.22  C 
ATOM     66 O    HIS C   6      49.051  26.259  28.059  1.00 63.69 LIG-0.29  OA
ENDBRANCH 58 65
ENDBRANCH 55 58
ENDBRANCH 53 54
BRANCH 53 67
ATOM     67  CB  ILE C   5      49.440  32.250  28.101  1.00 28.54 LIG 0.01  C 
ATOM     68  CG2 ILE C   5      50.728  32.006  27.317  1.00 32.34 LIG 0.01  C 
BRANCH 67 69
ATOM     69  CG1 ILE C   5      48.149  31.907  27.339  1.00 30.21 LIG 0.00  C 
ATOM     70  CD1 ILE C   5      47.751  32.853  26.234  1.00 32.85 LIG 0.01  C 
ENDBRANCH 67 69
ENDBRANCH 53 67
ENDBRANCH 51 53
ENDBRANCH 39 49
ENDBRANCH 3 39
TORSDOF 26
ENDMDL
MODEL 74
USER: ADFR SOLUTION from run 171
USER: SCORE 22.631697 LL:  -6.306 LR: -16.860 RR:   0.000 FEB:  -9.104
USER: RMSD 9.361939
USER: SEED 170
USER: STATUS no improvement in best in 14 clusters for 5 generations
USER: GENES 28
USER: genes 0 Translation |==|  0.52242 0.50478 0.52947
USER: genes 1 Rotation |==|  0.42607 0.08901 0.48670 0.77467
USER: genes 2 Torsion [N]-C--CA-[N] |==|  0.42619
USER: genes 3 Torsion [C]-CA--N-[C] |==|  0.82703
USER: genes 4 Torsion [N]-C--CA-[N] |==|  0.45505
USER: genes 5 Torsion [C]-CA--CB-[CG] |==|  0.22476
USER: genes 6 Torsion [CA]-CB--CG-[CD] |==|  0.17022
USER: genes 7 Torsion [CB]-CG--CD-[NE] |==|  0.21239
USER: genes 8 Torsion [CG]-CD--NE-[CZ] |==|  0.28489
USER: genes 9 Torsion [C]-CA--N-[C] |==|  0.80513
USER: genes 10 Torsion [N]-C--CA-[N] |==|  0.89579
USER: genes 11 Torsion [C]-CA--CB-[CG] |==|  0.73702
USER: genes 12 Torsion [CA]-CB--CG-[OD2] |==|  0.72299
USER: genes 13 Torsion [C]-CA--N-[H1] |==|  0.84898
USER: genes 14 Torsion [C]-CA--CB-[CG1] |==|  0.52939
USER: genes 15 Torsion [C]-N--CA-[CB] |==|  0.20217
USER: genes 16 Torsion [N]-CA--CB-[CG] |==|  0.08762
USER: genes 17 Torsion [CA]-CB--CG-[CD2] |==|  0.11870
USER: genes 18 Torsion [CE2]-CZ--OH-[HH] |==|  0.94350
USER: genes 19 Torsion [N]-CA--C-[N] |==|  0.02632
USER: genes 20 Torsion [C]-N--CA-[C] |==|  0.72878
USER: genes 21 Torsion [N]-CA--C-[N] |==|  0.38889
USER: genes 22 Torsion [C]-N--CA-[CB] |==|  0.44010
USER: genes 23 Torsion [N]-CA--CB-[CG] |==|  0.83078
USER: genes 24 Torsion [CA]-CB--CG-[CD2] |==|  0.03587
USER: genes 25 Torsion [N]-CA--C-[O] |==|  0.61832
USER: genes 26 Torsion [N]-CA--CB-[CG1] |==|  0.79937
USER: genes 27 Torsion [CA]-CB--CG1-[CD1] |==|  0.27753
ROOT
ATOM      1  C   VAL C   3      54.531  29.452  35.135  1.00 15.94 LIG 0.24  C 
ATOM      2 O    VAL C   3      55.015  29.648  34.037  1.00 17.86 LIG-0.27  OA
ATOM      3  N   TYR C   4      55.244  28.919  36.122  1.00 16.41 LIG-0.35  N 
ATOM      4 H    TYR C   4      54.929  28.749  36.904  1.00 16.41 LIG 0.16  HD
ENDROOT
BRANCH 1 5
ATOM      5  CA  VAL C   3      53.046  29.788  35.383  1.00 16.01 LIG 0.18  C 
BRANCH 5 6
ATOM      6  N   VAL C   3      52.697  30.888  34.460  1.00 15.77 LIG-0.35  N 
ATOM      7 H    VAL C   3      52.088  30.705  33.880  1.00 15.77 LIG 0.16  HD
ATOM      8  C   ARG C   2      53.316  32.052  34.569  1.00 16.54 LIG 0.24  C 
ATOM      9 O    ARG C   2      54.118  32.303  35.494  1.00 14.63 LIG-0.27  OA
BRANCH 8 10
ATOM     10  CA  ARG C   2      52.994  33.103  33.525  1.00 19.03 LIG 0.18  C 
BRANCH 10 11
ATOM     11  CB  ARG C   2      53.676  32.725  32.205  1.00 20.38 LIG 0.04  C 
BRANCH 11 12
ATOM     12  CG  ARG C   2      52.954  31.704  31.392  1.00 20.75 LIG 0.02  C 
BRANCH 12 13
ATOM     13  CD  ARG C   2      51.628  32.186  31.003  1.00 22.55 LIG 0.14  C 
BRANCH 13 14
ATOM     14  NE  ARG C   2      51.682  33.140  29.928  1.00 20.36 LIG-0.23  N 
ATOM     15  CZ  ARG C   2      51.395  32.867  28.673  1.00 23.11 LIG 0.67  C 
ATOM     16  NH1 ARG C   2      50.910  31.720  28.347  1.00 23.20 LIG-0.23  N 
ATOM     17  NH2 ARG C   2      51.519  33.829  27.752  1.00 25.55 LIG-0.23  N 
ATOM     18 1HH1 ARG C   2      50.771  31.124  28.951  1.00 23.20 LIG 0.17  HD
ATOM     19 2HH1 ARG C   2      50.725  31.550  27.524  1.00 23.20 LIG 0.17  HD
ATOM     20 2HH2 ARG C   2      51.335  33.663  26.928  1.00 25.55 LIG 0.17  HD
ATOM     21 1HH2 ARG C   2      51.783  34.615  27.983  1.00 25.55 LIG 0.17  HD
ATOM     22 HE   ARG C   2      51.918  33.944  30.119  1.00 20.36 LIG 0.18  HD
ENDBRANCH 13 14
ENDBRANCH 12 13
ENDBRANCH 11 12
ENDBRANCH 10 11
BRANCH 10 23
ATOM     23  N   ARG C   2      53.434  34.437  33.967  1.00 19.42 LIG-0.35  N 
ATOM     24  C   ASP C   1      52.800  35.045  34.960  1.00 19.51 LIG 0.25  C 
ATOM     25 O    ASP C   1      51.998  34.448  35.698  1.00 19.29 LIG-0.27  OA
ATOM     26 H    ARG C   2      54.104  34.763  33.539  1.00 19.42 LIG 0.16  HD
BRANCH 24 27
ATOM     27  CA  ASP C   1      53.058  36.526  35.171  1.00 19.04 LIG 0.28  C 
BRANCH 27 28
ATOM     28  CB  ASP C   1      52.189  37.318  34.228  1.00 21.34 LIG 0.15  C 
BRANCH 28 29
ATOM     29  CG  ASP C   1      52.933  37.684  32.918  1.00 23.67 LIG 0.17  C 
ATOM     30 OD2  ASP C   1      53.412  38.848  32.823  1.00 27.41 LIG-0.65  OA
ATOM     31 OD1  ASP C   1      53.019  36.830  31.976  1.00 20.87 LIG-0.65  OA
ENDBRANCH 28 29
ENDBRANCH 27 28
BRANCH 27 32
ATOM     32  N   ASP C   1      54.519  36.773  34.889  1.00 18.38 LIG-0.07  N 
ATOM     33 H1   ASP C   1      55.014  36.228  35.390  1.00 18.38 LIG 0.28  HD
ATOM     34 H3   ASP C   1      54.720  37.618  35.083  1.00 18.38 LIG 0.28  HD
ATOM     35 H2   ASP C   1      54.686  36.618  34.029  1.00 18.38 LIG 0.28  HD
ENDBRANCH 27 32
ENDBRANCH 24 27
ENDBRANCH 10 23
ENDBRANCH 8 10
ENDBRANCH 5 6
BRANCH 5 36
ATOM     36  CB  VAL C   3      52.245  28.531  35.127  1.00 17.74 LIG 0.01  C 
ATOM     37  CG1 VAL C   3      50.757  28.811  35.092  1.00 20.72 LIG 0.01  C 
ATOM     38  CG2 VAL C   3      52.627  27.897  33.801  1.00 18.64 LIG 0.01  C 
ENDBRANCH 5 36
ENDBRANCH 1 5
BRANCH 3 39
ATOM     39  CA  TYR C   4      56.649  28.573  35.950  1.00 17.90 LIG 0.18  C 
BRANCH 39 40
ATOM     40  CB  TYR C   4      57.499  29.806  35.904  1.00 20.19 LIG 0.07  C 
BRANCH 40 41
ATOM     41  CG  TYR C   4      57.013  30.976  36.717  1.00 23.00 LIG-0.06  A 
ATOM     42  CD2 TYR C   4      56.513  30.784  38.005  1.00 26.62 LIG 0.01  A 
ATOM     43  CE2 TYR C   4      56.057  31.841  38.766  1.00 28.63 LIG 0.04  A 
ATOM     44  CZ  TYR C   4      56.093  33.098  38.245  1.00 25.42 LIG 0.07  A 
ATOM     45  CE1 TYR C   4      56.611  33.329  37.016  1.00 26.89 LIG 0.04  A 
ATOM     46  CD1 TYR C   4      57.072  32.254  36.241  1.00 24.41 LIG 0.01  A 
BRANCH 44 47
ATOM     47 OH   TYR C   4      55.647  34.142  39.002  1.00 32.39 LIG-0.36  OA
ATOM     48 HH   TYR C   4      55.145  33.853  39.610  1.00 32.39 LIG 0.22  HD
ENDBRANCH 44 47
ENDBRANCH 40 41
ENDBRANCH 39 40
BRANCH 39 49
ATOM     49  C   TYR C   4      57.162  27.558  37.011  1.00 20.63 LIG 0.24  C 
ATOM     50 O    TYR C   4      58.336  27.382  37.189  1.00 19.73 LIG-0.27  OA
ATOM     51  N   ILE C   5      56.243  27.001  37.787  1.00 22.91 LIG-0.35  N 
ATOM     52 H    ILE C   5      55.407  27.199  37.764  1.00 22.91 LIG 0.16  HD
BRANCH 51 53
ATOM     53  CA  ILE C   5      56.599  25.983  38.760  1.00 27.58 LIG 0.18  C 
BRANCH 53 54
ATOM     54  C   ILE C   5      56.327  24.599  38.176  1.00 33.14 LIG 0.24  C 
ATOM     55  N   HIS C   6      57.225  23.639  38.434  1.00 39.14 LIG-0.35  N 
ATOM     56 H    HIS C   6      57.961  23.789  38.854  1.00 39.14 LIG 0.16  HD
ATOM     57 O    ILE C   5      55.368  24.466  37.421  1.00 25.88 LIG-0.27  OA
BRANCH 55 58
ATOM     58  CA  HIS C   6      57.053  22.199  38.022  1.00 56.87 LIG 0.17  C 
BRANCH 58 59
ATOM     59  CB  HIS C   6      58.430  21.474  37.968  1.00 66.39 LIG 0.09  C 
BRANCH 59 60
ATOM     60  CG  HIS C   6      59.407  22.055  36.986  1.00 78.50 LIG 0.06  A 
ATOM     61  CD2 HIS C   6      59.383  23.231  36.311  1.00 82.71 LIG 0.14  A 
ATOM     62 NE2  HIS C   6      60.543  23.306  35.575  1.00 84.02 LIG-0.25  NA
ATOM     63  CE1 HIS C   6      61.269  22.224  35.804  1.00 85.20 LIG 0.23  A 
ATOM     64 ND1  HIS C   6      60.611  21.455  36.658  1.00 88.66 LIG-0.24  NA
ENDBRANCH 59 60
ENDBRANCH 58 59
BRANCH 58 65
ATOM     65  C   HIS C   6      56.110  21.331  38.866  1.00 59.18 LIG 0.22  C 
ATOM     66 O    HIS C   6      56.431  20.153  39.178  1.00 63.69 LIG-0.29  OA
ENDBRANCH 58 65
ENDBRANCH 55 58
ENDBRANCH 53 54
BRANCH 53 67
ATOM     67  CB  ILE C   5      55.833  26.216  40.056  1.00 28.54 LIG 0.01  C 
ATOM     68  CG2 ILE C   5      55.893  24.940  40.892  1.00 32.34 LIG 0.01  C 
BRANCH 67 69
ATOM     69  CG1 ILE C   5      56.446  27.456  40.729  1.00 30.21 LIG 0.00  C 
ATOM     70  CD1 ILE C   5      55.700  28.754  40.548  1.00 32.85 LIG 0.01  C 
ENDBRANCH 67 69
ENDBRANCH 53 67
ENDBRANCH 51 53
ENDBRANCH 39 49
ENDBRANCH 3 39
TORSDOF 26
ENDMDL
MODEL 75
USER: ADFR SOLUTION from run 136
USER: SCORE 20.907779 LL:  -6.070 LR: -16.849 RR:   0.000 FEB:  -9.093
USER: RMSD 9.735831
USER: SEED 135
USER: STATUS no improvement in best in 12 clusters for 5 generations
USER: GENES 28
USER: genes 0 Translation |==|  0.64439 0.58418 0.58875
USER: genes 1 Rotation |==|  0.32862 0.14788 0.18939 0.51271
USER: genes 2 Torsion [N]-C--CA-[N] |==|  0.92081
USER: genes 3 Torsion [C]-CA--N-[C] |==|  0.54444
USER: genes 4 Torsion [N]-C--CA-[N] |==|  0.99066
USER: genes 5 Torsion [C]-CA--CB-[CG] |==|  0.04537
USER: genes 6 Torsion [CA]-CB--CG-[CD] |==|  0.34034
USER: genes 7 Torsion [CB]-CG--CD-[NE] |==|  0.66337
USER: genes 8 Torsion [CG]-CD--NE-[CZ] |==|  0.73747
USER: genes 9 Torsion [C]-CA--N-[C] |==|  0.75071
USER: genes 10 Torsion [N]-C--CA-[N] |==|  0.45909
USER: genes 11 Torsion [C]-CA--CB-[CG] |==|  0.48175
USER: genes 12 Torsion [CA]-CB--CG-[OD2] |==|  0.60991
USER: genes 13 Torsion [C]-CA--N-[H1] |==|  0.78686
USER: genes 14 Torsion [C]-CA--CB-[CG1] |==|  0.93976
USER: genes 15 Torsion [C]-N--CA-[CB] |==|  0.82119
USER: genes 16 Torsion [N]-CA--CB-[CG] |==|  0.72445
USER: genes 17 Torsion [CA]-CB--CG-[CD2] |==|  0.34513
USER: genes 18 Torsion [CE2]-CZ--OH-[HH] |==|  0.71794
USER: genes 19 Torsion [N]-CA--C-[N] |==|  0.20114
USER: genes 20 Torsion [C]-N--CA-[C] |==|  0.60928
USER: genes 21 Torsion [N]-CA--C-[N] |==|  0.36728
USER: genes 22 Torsion [C]-N--CA-[CB] |==|  0.89910
USER: genes 23 Torsion [N]-CA--CB-[CG] |==|  0.79708
USER: genes 24 Torsion [CA]-CB--CG-[CD2] |==|  0.51903
USER: genes 25 Torsion [N]-CA--C-[O] |==|  0.52758
USER: genes 26 Torsion [N]-CA--CB-[CG1] |==|  0.67310
USER: genes 27 Torsion [CA]-CB--CG1-[CD1] |==|  0.07148
ROOT
ATOM      1  C   VAL C   3      56.635  31.477  36.691  1.00 15.94 LIG 0.24  C 
ATOM      2 O    VAL C   3      57.743  31.000  36.545  1.00 17.86 LIG-0.27  OA
ATOM      3  N   TYR C   4      55.561  30.705  36.825  1.00 16.41 LIG-0.35  N 
ATOM      4 H    TYR C   4      54.760  31.007  36.910  1.00 16.41 LIG 0.16  HD
ENDROOT
BRANCH 1 5
ATOM      5  CA  VAL C   3      56.456  33.008  36.678  1.00 16.01 LIG 0.18  C 
BRANCH 5 6
ATOM      6  N   VAL C   3      55.105  33.276  36.142  1.00 15.77 LIG-0.35  N 
ATOM      7 H    VAL C   3      54.571  32.601  36.130  1.00 15.77 LIG 0.16  HD
ATOM      8  C   ARG C   2      54.799  34.492  35.723  1.00 16.54 LIG 0.24  C 
ATOM      9 O    ARG C   2      55.573  35.464  35.857  1.00 14.63 LIG-0.27  OA
BRANCH 8 10
ATOM     10  CA  ARG C   2      53.437  34.677  35.082  1.00 19.03 LIG 0.18  C 
BRANCH 10 11
ATOM     11  CB  ARG C   2      52.624  35.677  35.912  1.00 20.38 LIG 0.04  C 
BRANCH 11 12
ATOM     12  CG  ARG C   2      53.420  36.501  36.867  1.00 20.75 LIG 0.02  C 
BRANCH 12 13
ATOM     13  CD  ARG C   2      53.237  37.930  36.606  1.00 22.55 LIG 0.14  C 
BRANCH 13 14
ATOM     14  NE  ARG C   2      54.475  38.597  36.308  1.00 20.36 LIG-0.23  N 
ATOM     15  CZ  ARG C   2      55.215  39.228  37.196  1.00 23.11 LIG 0.67  C 
ATOM     16  NH1 ARG C   2      54.925  39.171  38.449  1.00 23.20 LIG-0.23  N 
ATOM     17  NH2 ARG C   2      56.331  39.846  36.793  1.00 25.55 LIG-0.23  N 
ATOM     18 1HH1 ARG C   2      54.243  38.718  38.712  1.00 23.20 LIG 0.17  HD
ATOM     19 2HH1 ARG C   2      55.414  39.585  39.022  1.00 23.20 LIG 0.17  HD
ATOM     20 2HH2 ARG C   2      56.823  40.261  37.364  1.00 25.55 LIG 0.17  HD
ATOM     21 1HH2 ARG C   2      56.557  39.829  35.963  1.00 25.55 LIG 0.17  HD
ATOM     22 HE   ARG C   2      54.751  38.584  35.494  1.00 20.36 LIG 0.18  HD
ENDBRANCH 13 14
ENDBRANCH 12 13
ENDBRANCH 11 12
ENDBRANCH 10 11
BRANCH 10 23
ATOM     23  N   ARG C   2      52.724  33.394  34.980  1.00 19.42 LIG-0.35  N 
ATOM     24  C   ASP C   1      52.872  32.641  33.898  1.00 19.51 LIG 0.25  C 
ATOM     25 O    ASP C   1      53.767  32.851  33.063  1.00 19.29 LIG-0.27  OA
ATOM     26 H    ARG C   2      52.229  33.193  35.654  1.00 19.42 LIG 0.16  HD
BRANCH 24 27
ATOM     27  CA  ASP C   1      51.889  31.504  33.680  1.00 19.04 LIG 0.28  C 
BRANCH 27 28
ATOM     28  CB  ASP C   1      52.213  30.382  34.631  1.00 21.34 LIG 0.15  C 
BRANCH 28 29
ATOM     29  CG  ASP C   1      51.154  29.250  34.582  1.00 23.67 LIG 0.17  C 
ATOM     30 OD2  ASP C   1      50.821  28.713  35.673  1.00 27.41 LIG-0.65  OA
ATOM     31 OD1  ASP C   1      50.674  28.878  33.461  1.00 20.87 LIG-0.65  OA
ENDBRANCH 28 29
ENDBRANCH 27 28
BRANCH 27 32
ATOM     32  N   ASP C   1      52.036  31.053  32.248  1.00 18.38 LIG-0.07  N 
ATOM     33 H1   ASP C   1      51.630  31.635  31.710  1.00 18.38 LIG 0.28  HD
ATOM     34 H3   ASP C   1      51.665  30.250  32.150  1.00 18.38 LIG 0.28  HD
ATOM     35 H2   ASP C   1      52.899  31.007  32.037  1.00 18.38 LIG 0.28  HD
ENDBRANCH 27 32
ENDBRANCH 24 27
ENDBRANCH 10 23
ENDBRANCH 8 10
ENDBRANCH 5 6
BRANCH 5 36
ATOM     36  CB  VAL C   3      56.631  33.500  38.099  1.00 17.74 LIG 0.01  C 
ATOM     37  CG1 VAL C   3      56.393  32.396  39.107  1.00 20.72 LIG 0.01  C 
ATOM     38  CG2 VAL C   3      58.032  34.037  38.324  1.00 18.64 LIG 0.01  C 
ENDBRANCH 5 36
ENDBRANCH 1 5
BRANCH 3 39
ATOM     39  CA  TYR C   4      55.660  29.251  36.839  1.00 17.90 LIG 0.18  C 
BRANCH 39 40
ATOM     40  CB  TYR C   4      56.156  28.738  35.521  1.00 20.19 LIG 0.07  C 
BRANCH 40 41
ATOM     41  CG  TYR C   4      55.105  28.219  34.576  1.00 23.00 LIG-0.06  A 
ATOM     42  CD2 TYR C   4      54.993  28.739  33.286  1.00 26.62 LIG 0.01  A 
ATOM     43  CE2 TYR C   4      54.034  28.282  32.405  1.00 28.63 LIG 0.04  A 
ATOM     44  CZ  TYR C   4      53.176  27.304  32.807  1.00 25.42 LIG 0.07  A 
ATOM     45  CE1 TYR C   4      53.283  26.745  34.035  1.00 26.89 LIG 0.04  A 
ATOM     46  CD1 TYR C   4      54.255  27.211  34.931  1.00 24.41 LIG 0.01  A 
BRANCH 44 47
ATOM     47 OH   TYR C   4      52.233  26.850  31.932  1.00 32.39 LIG-0.36  OA
ATOM     48 HH   TYR C   4      51.490  27.196  32.117  1.00 32.39 LIG 0.22  HD
ENDBRANCH 44 47
ENDBRANCH 40 41
ENDBRANCH 39 40
BRANCH 39 49
ATOM     49  C   TYR C   4      56.508  28.708  38.025  1.00 20.63 LIG 0.24  C 
ATOM     50 O    TYR C   4      57.643  28.353  37.869  1.00 19.73 LIG-0.27  OA
ATOM     51  N   ILE C   5      55.954  28.780  39.227  1.00 22.91 LIG-0.35  N 
ATOM     52 H    ILE C   5      55.190  29.141  39.386  1.00 22.91 LIG 0.16  HD
BRANCH 51 53
ATOM     53  CA  ILE C   5      56.621  28.235  40.396  1.00 27.58 LIG 0.18  C 
BRANCH 53 54
ATOM     54  C   ILE C   5      55.595  27.563  41.305  1.00 33.14 LIG 0.24  C 
ATOM     55  N   HIS C   6      55.889  26.337  41.758  1.00 39.14 LIG-0.35  N 
ATOM     56 H    HIS C   6      56.589  25.903  41.510  1.00 39.14 LIG 0.16  HD
ATOM     57 O    ILE C   5      54.520  28.130  41.485  1.00 25.88 LIG-0.27  OA
BRANCH 55 58
ATOM     58  CA  HIS C   6      55.035  25.583  42.745  1.00 56.87 LIG 0.17  C 
BRANCH 58 59
ATOM     59  CB  HIS C   6      54.416  26.553  43.793  1.00 66.39 LIG 0.09  C 
BRANCH 59 60
ATOM     60  CG  HIS C   6      55.388  27.083  44.809  1.00 78.50 LIG 0.06  A 
ATOM     61  CD2 HIS C   6      55.179  27.834  45.919  1.00 82.71 LIG 0.14  A 
ATOM     62 NE2  HIS C   6      56.399  28.006  46.533  1.00 84.02 LIG-0.25  NA
ATOM     63  CE1 HIS C   6      57.325  27.364  45.839  1.00 85.20 LIG 0.23  A 
ATOM     64 ND1  HIS C   6      56.741  26.792  44.797  1.00 88.66 LIG-0.24  NA
ENDBRANCH 59 60
ENDBRANCH 58 59
BRANCH 58 65
ATOM     65  C   HIS C   6      53.892  24.727  42.181  1.00 59.18 LIG 0.22  C 
ATOM     66 O    HIS C   6      53.030  24.223  42.949  1.00 63.69 LIG-0.29  OA
ENDBRANCH 58 65
ENDBRANCH 55 58
ENDBRANCH 53 54
BRANCH 53 67
ATOM     67  CB  ILE C   5      57.386  29.337  41.116  1.00 28.54 LIG 0.01  C 
ATOM     68  CG2 ILE C   5      56.805  29.496  42.519  1.00 32.34 LIG 0.01  C 
BRANCH 67 69
ATOM     69  CG1 ILE C   5      58.876  28.956  41.077  1.00 30.21 LIG 0.00  C 
ATOM     70  CD1 ILE C   5      59.309  28.064  39.941  1.00 32.85 LIG 0.01  C 
ENDBRANCH 67 69
ENDBRANCH 53 67
ENDBRANCH 51 53
ENDBRANCH 39 49
ENDBRANCH 3 39
TORSDOF 26
ENDMDL
MODEL 76
USER: ADFR SOLUTION from run 197
USER: SCORE 20.642345 LL:  -6.136 LR: -16.854 RR:   0.000 FEB:  -9.098
USER: RMSD 10.552261
USER: SEED 196
USER: STATUS searching
USER: GENES 28
USER: genes 0 Translation |==|  0.40229 0.61951 0.38799
USER: genes 1 Rotation |==|  0.98524 0.52203 0.39070 0.54594
USER: genes 2 Torsion [N]-C--CA-[N] |==|  0.21348
USER: genes 3 Torsion [C]-CA--N-[C] |==|  0.78091
USER: genes 4 Torsion [N]-C--CA-[N] |==|  0.77574
USER: genes 5 Torsion [C]-CA--CB-[CG] |==|  0.38519
USER: genes 6 Torsion [CA]-CB--CG-[CD] |==|  0.57711
USER: genes 7 Torsion [CB]-CG--CD-[NE] |==|  0.24571
USER: genes 8 Torsion [CG]-CD--NE-[CZ] |==|  0.48082
USER: genes 9 Torsion [C]-CA--N-[C] |==|  0.54503
USER: genes 10 Torsion [N]-C--CA-[N] |==|  0.48073
USER: genes 11 Torsion [C]-CA--CB-[CG] |==|  0.66300
USER: genes 12 Torsion [CA]-CB--CG-[OD2] |==|  0.82956
USER: genes 13 Torsion [C]-CA--N-[H1] |==|  0.08166
USER: genes 14 Torsion [C]-CA--CB-[CG1] |==|  0.23360
USER: genes 15 Torsion [C]-N--CA-[CB] |==|  0.78840
USER: genes 16 Torsion [N]-CA--CB-[CG] |==|  0.66522
USER: genes 17 Torsion [CA]-CB--CG-[CD2] |==|  0.37116
USER: genes 18 Torsion [CE2]-CZ--OH-[HH] |==|  0.22436
USER: genes 19 Torsion [N]-CA--C-[N] |==|  0.26758
USER: genes 20 Torsion [C]-N--CA-[C] |==|  0.59003
USER: genes 21 Torsion [N]-CA--C-[N] |==|  0.84819
USER: genes 22 Torsion [C]-N--CA-[CB] |==|  0.85325
USER: genes 23 Torsion [N]-CA--CB-[CG] |==|  0.80383
USER: genes 24 Torsion [CA]-CB--CG-[CD2] |==|  0.90539
USER: genes 25 Torsion [N]-CA--C-[O] |==|  0.97466
USER: genes 26 Torsion [N]-CA--CB-[CG1] |==|  0.75573
USER: genes 27 Torsion [CA]-CB--CG1-[CD1] |==|  0.83863
ROOT
ATOM      1  C   VAL C   3      52.458  32.377  31.421  1.00 15.94 LIG 0.24  C 
ATOM      2 O    VAL C   3      51.482  31.879  31.945  1.00 17.86 LIG-0.27  OA
ATOM      3  N   TYR C   4      53.359  33.050  32.131  1.00 16.41 LIG-0.35  N 
ATOM      4 H    TYR C   4      54.050  33.431  31.792  1.00 16.41 LIG 0.16  HD
ENDROOT
BRANCH 1 5
ATOM      5  CA  VAL C   3      52.644  32.269  29.894  1.00 16.01 LIG 0.18  C 
BRANCH 5 6
ATOM      6  N   VAL C   3      53.694  31.255  29.663  1.00 15.77 LIG-0.35  N 
ATOM      7 H    VAL C   3      53.412  30.476  29.431  1.00 15.77 LIG 0.16  HD
ATOM      8  C   ARG C   2      54.965  31.586  29.818  1.00 16.54 LIG 0.24  C 
ATOM      9 O    ARG C   2      55.331  32.758  30.052  1.00 14.63 LIG-0.27  OA
BRANCH 8 10
ATOM     10  CA  ARG C   2      55.988  30.476  29.674  1.00 19.03 LIG 0.18  C 
BRANCH 10 11
ATOM     11  CB  ARG C   2      55.593  29.579  28.496  1.00 20.38 LIG 0.04  C 
BRANCH 11 12
ATOM     12  CG  ARG C   2      56.725  29.142  27.628  1.00 20.75 LIG 0.02  C 
BRANCH 12 13
ATOM     13  CD  ARG C   2      56.268  28.887  26.261  1.00 22.55 LIG 0.14  C 
BRANCH 13 14
ATOM     14  NE  ARG C   2      56.308  30.065  25.439  1.00 20.36 LIG-0.23  N 
ATOM     15  CZ  ARG C   2      56.075  30.080  24.143  1.00 23.11 LIG 0.67  C 
ATOM     16  NH1 ARG C   2      55.658  29.021  23.542  1.00 23.20 LIG-0.23  N 
ATOM     17  NH2 ARG C   2      56.179  31.234  23.475  1.00 25.55 LIG-0.23  N 
ATOM     18 1HH1 ARG C   2      55.529  28.296  23.986  1.00 23.20 LIG 0.17  HD
ATOM     19 2HH1 ARG C   2      55.508  29.039  22.695  1.00 23.20 LIG 0.17  HD
ATOM     20 2HH2 ARG C   2      56.029  31.257  22.629  1.00 25.55 LIG 0.17  HD
ATOM     21 1HH2 ARG C   2      56.396  31.955  23.892  1.00 25.55 LIG 0.17  HD
ATOM     22 HE   ARG C   2      56.497  30.812  25.820  1.00 20.36 LIG 0.18  HD
ENDBRANCH 13 14
ENDBRANCH 12 13
ENDBRANCH 11 12
ENDBRANCH 10 11
BRANCH 10 23
ATOM     23  N   ARG C   2      56.087  29.687  30.913  1.00 19.42 LIG-0.35  N 
ATOM     24  C   ASP C   1      57.130  28.892  31.107  1.00 19.51 LIG 0.25  C 
ATOM     25 O    ASP C   1      58.150  28.953  30.401  1.00 19.29 LIG-0.27  OA
ATOM     26 H    ARG C   2      55.436  29.788  31.466  1.00 19.42 LIG 0.16  HD
BRANCH 24 27
ATOM     27  CA  ASP C   1      57.044  27.861  32.219  1.00 19.04 LIG 0.28  C 
BRANCH 27 28
ATOM     28  CB  ASP C   1      57.003  28.571  33.548  1.00 21.34 LIG 0.15  C 
BRANCH 28 29
ATOM     29  CG  ASP C   1      58.175  28.149  34.472  1.00 23.67 LIG 0.17  C 
ATOM     30 OD2  ASP C   1      58.246  26.935  34.809  1.00 27.41 LIG-0.65  OA
ATOM     31 OD1  ASP C   1      59.005  29.024  34.883  1.00 20.87 LIG-0.65  OA
ENDBRANCH 28 29
ENDBRANCH 27 28
BRANCH 27 32
ATOM     32  N   ASP C   1      58.269  26.986  32.116  1.00 18.38 LIG-0.07  N 
ATOM     33 H1   ASP C   1      58.942  27.456  31.772  1.00 18.38 LIG 0.28  HD
ATOM     34 H3   ASP C   1      58.093  26.290  31.591  1.00 18.38 LIG 0.28  HD
ATOM     35 H2   ASP C   1      58.496  26.695  32.926  1.00 18.38 LIG 0.28  HD
ENDBRANCH 27 32
ENDBRANCH 24 27
ENDBRANCH 10 23
ENDBRANCH 8 10
ENDBRANCH 5 6
BRANCH 5 36
ATOM     36  CB  VAL C   3      51.309  31.876  29.299  1.00 17.74 LIG 0.01  C 
ATOM     37  CG1 VAL C   3      50.420  33.080  29.074  1.00 20.72 LIG 0.01  C 
ATOM     38  CG2 VAL C   3      51.488  31.177  27.963  1.00 18.64 LIG 0.01  C 
ENDBRANCH 5 36
ENDBRANCH 1 5
BRANCH 3 39
ATOM     39  CA  TYR C   4      53.239  33.194  33.577  1.00 17.90 LIG 0.18  C 
BRANCH 39 40
ATOM     40  CB  TYR C   4      52.197  34.212  33.926  1.00 20.19 LIG 0.07  C 
BRANCH 40 41
ATOM     41  CG  TYR C   4      52.669  35.393  34.731  1.00 23.00 LIG-0.06  A 
ATOM     42  CD2 TYR C   4      52.296  36.689  34.373  1.00 26.62 LIG 0.01  A 
ATOM     43  CE2 TYR C   4      52.722  37.787  35.093  1.00 28.63 LIG 0.04  A 
ATOM     44  CZ  TYR C   4      53.527  37.599  36.174  1.00 25.42 LIG 0.07  A 
ATOM     45  CE1 TYR C   4      53.874  36.355  36.578  1.00 26.89 LIG 0.04  A 
ATOM     46  CD1 TYR C   4      53.444  35.239  35.844  1.00 24.41 LIG 0.01  A 
BRANCH 44 47
ATOM     47 OH   TYR C   4      53.941  38.686  36.888  1.00 32.39 LIG-0.36  OA
ATOM     48 HH   TYR C   4      53.331  38.924  37.415  1.00 32.39 LIG 0.22  HD
ENDBRANCH 44 47
ENDBRANCH 40 41
ENDBRANCH 39 40
BRANCH 39 49
ATOM     49  C   TYR C   4      52.996  31.843  34.308  1.00 20.63 LIG 0.24  C 
ATOM     50 O    TYR C   4      51.915  31.322  34.310  1.00 19.73 LIG-0.27  OA
ATOM     51  N   ILE C   5      54.065  31.243  34.811  1.00 22.91 LIG-0.35  N 
ATOM     52 H    ILE C   5      54.870  31.532  34.719  1.00 22.91 LIG 0.16  HD
BRANCH 51 53
ATOM     53  CA  ILE C   5      53.946  30.016  35.578  1.00 27.58 LIG 0.18  C 
BRANCH 53 54
ATOM     54  C   ILE C   5      55.036  29.974  36.647  1.00 33.14 LIG 0.24  C 
ATOM     55  N   HIS C   6      56.302  30.121  36.236  1.00 39.14 LIG-0.35  N 
ATOM     56 H    HIS C   6      56.521  30.175  35.405  1.00 39.14 LIG 0.16  HD
ATOM     57 O    ILE C   5      54.709  29.705  37.800  1.00 25.88 LIG-0.27  OA
BRANCH 55 58
ATOM     58  CA  HIS C   6      57.482  30.210  37.171  1.00 56.87 LIG 0.17  C 
BRANCH 58 59
ATOM     59  CB  HIS C   6      57.252  31.313  38.245  1.00 66.39 LIG 0.09  C 
BRANCH 59 60
ATOM     60  CG  HIS C   6      57.305  32.720  37.720  1.00 78.50 LIG 0.06  A 
ATOM     61  CD2 HIS C   6      58.058  33.263  36.730  1.00 82.71 LIG 0.14  A 
ATOM     62 NE2  HIS C   6      57.689  34.583  36.611  1.00 84.02 LIG-0.25  NA
ATOM     63  CE1 HIS C   6      56.727  34.841  37.482  1.00 85.20 LIG 0.23  A 
ATOM     64 ND1  HIS C   6      56.471  33.733  38.160  1.00 88.66 LIG-0.24  NA
ENDBRANCH 59 60
ENDBRANCH 58 59
BRANCH 58 65
ATOM     65  C   HIS C   6      57.894  28.929  37.910  1.00 59.18 LIG 0.22  C 
ATOM     66 O    HIS C   6      57.165  27.902  37.867  1.00 63.69 LIG-0.29  OA
ENDBRANCH 58 65
ENDBRANCH 55 58
ENDBRANCH 53 54
BRANCH 53 67
ATOM     67  CB  ILE C   5      54.015  28.814  34.646  1.00 28.54 LIG 0.01  C 
ATOM     68  CG2 ILE C   5      54.681  27.659  35.391  1.00 32.34 LIG 0.01  C 
BRANCH 67 69
ATOM     69  CG1 ILE C   5      52.581  28.529  34.168  1.00 30.21 LIG 0.00  C 
ATOM     70  CD1 ILE C   5      51.559  28.252  35.241  1.00 32.85 LIG 0.01  C 
ENDBRANCH 67 69
ENDBRANCH 53 67
ENDBRANCH 51 53
ENDBRANCH 39 49
ENDBRANCH 3 39
TORSDOF 26
ENDMDL
MODEL 77
USER: ADFR SOLUTION from run 137
USER: SCORE 20.792022 LL:  -5.904 LR: -16.836 RR:   0.000 FEB:  -9.080
USER: RMSD 7.940506
USER: SEED 136
USER: STATUS no improvement in best in 22 clusters for 5 generations
USER: GENES 28
USER: genes 0 Translation |==|  0.42080 0.64933 0.47809
USER: genes 1 Rotation |==|  0.31615 0.24913 0.14101 0.65617
USER: genes 2 Torsion [N]-C--CA-[N] |==|  0.38852
USER: genes 3 Torsion [C]-CA--N-[C] |==|  0.87222
USER: genes 4 Torsion [N]-C--CA-[N] |==|  0.03281
USER: genes 5 Torsion [C]-CA--CB-[CG] |==|  0.26706
USER: genes 6 Torsion [CA]-CB--CG-[CD] |==|  0.67180
USER: genes 7 Torsion [CB]-CG--CD-[NE] |==|  0.73973
USER: genes 8 Torsion [CG]-CD--NE-[CZ] |==|  0.41563
USER: genes 9 Torsion [C]-CA--N-[C] |==|  0.17240
USER: genes 10 Torsion [N]-C--CA-[N] |==|  0.40175
USER: genes 11 Torsion [C]-CA--CB-[CG] |==|  0.48743
USER: genes 12 Torsion [CA]-CB--CG-[OD2] |==|  0.18709
USER: genes 13 Torsion [C]-CA--N-[H1] |==|  0.12460
USER: genes 14 Torsion [C]-CA--CB-[CG1] |==|  0.65686
USER: genes 15 Torsion [C]-N--CA-[CB] |==|  0.83853
USER: genes 16 Torsion [N]-CA--CB-[CG] |==|  0.35713
USER: genes 17 Torsion [CA]-CB--CG-[CD2] |==|  0.75057
USER: genes 18 Torsion [CE2]-CZ--OH-[HH] |==|  0.57499
USER: genes 19 Torsion [N]-CA--C-[N] |==|  0.30877
USER: genes 20 Torsion [C]-N--CA-[C] |==|  0.15184
USER: genes 21 Torsion [N]-CA--C-[N] |==|  0.54149
USER: genes 22 Torsion [C]-N--CA-[CB] |==|  0.38396
USER: genes 23 Torsion [N]-CA--CB-[CG] |==|  0.81323
USER: genes 24 Torsion [CA]-CB--CG-[CD2] |==|  0.34091
USER: genes 25 Torsion [N]-CA--C-[O] |==|  0.33437
USER: genes 26 Torsion [N]-CA--CB-[CG1] |==|  0.23314
USER: genes 27 Torsion [CA]-CB--CG1-[CD1] |==|  0.39622
ROOT
ATOM      1  C   VAL C   3      52.778  33.138  33.786  1.00 15.94 LIG 0.24  C 
ATOM      2 O    VAL C   3      53.757  33.130  33.065  1.00 17.86 LIG-0.27  OA
ATOM      3  N   TYR C   4      51.895  32.144  33.766  1.00 16.41 LIG-0.35  N 
ATOM      4 H    TYR C   4      51.182  32.126  34.247  1.00 16.41 LIG 0.16  HD
ENDROOT
BRANCH 1 5
ATOM      5  CA  VAL C   3      52.525  34.342  34.716  1.00 16.01 LIG 0.18  C 
BRANCH 5 6
ATOM      6  N   VAL C   3      53.832  34.712  35.299  1.00 15.77 LIG-0.35  N 
ATOM      7 H    VAL C   3      54.014  35.553  35.294  1.00 15.77 LIG 0.16  HD
ATOM      8  C   ARG C   2      54.622  33.767  35.780  1.00 16.54 LIG 0.24  C 
ATOM      9 O    ARG C   2      54.268  32.571  35.861  1.00 14.63 LIG-0.27  OA
BRANCH 8 10
ATOM     10  CA  ARG C   2      55.994  34.197  36.264  1.00 19.03 LIG 0.18  C 
BRANCH 10 11
ATOM     11  CB  ARG C   2      56.270  33.553  37.627  1.00 20.38 LIG 0.04  C 
BRANCH 11 12
ATOM     12  CG  ARG C   2      57.062  32.290  37.580  1.00 20.75 LIG 0.02  C 
BRANCH 12 13
ATOM     13  CD  ARG C   2      56.288  31.167  38.113  1.00 22.55 LIG 0.14  C 
BRANCH 13 14
ATOM     14  NE  ARG C   2      56.535  30.943  39.512  1.00 20.36 LIG-0.23  N 
ATOM     15  CZ  ARG C   2      55.652  30.453  40.356  1.00 23.11 LIG 0.67  C 
ATOM     16  NH1 ARG C   2      54.519  30.011  39.935  1.00 23.20 LIG-0.23  N 
ATOM     17  NH2 ARG C   2      55.985  30.325  41.646  1.00 25.55 LIG-0.23  N 
ATOM     18 1HH1 ARG C   2      54.333  30.035  39.096  1.00 23.20 LIG 0.17  HD
ATOM     19 2HH1 ARG C   2      53.948  29.692  40.493  1.00 23.20 LIG 0.17  HD
ATOM     20 2HH2 ARG C   2      55.417  30.005  42.207  1.00 25.55 LIG 0.17  HD
ATOM     21 1HH2 ARG C   2      56.768  30.562  41.914  1.00 25.55 LIG 0.17  HD
ATOM     22 HE   ARG C   2      57.313  31.144  39.818  1.00 20.36 LIG 0.18  HD
ENDBRANCH 13 14
ENDBRANCH 12 13
ENDBRANCH 11 12
ENDBRANCH 10 11
BRANCH 10 23
ATOM     23  N   ARG C   2      56.083  35.663  36.359  1.00 19.42 LIG-0.35  N 
ATOM     24  C   ASP C   1      55.289  36.320  37.192  1.00 19.51 LIG 0.25  C 
ATOM     25 O    ASP C   1      54.629  35.743  38.073  1.00 19.29 LIG-0.27  OA
ATOM     26 H    ARG C   2      56.670  36.029  35.848  1.00 19.42 LIG 0.16  HD
BRANCH 24 27
ATOM     27  CA  ASP C   1      55.175  37.826  37.033  1.00 19.04 LIG 0.28  C 
BRANCH 27 28
ATOM     28  CB  ASP C   1      56.141  38.496  37.975  1.00 21.34 LIG 0.15  C 
BRANCH 28 29
ATOM     29  CG  ASP C   1      56.164  40.036  37.791  1.00 23.67 LIG 0.17  C 
ATOM     30 OD2  ASP C   1      55.126  40.678  38.110  1.00 27.41 LIG-0.65  OA
ATOM     31 OD1  ASP C   1      57.197  40.601  37.304  1.00 20.87 LIG-0.65  OA
ENDBRANCH 28 29
ENDBRANCH 27 28
BRANCH 27 32
ATOM     32  N   ASP C   1      53.753  38.207  37.361  1.00 18.38 LIG-0.07  N 
ATOM     33 H1   ASP C   1      53.495  37.782  38.100  1.00 18.38 LIG 0.28  HD
ATOM     34 H3   ASP C   1      53.221  37.978  36.686  1.00 18.38 LIG 0.28  HD
ATOM     35 H2   ASP C   1      53.703  39.086  37.492  1.00 18.38 LIG 0.28  HD
ENDBRANCH 27 32
ENDBRANCH 24 27
ENDBRANCH 10 23
ENDBRANCH 8 10
ENDBRANCH 5 6
BRANCH 5 36
ATOM     36  CB  VAL C   3      51.923  35.448  33.878  1.00 17.74 LIG 0.01  C 
ATOM     37  CG1 VAL C   3      52.738  36.721  33.960  1.00 20.72 LIG 0.01  C 
ATOM     38  CG2 VAL C   3      51.840  35.045  32.416  1.00 18.64 LIG 0.01  C 
ENDBRANCH 5 36
ENDBRANCH 1 5
BRANCH 3 39
ATOM     39  CA  TYR C   4      52.072  30.981  32.905  1.00 17.90 LIG 0.18  C 
BRANCH 39 40
ATOM     40  CB  TYR C   4      52.169  31.391  31.468  1.00 20.19 LIG 0.07  C 
BRANCH 40 41
ATOM     41  CG  TYR C   4      53.350  30.853  30.705  1.00 23.00 LIG-0.06  A 
ATOM     42  CD2 TYR C   4      54.552  31.561  30.668  1.00 26.62 LIG 0.01  A 
ATOM     43  CE2 TYR C   4      55.646  31.089  29.970  1.00 28.63 LIG 0.04  A 
ATOM     44  CZ  TYR C   4      55.546  29.908  29.300  1.00 25.42 LIG 0.07  A 
ATOM     45  CE1 TYR C   4      54.411  29.173  29.349  1.00 26.89 LIG 0.04  A 
ATOM     46  CD1 TYR C   4      53.299  29.653  30.055  1.00 24.41 LIG 0.01  A 
BRANCH 44 47
ATOM     47 OH   TYR C   4      56.630  29.441  28.616  1.00 32.39 LIG-0.36  OA
ATOM     48 HH   TYR C   4      56.373  28.955  27.981  1.00 32.39 LIG 0.22  HD
ENDBRANCH 44 47
ENDBRANCH 40 41
ENDBRANCH 39 40
BRANCH 39 49
ATOM     49  C   TYR C   4      53.268  30.082  33.332  1.00 20.63 LIG 0.24  C 
ATOM     50 O    TYR C   4      54.394  30.498  33.323  1.00 19.73 LIG-0.27  OA
ATOM     51  N   ILE C   5      52.964  28.890  33.823  1.00 22.91 LIG-0.35  N 
ATOM     52 H    ILE C   5      52.161  28.612  33.955  1.00 22.91 LIG 0.16  HD
BRANCH 51 53
ATOM     53  CA  ILE C   5      54.001  27.939  34.183  1.00 27.58 LIG 0.18  C 
BRANCH 53 54
ATOM     54  C   ILE C   5      54.975  28.591  35.162  1.00 33.14 LIG 0.24  C 
ATOM     55  N   HIS C   6      56.148  27.974  35.359  1.00 39.14 LIG-0.35  N 
ATOM     56 H    HIS C   6      56.340  27.212  35.009  1.00 39.14 LIG 0.16  HD
ATOM     57 O    ILE C   5      54.595  29.575  35.790  1.00 25.88 LIG-0.27  OA
BRANCH 55 58
ATOM     58  CA  HIS C   6      57.258  28.539  36.208  1.00 56.87 LIG 0.17  C 
BRANCH 58 59
ATOM     59  CB  HIS C   6      57.907  27.425  37.080  1.00 66.39 LIG 0.09  C 
BRANCH 59 60
ATOM     60  CG  HIS C   6      57.010  26.860  38.145  1.00 78.50 LIG 0.06  A 
ATOM     61  CD2 HIS C   6      56.610  25.584  38.373  1.00 82.71 LIG 0.14  A 
ATOM     62 NE2  HIS C   6      55.830  25.595  39.507  1.00 84.02 LIG-0.25  NA
ATOM     63  CE1 HIS C   6      55.770  26.831  39.975  1.00 85.20 LIG 0.23  A 
ATOM     64 ND1  HIS C   6      56.478  27.614  39.177  1.00 88.66 LIG-0.24  NA
ENDBRANCH 59 60
ENDBRANCH 58 59
BRANCH 58 65
ATOM     65  C   HIS C   6      58.395  29.277  35.486  1.00 59.18 LIG 0.22  C 
ATOM     66 O    HIS C   6      58.642  30.484  35.747  1.00 63.69 LIG-0.29  OA
ENDBRANCH 58 65
ENDBRANCH 55 58
ENDBRANCH 53 54
BRANCH 53 67
ATOM     67  CB  ILE C   5      54.703  27.438  32.928  1.00 28.54 LIG 0.01  C 
ATOM     68  CG2 ILE C   5      53.654  27.211  31.842  1.00 32.34 LIG 0.01  C 
BRANCH 67 69
ATOM     69  CG1 ILE C   5      55.785  28.471  32.571  1.00 30.21 LIG 0.00  C 
ATOM     70  CD1 ILE C   5      57.082  27.922  32.030  1.00 32.85 LIG 0.01  C 
ENDBRANCH 67 69
ENDBRANCH 53 67
ENDBRANCH 51 53
ENDBRANCH 39 49
ENDBRANCH 3 39
TORSDOF 26
ENDMDL
MODEL 78
USER: ADFR SOLUTION from run 7
USER: SCORE 19.512690 LL:  -5.320 LR: -16.837 RR:   0.000 FEB:  -9.081
USER: RMSD 9.961178
USER: SEED 215705
USER: STATUS no improvement in best in 17 clusters for 5 generations
USER: GENES 28
USER: genes 0 Translation |==|  0.49448 0.53137 0.53605
USER: genes 1 Rotation |==|  0.57077 0.09093 0.31024 0.70408
USER: genes 2 Torsion [N]-C--CA-[N] |==|  0.52363
USER: genes 3 Torsion [C]-CA--N-[C] |==|  0.19707
USER: genes 4 Torsion [N]-C--CA-[N] |==|  0.65007
USER: genes 5 Torsion [C]-CA--CB-[CG] |==|  0.26092
USER: genes 6 Torsion [CA]-CB--CG-[CD] |==|  0.20035
USER: genes 7 Torsion [CB]-CG--CD-[NE] |==|  0.32417
USER: genes 8 Torsion [CG]-CD--NE-[CZ] |==|  0.33025
USER: genes 9 Torsion [C]-CA--N-[C] |==|  0.71998
USER: genes 10 Torsion [N]-C--CA-[N] |==|  0.39101
USER: genes 11 Torsion [C]-CA--CB-[CG] |==|  0.59466
USER: genes 12 Torsion [CA]-CB--CG-[OD2] |==|  0.87026
USER: genes 13 Torsion [C]-CA--N-[H1] |==|  0.98553
USER: genes 14 Torsion [C]-CA--CB-[CG1] |==|  0.22241
USER: genes 15 Torsion [C]-N--CA-[CB] |==|  0.14627
USER: genes 16 Torsion [N]-CA--CB-[CG] |==|  0.20573
USER: genes 17 Torsion [CA]-CB--CG-[CD2] |==|  0.30096
USER: genes 18 Torsion [CE2]-CZ--OH-[HH] |==|  0.52502
USER: genes 19 Torsion [N]-CA--C-[N] |==|  0.14360
USER: genes 20 Torsion [C]-N--CA-[C] |==|  0.20130
USER: genes 21 Torsion [N]-CA--C-[N] |==|  0.67781
USER: genes 22 Torsion [C]-N--CA-[CB] |==|  0.38067
USER: genes 23 Torsion [N]-CA--CB-[CG] |==|  0.89361
USER: genes 24 Torsion [CA]-CB--CG-[CD2] |==|  0.85859
USER: genes 25 Torsion [N]-CA--C-[O] |==|  0.10918
USER: genes 26 Torsion [N]-CA--CB-[CG1] |==|  0.87438
USER: genes 27 Torsion [CA]-CB--CG1-[CD1] |==|  0.61075
ROOT
ATOM      1  C   VAL C   3      54.049  30.130  35.307  1.00 15.94 LIG 0.24  C 
ATOM      2 O    VAL C   3      54.760  31.063  34.990  1.00 17.86 LIG-0.27  OA
ATOM      3  N   TYR C   4      54.562  28.975  35.719  1.00 16.41 LIG-0.35  N 
ATOM      4 H    TYR C   4      54.091  28.289  35.933  1.00 16.41 LIG 0.16  HD
ENDROOT
BRANCH 1 5
ATOM      5  CA  VAL C   3      52.517  30.266  35.192  1.00 16.01 LIG 0.18  C 
BRANCH 5 6
ATOM      6  N   VAL C   3      52.252  31.558  34.524  1.00 15.77 LIG-0.35  N 
ATOM      7 H    VAL C   3      51.917  32.172  35.026  1.00 15.77 LIG 0.16  HD
ATOM      8  C   ARG C   2      52.534  31.697  33.239  1.00 16.54 LIG 0.24  C 
ATOM      9 O    ARG C   2      53.117  30.810  32.579  1.00 14.63 LIG-0.27  OA
BRANCH 8 10
ATOM     10  CA  ARG C   2      52.139  33.007  32.586  1.00 19.03 LIG 0.18  C 
BRANCH 10 11
ATOM     11  CB  ARG C   2      51.381  33.866  33.603  1.00 20.38 LIG 0.04  C 
BRANCH 11 12
ATOM     12  CG  ARG C   2      52.222  34.838  34.360  1.00 20.75 LIG 0.02  C 
BRANCH 12 13
ATOM     13  CD  ARG C   2      52.644  35.946  33.501  1.00 22.55 LIG 0.14  C 
BRANCH 13 14
ATOM     14  NE  ARG C   2      52.124  37.212  33.939  1.00 20.36 LIG-0.23  N 
ATOM     15  CZ  ARG C   2      52.865  38.235  34.310  1.00 23.11 LIG 0.67  C 
ATOM     16  NH1 ARG C   2      54.144  38.200  34.176  1.00 23.20 LIG-0.23  N 
ATOM     17  NH2 ARG C   2      52.265  39.353  34.736  1.00 25.55 LIG-0.23  N 
ATOM     18 1HH1 ARG C   2      54.522  37.504  33.841  1.00 23.20 LIG 0.17  HD
ATOM     19 2HH1 ARG C   2      54.621  38.873  34.420  1.00 23.20 LIG 0.17  HD
ATOM     20 2HH2 ARG C   2      52.738  40.028  34.981  1.00 25.55 LIG 0.17  HD
ATOM     21 1HH2 ARG C   2      51.406  39.397  34.765  1.00 25.55 LIG 0.17  HD
ATOM     22 HE   ARG C   2      51.270  37.307  33.960  1.00 20.36 LIG 0.18  HD
ENDBRANCH 13 14
ENDBRANCH 12 13
ENDBRANCH 11 12
ENDBRANCH 10 11
BRANCH 10 23
ATOM     23  N   ARG C   2      51.310  32.771  31.392  1.00 19.42 LIG-0.35  N 
ATOM     24  C   ASP C   1      51.857  32.841  30.186  1.00 19.51 LIG 0.25  C 
ATOM     25 O    ASP C   1      53.087  32.865  30.016  1.00 19.29 LIG-0.27  OA
ATOM     26 H    ARG C   2      50.483  32.594  31.547  1.00 19.42 LIG 0.16  HD
BRANCH 24 27
ATOM     27  CA  ASP C   1      50.929  32.919  28.986  1.00 19.04 LIG 0.28  C 
BRANCH 27 28
ATOM     28  CB  ASP C   1      50.797  31.548  28.374  1.00 21.34 LIG 0.15  C 
BRANCH 28 29
ATOM     29  CG  ASP C   1      50.643  31.610  26.832  1.00 23.67 LIG 0.17  C 
ATOM     30 OD2  ASP C   1      49.818  32.439  26.360  1.00 27.41 LIG-0.65  OA
ATOM     31 OD1  ASP C   1      51.318  30.819  26.095  1.00 20.87 LIG-0.65  OA
ENDBRANCH 28 29
ENDBRANCH 27 28
BRANCH 27 32
ATOM     32  N   ASP C   1      51.543  33.887  28.005  1.00 18.38 LIG-0.07  N 
ATOM     33 H1   ASP C   1      52.267  34.258  28.367  1.00 18.38 LIG 0.28  HD
ATOM     34 H3   ASP C   1      50.953  34.522  27.806  1.00 18.38 LIG 0.28  HD
ATOM     35 H2   ASP C   1      51.772  33.454  27.263  1.00 18.38 LIG 0.28  HD
ENDBRANCH 27 32
ENDBRANCH 24 27
ENDBRANCH 10 23
ENDBRANCH 8 10
ENDBRANCH 5 6
BRANCH 5 36
ATOM     36  CB  VAL C   3      52.012  29.081  34.399  1.00 17.74 LIG 0.01  C 
ATOM     37  CG1 VAL C   3      51.899  27.839  35.257  1.00 20.72 LIG 0.01  C 
ATOM     38  CG2 VAL C   3      50.641  29.361  33.809  1.00 18.64 LIG 0.01  C 
ENDBRANCH 5 36
ENDBRANCH 1 5
BRANCH 3 39
ATOM     39  CA  TYR C   4      56.002  28.779  35.844  1.00 17.90 LIG 0.18  C 
BRANCH 39 40
ATOM     40  CB  TYR C   4      56.616  29.861  36.679  1.00 20.19 LIG 0.07  C 
BRANCH 40 41
ATOM     41  CG  TYR C   4      56.363  29.778  38.160  1.00 23.00 LIG-0.06  A 
ATOM     42  CD2 TYR C   4      57.390  29.421  39.036  1.00 26.62 LIG 0.01  A 
ATOM     43  CE2 TYR C   4      57.179  29.332  40.397  1.00 28.63 LIG 0.04  A 
ATOM     44  CZ  TYR C   4      55.940  29.595  40.895  1.00 25.42 LIG 0.07  A 
ATOM     45  CE1 TYR C   4      54.931  29.987  40.082  1.00 26.89 LIG 0.04  A 
ATOM     46  CD1 TYR C   4      55.144  30.074  38.698  1.00 24.41 LIG 0.01  A 
BRANCH 44 47
ATOM     47 OH   TYR C   4      55.735  29.514  42.242  1.00 32.39 LIG-0.36  OA
ATOM     48 HH   TYR C   4      54.914  29.576  42.404  1.00 32.39 LIG 0.22  HD
ENDBRANCH 44 47
ENDBRANCH 40 41
ENDBRANCH 39 40
BRANCH 39 49
ATOM     49  C   TYR C   4      56.382  27.363  36.363  1.00 20.63 LIG 0.24  C 
ATOM     50 O    TYR C   4      57.031  27.219  37.362  1.00 19.73 LIG-0.27  OA
ATOM     51  N   ILE C   5      55.848  26.336  35.719  1.00 22.91 LIG-0.35  N 
ATOM     52 H    ILE C   5      55.282  26.410  35.075  1.00 22.91 LIG 0.16  HD
BRANCH 51 53
ATOM     53  CA  ILE C   5      56.192  24.969  36.068  1.00 27.58 LIG 0.18  C 
BRANCH 53 54
ATOM     54  C   ILE C   5      55.547  24.604  37.403  1.00 33.14 LIG 0.24  C 
ATOM     55  N   HIS C   6      56.369  24.331  38.425  1.00 39.14 LIG-0.35  N 
ATOM     56 H    HIS C   6      57.225  24.295  38.339  1.00 39.14 LIG 0.16  HD
ATOM     57 O    ILE C   5      54.326  24.477  37.443  1.00 25.88 LIG-0.27  OA
BRANCH 55 58
ATOM     58  CA  HIS C   6      55.896  24.059  39.830  1.00 56.87 LIG 0.17  C 
BRANCH 58 59
ATOM     59  CB  HIS C   6      56.671  22.859  40.449  1.00 66.39 LIG 0.09  C 
BRANCH 59 60
ATOM     60  CG  HIS C   6      56.960  21.737  39.492  1.00 78.50 LIG 0.06  A 
ATOM     61  CD2 HIS C   6      56.136  21.062  38.653  1.00 82.71 LIG 0.14  A 
ATOM     62 NE2  HIS C   6      56.909  20.161  37.955  1.00 84.02 LIG-0.25  NA
ATOM     63  CE1 HIS C   6      58.169  20.292  38.335  1.00 85.20 LIG 0.23  A 
ATOM     64 ND1  HIS C   6      58.231  21.240  39.256  1.00 88.66 LIG-0.24  NA
ENDBRANCH 59 60
ENDBRANCH 58 59
BRANCH 58 65
ATOM     65  C   HIS C   6      55.965  25.217  40.835  1.00 59.18 LIG 0.22  C 
ATOM     66 O    HIS C   6      55.673  26.390  40.481  1.00 63.69 LIG-0.29  OA
ENDBRANCH 58 65
ENDBRANCH 55 58
ENDBRANCH 53 54
BRANCH 53 67
ATOM     67  CB  ILE C   5      57.706  24.808  36.102  1.00 28.54 LIG 0.01  C 
ATOM     68  CG2 ILE C   5      58.035  23.321  36.214  1.00 32.34 LIG 0.01  C 
BRANCH 67 69
ATOM     69  CG1 ILE C   5      58.264  25.498  34.846  1.00 30.21 LIG 0.00  C 
ATOM     70  CD1 ILE C   5      59.401  24.797  34.146  1.00 32.85 LIG 0.01  C 
ENDBRANCH 67 69
ENDBRANCH 53 67
ENDBRANCH 51 53
ENDBRANCH 39 49
ENDBRANCH 3 39
TORSDOF 26
ENDMDL
