MODEL 1
USER: ADFR SOLUTION from run 167
USER: SCORE 21.177980 LL:  -3.072 LR: -19.726 RR:   0.000 FEB: -11.075
USER: RMSD 7.550326
USER: SEED 166
USER: STATUS searching
USER: GENES 31
USER: genes 0 Translation |==|  0.55981 0.66018 0.45565
USER: genes 1 Rotation |==|  0.57370 0.96394 0.37379 0.61575
USER: genes 2 Torsion [N]-CA--C-[N] |==|  0.41066
USER: genes 3 Torsion [C]-N--CA-[CB] |==|  0.83294
USER: genes 4 Torsion [N]-CA--CB-[OG] |==|  0.80973
USER: genes 5 Torsion [CA]-CB--OG-[HG] |==|  0.76205
USER: genes 6 Torsion [N]-CA--C-[N] |==|  0.48657
USER: genes 7 Torsion [C]-N--CA-[CB] |==|  0.21912
USER: genes 8 Torsion [N]-CA--CB-[CG] |==|  0.55631
USER: genes 9 Torsion [CA]-CB--CG-[CD2] |==|  0.99801
USER: genes 10 Torsion [N]-CA--C-[N] |==|  0.94444
USER: genes 11 Torsion [C]-N--CA-[CB] |==|  0.54842
USER: genes 12 Torsion [N]-CA--CB-[OG] |==|  0.07661
USER: genes 13 Torsion [CA]-CB--OG-[HG] |==|  0.88579
USER: genes 14 Torsion [N]-CA--C-[O] |==|  0.41357
USER: genes 15 Torsion [C]-CA--CB-[CG] |==|  0.12779
USER: genes 16 Torsion [CA]-CB--CG-[CD] |==|  0.16638
USER: genes 17 Torsion [CB]-CG--CD-[NE] |==|  0.60160
USER: genes 18 Torsion [CG]-CD--NE-[CZ] |==|  0.54011
USER: genes 19 Torsion [C]-CA--N-[C] |==|  0.78467
USER: genes 20 Torsion [N]-C--CA-[N] |==|  0.10216
USER: genes 21 Torsion [C]-CA--CB-[CG] |==|  0.53272
USER: genes 22 Torsion [CA]-CB--CG-[CD] |==|  0.22714
USER: genes 23 Torsion [CB]-CG--CD-[CE] |==|  0.52500
USER: genes 24 Torsion [CG]-CD--CE-[NZ] |==|  0.56696
USER: genes 25 Torsion [CD]-CE--NZ-[HZ2] |==|  0.27812
USER: genes 26 Torsion [C]-CA--N-[C] |==|  0.63621
USER: genes 27 Torsion [N]-C--CA-[N] |==|  0.09681
USER: genes 28 Torsion [C]-CA--CB-[CG] |==|  0.55418
USER: genes 29 Torsion [CA]-CB--CG-[CD] |==|  0.31787
USER: genes 30 Torsion [CB]-CG--CD-[OE1] |==|  0.32305
ROOT
ATOM      1  CA  ARG C 843       1.624   8.276   8.118  1.00 48.28 LIG 0.18  C 
ENDROOT
BRANCH 1 2
ATOM      2  C   ARG C 843       1.676   6.754   8.038  1.00 51.26 LIG 0.24  C 
ATOM      3  N   SER C 844       0.503   6.106   8.134  1.00 48.21 LIG-0.34  N 
ATOM      4 H    SER C 844      -0.249   6.505   8.257  1.00 48.21 LIG 0.16  HD
ATOM      5 O    ARG C 843       2.761   6.178   7.905  1.00 49.46 LIG-0.27  OA
BRANCH 3 6
ATOM      6  CA  SER C 844       0.389   4.647   8.038  1.00 48.58 LIG 0.20  C 
BRANCH 6 7
ATOM      7  CB  SER C 844       0.900   4.151   6.685  1.00 52.82 LIG 0.20  C 
BRANCH 7 8
ATOM      8 OG   SER C 844       0.062   4.544   5.608  1.00 64.87 LIG-0.40  OA
ATOM      9 HG   SER C 844      -0.560   3.987   5.519  1.00 64.87 LIG 0.21  HD
ENDBRANCH 7 8
ENDBRANCH 6 7
BRANCH 6 10
ATOM     10  C   SER C 844       1.155   3.971   9.178  1.00 51.88 LIG 0.24  C 
ATOM     11  N   PHE C 845       1.053   2.632   9.271  1.00 48.65 LIG-0.35  N 
ATOM     12 H    PHE C 845       0.553   2.162   8.752  1.00 48.65 LIG 0.16  HD
ATOM     13 O    SER C 844       1.817   4.654   9.965  1.00 50.80 LIG-0.27  OA
BRANCH 11 14
ATOM     14  CA  PHE C 845       1.780   1.838  10.263  1.00 48.60 LIG 0.18  C 
BRANCH 14 15
ATOM     15  CB  PHE C 845       1.104   1.905  11.655  1.00 50.69 LIG 0.07  C 
BRANCH 15 16
ATOM     16  CG  PHE C 845       1.919   1.555  12.891  1.00 53.32 LIG-0.06  A 
ATOM     17  CD2 PHE C 845       3.248   1.167  12.779  1.00 56.28 LIG 0.01  A 
ATOM     18  CE2 PHE C 845       4.006   0.844  13.913  1.00 59.52 LIG 0.00  A 
ATOM     19  CZ  PHE C 845       3.427   0.870  15.157  1.00 57.95 LIG 0.00  A 
ATOM     20  CE1 PHE C 845       2.104   1.239  15.292  1.00 59.50 LIG 0.00  A 
ATOM     21  CD1 PHE C 845       1.346   1.565  14.158  1.00 58.05 LIG 0.01  A 
ENDBRANCH 15 16
ENDBRANCH 14 15
BRANCH 14 22
ATOM     22  C   PHE C 845       1.878   0.410   9.716  1.00 51.55 LIG 0.24  C 
ATOM     23 O    PHE C 845       2.693  -0.394  10.187  1.00 49.31 LIG-0.27  OA
ATOM     24  N   SER C 846       0.987   0.090   8.759  1.00 48.84 LIG-0.34  N 
ATOM     25 H    SER C 846       0.404   0.650   8.465  1.00 48.84 LIG 0.16  HD
BRANCH 24 26
ATOM     26  CA  SER C 846       0.899  -1.221   8.116  1.00 80.27 LIG 0.19  C 
BRANCH 26 27
ATOM     27  CB  SER C 846       0.104  -1.123   6.817  1.00 83.79 LIG 0.20  C 
BRANCH 27 28
ATOM     28 OG   SER C 846       0.199   0.173   6.248  1.00 92.96 LIG-0.40  OA
ATOM     29 HG   SER C 846       0.146   0.751   6.856  1.00 92.96 LIG 0.21  HD
ENDBRANCH 27 28
ENDBRANCH 26 27
BRANCH 26 30
ATOM     30  C   SER C 846       2.287  -1.782   7.842  1.00107.57 LIG 0.22  C 
ATOM     31 O    SER C 846       2.471  -2.997   7.859  1.00 73.66 LIG-0.29  OA
ENDBRANCH 26 30
ENDBRANCH 24 26
ENDBRANCH 14 22
ENDBRANCH 11 14
ENDBRANCH 6 10
ENDBRANCH 3 6
ENDBRANCH 1 2
BRANCH 1 32
ATOM     32  CB  ARG C 843       1.408   8.881   6.701  1.00 50.74 LIG 0.04  C 
BRANCH 32 33
ATOM     33  CG  ARG C 843       0.308   8.193   5.878  1.00 63.97 LIG 0.02  C 
BRANCH 33 34
ATOM     34  CD  ARG C 843      -1.058   8.239   6.522  1.00 82.46 LIG 0.14  C 
BRANCH 34 35
ATOM     35  NE  ARG C 843      -1.788   6.999   6.272  1.00 98.18 LIG-0.23  N 
ATOM     36 HE   ARG C 843      -1.342   6.324   5.979  1.00 98.18 LIG 0.18  HD
ATOM     37  CZ  ARG C 843      -3.093   6.841   6.465  1.00115.63 LIG 0.67  C 
ATOM     38  NH2 ARG C 843      -3.665   5.670   6.237  1.00101.74 LIG-0.23  N 
ATOM     39  NH1 ARG C 843      -3.838   7.859   6.881  1.00105.44 LIG-0.23  N 
ATOM     40 1HH2 ARG C 843      -3.192   5.006   5.963  1.00101.74 LIG 0.17  HD
ATOM     41 2HH2 ARG C 843      -4.510   5.572   6.364  1.00101.74 LIG 0.17  HD
ATOM     42 1HH1 ARG C 843      -3.477   8.626   7.026  1.00105.44 LIG 0.17  HD
ATOM     43 2HH1 ARG C 843      -4.682   7.752   7.005  1.00105.44 LIG 0.17  HD
ENDBRANCH 34 35
ENDBRANCH 33 34
ENDBRANCH 32 33
ENDBRANCH 1 32
BRANCH 1 44
ATOM     44  N   ARG C 843       2.842   8.805   8.749  1.00 47.52 LIG-0.35  N 
ATOM     45  C   LYS C 842       3.036   8.766  10.075  1.00 51.06 LIG 0.24  C 
ATOM     46 O    LYS C 842       2.220   8.279  10.862  1.00 51.08 LIG-0.27  OA
ATOM     47 H    ARG C 843       3.409   9.136   8.194  1.00 47.52 LIG 0.16  HD
BRANCH 45 48
ATOM     48  CA  LYS C 842       4.328   9.363  10.607  1.00 46.69 LIG 0.18  C 
BRANCH 48 49
ATOM     49  CB  LYS C 842       4.185   9.688  12.105  1.00 47.71 LIG 0.04  C 
BRANCH 49 50
ATOM     50  CG  LYS C 842       5.306  10.541  12.675  1.00 50.03 LIG 0.00  C 
BRANCH 50 51
ATOM     51  CD  LYS C 842       5.064  12.010  12.369  1.00 53.65 LIG 0.03  C 
BRANCH 51 52
ATOM     52  CE  LYS C 842       6.266  12.841  12.733  1.00 52.95 LIG 0.23  C 
BRANCH 52 53
ATOM     53  NZ  LYS C 842       5.914  14.255  12.999  1.00 44.67 LIG-0.08  N 
ATOM     54 HZ3  LYS C 842       6.536  14.787  12.651  1.00 44.67 LIG 0.27  HD
ATOM     55 HZ2  LYS C 842       5.867  14.390  13.877  1.00 44.67 LIG 0.27  HD
ATOM     56 HZ1  LYS C 842       5.125  14.439  12.628  1.00 44.67 LIG 0.27  HD
ENDBRANCH 52 53
ENDBRANCH 51 52
ENDBRANCH 50 51
ENDBRANCH 49 50
ENDBRANCH 48 49
BRANCH 48 57
ATOM     57  N   LYS C 842       4.680  10.547   9.826  1.00 47.24 LIG-0.35  N 
ATOM     58 H    LYS C 842       4.023  11.095   9.733  1.00 47.24 LIG 0.16  HD
ATOM     59  C   GLN C 841       5.891  10.781   9.299  1.00 52.93 LIG 0.26  C 
ATOM     60 O    GLN C 841       6.859  10.032   9.464  1.00 51.68 LIG-0.27  OA
BRANCH 59 61
ATOM     61  CA  GLN C 841       6.049  12.084   8.510  1.00 52.44 LIG 0.40  C 
ATOM     62  N   GLN C 841       5.235  13.138   9.118  1.00 53.67 LIG 0.61  N 
BRANCH 61 63
ATOM     63  CB  GLN C 841       7.533  12.509   8.435  1.00 53.85 LIG 0.06  C 
BRANCH 63 64
ATOM     64  CG  GLN C 841       7.770  13.990   8.096  1.00 74.06 LIG 0.10  C 
BRANCH 64 65
ATOM     65  CD  GLN C 841       8.413  14.804   9.204  1.00 99.82 LIG 0.21  C 
ATOM     66 OE1  GLN C 841       9.532  15.323   9.078  1.00 97.42 LIG-0.27  OA
ATOM     67  NE2 GLN C 841       7.691  14.975  10.303  1.00 91.89 LIG-0.37  N 
ATOM     68 22HE GLN C 841       7.997  15.454  10.947  1.00 91.89 LIG 0.16  HD
ATOM     69 21HE GLN C 841       6.917  14.606  10.370  1.00 91.89 LIG 0.16  HD
ENDBRANCH 64 65
ENDBRANCH 63 64
ENDBRANCH 61 63
ENDBRANCH 59 61
ENDBRANCH 48 57
ENDBRANCH 45 48
ENDBRANCH 1 44
TORSDOF 29
ENDMDL
MODEL 2
USER: ADFR SOLUTION from run 23
USER: SCORE 20.358473 LL:  -3.338 LR: -19.474 RR:   0.000 FEB: -10.823
USER: RMSD 6.633697
USER: SEED 22
USER: STATUS no improvement in best in 8 clusters for 5 generations
USER: GENES 31
USER: genes 0 Translation |==|  0.64571 0.64404 0.56183
USER: genes 1 Rotation |==|  0.40439 0.15268 0.38836 0.82827
USER: genes 2 Torsion [N]-CA--C-[N] |==|  0.13497
USER: genes 3 Torsion [C]-N--CA-[CB] |==|  0.36380
USER: genes 4 Torsion [N]-CA--CB-[OG] |==|  0.65302
USER: genes 5 Torsion [CA]-CB--OG-[HG] |==|  0.97578
USER: genes 6 Torsion [N]-CA--C-[N] |==|  0.79076
USER: genes 7 Torsion [C]-N--CA-[CB] |==|  0.50576
USER: genes 8 Torsion [N]-CA--CB-[CG] |==|  0.51679
USER: genes 9 Torsion [CA]-CB--CG-[CD2] |==|  0.69511
USER: genes 10 Torsion [N]-CA--C-[N] |==|  0.38476
USER: genes 11 Torsion [C]-N--CA-[CB] |==|  0.82240
USER: genes 12 Torsion [N]-CA--CB-[OG] |==|  0.81441
USER: genes 13 Torsion [CA]-CB--OG-[HG] |==|  0.02295
USER: genes 14 Torsion [N]-CA--C-[O] |==|  0.53226
USER: genes 15 Torsion [C]-CA--CB-[CG] |==|  0.57425
USER: genes 16 Torsion [CA]-CB--CG-[CD] |==|  0.49626
USER: genes 17 Torsion [CB]-CG--CD-[NE] |==|  0.56657
USER: genes 18 Torsion [CG]-CD--NE-[CZ] |==|  0.78422
USER: genes 19 Torsion [C]-CA--N-[C] |==|  0.15169
USER: genes 20 Torsion [N]-C--CA-[N] |==|  0.37702
USER: genes 21 Torsion [C]-CA--CB-[CG] |==|  0.06414
USER: genes 22 Torsion [CA]-CB--CG-[CD] |==|  0.40402
USER: genes 23 Torsion [CB]-CG--CD-[CE] |==|  0.13703
USER: genes 24 Torsion [CG]-CD--CE-[NZ] |==|  0.23326
USER: genes 25 Torsion [CD]-CE--NZ-[HZ2] |==|  0.67905
USER: genes 26 Torsion [C]-CA--N-[C] |==|  0.85159
USER: genes 27 Torsion [N]-C--CA-[N] |==|  0.54855
USER: genes 28 Torsion [C]-CA--CB-[CG] |==|  0.73174
USER: genes 29 Torsion [CA]-CB--CG-[CD] |==|  0.38788
USER: genes 30 Torsion [CB]-CG--CD-[OE1] |==|  0.97982
ROOT
ATOM      1  CA  ARG C 843       3.686   7.901  10.826  1.00 48.28 LIG 0.18  C 
ENDROOT
BRANCH 1 2
ATOM      2  C   ARG C 843       2.285   7.410  10.478  1.00 51.26 LIG 0.24  C 
ATOM      3  N   SER C 844       2.191   6.507   9.487  1.00 48.21 LIG-0.34  N 
ATOM      4 H    SER C 844       2.869   6.223   9.042  1.00 48.21 LIG 0.16  HD
ATOM      5 O    ARG C 843       1.305   7.850  11.090  1.00 49.46 LIG-0.27  OA
BRANCH 3 6
ATOM      6  CA  SER C 844       0.917   5.916   9.067  1.00 48.58 LIG 0.20  C 
BRANCH 6 7
ATOM      7  CB  SER C 844       0.760   5.989   7.547  1.00 52.82 LIG 0.20  C 
BRANCH 7 8
ATOM      8 OG   SER C 844      -0.441   6.637   7.155  1.00 64.87 LIG-0.40  OA
ATOM      9 HG   SER C 844      -0.923   6.767   7.830  1.00 64.87 LIG 0.21  HD
ENDBRANCH 7 8
ENDBRANCH 6 7
BRANCH 6 10
ATOM     10  C   SER C 844       0.813   4.464   9.543  1.00 51.88 LIG 0.24  C 
ATOM     11  N   PHE C 845       1.539   3.550   8.873  1.00 48.65 LIG-0.35  N 
ATOM     12 H    PHE C 845       2.013   3.742   8.182  1.00 48.65 LIG 0.16  HD
ATOM     13 O    SER C 844       0.078   4.179  10.493  1.00 50.80 LIG-0.27  OA
BRANCH 11 14
ATOM     14  CA  PHE C 845       1.597   2.137   9.251  1.00 48.60 LIG 0.18  C 
BRANCH 14 15
ATOM     15  CB  PHE C 845       2.551   1.337   8.330  1.00 50.69 LIG 0.07  C 
BRANCH 15 16
ATOM     16  CG  PHE C 845       2.634  -0.174   8.483  1.00 53.32 LIG-0.06  A 
ATOM     17  CD2 PHE C 845       3.771  -0.774   9.009  1.00 56.28 LIG 0.01  A 
ATOM     18  CE2 PHE C 845       3.854  -2.166   9.154  1.00 59.52 LIG 0.00  A 
ATOM     19  CZ  PHE C 845       2.818  -2.964   8.737  1.00 57.95 LIG 0.00  A 
ATOM     20  CE1 PHE C 845       1.683  -2.391   8.198  1.00 59.50 LIG 0.00  A 
ATOM     21  CD1 PHE C 845       1.598  -0.999   8.056  1.00 58.05 LIG 0.01  A 
ENDBRANCH 15 16
ENDBRANCH 14 15
BRANCH 14 22
ATOM     22  C   PHE C 845       2.007   2.079  10.728  1.00 51.55 LIG 0.24  C 
ATOM     23 O    PHE C 845       2.845   2.867  11.184  1.00 49.31 LIG-0.27  OA
ATOM     24  N   SER C 846       1.351   1.176  11.480  1.00 48.84 LIG-0.34  N 
ATOM     25 H    SER C 846       0.747   0.656  11.155  1.00 48.84 LIG 0.16  HD
BRANCH 24 26
ATOM     26  CA  SER C 846       1.578   0.969  12.910  1.00 80.27 LIG 0.19  C 
BRANCH 26 27
ATOM     27  CB  SER C 846       2.998   0.467  13.156  1.00 83.79 LIG 0.20  C 
BRANCH 27 28
ATOM     28 OG   SER C 846       3.187  -0.834  12.624  1.00 92.96 LIG-0.40  OA
ATOM     29 HG   SER C 846       2.515  -1.051  12.169  1.00 92.96 LIG 0.21  HD
ENDBRANCH 27 28
ENDBRANCH 26 27
BRANCH 26 30
ATOM     30  C   SER C 846       1.332   2.255  13.687  1.00107.57 LIG 0.22  C 
ATOM     31 O    SER C 846       1.676   2.334  14.863  1.00 73.66 LIG-0.29  OA
ENDBRANCH 26 30
ENDBRANCH 24 26
ENDBRANCH 14 22
ENDBRANCH 11 14
ENDBRANCH 6 10
ENDBRANCH 3 6
ENDBRANCH 1 2
BRANCH 1 32
ATOM     32  CB  ARG C 843       3.607   9.071  11.848  1.00 50.74 LIG 0.04  C 
BRANCH 32 33
ATOM     33  CG  ARG C 843       4.794  10.044  11.792  1.00 63.97 LIG 0.02  C 
BRANCH 33 34
ATOM     34  CD  ARG C 843       4.690  11.194  12.768  1.00 82.46 LIG 0.14  C 
BRANCH 34 35
ATOM     35  NE  ARG C 843       5.484  12.331  12.309  1.00 98.18 LIG-0.23  N 
ATOM     36 HE   ARG C 843       5.067  12.989  11.944  1.00 98.18 LIG 0.18  HD
ATOM     37  CZ  ARG C 843       6.805  12.419  12.418  1.00115.63 LIG 0.67  C 
ATOM     38  NH2 ARG C 843       7.439  13.503  11.998  1.00101.74 LIG-0.23  N 
ATOM     39  NH1 ARG C 843       7.505  11.417  12.939  1.00105.44 LIG-0.23  N 
ATOM     40 1HH2 ARG C 843       6.996  14.154  11.653  1.00101.74 LIG 0.17  HD
ATOM     41 2HH2 ARG C 843       8.294  13.555  12.070  1.00101.74 LIG 0.17  HD
ATOM     42 1HH1 ARG C 843       7.103  10.707  13.209  1.00105.44 LIG 0.17  HD
ATOM     43 2HH1 ARG C 843       8.360  11.479  13.007  1.00105.44 LIG 0.17  HD
ENDBRANCH 34 35
ENDBRANCH 33 34
ENDBRANCH 32 33
ENDBRANCH 1 32
BRANCH 1 44
ATOM     44  N   ARG C 843       4.414   8.295   9.612  1.00 47.52 LIG-0.35  N 
ATOM     45  C   LYS C 842       3.923   9.189   8.741  1.00 51.06 LIG 0.24  C 
ATOM     46 O    LYS C 842       2.837   9.753   8.894  1.00 51.08 LIG-0.27  OA
ATOM     47 H    ARG C 843       5.173   7.904   9.514  1.00 47.52 LIG 0.16  HD
BRANCH 45 48
ATOM     48  CA  LYS C 842       4.763   9.498   7.513  1.00 46.69 LIG 0.18  C 
BRANCH 48 49
ATOM     49  CB  LYS C 842       5.516  10.828   7.707  1.00 47.71 LIG 0.04  C 
BRANCH 49 50
ATOM     50  CG  LYS C 842       5.721  11.232   9.157  1.00 50.03 LIG 0.00  C 
BRANCH 50 51
ATOM     51  CD  LYS C 842       7.052  11.944   9.327  1.00 53.65 LIG 0.03  C 
BRANCH 51 52
ATOM     52  CE  LYS C 842       7.216  13.033   8.298  1.00 52.95 LIG 0.23  C 
BRANCH 52 53
ATOM     53  NZ  LYS C 842       6.564  14.298   8.708  1.00 44.67 LIG-0.08  N 
ATOM     54 HZ3  LYS C 842       6.238  14.211   9.531  1.00 44.67 LIG 0.27  HD
ATOM     55 HZ2  LYS C 842       5.901  14.486   8.145  1.00 44.67 LIG 0.27  HD
ATOM     56 HZ1  LYS C 842       7.161  14.958   8.694  1.00 44.67 LIG 0.27  HD
ENDBRANCH 52 53
ENDBRANCH 51 52
ENDBRANCH 50 51
ENDBRANCH 49 50
ENDBRANCH 48 49
BRANCH 48 57
ATOM     57  N   LYS C 842       3.909   9.526   6.328  1.00 47.24 LIG-0.35  N 
ATOM     58 H    LYS C 842       3.987  10.253   5.875  1.00 47.24 LIG 0.16  HD
ATOM     59  C   GLN C 841       3.081   8.537   5.961  1.00 52.93 LIG 0.26  C 
ATOM     60 O    GLN C 841       2.991   7.467   6.570  1.00 51.68 LIG-0.27  OA
BRANCH 59 61
ATOM     61  CA  GLN C 841       2.268   8.769   4.684  1.00 52.44 LIG 0.40  C 
ATOM     62  N   GLN C 841       1.141   7.838   4.632  1.00 53.67 LIG 0.61  N 
BRANCH 61 63
ATOM     63  CB  GLN C 841       1.778  10.232   4.598  1.00 53.85 LIG 0.06  C 
BRANCH 63 64
ATOM     64  CG  GLN C 841       0.343  10.469   5.096  1.00 74.06 LIG 0.10  C 
BRANCH 64 65
ATOM     65  CD  GLN C 841       0.147  11.740   5.902  1.00 99.82 LIG 0.21  C 
ATOM     66 OE1  GLN C 841       1.098  12.455   6.249  1.00 97.42 LIG-0.27  OA
ATOM     67  NE2 GLN C 841      -1.106  12.075   6.176  1.00 91.89 LIG-0.37  N 
ATOM     68 22HE GLN C 841      -1.273  12.802   6.603  1.00 91.89 LIG 0.16  HD
ATOM     69 21HE GLN C 841      -1.752  11.565   5.926  1.00 91.89 LIG 0.16  HD
ENDBRANCH 64 65
ENDBRANCH 63 64
ENDBRANCH 61 63
ENDBRANCH 59 61
ENDBRANCH 48 57
ENDBRANCH 45 48
ENDBRANCH 1 44
TORSDOF 29
ENDMDL
MODEL 3
USER: ADFR SOLUTION from run 68
USER: SCORE 18.686617 LL:  -3.074 LR: -19.220 RR:   0.000 FEB: -10.569
USER: RMSD 6.119115
USER: SEED 67
USER: STATUS no improvement in best in 7 clusters for 5 generations
USER: GENES 31
USER: genes 0 Translation |==|  0.53355 0.56398 0.47982
USER: genes 1 Rotation |==|  0.58224 0.91558 0.27589 0.64248
USER: genes 2 Torsion [N]-CA--C-[N] |==|  0.75710
USER: genes 3 Torsion [C]-N--CA-[CB] |==|  0.44926
USER: genes 4 Torsion [N]-CA--CB-[OG] |==|  0.86191
USER: genes 5 Torsion [CA]-CB--OG-[HG] |==|  0.82136
USER: genes 6 Torsion [N]-CA--C-[N] |==|  0.43570
USER: genes 7 Torsion [C]-N--CA-[CB] |==|  0.32758
USER: genes 8 Torsion [N]-CA--CB-[CG] |==|  0.57761
USER: genes 9 Torsion [CA]-CB--CG-[CD2] |==|  0.96365
USER: genes 10 Torsion [N]-CA--C-[N] |==|  0.11011
USER: genes 11 Torsion [C]-N--CA-[CB] |==|  0.33226
USER: genes 12 Torsion [N]-CA--CB-[OG] |==|  0.90867
USER: genes 13 Torsion [CA]-CB--OG-[HG] |==|  0.61659
USER: genes 14 Torsion [N]-CA--C-[O] |==|  0.60376
USER: genes 15 Torsion [C]-CA--CB-[CG] |==|  0.15902
USER: genes 16 Torsion [CA]-CB--CG-[CD] |==|  0.29018
USER: genes 17 Torsion [CB]-CG--CD-[NE] |==|  0.50513
USER: genes 18 Torsion [CG]-CD--NE-[CZ] |==|  0.31957
USER: genes 19 Torsion [C]-CA--N-[C] |==|  0.74958
USER: genes 20 Torsion [N]-C--CA-[N] |==|  0.09049
USER: genes 21 Torsion [C]-CA--CB-[CG] |==|  0.46573
USER: genes 22 Torsion [CA]-CB--CG-[CD] |==|  0.29459
USER: genes 23 Torsion [CB]-CG--CD-[CE] |==|  0.37180
USER: genes 24 Torsion [CG]-CD--CE-[NZ] |==|  0.47193
USER: genes 25 Torsion [CD]-CE--NZ-[HZ2] |==|  0.38426
USER: genes 26 Torsion [C]-CA--N-[C] |==|  0.17091
USER: genes 27 Torsion [N]-C--CA-[N] |==|  0.99844
USER: genes 28 Torsion [C]-CA--CB-[CG] |==|  0.24473
USER: genes 29 Torsion [CA]-CB--CG-[CD] |==|  0.75712
USER: genes 30 Torsion [CB]-CG--CD-[OE1] |==|  0.38698
ROOT
ATOM      1  CA  ARG C 843       0.994   6.040   8.735  1.00 48.28 LIG 0.18  C 
ENDROOT
BRANCH 1 2
ATOM      2  C   ARG C 843       0.836   4.625   9.283  1.00 51.26 LIG 0.24  C 
ATOM      3  N   SER C 844       1.421   3.639   8.582  1.00 48.21 LIG-0.34  N 
ATOM      4 H    SER C 844       1.848   3.771   7.847  1.00 48.21 LIG 0.16  HD
ATOM      5 O    ARG C 843       0.186   4.431  10.315  1.00 49.46 LIG-0.27  OA
BRANCH 3 6
ATOM      6  CA  SER C 844       1.387   2.235   9.003  1.00 48.58 LIG 0.20  C 
BRANCH 6 7
ATOM      7  CB  SER C 844       1.719   1.309   7.833  1.00 52.82 LIG 0.20  C 
BRANCH 7 8
ATOM      8 OG   SER C 844       0.958   1.605   6.671  1.00 64.87 LIG-0.40  OA
ATOM      9 HG   SER C 844       0.145   1.463   6.826  1.00 64.87 LIG 0.21  HD
ENDBRANCH 7 8
ENDBRANCH 6 7
BRANCH 6 10
ATOM     10  C   SER C 844       2.358   1.997  10.163  1.00 51.88 LIG 0.24  C 
ATOM     11  N   PHE C 845       2.112   0.939  10.956  1.00 48.65 LIG-0.35  N 
ATOM     12 H    PHE C 845       1.424   0.431  10.862  1.00 48.65 LIG 0.16  HD
ATOM     13 O    SER C 844       3.306   2.768  10.339  1.00 50.80 LIG-0.27  OA
BRANCH 11 14
ATOM     14  CA  PHE C 845       2.987   0.543  12.062  1.00 48.60 LIG 0.18  C 
BRANCH 14 15
ATOM     15  CB  PHE C 845       2.256   0.620  13.425  1.00 50.69 LIG 0.07  C 
BRANCH 15 16
ATOM     16  CG  PHE C 845       3.066   0.883  14.685  1.00 53.32 LIG-0.06  A 
ATOM     17  CD2 PHE C 845       4.452   0.786  14.671  1.00 56.28 LIG 0.01  A 
ATOM     18  CE2 PHE C 845       5.206   1.027  15.828  1.00 59.52 LIG 0.00  A 
ATOM     19  CZ  PHE C 845       4.576   1.328  17.010  1.00 57.95 LIG 0.00  A 
ATOM     20  CE1 PHE C 845       3.199   1.416  17.051  1.00 59.50 LIG 0.00  A 
ATOM     21  CD1 PHE C 845       2.444   1.177  15.894  1.00 58.05 LIG 0.01  A 
ENDBRANCH 15 16
ENDBRANCH 14 15
BRANCH 14 22
ATOM     22  C   PHE C 845       3.509  -0.863  11.745  1.00 51.55 LIG 0.24  C 
ATOM     23 O    PHE C 845       3.564  -1.732  12.624  1.00 49.31 LIG-0.27  OA
ATOM     24  N   SER C 846       3.828  -1.090  10.456  1.00 48.84 LIG-0.34  N 
ATOM     25 H    SER C 846       3.753  -0.485   9.849  1.00 48.84 LIG 0.16  HD
BRANCH 24 26
ATOM     26  CA  SER C 846       4.329  -2.363   9.939  1.00 80.27 LIG 0.19  C 
BRANCH 26 27
ATOM     27  CB  SER C 846       3.381  -2.916   8.879  1.00 83.79 LIG 0.20  C 
BRANCH 27 28
ATOM     28 OG   SER C 846       2.033  -2.573   9.159  1.00 92.96 LIG-0.40  OA
ATOM     29 HG   SER C 846       1.539  -3.236   9.010  1.00 92.96 LIG 0.21  HD
ENDBRANCH 27 28
ENDBRANCH 26 27
BRANCH 26 30
ATOM     30  C   SER C 846       5.727  -2.198   9.361  1.00107.57 LIG 0.22  C 
ATOM     31 O    SER C 846       6.049  -2.820   8.352  1.00 73.66 LIG-0.29  OA
ENDBRANCH 26 30
ENDBRANCH 24 26
ENDBRANCH 14 22
ENDBRANCH 11 14
ENDBRANCH 6 10
ENDBRANCH 3 6
ENDBRANCH 1 2
BRANCH 1 32
ATOM     32  CB  ARG C 843       0.959   6.020   7.179  1.00 50.74 LIG 0.04  C 
BRANCH 32 33
ATOM     33  CG  ARG C 843      -0.312   5.400   6.581  1.00 63.97 LIG 0.02  C 
BRANCH 33 34
ATOM     34  CD  ARG C 843      -1.283   6.415   6.022  1.00 82.46 LIG 0.14  C 
BRANCH 34 35
ATOM     35  NE  ARG C 843      -2.482   5.753   5.512  1.00 98.18 LIG-0.23  N 
ATOM     36 HE   ARG C 843      -2.393   5.227   4.838  1.00 98.18 LIG 0.18  HD
ATOM     37  CZ  ARG C 843      -3.700   5.908   6.020  1.00115.63 LIG 0.67  C 
ATOM     38  NH2 ARG C 843      -4.726   5.246   5.510  1.00101.74 LIG-0.23  N 
ATOM     39  NH1 ARG C 843      -3.903   6.737   7.039  1.00105.44 LIG-0.23  N 
ATOM     40 1HH2 ARG C 843      -4.606   4.711   4.846  1.00101.74 LIG 0.17  HD
ATOM     41 2HH2 ARG C 843      -5.512   5.349   5.841  1.00101.74 LIG 0.17  HD
ATOM     42 1HH1 ARG C 843      -3.245   7.177   7.373  1.00105.44 LIG 0.17  HD
ATOM     43 2HH1 ARG C 843      -4.694   6.833   7.363  1.00105.44 LIG 0.17  HD
ENDBRANCH 34 35
ENDBRANCH 33 34
ENDBRANCH 32 33
ENDBRANCH 1 32
BRANCH 1 44
ATOM     44  N   ARG C 843       2.229   6.657   9.238  1.00 47.52 LIG-0.35  N 
ATOM     45  C   LYS C 842       2.262   7.369  10.373  1.00 51.06 LIG 0.24  C 
ATOM     46 O    LYS C 842       1.270   7.552  11.084  1.00 51.08 LIG-0.27  OA
ATOM     47 H    ARG C 843       2.918   6.519   8.742  1.00 47.52 LIG 0.16  HD
BRANCH 45 48
ATOM     48  CA  LYS C 842       3.597   7.972  10.777  1.00 46.69 LIG 0.18  C 
BRANCH 48 49
ATOM     49  CB  LYS C 842       3.374   9.190  11.692  1.00 47.71 LIG 0.04  C 
BRANCH 49 50
ATOM     50  CG  LYS C 842       4.626   9.692  12.392  1.00 50.03 LIG 0.00  C 
BRANCH 50 51
ATOM     51  CD  LYS C 842       5.105  10.988  11.759  1.00 53.65 LIG 0.03  C 
BRANCH 51 52
ATOM     52  CE  LYS C 842       5.443  12.010  12.812  1.00 52.95 LIG 0.23  C 
BRANCH 52 53
ATOM     53  NZ  LYS C 842       6.135  13.192  12.248  1.00 44.67 LIG-0.08  N 
ATOM     54 HZ3  LYS C 842       7.008  13.132  12.413  1.00 44.67 LIG 0.27  HD
ATOM     55 HZ2  LYS C 842       5.814  13.932  12.624  1.00 44.67 LIG 0.27  HD
ATOM     56 HZ1  LYS C 842       6.001  13.223  11.369  1.00 44.67 LIG 0.27  HD
ENDBRANCH 52 53
ENDBRANCH 51 52
ENDBRANCH 50 51
ENDBRANCH 49 50
ENDBRANCH 48 49
BRANCH 48 57
ATOM     57  N   LYS C 842       4.358   8.326   9.580  1.00 47.24 LIG-0.35  N 
ATOM     58 H    LYS C 842       5.103   7.901   9.518  1.00 47.24 LIG 0.16  HD
ATOM     59  C   GLN C 841       3.961   9.218   8.660  1.00 52.93 LIG 0.26  C 
ATOM     60 O    GLN C 841       2.874   9.802   8.707  1.00 51.68 LIG-0.27  OA
BRANCH 59 61
ATOM     61  CA  GLN C 841       4.911   9.447   7.481  1.00 52.44 LIG 0.40  C 
ATOM     62  N   GLN C 841       6.104   8.613   7.632  1.00 53.67 LIG 0.61  N 
BRANCH 61 63
ATOM     63  CB  GLN C 841       4.204   9.160   6.137  1.00 53.85 LIG 0.06  C 
BRANCH 63 64
ATOM     64  CG  GLN C 841       3.461  10.357   5.524  1.00 74.06 LIG 0.10  C 
BRANCH 64 65
ATOM     65  CD  GLN C 841       2.028  10.530   5.993  1.00 99.82 LIG 0.21  C 
ATOM     66 OE1  GLN C 841       1.546  11.643   6.246  1.00 97.42 LIG-0.27  OA
ATOM     67  NE2 GLN C 841       1.299   9.426   6.073  1.00 91.89 LIG-0.37  N 
ATOM     68 22HE GLN C 841       0.472   9.473   6.304  1.00 91.89 LIG 0.16  HD
ATOM     69 21HE GLN C 841       1.652   8.663   5.894  1.00 91.89 LIG 0.16  HD
ENDBRANCH 64 65
ENDBRANCH 63 64
ENDBRANCH 61 63
ENDBRANCH 59 61
ENDBRANCH 48 57
ENDBRANCH 45 48
ENDBRANCH 1 44
TORSDOF 29
ENDMDL
MODEL 4
USER: ADFR SOLUTION from run 99
USER: SCORE 18.969820 LL:  -3.422 LR: -19.148 RR:   0.000 FEB: -10.497
USER: RMSD 7.193445
USER: SEED 98
USER: STATUS no improvement in best in 2 clusters for 5 generations
USER: GENES 31
USER: genes 0 Translation |==|  0.54849 0.40620 0.54789
USER: genes 1 Rotation |==|  0.36548 0.84455 0.20136 0.65493
USER: genes 2 Torsion [N]-CA--C-[N] |==|  0.44191
USER: genes 3 Torsion [C]-N--CA-[CB] |==|  0.87728
USER: genes 4 Torsion [N]-CA--CB-[OG] |==|  0.74685
USER: genes 5 Torsion [CA]-CB--OG-[HG] |==|  0.07025
USER: genes 6 Torsion [N]-CA--C-[N] |==|  0.53282
USER: genes 7 Torsion [C]-N--CA-[CB] |==|  0.35985
USER: genes 8 Torsion [N]-CA--CB-[CG] |==|  0.46136
USER: genes 9 Torsion [CA]-CB--CG-[CD2] |==|  0.20137
USER: genes 10 Torsion [N]-CA--C-[N] |==|  0.47560
USER: genes 11 Torsion [C]-N--CA-[CB] |==|  0.45011
USER: genes 12 Torsion [N]-CA--CB-[OG] |==|  0.21021
USER: genes 13 Torsion [CA]-CB--OG-[HG] |==|  0.61976
USER: genes 14 Torsion [N]-CA--C-[O] |==|  0.05290
USER: genes 15 Torsion [C]-CA--CB-[CG] |==|  0.00496
USER: genes 16 Torsion [CA]-CB--CG-[CD] |==|  0.54323
USER: genes 17 Torsion [CB]-CG--CD-[NE] |==|  0.69007
USER: genes 18 Torsion [CG]-CD--NE-[CZ] |==|  0.25326
USER: genes 19 Torsion [C]-CA--N-[C] |==|  0.60856
USER: genes 20 Torsion [N]-C--CA-[N] |==|  0.44964
USER: genes 21 Torsion [C]-CA--CB-[CG] |==|  0.70950
USER: genes 22 Torsion [CA]-CB--CG-[CD] |==|  0.50827
USER: genes 23 Torsion [CB]-CG--CD-[CE] |==|  0.03772
USER: genes 24 Torsion [CG]-CD--CE-[NZ] |==|  0.61080
USER: genes 25 Torsion [CD]-CE--NZ-[HZ2] |==|  0.12826
USER: genes 26 Torsion [C]-CA--N-[C] |==|  0.60848
USER: genes 27 Torsion [N]-C--CA-[N] |==|  0.53584
USER: genes 28 Torsion [C]-CA--CB-[CG] |==|  0.48965
USER: genes 29 Torsion [CA]-CB--CG-[CD] |==|  0.82714
USER: genes 30 Torsion [CB]-CG--CD-[OE1] |==|  0.20340
ROOT
ATOM      1  CA  ARG C 843       1.353   2.371  10.470  1.00 48.28 LIG 0.18  C 
ENDROOT
BRANCH 1 2
ATOM      2  C   ARG C 843       2.185   1.791  11.609  1.00 51.26 LIG 0.24  C 
ATOM      3  N   SER C 844       1.566   0.921  12.425  1.00 48.21 LIG-0.34  N 
ATOM      4 H    SER C 844       0.738   0.704  12.343  1.00 48.21 LIG 0.16  HD
ATOM      5 O    ARG C 843       3.363   2.134  11.752  1.00 49.46 LIG-0.27  OA
BRANCH 3 6
ATOM      6  CA  SER C 844       2.245   0.253  13.539  1.00 48.58 LIG 0.20  C 
BRANCH 6 7
ATOM      7  CB  SER C 844       3.621  -0.255  13.110  1.00 52.82 LIG 0.20  C 
BRANCH 7 8
ATOM      8 OG   SER C 844       3.583  -1.588  12.622  1.00 64.87 LIG-0.40  OA
ATOM      9 HG   SER C 844       2.815  -1.756  12.328  1.00 64.87 LIG 0.21  HD
ENDBRANCH 7 8
ENDBRANCH 6 7
BRANCH 6 10
ATOM     10  C   SER C 844       2.375   1.200  14.736  1.00 51.88 LIG 0.24  C 
ATOM     11  N   PHE C 845       3.187   0.810  15.735  1.00 48.65 LIG-0.35  N 
ATOM     12 H    PHE C 845       3.591   0.050  15.743  1.00 48.65 LIG 0.16  HD
ATOM     13 O    SER C 844       1.740   2.258  14.755  1.00 50.80 LIG-0.27  OA
BRANCH 11 14
ATOM     14  CA  PHE C 845       3.467   1.636  16.911  1.00 48.60 LIG 0.18  C 
BRANCH 14 15
ATOM     15  CB  PHE C 845       3.257   0.847  18.227  1.00 50.69 LIG 0.07  C 
BRANCH 15 16
ATOM     16  CG  PHE C 845       3.797   1.421  19.529  1.00 53.32 LIG-0.06  A 
ATOM     17  CD2 PHE C 845       3.189   2.518  20.127  1.00 56.28 LIG 0.01  A 
ATOM     18  CE2 PHE C 845       3.680   3.052  21.326  1.00 59.52 LIG 0.00  A 
ATOM     19  CZ  PHE C 845       4.802   2.517  21.909  1.00 57.95 LIG 0.00  A 
ATOM     20  CE1 PHE C 845       5.431   1.436  21.325  1.00 59.50 LIG 0.00  A 
ATOM     21  CD1 PHE C 845       4.939   0.899  20.127  1.00 58.05 LIG 0.01  A 
ENDBRANCH 15 16
ENDBRANCH 14 15
BRANCH 14 22
ATOM     22  C   PHE C 845       4.895   2.172  16.759  1.00 51.55 LIG 0.24  C 
ATOM     23 O    PHE C 845       5.615   1.800  15.825  1.00 49.31 LIG-0.27  OA
ATOM     24  N   SER C 846       5.266   3.103  17.658  1.00 48.84 LIG-0.34  N 
ATOM     25 H    SER C 846       4.743   3.376  18.284  1.00 48.84 LIG 0.16  HD
BRANCH 24 26
ATOM     26  CA  SER C 846       6.576   3.753  17.682  1.00 80.27 LIG 0.19  C 
BRANCH 26 27
ATOM     27  CB  SER C 846       6.520   5.033  18.511  1.00 83.79 LIG 0.20  C 
BRANCH 27 28
ATOM     28 OG   SER C 846       6.494   4.750  19.901  1.00 92.96 LIG-0.40  OA
ATOM     29 HG   SER C 846       5.929   5.245  20.277  1.00 92.96 LIG 0.21  HD
ENDBRANCH 27 28
ENDBRANCH 26 27
BRANCH 26 30
ATOM     30  C   SER C 846       7.635   2.813  18.240  1.00107.57 LIG 0.22  C 
ATOM     31 O    SER C 846       7.426   1.602  18.265  1.00 73.66 LIG-0.29  OA
ENDBRANCH 26 30
ENDBRANCH 24 26
ENDBRANCH 14 22
ENDBRANCH 11 14
ENDBRANCH 6 10
ENDBRANCH 3 6
ENDBRANCH 1 2
BRANCH 1 32
ATOM     32  CB  ARG C 843       1.205   1.327   9.327  1.00 50.74 LIG 0.04  C 
BRANCH 32 33
ATOM     33  CG  ARG C 843       1.872  -0.027   9.613  1.00 63.97 LIG 0.02  C 
BRANCH 33 34
ATOM     34  CD  ARG C 843       2.051  -0.893   8.388  1.00 82.46 LIG 0.14  C 
BRANCH 34 35
ATOM     35  NE  ARG C 843       1.182  -2.065   8.455  1.00 98.18 LIG-0.23  N 
ATOM     36 HE   ARG C 843       1.489  -2.769   8.842  1.00 98.18 LIG 0.18  HD
ATOM     37  CZ  ARG C 843      -0.049  -2.118   7.959  1.00115.63 LIG 0.67  C 
ATOM     38  NH2 ARG C 843      -0.776  -3.217   8.091  1.00101.74 LIG-0.23  N 
ATOM     39  NH1 ARG C 843      -0.561  -1.073   7.318  1.00105.44 LIG-0.23  N 
ATOM     40 1HH2 ARG C 843      -0.452  -3.901   8.499  1.00101.74 LIG 0.17  HD
ATOM     41 2HH2 ARG C 843      -1.573  -3.246   7.769  1.00101.74 LIG 0.17  HD
ATOM     42 1HH1 ARG C 843      -0.095  -0.357   7.222  1.00105.44 LIG 0.17  HD
ATOM     43 2HH1 ARG C 843      -1.359  -1.112   6.999  1.00105.44 LIG 0.17  HD
ENDBRANCH 34 35
ENDBRANCH 33 34
ENDBRANCH 32 33
ENDBRANCH 1 32
BRANCH 1 44
ATOM     44  N   ARG C 843       1.944   3.624   9.982  1.00 47.52 LIG-0.35  N 
ATOM     45  C   LYS C 842       1.195   4.678   9.624  1.00 51.06 LIG 0.24  C 
ATOM     46 O    LYS C 842      -0.037   4.681   9.686  1.00 51.08 LIG-0.27  OA
ATOM     47 H    ARG C 843       2.803   3.618   9.948  1.00 47.52 LIG 0.16  HD
BRANCH 45 48
ATOM     48  CA  LYS C 842       1.926   5.910   9.116  1.00 46.69 LIG 0.18  C 
BRANCH 48 49
ATOM     49  CB  LYS C 842       2.586   6.656  10.290  1.00 47.71 LIG 0.04  C 
BRANCH 49 50
ATOM     50  CG  LYS C 842       1.868   7.927  10.713  1.00 50.03 LIG 0.00  C 
BRANCH 50 51
ATOM     51  CD  LYS C 842       2.635   8.625  11.824  1.00 53.65 LIG 0.03  C 
BRANCH 51 52
ATOM     52  CE  LYS C 842       4.025   8.058  11.960  1.00 52.95 LIG 0.23  C 
BRANCH 52 53
ATOM     53  NZ  LYS C 842       4.442   7.924  13.374  1.00 44.67 LIG-0.08  N 
ATOM     54 HZ3  LYS C 842       5.167   7.410  13.422  1.00 44.67 LIG 0.27  HD
ATOM     55 HZ2  LYS C 842       3.785   7.552  13.844  1.00 44.67 LIG 0.27  HD
ATOM     56 HZ1  LYS C 842       4.627   8.729  13.707  1.00 44.67 LIG 0.27  HD
ENDBRANCH 52 53
ENDBRANCH 51 52
ENDBRANCH 50 51
ENDBRANCH 49 50
ENDBRANCH 48 49
BRANCH 48 57
ATOM     57  N   LYS C 842       0.994   6.766   8.385  1.00 47.24 LIG-0.35  N 
ATOM     58 H    LYS C 842       0.215   6.802   8.748  1.00 47.24 LIG 0.16  HD
ATOM     59  C   GLN C 841       1.296   7.437   7.263  1.00 52.93 LIG 0.26  C 
ATOM     60 O    GLN C 841       2.420   7.437   6.754  1.00 51.68 LIG-0.27  OA
BRANCH 59 61
ATOM     61  CA  GLN C 841       0.171   8.277   6.650  1.00 52.44 LIG 0.40  C 
ATOM     62  N   GLN C 841       0.538   8.693   5.297  1.00 53.67 LIG 0.61  N 
BRANCH 61 63
ATOM     63  CB  GLN C 841      -1.162   7.495   6.643  1.00 53.85 LIG 0.06  C 
BRANCH 63 64
ATOM     64  CG  GLN C 841      -2.378   8.284   6.129  1.00 74.06 LIG 0.10  C 
BRANCH 64 65
ATOM     65  CD  GLN C 841      -2.740   9.507   6.952  1.00 99.82 LIG 0.21  C 
ATOM     66 OE1  GLN C 841      -2.061  10.544   6.927  1.00 97.42 LIG-0.27  OA
ATOM     67  NE2 GLN C 841      -3.854   9.427   7.665  1.00 91.89 LIG-0.37  N 
ATOM     68 22HE GLN C 841      -4.120  10.103   8.124  1.00 91.89 LIG 0.16  HD
ATOM     69 21HE GLN C 841      -4.311   8.698   7.669  1.00 91.89 LIG 0.16  HD
ENDBRANCH 64 65
ENDBRANCH 63 64
ENDBRANCH 61 63
ENDBRANCH 59 61
ENDBRANCH 48 57
ENDBRANCH 45 48
ENDBRANCH 1 44
TORSDOF 29
ENDMDL
MODEL 5
USER: ADFR SOLUTION from run 187
USER: SCORE 21.028631 LL:  -3.839 LR: -19.117 RR:   0.000 FEB: -10.467
USER: RMSD 12.331340
USER: SEED 186
USER: STATUS no improvement in best in 3 clusters for 5 generations
USER: GENES 31
USER: genes 0 Translation |==|  0.65304 0.69508 0.53474
USER: genes 1 Rotation |==|  0.74779 0.90195 0.40386 0.63339
USER: genes 2 Torsion [N]-CA--C-[N] |==|  0.50325
USER: genes 3 Torsion [C]-N--CA-[CB] |==|  0.15891
USER: genes 4 Torsion [N]-CA--CB-[OG] |==|  0.74507
USER: genes 5 Torsion [CA]-CB--OG-[HG] |==|  0.14562
USER: genes 6 Torsion [N]-CA--C-[N] |==|  0.62991
USER: genes 7 Torsion [C]-N--CA-[CB] |==|  0.50556
USER: genes 8 Torsion [N]-CA--CB-[CG] |==|  0.57014
USER: genes 9 Torsion [CA]-CB--CG-[CD2] |==|  0.39240
USER: genes 10 Torsion [N]-CA--C-[N] |==|  0.29787
USER: genes 11 Torsion [C]-N--CA-[CB] |==|  0.83135
USER: genes 12 Torsion [N]-CA--CB-[OG] |==|  0.79225
USER: genes 13 Torsion [CA]-CB--OG-[HG] |==|  0.44839
USER: genes 14 Torsion [N]-CA--C-[O] |==|  0.18218
USER: genes 15 Torsion [C]-CA--CB-[CG] |==|  0.48801
USER: genes 16 Torsion [CA]-CB--CG-[CD] |==|  0.95720
USER: genes 17 Torsion [CB]-CG--CD-[NE] |==|  0.47512
USER: genes 18 Torsion [CG]-CD--NE-[CZ] |==|  0.75743
USER: genes 19 Torsion [C]-CA--N-[C] |==|  0.69748
USER: genes 20 Torsion [N]-C--CA-[N] |==|  0.05280
USER: genes 21 Torsion [C]-CA--CB-[CG] |==|  0.48438
USER: genes 22 Torsion [CA]-CB--CG-[CD] |==|  0.90960
USER: genes 23 Torsion [CB]-CG--CD-[CE] |==|  0.54813
USER: genes 24 Torsion [CG]-CD--CE-[NZ] |==|  0.26382
USER: genes 25 Torsion [CD]-CE--NZ-[HZ2] |==|  0.70860
USER: genes 26 Torsion [C]-CA--N-[C] |==|  0.68151
USER: genes 27 Torsion [N]-C--CA-[N] |==|  0.80397
USER: genes 28 Torsion [C]-CA--CB-[CG] |==|  0.15447
USER: genes 29 Torsion [CA]-CB--CG-[CD] |==|  0.66206
USER: genes 30 Torsion [CB]-CG--CD-[OE1] |==|  0.49373
ROOT
ATOM      1  CA  ARG C 843       3.862   9.088  10.135  1.00 48.28 LIG 0.18  C 
ENDROOT
BRANCH 1 2
ATOM      2  C   ARG C 843       3.076   7.880   9.637  1.00 51.26 LIG 0.24  C 
ATOM      3  N   SER C 844       2.160   8.109   8.681  1.00 48.21 LIG-0.34  N 
ATOM      4 H    SER C 844       1.991   8.892   8.367  1.00 48.21 LIG 0.16  HD
ATOM      5 O    ARG C 843       3.288   6.762  10.119  1.00 49.46 LIG-0.27  OA
BRANCH 3 6
ATOM      6  CA  SER C 844       1.354   7.043   8.078  1.00 48.58 LIG 0.20  C 
BRANCH 6 7
ATOM      7  CB  SER C 844       0.568   6.285   9.148  1.00 52.82 LIG 0.20  C 
BRANCH 7 8
ATOM      8 OG   SER C 844       1.271   5.155   9.643  1.00 64.87 LIG-0.40  OA
ATOM      9 HG   SER C 844       2.039   5.389   9.889  1.00 64.87 LIG 0.21  HD
ENDBRANCH 7 8
ENDBRANCH 6 7
BRANCH 6 10
ATOM     10  C   SER C 844       0.402   7.618   7.025  1.00 51.88 LIG 0.24  C 
ATOM     11  N   PHE C 845      -0.878   7.206   7.072  1.00 48.65 LIG-0.35  N 
ATOM     12 H    PHE C 845      -1.162   6.617   7.631  1.00 48.65 LIG 0.16  HD
ATOM     13 O    SER C 844       0.826   8.410   6.179  1.00 50.80 LIG-0.27  OA
BRANCH 11 14
ATOM     14  CA  PHE C 845      -1.919   7.717   6.178  1.00 48.60 LIG 0.18  C 
BRANCH 14 15
ATOM     15  CB  PHE C 845      -3.302   7.097   6.498  1.00 50.69 LIG 0.07  C 
BRANCH 15 16
ATOM     16  CG  PHE C 845      -4.351   7.021   5.399  1.00 53.32 LIG-0.06  A 
ATOM     17  CD2 PHE C 845      -5.179   5.911   5.283  1.00 56.28 LIG 0.01  A 
ATOM     18  CE2 PHE C 845      -6.149   5.833   4.274  1.00 59.52 LIG 0.00  A 
ATOM     19  CZ  PHE C 845      -6.266   6.845   3.354  1.00 57.95 LIG 0.00  A 
ATOM     20  CE1 PHE C 845      -5.444   7.951   3.440  1.00 59.50 LIG 0.00  A 
ATOM     21  CD1 PHE C 845      -4.476   8.031   4.451  1.00 58.05 LIG 0.01  A 
ENDBRANCH 15 16
ENDBRANCH 14 15
BRANCH 14 22
ATOM     22  C   PHE C 845      -1.909   9.245   6.296  1.00 51.55 LIG 0.24  C 
ATOM     23 O    PHE C 845      -2.291   9.802   7.333  1.00 49.31 LIG-0.27  OA
ATOM     24  N   SER C 846      -1.402   9.908   5.240  1.00 48.84 LIG-0.34  N 
ATOM     25 H    SER C 846      -1.110   9.505   4.539  1.00 48.84 LIG 0.16  HD
BRANCH 24 26
ATOM     26  CA  SER C 846      -1.286  11.364   5.155  1.00 80.27 LIG 0.19  C 
BRANCH 26 27
ATOM     27  CB  SER C 846      -2.663  12.013   5.254  1.00 83.79 LIG 0.20  C 
BRANCH 27 28
ATOM     28 OG   SER C 846      -3.397  11.856   4.050  1.00 92.96 LIG-0.40  OA
ATOM     29 HG   SER C 846      -4.214  11.985   4.200  1.00 92.96 LIG 0.21  HD
ENDBRANCH 27 28
ENDBRANCH 26 27
BRANCH 26 30
ATOM     30  C   SER C 846      -0.374  11.898   6.251  1.00107.57 LIG 0.22  C 
ATOM     31 O    SER C 846       0.820  11.607   6.248  1.00 73.66 LIG-0.29  OA
ENDBRANCH 26 30
ENDBRANCH 24 26
ENDBRANCH 14 22
ENDBRANCH 11 14
ENDBRANCH 6 10
ENDBRANCH 3 6
ENDBRANCH 1 2
BRANCH 1 32
ATOM     32  CB  ARG C 843       4.546   9.813   8.941  1.00 50.74 LIG 0.04  C 
BRANCH 32 33
ATOM     33  CG  ARG C 843       5.280  11.108   9.321  1.00 63.97 LIG 0.02  C 
BRANCH 33 34
ATOM     34  CD  ARG C 843       4.911  11.643  10.685  1.00 82.46 LIG 0.14  C 
BRANCH 34 35
ATOM     35  NE  ARG C 843       5.795  12.744  11.062  1.00 98.18 LIG-0.23  N 
ATOM     36 HE   ARG C 843       5.541  13.543  10.873  1.00 98.18 LIG 0.18  HD
ATOM     37  CZ  ARG C 843       6.963  12.594  11.676  1.00115.63 LIG 0.67  C 
ATOM     38  NH2 ARG C 843       7.686  13.653  12.005  1.00101.74 LIG-0.23  N 
ATOM     39  NH1 ARG C 843       7.423  11.380  11.959  1.00105.44 LIG-0.23  N 
ATOM     40 1HH2 ARG C 843       7.399  14.443  11.821  1.00101.74 LIG 0.17  HD
ATOM     41 2HH2 ARG C 843       8.441  13.552  12.403  1.00101.74 LIG 0.17  HD
ATOM     42 1HH1 ARG C 843       6.964  10.686  11.745  1.00105.44 LIG 0.17  HD
ATOM     43 2HH1 ARG C 843       8.179  11.289  12.358  1.00105.44 LIG 0.17  HD
ENDBRANCH 34 35
ENDBRANCH 33 34
ENDBRANCH 32 33
ENDBRANCH 1 32
BRANCH 1 44
ATOM     44  N   ARG C 843       4.842   8.686  11.153  1.00 47.52 LIG-0.35  N 
ATOM     45  C   LYS C 842       4.697   8.999  12.449  1.00 51.06 LIG 0.24  C 
ATOM     46 O    LYS C 842       3.734   9.634  12.886  1.00 51.08 LIG-0.27  OA
ATOM     47 H    ARG C 843       5.507   8.237  10.843  1.00 47.52 LIG 0.16  HD
BRANCH 45 48
ATOM     48  CA  LYS C 842       5.790   8.541  13.401  1.00 46.69 LIG 0.18  C 
BRANCH 48 49
ATOM     49  CB  LYS C 842       6.042   9.616  14.475  1.00 47.71 LIG 0.04  C 
BRANCH 49 50
ATOM     50  CG  LYS C 842       7.022   9.206  15.560  1.00 50.03 LIG 0.00  C 
BRANCH 50 51
ATOM     51  CD  LYS C 842       6.925   7.713  15.828  1.00 53.65 LIG 0.03  C 
BRANCH 51 52
ATOM     52  CE  LYS C 842       7.555   7.360  17.150  1.00 52.95 LIG 0.23  C 
BRANCH 52 53
ATOM     53  NZ  LYS C 842       6.564   7.304  18.249  1.00 44.67 LIG-0.08  N 
ATOM     54 HZ3  LYS C 842       5.743   7.274  17.908  1.00 44.67 LIG 0.27  HD
ATOM     55 HZ2  LYS C 842       6.645   8.028  18.760  1.00 44.67 LIG 0.27  HD
ATOM     56 HZ1  LYS C 842       6.707   6.576  18.741  1.00 44.67 LIG 0.27  HD
ENDBRANCH 52 53
ENDBRANCH 51 52
ENDBRANCH 50 51
ENDBRANCH 49 50
ENDBRANCH 48 49
BRANCH 48 57
ATOM     57  N   LYS C 842       7.003   8.235  12.646  1.00 47.24 LIG-0.35  N 
ATOM     58 H    LYS C 842       7.346   8.926  12.268  1.00 47.24 LIG 0.16  HD
ATOM     59  C   GLN C 841       7.545   7.013  12.538  1.00 52.93 LIG 0.26  C 
ATOM     60 O    GLN C 841       7.095   6.018  13.114  1.00 51.68 LIG-0.27  OA
BRANCH 59 61
ATOM     61  CA  GLN C 841       8.819   6.907  11.694  1.00 52.44 LIG 0.40  C 
ATOM     62  N   GLN C 841       8.498   7.096  10.279  1.00 53.67 LIG 0.61  N 
BRANCH 61 63
ATOM     63  CB  GLN C 841       9.879   7.930  12.161  1.00 53.85 LIG 0.06  C 
BRANCH 63 64
ATOM     64  CG  GLN C 841      10.255   7.846  13.649  1.00 74.06 LIG 0.10  C 
BRANCH 64 65
ATOM     65  CD  GLN C 841      10.025   9.121  14.441  1.00 99.82 LIG 0.21  C 
ATOM     66 OE1  GLN C 841      10.243   9.189  15.659  1.00 97.42 LIG-0.27  OA
ATOM     67  NE2 GLN C 841       9.621  10.177  13.749  1.00 91.89 LIG-0.37  N 
ATOM     68 22HE GLN C 841       9.506  10.931  14.145  1.00 91.89 LIG 0.16  HD
ATOM     69 21HE GLN C 841       9.475  10.108  12.904  1.00 91.89 LIG 0.16  HD
ENDBRANCH 64 65
ENDBRANCH 63 64
ENDBRANCH 61 63
ENDBRANCH 59 61
ENDBRANCH 48 57
ENDBRANCH 45 48
ENDBRANCH 1 44
TORSDOF 29
ENDMDL
MODEL 6
USER: ADFR SOLUTION from run 68
USER: SCORE 18.741207 LL:  -3.414 LR: -19.069 RR:   0.000 FEB: -10.419
USER: RMSD 7.086654
USER: SEED 67
USER: STATUS no improvement in best in 7 clusters for 5 generations
USER: GENES 31
USER: genes 0 Translation |==|  0.54268 0.58080 0.49015
USER: genes 1 Rotation |==|  0.59451 0.92436 0.28288 0.61766
USER: genes 2 Torsion [N]-CA--C-[N] |==|  0.79444
USER: genes 3 Torsion [C]-N--CA-[CB] |==|  0.42911
USER: genes 4 Torsion [N]-CA--CB-[OG] |==|  0.83962
USER: genes 5 Torsion [CA]-CB--OG-[HG] |==|  0.76667
USER: genes 6 Torsion [N]-CA--C-[N] |==|  0.45181
USER: genes 7 Torsion [C]-N--CA-[CB] |==|  0.30300
USER: genes 8 Torsion [N]-CA--CB-[CG] |==|  0.57173
USER: genes 9 Torsion [CA]-CB--CG-[CD2] |==|  0.97120
USER: genes 10 Torsion [N]-CA--C-[N] |==|  0.10932
USER: genes 11 Torsion [C]-N--CA-[CB] |==|  0.33877
USER: genes 12 Torsion [N]-CA--CB-[OG] |==|  0.87642
USER: genes 13 Torsion [CA]-CB--OG-[HG] |==|  0.67330
USER: genes 14 Torsion [N]-CA--C-[O] |==|  0.67447
USER: genes 15 Torsion [C]-CA--CB-[CG] |==|  0.12331
USER: genes 16 Torsion [CA]-CB--CG-[CD] |==|  0.34363
USER: genes 17 Torsion [CB]-CG--CD-[NE] |==|  0.51458
USER: genes 18 Torsion [CG]-CD--NE-[CZ] |==|  0.30247
USER: genes 19 Torsion [C]-CA--N-[C] |==|  0.73316
USER: genes 20 Torsion [N]-C--CA-[N] |==|  0.24886
USER: genes 21 Torsion [C]-CA--CB-[CG] |==|  0.47278
USER: genes 22 Torsion [CA]-CB--CG-[CD] |==|  0.37789
USER: genes 23 Torsion [CB]-CG--CD-[CE] |==|  0.42282
USER: genes 24 Torsion [CG]-CD--CE-[NZ] |==|  0.58370
USER: genes 25 Torsion [CD]-CE--NZ-[HZ2] |==|  0.90492
USER: genes 26 Torsion [C]-CA--N-[C] |==|  0.74565
USER: genes 27 Torsion [N]-C--CA-[N] |==|  0.72816
USER: genes 28 Torsion [C]-CA--CB-[CG] |==|  0.18916
USER: genes 29 Torsion [CA]-CB--CG-[CD] |==|  0.59418
USER: genes 30 Torsion [CB]-CG--CD-[OE1] |==|  0.05267
ROOT
ATOM      1  CA  ARG C 843       1.213   6.431   8.998  1.00 48.28 LIG 0.18  C 
ENDROOT
BRANCH 1 2
ATOM      2  C   ARG C 843       0.987   4.995   9.459  1.00 51.26 LIG 0.24  C 
ATOM      3  N   SER C 844       1.680   4.039   8.819  1.00 48.21 LIG-0.34  N 
ATOM      4 H    SER C 844       2.213   4.202   8.164  1.00 48.21 LIG 0.16  HD
ATOM      5 O    ARG C 843       0.188   4.757  10.372  1.00 49.46 LIG-0.27  OA
BRANCH 3 6
ATOM      6  CA  SER C 844       1.596   2.619   9.175  1.00 48.58 LIG 0.20  C 
BRANCH 6 7
ATOM      7  CB  SER C 844       1.940   1.737   7.974  1.00 52.82 LIG 0.20  C 
BRANCH 7 8
ATOM      8 OG   SER C 844       1.098   1.984   6.857  1.00 64.87 LIG-0.40  OA
ATOM      9 HG   SER C 844       0.389   1.542   6.939  1.00 64.87 LIG 0.21  HD
ENDBRANCH 7 8
ENDBRANCH 6 7
BRANCH 6 10
ATOM     10  C   SER C 844       2.523   2.303  10.352  1.00 51.88 LIG 0.24  C 
ATOM     11  N   PHE C 845       2.295   1.154  11.015  1.00 48.65 LIG-0.35  N 
ATOM     12 H    PHE C 845       1.640   0.628  10.831  1.00 48.65 LIG 0.16  HD
ATOM     13 O    SER C 844       3.420   3.094  10.658  1.00 50.80 LIG-0.27  OA
BRANCH 11 14
ATOM     14  CA  PHE C 845       3.136   0.683  12.116  1.00 48.60 LIG 0.18  C 
BRANCH 14 15
ATOM     15  CB  PHE C 845       2.406   0.785  13.478  1.00 50.69 LIG 0.07  C 
BRANCH 15 16
ATOM     16  CG  PHE C 845       3.229   0.924  14.750  1.00 53.32 LIG-0.06  A 
ATOM     17  CD2 PHE C 845       4.606   0.745  14.728  1.00 56.28 LIG 0.01  A 
ATOM     18  CE2 PHE C 845       5.371   0.871  15.896  1.00 59.52 LIG 0.00  A 
ATOM     19  CZ  PHE C 845       4.758   1.137  17.094  1.00 57.95 LIG 0.00  A 
ATOM     20  CE1 PHE C 845       3.388   1.304  17.143  1.00 59.50 LIG 0.00  A 
ATOM     21  CD1 PHE C 845       2.622   1.181  15.975  1.00 58.05 LIG 0.01  A 
ENDBRANCH 15 16
ENDBRANCH 14 15
BRANCH 14 22
ATOM     22  C   PHE C 845       3.565  -0.750  11.777  1.00 51.55 LIG 0.24  C 
ATOM     23 O    PHE C 845       3.564  -1.633  12.642  1.00 49.31 LIG-0.27  OA
ATOM     24  N   SER C 846       3.869  -0.976  10.485  1.00 48.84 LIG-0.34  N 
ATOM     25 H    SER C 846       3.834  -0.358   9.887  1.00 48.84 LIG 0.16  HD
BRANCH 24 26
ATOM     26  CA  SER C 846       4.285  -2.272   9.947  1.00 80.27 LIG 0.19  C 
BRANCH 26 27
ATOM     27  CB  SER C 846       3.336  -2.718   8.839  1.00 83.79 LIG 0.20  C 
BRANCH 27 28
ATOM     28 OG   SER C 846       1.981  -2.511   9.203  1.00 92.96 LIG-0.40  OA
ATOM     29 HG   SER C 846       1.582  -3.250   9.231  1.00 92.96 LIG 0.21  HD
ENDBRANCH 27 28
ENDBRANCH 26 27
BRANCH 26 30
ATOM     30  C   SER C 846       5.712  -2.204   9.422  1.00107.57 LIG 0.22  C 
ATOM     31 O    SER C 846       5.935  -2.397   8.229  1.00 73.66 LIG-0.29  OA
ENDBRANCH 26 30
ENDBRANCH 24 26
ENDBRANCH 14 22
ENDBRANCH 11 14
ENDBRANCH 6 10
ENDBRANCH 3 6
ENDBRANCH 1 2
BRANCH 1 32
ATOM     32  CB  ARG C 843       1.079   6.525   7.451  1.00 50.74 LIG 0.04  C 
BRANCH 32 33
ATOM     33  CG  ARG C 843      -0.123   5.764   6.871  1.00 63.97 LIG 0.02  C 
BRANCH 33 34
ATOM     34  CD  ARG C 843      -1.053   6.625   6.047  1.00 82.46 LIG 0.14  C 
BRANCH 34 35
ATOM     35  NE  ARG C 843      -2.230   5.864   5.636  1.00 98.18 LIG-0.23  N 
ATOM     36 HE   ARG C 843      -2.123   5.252   5.041  1.00 98.18 LIG 0.18  HD
ATOM     37  CZ  ARG C 843      -3.454   6.051   6.119  1.00115.63 LIG 0.67  C 
ATOM     38  NH2 ARG C 843      -4.458   5.293   5.707  1.00101.74 LIG-0.23  N 
ATOM     39  NH1 ARG C 843      -3.685   7.007   7.012  1.00105.44 LIG-0.23  N 
ATOM     40 1HH2 ARG C 843      -4.320   4.676   5.124  1.00101.74 LIG 0.17  HD
ATOM     41 2HH2 ARG C 843      -5.248   5.418   6.022  1.00101.74 LIG 0.17  HD
ATOM     42 1HH1 ARG C 843      -3.041   7.508   7.282  1.00105.44 LIG 0.17  HD
ATOM     43 2HH1 ARG C 843      -4.478   7.124   7.322  1.00105.44 LIG 0.17  HD
ENDBRANCH 34 35
ENDBRANCH 33 34
ENDBRANCH 32 33
ENDBRANCH 1 32
BRANCH 1 44
ATOM     44  N   ARG C 843       2.520   6.923   9.456  1.00 47.52 LIG-0.35  N 
ATOM     45  C   LYS C 842       2.659   7.649  10.574  1.00 51.06 LIG 0.24  C 
ATOM     46 O    LYS C 842       1.712   7.949  11.306  1.00 51.08 LIG-0.27  OA
ATOM     47 H    ARG C 843       3.176   6.705   8.945  1.00 47.52 LIG 0.16  HD
BRANCH 45 48
ATOM     48  CA  LYS C 842       4.061   8.116  10.930  1.00 46.69 LIG 0.18  C 
BRANCH 48 49
ATOM     49  CB  LYS C 842       4.231   8.165  12.460  1.00 47.71 LIG 0.04  C 
BRANCH 49 50
ATOM     50  CG  LYS C 842       5.658   8.392  12.929  1.00 50.03 LIG 0.00  C 
BRANCH 50 51
ATOM     51  CD  LYS C 842       5.692   9.415  14.053  1.00 53.65 LIG 0.03  C 
BRANCH 51 52
ATOM     52  CE  LYS C 842       6.873   9.182  14.959  1.00 52.95 LIG 0.23  C 
BRANCH 52 53
ATOM     53  NZ  LYS C 842       6.605   9.602  16.353  1.00 44.67 LIG-0.08  N 
ATOM     54 HZ3  LYS C 842       6.208   8.938  16.792  1.00 44.67 LIG 0.27  HD
ATOM     55 HZ2  LYS C 842       6.073  10.315  16.352  1.00 44.67 LIG 0.27  HD
ATOM     56 HZ1  LYS C 842       7.373   9.806  16.755  1.00 44.67 LIG 0.27  HD
ENDBRANCH 52 53
ENDBRANCH 51 52
ENDBRANCH 50 51
ENDBRANCH 49 50
ENDBRANCH 48 49
BRANCH 48 57
ATOM     57  N   LYS C 842       4.317   9.416  10.314  1.00 47.24 LIG-0.35  N 
ATOM     58 H    LYS C 842       4.072  10.075  10.808  1.00 47.24 LIG 0.16  HD
ATOM     59  C   GLN C 841       4.874   9.590   9.106  1.00 52.93 LIG 0.26  C 
ATOM     60 O    GLN C 841       5.278   8.659   8.404  1.00 51.68 LIG-0.27  OA
BRANCH 59 61
ATOM     61  CA  GLN C 841       5.051  11.040   8.643  1.00 52.44 LIG 0.40  C 
ATOM     62  N   GLN C 841       3.951  11.419   7.757  1.00 53.67 LIG 0.61  N 
BRANCH 61 63
ATOM     63  CB  GLN C 841       5.142  11.999   9.851  1.00 53.85 LIG 0.06  C 
BRANCH 63 64
ATOM     64  CG  GLN C 841       6.410  11.852  10.706  1.00 74.06 LIG 0.10  C 
BRANCH 64 65
ATOM     65  CD  GLN C 841       6.215  12.106  12.190  1.00 99.82 LIG 0.21  C 
ATOM     66 OE1  GLN C 841       5.096  12.069  12.724  1.00 97.42 LIG-0.27  OA
ATOM     67  NE2 GLN C 841       7.313  12.324  12.899  1.00 91.89 LIG-0.37  N 
ATOM     68 22HE GLN C 841       7.259  12.443  13.749  1.00 91.89 LIG 0.16  HD
ATOM     69 21HE GLN C 841       8.079  12.347  12.509  1.00 91.89 LIG 0.16  HD
ENDBRANCH 64 65
ENDBRANCH 63 64
ENDBRANCH 61 63
ENDBRANCH 59 61
ENDBRANCH 48 57
ENDBRANCH 45 48
ENDBRANCH 1 44
TORSDOF 29
ENDMDL
MODEL 7
USER: ADFR SOLUTION from run 14
USER: SCORE 20.487871 LL:  -2.826 LR: -18.916 RR:   0.000 FEB: -10.266
USER: RMSD 7.977767
USER: SEED 349538
USER: STATUS searching
USER: GENES 31
USER: genes 0 Translation |==|  0.58984 0.64949 0.48113
USER: genes 1 Rotation |==|  0.64358 0.92491 0.39029 0.69183
USER: genes 2 Torsion [N]-CA--C-[N] |==|  0.36587
USER: genes 3 Torsion [C]-N--CA-[CB] |==|  0.80556
USER: genes 4 Torsion [N]-CA--CB-[OG] |==|  0.75590
USER: genes 5 Torsion [CA]-CB--OG-[HG] |==|  0.87319
USER: genes 6 Torsion [N]-CA--C-[N] |==|  0.51409
USER: genes 7 Torsion [C]-N--CA-[CB] |==|  0.21793
USER: genes 8 Torsion [N]-CA--CB-[CG] |==|  0.62102
USER: genes 9 Torsion [CA]-CB--CG-[CD2] |==|  0.93639
USER: genes 10 Torsion [N]-CA--C-[N] |==|  0.96011
USER: genes 11 Torsion [C]-N--CA-[CB] |==|  0.29700
USER: genes 12 Torsion [N]-CA--CB-[OG] |==|  0.73157
USER: genes 13 Torsion [CA]-CB--OG-[HG] |==|  0.99317
USER: genes 14 Torsion [N]-CA--C-[O] |==|  0.90678
USER: genes 15 Torsion [C]-CA--CB-[CG] |==|  0.51259
USER: genes 16 Torsion [CA]-CB--CG-[CD] |==|  0.26732
USER: genes 17 Torsion [CB]-CG--CD-[NE] |==|  0.42177
USER: genes 18 Torsion [CG]-CD--NE-[CZ] |==|  0.28520
USER: genes 19 Torsion [C]-CA--N-[C] |==|  0.75511
USER: genes 20 Torsion [N]-C--CA-[N] |==|  0.96410
USER: genes 21 Torsion [C]-CA--CB-[CG] |==|  0.70414
USER: genes 22 Torsion [CA]-CB--CG-[CD] |==|  0.69684
USER: genes 23 Torsion [CB]-CG--CD-[CE] |==|  0.53497
USER: genes 24 Torsion [CG]-CD--CE-[NZ] |==|  0.21365
USER: genes 25 Torsion [CD]-CE--NZ-[HZ2] |==|  0.86766
USER: genes 26 Torsion [C]-CA--N-[C] |==|  0.73745
USER: genes 27 Torsion [N]-C--CA-[N] |==|  0.91287
USER: genes 28 Torsion [C]-CA--CB-[CG] |==|  0.03706
USER: genes 29 Torsion [CA]-CB--CG-[CD] |==|  0.68212
USER: genes 30 Torsion [CB]-CG--CD-[OE1] |==|  0.44743
ROOT
ATOM      1  CA  ARG C 843       2.345   8.028   8.768  1.00 48.28 LIG 0.18  C 
ENDROOT
BRANCH 1 2
ATOM      2  C   ARG C 843       2.153   6.525   8.595  1.00 51.26 LIG 0.24  C 
ATOM      3  N   SER C 844       0.886   6.085   8.511  1.00 48.21 LIG-0.34  N 
ATOM      4 H    SER C 844       0.202   6.602   8.572  1.00 48.21 LIG 0.16  HD
ATOM      5 O    ARG C 843       3.135   5.776   8.550  1.00 49.46 LIG-0.27  OA
BRANCH 3 6
ATOM      6  CA  SER C 844       0.545   4.674   8.307  1.00 48.58 LIG 0.20  C 
BRANCH 6 7
ATOM      7  CB  SER C 844       0.917   4.224   6.894  1.00 52.82 LIG 0.20  C 
BRANCH 7 8
ATOM      8 OG   SER C 844      -0.123   4.458   5.956  1.00 64.87 LIG-0.40  OA
ATOM      9 HG   SER C 844      -0.855   4.204   6.280  1.00 64.87 LIG 0.21  HD
ENDBRANCH 7 8
ENDBRANCH 6 7
BRANCH 6 10
ATOM     10  C   SER C 844       1.244   3.794   9.347  1.00 51.88 LIG 0.24  C 
ATOM     11  N   PHE C 845       1.104   2.463   9.213  1.00 48.65 LIG-0.35  N 
ATOM     12 H    PHE C 845       0.614   2.101   8.605  1.00 48.65 LIG 0.16  HD
ATOM     13 O    SER C 844       1.890   4.317  10.261  1.00 50.80 LIG-0.27  OA
BRANCH 11 14
ATOM     14  CA  PHE C 845       1.767   1.493  10.087  1.00 48.60 LIG 0.18  C 
BRANCH 14 15
ATOM     15  CB  PHE C 845       1.040   1.359  11.448  1.00 50.69 LIG 0.07  C 
BRANCH 15 16
ATOM     16  CG  PHE C 845       1.864   1.310  12.725  1.00 53.32 LIG-0.06  A 
ATOM     17  CD2 PHE C 845       3.195   0.914  12.697  1.00 56.28 LIG 0.01  A 
ATOM     18  CE2 PHE C 845       3.962   0.867  13.869  1.00 59.52 LIG 0.00  A 
ATOM     19  CZ  PHE C 845       3.390   1.177  15.078  1.00 57.95 LIG 0.00  A 
ATOM     20  CE1 PHE C 845       2.065   1.560  15.133  1.00 59.50 LIG 0.00  A 
ATOM     21  CD1 PHE C 845       1.298   1.610  13.960  1.00 58.05 LIG 0.01  A 
ENDBRANCH 15 16
ENDBRANCH 14 15
BRANCH 14 22
ATOM     22  C   PHE C 845       1.841   0.168   9.319  1.00 51.55 LIG 0.24  C 
ATOM     23 O    PHE C 845       2.533  -0.768   9.737  1.00 49.31 LIG-0.27  OA
ATOM     24  N   SER C 846       1.063   0.086   8.223  1.00 48.84 LIG-0.34  N 
ATOM     25 H    SER C 846       0.561   0.734   7.963  1.00 48.84 LIG 0.16  HD
BRANCH 24 26
ATOM     26  CA  SER C 846       0.973  -1.091   7.359  1.00 80.27 LIG 0.19  C 
BRANCH 26 27
ATOM     27  CB  SER C 846      -0.359  -1.805   7.568  1.00 83.79 LIG 0.20  C 
BRANCH 27 28
ATOM     28 OG   SER C 846      -0.231  -2.885   8.479  1.00 92.96 LIG-0.40  OA
ATOM     29 HG   SER C 846       0.573  -2.959   8.715  1.00 92.96 LIG 0.21  HD
ENDBRANCH 27 28
ENDBRANCH 26 27
BRANCH 26 30
ATOM     30  C   SER C 846       1.136  -0.701   5.897  1.00107.57 LIG 0.22  C 
ATOM     31 O    SER C 846       0.713   0.384   5.503  1.00 73.66 LIG-0.29  OA
ENDBRANCH 26 30
ENDBRANCH 24 26
ENDBRANCH 14 22
ENDBRANCH 11 14
ENDBRANCH 6 10
ENDBRANCH 3 6
ENDBRANCH 1 2
BRANCH 1 32
ATOM     32  CB  ARG C 843       2.814   8.667   7.429  1.00 50.74 LIG 0.04  C 
BRANCH 32 33
ATOM     33  CG  ARG C 843       3.143  10.164   7.522  1.00 63.97 LIG 0.02  C 
BRANCH 33 34
ATOM     34  CD  ARG C 843       4.612  10.457   7.722  1.00 82.46 LIG 0.14  C 
BRANCH 34 35
ATOM     35  NE  ARG C 843       4.958  11.760   7.160  1.00 98.18 LIG-0.23  N 
ATOM     36 HE   ARG C 843       5.048  11.816   6.306  1.00 98.18 LIG 0.18  HD
ATOM     37  CZ  ARG C 843       5.144  12.863   7.876  1.00115.63 LIG 0.67  C 
ATOM     38  NH2 ARG C 843       5.429  14.009   7.277  1.00101.74 LIG-0.23  N 
ATOM     39  NH1 ARG C 843       5.056  12.827   9.201  1.00105.44 LIG-0.23  N 
ATOM     40 1HH2 ARG C 843       5.495  14.041   6.420  1.00101.74 LIG 0.17  HD
ATOM     41 2HH2 ARG C 843       5.549  14.720   7.744  1.00101.74 LIG 0.17  HD
ATOM     42 1HH1 ARG C 843       4.877  12.087   9.600  1.00105.44 LIG 0.17  HD
ATOM     43 2HH1 ARG C 843       5.177  13.544   9.660  1.00105.44 LIG 0.17  HD
ENDBRANCH 34 35
ENDBRANCH 33 34
ENDBRANCH 32 33
ENDBRANCH 1 32
BRANCH 1 44
ATOM     44  N   ARG C 843       3.290   8.308   9.858  1.00 47.52 LIG-0.35  N 
ATOM     45  C   LYS C 842       2.894   8.434  11.133  1.00 51.06 LIG 0.24  C 
ATOM     46 O    LYS C 842       1.719   8.316  11.490  1.00 51.08 LIG-0.27  OA
ATOM     47 H    ARG C 843       4.107   8.383   9.604  1.00 47.52 LIG 0.16  HD
BRANCH 45 48
ATOM     48  CA  LYS C 842       3.965   8.744  12.166  1.00 46.69 LIG 0.18  C 
BRANCH 48 49
ATOM     49  CB  LYS C 842       3.790  10.178  12.698  1.00 47.71 LIG 0.04  C 
BRANCH 49 50
ATOM     50  CG  LYS C 842       4.824  11.170  12.191  1.00 50.03 LIG 0.00  C 
BRANCH 50 51
ATOM     51  CD  LYS C 842       5.775  11.564  13.309  1.00 53.65 LIG 0.03  C 
BRANCH 51 52
ATOM     52  CE  LYS C 842       6.604  12.759  12.916  1.00 52.95 LIG 0.23  C 
BRANCH 52 53
ATOM     53  NZ  LYS C 842       5.840  14.026  12.999  1.00 44.67 LIG-0.08  N 
ATOM     54 HZ3  LYS C 842       5.713  14.240  13.853  1.00 44.67 LIG 0.27  HD
ATOM     55 HZ2  LYS C 842       5.052  13.924  12.599  1.00 44.67 LIG 0.27  HD
ATOM     56 HZ1  LYS C 842       6.297  14.675  12.595  1.00 44.67 LIG 0.27  HD
ENDBRANCH 52 53
ENDBRANCH 51 52
ENDBRANCH 50 51
ENDBRANCH 49 50
ENDBRANCH 48 49
BRANCH 48 57
ATOM     57  N   LYS C 842       5.288   8.542  11.578  1.00 47.24 LIG-0.35  N 
ATOM     58 H    LYS C 842       5.575   9.232  11.153  1.00 47.24 LIG 0.16  HD
ATOM     59  C   GLN C 841       6.001   7.410  11.676  1.00 52.93 LIG 0.26  C 
ATOM     60 O    GLN C 841       5.627   6.427  12.323  1.00 51.68 LIG-0.27  OA
BRANCH 59 61
ATOM     61  CA  GLN C 841       7.366   7.404  10.982  1.00 52.44 LIG 0.40  C 
ATOM     62  N   GLN C 841       7.327   8.261   9.797  1.00 53.67 LIG 0.61  N 
BRANCH 61 63
ATOM     63  CB  GLN C 841       8.482   7.854  11.952  1.00 53.85 LIG 0.06  C 
BRANCH 63 64
ATOM     64  CG  GLN C 841       8.078   7.895  13.434  1.00 74.06 LIG 0.10  C 
BRANCH 64 65
ATOM     65  CD  GLN C 841       8.069   9.280  14.057  1.00 99.82 LIG 0.21  C 
ATOM     66 OE1  GLN C 841       7.454   9.528  15.104  1.00 97.42 LIG-0.27  OA
ATOM     67  NE2 GLN C 841       8.796  10.204  13.445  1.00 91.89 LIG-0.37  N 
ATOM     68 22HE GLN C 841       8.849  10.996  13.774  1.00 91.89 LIG 0.16  HD
ATOM     69 21HE GLN C 841       9.214  10.011  12.719  1.00 91.89 LIG 0.16  HD
ENDBRANCH 64 65
ENDBRANCH 63 64
ENDBRANCH 61 63
ENDBRANCH 59 61
ENDBRANCH 48 57
ENDBRANCH 45 48
ENDBRANCH 1 44
TORSDOF 29
ENDMDL
MODEL 8
USER: ADFR SOLUTION from run 98
USER: SCORE 19.432879 LL:  -2.812 LR: -18.881 RR:   0.000 FEB: -10.231
USER: RMSD 10.398216
USER: SEED 97
USER: STATUS searching
USER: GENES 31
USER: genes 0 Translation |==|  0.45827 0.57042 0.39191
USER: genes 1 Rotation |==|  0.55825 0.93434 0.66708 0.67331
USER: genes 2 Torsion [N]-CA--C-[N] |==|  0.22353
USER: genes 3 Torsion [C]-N--CA-[CB] |==|  0.23647
USER: genes 4 Torsion [N]-CA--CB-[OG] |==|  0.10647
USER: genes 5 Torsion [CA]-CB--OG-[HG] |==|  0.54150
USER: genes 6 Torsion [N]-CA--C-[N] |==|  0.78083
USER: genes 7 Torsion [C]-N--CA-[CB] |==|  0.14542
USER: genes 8 Torsion [N]-CA--CB-[CG] |==|  0.57331
USER: genes 9 Torsion [CA]-CB--CG-[CD2] |==|  0.85801
USER: genes 10 Torsion [N]-CA--C-[N] |==|  0.14444
USER: genes 11 Torsion [C]-N--CA-[CB] |==|  0.89127
USER: genes 12 Torsion [N]-CA--CB-[OG] |==|  0.65011
USER: genes 13 Torsion [CA]-CB--OG-[HG] |==|  0.74439
USER: genes 14 Torsion [N]-CA--C-[O] |==|  0.26849
USER: genes 15 Torsion [C]-CA--CB-[CG] |==|  0.34739
USER: genes 16 Torsion [CA]-CB--CG-[CD] |==|  0.86413
USER: genes 17 Torsion [CB]-CG--CD-[NE] |==|  0.45260
USER: genes 18 Torsion [CG]-CD--NE-[CZ] |==|  0.55401
USER: genes 19 Torsion [C]-CA--N-[C] |==|  0.15975
USER: genes 20 Torsion [N]-C--CA-[N] |==|  0.18331
USER: genes 21 Torsion [C]-CA--CB-[CG] |==|  0.23507
USER: genes 22 Torsion [CA]-CB--CG-[CD] |==|  0.26925
USER: genes 23 Torsion [CB]-CG--CD-[CE] |==|  0.18638
USER: genes 24 Torsion [CG]-CD--CE-[NZ] |==|  0.51177
USER: genes 25 Torsion [CD]-CE--NZ-[HZ2] |==|  0.45338
USER: genes 26 Torsion [C]-CA--N-[C] |==|  0.75561
USER: genes 27 Torsion [N]-C--CA-[N] |==|  0.06168
USER: genes 28 Torsion [C]-CA--CB-[CG] |==|  0.73398
USER: genes 29 Torsion [CA]-CB--CG-[CD] |==|  0.45502
USER: genes 30 Torsion [CB]-CG--CD-[OE1] |==|  0.59277
ROOT
ATOM      1  CA  ARG C 843      -0.813   6.189   6.493  1.00 48.28 LIG 0.18  C 
ENDROOT
BRANCH 1 2
ATOM      2  C   ARG C 843       0.009   5.625   5.339  1.00 51.26 LIG 0.24  C 
ATOM      3  N   SER C 844      -0.080   4.301   5.126  1.00 48.21 LIG-0.34  N 
ATOM      4 H    SER C 844      -0.552   3.775   5.616  1.00 48.21 LIG 0.16  HD
ATOM      5 O    ARG C 843       0.721   6.375   4.661  1.00 49.46 LIG-0.27  OA
BRANCH 3 6
ATOM      6  CA  SER C 844       0.622   3.621   4.033  1.00 48.58 LIG 0.20  C 
BRANCH 6 7
ATOM      7  CB  SER C 844       2.050   3.263   4.445  1.00 52.82 LIG 0.20  C 
BRANCH 7 8
ATOM      8 OG   SER C 844       2.136   2.836   5.796  1.00 64.87 LIG-0.40  OA
ATOM      9 HG   SER C 844       2.939   2.846   6.042  1.00 64.87 LIG 0.21  HD
ENDBRANCH 7 8
ENDBRANCH 6 7
BRANCH 6 10
ATOM     10  C   SER C 844      -0.140   2.364   3.603  1.00 51.88 LIG 0.24  C 
ATOM     11  N   PHE C 845       0.002   1.272   4.376  1.00 48.65 LIG-0.35  N 
ATOM     12 H    PHE C 845       0.523   1.245   5.060  1.00 48.65 LIG 0.16  HD
ATOM     13 O    SER C 844      -0.833   2.384   2.581  1.00 50.80 LIG-0.27  OA
BRANCH 11 14
ATOM     14  CA  PHE C 845      -0.715   0.018   4.134  1.00 48.60 LIG 0.18  C 
BRANCH 14 15
ATOM     15  CB  PHE C 845      -0.534  -0.471   2.675  1.00 50.69 LIG 0.07  C 
BRANCH 15 16
ATOM     16  CG  PHE C 845      -1.608  -1.347   2.050  1.00 53.32 LIG-0.06  A 
ATOM     17  CD2 PHE C 845      -2.066  -2.485   2.703  1.00 56.28 LIG 0.01  A 
ATOM     18  CE2 PHE C 845      -3.057  -3.297   2.134  1.00 59.52 LIG 0.00  A 
ATOM     19  CZ  PHE C 845      -3.563  -2.997   0.894  1.00 57.95 LIG 0.00  A 
ATOM     20  CE1 PHE C 845      -3.112  -1.880   0.219  1.00 59.50 LIG 0.00  A 
ATOM     21  CD1 PHE C 845      -2.124  -1.065   0.789  1.00 58.05 LIG 0.01  A 
ENDBRANCH 15 16
ENDBRANCH 14 15
BRANCH 14 22
ATOM     22  C   PHE C 845      -0.215  -0.996   5.169  1.00 51.55 LIG 0.24  C 
ATOM     23 O    PHE C 845       0.248  -2.087   4.814  1.00 49.31 LIG-0.27  OA
ATOM     24  N   SER C 846      -0.255  -0.588   6.451  1.00 48.84 LIG-0.34  N 
ATOM     25 H    SER C 846      -0.550   0.187   6.680  1.00 48.84 LIG 0.16  HD
BRANCH 24 26
ATOM     26  CA  SER C 846       0.187  -1.393   7.590  1.00 80.27 LIG 0.19  C 
BRANCH 26 27
ATOM     27  CB  SER C 846      -0.214  -2.852   7.397  1.00 83.79 LIG 0.20  C 
BRANCH 27 28
ATOM     28 OG   SER C 846      -0.953  -3.338   8.507  1.00 92.96 LIG-0.40  OA
ATOM     29 HG   SER C 846      -0.428  -3.689   9.061  1.00 92.96 LIG 0.21  HD
ENDBRANCH 27 28
ENDBRANCH 26 27
BRANCH 26 30
ATOM     30  C   SER C 846       1.694  -1.282   7.776  1.00107.57 LIG 0.22  C 
ATOM     31 O    SER C 846       2.152  -0.483   8.590  1.00 73.66 LIG-0.29  OA
ENDBRANCH 26 30
ENDBRANCH 24 26
ENDBRANCH 14 22
ENDBRANCH 11 14
ENDBRANCH 6 10
ENDBRANCH 3 6
ENDBRANCH 1 2
BRANCH 1 32
ATOM     32  CB  ARG C 843      -1.104   7.699   6.256  1.00 50.74 LIG 0.04  C 
BRANCH 32 33
ATOM     33  CG  ARG C 843      -2.594   8.072   6.299  1.00 63.97 LIG 0.02  C 
BRANCH 33 34
ATOM     34  CD  ARG C 843      -3.473   7.179   5.455  1.00 82.46 LIG 0.14  C 
BRANCH 34 35
ATOM     35  NE  ARG C 843      -4.874   7.319   5.844  1.00 98.18 LIG-0.23  N 
ATOM     36 HE   ARG C 843      -5.099   8.024   6.283  1.00 98.18 LIG 0.18  HD
ATOM     37  CZ  ARG C 843      -5.824   6.433   5.568  1.00115.63 LIG 0.67  C 
ATOM     38  NH2 ARG C 843      -7.076   6.658   5.937  1.00101.74 LIG-0.23  N 
ATOM     39  NH1 ARG C 843      -5.528   5.308   4.926  1.00105.44 LIG-0.23  N 
ATOM     40 1HH2 ARG C 843      -7.277   7.380   6.359  1.00101.74 LIG 0.17  HD
ATOM     41 2HH2 ARG C 843      -7.687   6.081   5.756  1.00101.74 LIG 0.17  HD
ATOM     42 1HH1 ARG C 843      -4.717   5.150   4.687  1.00105.44 LIG 0.17  HD
ATOM     43 2HH1 ARG C 843      -6.147   4.738   4.749  1.00105.44 LIG 0.17  HD
ENDBRANCH 34 35
ENDBRANCH 33 34
ENDBRANCH 32 33
ENDBRANCH 1 32
BRANCH 1 44
ATOM     44  N   ARG C 843      -0.129   5.967   7.774  1.00 47.52 LIG-0.35  N 
ATOM     45  C   LYS C 842       1.108   6.423   8.015  1.00 51.06 LIG 0.24  C 
ATOM     46 O    LYS C 842       1.761   7.068   7.190  1.00 51.08 LIG-0.27  OA
ATOM     47 H    ARG C 843      -0.592   5.523   8.347  1.00 47.52 LIG 0.16  HD
BRANCH 45 48
ATOM     48  CA  LYS C 842       1.713   6.111   9.373  1.00 46.69 LIG 0.18  C 
BRANCH 48 49
ATOM     49  CB  LYS C 842       3.022   6.899   9.565  1.00 47.71 LIG 0.04  C 
BRANCH 49 50
ATOM     50  CG  LYS C 842       2.836   8.316  10.080  1.00 50.03 LIG 0.00  C 
BRANCH 50 51
ATOM     51  CD  LYS C 842       3.031   8.363  11.587  1.00 53.65 LIG 0.03  C 
BRANCH 51 52
ATOM     52  CE  LYS C 842       4.462   8.069  11.955  1.00 52.95 LIG 0.23  C 
BRANCH 52 53
ATOM     53  NZ  LYS C 842       4.665   8.009  13.421  1.00 44.67 LIG-0.08  N 
ATOM     54 HZ3  LYS C 842       4.682   8.834  13.753  1.00 44.67 LIG 0.27  HD
ATOM     55 HZ2  LYS C 842       5.437   7.603  13.598  1.00 44.67 LIG 0.27  HD
ATOM     56 HZ1  LYS C 842       3.997   7.552  13.794  1.00 44.67 LIG 0.27  HD
ENDBRANCH 52 53
ENDBRANCH 51 52
ENDBRANCH 50 51
ENDBRANCH 49 50
ENDBRANCH 48 49
BRANCH 48 57
ATOM     57  N   LYS C 842       1.924   4.670   9.498  1.00 47.24 LIG-0.35  N 
ATOM     58 H    LYS C 842       2.709   4.423   9.247  1.00 47.24 LIG 0.16  HD
ATOM     59  C   GLN C 841       1.008   3.802   9.952  1.00 52.93 LIG 0.26  C 
ATOM     60 O    GLN C 841      -0.105   4.143  10.362  1.00 51.68 LIG-0.27  OA
BRANCH 59 61
ATOM     61  CA  GLN C 841       1.431   2.331   9.999  1.00 52.44 LIG 0.40  C 
ATOM     62  N   GLN C 841       2.891   2.231  10.037  1.00 53.67 LIG 0.61  N 
BRANCH 61 63
ATOM     63  CB  GLN C 841       0.798   1.611  11.211  1.00 53.85 LIG 0.06  C 
BRANCH 63 64
ATOM     64  CG  GLN C 841       1.692   1.529  12.459  1.00 74.06 LIG 0.10  C 
BRANCH 64 65
ATOM     65  CD  GLN C 841       0.964   1.183  13.746  1.00 99.82 LIG 0.21  C 
ATOM     66 OE1  GLN C 841       1.315   1.636  14.845  1.00 97.42 LIG-0.27  OA
ATOM     67  NE2 GLN C 841      -0.103   0.406  13.626  1.00 91.89 LIG-0.37  N 
ATOM     68 22HE GLN C 841      -0.568   0.205  14.321  1.00 91.89 LIG 0.16  HD
ATOM     69 21HE GLN C 841      -0.329   0.102  12.854  1.00 91.89 LIG 0.16  HD
ENDBRANCH 64 65
ENDBRANCH 63 64
ENDBRANCH 61 63
ENDBRANCH 59 61
ENDBRANCH 48 57
ENDBRANCH 45 48
ENDBRANCH 1 44
TORSDOF 29
ENDMDL
MODEL 9
USER: ADFR SOLUTION from run 167
USER: SCORE 20.726382 LL:  -3.691 LR: -18.724 RR:   0.000 FEB: -10.073
USER: RMSD 6.989855
USER: SEED 166
USER: STATUS searching
USER: GENES 31
USER: genes 0 Translation |==|  0.56243 0.66103 0.45663
USER: genes 1 Rotation |==|  0.57787 0.96251 0.37374 0.61865
USER: genes 2 Torsion [N]-CA--C-[N] |==|  0.40742
USER: genes 3 Torsion [C]-N--CA-[CB] |==|  0.83303
USER: genes 4 Torsion [N]-CA--CB-[OG] |==|  0.80791
USER: genes 5 Torsion [CA]-CB--OG-[HG] |==|  0.76176
USER: genes 6 Torsion [N]-CA--C-[N] |==|  0.48862
USER: genes 7 Torsion [C]-N--CA-[CB] |==|  0.22003
USER: genes 8 Torsion [N]-CA--CB-[CG] |==|  0.55830
USER: genes 9 Torsion [CA]-CB--CG-[CD2] |==|  0.99774
USER: genes 10 Torsion [N]-CA--C-[N] |==|  0.94445
USER: genes 11 Torsion [C]-N--CA-[CB] |==|  0.54840
USER: genes 12 Torsion [N]-CA--CB-[OG] |==|  0.07651
USER: genes 13 Torsion [CA]-CB--OG-[HG] |==|  0.88657
USER: genes 14 Torsion [N]-CA--C-[O] |==|  0.41376
USER: genes 15 Torsion [C]-CA--CB-[CG] |==|  0.12784
USER: genes 16 Torsion [CA]-CB--CG-[CD] |==|  0.16390
USER: genes 17 Torsion [CB]-CG--CD-[NE] |==|  0.60706
USER: genes 18 Torsion [CG]-CD--NE-[CZ] |==|  0.53881
USER: genes 19 Torsion [C]-CA--N-[C] |==|  0.78632
USER: genes 20 Torsion [N]-C--CA-[N] |==|  0.13255
USER: genes 21 Torsion [C]-CA--CB-[CG] |==|  0.54500
USER: genes 22 Torsion [CA]-CB--CG-[CD] |==|  0.21424
USER: genes 23 Torsion [CB]-CG--CD-[CE] |==|  0.56684
USER: genes 24 Torsion [CG]-CD--CE-[NZ] |==|  0.54047
USER: genes 25 Torsion [CD]-CE--NZ-[HZ2] |==|  0.28421
USER: genes 26 Torsion [C]-CA--N-[C] |==|  0.62527
USER: genes 27 Torsion [N]-C--CA-[N] |==|  0.49540
USER: genes 28 Torsion [C]-CA--CB-[CG] |==|  0.90261
USER: genes 29 Torsion [CA]-CB--CG-[CD] |==|  0.46846
USER: genes 30 Torsion [CB]-CG--CD-[OE1] |==|  0.92555
ROOT
ATOM      1  CA  ARG C 843       1.687   8.296   8.143  1.00 48.28 LIG 0.18  C 
ENDROOT
BRANCH 1 2
ATOM      2  C   ARG C 843       1.720   6.773   8.063  1.00 51.26 LIG 0.24  C 
ATOM      3  N   SER C 844       0.539   6.140   8.164  1.00 48.21 LIG-0.34  N 
ATOM      4 H    SER C 844      -0.207   6.548   8.289  1.00 48.21 LIG 0.16  HD
ATOM      5 O    ARG C 843       2.797   6.183   7.925  1.00 49.46 LIG-0.27  OA
BRANCH 3 6
ATOM      6  CA  SER C 844       0.407   4.682   8.068  1.00 48.58 LIG 0.20  C 
BRANCH 6 7
ATOM      7  CB  SER C 844       0.907   4.179   6.714  1.00 52.82 LIG 0.20  C 
BRANCH 7 8
ATOM      8 OG   SER C 844       0.062   4.571   5.642  1.00 64.87 LIG-0.40  OA
ATOM      9 HG   SER C 844      -0.561   4.014   5.558  1.00 64.87 LIG 0.21  HD
ENDBRANCH 7 8
ENDBRANCH 6 7
BRANCH 6 10
ATOM     10  C   SER C 844       1.169   3.997   9.206  1.00 51.88 LIG 0.24  C 
ATOM     11  N   PHE C 845       1.063   2.658   9.290  1.00 48.65 LIG-0.35  N 
ATOM     12 H    PHE C 845       0.563   2.193   8.767  1.00 48.65 LIG 0.16  HD
ATOM     13 O    SER C 844       1.831   4.673   9.998  1.00 50.80 LIG-0.27  OA
BRANCH 11 14
ATOM     14  CA  PHE C 845       1.785   1.856  10.279  1.00 48.60 LIG 0.18  C 
BRANCH 14 15
ATOM     15  CB  PHE C 845       1.102   1.909  11.668  1.00 50.69 LIG 0.07  C 
BRANCH 15 16
ATOM     16  CG  PHE C 845       1.915   1.565  12.906  1.00 53.32 LIG-0.06  A 
ATOM     17  CD2 PHE C 845       3.249   1.191  12.799  1.00 56.28 LIG 0.01  A 
ATOM     18  CE2 PHE C 845       4.005   0.873  13.936  1.00 59.52 LIG 0.00  A 
ATOM     19  CZ  PHE C 845       3.420   0.889  15.177  1.00 57.95 LIG 0.00  A 
ATOM     20  CE1 PHE C 845       2.092   1.243  15.307  1.00 59.50 LIG 0.00  A 
ATOM     21  CD1 PHE C 845       1.336   1.564  14.171  1.00 58.05 LIG 0.01  A 
ENDBRANCH 15 16
ENDBRANCH 14 15
BRANCH 14 22
ATOM     22  C   PHE C 845       1.888   0.432   9.719  1.00 51.55 LIG 0.24  C 
ATOM     23 O    PHE C 845       2.700  -0.375  10.186  1.00 49.31 LIG-0.27  OA
ATOM     24  N   SER C 846       1.002   0.120   8.755  1.00 48.84 LIG-0.34  N 
ATOM     25 H    SER C 846       0.420   0.683   8.462  1.00 48.84 LIG 0.16  HD
BRANCH 24 26
ATOM     26  CA  SER C 846       0.919  -1.185   8.098  1.00 80.27 LIG 0.19  C 
BRANCH 26 27
ATOM     27  CB  SER C 846       0.131  -1.076   6.796  1.00 83.79 LIG 0.20  C 
BRANCH 27 28
ATOM     28 OG   SER C 846       0.226   0.226   6.240  1.00 92.96 LIG-0.40  OA
ATOM     29 HG   SER C 846       0.173   0.798   6.854  1.00 92.96 LIG 0.21  HD
ENDBRANCH 27 28
ENDBRANCH 26 27
BRANCH 26 30
ATOM     30  C   SER C 846       2.309  -1.742   7.826  1.00107.57 LIG 0.22  C 
ATOM     31 O    SER C 846       2.493  -2.956   7.832  1.00 73.66 LIG-0.29  OA
ENDBRANCH 26 30
ENDBRANCH 24 26
ENDBRANCH 14 22
ENDBRANCH 11 14
ENDBRANCH 6 10
ENDBRANCH 3 6
ENDBRANCH 1 2
BRANCH 1 32
ATOM     32  CB  ARG C 843       1.502   8.904   6.723  1.00 50.74 LIG 0.04  C 
BRANCH 32 33
ATOM     33  CG  ARG C 843       0.406   8.231   5.883  1.00 63.97 LIG 0.02  C 
BRANCH 33 34
ATOM     34  CD  ARG C 843      -0.966   8.278   6.514  1.00 82.46 LIG 0.14  C 
BRANCH 34 35
ATOM     35  NE  ARG C 843      -1.682   7.026   6.282  1.00 98.18 LIG-0.23  N 
ATOM     36 HE   ARG C 843      -1.228   6.352   6.001  1.00 98.18 LIG 0.18  HD
ATOM     37  CZ  ARG C 843      -2.985   6.858   6.477  1.00115.63 LIG 0.67  C 
ATOM     38  NH2 ARG C 843      -3.545   5.677   6.266  1.00101.74 LIG-0.23  N 
ATOM     39  NH1 ARG C 843      -3.742   7.874   6.875  1.00105.44 LIG-0.23  N 
ATOM     40 1HH2 ARG C 843      -3.065   5.014   6.002  1.00101.74 LIG 0.17  HD
ATOM     41 2HH2 ARG C 843      -4.389   5.572   6.394  1.00101.74 LIG 0.17  HD
ATOM     42 1HH1 ARG C 843      -3.389   8.647   7.009  1.00105.44 LIG 0.17  HD
ATOM     43 2HH1 ARG C 843      -4.585   7.760   7.000  1.00105.44 LIG 0.17  HD
ENDBRANCH 34 35
ENDBRANCH 33 34
ENDBRANCH 32 33
ENDBRANCH 1 32
BRANCH 1 44
ATOM     44  N   ARG C 843       2.901   8.808   8.794  1.00 47.52 LIG-0.35  N 
ATOM     45  C   LYS C 842       3.078   8.755  10.122  1.00 51.06 LIG 0.24  C 
ATOM     46 O    LYS C 842       2.248   8.268  10.894  1.00 51.08 LIG-0.27  OA
ATOM     47 H    ARG C 843       3.478   9.139   8.250  1.00 47.52 LIG 0.16  HD
BRANCH 45 48
ATOM     48  CA  LYS C 842       4.369   9.336  10.675  1.00 46.69 LIG 0.18  C 
BRANCH 48 49
ATOM     49  CB  LYS C 842       4.308   9.394  12.213  1.00 47.71 LIG 0.04  C 
BRANCH 49 50
ATOM     50  CG  LYS C 842       5.352  10.293  12.852  1.00 50.03 LIG 0.00  C 
BRANCH 50 51
ATOM     51  CD  LYS C 842       4.953  11.753  12.713  1.00 53.65 LIG 0.03  C 
BRANCH 51 52
ATOM     52  CE  LYS C 842       6.160  12.652  12.785  1.00 52.95 LIG 0.23  C 
BRANCH 52 53
ATOM     53  NZ  LYS C 842       5.794  14.071  12.999  1.00 44.67 LIG-0.08  N 
ATOM     54 HZ3  LYS C 842       6.296  14.589  12.479  1.00 44.67 LIG 0.27  HD
ATOM     55 HZ2  LYS C 842       5.930  14.287  13.851  1.00 44.67 LIG 0.27  HD
ATOM     56 HZ1  LYS C 842       4.936  14.190  12.795  1.00 44.67 LIG 0.27  HD
ENDBRANCH 52 53
ENDBRANCH 51 52
ENDBRANCH 50 51
ENDBRANCH 49 50
ENDBRANCH 48 49
BRANCH 48 57
ATOM     57  N   LYS C 842       4.604  10.655  10.092  1.00 47.24 LIG-0.35  N 
ATOM     58 H    LYS C 842       3.900  11.148  10.082  1.00 47.24 LIG 0.16  HD
ATOM     59  C   GLN C 841       5.784  11.078   9.614  1.00 52.93 LIG 0.26  C 
ATOM     60 O    GLN C 841       6.817  10.404   9.665  1.00 51.68 LIG-0.27  OA
BRANCH 59 61
ATOM     61  CA  GLN C 841       5.816  12.497   9.040  1.00 52.44 LIG 0.40  C 
ATOM     62  N   GLN C 841       7.170  12.828   8.598  1.00 53.67 LIG 0.61  N 
BRANCH 61 63
ATOM     63  CB  GLN C 841       4.805  12.647   7.881  1.00 53.85 LIG 0.06  C 
BRANCH 63 64
ATOM     64  CG  GLN C 841       4.633  11.398   7.001  1.00 74.06 LIG 0.10  C 
BRANCH 64 65
ATOM     65  CD  GLN C 841       3.459  11.449   6.040  1.00 99.82 LIG 0.21  C 
ATOM     66 OE1  GLN C 841       2.449  12.131   6.268  1.00 97.42 LIG-0.27  OA
ATOM     67  NE2 GLN C 841       3.590  10.761   4.915  1.00 91.89 LIG-0.37  N 
ATOM     68 22HE GLN C 841       2.966  10.782   4.323  1.00 91.89 LIG 0.16  HD
ATOM     69 21HE GLN C 841       4.299  10.294   4.776  1.00 91.89 LIG 0.16  HD
ENDBRANCH 64 65
ENDBRANCH 63 64
ENDBRANCH 61 63
ENDBRANCH 59 61
ENDBRANCH 48 57
ENDBRANCH 45 48
ENDBRANCH 1 44
TORSDOF 29
ENDMDL
MODEL 10
USER: ADFR SOLUTION from run 68
USER: SCORE 18.930582 LL:  -3.806 LR: -18.671 RR:   0.000 FEB: -10.020
USER: RMSD 7.223941
USER: SEED 67
USER: STATUS no improvement in best in 7 clusters for 5 generations
USER: GENES 31
USER: genes 0 Translation |==|  0.53678 0.57643 0.48443
USER: genes 1 Rotation |==|  0.58979 0.91650 0.28029 0.64212
USER: genes 2 Torsion [N]-CA--C-[N] |==|  0.76116
USER: genes 3 Torsion [C]-N--CA-[CB] |==|  0.44245
USER: genes 4 Torsion [N]-CA--CB-[OG] |==|  0.86024
USER: genes 5 Torsion [CA]-CB--OG-[HG] |==|  0.77407
USER: genes 6 Torsion [N]-CA--C-[N] |==|  0.43225
USER: genes 7 Torsion [C]-N--CA-[CB] |==|  0.32746
USER: genes 8 Torsion [N]-CA--CB-[CG] |==|  0.56897
USER: genes 9 Torsion [CA]-CB--CG-[CD2] |==|  0.97707
USER: genes 10 Torsion [N]-CA--C-[N] |==|  0.09305
USER: genes 11 Torsion [C]-N--CA-[CB] |==|  0.36648
USER: genes 12 Torsion [N]-CA--CB-[OG] |==|  0.89254
USER: genes 13 Torsion [CA]-CB--OG-[HG] |==|  0.65715
USER: genes 14 Torsion [N]-CA--C-[O] |==|  0.61025
USER: genes 15 Torsion [C]-CA--CB-[CG] |==|  0.14150
USER: genes 16 Torsion [CA]-CB--CG-[CD] |==|  0.28559
USER: genes 17 Torsion [CB]-CG--CD-[NE] |==|  0.51172
USER: genes 18 Torsion [CG]-CD--NE-[CZ] |==|  0.34446
USER: genes 19 Torsion [C]-CA--N-[C] |==|  0.73745
USER: genes 20 Torsion [N]-C--CA-[N] |==|  0.01506
USER: genes 21 Torsion [C]-CA--CB-[CG] |==|  0.39182
USER: genes 22 Torsion [CA]-CB--CG-[CD] |==|  0.34603
USER: genes 23 Torsion [CB]-CG--CD-[CE] |==|  0.54861
USER: genes 24 Torsion [CG]-CD--CE-[NZ] |==|  0.39712
USER: genes 25 Torsion [CD]-CE--NZ-[HZ2] |==|  0.75094
USER: genes 26 Torsion [C]-CA--N-[C] |==|  0.75067
USER: genes 27 Torsion [N]-C--CA-[N] |==|  0.82290
USER: genes 28 Torsion [C]-CA--CB-[CG] |==|  0.20674
USER: genes 29 Torsion [CA]-CB--CG-[CD] |==|  0.65504
USER: genes 30 Torsion [CB]-CG--CD-[OE1] |==|  0.14284
ROOT
ATOM      1  CA  ARG C 843       1.072   6.329   8.852  1.00 48.28 LIG 0.18  C 
ENDROOT
BRANCH 1 2
ATOM      2  C   ARG C 843       0.878   4.905   9.362  1.00 51.26 LIG 0.24  C 
ATOM      3  N   SER C 844       1.478   3.927   8.662  1.00 48.21 LIG-0.34  N 
ATOM      4 H    SER C 844       1.934   4.070   7.947  1.00 48.21 LIG 0.16  HD
ATOM      5 O    ARG C 843       0.187   4.695  10.365  1.00 49.46 LIG-0.27  OA
BRANCH 3 6
ATOM      6  CA  SER C 844       1.413   2.515   9.050  1.00 48.58 LIG 0.20  C 
BRANCH 6 7
ATOM      7  CB  SER C 844       1.720   1.609   7.857  1.00 52.82 LIG 0.20  C 
BRANCH 7 8
ATOM      8 OG   SER C 844       0.953   1.941   6.709  1.00 64.87 LIG-0.40  OA
ATOM      9 HG   SER C 844       0.189   1.600   6.775  1.00 64.87 LIG 0.21  HD
ENDBRANCH 7 8
ENDBRANCH 6 7
BRANCH 6 10
ATOM     10  C   SER C 844       2.382   2.227  10.200  1.00 51.88 LIG 0.24  C 
ATOM     11  N   PHE C 845       2.099   1.172  10.985  1.00 48.65 LIG-0.35  N 
ATOM     12 H    PHE C 845       1.391   0.692  10.891  1.00 48.65 LIG 0.16  HD
ATOM     13 O    SER C 844       3.361   2.958  10.378  1.00 50.80 LIG-0.27  OA
BRANCH 11 14
ATOM     14  CA  PHE C 845       2.965   0.731  12.081  1.00 48.60 LIG 0.18  C 
BRANCH 14 15
ATOM     15  CB  PHE C 845       2.247   0.824  13.450  1.00 50.69 LIG 0.07  C 
BRANCH 15 16
ATOM     16  CG  PHE C 845       3.081   0.971  14.714  1.00 53.32 LIG-0.06  A 
ATOM     17  CD2 PHE C 845       4.465   0.851  14.670  1.00 56.28 LIG 0.01  A 
ATOM     18  CE2 PHE C 845       5.240   0.986  15.830  1.00 59.52 LIG 0.00  A 
ATOM     19  CZ  PHE C 845       4.632   1.201  17.042  1.00 57.95 LIG 0.00  A 
ATOM     20  CE1 PHE C 845       3.258   1.309  17.112  1.00 59.50 LIG 0.00  A 
ATOM     21  CD1 PHE C 845       2.482   1.177  15.952  1.00 58.05 LIG 0.01  A 
ENDBRANCH 15 16
ENDBRANCH 14 15
BRANCH 14 22
ATOM     22  C   PHE C 845       3.428  -0.692  11.747  1.00 51.55 LIG 0.24  C 
ATOM     23 O    PHE C 845       3.563  -1.540  12.637  1.00 49.31 LIG-0.27  OA
ATOM     24  N   SER C 846       3.605  -0.955  10.438  1.00 48.84 LIG-0.34  N 
ATOM     25 H    SER C 846       3.476  -0.364   9.827  1.00 48.84 LIG 0.16  HD
BRANCH 24 26
ATOM     26  CA  SER C 846       4.028  -2.250   9.904  1.00 80.27 LIG 0.19  C 
BRANCH 26 27
ATOM     27  CB  SER C 846       3.127  -2.668   8.746  1.00 83.79 LIG 0.20  C 
BRANCH 27 28
ATOM     28 OG   SER C 846       1.773  -2.324   8.993  1.00 92.96 LIG-0.40  OA
ATOM     29 HG   SER C 846       1.295  -3.014   8.944  1.00 92.96 LIG 0.21  HD
ENDBRANCH 27 28
ENDBRANCH 26 27
BRANCH 26 30
ATOM     30  C   SER C 846       5.480  -2.197   9.448  1.00107.57 LIG 0.22  C 
ATOM     31 O    SER C 846       5.818  -2.772   8.417  1.00 73.66 LIG-0.29  OA
ENDBRANCH 26 30
ENDBRANCH 24 26
ENDBRANCH 14 22
ENDBRANCH 11 14
ENDBRANCH 6 10
ENDBRANCH 3 6
ENDBRANCH 1 2
BRANCH 1 32
ATOM     32  CB  ARG C 843       1.059   6.349   7.296  1.00 50.74 LIG 0.04  C 
BRANCH 32 33
ATOM     33  CG  ARG C 843      -0.144   5.634   6.662  1.00 63.97 LIG 0.02  C 
BRANCH 33 34
ATOM     34  CD  ARG C 843      -1.213   6.572   6.151  1.00 82.46 LIG 0.14  C 
BRANCH 34 35
ATOM     35  NE  ARG C 843      -2.363   5.820   5.655  1.00 98.18 LIG-0.23  N 
ATOM     36 HE   ARG C 843      -2.223   5.231   5.045  1.00 98.18 LIG 0.18  HD
ATOM     37  CZ  ARG C 843      -3.610   5.983   6.084  1.00115.63 LIG 0.67  C 
ATOM     38  NH2 ARG C 843      -4.587   5.235   5.596  1.00101.74 LIG-0.23  N 
ATOM     39  NH1 ARG C 843      -3.891   6.904   6.999  1.00105.44 LIG-0.23  N 
ATOM     40 1HH2 ARG C 843      -4.417   4.640   4.999  1.00101.74 LIG 0.17  HD
ATOM     41 2HH2 ARG C 843      -5.393   5.344   5.877  1.00101.74 LIG 0.17  HD
ATOM     42 1HH1 ARG C 843      -3.265   7.399   7.318  1.00105.44 LIG 0.17  HD
ATOM     43 2HH1 ARG C 843      -4.700   7.005   7.274  1.00105.44 LIG 0.17  HD
ENDBRANCH 34 35
ENDBRANCH 33 34
ENDBRANCH 32 33
ENDBRANCH 1 32
BRANCH 1 44
ATOM     44  N   ARG C 843       2.311   6.908   9.388  1.00 47.52 LIG-0.35  N 
ATOM     45  C   LYS C 842       2.328   7.663  10.496  1.00 51.06 LIG 0.24  C 
ATOM     46 O    LYS C 842       1.316   7.920  11.152  1.00 51.08 LIG-0.27  OA
ATOM     47 H    ARG C 843       3.014   6.719   8.930  1.00 47.52 LIG 0.16  HD
BRANCH 45 48
ATOM     48  CA  LYS C 842       3.672   8.220  10.937  1.00 46.69 LIG 0.18  C 
BRANCH 48 49
ATOM     49  CB  LYS C 842       3.565   9.738  11.174  1.00 47.71 LIG 0.04  C 
BRANCH 49 50
ATOM     50  CG  LYS C 842       4.347  10.246  12.372  1.00 50.03 LIG 0.00  C 
BRANCH 50 51
ATOM     51  CD  LYS C 842       5.306  11.349  11.953  1.00 53.65 LIG 0.03  C 
BRANCH 51 52
ATOM     52  CE  LYS C 842       6.368  11.567  12.999  1.00 52.95 LIG 0.23  C 
BRANCH 52 53
ATOM     53  NZ  LYS C 842       7.688  11.878  12.404  1.00 44.67 LIG-0.08  N 
ATOM     54 HZ3  LYS C 842       7.573  12.303  11.630  1.00 44.67 LIG 0.27  HD
ATOM     55 HZ2  LYS C 842       8.136  11.123  12.263  1.00 44.67 LIG 0.27  HD
ATOM     56 HZ1  LYS C 842       8.149  12.398  12.961  1.00 44.67 LIG 0.27  HD
ENDBRANCH 52 53
ENDBRANCH 51 52
ENDBRANCH 50 51
ENDBRANCH 49 50
ENDBRANCH 48 49
BRANCH 48 57
ATOM     57  N   LYS C 842       4.690   7.897   9.939  1.00 47.24 LIG-0.35  N 
ATOM     58 H    LYS C 842       4.769   8.502   9.333  1.00 47.24 LIG 0.16  HD
ATOM     59  C   GLN C 841       5.435   6.782   9.944  1.00 52.93 LIG 0.26  C 
ATOM     60 O    GLN C 841       5.371   5.926  10.832  1.00 51.68 LIG-0.27  OA
BRANCH 59 61
ATOM     61  CA  GLN C 841       6.445   6.635   8.801  1.00 52.44 LIG 0.40  C 
ATOM     62  N   GLN C 841       5.741   6.548   7.521  1.00 53.67 LIG 0.61  N 
BRANCH 61 63
ATOM     63  CB  GLN C 841       7.452   7.807   8.798  1.00 53.85 LIG 0.06  C 
BRANCH 63 64
ATOM     64  CG  GLN C 841       8.519   7.752   9.904  1.00 74.06 LIG 0.10  C 
BRANCH 64 65
ATOM     65  CD  GLN C 841       8.583   8.980  10.793  1.00 99.82 LIG 0.21  C 
ATOM     66 OE1  GLN C 841       7.577   9.446  11.349  1.00 97.42 LIG-0.27  OA
ATOM     67  NE2 GLN C 841       9.784   9.505  10.986  1.00 91.89 LIG-0.37  N 
ATOM     68 22HE GLN C 841       9.879  10.183  11.506  1.00 91.89 LIG 0.16  HD
ATOM     69 21HE GLN C 841      10.469   9.167  10.590  1.00 91.89 LIG 0.16  HD
ENDBRANCH 64 65
ENDBRANCH 63 64
ENDBRANCH 61 63
ENDBRANCH 59 61
ENDBRANCH 48 57
ENDBRANCH 45 48
ENDBRANCH 1 44
TORSDOF 29
ENDMDL
MODEL 11
USER: ADFR SOLUTION from run 167
USER: SCORE 20.276342 LL:  -3.598 LR: -18.650 RR:   0.000 FEB:  -9.999
USER: RMSD 8.347929
USER: SEED 166
USER: STATUS searching
USER: GENES 31
USER: genes 0 Translation |==|  0.56251 0.66106 0.45671
USER: genes 1 Rotation |==|  0.57747 0.96215 0.37241 0.61889
USER: genes 2 Torsion [N]-CA--C-[N] |==|  0.41083
USER: genes 3 Torsion [C]-N--CA-[CB] |==|  0.83025
USER: genes 4 Torsion [N]-CA--CB-[OG] |==|  0.80736
USER: genes 5 Torsion [CA]-CB--OG-[HG] |==|  0.76173
USER: genes 6 Torsion [N]-CA--C-[N] |==|  0.48889
USER: genes 7 Torsion [C]-N--CA-[CB] |==|  0.21986
USER: genes 8 Torsion [N]-CA--CB-[CG] |==|  0.55824
USER: genes 9 Torsion [CA]-CB--CG-[CD2] |==|  0.99782
USER: genes 10 Torsion [N]-CA--C-[N] |==|  0.94445
USER: genes 11 Torsion [C]-N--CA-[CB] |==|  0.54824
USER: genes 12 Torsion [N]-CA--CB-[OG] |==|  0.07641
USER: genes 13 Torsion [CA]-CB--OG-[HG] |==|  0.88671
USER: genes 14 Torsion [N]-CA--C-[O] |==|  0.41381
USER: genes 15 Torsion [C]-CA--CB-[CG] |==|  0.12819
USER: genes 16 Torsion [CA]-CB--CG-[CD] |==|  0.16424
USER: genes 17 Torsion [CB]-CG--CD-[NE] |==|  0.60760
USER: genes 18 Torsion [CG]-CD--NE-[CZ] |==|  0.53911
USER: genes 19 Torsion [C]-CA--N-[C] |==|  0.78912
USER: genes 20 Torsion [N]-C--CA-[N] |==|  0.60387
USER: genes 21 Torsion [C]-CA--CB-[CG] |==|  0.35699
USER: genes 22 Torsion [CA]-CB--CG-[CD] |==|  0.13980
USER: genes 23 Torsion [CB]-CG--CD-[CE] |==|  0.54278
USER: genes 24 Torsion [CG]-CD--CE-[NZ] |==|  0.59720
USER: genes 25 Torsion [CD]-CE--NZ-[HZ2] |==|  0.25136
USER: genes 26 Torsion [C]-CA--N-[C] |==|  0.65251
USER: genes 27 Torsion [N]-C--CA-[N] |==|  0.07747
USER: genes 28 Torsion [C]-CA--CB-[CG] |==|  0.69894
USER: genes 29 Torsion [CA]-CB--CG-[CD] |==|  0.31076
USER: genes 30 Torsion [CB]-CG--CD-[OE1] |==|  0.32231
ROOT
ATOM      1  CA  ARG C 843       1.689   8.297   8.145  1.00 48.28 LIG 0.18  C 
ENDROOT
BRANCH 1 2
ATOM      2  C   ARG C 843       1.722   6.774   8.074  1.00 51.26 LIG 0.24  C 
ATOM      3  N   SER C 844       0.539   6.142   8.153  1.00 48.21 LIG-0.34  N 
ATOM      4 H    SER C 844      -0.209   6.551   8.260  1.00 48.21 LIG 0.16  HD
ATOM      5 O    ARG C 843       2.801   6.182   7.962  1.00 49.46 LIG-0.27  OA
BRANCH 3 6
ATOM      6  CA  SER C 844       0.407   4.684   8.062  1.00 48.58 LIG 0.20  C 
BRANCH 6 7
ATOM      7  CB  SER C 844       0.913   4.176   6.712  1.00 52.82 LIG 0.20  C 
BRANCH 7 8
ATOM      8 OG   SER C 844       0.070   4.559   5.635  1.00 64.87 LIG-0.40  OA
ATOM      9 HG   SER C 844      -0.551   4.000   5.552  1.00 64.87 LIG 0.21  HD
ENDBRANCH 7 8
ENDBRANCH 6 7
BRANCH 6 10
ATOM     10  C   SER C 844       1.165   4.002   9.205  1.00 51.88 LIG 0.24  C 
ATOM     11  N   PHE C 845       1.061   2.664   9.293  1.00 48.65 LIG-0.35  N 
ATOM     12 H    PHE C 845       0.564   2.196   8.769  1.00 48.65 LIG 0.16  HD
ATOM     13 O    SER C 844       1.822   4.683   9.999  1.00 50.80 LIG-0.27  OA
BRANCH 11 14
ATOM     14  CA  PHE C 845       1.780   1.866  10.287  1.00 48.60 LIG 0.18  C 
BRANCH 14 15
ATOM     15  CB  PHE C 845       1.090   1.923  11.673  1.00 50.69 LIG 0.07  C 
BRANCH 15 16
ATOM     16  CG  PHE C 845       1.899   1.583  12.916  1.00 53.32 LIG-0.06  A 
ATOM     17  CD2 PHE C 845       3.233   1.211  12.816  1.00 56.28 LIG 0.01  A 
ATOM     18  CE2 PHE C 845       3.985   0.897  13.957  1.00 59.52 LIG 0.00  A 
ATOM     19  CZ  PHE C 845       3.395   0.917  15.195  1.00 57.95 LIG 0.00  A 
ATOM     20  CE1 PHE C 845       2.066   1.270  15.319  1.00 59.50 LIG 0.00  A 
ATOM     21  CD1 PHE C 845       1.314   1.587  14.179  1.00 58.05 LIG 0.01  A 
ENDBRANCH 15 16
ENDBRANCH 14 15
BRANCH 14 22
ATOM     22  C   PHE C 845       1.886   0.440   9.733  1.00 51.55 LIG 0.24  C 
ATOM     23 O    PHE C 845       2.697  -0.365  10.207  1.00 49.31 LIG-0.27  OA
ATOM     24  N   SER C 846       1.004   0.124   8.766  1.00 48.84 LIG-0.34  N 
ATOM     25 H    SER C 846       0.423   0.685   8.469  1.00 48.84 LIG 0.16  HD
BRANCH 24 26
ATOM     26  CA  SER C 846       0.925  -1.183   8.114  1.00 80.27 LIG 0.19  C 
BRANCH 26 27
ATOM     27  CB  SER C 846       0.141  -1.079   6.809  1.00 83.79 LIG 0.20  C 
BRANCH 27 28
ATOM     28 OG   SER C 846       0.236   0.221   6.249  1.00 92.96 LIG-0.40  OA
ATOM     29 HG   SER C 846       0.180   0.794   6.861  1.00 92.96 LIG 0.21  HD
ENDBRANCH 27 28
ENDBRANCH 26 27
BRANCH 26 30
ATOM     30  C   SER C 846       2.316  -1.739   7.848  1.00107.57 LIG 0.22  C 
ATOM     31 O    SER C 846       2.502  -2.953   7.858  1.00 73.66 LIG-0.29  OA
ENDBRANCH 26 30
ENDBRANCH 24 26
ENDBRANCH 14 22
ENDBRANCH 11 14
ENDBRANCH 6 10
ENDBRANCH 3 6
ENDBRANCH 1 2
BRANCH 1 32
ATOM     32  CB  ARG C 843       1.504   8.897   6.722  1.00 50.74 LIG 0.04  C 
BRANCH 32 33
ATOM     33  CG  ARG C 843       0.406   8.221   5.886  1.00 63.97 LIG 0.02  C 
BRANCH 33 34
ATOM     34  CD  ARG C 843      -0.966   8.276   6.517  1.00 82.46 LIG 0.14  C 
BRANCH 34 35
ATOM     35  NE  ARG C 843      -1.684   7.023   6.299  1.00 98.18 LIG-0.23  N 
ATOM     36 HE   ARG C 843      -1.231   6.345   6.026  1.00 98.18 LIG 0.18  HD
ATOM     37  CZ  ARG C 843      -2.988   6.859   6.493  1.00115.63 LIG 0.67  C 
ATOM     38  NH2 ARG C 843      -3.549   5.677   6.295  1.00101.74 LIG-0.23  N 
ATOM     39  NH1 ARG C 843      -3.743   7.881   6.878  1.00105.44 LIG-0.23  N 
ATOM     40 1HH2 ARG C 843      -3.070   5.010   6.040  1.00101.74 LIG 0.17  HD
ATOM     41 2HH2 ARG C 843      -4.394   5.575   6.422  1.00101.74 LIG 0.17  HD
ATOM     42 1HH1 ARG C 843      -3.389   8.655   7.004  1.00105.44 LIG 0.17  HD
ATOM     43 2HH1 ARG C 843      -4.587   7.770   7.003  1.00105.44 LIG 0.17  HD
ENDBRANCH 34 35
ENDBRANCH 33 34
ENDBRANCH 32 33
ENDBRANCH 1 32
BRANCH 1 44
ATOM     44  N   ARG C 843       2.903   8.813   8.793  1.00 47.52 LIG-0.35  N 
ATOM     45  C   LYS C 842       3.088   8.750  10.119  1.00 51.06 LIG 0.24  C 
ATOM     46 O    LYS C 842       2.267   8.250  10.892  1.00 51.08 LIG-0.27  OA
ATOM     47 H    ARG C 843       3.474   9.153   8.248  1.00 47.52 LIG 0.16  HD
BRANCH 45 48
ATOM     48  CA  LYS C 842       4.378   9.336  10.670  1.00 46.69 LIG 0.18  C 
BRANCH 48 49
ATOM     49  CB  LYS C 842       5.425   9.461   9.548  1.00 47.71 LIG 0.04  C 
BRANCH 49 50
ATOM     50  CG  LYS C 842       6.060  10.836   9.428  1.00 50.03 LIG 0.00  C 
BRANCH 50 51
ATOM     51  CD  LYS C 842       6.563  11.309  10.782  1.00 53.65 LIG 0.03  C 
BRANCH 51 52
ATOM     52  CE  LYS C 842       6.847  12.789  10.764  1.00 52.95 LIG 0.23  C 
BRANCH 52 53
ATOM     53  NZ  LYS C 842       8.009  13.149  11.610  1.00 44.67 LIG-0.08  N 
ATOM     54 HZ3  LYS C 842       7.897  13.970  11.933  1.00 44.67 LIG 0.27  HD
ATOM     55 HZ2  LYS C 842       8.752  13.122  11.121  1.00 44.67 LIG 0.27  HD
ATOM     56 HZ1  LYS C 842       8.075  12.571  12.284  1.00 44.67 LIG 0.27  HD
ENDBRANCH 52 53
ENDBRANCH 51 52
ENDBRANCH 50 51
ENDBRANCH 49 50
ENDBRANCH 48 49
BRANCH 48 57
ATOM     57  N   LYS C 842       4.862   8.508  11.773  1.00 47.24 LIG-0.35  N 
ATOM     58 H    LYS C 842       4.958   7.682  11.556  1.00 47.24 LIG 0.16  HD
ATOM     59  C   GLN C 841       5.135   8.964  13.005  1.00 52.93 LIG 0.26  C 
ATOM     60 O    GLN C 841       5.051  10.154  13.322  1.00 51.68 LIG-0.27  OA
BRANCH 59 61
ATOM     61  CA  GLN C 841       5.628   7.927  14.019  1.00 52.44 LIG 0.40  C 
ATOM     62  N   GLN C 841       6.314   6.837  13.325  1.00 53.67 LIG 0.61  N 
BRANCH 61 63
ATOM     63  CB  GLN C 841       6.554   8.579  15.071  1.00 53.85 LIG 0.06  C 
BRANCH 63 64
ATOM     64  CG  GLN C 841       8.042   8.214  14.945  1.00 74.06 LIG 0.10  C 
BRANCH 64 65
ATOM     65  CD  GLN C 841       8.947   9.357  14.521  1.00 99.82 LIG 0.21  C 
ATOM     66 OE1  GLN C 841       9.838   9.802  15.260  1.00 97.42 LIG-0.27  OA
ATOM     67  NE2 GLN C 841       8.768   9.825  13.295  1.00 91.89 LIG-0.37  N 
ATOM     68 22HE GLN C 841       9.275  10.451  12.995  1.00 91.89 LIG 0.16  HD
ATOM     69 21HE GLN C 841       8.144   9.503  12.798  1.00 91.89 LIG 0.16  HD
ENDBRANCH 64 65
ENDBRANCH 63 64
ENDBRANCH 61 63
ENDBRANCH 59 61
ENDBRANCH 48 57
ENDBRANCH 45 48
ENDBRANCH 1 44
TORSDOF 29
ENDMDL
MODEL 12
USER: ADFR SOLUTION from run 99
USER: SCORE 18.269948 LL:  -3.609 LR: -18.639 RR:   0.000 FEB:  -9.988
USER: RMSD 7.495020
USER: SEED 98
USER: STATUS no improvement in best in 2 clusters for 5 generations
USER: GENES 31
USER: genes 0 Translation |==|  0.55345 0.41559 0.54607
USER: genes 1 Rotation |==|  0.37595 0.85146 0.20966 0.66369
USER: genes 2 Torsion [N]-CA--C-[N] |==|  0.43144
USER: genes 3 Torsion [C]-N--CA-[CB] |==|  0.88241
USER: genes 4 Torsion [N]-CA--CB-[OG] |==|  0.72880
USER: genes 5 Torsion [CA]-CB--OG-[HG] |==|  0.07830
USER: genes 6 Torsion [N]-CA--C-[N] |==|  0.54708
USER: genes 7 Torsion [C]-N--CA-[CB] |==|  0.34231
USER: genes 8 Torsion [N]-CA--CB-[CG] |==|  0.44767
USER: genes 9 Torsion [CA]-CB--CG-[CD2] |==|  0.20066
USER: genes 10 Torsion [N]-CA--C-[N] |==|  0.45884
USER: genes 11 Torsion [C]-N--CA-[CB] |==|  0.47407
USER: genes 12 Torsion [N]-CA--CB-[OG] |==|  0.18035
USER: genes 13 Torsion [CA]-CB--OG-[HG] |==|  0.62131
USER: genes 14 Torsion [N]-CA--C-[O] |==|  0.00155
USER: genes 15 Torsion [C]-CA--CB-[CG] |==|  0.11677
USER: genes 16 Torsion [CA]-CB--CG-[CD] |==|  0.62052
USER: genes 17 Torsion [CB]-CG--CD-[NE] |==|  0.58948
USER: genes 18 Torsion [CG]-CD--NE-[CZ] |==|  0.16707
USER: genes 19 Torsion [C]-CA--N-[C] |==|  0.59479
USER: genes 20 Torsion [N]-C--CA-[N] |==|  0.84444
USER: genes 21 Torsion [C]-CA--CB-[CG] |==|  0.21763
USER: genes 22 Torsion [CA]-CB--CG-[CD] |==|  0.07666
USER: genes 23 Torsion [CB]-CG--CD-[CE] |==|  0.59941
USER: genes 24 Torsion [CG]-CD--CE-[NZ] |==|  0.29520
USER: genes 25 Torsion [CD]-CE--NZ-[HZ2] |==|  0.95225
USER: genes 26 Torsion [C]-CA--N-[C] |==|  0.66265
USER: genes 27 Torsion [N]-C--CA-[N] |==|  0.13279
USER: genes 28 Torsion [C]-CA--CB-[CG] |==|  0.76615
USER: genes 29 Torsion [CA]-CB--CG-[CD] |==|  0.59724
USER: genes 30 Torsion [CB]-CG--CD-[OE1] |==|  0.11365
ROOT
ATOM      1  CA  ARG C 843       1.472   2.589  10.424  1.00 48.28 LIG 0.18  C 
ENDROOT
BRANCH 1 2
ATOM      2  C   ARG C 843       2.265   1.935  11.550  1.00 51.26 LIG 0.24  C 
ATOM      3  N   SER C 844       1.595   1.078  12.339  1.00 48.21 LIG-0.34  N 
ATOM      4 H    SER C 844       0.757   0.909  12.248  1.00 48.21 LIG 0.16  HD
ATOM      5 O    ARG C 843       3.459   2.210  11.708  1.00 49.46 LIG-0.27  OA
BRANCH 3 6
ATOM      6  CA  SER C 844       2.231   0.345  13.439  1.00 48.58 LIG 0.20  C 
BRANCH 6 7
ATOM      7  CB  SER C 844       3.601  -0.186  13.016  1.00 52.82 LIG 0.20  C 
BRANCH 7 8
ATOM      8 OG   SER C 844       3.557  -1.546  12.610  1.00 64.87 LIG-0.40  OA
ATOM      9 HG   SER C 844       2.795  -1.722  12.304  1.00 64.87 LIG 0.21  HD
ENDBRANCH 7 8
ENDBRANCH 6 7
BRANCH 6 10
ATOM     10  C   SER C 844       2.364   1.238  14.676  1.00 51.88 LIG 0.24  C 
ATOM     11  N   PHE C 845       3.225   0.835  15.628  1.00 48.65 LIG-0.35  N 
ATOM     12 H    PHE C 845       3.659   0.094  15.585  1.00 48.65 LIG 0.16  HD
ATOM     13 O    SER C 844       1.687   2.266  14.768  1.00 50.80 LIG-0.27  OA
BRANCH 11 14
ATOM     14  CA  PHE C 845       3.510   1.615  16.834  1.00 48.60 LIG 0.18  C 
BRANCH 14 15
ATOM     15  CB  PHE C 845       3.227   0.801  18.121  1.00 50.69 LIG 0.07  C 
BRANCH 15 16
ATOM     16  CG  PHE C 845       3.852   1.251  19.433  1.00 53.32 LIG-0.06  A 
ATOM     17  CD2 PHE C 845       3.393   2.390  20.084  1.00 56.28 LIG 0.01  A 
ATOM     18  CE2 PHE C 845       3.962   2.810  21.294  1.00 59.52 LIG 0.00  A 
ATOM     19  CZ  PHE C 845       5.017   2.118  21.835  1.00 57.95 LIG 0.00  A 
ATOM     20  CE1 PHE C 845       5.499   0.992  21.198  1.00 59.50 LIG 0.00  A 
ATOM     21  CD1 PHE C 845       4.928   0.569  19.990  1.00 58.05 LIG 0.01  A 
ENDBRANCH 15 16
ENDBRANCH 14 15
BRANCH 14 22
ATOM     22  C   PHE C 845       4.966   2.085  16.735  1.00 51.55 LIG 0.24  C 
ATOM     23 O    PHE C 845       5.725   1.620  15.875  1.00 49.31 LIG-0.27  OA
ATOM     24  N   SER C 846       5.321   3.064  17.587  1.00 48.84 LIG-0.34  N 
ATOM     25 H    SER C 846       4.773   3.401  18.158  1.00 48.84 LIG 0.16  HD
BRANCH 24 26
ATOM     26  CA  SER C 846       6.654   3.666  17.648  1.00 80.27 LIG 0.19  C 
BRANCH 26 27
ATOM     27  CB  SER C 846       6.643   4.891  18.558  1.00 83.79 LIG 0.20  C 
BRANCH 27 28
ATOM     28 OG   SER C 846       6.364   4.535  19.903  1.00 92.96 LIG-0.40  OA
ATOM     29 HG   SER C 846       5.814   5.080  20.229  1.00 92.96 LIG 0.21  HD
ENDBRANCH 27 28
ENDBRANCH 26 27
BRANCH 26 30
ATOM     30  C   SER C 846       7.680   2.655  18.140  1.00107.57 LIG 0.22  C 
ATOM     31 O    SER C 846       7.328   1.509  18.411  1.00 73.66 LIG-0.29  OA
ENDBRANCH 26 30
ENDBRANCH 24 26
ENDBRANCH 14 22
ENDBRANCH 11 14
ENDBRANCH 6 10
ENDBRANCH 3 6
ENDBRANCH 1 2
BRANCH 1 32
ATOM     32  CB  ARG C 843       1.356   1.618   9.214  1.00 50.74 LIG 0.04  C 
BRANCH 32 33
ATOM     33  CG  ARG C 843       1.063   0.160   9.596  1.00 63.97 LIG 0.02  C 
BRANCH 33 34
ATOM     34  CD  ARG C 843       1.882  -0.852   8.829  1.00 82.46 LIG 0.14  C 
BRANCH 34 35
ATOM     35  NE  ARG C 843       1.124  -2.084   8.631  1.00 98.18 LIG-0.23  N 
ATOM     36 HE   ARG C 843       1.448  -2.810   8.958  1.00 98.18 LIG 0.18  HD
ATOM     37  CZ  ARG C 843      -0.032  -2.160   7.980  1.00115.63 LIG 0.67  C 
ATOM     38  NH2 ARG C 843      -0.664  -3.319   7.873  1.00101.74 LIG-0.23  N 
ATOM     39  NH1 ARG C 843      -0.561  -1.077   7.421  1.00105.44 LIG-0.23  N 
ATOM     40 1HH2 ARG C 843      -0.326  -4.027   8.226  1.00101.74 LIG 0.17  HD
ATOM     41 2HH2 ARG C 843      -1.411  -3.363   7.451  1.00101.74 LIG 0.17  HD
ATOM     42 1HH1 ARG C 843      -0.155  -0.322   7.479  1.00105.44 LIG 0.17  HD
ATOM     43 2HH1 ARG C 843      -1.309  -1.132   7.001  1.00105.44 LIG 0.17  HD
ENDBRANCH 34 35
ENDBRANCH 33 34
ENDBRANCH 32 33
ENDBRANCH 1 32
BRANCH 1 44
ATOM     44  N   ARG C 843       2.083   3.867  10.032  1.00 47.52 LIG-0.35  N 
ATOM     45  C   LYS C 842       1.354   4.915   9.624  1.00 51.06 LIG 0.24  C 
ATOM     46 O    LYS C 842       0.122   4.893   9.555  1.00 51.08 LIG-0.27  OA
ATOM     47 H    ARG C 843       2.941   3.878  10.090  1.00 47.52 LIG 0.16  HD
BRANCH 45 48
ATOM     48  CA  LYS C 842       2.106   6.174   9.228  1.00 46.69 LIG 0.18  C 
BRANCH 48 49
ATOM     49  CB  LYS C 842       2.923   5.923   7.947  1.00 47.71 LIG 0.04  C 
BRANCH 49 50
ATOM     50  CG  LYS C 842       2.111   5.951   6.664  1.00 50.03 LIG 0.00  C 
BRANCH 50 51
ATOM     51  CD  LYS C 842       0.892   6.845   6.826  1.00 53.65 LIG 0.03  C 
BRANCH 51 52
ATOM     52  CE  LYS C 842      -0.288   6.290   6.073  1.00 52.95 LIG 0.23  C 
BRANCH 52 53
ATOM     53  NZ  LYS C 842      -1.303   5.697   6.974  1.00 44.67 LIG-0.08  N 
ATOM     54 HZ3  LYS C 842      -1.987   6.259   7.063  1.00 44.67 LIG 0.27  HD
ATOM     55 HZ2  LYS C 842      -0.939   5.545   7.772  1.00 44.67 LIG 0.27  HD
ATOM     56 HZ1  LYS C 842      -1.593   4.928   6.629  1.00 44.67 LIG 0.27  HD
ENDBRANCH 52 53
ENDBRANCH 51 52
ENDBRANCH 50 51
ENDBRANCH 49 50
ENDBRANCH 48 49
BRANCH 48 57
ATOM     57  N   LYS C 842       2.954   6.609  10.336  1.00 47.24 LIG-0.35  N 
ATOM     58 H    LYS C 842       3.523   6.012  10.577  1.00 47.24 LIG 0.16  HD
ATOM     59  C   GLN C 841       2.874   7.808  10.933  1.00 52.93 LIG 0.26  C 
ATOM     60 O    GLN C 841       2.097   8.696  10.569  1.00 51.68 LIG-0.27  OA
BRANCH 59 61
ATOM     61  CA  GLN C 841       3.855   8.062  12.081  1.00 52.44 LIG 0.40  C 
ATOM     62  N   GLN C 841       5.207   7.675  11.678  1.00 53.67 LIG 0.61  N 
BRANCH 61 63
ATOM     63  CB  GLN C 841       3.815   9.542  12.525  1.00 53.85 LIG 0.06  C 
BRANCH 63 64
ATOM     64  CG  GLN C 841       4.694  10.494  11.698  1.00 74.06 LIG 0.10  C 
BRANCH 64 65
ATOM     65  CD  GLN C 841       5.330  11.625  12.488  1.00 99.82 LIG 0.21  C 
ATOM     66 OE1  GLN C 841       5.808  11.452  13.618  1.00 97.42 LIG-0.27  OA
ATOM     67  NE2 GLN C 841       5.391  12.802  11.882  1.00 91.89 LIG-0.37  N 
ATOM     68 22HE GLN C 841       5.770  13.467  12.274  1.00 91.89 LIG 0.16  HD
ATOM     69 21HE GLN C 841       5.053  12.900  11.098  1.00 91.89 LIG 0.16  HD
ENDBRANCH 64 65
ENDBRANCH 63 64
ENDBRANCH 61 63
ENDBRANCH 59 61
ENDBRANCH 48 57
ENDBRANCH 45 48
ENDBRANCH 1 44
TORSDOF 29
ENDMDL
MODEL 13
USER: ADFR SOLUTION from run 119
USER: SCORE 20.094635 LL:  -4.144 LR: -18.520 RR:   0.000 FEB:  -9.870
USER: RMSD 8.475164
USER: SEED 118
USER: STATUS searching
USER: GENES 31
USER: genes 0 Translation |==|  0.54585 0.56344 0.47527
USER: genes 1 Rotation |==|  0.46622 0.90099 0.25757 0.67115
USER: genes 2 Torsion [N]-CA--C-[N] |==|  0.53325
USER: genes 3 Torsion [C]-N--CA-[CB] |==|  0.24959
USER: genes 4 Torsion [N]-CA--CB-[OG] |==|  0.06970
USER: genes 5 Torsion [CA]-CB--OG-[HG] |==|  0.23729
USER: genes 6 Torsion [N]-CA--C-[N] |==|  0.55542
USER: genes 7 Torsion [C]-N--CA-[CB] |==|  0.85144
USER: genes 8 Torsion [N]-CA--CB-[CG] |==|  0.30413
USER: genes 9 Torsion [CA]-CB--CG-[CD2] |==|  0.19214
USER: genes 10 Torsion [N]-CA--C-[N] |==|  0.37358
USER: genes 11 Torsion [C]-N--CA-[CB] |==|  0.82773
USER: genes 12 Torsion [N]-CA--CB-[OG] |==|  0.40859
USER: genes 13 Torsion [CA]-CB--OG-[HG] |==|  0.37926
USER: genes 14 Torsion [N]-CA--C-[O] |==|  0.12816
USER: genes 15 Torsion [C]-CA--CB-[CG] |==|  0.25737
USER: genes 16 Torsion [CA]-CB--CG-[CD] |==|  0.22469
USER: genes 17 Torsion [CB]-CG--CD-[NE] |==|  0.46288
USER: genes 18 Torsion [CG]-CD--NE-[CZ] |==|  0.37349
USER: genes 19 Torsion [C]-CA--N-[C] |==|  0.80000
USER: genes 20 Torsion [N]-C--CA-[N] |==|  0.60392
USER: genes 21 Torsion [C]-CA--CB-[CG] |==|  0.52355
USER: genes 22 Torsion [CA]-CB--CG-[CD] |==|  0.79980
USER: genes 23 Torsion [CB]-CG--CD-[CE] |==|  0.50718
USER: genes 24 Torsion [CG]-CD--CE-[NZ] |==|  0.63293
USER: genes 25 Torsion [CD]-CE--NZ-[HZ2] |==|  0.47885
USER: genes 26 Torsion [C]-CA--N-[C] |==|  0.17847
USER: genes 27 Torsion [N]-C--CA-[N] |==|  0.56499
USER: genes 28 Torsion [C]-CA--CB-[CG] |==|  0.80286
USER: genes 29 Torsion [CA]-CB--CG-[CD] |==|  0.37691
USER: genes 30 Torsion [CB]-CG--CD-[OE1] |==|  0.91060
ROOT
ATOM      1  CA  ARG C 843       1.289   6.027   8.618  1.00 48.28 LIG 0.18  C 
ENDROOT
BRANCH 1 2
ATOM      2  C   ARG C 843       1.753   4.848   9.468  1.00 51.26 LIG 0.24  C 
ATOM      3  N   SER C 844       1.168   3.663   9.223  1.00 48.21 LIG-0.34  N 
ATOM      4 H    SER C 844       0.547   3.555   8.639  1.00 48.21 LIG 0.16  HD
ATOM      5 O    ARG C 843       2.615   5.013  10.337  1.00 49.46 LIG-0.27  OA
BRANCH 3 6
ATOM      6  CA  SER C 844       1.535   2.433   9.932  1.00 48.58 LIG 0.20  C 
BRANCH 6 7
ATOM      7  CB  SER C 844       0.687   2.260  11.193  1.00 52.82 LIG 0.20  C 
BRANCH 7 8
ATOM      8 OG   SER C 844      -0.562   2.931  11.106  1.00 64.87 LIG-0.40  OA
ATOM      9 HG   SER C 844      -1.120   2.435  10.722  1.00 64.87 LIG 0.21  HD
ENDBRANCH 7 8
ENDBRANCH 6 7
BRANCH 6 10
ATOM     10  C   SER C 844       1.380   1.216   9.015  1.00 51.88 LIG 0.24  C 
ATOM     11  N   PHE C 845       1.275   0.014   9.611  1.00 48.65 LIG-0.35  N 
ATOM     12 H    PHE C 845       1.331  -0.095  10.462  1.00 48.65 LIG 0.16  HD
ATOM     13 O    SER C 844       1.370   1.367   7.790  1.00 50.80 LIG-0.27  OA
BRANCH 11 14
ATOM     14  CA  PHE C 845       1.055  -1.231   8.873  1.00 48.60 LIG 0.18  C 
BRANCH 14 15
ATOM     15  CB  PHE C 845      -0.179  -1.133   7.942  1.00 50.69 LIG 0.07  C 
BRANCH 15 16
ATOM     16  CG  PHE C 845       0.032  -1.084   6.436  1.00 53.32 LIG-0.06  A 
ATOM     17  CD2 PHE C 845       0.495  -2.198   5.747  1.00 56.28 LIG 0.01  A 
ATOM     18  CE2 PHE C 845       0.692  -2.161   4.360  1.00 59.52 LIG 0.00  A 
ATOM     19  CZ  PHE C 845       0.463  -1.000   3.664  1.00 57.95 LIG 0.00  A 
ATOM     20  CE1 PHE C 845       0.016   0.124   4.330  1.00 59.50 LIG 0.00  A 
ATOM     21  CD1 PHE C 845      -0.183   0.087   5.717  1.00 58.05 LIG 0.01  A 
ENDBRANCH 15 16
ENDBRANCH 14 15
BRANCH 14 22
ATOM     22  C   PHE C 845       2.350  -1.543   8.114  1.00 51.55 LIG 0.24  C 
ATOM     23 O    PHE C 845       2.976  -0.647   7.534  1.00 49.31 LIG-0.27  OA
ATOM     24  N   SER C 846       2.774  -2.819   8.186  1.00 48.84 LIG-0.34  N 
ATOM     25 H    SER C 846       2.345  -3.424   8.621  1.00 48.84 LIG 0.16  HD
BRANCH 24 26
ATOM     26  CA  SER C 846       3.991  -3.323   7.549  1.00 80.27 LIG 0.19  C 
BRANCH 26 27
ATOM     27  CB  SER C 846       3.899  -3.173   6.034  1.00 83.79 LIG 0.20  C 
BRANCH 27 28
ATOM     28 OG   SER C 846       5.172  -2.918   5.461  1.00 92.96 LIG-0.40  OA
ATOM     29 HG   SER C 846       5.265  -3.383   4.767  1.00 92.96 LIG 0.21  HD
ENDBRANCH 27 28
ENDBRANCH 26 27
BRANCH 26 30
ATOM     30  C   SER C 846       5.218  -2.593   8.077  1.00107.57 LIG 0.22  C 
ATOM     31 O    SER C 846       5.354  -2.419   9.285  1.00 73.66 LIG-0.29  OA
ENDBRANCH 26 30
ENDBRANCH 24 26
ENDBRANCH 14 22
ENDBRANCH 11 14
ENDBRANCH 6 10
ENDBRANCH 3 6
ENDBRANCH 1 2
BRANCH 1 32
ATOM     32  CB  ARG C 843       1.178   5.603   7.126  1.00 50.74 LIG 0.04  C 
BRANCH 32 33
ATOM     33  CG  ARG C 843      -0.217   5.115   6.707  1.00 63.97 LIG 0.02  C 
BRANCH 33 34
ATOM     34  CD  ARG C 843      -1.192   6.230   6.407  1.00 82.46 LIG 0.14  C 
BRANCH 34 35
ATOM     35  NE  ARG C 843      -2.373   5.711   5.723  1.00 98.18 LIG-0.23  N 
ATOM     36 HE   ARG C 843      -2.250   5.159   5.075  1.00 98.18 LIG 0.18  HD
ATOM     37  CZ  ARG C 843      -3.624   6.034   6.033  1.00115.63 LIG 0.67  C 
ATOM     38  NH2 ARG C 843      -4.637   5.491   5.374  1.00101.74 LIG-0.23  N 
ATOM     39  NH1 ARG C 843      -3.872   6.911   6.999  1.00105.44 LIG-0.23  N 
ATOM     40 1HH2 ARG C 843      -4.486   4.927   4.743  1.00101.74 LIG 0.17  HD
ATOM     41 2HH2 ARG C 843      -5.445   5.703   5.579  1.00101.74 LIG 0.17  HD
ATOM     42 1HH1 ARG C 843      -3.222   7.274   7.428  1.00105.44 LIG 0.17  HD
ATOM     43 2HH1 ARG C 843      -4.684   7.116   7.196  1.00105.44 LIG 0.17  HD
ENDBRANCH 34 35
ENDBRANCH 33 34
ENDBRANCH 32 33
ENDBRANCH 1 32
BRANCH 1 44
ATOM     44  N   ARG C 843       2.192   7.174   8.786  1.00 47.52 LIG-0.35  N 
ATOM     45  C   LYS C 842       2.224   7.901   9.912  1.00 51.06 LIG 0.24  C 
ATOM     46 O    LYS C 842       1.512   7.661  10.891  1.00 51.08 LIG-0.27  OA
ATOM     47 H    ARG C 843       2.690   7.332   8.103  1.00 47.52 LIG 0.16  HD
BRANCH 45 48
ATOM     48  CA  LYS C 842       3.188   9.075   9.955  1.00 46.69 LIG 0.18  C 
BRANCH 48 49
ATOM     49  CB  LYS C 842       4.273   8.911   8.874  1.00 47.71 LIG 0.04  C 
BRANCH 49 50
ATOM     50  CG  LYS C 842       5.404   9.921   8.957  1.00 50.03 LIG 0.00  C 
BRANCH 50 51
ATOM     51  CD  LYS C 842       4.924  11.295   8.519  1.00 53.65 LIG 0.03  C 
BRANCH 51 52
ATOM     52  CE  LYS C 842       6.053  12.292   8.537  1.00 52.95 LIG 0.23  C 
BRANCH 52 53
ATOM     53  NZ  LYS C 842       5.680  13.552   9.221  1.00 44.67 LIG-0.08  N 
ATOM     54 HZ3  LYS C 842       5.067  13.981   8.740  1.00 44.67 LIG 0.27  HD
ATOM     55 HZ2  LYS C 842       6.401  14.068   9.307  1.00 44.67 LIG 0.27  HD
ATOM     56 HZ1  LYS C 842       5.350  13.366  10.026  1.00 44.67 LIG 0.27  HD
ENDBRANCH 52 53
ENDBRANCH 51 52
ENDBRANCH 50 51
ENDBRANCH 49 50
ENDBRANCH 48 49
BRANCH 48 57
ATOM     57  N   LYS C 842       3.768   9.187  11.292  1.00 47.24 LIG-0.35  N 
ATOM     58 H    LYS C 842       3.551   9.916  11.692  1.00 47.24 LIG 0.16  HD
ATOM     59  C   GLN C 841       4.559   8.263  11.859  1.00 52.93 LIG 0.26  C 
ATOM     60 O    GLN C 841       4.842   7.189  11.320  1.00 51.68 LIG-0.27  OA
BRANCH 59 61
ATOM     61  CA  GLN C 841       5.066   8.577  13.270  1.00 52.44 LIG 0.40  C 
ATOM     62  N   GLN C 841       6.294   7.828  13.537  1.00 53.67 LIG 0.61  N 
BRANCH 61 63
ATOM     63  CB  GLN C 841       5.295  10.095  13.450  1.00 53.85 LIG 0.06  C 
BRANCH 63 64
ATOM     64  CG  GLN C 841       6.498  10.667  12.684  1.00 74.06 LIG 0.10  C 
BRANCH 64 65
ATOM     65  CD  GLN C 841       6.234  11.978  11.964  1.00 99.82 LIG 0.21  C 
ATOM     66 OE1  GLN C 841       5.124  12.256  11.488  1.00 97.42 LIG-0.27  OA
ATOM     67  NE2 GLN C 841       7.243  12.835  11.913  1.00 91.89 LIG-0.37  N 
ATOM     68 22HE GLN C 841       7.136  13.604  11.544  1.00 91.89 LIG 0.16  HD
ATOM     69 21HE GLN C 841       8.006  12.622  12.249  1.00 91.89 LIG 0.16  HD
ENDBRANCH 64 65
ENDBRANCH 63 64
ENDBRANCH 61 63
ENDBRANCH 59 61
ENDBRANCH 48 57
ENDBRANCH 45 48
ENDBRANCH 1 44
TORSDOF 29
ENDMDL
MODEL 14
USER: ADFR SOLUTION from run 47
USER: SCORE 20.524340 LL:  -3.459 LR: -18.524 RR:   0.000 FEB:  -9.874
USER: RMSD 9.366792
USER: SEED 46
USER: STATUS no improvement in best in 5 clusters for 5 generations
USER: GENES 31
USER: genes 0 Translation |==|  0.61992 0.66391 0.61297
USER: genes 1 Rotation |==|  0.66563 0.93698 0.64772 0.59897
USER: genes 2 Torsion [N]-CA--C-[N] |==|  0.16467
USER: genes 3 Torsion [C]-N--CA-[CB] |==|  0.15948
USER: genes 4 Torsion [N]-CA--CB-[OG] |==|  0.52808
USER: genes 5 Torsion [CA]-CB--OG-[HG] |==|  0.71514
USER: genes 6 Torsion [N]-CA--C-[N] |==|  0.16939
USER: genes 7 Torsion [C]-N--CA-[CB] |==|  0.86510
USER: genes 8 Torsion [N]-CA--CB-[CG] |==|  0.41934
USER: genes 9 Torsion [CA]-CB--CG-[CD2] |==|  0.80214
USER: genes 10 Torsion [N]-CA--C-[N] |==|  0.39242
USER: genes 11 Torsion [C]-N--CA-[CB] |==|  0.86409
USER: genes 12 Torsion [N]-CA--CB-[OG] |==|  0.74370
USER: genes 13 Torsion [CA]-CB--OG-[HG] |==|  0.02178
USER: genes 14 Torsion [N]-CA--C-[O] |==|  0.09976
USER: genes 15 Torsion [C]-CA--CB-[CG] |==|  0.74587
USER: genes 16 Torsion [CA]-CB--CG-[CD] |==|  0.59006
USER: genes 17 Torsion [CB]-CG--CD-[NE] |==|  0.63384
USER: genes 18 Torsion [CG]-CD--NE-[CZ] |==|  0.79473
USER: genes 19 Torsion [C]-CA--N-[C] |==|  0.11984
USER: genes 20 Torsion [N]-C--CA-[N] |==|  0.52222
USER: genes 21 Torsion [C]-CA--CB-[CG] |==|  0.52599
USER: genes 22 Torsion [CA]-CB--CG-[CD] |==|  0.67931
USER: genes 23 Torsion [CB]-CG--CD-[CE] |==|  0.53730
USER: genes 24 Torsion [CG]-CD--CE-[NZ] |==|  0.39930
USER: genes 25 Torsion [CD]-CE--NZ-[HZ2] |==|  0.43317
USER: genes 26 Torsion [C]-CA--N-[C] |==|  0.80316
USER: genes 27 Torsion [N]-C--CA-[N] |==|  0.43529
USER: genes 28 Torsion [C]-CA--CB-[CG] |==|  0.20529
USER: genes 29 Torsion [CA]-CB--CG-[CD] |==|  0.11192
USER: genes 30 Torsion [CB]-CG--CD-[OE1] |==|  0.76989
ROOT
ATOM      1  CA  ARG C 843       3.067   8.363  12.130  1.00 48.28 LIG 0.18  C 
ENDROOT
BRANCH 1 2
ATOM      2  C   ARG C 843       3.163   7.807  10.713  1.00 51.26 LIG 0.24  C 
ATOM      3  N   SER C 844       3.005   6.479  10.575  1.00 48.21 LIG-0.34  N 
ATOM      4 H    SER C 844       2.877   5.948  11.239  1.00 48.21 LIG 0.16  HD
ATOM      5 O    ARG C 843       3.389   8.565   9.764  1.00 49.46 LIG-0.27  OA
BRANCH 3 6
ATOM      6  CA  SER C 844       3.034   5.805   9.274  1.00 48.58 LIG 0.20  C 
BRANCH 6 7
ATOM      7  CB  SER C 844       4.353   6.079   8.550  1.00 52.82 LIG 0.20  C 
BRANCH 7 8
ATOM      8 OG   SER C 844       4.335   5.639   7.200  1.00 64.87 LIG-0.40  OA
ATOM      9 HG   SER C 844       4.758   4.917   7.135  1.00 64.87 LIG 0.21  HD
ENDBRANCH 7 8
ENDBRANCH 6 7
BRANCH 6 10
ATOM     10  C   SER C 844       2.822   4.298   9.443  1.00 51.88 LIG 0.24  C 
ATOM     11  N   PHE C 845       1.659   3.904   9.993  1.00 48.65 LIG-0.35  N 
ATOM     12 H    PHE C 845       1.066   4.456  10.282  1.00 48.65 LIG 0.16  HD
ATOM     13 O    SER C 844       3.705   3.509   9.091  1.00 50.80 LIG-0.27  OA
BRANCH 11 14
ATOM     14  CA  PHE C 845       1.284   2.498  10.157  1.00 48.60 LIG 0.18  C 
BRANCH 14 15
ATOM     15  CB  PHE C 845       1.497   1.693   8.851  1.00 50.69 LIG 0.07  C 
BRANCH 15 16
ATOM     16  CG  PHE C 845       1.817   0.209   8.941  1.00 53.32 LIG-0.06  A 
ATOM     17  CD2 PHE C 845       3.055  -0.224   9.399  1.00 56.28 LIG 0.01  A 
ATOM     18  CE2 PHE C 845       3.357  -1.591   9.486  1.00 59.52 LIG 0.00  A 
ATOM     19  CZ  PHE C 845       2.439  -2.525   9.078  1.00 57.95 LIG 0.00  A 
ATOM     20  CE1 PHE C 845       1.207  -2.118   8.605  1.00 59.50 LIG 0.00  A 
ATOM     21  CD1 PHE C 845       0.903  -0.752   8.521  1.00 58.05 LIG 0.01  A 
ENDBRANCH 15 16
ENDBRANCH 14 15
BRANCH 14 22
ATOM     22  C   PHE C 845       2.095   1.948  11.336  1.00 51.55 LIG 0.24  C 
ATOM     23 O    PHE C 845       3.254   2.327  11.539  1.00 49.31 LIG-0.27  OA
ATOM     24  N   SER C 846       1.439   1.096  12.147  1.00 48.84 LIG-0.34  N 
ATOM     25 H    SER C 846       0.621   0.866  12.011  1.00 48.84 LIG 0.16  HD
BRANCH 24 26
ATOM     26  CA  SER C 846       2.022   0.469  13.333  1.00 80.27 LIG 0.19  C 
BRANCH 26 27
ATOM     27  CB  SER C 846       3.378  -0.144  12.999  1.00 83.79 LIG 0.20  C 
BRANCH 27 28
ATOM     28 OG   SER C 846       3.253  -1.506  12.624  1.00 92.96 LIG-0.40  OA
ATOM     29 HG   SER C 846       2.439  -1.703  12.550  1.00 92.96 LIG 0.21  HD
ENDBRANCH 27 28
ENDBRANCH 26 27
BRANCH 26 30
ATOM     30  C   SER C 846       2.165   1.481  14.462  1.00107.57 LIG 0.22  C 
ATOM     31 O    SER C 846       1.314   2.354  14.613  1.00 73.66 LIG-0.29  OA
ENDBRANCH 26 30
ENDBRANCH 24 26
ENDBRANCH 14 22
ENDBRANCH 11 14
ENDBRANCH 6 10
ENDBRANCH 3 6
ENDBRANCH 1 2
BRANCH 1 32
ATOM     32  CB  ARG C 843       3.194   9.913  12.108  1.00 50.74 LIG 0.04  C 
BRANCH 32 33
ATOM     33  CG  ARG C 843       4.630  10.435  12.273  1.00 63.97 LIG 0.02  C 
BRANCH 33 34
ATOM     34  CD  ARG C 843       4.722  11.757  12.998  1.00 82.46 LIG 0.14  C 
BRANCH 34 35
ATOM     35  NE  ARG C 843       5.583  12.685  12.270  1.00 98.18 LIG-0.23  N 
ATOM     36 HE   ARG C 843       5.207  13.331  11.845  1.00 98.18 LIG 0.18  HD
ATOM     37  CZ  ARG C 843       6.908  12.599  12.219  1.00115.63 LIG 0.67  C 
ATOM     38  NH2 ARG C 843       7.612  13.503  11.556  1.00101.74 LIG-0.23  N 
ATOM     39  NH1 ARG C 843       7.540  11.600  12.826  1.00105.44 LIG-0.23  N 
ATOM     40 1HH2 ARG C 843       7.211  14.150  11.155  1.00101.74 LIG 0.17  HD
ATOM     41 2HH2 ARG C 843       8.469  13.443  11.526  1.00101.74 LIG 0.17  HD
ATOM     42 1HH1 ARG C 843       7.092  11.004  13.254  1.00105.44 LIG 0.17  HD
ATOM     43 2HH1 ARG C 843       8.398  11.549  12.790  1.00105.44 LIG 0.17  HD
ENDBRANCH 34 35
ENDBRANCH 33 34
ENDBRANCH 32 33
ENDBRANCH 1 32
BRANCH 1 44
ATOM     44  N   ARG C 843       4.083   7.752  12.998  1.00 47.52 LIG-0.35  N 
ATOM     45  C   LYS C 842       5.348   7.564  12.597  1.00 51.06 LIG 0.24  C 
ATOM     46 O    LYS C 842       5.759   7.896  11.482  1.00 51.08 LIG-0.27  OA
ATOM     47 H    ARG C 843       3.792   7.529  13.776  1.00 47.52 LIG 0.16  HD
BRANCH 45 48
ATOM     48  CA  LYS C 842       6.299   6.903  13.582  1.00 46.69 LIG 0.18  C 
BRANCH 48 49
ATOM     49  CB  LYS C 842       6.193   7.584  14.959  1.00 47.71 LIG 0.04  C 
BRANCH 49 50
ATOM     50  CG  LYS C 842       7.255   7.154  15.958  1.00 50.03 LIG 0.00  C 
BRANCH 50 51
ATOM     51  CD  LYS C 842       6.617   6.433  17.134  1.00 53.65 LIG 0.03  C 
BRANCH 51 52
ATOM     52  CE  LYS C 842       7.593   6.292  18.273  1.00 52.95 LIG 0.23  C 
BRANCH 52 53
ATOM     53  NZ  LYS C 842       6.939   6.427  19.595  1.00 44.67 LIG-0.08  N 
ATOM     54 HZ3  LYS C 842       6.870   7.289  19.805  1.00 44.67 LIG 0.27  HD
ATOM     55 HZ2  LYS C 842       7.426   6.010  20.212  1.00 44.67 LIG 0.27  HD
ATOM     56 HZ1  LYS C 842       6.127   6.063  19.563  1.00 44.67 LIG 0.27  HD
ENDBRANCH 52 53
ENDBRANCH 51 52
ENDBRANCH 50 51
ENDBRANCH 49 50
ENDBRANCH 48 49
BRANCH 48 57
ATOM     57  N   LYS C 842       7.662   6.953  13.056  1.00 47.24 LIG-0.35  N 
ATOM     58 H    LYS C 842       8.168   7.499  13.486  1.00 47.24 LIG 0.16  HD
ATOM     59  C   GLN C 841       8.104   6.232  12.015  1.00 52.93 LIG 0.26  C 
ATOM     60 O    GLN C 841       7.408   5.406  11.417  1.00 51.68 LIG-0.27  OA
BRANCH 59 61
ATOM     61  CA  GLN C 841       9.570   6.435  11.621  1.00 52.44 LIG 0.40  C 
ATOM     62  N   GLN C 841      10.061   5.262  10.898  1.00 53.67 LIG 0.61  N 
BRANCH 61 63
ATOM     63  CB  GLN C 841       9.743   7.716  10.775  1.00 53.85 LIG 0.06  C 
BRANCH 63 64
ATOM     64  CG  GLN C 841       9.637   9.034  11.559  1.00 74.06 LIG 0.10  C 
BRANCH 64 65
ATOM     65  CD  GLN C 841      10.308   9.024  12.921  1.00 99.82 LIG 0.21  C 
ATOM     66 OE1  GLN C 841       9.748   8.566  13.928  1.00 97.42 LIG-0.27  OA
ATOM     67  NE2 GLN C 841      11.548   9.488  12.969  1.00 91.89 LIG-0.37  N 
ATOM     68 22HE GLN C 841      11.983   9.476  13.710  1.00 91.89 LIG 0.16  HD
ATOM     69 21HE GLN C 841      11.918   9.802  12.259  1.00 91.89 LIG 0.16  HD
ENDBRANCH 64 65
ENDBRANCH 63 64
ENDBRANCH 61 63
ENDBRANCH 59 61
ENDBRANCH 48 57
ENDBRANCH 45 48
ENDBRANCH 1 44
TORSDOF 29
ENDMDL
MODEL 15
USER: ADFR SOLUTION from run 23
USER: SCORE 19.625065 LL:  -3.762 LR: -18.508 RR:   0.000 FEB:  -9.857
USER: RMSD 6.946841
USER: SEED 22
USER: STATUS no improvement in best in 8 clusters for 5 generations
USER: GENES 31
USER: genes 0 Translation |==|  0.64573 0.64376 0.56777
USER: genes 1 Rotation |==|  0.38355 0.13820 0.39688 0.80807
USER: genes 2 Torsion [N]-CA--C-[N] |==|  0.11829
USER: genes 3 Torsion [C]-N--CA-[CB] |==|  0.35708
USER: genes 4 Torsion [N]-CA--CB-[OG] |==|  0.61306
USER: genes 5 Torsion [CA]-CB--OG-[HG] |==|  0.03243
USER: genes 6 Torsion [N]-CA--C-[N] |==|  0.79124
USER: genes 7 Torsion [C]-N--CA-[CB] |==|  0.49640
USER: genes 8 Torsion [N]-CA--CB-[CG] |==|  0.51285
USER: genes 9 Torsion [CA]-CB--CG-[CD2] |==|  0.73411
USER: genes 10 Torsion [N]-CA--C-[N] |==|  0.37846
USER: genes 11 Torsion [C]-N--CA-[CB] |==|  0.82810
USER: genes 12 Torsion [N]-CA--CB-[OG] |==|  0.79887
USER: genes 13 Torsion [CA]-CB--OG-[HG] |==|  0.02892
USER: genes 14 Torsion [N]-CA--C-[O] |==|  0.50627
USER: genes 15 Torsion [C]-CA--CB-[CG] |==|  0.56840
USER: genes 16 Torsion [CA]-CB--CG-[CD] |==|  0.50462
USER: genes 17 Torsion [CB]-CG--CD-[NE] |==|  0.57987
USER: genes 18 Torsion [CG]-CD--NE-[CZ] |==|  0.78883
USER: genes 19 Torsion [C]-CA--N-[C] |==|  0.12923
USER: genes 20 Torsion [N]-C--CA-[N] |==|  0.35027
USER: genes 21 Torsion [C]-CA--CB-[CG] |==|  0.04445
USER: genes 22 Torsion [CA]-CB--CG-[CD] |==|  0.35811
USER: genes 23 Torsion [CB]-CG--CD-[CE] |==|  0.17873
USER: genes 24 Torsion [CG]-CD--CE-[NZ] |==|  0.23262
USER: genes 25 Torsion [CD]-CE--NZ-[HZ2] |==|  0.69138
USER: genes 26 Torsion [C]-CA--N-[C] |==|  0.84570
USER: genes 27 Torsion [N]-C--CA-[N] |==|  0.06169
USER: genes 28 Torsion [C]-CA--CB-[CG] |==|  0.34538
USER: genes 29 Torsion [CA]-CB--CG-[CD] |==|  0.74162
USER: genes 30 Torsion [CB]-CG--CD-[OE1] |==|  0.91728
ROOT
ATOM      1  CA  ARG C 843       3.687   7.894  10.977  1.00 48.28 LIG 0.18  C 
ENDROOT
BRANCH 1 2
ATOM      2  C   ARG C 843       2.290   7.423  10.585  1.00 51.26 LIG 0.24  C 
ATOM      3  N   SER C 844       2.217   6.511   9.600  1.00 48.21 LIG-0.34  N 
ATOM      4 H    SER C 844       2.906   6.211   9.183  1.00 48.21 LIG 0.16  HD
ATOM      5 O    ARG C 843       1.297   7.886  11.156  1.00 49.46 LIG-0.27  OA
BRANCH 3 6
ATOM      6  CA  SER C 844       0.949   5.937   9.140  1.00 48.58 LIG 0.20  C 
BRANCH 6 7
ATOM      7  CB  SER C 844       0.821   6.051   7.621  1.00 52.82 LIG 0.20  C 
BRANCH 7 8
ATOM      8 OG   SER C 844      -0.490   6.409   7.209  1.00 64.87 LIG-0.40  OA
ATOM      9 HG   SER C 844      -0.936   6.653   7.877  1.00 64.87 LIG 0.21  HD
ENDBRANCH 7 8
ENDBRANCH 6 7
BRANCH 6 10
ATOM     10  C   SER C 844       0.830   4.474   9.576  1.00 51.88 LIG 0.24  C 
ATOM     11  N   PHE C 845       1.567   3.575   8.900  1.00 48.65 LIG-0.35  N 
ATOM     12 H    PHE C 845       2.057   3.783   8.224  1.00 48.65 LIG 0.16  HD
ATOM     13 O    SER C 844       0.072   4.168  10.502  1.00 50.80 LIG-0.27  OA
BRANCH 11 14
ATOM     14  CA  PHE C 845       1.612   2.152   9.243  1.00 48.60 LIG 0.18  C 
BRANCH 14 15
ATOM     15  CB  PHE C 845       2.519   1.358   8.270  1.00 50.69 LIG 0.07  C 
BRANCH 15 16
ATOM     16  CG  PHE C 845       2.604  -0.155   8.406  1.00 53.32 LIG-0.06  A 
ATOM     17  CD2 PHE C 845       3.631  -0.746   9.131  1.00 56.28 LIG 0.01  A 
ATOM     18  CE2 PHE C 845       3.715  -2.140   9.261  1.00 59.52 LIG 0.00  A 
ATOM     19  CZ  PHE C 845       2.798  -2.946   8.635  1.00 57.95 LIG 0.00  A 
ATOM     20  CE1 PHE C 845       1.777  -2.381   7.897  1.00 59.50 LIG 0.00  A 
ATOM     21  CD1 PHE C 845       1.690  -0.987   7.768  1.00 58.05 LIG 0.01  A 
ENDBRANCH 15 16
ENDBRANCH 14 15
BRANCH 14 22
ATOM     22  C   PHE C 845       2.072   2.052  10.702  1.00 51.55 LIG 0.24  C 
ATOM     23 O    PHE C 845       2.969   2.786  11.135  1.00 49.31 LIG-0.27  OA
ATOM     24  N   SER C 846       1.394   1.176  11.467  1.00 48.84 LIG-0.34  N 
ATOM     25 H    SER C 846       0.750   0.695  11.160  1.00 48.84 LIG 0.16  HD
BRANCH 24 26
ATOM     26  CA  SER C 846       1.661   0.938  12.886  1.00 80.27 LIG 0.19  C 
BRANCH 26 27
ATOM     27  CB  SER C 846       3.077   0.403  13.078  1.00 83.79 LIG 0.20  C 
BRANCH 27 28
ATOM     28 OG   SER C 846       3.188  -0.940  12.632  1.00 92.96 LIG-0.40  OA
ATOM     29 HG   SER C 846       2.493  -1.154  12.211  1.00 92.96 LIG 0.21  HD
ENDBRANCH 27 28
ENDBRANCH 26 27
BRANCH 26 30
ATOM     30  C   SER C 846       1.467   2.214  13.693  1.00107.57 LIG 0.22  C 
ATOM     31 O    SER C 846       1.689   2.213  14.901  1.00 73.66 LIG-0.29  OA
ENDBRANCH 26 30
ENDBRANCH 24 26
ENDBRANCH 14 22
ENDBRANCH 11 14
ENDBRANCH 6 10
ENDBRANCH 3 6
ENDBRANCH 1 2
BRANCH 1 32
ATOM     32  CB  ARG C 843       3.594   9.170  11.863  1.00 50.74 LIG 0.04  C 
BRANCH 32 33
ATOM     33  CG  ARG C 843       4.846  10.059  11.829  1.00 63.97 LIG 0.02  C 
BRANCH 33 34
ATOM     34  CD  ARG C 843       4.759  11.274  12.724  1.00 82.46 LIG 0.14  C 
BRANCH 34 35
ATOM     35  NE  ARG C 843       5.570  12.365  12.189  1.00 98.18 LIG-0.23  N 
ATOM     36 HE   ARG C 843       5.161  13.013  11.799  1.00 98.18 LIG 0.18  HD
ATOM     37  CZ  ARG C 843       6.895  12.425  12.266  1.00115.63 LIG 0.67  C 
ATOM     38  NH2 ARG C 843       7.545  13.469  11.777  1.00101.74 LIG-0.23  N 
ATOM     39  NH1 ARG C 843       7.581  11.435  12.825  1.00105.44 LIG-0.23  N 
ATOM     40 1HH2 ARG C 843       7.110  14.113  11.407  1.00101.74 LIG 0.17  HD
ATOM     41 2HH2 ARG C 843       8.403  13.504  11.828  1.00101.74 LIG 0.17  HD
ATOM     42 1HH1 ARG C 843       7.168  10.750  13.140  1.00105.44 LIG 0.17  HD
ATOM     43 2HH1 ARG C 843       8.439  11.479  12.872  1.00105.44 LIG 0.17  HD
ENDBRANCH 34 35
ENDBRANCH 33 34
ENDBRANCH 32 33
ENDBRANCH 1 32
BRANCH 1 44
ATOM     44  N   ARG C 843       4.511   8.127   9.783  1.00 47.52 LIG-0.35  N 
ATOM     45  C   LYS C 842       4.058   8.810   8.722  1.00 51.06 LIG 0.24  C 
ATOM     46 O    LYS C 842       2.928   9.302   8.669  1.00 51.08 LIG-0.27  OA
ATOM     47 H    ARG C 843       5.300   7.788   9.830  1.00 47.52 LIG 0.16  HD
BRANCH 45 48
ATOM     48  CA  LYS C 842       5.001   8.966   7.541  1.00 46.69 LIG 0.18  C 
BRANCH 48 49
ATOM     49  CB  LYS C 842       5.456  10.431   7.415  1.00 47.71 LIG 0.04  C 
BRANCH 49 50
ATOM     50  CG  LYS C 842       5.205  11.279   8.651  1.00 50.03 LIG 0.00  C 
BRANCH 50 51
ATOM     51  CD  LYS C 842       6.473  12.007   9.062  1.00 53.65 LIG 0.03  C 
BRANCH 51 52
ATOM     52  CE  LYS C 842       6.897  12.992   8.004  1.00 52.95 LIG 0.23  C 
BRANCH 52 53
ATOM     53  NZ  LYS C 842       6.189  14.287   8.124  1.00 44.67 LIG-0.08  N 
ATOM     54 HZ3  LYS C 842       5.725  14.303   8.883  1.00 44.67 LIG 0.27  HD
ATOM     55 HZ2  LYS C 842       5.633  14.387   7.436  1.00 44.67 LIG 0.27  HD
ATOM     56 HZ1  LYS C 842       6.782  14.951   8.125  1.00 44.67 LIG 0.27  HD
ENDBRANCH 52 53
ENDBRANCH 51 52
ENDBRANCH 50 51
ENDBRANCH 49 50
ENDBRANCH 48 49
BRANCH 48 57
ATOM     57  N   LYS C 842       4.344   8.495   6.323  1.00 47.24 LIG-0.35  N 
ATOM     58 H    LYS C 842       4.328   9.088   5.700  1.00 47.24 LIG 0.16  HD
ATOM     59  C   GLN C 841       3.815   7.273   6.166  1.00 52.93 LIG 0.26  C 
ATOM     60 O    GLN C 841       3.873   6.392   7.030  1.00 51.68 LIG-0.27  OA
BRANCH 59 61
ATOM     61  CA  GLN C 841       3.168   6.982   4.809  1.00 52.44 LIG 0.40  C 
ATOM     62  N   GLN C 841       3.706   7.888   3.794  1.00 53.67 LIG 0.61  N 
BRANCH 61 63
ATOM     63  CB  GLN C 841       3.380   5.507   4.399  1.00 53.85 LIG 0.06  C 
BRANCH 63 64
ATOM     64  CG  GLN C 841       2.092   4.725   4.090  1.00 74.06 LIG 0.10  C 
BRANCH 64 65
ATOM     65  CD  GLN C 841       1.509   3.963   5.266  1.00 99.82 LIG 0.21  C 
ATOM     66 OE1  GLN C 841       2.218   3.512   6.177  1.00 97.42 LIG-0.27  OA
ATOM     67  NE2 GLN C 841       0.189   3.844   5.293  1.00 91.89 LIG-0.37  N 
ATOM     68 22HE GLN C 841      -0.193   3.448   5.953  1.00 91.89 LIG 0.16  HD
ATOM     69 21HE GLN C 841      -0.285   4.164   4.650  1.00 91.89 LIG 0.16  HD
ENDBRANCH 64 65
ENDBRANCH 63 64
ENDBRANCH 61 63
ENDBRANCH 59 61
ENDBRANCH 48 57
ENDBRANCH 45 48
ENDBRANCH 1 44
TORSDOF 29
ENDMDL
MODEL 16
USER: ADFR SOLUTION from run 96
USER: SCORE 19.584389 LL:  -3.300 LR: -18.416 RR:   0.000 FEB:  -9.765
USER: RMSD 6.589832
USER: SEED 95
USER: STATUS 1 or 2 clusters left
USER: GENES 31
USER: genes 0 Translation |==|  0.44270 0.64033 0.38744
USER: genes 1 Rotation |==|  0.26943 0.86595 0.25763 0.56457
USER: genes 2 Torsion [N]-CA--C-[N] |==|  0.43716
USER: genes 3 Torsion [C]-N--CA-[CB] |==|  0.22950
USER: genes 4 Torsion [N]-CA--CB-[OG] |==|  0.84622
USER: genes 5 Torsion [CA]-CB--OG-[HG] |==|  0.94317
USER: genes 6 Torsion [N]-CA--C-[N] |==|  0.32495
USER: genes 7 Torsion [C]-N--CA-[CB] |==|  0.46667
USER: genes 8 Torsion [N]-CA--CB-[CG] |==|  0.64596
USER: genes 9 Torsion [CA]-CB--CG-[CD2] |==|  0.29641
USER: genes 10 Torsion [N]-CA--C-[N] |==|  0.45227
USER: genes 11 Torsion [C]-N--CA-[CB] |==|  0.35636
USER: genes 12 Torsion [N]-CA--CB-[OG] |==|  0.71547
USER: genes 13 Torsion [CA]-CB--OG-[HG] |==|  0.18342
USER: genes 14 Torsion [N]-CA--C-[O] |==|  0.80360
USER: genes 15 Torsion [C]-CA--CB-[CG] |==|  0.27319
USER: genes 16 Torsion [CA]-CB--CG-[CD] |==|  0.26277
USER: genes 17 Torsion [CB]-CG--CD-[NE] |==|  0.25108
USER: genes 18 Torsion [CG]-CD--NE-[CZ] |==|  0.50726
USER: genes 19 Torsion [C]-CA--N-[C] |==|  0.65795
USER: genes 20 Torsion [N]-C--CA-[N] |==|  0.93348
USER: genes 21 Torsion [C]-CA--CB-[CG] |==|  0.87413
USER: genes 22 Torsion [CA]-CB--CG-[CD] |==|  0.55811
USER: genes 23 Torsion [CB]-CG--CD-[CE] |==|  0.60353
USER: genes 24 Torsion [CG]-CD--CE-[NZ] |==|  0.31697
USER: genes 25 Torsion [CD]-CE--NZ-[HZ2] |==|  0.58351
USER: genes 26 Torsion [C]-CA--N-[C] |==|  0.76990
USER: genes 27 Torsion [N]-C--CA-[N] |==|  0.58273
USER: genes 28 Torsion [C]-CA--CB-[CG] |==|  0.34565
USER: genes 29 Torsion [CA]-CB--CG-[CD] |==|  0.79474
USER: genes 30 Torsion [CB]-CG--CD-[OE1] |==|  0.22416
ROOT
ATOM      1  CA  ARG C 843      -1.186   7.815   6.379  1.00 48.28 LIG 0.18  C 
ENDROOT
BRANCH 1 2
ATOM      2  C   ARG C 843       0.180   7.353   6.874  1.00 51.26 LIG 0.24  C 
ATOM      3  N   SER C 844       0.187   6.489   7.903  1.00 48.21 LIG-0.34  N 
ATOM      4 H    SER C 844      -0.528   6.214   8.294  1.00 48.21 LIG 0.16  HD
ATOM      5 O    ARG C 843       1.209   7.780   6.340  1.00 49.46 LIG-0.27  OA
BRANCH 3 6
ATOM      6  CA  SER C 844       1.421   5.928   8.464  1.00 48.58 LIG 0.20  C 
BRANCH 6 7
ATOM      7  CB  SER C 844       2.056   6.900   9.459  1.00 52.82 LIG 0.20  C 
BRANCH 7 8
ATOM      8 OG   SER C 844       2.296   8.179   8.892  1.00 64.87 LIG-0.40  OA
ATOM      9 HG   SER C 844       2.314   8.116   8.055  1.00 64.87 LIG 0.21  HD
ENDBRANCH 7 8
ENDBRANCH 6 7
BRANCH 6 10
ATOM     10  C   SER C 844       1.143   4.581   9.138  1.00 51.88 LIG 0.24  C 
ATOM     11  N   PHE C 845       1.750   3.501   8.614  1.00 48.65 LIG-0.35  N 
ATOM     12 H    PHE C 845       2.242   3.534   7.909  1.00 48.65 LIG 0.16  HD
ATOM     13 O    SER C 844       0.381   4.525  10.108  1.00 50.80 LIG-0.27  OA
BRANCH 11 14
ATOM     14  CA  PHE C 845       1.636   2.159   9.189  1.00 48.60 LIG 0.18  C 
BRANCH 14 15
ATOM     15  CB  PHE C 845       2.183   1.077   8.225  1.00 50.69 LIG 0.07  C 
BRANCH 15 16
ATOM     16  CG  PHE C 845       1.305  -0.116   7.877  1.00 53.32 LIG-0.06  A 
ATOM     17  CD2 PHE C 845       0.716  -0.221   6.623  1.00 56.28 LIG 0.01  A 
ATOM     18  CE2 PHE C 845      -0.094  -1.317   6.294  1.00 59.52 LIG 0.00  A 
ATOM     19  CZ  PHE C 845      -0.349  -2.289   7.229  1.00 57.95 LIG 0.00  A 
ATOM     20  CE1 PHE C 845       0.214  -2.198   8.486  1.00 59.50 LIG 0.00  A 
ATOM     21  CD1 PHE C 845       1.027  -1.104   8.815  1.00 58.05 LIG 0.01  A 
ENDBRANCH 15 16
ENDBRANCH 14 15
BRANCH 14 22
ATOM     22  C   PHE C 845       2.366   2.180  10.537  1.00 51.55 LIG 0.24  C 
ATOM     23 O    PHE C 845       3.122   3.114  10.834  1.00 49.31 LIG-0.27  OA
ATOM     24  N   SER C 846       2.074   1.166  11.373  1.00 48.84 LIG-0.34  N 
ATOM     25 H    SER C 846       1.522   0.540  11.165  1.00 48.84 LIG 0.16  HD
BRANCH 24 26
ATOM     26  CA  SER C 846       2.647   1.005  12.710  1.00 80.27 LIG 0.19  C 
BRANCH 26 27
ATOM     27  CB  SER C 846       1.541   0.805  13.741  1.00 83.79 LIG 0.20  C 
BRANCH 27 28
ATOM     28 OG   SER C 846       1.298   1.993  14.477  1.00 92.96 LIG-0.40  OA
ATOM     29 HG   SER C 846       0.985   2.582  13.965  1.00 92.96 LIG 0.21  HD
ENDBRANCH 27 28
ENDBRANCH 26 27
BRANCH 26 30
ATOM     30  C   SER C 846       3.616  -0.168  12.744  1.00107.57 LIG 0.22  C 
ATOM     31 O    SER C 846       3.189  -1.317  12.665  1.00 73.66 LIG-0.29  OA
ENDBRANCH 26 30
ENDBRANCH 24 26
ENDBRANCH 14 22
ENDBRANCH 11 14
ENDBRANCH 6 10
ENDBRANCH 3 6
ENDBRANCH 1 2
BRANCH 1 32
ATOM     32  CB  ARG C 843      -1.830   6.720   5.480  1.00 50.74 LIG 0.04  C 
BRANCH 32 33
ATOM     33  CG  ARG C 843      -2.851   5.827   6.201  1.00 63.97 LIG 0.02  C 
BRANCH 33 34
ATOM     34  CD  ARG C 843      -4.282   6.288   6.052  1.00 82.46 LIG 0.14  C 
BRANCH 34 35
ATOM     35  NE  ARG C 843      -4.901   5.675   4.879  1.00 98.18 LIG-0.23  N 
ATOM     36 HE   ARG C 843      -4.433   5.112   4.428  1.00 98.18 LIG 0.18  HD
ATOM     37  CZ  ARG C 843      -6.137   5.928   4.462  1.00115.63 LIG 0.67  C 
ATOM     38  NH2 ARG C 843      -6.625   5.303   3.402  1.00101.74 LIG-0.23  N 
ATOM     39  NH1 ARG C 843      -6.892   6.817   5.098  1.00105.44 LIG-0.23  N 
ATOM     40 1HH2 ARG C 843      -6.141   4.730   2.980  1.00101.74 LIG 0.17  HD
ATOM     41 2HH2 ARG C 843      -7.425   5.469   3.136  1.00101.74 LIG 0.17  HD
ATOM     42 1HH1 ARG C 843      -6.582   7.233   5.784  1.00105.44 LIG 0.17  HD
ATOM     43 2HH1 ARG C 843      -7.692   6.976   4.824  1.00105.44 LIG 0.17  HD
ENDBRANCH 34 35
ENDBRANCH 33 34
ENDBRANCH 32 33
ENDBRANCH 1 32
BRANCH 1 44
ATOM     44  N   ARG C 843      -1.075   9.097   5.669  1.00 47.52 LIG-0.35  N 
ATOM     45  C   LYS C 842      -1.771  10.182   6.038  1.00 51.06 LIG 0.24  C 
ATOM     46 O    LYS C 842      -2.545  10.192   6.999  1.00 51.08 LIG-0.27  OA
ATOM     47 H    ARG C 843      -0.529   9.085   5.006  1.00 47.52 LIG 0.16  HD
BRANCH 45 48
ATOM     48  CA  LYS C 842      -1.583  11.443   5.212  1.00 46.69 LIG 0.18  C 
BRANCH 48 49
ATOM     49  CB  LYS C 842      -2.743  11.599   4.211  1.00 47.71 LIG 0.04  C 
BRANCH 49 50
ATOM     50  CG  LYS C 842      -3.109  10.327   3.465  1.00 50.03 LIG 0.00  C 
BRANCH 50 51
ATOM     51  CD  LYS C 842      -3.860  10.658   2.186  1.00 53.65 LIG 0.03  C 
BRANCH 51 52
ATOM     52  CE  LYS C 842      -4.945   9.648   1.921  1.00 52.95 LIG 0.23  C 
BRANCH 52 53
ATOM     53  NZ  LYS C 842      -6.300  10.240   2.009  1.00 44.67 LIG-0.08  N 
ATOM     54 HZ3  LYS C 842      -6.293  10.912   2.592  1.00 44.67 LIG 0.27  HD
ATOM     55 HZ2  LYS C 842      -6.878   9.620   2.281  1.00 44.67 LIG 0.27  HD
ATOM     56 HZ1  LYS C 842      -6.544  10.543   1.209  1.00 44.67 LIG 0.27  HD
ENDBRANCH 52 53
ENDBRANCH 51 52
ENDBRANCH 50 51
ENDBRANCH 49 50
ENDBRANCH 48 49
BRANCH 48 57
ATOM     57  N   LYS C 842      -0.288  11.399   4.537  1.00 47.24 LIG-0.35  N 
ATOM     58 H    LYS C 842      -0.342  11.123   3.724  1.00 47.24 LIG 0.16  HD
ATOM     59  C   GLN C 841       0.878  11.748   5.101  1.00 52.93 LIG 0.26  C 
ATOM     60 O    GLN C 841       0.970  12.194   6.249  1.00 51.68 LIG-0.27  OA
BRANCH 59 61
ATOM     61  CA  GLN C 841       2.124  11.624   4.219  1.00 52.44 LIG 0.40  C 
ATOM     62  N   GLN C 841       3.295  11.336   5.047  1.00 53.67 LIG 0.61  N 
BRANCH 61 63
ATOM     63  CB  GLN C 841       1.931  10.537   3.138  1.00 53.85 LIG 0.06  C 
BRANCH 63 64
ATOM     64  CG  GLN C 841       2.144  11.011   1.692  1.00 74.06 LIG 0.10  C 
BRANCH 64 65
ATOM     65  CD  GLN C 841       1.028  11.873   1.130  1.00 99.82 LIG 0.21  C 
ATOM     66 OE1  GLN C 841       0.939  13.084   1.382  1.00 97.42 LIG-0.27  OA
ATOM     67  NE2 GLN C 841       0.175  11.272   0.313  1.00 91.89 LIG-0.37  N 
ATOM     68 22HE GLN C 841      -0.456  11.724  -0.056  1.00 91.89 LIG 0.16  HD
ATOM     69 21HE GLN C 841       0.254  10.431   0.151  1.00 91.89 LIG 0.16  HD
ENDBRANCH 64 65
ENDBRANCH 63 64
ENDBRANCH 61 63
ENDBRANCH 59 61
ENDBRANCH 48 57
ENDBRANCH 45 48
ENDBRANCH 1 44
TORSDOF 29
ENDMDL
MODEL 17
USER: ADFR SOLUTION from run 23
USER: SCORE 19.132234 LL:  -3.967 LR: -18.302 RR:   0.000 FEB:  -9.651
USER: RMSD 7.943328
USER: SEED 22
USER: STATUS no improvement in best in 8 clusters for 5 generations
USER: GENES 31
USER: genes 0 Translation |==|  0.66184 0.64136 0.57914
USER: genes 1 Rotation |==|  0.39805 0.14154 0.35208 0.79872
USER: genes 2 Torsion [N]-CA--C-[N] |==|  0.17486
USER: genes 3 Torsion [C]-N--CA-[CB] |==|  0.31479
USER: genes 4 Torsion [N]-CA--CB-[OG] |==|  0.54030
USER: genes 5 Torsion [CA]-CB--OG-[HG] |==|  0.08206
USER: genes 6 Torsion [N]-CA--C-[N] |==|  0.81147
USER: genes 7 Torsion [C]-N--CA-[CB] |==|  0.45754
USER: genes 8 Torsion [N]-CA--CB-[CG] |==|  0.50324
USER: genes 9 Torsion [CA]-CB--CG-[CD2] |==|  0.70830
USER: genes 10 Torsion [N]-CA--C-[N] |==|  0.38543
USER: genes 11 Torsion [C]-N--CA-[CB] |==|  0.83350
USER: genes 12 Torsion [N]-CA--CB-[OG] |==|  0.77289
USER: genes 13 Torsion [CA]-CB--OG-[HG] |==|  0.04727
USER: genes 14 Torsion [N]-CA--C-[O] |==|  0.46522
USER: genes 15 Torsion [C]-CA--CB-[CG] |==|  0.62982
USER: genes 16 Torsion [CA]-CB--CG-[CD] |==|  0.43419
USER: genes 17 Torsion [CB]-CG--CD-[NE] |==|  0.54907
USER: genes 18 Torsion [CG]-CD--NE-[CZ] |==|  0.83501
USER: genes 19 Torsion [C]-CA--N-[C] |==|  0.75623
USER: genes 20 Torsion [N]-C--CA-[N] |==|  0.98232
USER: genes 21 Torsion [C]-CA--CB-[CG] |==|  0.85155
USER: genes 22 Torsion [CA]-CB--CG-[CD] |==|  0.56632
USER: genes 23 Torsion [CB]-CG--CD-[CE] |==|  0.50041
USER: genes 24 Torsion [CG]-CD--CE-[NZ] |==|  0.69418
USER: genes 25 Torsion [CD]-CE--NZ-[HZ2] |==|  0.59177
USER: genes 26 Torsion [C]-CA--N-[C] |==|  0.80537
USER: genes 27 Torsion [N]-C--CA-[N] |==|  0.52999
USER: genes 28 Torsion [C]-CA--CB-[CG] |==|  0.29288
USER: genes 29 Torsion [CA]-CB--CG-[CD] |==|  0.73329
USER: genes 30 Torsion [CB]-CG--CD-[OE1] |==|  0.87845
ROOT
ATOM      1  CA  ARG C 843       4.073   7.839  11.267  1.00 48.28 LIG 0.18  C 
ENDROOT
BRANCH 1 2
ATOM      2  C   ARG C 843       2.681   7.554  10.712  1.00 51.26 LIG 0.24  C 
ATOM      3  N   SER C 844       2.568   6.507   9.878  1.00 48.21 LIG-0.34  N 
ATOM      4 H    SER C 844       3.235   6.022   9.636  1.00 48.21 LIG 0.16  HD
ATOM      5 O    ARG C 843       1.730   8.278  11.027  1.00 49.46 LIG-0.27  OA
BRANCH 3 6
ATOM      6  CA  SER C 844       1.289   6.089   9.295  1.00 48.58 LIG 0.20  C 
BRANCH 6 7
ATOM      7  CB  SER C 844       1.285   6.307   7.781  1.00 52.82 LIG 0.20  C 
BRANCH 7 8
ATOM      8 OG   SER C 844      -0.018   6.232   7.223  1.00 64.87 LIG-0.40  OA
ATOM      9 HG   SER C 844      -0.582   6.478   7.794  1.00 64.87 LIG 0.21  HD
ENDBRANCH 7 8
ENDBRANCH 6 7
BRANCH 6 10
ATOM     10  C   SER C 844       1.003   4.620   9.621  1.00 51.88 LIG 0.24  C 
ATOM     11  N   PHE C 845       1.803   3.702   9.050  1.00 48.65 LIG-0.35  N 
ATOM     12 H    PHE C 845       2.426   3.904   8.492  1.00 48.65 LIG 0.16  HD
ATOM     13 O    SER C 844       0.065   4.328  10.368  1.00 50.80 LIG-0.27  OA
BRANCH 11 14
ATOM     14  CA  PHE C 845       1.698   2.267   9.318  1.00 48.60 LIG 0.18  C 
BRANCH 14 15
ATOM     15  CB  PHE C 845       2.465   1.430   8.264  1.00 50.69 LIG 0.07  C 
BRANCH 15 16
ATOM     16  CG  PHE C 845       2.444  -0.088   8.366  1.00 53.32 LIG-0.06  A 
ATOM     17  CD2 PHE C 845       3.557  -0.783   8.823  1.00 56.28 LIG 0.01  A 
ATOM     18  CE2 PHE C 845       3.546  -2.182   8.921  1.00 59.52 LIG 0.00  A 
ATOM     19  CZ  PHE C 845       2.439  -2.890   8.525  1.00 57.95 LIG 0.00  A 
ATOM     20  CE1 PHE C 845       1.327  -2.221   8.054  1.00 59.50 LIG 0.00  A 
ATOM     21  CD1 PHE C 845       1.336  -0.822   7.959  1.00 58.05 LIG 0.01  A 
ENDBRANCH 15 16
ENDBRANCH 14 15
BRANCH 14 22
ATOM     22  C   PHE C 845       2.205   2.034  10.746  1.00 51.55 LIG 0.24  C 
ATOM     23 O    PHE C 845       3.170   2.670  11.187  1.00 49.31 LIG-0.27  OA
ATOM     24  N   SER C 846       1.494   1.159  11.482  1.00 48.84 LIG-0.34  N 
ATOM     25 H    SER C 846       0.805   0.748  11.172  1.00 48.84 LIG 0.16  HD
BRANCH 24 26
ATOM     26  CA  SER C 846       1.797   0.806  12.869  1.00 80.27 LIG 0.19  C 
BRANCH 26 27
ATOM     27  CB  SER C 846       3.194   0.202  12.970  1.00 83.79 LIG 0.20  C 
BRANCH 27 28
ATOM     28 OG   SER C 846       3.191  -1.174  12.624  1.00 92.96 LIG-0.40  OA
ATOM     29 HG   SER C 846       2.484  -1.356  12.207  1.00 92.96 LIG 0.21  HD
ENDBRANCH 27 28
ENDBRANCH 26 27
BRANCH 26 30
ATOM     30  C   SER C 846       1.684   2.025  13.773  1.00107.57 LIG 0.22  C 
ATOM     31 O    SER C 846       1.675   1.883  14.993  1.00 73.66 LIG-0.29  OA
ENDBRANCH 26 30
ENDBRANCH 24 26
ENDBRANCH 14 22
ENDBRANCH 11 14
ENDBRANCH 6 10
ENDBRANCH 3 6
ENDBRANCH 1 2
BRANCH 1 32
ATOM     32  CB  ARG C 843       4.004   8.964  12.339  1.00 50.74 LIG 0.04  C 
BRANCH 32 33
ATOM     33  CG  ARG C 843       5.070  10.059  12.180  1.00 63.97 LIG 0.02  C 
BRANCH 33 34
ATOM     34  CD  ARG C 843       4.690  11.380  12.808  1.00 82.46 LIG 0.14  C 
BRANCH 34 35
ATOM     35  NE  ARG C 843       5.519  12.459  12.277  1.00 98.18 LIG-0.23  N 
ATOM     36 HE   ARG C 843       5.122  13.110  11.880  1.00 98.18 LIG 0.18  HD
ATOM     37  CZ  ARG C 843       6.844  12.503  12.367  1.00115.63 LIG 0.67  C 
ATOM     38  NH2 ARG C 843       7.512  13.537  11.880  1.00101.74 LIG-0.23  N 
ATOM     39  NH1 ARG C 843       7.513  11.507  12.937  1.00105.44 LIG-0.23  N 
ATOM     40 1HH2 ARG C 843       7.089  14.185  11.504  1.00101.74 LIG 0.17  HD
ATOM     41 2HH2 ARG C 843       8.370  13.562  11.940  1.00101.74 LIG 0.17  HD
ATOM     42 1HH1 ARG C 843       7.089  10.828  13.250  1.00105.44 LIG 0.17  HD
ATOM     43 2HH1 ARG C 843       8.371  11.541  12.992  1.00105.44 LIG 0.17  HD
ENDBRANCH 34 35
ENDBRANCH 33 34
ENDBRANCH 32 33
ENDBRANCH 1 32
BRANCH 1 44
ATOM     44  N   ARG C 843       5.003   8.183  10.183  1.00 47.52 LIG-0.35  N 
ATOM     45  C   LYS C 842       5.694   7.253   9.509  1.00 51.06 LIG 0.24  C 
ATOM     46 O    LYS C 842       5.596   6.044   9.737  1.00 51.08 LIG-0.27  OA
ATOM     47 H    ARG C 843       5.062   9.026  10.025  1.00 47.52 LIG 0.16  HD
BRANCH 45 48
ATOM     48  CA  LYS C 842       6.639   7.739   8.423  1.00 46.69 LIG 0.18  C 
BRANCH 48 49
ATOM     49  CB  LYS C 842       8.091   7.368   8.778  1.00 47.71 LIG 0.04  C 
BRANCH 49 50
ATOM     50  CG  LYS C 842       8.542   7.829  10.153  1.00 50.03 LIG 0.00  C 
BRANCH 50 51
ATOM     51  CD  LYS C 842      10.055   7.963  10.200  1.00 53.65 LIG 0.03  C 
BRANCH 51 52
ATOM     52  CE  LYS C 842      10.515   8.416  11.561  1.00 52.95 LIG 0.23  C 
BRANCH 52 53
ATOM     53  NZ  LYS C 842      11.037   9.802  11.546  1.00 44.67 LIG-0.08  N 
ATOM     54 HZ3  LYS C 842      11.352   9.992  10.736  1.00 44.67 LIG 0.27  HD
ATOM     55 HZ2  LYS C 842      11.691   9.880  12.144  1.00 44.67 LIG 0.27  HD
ATOM     56 HZ1  LYS C 842      10.381  10.369  11.748  1.00 44.67 LIG 0.27  HD
ENDBRANCH 52 53
ENDBRANCH 51 52
ENDBRANCH 50 51
ENDBRANCH 49 50
ENDBRANCH 48 49
BRANCH 48 57
ATOM     57  N   LYS C 842       6.477   9.180   8.239  1.00 47.24 LIG-0.35  N 
ATOM     58 H    LYS C 842       7.154   9.631   8.517  1.00 47.24 LIG 0.16  HD
ATOM     59  C   GLN C 841       5.398   9.763   7.698  1.00 52.93 LIG 0.26  C 
ATOM     60 O    GLN C 841       4.438   9.129   7.249  1.00 51.68 LIG-0.27  OA
BRANCH 59 61
ATOM     61  CA  GLN C 841       5.427  11.291   7.601  1.00 52.44 LIG 0.40  C 
ATOM     62  N   GLN C 841       4.103  11.795   7.237  1.00 53.67 LIG 0.61  N 
BRANCH 61 63
ATOM     63  CB  GLN C 841       5.911  11.920   8.927  1.00 53.85 LIG 0.06  C 
BRANCH 63 64
ATOM     64  CG  GLN C 841       7.346  12.471   8.902  1.00 74.06 LIG 0.10  C 
BRANCH 64 65
ATOM     65  CD  GLN C 841       8.405  11.522   9.434  1.00 99.82 LIG 0.21  C 
ATOM     66 OE1  GLN C 841       8.238  10.861  10.470  1.00 97.42 LIG-0.27  OA
ATOM     67  NE2 GLN C 841       9.504  11.399   8.705  1.00 91.89 LIG-0.37  N 
ATOM     68 22HE GLN C 841      10.121  10.851   8.946  1.00 91.89 LIG 0.16  HD
ATOM     69 21HE GLN C 841       9.600  11.867   7.990  1.00 91.89 LIG 0.16  HD
ENDBRANCH 64 65
ENDBRANCH 63 64
ENDBRANCH 61 63
ENDBRANCH 59 61
ENDBRANCH 48 57
ENDBRANCH 45 48
ENDBRANCH 1 44
TORSDOF 29
ENDMDL
MODEL 18
USER: ADFR SOLUTION from run 11
USER: SCORE 19.937437 LL:  -4.631 LR: -18.206 RR:   0.000 FEB:  -9.555
USER: RMSD 8.891769
USER: SEED 470354
USER: STATUS 1 or 2 clusters left
USER: GENES 31
USER: genes 0 Translation |==|  0.63611 0.66674 0.59982
USER: genes 1 Rotation |==|  0.32239 0.04961 0.38668 0.55257
USER: genes 2 Torsion [N]-CA--C-[N] |==|  0.20211
USER: genes 3 Torsion [C]-N--CA-[CB] |==|  0.19444
USER: genes 4 Torsion [N]-CA--CB-[OG] |==|  0.73565
USER: genes 5 Torsion [CA]-CB--OG-[HG] |==|  0.16806
USER: genes 6 Torsion [N]-CA--C-[N] |==|  0.72091
USER: genes 7 Torsion [C]-N--CA-[CB] |==|  0.43895
USER: genes 8 Torsion [N]-CA--CB-[CG] |==|  0.64088
USER: genes 9 Torsion [CA]-CB--CG-[CD2] |==|  0.78924
USER: genes 10 Torsion [N]-CA--C-[N] |==|  0.39613
USER: genes 11 Torsion [C]-N--CA-[CB] |==|  0.86220
USER: genes 12 Torsion [N]-CA--CB-[OG] |==|  0.80220
USER: genes 13 Torsion [CA]-CB--OG-[HG] |==|  0.00245
USER: genes 14 Torsion [N]-CA--C-[O] |==|  0.60715
USER: genes 15 Torsion [C]-CA--CB-[CG] |==|  0.58931
USER: genes 16 Torsion [CA]-CB--CG-[CD] |==|  0.30668
USER: genes 17 Torsion [CB]-CG--CD-[NE] |==|  0.33226
USER: genes 18 Torsion [CG]-CD--NE-[CZ] |==|  0.29236
USER: genes 19 Torsion [C]-CA--N-[C] |==|  0.60628
USER: genes 20 Torsion [N]-C--CA-[N] |==|  0.09438
USER: genes 21 Torsion [C]-CA--CB-[CG] |==|  0.28571
USER: genes 22 Torsion [CA]-CB--CG-[CD] |==|  0.54137
USER: genes 23 Torsion [CB]-CG--CD-[CE] |==|  0.14524
USER: genes 24 Torsion [CG]-CD--CE-[NZ] |==|  0.39031
USER: genes 25 Torsion [CD]-CE--NZ-[HZ2] |==|  0.09282
USER: genes 26 Torsion [C]-CA--N-[C] |==|  0.19368
USER: genes 27 Torsion [N]-C--CA-[N] |==|  0.76082
USER: genes 28 Torsion [C]-CA--CB-[CG] |==|  0.16013
USER: genes 29 Torsion [CA]-CB--CG-[CD] |==|  0.62785
USER: genes 30 Torsion [CB]-CG--CD-[OE1] |==|  0.17827
ROOT
ATOM      1  CA  ARG C 843       3.456   8.429  11.794  1.00 48.28 LIG 0.18  C 
ENDROOT
BRANCH 1 2
ATOM      2  C   ARG C 843       2.774   7.938  10.522  1.00 51.26 LIG 0.24  C 
ATOM      3  N   SER C 844       2.446   6.635  10.478  1.00 48.21 LIG-0.34  N 
ATOM      4 H    SER C 844       2.621   6.083  11.113  1.00 48.21 LIG 0.16  HD
ATOM      5 O    ARG C 843       2.560   8.723   9.592  1.00 49.46 LIG-0.27  OA
BRANCH 3 6
ATOM      6  CA  SER C 844       1.753   6.026   9.338  1.00 48.58 LIG 0.20  C 
BRANCH 6 7
ATOM      7  CB  SER C 844       2.674   5.955   8.119  1.00 52.82 LIG 0.20  C 
BRANCH 7 8
ATOM      8 OG   SER C 844       2.503   7.059   7.242  1.00 64.87 LIG-0.40  OA
ATOM      9 HG   SER C 844       2.680   7.770   7.651  1.00 64.87 LIG 0.21  HD
ENDBRANCH 7 8
ENDBRANCH 6 7
BRANCH 6 10
ATOM     10  C   SER C 844       1.242   4.630   9.702  1.00 51.88 LIG 0.24  C 
ATOM     11  N   PHE C 845       1.974   3.583   9.278  1.00 48.65 LIG-0.35  N 
ATOM     12 H    PHE C 845       2.676   3.669   8.789  1.00 48.65 LIG 0.16  HD
ATOM     13 O    SER C 844       0.195   4.506  10.345  1.00 50.80 LIG-0.27  OA
BRANCH 11 14
ATOM     14  CA  PHE C 845       1.651   2.193   9.604  1.00 48.60 LIG 0.18  C 
BRANCH 14 15
ATOM     15  CB  PHE C 845       2.282   1.207   8.590  1.00 50.69 LIG 0.07  C 
BRANCH 15 16
ATOM     16  CG  PHE C 845       1.403   0.148   7.943  1.00 53.32 LIG-0.06  A 
ATOM     17  CD2 PHE C 845       1.007  -0.979   8.654  1.00 56.28 LIG 0.01  A 
ATOM     18  CE2 PHE C 845       0.196  -1.959   8.064  1.00 59.52 LIG 0.00  A 
ATOM     19  CZ  PHE C 845      -0.188  -1.836   6.752  1.00 57.95 LIG 0.00  A 
ATOM     20  CE1 PHE C 845       0.206  -0.732   6.022  1.00 59.50 LIG 0.00  A 
ATOM     21  CD1 PHE C 845       1.014   0.250   6.611  1.00 58.05 LIG 0.01  A 
ENDBRANCH 15 16
ENDBRANCH 14 15
BRANCH 14 22
ATOM     22  C   PHE C 845       2.116   1.946  11.044  1.00 51.55 LIG 0.24  C 
ATOM     23 O    PHE C 845       3.128   2.502  11.487  1.00 49.31 LIG-0.27  OA
ATOM     24  N   SER C 846       1.319   1.153  11.785  1.00 48.84 LIG-0.34  N 
ATOM     25 H    SER C 846       0.600   0.799  11.473  1.00 48.84 LIG 0.16  HD
BRANCH 24 26
ATOM     26  CA  SER C 846       1.571   0.803  13.183  1.00 80.27 LIG 0.19  C 
BRANCH 26 27
ATOM     27  CB  SER C 846       3.005   0.313  13.359  1.00 83.79 LIG 0.20  C 
BRANCH 27 28
ATOM     28 OG   SER C 846       3.191  -0.967  12.776  1.00 92.96 LIG-0.40  OA
ATOM     29 HG   SER C 846       2.471  -1.222  12.425  1.00 92.96 LIG 0.21  HD
ENDBRANCH 27 28
ENDBRANCH 26 27
BRANCH 26 30
ATOM     30  C   SER C 846       1.307   1.994  14.094  1.00107.57 LIG 0.22  C 
ATOM     31 O    SER C 846       2.041   2.203  15.056  1.00 73.66 LIG-0.29  OA
ENDBRANCH 26 30
ENDBRANCH 24 26
ENDBRANCH 14 22
ENDBRANCH 11 14
ENDBRANCH 6 10
ENDBRANCH 3 6
ENDBRANCH 1 2
BRANCH 1 32
ATOM     32  CB  ARG C 843       3.392   9.981  11.873  1.00 50.74 LIG 0.04  C 
BRANCH 32 33
ATOM     33  CG  ARG C 843       4.596  10.631  12.572  1.00 63.97 LIG 0.02  C 
BRANCH 33 34
ATOM     34  CD  ARG C 843       5.499  11.408  11.641  1.00 82.46 LIG 0.14  C 
BRANCH 34 35
ATOM     35  NE  ARG C 843       5.563  12.811  12.040  1.00 98.18 LIG-0.23  N 
ATOM     36 HE   ARG C 843       4.882  13.308  11.870  1.00 98.18 LIG 0.18  HD
ATOM     37  CZ  ARG C 843       6.602  13.373  12.649  1.00115.63 LIG 0.67  C 
ATOM     38  NH2 ARG C 843       6.561  14.649  12.999  1.00101.74 LIG-0.23  N 
ATOM     39  NH1 ARG C 843       7.697  12.664  12.903  1.00105.44 LIG-0.23  N 
ATOM     40 1HH2 ARG C 843       5.860  15.119  12.834  1.00101.74 LIG 0.17  HD
ATOM     41 2HH2 ARG C 843       7.236  15.009  13.393  1.00101.74 LIG 0.17  HD
ATOM     42 1HH1 ARG C 843       7.736  11.836  12.674  1.00105.44 LIG 0.17  HD
ATOM     43 2HH1 ARG C 843       8.366  13.032  13.298  1.00105.44 LIG 0.17  HD
ENDBRANCH 34 35
ENDBRANCH 33 34
ENDBRANCH 32 33
ENDBRANCH 1 32
BRANCH 1 44
ATOM     44  N   ARG C 843       4.840   7.942  11.863  1.00 47.52 LIG-0.35  N 
ATOM     45  C   LYS C 842       5.405   7.548  13.013  1.00 51.06 LIG 0.24  C 
ATOM     46 O    LYS C 842       4.809   7.553  14.093  1.00 51.08 LIG-0.27  OA
ATOM     47 H    ARG C 843       5.247   7.934  11.106  1.00 47.52 LIG 0.16  HD
BRANCH 45 48
ATOM     48  CA  LYS C 842       6.851   7.083  12.955  1.00 46.69 LIG 0.18  C 
BRANCH 48 49
ATOM     49  CB  LYS C 842       7.505   7.211  14.343  1.00 47.71 LIG 0.04  C 
BRANCH 49 50
ATOM     50  CG  LYS C 842       7.646   5.900  15.097  1.00 50.03 LIG 0.00  C 
BRANCH 50 51
ATOM     51  CD  LYS C 842       7.950   6.160  16.563  1.00 53.65 LIG 0.03  C 
BRANCH 51 52
ATOM     52  CE  LYS C 842       6.947   7.112  17.162  1.00 52.95 LIG 0.23  C 
BRANCH 52 53
ATOM     53  NZ  LYS C 842       6.564   6.732  18.541  1.00 44.67 LIG-0.08  N 
ATOM     54 HZ3  LYS C 842       6.307   7.457  18.988  1.00 44.67 LIG 0.27  HD
ATOM     55 HZ2  LYS C 842       7.261   6.362  18.952  1.00 44.67 LIG 0.27  HD
ATOM     56 HZ1  LYS C 842       5.892   6.149  18.512  1.00 44.67 LIG 0.27  HD
ENDBRANCH 52 53
ENDBRANCH 51 52
ENDBRANCH 50 51
ENDBRANCH 49 50
ENDBRANCH 48 49
BRANCH 48 57
ATOM     57  N   LYS C 842       7.573   7.851  11.943  1.00 47.24 LIG-0.35  N 
ATOM     58 H    LYS C 842       7.785   7.382  11.254  1.00 47.24 LIG 0.16  HD
ATOM     59  C   GLN C 841       7.886   9.151  12.051  1.00 52.93 LIG 0.26  C 
ATOM     60 O    GLN C 841       7.548   9.852  13.009  1.00 51.68 LIG-0.27  OA
BRANCH 59 61
ATOM     61  CA  GLN C 841       8.652   9.766  10.876  1.00 52.44 LIG 0.40  C 
ATOM     62  N   GLN C 841      10.089   9.548  11.047  1.00 53.67 LIG 0.61  N 
BRANCH 61 63
ATOM     63  CB  GLN C 841       8.162   9.182   9.531  1.00 53.85 LIG 0.06  C 
BRANCH 63 64
ATOM     64  CG  GLN C 841       6.662   9.363   9.250  1.00 74.06 LIG 0.10  C 
BRANCH 64 65
ATOM     65  CD  GLN C 841       5.952   8.121   8.740  1.00 99.82 LIG 0.21  C 
ATOM     66 OE1  GLN C 841       5.840   7.096   9.428  1.00 97.42 LIG-0.27  OA
ATOM     67  NE2 GLN C 841       5.413   8.207   7.533  1.00 91.89 LIG-0.37  N 
ATOM     68 22HE GLN C 841       4.974   7.542   7.210  1.00 91.89 LIG 0.16  HD
ATOM     69 21HE GLN C 841       5.503   8.927   7.072  1.00 91.89 LIG 0.16  HD
ENDBRANCH 64 65
ENDBRANCH 63 64
ENDBRANCH 61 63
ENDBRANCH 59 61
ENDBRANCH 48 57
ENDBRANCH 45 48
ENDBRANCH 1 44
TORSDOF 29
ENDMDL
MODEL 19
USER: ADFR SOLUTION from run 187
USER: SCORE 19.555836 LL:  -3.434 LR: -18.191 RR:   0.000 FEB:  -9.540
USER: RMSD 12.123606
USER: SEED 186
USER: STATUS no improvement in best in 3 clusters for 5 generations
USER: GENES 31
USER: genes 0 Translation |==|  0.65354 0.70695 0.52603
USER: genes 1 Rotation |==|  0.73870 0.90420 0.40532 0.64380
USER: genes 2 Torsion [N]-CA--C-[N] |==|  0.47529
USER: genes 3 Torsion [C]-N--CA-[CB] |==|  0.18288
USER: genes 4 Torsion [N]-CA--CB-[OG] |==|  0.74957
USER: genes 5 Torsion [CA]-CB--OG-[HG] |==|  0.10686
USER: genes 6 Torsion [N]-CA--C-[N] |==|  0.64813
USER: genes 7 Torsion [C]-N--CA-[CB] |==|  0.48889
USER: genes 8 Torsion [N]-CA--CB-[CG] |==|  0.57520
USER: genes 9 Torsion [CA]-CB--CG-[CD2] |==|  0.39539
USER: genes 10 Torsion [N]-CA--C-[N] |==|  0.29276
USER: genes 11 Torsion [C]-N--CA-[CB] |==|  0.83297
USER: genes 12 Torsion [N]-CA--CB-[OG] |==|  0.78325
USER: genes 13 Torsion [CA]-CB--OG-[HG] |==|  0.43443
USER: genes 14 Torsion [N]-CA--C-[O] |==|  0.18331
USER: genes 15 Torsion [C]-CA--CB-[CG] |==|  0.66423
USER: genes 16 Torsion [CA]-CB--CG-[CD] |==|  0.76069
USER: genes 17 Torsion [CB]-CG--CD-[NE] |==|  0.84808
USER: genes 18 Torsion [CG]-CD--NE-[CZ] |==|  0.82694
USER: genes 19 Torsion [C]-CA--N-[C] |==|  0.79124
USER: genes 20 Torsion [N]-C--CA-[N] |==|  0.94866
USER: genes 21 Torsion [C]-CA--CB-[CG] |==|  0.92874
USER: genes 22 Torsion [CA]-CB--CG-[CD] |==|  0.69071
USER: genes 23 Torsion [CB]-CG--CD-[CE] |==|  0.44113
USER: genes 24 Torsion [CG]-CD--CE-[NZ] |==|  0.25757
USER: genes 25 Torsion [CD]-CE--NZ-[HZ2] |==|  0.70576
USER: genes 26 Torsion [C]-CA--N-[C] |==|  0.68383
USER: genes 27 Torsion [N]-C--CA-[N] |==|  0.80162
USER: genes 28 Torsion [C]-CA--CB-[CG] |==|  0.15678
USER: genes 29 Torsion [CA]-CB--CG-[CD] |==|  0.66919
USER: genes 30 Torsion [CB]-CG--CD-[OE1] |==|  0.49801
ROOT
ATOM      1  CA  ARG C 843       3.874   9.364   9.913  1.00 48.28 LIG 0.18  C 
ENDROOT
BRANCH 1 2
ATOM      2  C   ARG C 843       3.154   8.111   9.424  1.00 51.26 LIG 0.24  C 
ATOM      3  N   SER C 844       2.115   8.299   8.594  1.00 48.21 LIG-0.34  N 
ATOM      4 H    SER C 844       1.836   9.076   8.354  1.00 48.21 LIG 0.16  HD
ATOM      5 O    ARG C 843       3.528   6.995   9.801  1.00 49.46 LIG-0.27  OA
BRANCH 3 6
ATOM      6  CA  SER C 844       1.349   7.191   8.012  1.00 48.58 LIG 0.20  C 
BRANCH 6 7
ATOM      7  CB  SER C 844       0.597   6.423   9.099  1.00 52.82 LIG 0.20  C 
BRANCH 7 8
ATOM      8 OG   SER C 844       1.360   5.353   9.637  1.00 64.87 LIG-0.40  OA
ATOM      9 HG   SER C 844       2.163   5.588   9.705  1.00 64.87 LIG 0.21  HD
ENDBRANCH 7 8
ENDBRANCH 6 7
BRANCH 6 10
ATOM     10  C   SER C 844       0.372   7.709   6.953  1.00 51.88 LIG 0.24  C 
ATOM     11  N   PHE C 845      -0.919   7.357   7.091  1.00 48.65 LIG-0.35  N 
ATOM     12 H    PHE C 845      -1.199   6.833   7.713  1.00 48.65 LIG 0.16  HD
ATOM     13 O    SER C 844       0.788   8.405   6.021  1.00 50.80 LIG-0.27  OA
BRANCH 11 14
ATOM     14  CA  PHE C 845      -1.979   7.829   6.199  1.00 48.60 LIG 0.18  C 
BRANCH 14 15
ATOM     15  CB  PHE C 845      -3.344   7.181   6.540  1.00 50.69 LIG 0.07  C 
BRANCH 15 16
ATOM     16  CG  PHE C 845      -4.385   7.025   5.442  1.00 53.32 LIG-0.06  A 
ATOM     17  CD2 PHE C 845      -5.193   5.896   5.385  1.00 56.28 LIG 0.01  A 
ATOM     18  CE2 PHE C 845      -6.155   5.745   4.376  1.00 59.52 LIG 0.00  A 
ATOM     19  CZ  PHE C 845      -6.284   6.702   3.401  1.00 57.95 LIG 0.00  A 
ATOM     20  CE1 PHE C 845      -5.482   7.825   3.428  1.00 59.50 LIG 0.00  A 
ATOM     21  CD1 PHE C 845      -4.522   7.978   4.438  1.00 58.05 LIG 0.01  A 
ENDBRANCH 15 16
ENDBRANCH 14 15
BRANCH 14 22
ATOM     22  C   PHE C 845      -2.005   9.359   6.295  1.00 51.55 LIG 0.24  C 
ATOM     23 O    PHE C 845      -2.423   9.922   7.314  1.00 49.31 LIG-0.27  OA
ATOM     24  N   SER C 846      -1.488  10.017   5.241  1.00 48.84 LIG-0.34  N 
ATOM     25 H    SER C 846      -1.171   9.611   4.552  1.00 48.84 LIG 0.16  HD
BRANCH 24 26
ATOM     26  CA  SER C 846      -1.402  11.474   5.137  1.00 80.27 LIG 0.19  C 
BRANCH 26 27
ATOM     27  CB  SER C 846      -2.794  12.095   5.208  1.00 83.79 LIG 0.20  C 
BRANCH 27 28
ATOM     28 OG   SER C 846      -3.481  11.971   3.973  1.00 92.96 LIG-0.40  OA
ATOM     29 HG   SER C 846      -4.310  12.011   4.108  1.00 92.96 LIG 0.21  HD
ENDBRANCH 27 28
ENDBRANCH 26 27
BRANCH 26 30
ATOM     30  C   SER C 846      -0.516  12.042   6.236  1.00107.57 LIG 0.22  C 
ATOM     31 O    SER C 846       0.685  11.783   6.249  1.00 73.66 LIG-0.29  OA
ENDBRANCH 26 30
ENDBRANCH 24 26
ENDBRANCH 14 22
ENDBRANCH 11 14
ENDBRANCH 6 10
ENDBRANCH 3 6
ENDBRANCH 1 2
BRANCH 1 32
ATOM     32  CB  ARG C 843       4.559  10.090   8.719  1.00 50.74 LIG 0.04  C 
BRANCH 32 33
ATOM     33  CG  ARG C 843       6.080  10.248   8.861  1.00 63.97 LIG 0.02  C 
BRANCH 33 34
ATOM     34  CD  ARG C 843       6.499  11.479   9.631  1.00 82.46 LIG 0.14  C 
BRANCH 34 35
ATOM     35  NE  ARG C 843       5.911  12.679   9.042  1.00 98.18 LIG-0.23  N 
ATOM     36 HE   ARG C 843       5.370  13.139   9.528  1.00 98.18 LIG 0.18  HD
ATOM     37  CZ  ARG C 843       6.153  13.109   7.809  1.00115.63 LIG 0.67  C 
ATOM     38  NH2 ARG C 843       5.595  14.225   7.368  1.00101.74 LIG-0.23  N 
ATOM     39  NH1 ARG C 843       6.951  12.418   7.001  1.00105.44 LIG-0.23  N 
ATOM     40 1HH2 ARG C 843       5.073  14.676   7.881  1.00101.74 LIG 0.17  HD
ATOM     41 2HH2 ARG C 843       5.755  14.499   6.569  1.00101.74 LIG 0.17  HD
ATOM     42 1HH1 ARG C 843       7.313  11.688   7.276  1.00105.44 LIG 0.17  HD
ATOM     43 2HH1 ARG C 843       7.105  12.700   6.204  1.00105.44 LIG 0.17  HD
ENDBRANCH 34 35
ENDBRANCH 33 34
ENDBRANCH 32 33
ENDBRANCH 1 32
BRANCH 1 44
ATOM     44  N   ARG C 843       4.842   9.029  10.966  1.00 47.52 LIG-0.35  N 
ATOM     45  C   LYS C 842       4.464   8.734  12.218  1.00 51.06 LIG 0.24  C 
ATOM     46 O    LYS C 842       3.284   8.711  12.579  1.00 51.08 LIG-0.27  OA
ATOM     47 H    ARG C 843       5.661   9.039  10.707  1.00 47.52 LIG 0.16  HD
BRANCH 45 48
ATOM     48  CA  LYS C 842       5.562   8.423  13.222  1.00 46.69 LIG 0.18  C 
BRANCH 48 49
ATOM     49  CB  LYS C 842       5.762   9.615  14.176  1.00 47.71 LIG 0.04  C 
BRANCH 49 50
ATOM     50  CG  LYS C 842       5.350  10.960  13.601  1.00 50.03 LIG 0.00  C 
BRANCH 50 51
ATOM     51  CD  LYS C 842       6.570  11.835  13.370  1.00 53.65 LIG 0.03  C 
BRANCH 51 52
ATOM     52  CE  LYS C 842       6.276  12.915  12.361  1.00 52.95 LIG 0.23  C 
BRANCH 52 53
ATOM     53  NZ  LYS C 842       5.822  14.172  12.999  1.00 44.67 LIG-0.08  N 
ATOM     54 HZ3  LYS C 842       5.993  14.141  13.872  1.00 44.67 LIG 0.27  HD
ATOM     55 HZ2  LYS C 842       4.947  14.271  12.873  1.00 44.67 LIG 0.27  HD
ATOM     56 HZ1  LYS C 842       6.254  14.862  12.637  1.00 44.67 LIG 0.27  HD
ENDBRANCH 52 53
ENDBRANCH 51 52
ENDBRANCH 50 51
ENDBRANCH 49 50
ENDBRANCH 48 49
BRANCH 48 57
ATOM     57  N   LYS C 842       6.795   8.085  12.512  1.00 47.24 LIG-0.35  N 
ATOM     58 H    LYS C 842       7.122   8.748  12.074  1.00 47.24 LIG 0.16  HD
ATOM     59  C   GLN C 841       7.375   6.876  12.526  1.00 52.93 LIG 0.26  C 
ATOM     60 O    GLN C 841       6.948   5.926  13.189  1.00 51.68 LIG-0.27  OA
BRANCH 59 61
ATOM     61  CA  GLN C 841       8.663   6.731  11.710  1.00 52.44 LIG 0.40  C 
ATOM     62  N   GLN C 841       8.354   6.756  10.280  1.00 53.67 LIG 0.61  N 
BRANCH 61 63
ATOM     63  CB  GLN C 841       9.676   7.840  12.074  1.00 53.85 LIG 0.06  C 
BRANCH 63 64
ATOM     64  CG  GLN C 841      10.051   7.916  13.563  1.00 74.06 LIG 0.10  C 
BRANCH 64 65
ATOM     65  CD  GLN C 841       9.708   9.230  14.243  1.00 99.82 LIG 0.21  C 
ATOM     66 OE1  GLN C 841       9.939   9.431  15.444  1.00 97.42 LIG-0.27  OA
ATOM     67  NE2 GLN C 841       9.189  10.173  13.470  1.00 91.89 LIG-0.37  N 
ATOM     68 22HE GLN C 841       9.006  10.946  13.799  1.00 91.89 LIG 0.16  HD
ATOM     69 21HE GLN C 841       9.036  10.013  12.639  1.00 91.89 LIG 0.16  HD
ENDBRANCH 64 65
ENDBRANCH 63 64
ENDBRANCH 61 63
ENDBRANCH 59 61
ENDBRANCH 48 57
ENDBRANCH 45 48
ENDBRANCH 1 44
TORSDOF 29
ENDMDL
MODEL 20
USER: ADFR SOLUTION from run 187
USER: SCORE 19.830345 LL:  -3.700 LR: -18.146 RR:   0.000 FEB:  -9.495
USER: RMSD 11.904469
USER: SEED 186
USER: STATUS no improvement in best in 3 clusters for 5 generations
USER: GENES 31
USER: genes 0 Translation |==|  0.64900 0.69215 0.54439
USER: genes 1 Rotation |==|  0.71828 0.93823 0.44035 0.58214
USER: genes 2 Torsion [N]-CA--C-[N] |==|  0.51869
USER: genes 3 Torsion [C]-N--CA-[CB] |==|  0.18592
USER: genes 4 Torsion [N]-CA--CB-[OG] |==|  0.75409
USER: genes 5 Torsion [CA]-CB--OG-[HG] |==|  0.14560
USER: genes 6 Torsion [N]-CA--C-[N] |==|  0.63738
USER: genes 7 Torsion [C]-N--CA-[CB] |==|  0.51802
USER: genes 8 Torsion [N]-CA--CB-[CG] |==|  0.57742
USER: genes 9 Torsion [CA]-CB--CG-[CD2] |==|  0.38897
USER: genes 10 Torsion [N]-CA--C-[N] |==|  0.30000
USER: genes 11 Torsion [C]-N--CA-[CB] |==|  0.83307
USER: genes 12 Torsion [N]-CA--CB-[OG] |==|  0.79054
USER: genes 13 Torsion [CA]-CB--OG-[HG] |==|  0.39789
USER: genes 14 Torsion [N]-CA--C-[O] |==|  0.18755
USER: genes 15 Torsion [C]-CA--CB-[CG] |==|  0.52128
USER: genes 16 Torsion [CA]-CB--CG-[CD] |==|  0.95591
USER: genes 17 Torsion [CB]-CG--CD-[NE] |==|  0.54715
USER: genes 18 Torsion [CG]-CD--NE-[CZ] |==|  0.69410
USER: genes 19 Torsion [C]-CA--N-[C] |==|  0.77496
USER: genes 20 Torsion [N]-C--CA-[N] |==|  0.09280
USER: genes 21 Torsion [C]-CA--CB-[CG] |==|  0.42683
USER: genes 22 Torsion [CA]-CB--CG-[CD] |==|  0.42373
USER: genes 23 Torsion [CB]-CG--CD-[CE] |==|  0.33418
USER: genes 24 Torsion [CG]-CD--CE-[NZ] |==|  0.50093
USER: genes 25 Torsion [CD]-CE--NZ-[HZ2] |==|  0.75814
USER: genes 26 Torsion [C]-CA--N-[C] |==|  0.66979
USER: genes 27 Torsion [N]-C--CA-[N] |==|  0.33662
USER: genes 28 Torsion [C]-CA--CB-[CG] |==|  0.16354
USER: genes 29 Torsion [CA]-CB--CG-[CD] |==|  0.70869
USER: genes 30 Torsion [CB]-CG--CD-[OE1] |==|  0.28671
ROOT
ATOM      1  CA  ARG C 843       3.765   9.020  10.381  1.00 48.28 LIG 0.18  C 
ENDROOT
BRANCH 1 2
ATOM      2  C   ARG C 843       3.093   7.814   9.733  1.00 51.26 LIG 0.24  C 
ATOM      3  N   SER C 844       2.075   8.070   8.894  1.00 48.21 LIG-0.34  N 
ATOM      4 H    SER C 844       1.785   8.863   8.732  1.00 48.21 LIG 0.16  HD
ATOM      5 O    ARG C 843       3.482   6.671   9.999  1.00 49.46 LIG-0.27  OA
BRANCH 3 6
ATOM      6  CA  SER C 844       1.357   7.017   8.169  1.00 48.58 LIG 0.20  C 
BRANCH 6 7
ATOM      7  CB  SER C 844       0.568   6.133   9.136  1.00 52.82 LIG 0.20  C 
BRANCH 7 8
ATOM      8 OG   SER C 844       1.336   5.045   9.628  1.00 64.87 LIG-0.40  OA
ATOM      9 HG   SER C 844       2.059   5.332   9.945  1.00 64.87 LIG 0.21  HD
ENDBRANCH 7 8
ENDBRANCH 6 7
BRANCH 6 10
ATOM     10  C   SER C 844       0.421   7.627   7.121  1.00 51.88 LIG 0.24  C 
ATOM     11  N   PHE C 845      -0.850   7.187   7.110  1.00 48.65 LIG-0.35  N 
ATOM     12 H    PHE C 845      -1.136   6.563   7.630  1.00 48.65 LIG 0.16  HD
ATOM     13 O    SER C 844       0.850   8.472   6.330  1.00 50.80 LIG-0.27  OA
BRANCH 11 14
ATOM     14  CA  PHE C 845      -1.878   7.722   6.215  1.00 48.60 LIG 0.18  C 
BRANCH 14 15
ATOM     15  CB  PHE C 845      -3.277   7.140   6.537  1.00 50.69 LIG 0.07  C 
BRANCH 15 16
ATOM     16  CG  PHE C 845      -4.308   7.033   5.424  1.00 53.32 LIG-0.06  A 
ATOM     17  CD2 PHE C 845      -5.135   5.921   5.327  1.00 56.28 LIG 0.01  A 
ATOM     18  CE2 PHE C 845      -6.089   5.815   4.305  1.00 59.52 LIG 0.00  A 
ATOM     19  CZ  PHE C 845      -6.190   6.800   3.355  1.00 57.95 LIG 0.00  A 
ATOM     20  CE1 PHE C 845      -5.368   7.907   3.422  1.00 59.50 LIG 0.00  A 
ATOM     21  CD1 PHE C 845      -4.416   8.016   4.446  1.00 58.05 LIG 0.01  A 
ENDBRANCH 15 16
ENDBRANCH 14 15
BRANCH 14 22
ATOM     22  C   PHE C 845      -1.828   9.250   6.330  1.00 51.55 LIG 0.24  C 
ATOM     23 O    PHE C 845      -2.181   9.819   7.370  1.00 49.31 LIG-0.27  OA
ATOM     24  N   SER C 846      -1.318   9.898   5.266  1.00 48.84 LIG-0.34  N 
ATOM     25 H    SER C 846      -1.046   9.486   4.561  1.00 48.84 LIG 0.16  HD
BRANCH 24 26
ATOM     26  CA  SER C 846      -1.167  11.350   5.176  1.00 80.27 LIG 0.19  C 
BRANCH 26 27
ATOM     27  CB  SER C 846      -2.524  12.035   5.307  1.00 83.79 LIG 0.20  C 
BRANCH 27 28
ATOM     28 OG   SER C 846      -3.285  11.908   4.117  1.00 92.96 LIG-0.40  OA
ATOM     29 HG   SER C 846      -4.097  11.808   4.312  1.00 92.96 LIG 0.21  HD
ENDBRANCH 27 28
ENDBRANCH 26 27
BRANCH 26 30
ATOM     30  C   SER C 846      -0.215  11.861   6.248  1.00107.57 LIG 0.22  C 
ATOM     31 O    SER C 846       0.978  11.568   6.197  1.00 73.66 LIG-0.29  OA
ENDBRANCH 26 30
ENDBRANCH 24 26
ENDBRANCH 14 22
ENDBRANCH 11 14
ENDBRANCH 6 10
ENDBRANCH 3 6
ENDBRANCH 1 2
BRANCH 1 32
ATOM     32  CB  ARG C 843       4.121  10.081   9.300  1.00 50.74 LIG 0.04  C 
BRANCH 32 33
ATOM     33  CG  ARG C 843       4.967  11.254   9.817  1.00 63.97 LIG 0.02  C 
BRANCH 33 34
ATOM     34  CD  ARG C 843       4.988  11.377  11.323  1.00 82.46 LIG 0.14  C 
BRANCH 34 35
ATOM     35  NE  ARG C 843       5.454  12.702  11.724  1.00 98.18 LIG-0.23  N 
ATOM     36 HE   ARG C 843       4.937  13.372  11.572  1.00 98.18 LIG 0.18  HD
ATOM     37  CZ  ARG C 843       6.623  12.943  12.309  1.00115.63 LIG 0.67  C 
ATOM     38  NH2 ARG C 843       6.951  14.175  12.663  1.00101.74 LIG-0.23  N 
ATOM     39  NH1 ARG C 843       7.478  11.952  12.535  1.00105.44 LIG-0.23  N 
ATOM     40 1HH2 ARG C 843       6.407  14.825  12.516  1.00101.74 LIG 0.17  HD
ATOM     41 2HH2 ARG C 843       7.709  14.326  13.042  1.00101.74 LIG 0.17  HD
ATOM     42 1HH1 ARG C 843       7.277  11.149  12.302  1.00105.44 LIG 0.17  HD
ATOM     43 2HH1 ARG C 843       8.233  12.113  12.913  1.00105.44 LIG 0.17  HD
ENDBRANCH 34 35
ENDBRANCH 33 34
ENDBRANCH 32 33
ENDBRANCH 1 32
BRANCH 1 44
ATOM     44  N   ARG C 843       4.952   8.606  11.142  1.00 47.52 LIG-0.35  N 
ATOM     45  C   LYS C 842       4.868   8.099  12.380  1.00 51.06 LIG 0.24  C 
ATOM     46 O    LYS C 842       3.797   7.931  12.969  1.00 51.08 LIG-0.27  OA
ATOM     47 H    ARG C 843       5.694   8.719  10.723  1.00 47.52 LIG 0.16  HD
BRANCH 45 48
ATOM     48  CA  LYS C 842       6.171   7.727  13.069  1.00 46.69 LIG 0.18  C 
BRANCH 48 49
ATOM     49  CB  LYS C 842       5.980   7.724  14.597  1.00 47.71 LIG 0.04  C 
BRANCH 49 50
ATOM     50  CG  LYS C 842       6.931   6.808  15.349  1.00 50.03 LIG 0.00  C 
BRANCH 50 51
ATOM     51  CD  LYS C 842       7.162   7.325  16.760  1.00 53.65 LIG 0.03  C 
BRANCH 51 52
ATOM     52  CE  LYS C 842       6.734   6.306  17.784  1.00 52.95 LIG 0.23  C 
BRANCH 52 53
ATOM     53  NZ  LYS C 842       6.939   6.783  19.171  1.00 44.67 LIG-0.08  N 
ATOM     54 HZ3  LYS C 842       6.817   7.664  19.204  1.00 44.67 LIG 0.27  HD
ATOM     55 HZ2  LYS C 842       7.767   6.590  19.433  1.00 44.67 LIG 0.27  HD
ATOM     56 HZ1  LYS C 842       6.356   6.382  19.712  1.00 44.67 LIG 0.27  HD
ENDBRANCH 52 53
ENDBRANCH 51 52
ENDBRANCH 50 51
ENDBRANCH 49 50
ENDBRANCH 48 49
BRANCH 48 57
ATOM     57  N   LYS C 842       7.226   8.650  12.656  1.00 47.24 LIG-0.35  N 
ATOM     58 H    LYS C 842       7.059   9.466  12.867  1.00 47.24 LIG 0.16  HD
ATOM     59  C   GLN C 841       8.347   8.288  12.014  1.00 52.93 LIG 0.26  C 
ATOM     60 O    GLN C 841       8.628   7.116  11.747  1.00 51.68 LIG-0.27  OA
BRANCH 59 61
ATOM     61  CA  GLN C 841       9.325   9.415  11.668  1.00 52.44 LIG 0.40  C 
ATOM     62  N   GLN C 841      10.625   9.156  12.287  1.00 53.67 LIG 0.61  N 
BRANCH 61 63
ATOM     63  CB  GLN C 841       9.466   9.574  10.137  1.00 53.85 LIG 0.06  C 
BRANCH 63 64
ATOM     64  CG  GLN C 841       8.157   9.884   9.391  1.00 74.06 LIG 0.10  C 
BRANCH 64 65
ATOM     65  CD  GLN C 841       7.570   8.716   8.619  1.00 99.82 LIG 0.21  C 
ATOM     66 OE1  GLN C 841       6.597   8.072   9.037  1.00 97.42 LIG-0.27  OA
ATOM     67  NE2 GLN C 841       8.124   8.450   7.445  1.00 91.89 LIG-0.37  N 
ATOM     68 22HE GLN C 841       7.808   7.819   6.954  1.00 91.89 LIG 0.16  HD
ATOM     69 21HE GLN C 841       8.798   8.909   7.173  1.00 91.89 LIG 0.16  HD
ENDBRANCH 64 65
ENDBRANCH 63 64
ENDBRANCH 61 63
ENDBRANCH 59 61
ENDBRANCH 48 57
ENDBRANCH 45 48
ENDBRANCH 1 44
TORSDOF 29
ENDMDL
MODEL 21
USER: ADFR SOLUTION from run 177
USER: SCORE 19.308942 LL:  -3.470 LR: -18.057 RR:   0.000 FEB:  -9.407
USER: RMSD 7.252983
USER: SEED 176
USER: STATUS no improvement in best in 8 clusters for 5 generations
USER: GENES 31
USER: genes 0 Translation |==|  0.55453 0.40139 0.50694
USER: genes 1 Rotation |==|  0.31291 0.80383 0.22398 0.71563
USER: genes 2 Torsion [N]-CA--C-[N] |==|  0.38223
USER: genes 3 Torsion [C]-N--CA-[CB] |==|  0.41519
USER: genes 4 Torsion [N]-CA--CB-[OG] |==|  0.72842
USER: genes 5 Torsion [CA]-CB--OG-[HG] |==|  0.85216
USER: genes 6 Torsion [N]-CA--C-[N] |==|  0.99444
USER: genes 7 Torsion [C]-N--CA-[CB] |==|  0.52887
USER: genes 8 Torsion [N]-CA--CB-[CG] |==|  0.25981
USER: genes 9 Torsion [CA]-CB--CG-[CD2] |==|  0.87478
USER: genes 10 Torsion [N]-CA--C-[N] |==|  0.42554
USER: genes 11 Torsion [C]-N--CA-[CB] |==|  0.77043
USER: genes 12 Torsion [N]-CA--CB-[OG] |==|  0.91904
USER: genes 13 Torsion [CA]-CB--OG-[HG] |==|  0.06235
USER: genes 14 Torsion [N]-CA--C-[O] |==|  0.56915
USER: genes 15 Torsion [C]-CA--CB-[CG] |==|  0.13603
USER: genes 16 Torsion [CA]-CB--CG-[CD] |==|  0.46507
USER: genes 17 Torsion [CB]-CG--CD-[NE] |==|  0.62242
USER: genes 18 Torsion [CG]-CD--NE-[CZ] |==|  0.23733
USER: genes 19 Torsion [C]-CA--N-[C] |==|  0.74124
USER: genes 20 Torsion [N]-C--CA-[N] |==|  0.30320
USER: genes 21 Torsion [C]-CA--CB-[CG] |==|  0.33721
USER: genes 22 Torsion [CA]-CB--CG-[CD] |==|  0.73272
USER: genes 23 Torsion [CB]-CG--CD-[CE] |==|  0.67186
USER: genes 24 Torsion [CG]-CD--CE-[NZ] |==|  0.23245
USER: genes 25 Torsion [CD]-CE--NZ-[HZ2] |==|  0.27213
USER: genes 26 Torsion [C]-CA--N-[C] |==|  0.79439
USER: genes 27 Torsion [N]-C--CA-[N] |==|  0.50536
USER: genes 28 Torsion [C]-CA--CB-[CG] |==|  0.38401
USER: genes 29 Torsion [CA]-CB--CG-[CD] |==|  0.30527
USER: genes 30 Torsion [CB]-CG--CD-[OE1] |==|  0.60695
ROOT
ATOM      1  CA  ARG C 843       1.498   2.259   9.426  1.00 48.28 LIG 0.18  C 
ENDROOT
BRANCH 1 2
ATOM      2  C   ARG C 843       2.396   2.039  10.638  1.00 51.26 LIG 0.24  C 
ATOM      3  N   SER C 844       1.862   1.360  11.668  1.00 48.21 LIG-0.34  N 
ATOM      4 H    SER C 844       1.052   1.074  11.675  1.00 48.21 LIG 0.16  HD
ATOM      5 O    ARG C 843       3.547   2.487  10.645  1.00 49.46 LIG-0.27  OA
BRANCH 3 6
ATOM      6  CA  SER C 844       2.614   1.038  12.885  1.00 48.58 LIG 0.20  C 
BRANCH 6 7
ATOM      7  CB  SER C 844       1.684   0.977  14.097  1.00 52.82 LIG 0.20  C 
BRANCH 7 8
ATOM      8 OG   SER C 844       1.686   2.183  14.847  1.00 64.87 LIG-0.40  OA
ATOM      9 HG   SER C 844       2.476   2.387  15.046  1.00 64.87 LIG 0.21  HD
ENDBRANCH 7 8
ENDBRANCH 6 7
BRANCH 6 10
ATOM     10  C   SER C 844       3.363  -0.287  12.721  1.00 51.88 LIG 0.24  C 
ATOM     11  N   PHE C 845       3.192  -0.944  11.560  1.00 48.65 LIG-0.35  N 
ATOM     12 H    PHE C 845       2.660  -0.673  10.941  1.00 48.65 LIG 0.16  HD
ATOM     13 O    SER C 844       4.074  -0.710  13.639  1.00 50.80 LIG-0.27  OA
BRANCH 11 14
ATOM     14  CA  PHE C 845       3.893  -2.187  11.229  1.00 48.60 LIG 0.18  C 
BRANCH 14 15
ATOM     15  CB  PHE C 845       3.700  -2.574   9.742  1.00 50.69 LIG 0.07  C 
BRANCH 15 16
ATOM     16  CG  PHE C 845       4.736  -2.129   8.721  1.00 53.32 LIG-0.06  A 
ATOM     17  CD2 PHE C 845       5.226  -0.829   8.727  1.00 56.28 LIG 0.01  A 
ATOM     18  CE2 PHE C 845       6.182  -0.412   7.789  1.00 59.52 LIG 0.00  A 
ATOM     19  CZ  PHE C 845       6.620  -1.280   6.821  1.00 57.95 LIG 0.00  A 
ATOM     20  CE1 PHE C 845       6.136  -2.573   6.787  1.00 59.50 LIG 0.00  A 
ATOM     21  CD1 PHE C 845       5.182  -2.992   7.726  1.00 58.05 LIG 0.01  A 
ENDBRANCH 15 16
ENDBRANCH 14 15
BRANCH 14 22
ATOM     22  C   PHE C 845       5.366  -1.990  11.607  1.00 51.55 LIG 0.24  C 
ATOM     23 O    PHE C 845       5.856  -0.857  11.677  1.00 49.31 LIG-0.27  OA
ATOM     24  N   SER C 846       6.043  -3.113  11.914  1.00 48.84 LIG-0.34  N 
ATOM     25 H    SER C 846       5.679  -3.892  11.893  1.00 48.84 LIG 0.16  HD
BRANCH 24 26
ATOM     26  CA  SER C 846       7.450  -3.147  12.315  1.00 80.27 LIG 0.19  C 
BRANCH 26 27
ATOM     27  CB  SER C 846       8.353  -3.117  11.086  1.00 83.79 LIG 0.20  C 
BRANCH 27 28
ATOM     28 OG   SER C 846       7.721  -3.713   9.964  1.00 92.96 LIG-0.40  OA
ATOM     29 HG   SER C 846       6.888  -3.698  10.071  1.00 92.96 LIG 0.21  HD
ENDBRANCH 27 28
ENDBRANCH 26 27
BRANCH 26 30
ATOM     30  C   SER C 846       7.777  -1.980  13.236  1.00107.57 LIG 0.22  C 
ATOM     31 O    SER C 846       8.931  -1.565  13.311  1.00 73.66 LIG-0.29  OA
ENDBRANCH 26 30
ENDBRANCH 24 26
ENDBRANCH 14 22
ENDBRANCH 11 14
ENDBRANCH 6 10
ENDBRANCH 3 6
ENDBRANCH 1 2
BRANCH 1 32
ATOM     32  CB  ARG C 843       1.813   1.206   8.325  1.00 50.74 LIG 0.04  C 
BRANCH 32 33
ATOM     33  CG  ARG C 843       1.867  -0.244   8.831  1.00 63.97 LIG 0.02  C 
BRANCH 33 34
ATOM     34  CD  ARG C 843       1.873  -1.277   7.728  1.00 82.46 LIG 0.14  C 
BRANCH 34 35
ATOM     35  NE  ARG C 843       0.960  -2.373   8.044  1.00 98.18 LIG-0.23  N 
ATOM     36 HE   ARG C 843       1.288  -3.069   8.428  1.00 98.18 LIG 0.18  HD
ATOM     37  CZ  ARG C 843      -0.342  -2.367   7.780  1.00115.63 LIG 0.67  C 
ATOM     38  NH2 ARG C 843      -1.099  -3.396   8.129  1.00101.74 LIG-0.23  N 
ATOM     39  NH1 ARG C 843      -0.897  -1.334   7.155  1.00105.44 LIG-0.23  N 
ATOM     40 1HH2 ARG C 843      -0.748  -4.072   8.529  1.00101.74 LIG 0.17  HD
ATOM     41 2HH2 ARG C 843      -1.941  -3.388   7.956  1.00101.74 LIG 0.17  HD
ATOM     42 1HH1 ARG C 843      -0.413  -0.664   6.919  1.00105.44 LIG 0.17  HD
ATOM     43 2HH1 ARG C 843      -1.740  -1.336   6.987  1.00105.44 LIG 0.17  HD
ENDBRANCH 34 35
ENDBRANCH 33 34
ENDBRANCH 32 33
ENDBRANCH 1 32
BRANCH 1 44
ATOM     44  N   ARG C 843       1.640   3.630   8.916  1.00 47.52 LIG-0.35  N 
ATOM     45  C   LYS C 842       0.832   4.626   9.305  1.00 51.06 LIG 0.24  C 
ATOM     46 O    LYS C 842      -0.081   4.475  10.121  1.00 51.08 LIG-0.27  OA
ATOM     47 H    ARG C 843       2.283   3.730   8.354  1.00 47.52 LIG 0.16  HD
BRANCH 45 48
ATOM     48  CA  LYS C 842       1.070   5.996   8.690  1.00 46.69 LIG 0.18  C 
BRANCH 48 49
ATOM     49  CB  LYS C 842       1.210   7.057   9.797  1.00 47.71 LIG 0.04  C 
BRANCH 49 50
ATOM     50  CG  LYS C 842       2.528   7.813   9.783  1.00 50.03 LIG 0.00  C 
BRANCH 50 51
ATOM     51  CD  LYS C 842       3.510   7.187  10.760  1.00 53.65 LIG 0.03  C 
BRANCH 51 52
ATOM     52  CE  LYS C 842       3.894   8.166  11.839  1.00 52.95 LIG 0.23  C 
BRANCH 52 53
ATOM     53  NZ  LYS C 842       2.910   8.200  12.945  1.00 44.67 LIG-0.08  N 
ATOM     54 HZ3  LYS C 842       2.814   9.037  13.232  1.00 44.67 LIG 0.27  HD
ATOM     55 HZ2  LYS C 842       3.196   7.689  13.614  1.00 44.67 LIG 0.27  HD
ATOM     56 HZ1  LYS C 842       2.125   7.895  12.653  1.00 44.67 LIG 0.27  HD
ENDBRANCH 52 53
ENDBRANCH 51 52
ENDBRANCH 50 51
ENDBRANCH 49 50
ENDBRANCH 48 49
BRANCH 48 57
ATOM     57  N   LYS C 842      -0.018   6.316   7.767  1.00 47.24 LIG-0.35  N 
ATOM     58 H    LYS C 842      -0.561   6.904   8.080  1.00 47.24 LIG 0.16  HD
ATOM     59  C   GLN C 841      -0.175   5.765   6.554  1.00 52.93 LIG 0.26  C 
ATOM     60 O    GLN C 841       0.621   4.957   6.067  1.00 51.68 LIG-0.27  OA
BRANCH 59 61
ATOM     61  CA  GLN C 841      -1.387   6.237   5.746  1.00 52.44 LIG 0.40  C 
ATOM     62  N   GLN C 841      -1.449   5.519   4.473  1.00 53.67 LIG 0.61  N 
BRANCH 61 63
ATOM     63  CB  GLN C 841      -2.694   6.051   6.548  1.00 53.85 LIG 0.06  C 
BRANCH 63 64
ATOM     64  CG  GLN C 841      -3.693   7.216   6.447  1.00 74.06 LIG 0.10  C 
BRANCH 64 65
ATOM     65  CD  GLN C 841      -4.955   6.909   5.660  1.00 99.82 LIG 0.21  C 
ATOM     66 OE1  GLN C 841      -5.482   7.742   4.908  1.00 97.42 LIG-0.27  OA
ATOM     67  NE2 GLN C 841      -5.440   5.682   5.782  1.00 91.89 LIG-0.37  N 
ATOM     68 22HE GLN C 841      -6.135   5.448   5.333  1.00 91.89 LIG 0.16  HD
ATOM     69 21HE GLN C 841      -5.059   5.120   6.309  1.00 91.89 LIG 0.16  HD
ENDBRANCH 64 65
ENDBRANCH 63 64
ENDBRANCH 61 63
ENDBRANCH 59 61
ENDBRANCH 48 57
ENDBRANCH 45 48
ENDBRANCH 1 44
TORSDOF 29
ENDMDL
MODEL 22
USER: ADFR SOLUTION from run 23
USER: SCORE 19.930776 LL:  -4.766 LR: -17.980 RR:   0.000 FEB:  -9.329
USER: RMSD 7.363810
USER: SEED 22
USER: STATUS no improvement in best in 8 clusters for 5 generations
USER: GENES 31
USER: genes 0 Translation |==|  0.64665 0.64458 0.57168
USER: genes 1 Rotation |==|  0.37651 0.12604 0.39878 0.79097
USER: genes 2 Torsion [N]-CA--C-[N] |==|  0.11299
USER: genes 3 Torsion [C]-N--CA-[CB] |==|  0.35350
USER: genes 4 Torsion [N]-CA--CB-[OG] |==|  0.61159
USER: genes 5 Torsion [CA]-CB--OG-[HG] |==|  0.03051
USER: genes 6 Torsion [N]-CA--C-[N] |==|  0.78621
USER: genes 7 Torsion [C]-N--CA-[CB] |==|  0.49461
USER: genes 8 Torsion [N]-CA--CB-[CG] |==|  0.51198
USER: genes 9 Torsion [CA]-CB--CG-[CD2] |==|  0.73342
USER: genes 10 Torsion [N]-CA--C-[N] |==|  0.37779
USER: genes 11 Torsion [C]-N--CA-[CB] |==|  0.82977
USER: genes 12 Torsion [N]-CA--CB-[OG] |==|  0.79656
USER: genes 13 Torsion [CA]-CB--OG-[HG] |==|  0.02737
USER: genes 14 Torsion [N]-CA--C-[O] |==|  0.50595
USER: genes 15 Torsion [C]-CA--CB-[CG] |==|  0.56195
USER: genes 16 Torsion [CA]-CB--CG-[CD] |==|  0.50929
USER: genes 17 Torsion [CB]-CG--CD-[NE] |==|  0.59317
USER: genes 18 Torsion [CG]-CD--NE-[CZ] |==|  0.79533
USER: genes 19 Torsion [C]-CA--N-[C] |==|  0.15346
USER: genes 20 Torsion [N]-C--CA-[N] |==|  0.13227
USER: genes 21 Torsion [C]-CA--CB-[CG] |==|  0.30312
USER: genes 22 Torsion [CA]-CB--CG-[CD] |==|  0.77029
USER: genes 23 Torsion [CB]-CG--CD-[CE] |==|  0.24831
USER: genes 24 Torsion [CG]-CD--CE-[NZ] |==|  0.41575
USER: genes 25 Torsion [CD]-CE--NZ-[HZ2] |==|  0.96000
USER: genes 26 Torsion [C]-CA--N-[C] |==|  0.18329
USER: genes 27 Torsion [N]-C--CA-[N] |==|  0.98811
USER: genes 28 Torsion [C]-CA--CB-[CG] |==|  0.73241
USER: genes 29 Torsion [CA]-CB--CG-[CD] |==|  0.17489
USER: genes 30 Torsion [CB]-CG--CD-[OE1] |==|  0.78806
ROOT
ATOM      1  CA  ARG C 843       3.709   7.913  11.077  1.00 48.28 LIG 0.18  C 
ENDROOT
BRANCH 1 2
ATOM      2  C   ARG C 843       2.335   7.447  10.608  1.00 51.26 LIG 0.24  C 
ATOM      3  N   SER C 844       2.313   6.517   9.638  1.00 48.21 LIG-0.34  N 
ATOM      4 H    SER C 844       3.023   6.203   9.269  1.00 48.21 LIG 0.16  HD
ATOM      5 O    ARG C 843       1.313   7.929  11.108  1.00 49.46 LIG-0.27  OA
BRANCH 3 6
ATOM      6  CA  SER C 844       1.070   5.945   9.110  1.00 48.58 LIG 0.20  C 
BRANCH 6 7
ATOM      7  CB  SER C 844       1.023   6.060   7.586  1.00 52.82 LIG 0.20  C 
BRANCH 7 8
ATOM      8 OG   SER C 844      -0.266   6.409   7.106  1.00 64.87 LIG-0.40  OA
ATOM      9 HG   SER C 844      -0.752   6.640   7.750  1.00 64.87 LIG 0.21  HD
ENDBRANCH 7 8
ENDBRANCH 6 7
BRANCH 6 10
ATOM     10  C   SER C 844       0.926   4.482   9.538  1.00 51.88 LIG 0.24  C 
ATOM     11  N   PHE C 845       1.670   3.577   8.876  1.00 48.65 LIG-0.35  N 
ATOM     12 H    PHE C 845       2.177   3.782   8.212  1.00 48.65 LIG 0.16  HD
ATOM     13 O    SER C 844       0.145   4.180  10.446  1.00 50.80 LIG-0.27  OA
BRANCH 11 14
ATOM     14  CA  PHE C 845       1.692   2.153   9.214  1.00 48.60 LIG 0.18  C 
BRANCH 14 15
ATOM     15  CB  PHE C 845       2.600   1.350   8.250  1.00 50.69 LIG 0.07  C 
BRANCH 15 16
ATOM     16  CG  PHE C 845       2.669  -0.163   8.387  1.00 53.32 LIG-0.06  A 
ATOM     17  CD2 PHE C 845       3.686  -0.765   9.117  1.00 56.28 LIG 0.01  A 
ATOM     18  CE2 PHE C 845       3.756  -2.159   9.247  1.00 59.52 LIG 0.00  A 
ATOM     19  CZ  PHE C 845       2.834  -2.956   8.617  1.00 57.95 LIG 0.00  A 
ATOM     20  CE1 PHE C 845       1.822  -2.381   7.874  1.00 59.50 LIG 0.00  A 
ATOM     21  CD1 PHE C 845       1.750  -0.987   7.745  1.00 58.05 LIG 0.01  A 
ENDBRANCH 15 16
ENDBRANCH 14 15
BRANCH 14 22
ATOM     22  C   PHE C 845       2.133   2.043  10.678  1.00 51.55 LIG 0.24  C 
ATOM     23 O    PHE C 845       3.037   2.760  11.123  1.00 49.31 LIG-0.27  OA
ATOM     24  N   SER C 846       1.432   1.177  11.434  1.00 48.84 LIG-0.34  N 
ATOM     25 H    SER C 846       0.784   0.708  11.118  1.00 48.84 LIG 0.16  HD
BRANCH 24 26
ATOM     26  CA  SER C 846       1.679   0.932  12.855  1.00 80.27 LIG 0.19  C 
BRANCH 26 27
ATOM     27  CB  SER C 846       3.088   0.386  13.064  1.00 83.79 LIG 0.20  C 
BRANCH 27 28
ATOM     28 OG   SER C 846       3.191  -0.962  12.632  1.00 92.96 LIG-0.40  OA
ATOM     29 HG   SER C 846       2.494  -1.176  12.214  1.00 92.96 LIG 0.21  HD
ENDBRANCH 27 28
ENDBRANCH 26 27
BRANCH 26 30
ATOM     30  C   SER C 846       1.483   2.206  13.665  1.00107.57 LIG 0.22  C 
ATOM     31 O    SER C 846       1.687   2.198  14.876  1.00 73.66 LIG-0.29  OA
ENDBRANCH 26 30
ENDBRANCH 24 26
ENDBRANCH 14 22
ENDBRANCH 11 14
ENDBRANCH 6 10
ENDBRANCH 3 6
ENDBRANCH 1 2
BRANCH 1 32
ATOM     32  CB  ARG C 843       3.578   9.233  11.891  1.00 50.74 LIG 0.04  C 
BRANCH 32 33
ATOM     33  CG  ARG C 843       4.864  10.071  11.952  1.00 63.97 LIG 0.02  C 
BRANCH 33 34
ATOM     34  CD  ARG C 843       4.749  11.309  12.811  1.00 82.46 LIG 0.14  C 
BRANCH 34 35
ATOM     35  NE  ARG C 843       5.562  12.392  12.264  1.00 98.18 LIG-0.23  N 
ATOM     36 HE   ARG C 843       5.155  13.041  11.875  1.00 98.18 LIG 0.18  HD
ATOM     37  CZ  ARG C 843       6.888  12.443  12.329  1.00115.63 LIG 0.67  C 
ATOM     38  NH2 ARG C 843       7.542  13.480  11.829  1.00101.74 LIG-0.23  N 
ATOM     39  NH1 ARG C 843       7.573  11.450  12.886  1.00105.44 LIG-0.23  N 
ATOM     40 1HH2 ARG C 843       7.108  14.125  11.461  1.00101.74 LIG 0.17  HD
ATOM     41 2HH2 ARG C 843       8.400  13.509  11.873  1.00101.74 LIG 0.17  HD
ATOM     42 1HH1 ARG C 843       7.158  10.769  13.208  1.00105.44 LIG 0.17  HD
ATOM     43 2HH1 ARG C 843       8.431  11.488  12.925  1.00105.44 LIG 0.17  HD
ENDBRANCH 34 35
ENDBRANCH 33 34
ENDBRANCH 32 33
ENDBRANCH 1 32
BRANCH 1 44
ATOM     44  N   ARG C 843       4.621   8.073   9.936  1.00 47.52 LIG-0.35  N 
ATOM     45  C   LYS C 842       4.324   8.852   8.886  1.00 51.06 LIG 0.24  C 
ATOM     46 O    LYS C 842       3.277   9.499   8.800  1.00 51.08 LIG-0.27  OA
ATOM     47 H    ARG C 843       5.351   7.625  10.005  1.00 47.52 LIG 0.16  HD
BRANCH 45 48
ATOM     48  CA  LYS C 842       5.342   8.918   7.760  1.00 46.69 LIG 0.18  C 
BRANCH 48 49
ATOM     49  CB  LYS C 842       4.750   9.668   6.552  1.00 47.71 LIG 0.04  C 
BRANCH 49 50
ATOM     50  CG  LYS C 842       5.348  11.043   6.307  1.00 50.03 LIG 0.00  C 
BRANCH 50 51
ATOM     51  CD  LYS C 842       4.687  12.077   7.203  1.00 53.65 LIG 0.03  C 
BRANCH 51 52
ATOM     52  CE  LYS C 842       5.408  12.191   8.520  1.00 52.95 LIG 0.23  C 
BRANCH 52 53
ATOM     53  NZ  LYS C 842       5.318  13.552   9.096  1.00 44.67 LIG-0.08  N 
ATOM     54 HZ3  LYS C 842       4.745  13.549   9.777  1.00 44.67 LIG 0.27  HD
ATOM     55 HZ2  LYS C 842       5.033  14.120   8.473  1.00 44.67 LIG 0.27  HD
ATOM     56 HZ1  LYS C 842       6.121  13.806   9.385  1.00 44.67 LIG 0.27  HD
ENDBRANCH 52 53
ENDBRANCH 51 52
ENDBRANCH 50 51
ENDBRANCH 49 50
ENDBRANCH 48 49
BRANCH 48 57
ATOM     57  N   LYS C 842       5.769   7.567   7.402  1.00 47.24 LIG-0.35  N 
ATOM     58 H    LYS C 842       6.597   7.418   7.580  1.00 47.24 LIG 0.16  HD
ATOM     59  C   GLN C 841       4.973   6.637   6.854  1.00 52.93 LIG 0.26  C 
ATOM     60 O    GLN C 841       3.771   6.814   6.636  1.00 51.68 LIG-0.27  OA
BRANCH 59 61
ATOM     61  CA  GLN C 841       5.620   5.281   6.552  1.00 52.44 LIG 0.40  C 
ATOM     62  N   GLN C 841       7.051   5.333   6.852  1.00 53.67 LIG 0.61  N 
BRANCH 61 63
ATOM     63  CB  GLN C 841       4.931   4.150   7.347  1.00 53.85 LIG 0.06  C 
BRANCH 63 64
ATOM     64  CG  GLN C 841       5.624   3.762   8.663  1.00 74.06 LIG 0.10  C 
BRANCH 64 65
ATOM     65  CD  GLN C 841       5.680   4.865   9.705  1.00 99.82 LIG 0.21  C 
ATOM     66 OE1  GLN C 841       6.479   5.810   9.624  1.00 97.42 LIG-0.27  OA
ATOM     67  NE2 GLN C 841       4.793   4.791  10.687  1.00 91.89 LIG-0.37  N 
ATOM     68 22HE GLN C 841       4.763   5.407  11.286  1.00 91.89 LIG 0.16  HD
ATOM     69 21HE GLN C 841       4.249   4.126  10.726  1.00 91.89 LIG 0.16  HD
ENDBRANCH 64 65
ENDBRANCH 63 64
ENDBRANCH 61 63
ENDBRANCH 59 61
ENDBRANCH 48 57
ENDBRANCH 45 48
ENDBRANCH 1 44
TORSDOF 29
ENDMDL
MODEL 23
USER: ADFR SOLUTION from run 14
USER: SCORE 20.242403 LL:  -3.947 LR: -17.973 RR:   0.000 FEB:  -9.322
USER: RMSD 7.822669
USER: SEED 349538
USER: STATUS searching
USER: GENES 31
USER: genes 0 Translation |==|  0.59027 0.64872 0.48679
USER: genes 1 Rotation |==|  0.64416 0.92455 0.40048 0.69766
USER: genes 2 Torsion [N]-CA--C-[N] |==|  0.36111
USER: genes 3 Torsion [C]-N--CA-[CB] |==|  0.81070
USER: genes 4 Torsion [N]-CA--CB-[OG] |==|  0.75562
USER: genes 5 Torsion [CA]-CB--OG-[HG] |==|  0.87070
USER: genes 6 Torsion [N]-CA--C-[N] |==|  0.50541
USER: genes 7 Torsion [C]-N--CA-[CB] |==|  0.21773
USER: genes 8 Torsion [N]-CA--CB-[CG] |==|  0.62462
USER: genes 9 Torsion [CA]-CB--CG-[CD2] |==|  0.93693
USER: genes 10 Torsion [N]-CA--C-[N] |==|  0.95867
USER: genes 11 Torsion [C]-N--CA-[CB] |==|  0.29798
USER: genes 12 Torsion [N]-CA--CB-[OG] |==|  0.72788
USER: genes 13 Torsion [CA]-CB--OG-[HG] |==|  0.99291
USER: genes 14 Torsion [N]-CA--C-[O] |==|  0.90707
USER: genes 15 Torsion [C]-CA--CB-[CG] |==|  0.52147
USER: genes 16 Torsion [CA]-CB--CG-[CD] |==|  0.27311
USER: genes 17 Torsion [CB]-CG--CD-[NE] |==|  0.40864
USER: genes 18 Torsion [CG]-CD--NE-[CZ] |==|  0.28434
USER: genes 19 Torsion [C]-CA--N-[C] |==|  0.75713
USER: genes 20 Torsion [N]-C--CA-[N] |==|  0.88820
USER: genes 21 Torsion [C]-CA--CB-[CG] |==|  0.71157
USER: genes 22 Torsion [CA]-CB--CG-[CD] |==|  0.68758
USER: genes 23 Torsion [CB]-CG--CD-[CE] |==|  0.64144
USER: genes 24 Torsion [CG]-CD--CE-[NZ] |==|  0.18946
USER: genes 25 Torsion [CD]-CE--NZ-[HZ2] |==|  0.79451
USER: genes 26 Torsion [C]-CA--N-[C] |==|  0.62594
USER: genes 27 Torsion [N]-C--CA-[N] |==|  0.58143
USER: genes 28 Torsion [C]-CA--CB-[CG] |==|  0.87524
USER: genes 29 Torsion [CA]-CB--CG-[CD] |==|  0.75894
USER: genes 30 Torsion [CB]-CG--CD-[OE1] |==|  0.05636
ROOT
ATOM      1  CA  ARG C 843       2.356   8.010   8.912  1.00 48.28 LIG 0.18  C 
ENDROOT
BRANCH 1 2
ATOM      2  C   ARG C 843       2.197   6.509   8.691  1.00 51.26 LIG 0.24  C 
ATOM      3  N   SER C 844       0.941   6.044   8.588  1.00 48.21 LIG-0.34  N 
ATOM      4 H    SER C 844       0.245   6.544   8.663  1.00 48.21 LIG 0.16  HD
ATOM      5 O    ARG C 843       3.196   5.785   8.625  1.00 49.46 LIG-0.27  OA
BRANCH 3 6
ATOM      6  CA  SER C 844       0.632   4.633   8.338  1.00 48.58 LIG 0.20  C 
BRANCH 6 7
ATOM      7  CB  SER C 844       1.060   4.226   6.928  1.00 52.82 LIG 0.20  C 
BRANCH 7 8
ATOM      8 OG   SER C 844       0.047   4.463   5.961  1.00 64.87 LIG-0.40  OA
ATOM      9 HG   SER C 844      -0.688   4.177   6.249  1.00 64.87 LIG 0.21  HD
ENDBRANCH 7 8
ENDBRANCH 6 7
BRANCH 6 10
ATOM     10  C   SER C 844       1.311   3.740   9.380  1.00 51.88 LIG 0.24  C 
ATOM     11  N   PHE C 845       1.144   2.411   9.245  1.00 48.65 LIG-0.35  N 
ATOM     12 H    PHE C 845       0.649   2.060   8.635  1.00 48.65 LIG 0.16  HD
ATOM     13 O    SER C 844       1.964   4.249  10.295  1.00 50.80 LIG-0.27  OA
BRANCH 11 14
ATOM     14  CA  PHE C 845       1.785   1.429  10.120  1.00 48.60 LIG 0.18  C 
BRANCH 14 15
ATOM     15  CB  PHE C 845       1.054   1.310  11.480  1.00 50.69 LIG 0.07  C 
BRANCH 15 16
ATOM     16  CG  PHE C 845       1.873   1.275  12.761  1.00 53.32 LIG-0.06  A 
ATOM     17  CD2 PHE C 845       3.205   0.881  12.741  1.00 56.28 LIG 0.01  A 
ATOM     18  CE2 PHE C 845       3.968   0.846  13.917  1.00 59.52 LIG 0.00  A 
ATOM     19  CZ  PHE C 845       3.390   1.166  15.120  1.00 57.95 LIG 0.00  A 
ATOM     20  CE1 PHE C 845       2.064   1.547  15.167  1.00 59.50 LIG 0.00  A 
ATOM     21  CD1 PHE C 845       1.302   1.585  13.991  1.00 58.05 LIG 0.01  A 
ENDBRANCH 15 16
ENDBRANCH 14 15
BRANCH 14 22
ATOM     22  C   PHE C 845       1.834   0.102   9.353  1.00 51.55 LIG 0.24  C 
ATOM     23 O    PHE C 845       2.513  -0.845   9.767  1.00 49.31 LIG-0.27  OA
ATOM     24  N   SER C 846       1.048   0.031   8.262  1.00 48.84 LIG-0.34  N 
ATOM     25 H    SER C 846       0.555   0.688   8.004  1.00 48.84 LIG 0.16  HD
BRANCH 24 26
ATOM     26  CA  SER C 846       0.934  -1.145   7.399  1.00 80.27 LIG 0.19  C 
BRANCH 26 27
ATOM     27  CB  SER C 846      -0.412  -1.832   7.611  1.00 83.79 LIG 0.20  C 
BRANCH 27 28
ATOM     28 OG   SER C 846      -0.298  -2.932   8.499  1.00 92.96 LIG-0.40  OA
ATOM     29 HG   SER C 846       0.507  -3.029   8.724  1.00 92.96 LIG 0.21  HD
ENDBRANCH 27 28
ENDBRANCH 26 27
BRANCH 26 30
ATOM     30  C   SER C 846       1.103  -0.759   5.937  1.00107.57 LIG 0.22  C 
ATOM     31 O    SER C 846       0.703   0.334   5.542  1.00 73.66 LIG-0.29  OA
ENDBRANCH 26 30
ENDBRANCH 24 26
ENDBRANCH 14 22
ENDBRANCH 11 14
ENDBRANCH 6 10
ENDBRANCH 3 6
ENDBRANCH 1 2
BRANCH 1 32
ATOM     32  CB  ARG C 843       2.855   8.696   7.608  1.00 50.74 LIG 0.04  C 
BRANCH 32 33
ATOM     33  CG  ARG C 843       3.226  10.177   7.772  1.00 63.97 LIG 0.02  C 
BRANCH 33 34
ATOM     34  CD  ARG C 843       4.707  10.421   7.948  1.00 82.46 LIG 0.14  C 
BRANCH 34 35
ATOM     35  NE  ARG C 843       5.093  11.695   7.347  1.00 98.18 LIG-0.23  N 
ATOM     36 HE   ARG C 843       5.178  11.725   6.492  1.00 98.18 LIG 0.18  HD
ATOM     37  CZ  ARG C 843       5.322  12.811   8.031  1.00115.63 LIG 0.67  C 
ATOM     38  NH2 ARG C 843       5.642  13.929   7.398  1.00101.74 LIG-0.23  N 
ATOM     39  NH1 ARG C 843       5.243  12.815   9.357  1.00105.44 LIG-0.23  N 
ATOM     40 1HH2 ARG C 843       5.701  13.936   6.540  1.00101.74 LIG 0.17  HD
ATOM     41 2HH2 ARG C 843       5.789  14.649   7.845  1.00101.74 LIG 0.17  HD
ATOM     42 1HH1 ARG C 843       5.042  12.092   9.778  1.00105.44 LIG 0.17  HD
ATOM     43 2HH1 ARG C 843       5.392  13.540   9.795  1.00105.44 LIG 0.17  HD
ENDBRANCH 34 35
ENDBRANCH 33 34
ENDBRANCH 32 33
ENDBRANCH 1 32
BRANCH 1 44
ATOM     44  N   ARG C 843       3.259   8.276  10.040  1.00 47.52 LIG-0.35  N 
ATOM     45  C   LYS C 842       2.822   8.344  11.306  1.00 51.06 LIG 0.24  C 
ATOM     46 O    LYS C 842       1.641   8.180  11.622  1.00 51.08 LIG-0.27  OA
ATOM     47 H    ARG C 843       4.081   8.382   9.814  1.00 47.52 LIG 0.16  HD
BRANCH 45 48
ATOM     48  CA  LYS C 842       3.853   8.644  12.382  1.00 46.69 LIG 0.18  C 
BRANCH 48 49
ATOM     49  CB  LYS C 842       4.092  10.163  12.477  1.00 47.71 LIG 0.04  C 
BRANCH 49 50
ATOM     50  CG  LYS C 842       5.390  10.637  11.847  1.00 50.03 LIG 0.00  C 
BRANCH 50 51
ATOM     51  CD  LYS C 842       6.345  11.145  12.914  1.00 53.65 LIG 0.03  C 
BRANCH 51 52
ATOM     52  CE  LYS C 842       6.868  12.515  12.564  1.00 52.95 LIG 0.23  C 
BRANCH 52 53
ATOM     53  NZ  LYS C 842       5.813  13.552  12.625  1.00 44.67 LIG-0.08  N 
ATOM     54 HZ3  LYS C 842       5.343  13.454  13.374  1.00 44.67 LIG 0.27  HD
ATOM     55 HZ2  LYS C 842       5.272  13.468  11.923  1.00 44.67 LIG 0.27  HD
ATOM     56 HZ1  LYS C 842       6.189  14.359  12.614  1.00 44.67 LIG 0.27  HD
ENDBRANCH 52 53
ENDBRANCH 51 52
ENDBRANCH 50 51
ENDBRANCH 49 50
ENDBRANCH 48 49
BRANCH 48 57
ATOM     57  N   LYS C 842       5.088   7.918  12.095  1.00 47.24 LIG-0.35  N 
ATOM     58 H    LYS C 842       5.326   7.973  11.271  1.00 47.24 LIG 0.16  HD
ATOM     59  C   GLN C 841       5.796   7.230  13.004  1.00 52.93 LIG 0.26  C 
ATOM     60 O    GLN C 841       5.498   7.181  14.201  1.00 51.68 LIG-0.27  OA
BRANCH 59 61
ATOM     61  CA  GLN C 841       7.062   6.535  12.494  1.00 52.44 LIG 0.40  C 
ATOM     62  N   GLN C 841       7.332   5.339  13.293  1.00 53.67 LIG 0.61  N 
BRANCH 61 63
ATOM     63  CB  GLN C 841       6.933   6.179  10.996  1.00 53.85 LIG 0.06  C 
BRANCH 63 64
ATOM     64  CG  GLN C 841       5.591   5.549  10.589  1.00 74.06 LIG 0.10  C 
BRANCH 64 65
ATOM     65  CD  GLN C 841       5.520   4.040  10.746  1.00 99.82 LIG 0.21  C 
ATOM     66 OE1  GLN C 841       6.292   3.417  11.489  1.00 97.42 LIG-0.27  OA
ATOM     67  NE2 GLN C 841       4.552   3.426  10.081  1.00 91.89 LIG-0.37  N 
ATOM     68 22HE GLN C 841       4.449   2.576  10.161  1.00 91.89 LIG 0.16  HD
ATOM     69 21HE GLN C 841       4.027   3.877   9.571  1.00 91.89 LIG 0.16  HD
ENDBRANCH 64 65
ENDBRANCH 63 64
ENDBRANCH 61 63
ENDBRANCH 59 61
ENDBRANCH 48 57
ENDBRANCH 45 48
ENDBRANCH 1 44
TORSDOF 29
ENDMDL
MODEL 24
USER: ADFR SOLUTION from run 66
USER: SCORE 20.042175 LL:  -4.702 LR: -17.960 RR:   0.000 FEB:  -9.309
USER: RMSD 7.987406
USER: SEED 65
USER: STATUS no improvement in best in 6 clusters for 5 generations
USER: GENES 31
USER: genes 0 Translation |==|  0.49016 0.58760 0.42790
USER: genes 1 Rotation |==|  0.49098 0.98660 0.52033 0.61282
USER: genes 2 Torsion [N]-CA--C-[N] |==|  0.41835
USER: genes 3 Torsion [C]-N--CA-[CB] |==|  0.79419
USER: genes 4 Torsion [N]-CA--CB-[OG] |==|  0.86289
USER: genes 5 Torsion [CA]-CB--OG-[HG] |==|  0.86254
USER: genes 6 Torsion [N]-CA--C-[N] |==|  0.13356
USER: genes 7 Torsion [C]-N--CA-[CB] |==|  0.39108
USER: genes 8 Torsion [N]-CA--CB-[CG] |==|  0.24209
USER: genes 9 Torsion [CA]-CB--CG-[CD2] |==|  0.82422
USER: genes 10 Torsion [N]-CA--C-[N] |==|  0.97436
USER: genes 11 Torsion [C]-N--CA-[CB] |==|  0.54525
USER: genes 12 Torsion [N]-CA--CB-[OG] |==|  0.04492
USER: genes 13 Torsion [CA]-CB--OG-[HG] |==|  0.78627
USER: genes 14 Torsion [N]-CA--C-[O] |==|  0.34174
USER: genes 15 Torsion [C]-CA--CB-[CG] |==|  0.33624
USER: genes 16 Torsion [CA]-CB--CG-[CD] |==|  0.81404
USER: genes 17 Torsion [CB]-CG--CD-[NE] |==|  0.50543
USER: genes 18 Torsion [CG]-CD--NE-[CZ] |==|  0.42083
USER: genes 19 Torsion [C]-CA--N-[C] |==|  0.79662
USER: genes 20 Torsion [N]-C--CA-[N] |==|  0.63333
USER: genes 21 Torsion [C]-CA--CB-[CG] |==|  0.47205
USER: genes 22 Torsion [CA]-CB--CG-[CD] |==|  0.45185
USER: genes 23 Torsion [CB]-CG--CD-[CE] |==|  0.55291
USER: genes 24 Torsion [CG]-CD--CE-[NZ] |==|  0.67151
USER: genes 25 Torsion [CD]-CE--NZ-[HZ2] |==|  0.19181
USER: genes 26 Torsion [C]-CA--N-[C] |==|  0.16938
USER: genes 27 Torsion [N]-C--CA-[N] |==|  0.45295
USER: genes 28 Torsion [C]-CA--CB-[CG] |==|  0.22569
USER: genes 29 Torsion [CA]-CB--CG-[CD] |==|  0.72137
USER: genes 30 Torsion [CB]-CG--CD-[OE1] |==|  0.89304
ROOT
ATOM      1  CA  ARG C 843      -0.047   6.589   7.410  1.00 48.28 LIG 0.18  C 
ENDROOT
BRANCH 1 2
ATOM      2  C   ARG C 843       0.627   5.466   6.629  1.00 51.26 LIG 0.24  C 
ATOM      3  N   SER C 844      -0.153   4.436   6.260  1.00 48.21 LIG-0.34  N 
ATOM      4 H    SER C 844      -0.987   4.380   6.461  1.00 48.21 LIG 0.16  HD
ATOM      5 O    ARG C 843       1.835   5.526   6.376  1.00 49.46 LIG-0.27  OA
BRANCH 3 6
ATOM      6  CA  SER C 844       0.343   3.302   5.474  1.00 48.58 LIG 0.20  C 
BRANCH 6 7
ATOM      7  CB  SER C 844       0.559   3.706   4.015  1.00 52.82 LIG 0.20  C 
BRANCH 7 8
ATOM      8 OG   SER C 844      -0.563   4.379   3.464  1.00 64.87 LIG-0.40  OA
ATOM      9 HG   SER C 844      -1.260   3.939   3.624  1.00 64.87 LIG 0.21  HD
ENDBRANCH 7 8
ENDBRANCH 6 7
BRANCH 6 10
ATOM     10  C   SER C 844       1.643   2.759   6.074  1.00 51.88 LIG 0.24  C 
ATOM     11  N   PHE C 845       1.656   2.537   7.401  1.00 48.65 LIG-0.35  N 
ATOM     12 H    PHE C 845       0.991   2.724   7.914  1.00 48.65 LIG 0.16  HD
ATOM     13 O    SER C 844       2.620   2.557   5.346  1.00 50.80 LIG-0.27  OA
BRANCH 11 14
ATOM     14  CA  PHE C 845       2.799   1.957   8.107  1.00 48.60 LIG 0.18  C 
BRANCH 14 15
ATOM     15  CB  PHE C 845       3.026   2.634   9.482  1.00 50.69 LIG 0.07  C 
BRANCH 15 16
ATOM     16  CG  PHE C 845       2.278   2.108  10.698  1.00 53.32 LIG-0.06  A 
ATOM     17  CD2 PHE C 845       0.892   2.165  10.759  1.00 56.28 LIG 0.01  A 
ATOM     18  CE2 PHE C 845       0.196   1.681  11.876  1.00 59.52 LIG 0.00  A 
ATOM     19  CZ  PHE C 845       0.885   1.177  12.950  1.00 57.95 LIG 0.00  A 
ATOM     20  CE1 PHE C 845       2.264   1.124  12.918  1.00 59.50 LIG 0.00  A 
ATOM     21  CD1 PHE C 845       2.961   1.604  11.800  1.00 58.05 LIG 0.01  A 
ENDBRANCH 15 16
ENDBRANCH 14 15
BRANCH 14 22
ATOM     22  C   PHE C 845       2.544   0.449   8.221  1.00 51.55 LIG 0.24  C 
ATOM     23 O    PHE C 845       3.409  -0.307   8.680  1.00 49.31 LIG-0.27  OA
ATOM     24  N   SER C 846       1.315   0.038   7.856  1.00 48.84 LIG-0.34  N 
ATOM     25 H    SER C 846       0.712   0.580   7.569  1.00 48.84 LIG 0.16  HD
BRANCH 24 26
ATOM     26  CA  SER C 846       0.861  -1.352   7.901  1.00 80.27 LIG 0.19  C 
BRANCH 26 27
ATOM     27  CB  SER C 846      -0.401  -1.527   7.062  1.00 83.79 LIG 0.20  C 
BRANCH 27 28
ATOM     28 OG   SER C 846      -0.593  -0.431   6.181  1.00 92.96 LIG-0.40  OA
ATOM     29 HG   SER C 846      -0.893   0.226   6.612  1.00 92.96 LIG 0.21  HD
ENDBRANCH 27 28
ENDBRANCH 26 27
BRANCH 26 30
ATOM     30  C   SER C 846       1.952  -2.293   7.410  1.00107.57 LIG 0.22  C 
ATOM     31 O    SER C 846       2.351  -3.199   8.138  1.00 73.66 LIG-0.29  OA
ENDBRANCH 26 30
ENDBRANCH 24 26
ENDBRANCH 14 22
ENDBRANCH 11 14
ENDBRANCH 6 10
ENDBRANCH 3 6
ENDBRANCH 1 2
BRANCH 1 32
ATOM     32  CB  ARG C 843      -0.692   7.612   6.432  1.00 50.74 LIG 0.04  C 
BRANCH 32 33
ATOM     33  CG  ARG C 843      -2.207   7.794   6.611  1.00 63.97 LIG 0.02  C 
BRANCH 33 34
ATOM     34  CD  ARG C 843      -3.018   6.572   6.249  1.00 82.46 LIG 0.14  C 
BRANCH 34 35
ATOM     35  NE  ARG C 843      -4.446   6.839   6.402  1.00 98.18 LIG-0.23  N 
ATOM     36 HE   ARG C 843      -4.684   7.423   6.986  1.00 98.18 LIG 0.18  HD
ATOM     37  CZ  ARG C 843      -5.402   6.240   5.701  1.00115.63 LIG 0.67  C 
ATOM     38  NH2 ARG C 843      -6.672   6.566   5.888  1.00101.74 LIG-0.23  N 
ATOM     39  NH1 ARG C 843      -5.097   5.302   4.811  1.00105.44 LIG-0.23  N 
ATOM     40 1HH2 ARG C 843      -6.881   7.168   6.466  1.00101.74 LIG 0.17  HD
ATOM     41 2HH2 ARG C 843      -7.288   6.176   5.431  1.00101.74 LIG 0.17  HD
ATOM     42 1HH1 ARG C 843      -4.276   5.079   4.687  1.00105.44 LIG 0.17  HD
ATOM     43 2HH1 ARG C 843      -5.719   4.918   4.360  1.00105.44 LIG 0.17  HD
ENDBRANCH 34 35
ENDBRANCH 33 34
ENDBRANCH 32 33
ENDBRANCH 1 32
BRANCH 1 44
ATOM     44  N   ARG C 843       0.910   7.239   8.315  1.00 47.52 LIG-0.35  N 
ATOM     45  C   LYS C 842       1.349   6.650   9.437  1.00 51.06 LIG 0.24  C 
ATOM     46 O    LYS C 842       0.995   5.522   9.790  1.00 51.08 LIG-0.27  OA
ATOM     47 H    ARG C 843       1.159   8.022   8.061  1.00 47.52 LIG 0.16  HD
BRANCH 45 48
ATOM     48  CA  LYS C 842       2.324   7.435  10.300  1.00 46.69 LIG 0.18  C 
BRANCH 48 49
ATOM     49  CB  LYS C 842       2.776   8.709   9.563  1.00 47.71 LIG 0.04  C 
BRANCH 49 50
ATOM     50  CG  LYS C 842       3.560   9.688  10.421  1.00 50.03 LIG 0.00  C 
BRANCH 50 51
ATOM     51  CD  LYS C 842       4.315  10.675   9.545  1.00 53.65 LIG 0.03  C 
BRANCH 51 52
ATOM     52  CE  LYS C 842       5.430  11.335  10.314  1.00 52.95 LIG 0.23  C 
BRANCH 52 53
ATOM     53  NZ  LYS C 842       5.254  12.802  10.415  1.00 44.67 LIG-0.08  N 
ATOM     54 HZ3  LYS C 842       5.989  13.167  10.757  1.00 44.67 LIG 0.27  HD
ATOM     55 HZ2  LYS C 842       4.561  12.983  10.943  1.00 44.67 LIG 0.27  HD
ATOM     56 HZ1  LYS C 842       5.105  13.140   9.604  1.00 44.67 LIG 0.27  HD
ENDBRANCH 52 53
ENDBRANCH 51 52
ENDBRANCH 50 51
ENDBRANCH 49 50
ENDBRANCH 48 49
BRANCH 48 57
ATOM     57  N   LYS C 842       3.458   6.584  10.657  1.00 47.24 LIG-0.35  N 
ATOM     58 H    LYS C 842       3.537   6.472  11.506  1.00 47.24 LIG 0.16  HD
ATOM     59  C   GLN C 841       4.300   6.027   9.775  1.00 52.93 LIG 0.26  C 
ATOM     60 O    GLN C 841       4.173   6.136   8.552  1.00 51.68 LIG-0.27  OA
BRANCH 59 61
ATOM     61  CA  GLN C 841       5.428   5.171  10.361  1.00 52.44 LIG 0.40  C 
ATOM     62  N   GLN C 841       6.003   4.322   9.318  1.00 53.67 LIG 0.61  N 
BRANCH 61 63
ATOM     63  CB  GLN C 841       6.514   6.058  11.011  1.00 53.85 LIG 0.06  C 
BRANCH 63 64
ATOM     64  CG  GLN C 841       6.192   6.544  12.433  1.00 74.06 LIG 0.10  C 
BRANCH 64 65
ATOM     65  CD  GLN C 841       5.679   7.970  12.521  1.00 99.82 LIG 0.21  C 
ATOM     66 OE1  GLN C 841       6.129   8.878  11.808  1.00 97.42 LIG-0.27  OA
ATOM     67  NE2 GLN C 841       4.685   8.185  13.371  1.00 91.89 LIG-0.37  N 
ATOM     68 22HE GLN C 841       4.337   8.969  13.436  1.00 91.89 LIG 0.16  HD
ATOM     69 21HE GLN C 841       4.387   7.541  13.857  1.00 91.89 LIG 0.16  HD
ENDBRANCH 64 65
ENDBRANCH 63 64
ENDBRANCH 61 63
ENDBRANCH 59 61
ENDBRANCH 48 57
ENDBRANCH 45 48
ENDBRANCH 1 44
TORSDOF 29
ENDMDL
MODEL 25
USER: ADFR SOLUTION from run 110
USER: SCORE 18.661666 LL:  -3.210 LR: -17.917 RR:   0.000 FEB:  -9.266
USER: RMSD 9.873848
USER: SEED 109
USER: STATUS no improvement in best in 3 clusters for 5 generations
USER: GENES 31
USER: genes 0 Translation |==|  0.52420 0.39630 0.58281
USER: genes 1 Rotation |==|  0.13103 0.32533 0.21208 0.52128
USER: genes 2 Torsion [N]-CA--C-[N] |==|  0.80624
USER: genes 3 Torsion [C]-N--CA-[CB] |==|  0.82554
USER: genes 4 Torsion [N]-CA--CB-[OG] |==|  0.27033
USER: genes 5 Torsion [CA]-CB--OG-[HG] |==|  0.92594
USER: genes 6 Torsion [N]-CA--C-[N] |==|  0.32230
USER: genes 7 Torsion [C]-N--CA-[CB] |==|  0.20909
USER: genes 8 Torsion [N]-CA--CB-[CG] |==|  0.34867
USER: genes 9 Torsion [CA]-CB--CG-[CD2] |==|  0.71712
USER: genes 10 Torsion [N]-CA--C-[N] |==|  0.40578
USER: genes 11 Torsion [C]-N--CA-[CB] |==|  0.78776
USER: genes 12 Torsion [N]-CA--CB-[OG] |==|  0.79371
USER: genes 13 Torsion [CA]-CB--OG-[HG] |==|  0.78188
USER: genes 14 Torsion [N]-CA--C-[O] |==|  0.46166
USER: genes 15 Torsion [C]-CA--CB-[CG] |==|  0.40126
USER: genes 16 Torsion [CA]-CB--CG-[CD] |==|  0.43726
USER: genes 17 Torsion [CB]-CG--CD-[NE] |==|  0.39229
USER: genes 18 Torsion [CG]-CD--NE-[CZ] |==|  0.51129
USER: genes 19 Torsion [C]-CA--N-[C] |==|  0.18333
USER: genes 20 Torsion [N]-C--CA-[N] |==|  0.22894
USER: genes 21 Torsion [C]-CA--CB-[CG] |==|  0.42100
USER: genes 22 Torsion [CA]-CB--CG-[CD] |==|  0.22660
USER: genes 23 Torsion [CB]-CG--CD-[CE] |==|  0.16396
USER: genes 24 Torsion [CG]-CD--CE-[NZ] |==|  0.26646
USER: genes 25 Torsion [CD]-CE--NZ-[HZ2] |==|  0.15728
USER: genes 26 Torsion [C]-CA--N-[C] |==|  0.60035
USER: genes 27 Torsion [N]-C--CA-[N] |==|  0.68890
USER: genes 28 Torsion [C]-CA--CB-[CG] |==|  0.37078
USER: genes 29 Torsion [CA]-CB--CG-[CD] |==|  0.24010
USER: genes 30 Torsion [CB]-CG--CD-[OE1] |==|  0.65547
ROOT
ATOM      1  CA  ARG C 843       0.770   2.141  11.361  1.00 48.28 LIG 0.18  C 
ENDROOT
BRANCH 1 2
ATOM      2  C   ARG C 843       0.799   3.355  10.439  1.00 51.26 LIG 0.24  C 
ATOM      3  N   SER C 844       1.935   3.562   9.751  1.00 48.21 LIG-0.34  N 
ATOM      4 H    SER C 844       2.630   3.063   9.827  1.00 48.21 LIG 0.16  HD
ATOM      5 O    ARG C 843      -0.186   4.097  10.361  1.00 49.46 LIG-0.27  OA
BRANCH 3 6
ATOM      6  CA  SER C 844       2.099   4.665   8.799  1.00 48.58 LIG 0.20  C 
BRANCH 6 7
ATOM      7  CB  SER C 844       1.119   4.528   7.634  1.00 52.82 LIG 0.20  C 
BRANCH 7 8
ATOM      8 OG   SER C 844      -0.049   5.317   7.808  1.00 64.87 LIG-0.40  OA
ATOM      9 HG   SER C 844      -0.188   5.434   8.628  1.00 64.87 LIG 0.21  HD
ENDBRANCH 7 8
ENDBRANCH 6 7
BRANCH 6 10
ATOM     10  C   SER C 844       1.909   6.014   9.498  1.00 51.88 LIG 0.24  C 
ATOM     11  N   PHE C 845       2.976   6.833   9.543  1.00 48.65 LIG-0.35  N 
ATOM     12 H    PHE C 845       3.749   6.614   9.236  1.00 48.65 LIG 0.16  HD
ATOM     13 O    SER C 844       0.817   6.299   9.999  1.00 50.80 LIG-0.27  OA
BRANCH 11 14
ATOM     14  CA  PHE C 845       2.931   8.179  10.116  1.00 48.60 LIG 0.18  C 
BRANCH 14 15
ATOM     15  CB  PHE C 845       2.906   8.141  11.664  1.00 50.69 LIG 0.07  C 
BRANCH 15 16
ATOM     16  CG  PHE C 845       3.954   8.923  12.441  1.00 53.32 LIG-0.06  A 
ATOM     17  CD2 PHE C 845       5.049   8.277  13.003  1.00 56.28 LIG 0.01  A 
ATOM     18  CE2 PHE C 845       6.020   8.991  13.719  1.00 59.52 LIG 0.00  A 
ATOM     19  CZ  PHE C 845       5.879  10.342  13.910  1.00 57.95 LIG 0.00  A 
ATOM     20  CE1 PHE C 845       4.792  11.002  13.374  1.00 59.50 LIG 0.00  A 
ATOM     21  CD1 PHE C 845       3.821  10.291  12.654  1.00 58.05 LIG 0.01  A 
ENDBRANCH 15 16
ENDBRANCH 14 15
BRANCH 14 22
ATOM     22  C   PHE C 845       4.134   8.949   9.559  1.00 51.55 LIG 0.24  C 
ATOM     23 O    PHE C 845       5.184   8.361   9.270  1.00 49.31 LIG-0.27  OA
ATOM     24  N   SER C 846       3.938  10.264   9.351  1.00 48.84 LIG-0.34  N 
ATOM     25 H    SER C 846       3.191  10.654   9.526  1.00 48.84 LIG 0.16  HD
BRANCH 24 26
ATOM     26  CA  SER C 846       4.948  11.176   8.812  1.00 80.27 LIG 0.19  C 
BRANCH 26 27
ATOM     27  CB  SER C 846       5.977  11.523   9.884  1.00 83.79 LIG 0.20  C 
BRANCH 27 28
ATOM     28 OG   SER C 846       5.445  12.427  10.840  1.00 92.96 LIG-0.40  OA
ATOM     29 HG   SER C 846       5.448  13.205  10.522  1.00 92.96 LIG 0.21  HD
ENDBRANCH 27 28
ENDBRANCH 26 27
BRANCH 26 30
ATOM     30  C   SER C 846       5.637  10.564   7.601  1.00107.57 LIG 0.22  C 
ATOM     31 O    SER C 846       6.325  11.269   6.867  1.00 73.66 LIG-0.29  OA
ENDBRANCH 26 30
ENDBRANCH 24 26
ENDBRANCH 14 22
ENDBRANCH 11 14
ENDBRANCH 6 10
ENDBRANCH 3 6
ENDBRANCH 1 2
BRANCH 1 32
ATOM     32  CB  ARG C 843       1.978   2.182  12.341  1.00 50.74 LIG 0.04  C 
BRANCH 32 33
ATOM     33  CG  ARG C 843       1.674   1.639  13.745  1.00 63.97 LIG 0.02  C 
BRANCH 33 34
ATOM     34  CD  ARG C 843       2.898   1.178  14.502  1.00 82.46 LIG 0.14  C 
BRANCH 34 35
ATOM     35  NE  ARG C 843       2.798   1.540  15.913  1.00 98.18 LIG-0.23  N 
ATOM     36 HE   ARG C 843       2.069   1.910  16.181  1.00 98.18 LIG 0.18  HD
ATOM     37  CZ  ARG C 843       3.754   1.336  16.812  1.00115.63 LIG 0.67  C 
ATOM     38  NH2 ARG C 843       3.564   1.671  18.078  1.00101.74 LIG-0.23  N 
ATOM     39  NH1 ARG C 843       4.915   0.802  16.449  1.00105.44 LIG-0.23  N 
ATOM     40 1HH2 ARG C 843       2.818   2.023  18.323  1.00101.74 LIG 0.17  HD
ATOM     41 2HH2 ARG C 843       4.186   1.537  18.657  1.00101.74 LIG 0.17  HD
ATOM     42 1HH1 ARG C 843       5.051   0.586  15.628  1.00105.44 LIG 0.17  HD
ATOM     43 2HH1 ARG C 843       5.531   0.672  17.034  1.00105.44 LIG 0.17  HD
ENDBRANCH 34 35
ENDBRANCH 33 34
ENDBRANCH 32 33
ENDBRANCH 1 32
BRANCH 1 44
ATOM     44  N   ARG C 843       0.751   0.896  10.580  1.00 47.52 LIG-0.35  N 
ATOM     45  C   LYS C 842       1.785   0.515   9.816  1.00 51.06 LIG 0.24  C 
ATOM     46 O    LYS C 842       2.827   1.168   9.717  1.00 51.08 LIG-0.27  OA
ATOM     47 H    ARG C 843       0.025   0.443  10.659  1.00 47.52 LIG 0.16  HD
BRANCH 45 48
ATOM     48  CA  LYS C 842       1.636  -0.784   9.042  1.00 46.69 LIG 0.18  C 
BRANCH 48 49
ATOM     49  CB  LYS C 842       3.020  -1.399   8.765  1.00 47.71 LIG 0.04  C 
BRANCH 49 50
ATOM     50  CG  LYS C 842       3.025  -2.913   8.639  1.00 50.03 LIG 0.00  C 
BRANCH 50 51
ATOM     51  CD  LYS C 842       2.594  -3.331   7.242  1.00 53.65 LIG 0.03  C 
BRANCH 51 52
ATOM     52  CE  LYS C 842       3.512  -2.750   6.198  1.00 52.95 LIG 0.23  C 
BRANCH 52 53
ATOM     53  NZ  LYS C 842       4.574  -3.698   5.792  1.00 44.67 LIG-0.08  N 
ATOM     54 HZ3  LYS C 842       5.062  -3.337   5.142  1.00 44.67 LIG 0.27  HD
ATOM     55 HZ2  LYS C 842       4.204  -4.452   5.499  1.00 44.67 LIG 0.27  HD
ATOM     56 HZ1  LYS C 842       5.097  -3.876   6.491  1.00 44.67 LIG 0.27  HD
ENDBRANCH 52 53
ENDBRANCH 51 52
ENDBRANCH 50 51
ENDBRANCH 49 50
ENDBRANCH 48 49
BRANCH 48 57
ATOM     57  N   LYS C 842       0.895  -0.537   7.806  1.00 47.24 LIG-0.35  N 
ATOM     58 H    LYS C 842       1.077   0.225   7.453  1.00 47.24 LIG 0.16  HD
ATOM     59  C   GLN C 841       0.019  -1.393   7.259  1.00 52.93 LIG 0.26  C 
ATOM     60 O    GLN C 841      -0.219  -2.511   7.724  1.00 51.68 LIG-0.27  OA
BRANCH 59 61
ATOM     61  CA  GLN C 841      -0.654  -0.938   5.960  1.00 52.44 LIG 0.40  C 
ATOM     62  N   GLN C 841      -2.078  -0.698   6.193  1.00 53.67 LIG 0.61  N 
BRANCH 61 63
ATOM     63  CB  GLN C 841       0.033   0.326   5.395  1.00 53.85 LIG 0.06  C 
BRANCH 63 64
ATOM     64  CG  GLN C 841       0.341   0.281   3.889  1.00 74.06 LIG 0.10  C 
BRANCH 64 65
ATOM     65  CD  GLN C 841      -0.795   0.733   2.990  1.00 99.82 LIG 0.21  C 
ATOM     66 OE1  GLN C 841      -1.251   0.013   2.090  1.00 97.42 LIG-0.27  OA
ATOM     67  NE2 GLN C 841      -1.311   1.927   3.249  1.00 91.89 LIG-0.37  N 
ATOM     68 22HE GLN C 841      -1.977   2.216   2.789  1.00 91.89 LIG 0.16  HD
ATOM     69 21HE GLN C 841      -0.980   2.411   3.878  1.00 91.89 LIG 0.16  HD
ENDBRANCH 64 65
ENDBRANCH 63 64
ENDBRANCH 61 63
ENDBRANCH 59 61
ENDBRANCH 48 57
ENDBRANCH 45 48
ENDBRANCH 1 44
TORSDOF 29
ENDMDL
MODEL 26
USER: ADFR SOLUTION from run 98
USER: SCORE 19.283635 LL:  -3.745 LR: -17.853 RR:   0.000 FEB:  -9.202
USER: RMSD 9.289845
USER: SEED 97
USER: STATUS searching
USER: GENES 31
USER: genes 0 Translation |==|  0.45633 0.55786 0.39449
USER: genes 1 Rotation |==|  0.56734 0.94797 0.63357 0.66416
USER: genes 2 Torsion [N]-CA--C-[N] |==|  0.14347
USER: genes 3 Torsion [C]-N--CA-[CB] |==|  0.24973
USER: genes 4 Torsion [N]-CA--CB-[OG] |==|  0.03064
USER: genes 5 Torsion [CA]-CB--OG-[HG] |==|  0.84177
USER: genes 6 Torsion [N]-CA--C-[N] |==|  0.78928
USER: genes 7 Torsion [C]-N--CA-[CB] |==|  0.13219
USER: genes 8 Torsion [N]-CA--CB-[CG] |==|  0.19586
USER: genes 9 Torsion [CA]-CB--CG-[CD2] |==|  0.43552
USER: genes 10 Torsion [N]-CA--C-[N] |==|  0.57595
USER: genes 11 Torsion [C]-N--CA-[CB] |==|  0.77777
USER: genes 12 Torsion [N]-CA--CB-[OG] |==|  0.84624
USER: genes 13 Torsion [CA]-CB--OG-[HG] |==|  0.86038
USER: genes 14 Torsion [N]-CA--C-[O] |==|  0.54968
USER: genes 15 Torsion [C]-CA--CB-[CG] |==|  0.33828
USER: genes 16 Torsion [CA]-CB--CG-[CD] |==|  0.87896
USER: genes 17 Torsion [CB]-CG--CD-[NE] |==|  0.45446
USER: genes 18 Torsion [CG]-CD--NE-[CZ] |==|  0.49714
USER: genes 19 Torsion [C]-CA--N-[C] |==|  0.15452
USER: genes 20 Torsion [N]-C--CA-[N] |==|  0.20144
USER: genes 21 Torsion [C]-CA--CB-[CG] |==|  0.18345
USER: genes 22 Torsion [CA]-CB--CG-[CD] |==|  0.26695
USER: genes 23 Torsion [CB]-CG--CD-[CE] |==|  0.05870
USER: genes 24 Torsion [CG]-CD--CE-[NZ] |==|  0.53163
USER: genes 25 Torsion [CD]-CE--NZ-[HZ2] |==|  0.29976
USER: genes 26 Torsion [C]-CA--N-[C] |==|  0.76475
USER: genes 27 Torsion [N]-C--CA-[N] |==|  0.07627
USER: genes 28 Torsion [C]-CA--CB-[CG] |==|  0.72104
USER: genes 29 Torsion [CA]-CB--CG-[CD] |==|  0.45364
USER: genes 30 Torsion [CB]-CG--CD-[OE1] |==|  0.60088
ROOT
ATOM      1  CA  ARG C 843      -0.859   5.897   6.559  1.00 48.28 LIG 0.18  C 
ENDROOT
BRANCH 1 2
ATOM      2  C   ARG C 843      -0.166   5.153   5.422  1.00 51.26 LIG 0.24  C 
ATOM      3  N   SER C 844       0.178   3.876   5.661  1.00 48.21 LIG-0.34  N 
ATOM      4 H    SER C 844       0.046   3.484   6.414  1.00 48.21 LIG 0.16  HD
ATOM      5 O    ARG C 843       0.062   5.729   4.353  1.00 49.46 LIG-0.27  OA
BRANCH 3 6
ATOM      6  CA  SER C 844       0.817   3.022   4.654  1.00 48.58 LIG 0.20  C 
BRANCH 6 7
ATOM      7  CB  SER C 844       2.340   3.139   4.730  1.00 52.82 LIG 0.20  C 
BRANCH 7 8
ATOM      8 OG   SER C 844       2.775   3.831   5.891  1.00 64.87 LIG-0.40  OA
ATOM      9 HG   SER C 844       2.424   4.593   5.912  1.00 64.87 LIG 0.21  HD
ENDBRANCH 7 8
ENDBRANCH 6 7
BRANCH 6 10
ATOM     10  C   SER C 844       0.385   1.564   4.832  1.00 51.88 LIG 0.24  C 
ATOM     11  N   PHE C 845       0.943   0.883   5.850  1.00 48.65 LIG-0.35  N 
ATOM     12 H    PHE C 845       1.547   1.218   6.364  1.00 48.65 LIG 0.16  HD
ATOM     13 O    SER C 844      -0.430   1.063   4.051  1.00 50.80 LIG-0.27  OA
BRANCH 11 14
ATOM     14  CA  PHE C 845       0.582  -0.494   6.189  1.00 48.60 LIG 0.18  C 
BRANCH 14 15
ATOM     15  CB  PHE C 845       0.559  -1.404   4.936  1.00 50.69 LIG 0.07  C 
BRANCH 15 16
ATOM     16  CG  PHE C 845       1.873  -1.767   4.260  1.00 53.32 LIG-0.06  A 
ATOM     17  CD2 PHE C 845       1.975  -2.909   3.475  1.00 56.28 LIG 0.01  A 
ATOM     18  CE2 PHE C 845       3.183  -3.250   2.849  1.00 59.52 LIG 0.00  A 
ATOM     19  CZ  PHE C 845       4.298  -2.473   3.037  1.00 57.95 LIG 0.00  A 
ATOM     20  CE1 PHE C 845       4.224  -1.342   3.826  1.00 59.50 LIG 0.00  A 
ATOM     21  CD1 PHE C 845       3.016  -0.999   4.450  1.00 58.05 LIG 0.01  A 
ENDBRANCH 15 16
ENDBRANCH 14 15
BRANCH 14 22
ATOM     22  C   PHE C 845       1.574  -0.974   7.254  1.00 51.55 LIG 0.24  C 
ATOM     23 O    PHE C 845       2.075  -0.177   8.058  1.00 49.31 LIG-0.27  OA
ATOM     24  N   SER C 846       1.797  -2.301   7.288  1.00 48.84 LIG-0.34  N 
ATOM     25 H    SER C 846       1.416  -2.847   6.743  1.00 48.84 LIG 0.16  HD
BRANCH 24 26
ATOM     26  CA  SER C 846       2.693  -2.966   8.234  1.00 80.27 LIG 0.19  C 
BRANCH 26 27
ATOM     27  CB  SER C 846       4.143  -2.832   7.777  1.00 83.79 LIG 0.20  C 
BRANCH 27 28
ATOM     28 OG   SER C 846       4.317  -3.323   6.457  1.00 92.96 LIG-0.40  OA
ATOM     29 HG   SER C 846       3.980  -4.091   6.396  1.00 92.96 LIG 0.21  HD
ENDBRANCH 27 28
ENDBRANCH 26 27
BRANCH 26 30
ATOM     30  C   SER C 846       2.527  -2.388   9.632  1.00107.57 LIG 0.22  C 
ATOM     31 O    SER C 846       3.399  -2.573  10.478  1.00 73.66 LIG-0.29  OA
ENDBRANCH 26 30
ENDBRANCH 24 26
ENDBRANCH 14 22
ENDBRANCH 11 14
ENDBRANCH 6 10
ENDBRANCH 3 6
ENDBRANCH 1 2
BRANCH 1 32
ATOM     32  CB  ARG C 843      -1.086   7.385   6.166  1.00 50.74 LIG 0.04  C 
BRANCH 32 33
ATOM     33  CG  ARG C 843      -2.555   7.833   6.198  1.00 63.97 LIG 0.02  C 
BRANCH 33 34
ATOM     34  CD  ARG C 843      -3.513   6.837   5.587  1.00 82.46 LIG 0.14  C 
BRANCH 34 35
ATOM     35  NE  ARG C 843      -4.886   7.131   5.988  1.00 98.18 LIG-0.23  N 
ATOM     36 HE   ARG C 843      -5.015   7.797   6.517  1.00 98.18 LIG 0.18  HD
ATOM     37  CZ  ARG C 843      -5.950   6.440   5.592  1.00115.63 LIG 0.67  C 
ATOM     38  NH2 ARG C 843      -7.163   6.796   5.986  1.00101.74 LIG-0.23  N 
ATOM     39  NH1 ARG C 843      -5.807   5.378   4.806  1.00105.44 LIG-0.23  N 
ATOM     40 1HH2 ARG C 843      -7.265   7.478   6.500  1.00101.74 LIG 0.17  HD
ATOM     41 2HH2 ARG C 843      -7.848   6.346   5.727  1.00101.74 LIG 0.17  HD
ATOM     42 1HH1 ARG C 843      -5.024   5.135   4.550  1.00105.44 LIG 0.17  HD
ATOM     43 2HH1 ARG C 843      -6.499   4.935   4.552  1.00105.44 LIG 0.17  HD
ENDBRANCH 34 35
ENDBRANCH 33 34
ENDBRANCH 32 33
ENDBRANCH 1 32
BRANCH 1 44
ATOM     44  N   ARG C 843      -0.087   5.781   7.803  1.00 47.52 LIG-0.35  N 
ATOM     45  C   LYS C 842       1.200   6.147   7.884  1.00 51.06 LIG 0.24  C 
ATOM     46 O    LYS C 842       1.829   6.617   6.931  1.00 51.08 LIG-0.27  OA
ATOM     47 H    ARG C 843      -0.533   5.460   8.464  1.00 47.52 LIG 0.16  HD
BRANCH 45 48
ATOM     48  CA  LYS C 842       1.895   5.960   9.223  1.00 46.69 LIG 0.18  C 
BRANCH 48 49
ATOM     49  CB  LYS C 842       3.200   6.775   9.262  1.00 47.71 LIG 0.04  C 
BRANCH 49 50
ATOM     50  CG  LYS C 842       3.005   8.281   9.223  1.00 50.03 LIG 0.00  C 
BRANCH 50 51
ATOM     51  CD  LYS C 842       3.026   8.856  10.630  1.00 53.65 LIG 0.03  C 
BRANCH 51 52
ATOM     52  CE  LYS C 842       3.722   7.921  11.585  1.00 52.95 LIG 0.23  C 
BRANCH 52 53
ATOM     53  NZ  LYS C 842       3.529   8.314  12.999  1.00 44.67 LIG-0.08  N 
ATOM     54 HZ3  LYS C 842       4.313   8.307  13.420  1.00 44.67 LIG 0.27  HD
ATOM     55 HZ2  LYS C 842       2.976   7.739  13.394  1.00 44.67 LIG 0.27  HD
ATOM     56 HZ1  LYS C 842       3.181   9.133  13.035  1.00 44.67 LIG 0.27  HD
ENDBRANCH 52 53
ENDBRANCH 51 52
ENDBRANCH 50 51
ENDBRANCH 49 50
ENDBRANCH 48 49
BRANCH 48 57
ATOM     57  N   LYS C 842       2.136   4.537   9.455  1.00 47.24 LIG-0.35  N 
ATOM     58 H    LYS C 842       2.924   4.287   9.218  1.00 47.24 LIG 0.16  HD
ATOM     59  C   GLN C 841       1.241   3.688   9.982  1.00 52.93 LIG 0.26  C 
ATOM     60 O    GLN C 841       0.124   4.037  10.374  1.00 51.68 LIG-0.27  OA
BRANCH 59 61
ATOM     61  CA  GLN C 841       1.695   2.233  10.138  1.00 52.44 LIG 0.40  C 
ATOM     62  N   GLN C 841       3.149   2.178  10.297  1.00 53.67 LIG 0.61  N 
BRANCH 61 63
ATOM     63  CB  GLN C 841       0.984   1.557  11.331  1.00 53.85 LIG 0.06  C 
BRANCH 63 64
ATOM     64  CG  GLN C 841       1.819   1.462  12.618  1.00 74.06 LIG 0.10  C 
BRANCH 64 65
ATOM     65  CD  GLN C 841       1.022   1.174  13.878  1.00 99.82 LIG 0.21  C 
ATOM     66 OE1  GLN C 841       1.315   1.677  14.973  1.00 97.42 LIG-0.27  OA
ATOM     67  NE2 GLN C 841      -0.038   0.392  13.737  1.00 91.89 LIG-0.37  N 
ATOM     68 22HE GLN C 841      -0.541   0.224  14.414  1.00 91.89 LIG 0.16  HD
ATOM     69 21HE GLN C 841      -0.224   0.053  12.969  1.00 91.89 LIG 0.16  HD
ENDBRANCH 64 65
ENDBRANCH 63 64
ENDBRANCH 61 63
ENDBRANCH 59 61
ENDBRANCH 48 57
ENDBRANCH 45 48
ENDBRANCH 1 44
TORSDOF 29
ENDMDL
MODEL 27
USER: ADFR SOLUTION from run 11
USER: SCORE 18.976819 LL:  -4.472 LR: -17.849 RR:   0.000 FEB:  -9.199
USER: RMSD 8.852328
USER: SEED 470354
USER: STATUS 1 or 2 clusters left
USER: GENES 31
USER: genes 0 Translation |==|  0.63837 0.66331 0.59311
USER: genes 1 Rotation |==|  0.30317 0.05554 0.39538 0.55260
USER: genes 2 Torsion [N]-CA--C-[N] |==|  0.18719
USER: genes 3 Torsion [C]-N--CA-[CB] |==|  0.19165
USER: genes 4 Torsion [N]-CA--CB-[OG] |==|  0.74032
USER: genes 5 Torsion [CA]-CB--OG-[HG] |==|  0.15835
USER: genes 6 Torsion [N]-CA--C-[N] |==|  0.73182
USER: genes 7 Torsion [C]-N--CA-[CB] |==|  0.43694
USER: genes 8 Torsion [N]-CA--CB-[CG] |==|  0.62978
USER: genes 9 Torsion [CA]-CB--CG-[CD2] |==|  0.77589
USER: genes 10 Torsion [N]-CA--C-[N] |==|  0.38687
USER: genes 11 Torsion [C]-N--CA-[CB] |==|  0.86207
USER: genes 12 Torsion [N]-CA--CB-[OG] |==|  0.78774
USER: genes 13 Torsion [CA]-CB--OG-[HG] |==|  0.07318
USER: genes 14 Torsion [N]-CA--C-[O] |==|  0.52179
USER: genes 15 Torsion [C]-CA--CB-[CG] |==|  0.57791
USER: genes 16 Torsion [CA]-CB--CG-[CD] |==|  0.34038
USER: genes 17 Torsion [CB]-CG--CD-[NE] |==|  0.31602
USER: genes 18 Torsion [CG]-CD--NE-[CZ] |==|  0.30206
USER: genes 19 Torsion [C]-CA--N-[C] |==|  0.60873
USER: genes 20 Torsion [N]-C--CA-[N] |==|  0.98142
USER: genes 21 Torsion [C]-CA--CB-[CG] |==|  0.96806
USER: genes 22 Torsion [CA]-CB--CG-[CD] |==|  0.57983
USER: genes 23 Torsion [CB]-CG--CD-[CE] |==|  0.96335
USER: genes 24 Torsion [CG]-CD--CE-[NZ] |==|  0.32430
USER: genes 25 Torsion [CD]-CE--NZ-[HZ2] |==|  0.29287
USER: genes 26 Torsion [C]-CA--N-[C] |==|  0.20158
USER: genes 27 Torsion [N]-C--CA-[N] |==|  0.73438
USER: genes 28 Torsion [C]-CA--CB-[CG] |==|  0.15591
USER: genes 29 Torsion [CA]-CB--CG-[CD] |==|  0.65307
USER: genes 30 Torsion [CB]-CG--CD-[OE1] |==|  0.27262
ROOT
ATOM      1  CA  ARG C 843       3.510   8.349  11.623  1.00 48.28 LIG 0.18  C 
ENDROOT
BRANCH 1 2
ATOM      2  C   ARG C 843       2.752   7.869  10.391  1.00 51.26 LIG 0.24  C 
ATOM      3  N   SER C 844       2.425   6.566  10.354  1.00 48.21 LIG-0.34  N 
ATOM      4 H    SER C 844       2.641   6.007  10.971  1.00 48.21 LIG 0.16  HD
ATOM      5 O    ARG C 843       2.478   8.663   9.484  1.00 49.46 LIG-0.27  OA
BRANCH 3 6
ATOM      6  CA  SER C 844       1.664   5.966   9.253  1.00 48.58 LIG 0.20  C 
BRANCH 6 7
ATOM      7  CB  SER C 844       2.499   5.933   7.972  1.00 52.82 LIG 0.20  C 
BRANCH 7 8
ATOM      8 OG   SER C 844       2.279   7.069   7.149  1.00 64.87 LIG-0.40  OA
ATOM      9 HG   SER C 844       2.444   7.767   7.585  1.00 64.87 LIG 0.21  HD
ENDBRANCH 7 8
ENDBRANCH 6 7
BRANCH 6 10
ATOM     10  C   SER C 844       1.202   4.554   9.624  1.00 51.88 LIG 0.24  C 
ATOM     11  N   PHE C 845       1.965   3.532   9.198  1.00 48.65 LIG-0.35  N 
ATOM     12 H    PHE C 845       2.661   3.639   8.704  1.00 48.65 LIG 0.16  HD
ATOM     13 O    SER C 844       0.164   4.398  10.274  1.00 50.80 LIG-0.27  OA
BRANCH 11 14
ATOM     14  CA  PHE C 845       1.690   2.132   9.530  1.00 48.60 LIG 0.18  C 
BRANCH 14 15
ATOM     15  CB  PHE C 845       2.332   1.165   8.504  1.00 50.69 LIG 0.07  C 
BRANCH 15 16
ATOM     16  CG  PHE C 845       1.498   0.023   7.942  1.00 53.32 LIG-0.06  A 
ATOM     17  CD2 PHE C 845       1.317  -1.148   8.668  1.00 56.28 LIG 0.01  A 
ATOM     18  CE2 PHE C 845       0.550  -2.204   8.157  1.00 59.52 LIG 0.00  A 
ATOM     19  CZ  PHE C 845      -0.004  -2.109   6.906  1.00 57.95 LIG 0.00  A 
ATOM     20  CE1 PHE C 845       0.174  -0.961   6.160  1.00 59.50 LIG 0.00  A 
ATOM     21  CD1 PHE C 845       0.939   0.098   6.671  1.00 58.05 LIG 0.01  A 
ENDBRANCH 15 16
ENDBRANCH 14 15
BRANCH 14 22
ATOM     22  C   PHE C 845       2.189   1.900  10.961  1.00 51.55 LIG 0.24  C 
ATOM     23 O    PHE C 845       3.227   2.439  11.365  1.00 49.31 LIG-0.27  OA
ATOM     24  N   SER C 846       1.395   1.141  11.739  1.00 48.84 LIG-0.34  N 
ATOM     25 H    SER C 846       0.659   0.799  11.453  1.00 48.84 LIG 0.16  HD
BRANCH 24 26
ATOM     26  CA  SER C 846       1.677   0.810  13.136  1.00 80.27 LIG 0.19  C 
BRANCH 26 27
ATOM     27  CB  SER C 846       3.103   0.287  13.281  1.00 83.79 LIG 0.20  C 
BRANCH 27 28
ATOM     28 OG   SER C 846       3.213  -1.052  12.826  1.00 92.96 LIG-0.40  OA
ATOM     29 HG   SER C 846       2.618  -1.202  12.251  1.00 92.96 LIG 0.21  HD
ENDBRANCH 27 28
ENDBRANCH 26 27
BRANCH 26 30
ATOM     30  C   SER C 846       1.468   2.024  14.030  1.00107.57 LIG 0.22  C 
ATOM     31 O    SER C 846       1.796   1.975  15.213  1.00 73.66 LIG-0.29  OA
ENDBRANCH 26 30
ENDBRANCH 24 26
ENDBRANCH 14 22
ENDBRANCH 11 14
ENDBRANCH 6 10
ENDBRANCH 3 6
ENDBRANCH 1 2
BRANCH 1 32
ATOM     32  CB  ARG C 843       3.563   9.904  11.649  1.00 50.74 LIG 0.04  C 
BRANCH 32 33
ATOM     33  CG  ARG C 843       4.786  10.485  12.375  1.00 63.97 LIG 0.02  C 
BRANCH 33 34
ATOM     34  CD  ARG C 843       5.629  11.400  11.517  1.00 82.46 LIG 0.14  C 
BRANCH 34 35
ATOM     35  NE  ARG C 843       5.575  12.771  12.020  1.00 98.18 LIG-0.23  N 
ATOM     36 HE   ARG C 843       4.840  13.206  11.918  1.00 98.18 LIG 0.18  HD
ATOM     37  CZ  ARG C 843       6.582  13.391  12.625  1.00115.63 LIG 0.67  C 
ATOM     38  NH2 ARG C 843       6.432  14.627  13.074  1.00101.74 LIG-0.23  N 
ATOM     39  NH1 ARG C 843       7.752  12.781  12.778  1.00105.44 LIG-0.23  N 
ATOM     40 1HH2 ARG C 843       5.680  15.033  12.975  1.00101.74 LIG 0.17  HD
ATOM     41 2HH2 ARG C 843       7.087  15.025  13.465  1.00101.74 LIG 0.17  HD
ATOM     42 1HH1 ARG C 843       7.862  11.981  12.484  1.00105.44 LIG 0.17  HD
ATOM     43 2HH1 ARG C 843       8.401  13.187  13.170  1.00105.44 LIG 0.17  HD
ENDBRANCH 34 35
ENDBRANCH 33 34
ENDBRANCH 32 33
ENDBRANCH 1 32
BRANCH 1 44
ATOM     44  N   ARG C 843       4.857   7.763  11.665  1.00 47.52 LIG-0.35  N 
ATOM     45  C   LYS C 842       5.422   7.350  12.809  1.00 51.06 LIG 0.24  C 
ATOM     46 O    LYS C 842       4.858   7.419  13.904  1.00 51.08 LIG-0.27  OA
ATOM     47 H    ARG C 843       5.241   7.711  10.898  1.00 47.52 LIG 0.16  HD
BRANCH 45 48
ATOM     48  CA  LYS C 842       6.828   6.779  12.723  1.00 46.69 LIG 0.18  C 
BRANCH 48 49
ATOM     49  CB  LYS C 842       7.808   7.661  13.518  1.00 47.71 LIG 0.04  C 
BRANCH 49 50
ATOM     50  CG  LYS C 842       7.239   9.000  13.957  1.00 50.03 LIG 0.00  C 
BRANCH 50 51
ATOM     51  CD  LYS C 842       8.345  10.036  14.071  1.00 53.65 LIG 0.03  C 
BRANCH 51 52
ATOM     52  CE  LYS C 842       9.702   9.382  14.036  1.00 52.95 LIG 0.23  C 
BRANCH 52 53
ATOM     53  NZ  LYS C 842      10.499   9.802  12.860  1.00 44.67 LIG-0.08  N 
ATOM     54 HZ3  LYS C 842      10.875   9.088  12.486  1.00 44.67 LIG 0.27  HD
ATOM     55 HZ2  LYS C 842      11.134  10.370  13.118  1.00 44.67 LIG 0.27  HD
ATOM     56 HZ1  LYS C 842       9.966  10.201  12.268  1.00 44.67 LIG 0.27  HD
ENDBRANCH 52 53
ENDBRANCH 51 52
ENDBRANCH 50 51
ENDBRANCH 49 50
ENDBRANCH 48 49
BRANCH 48 57
ATOM     57  N   LYS C 842       7.224   6.658  11.321  1.00 47.24 LIG-0.35  N 
ATOM     58 H    LYS C 842       7.240   5.843  11.046  1.00 47.24 LIG 0.16  HD
ATOM     59  C   GLN C 841       7.535   7.691  10.524  1.00 52.93 LIG 0.26  C 
ATOM     60 O    GLN C 841       7.471   8.870  10.885  1.00 51.68 LIG-0.27  OA
BRANCH 59 61
ATOM     61  CA  GLN C 841       7.929   7.344   9.085  1.00 52.44 LIG 0.40  C 
ATOM     62  N   GLN C 841       9.385   7.263   8.971  1.00 53.67 LIG 0.61  N 
BRANCH 61 63
ATOM     63  CB  GLN C 841       7.266   6.024   8.633  1.00 53.85 LIG 0.06  C 
BRANCH 63 64
ATOM     64  CG  GLN C 841       5.733   5.994   8.744  1.00 74.06 LIG 0.10  C 
BRANCH 64 65
ATOM     65  CD  GLN C 841       5.173   4.843   9.561  1.00 99.82 LIG 0.21  C 
ATOM     66 OE1  GLN C 841       4.843   4.975  10.748  1.00 97.42 LIG-0.27  OA
ATOM     67  NE2 GLN C 841       5.010   3.693   8.921  1.00 91.89 LIG-0.37  N 
ATOM     68 22HE GLN C 841       4.668   3.019   9.330  1.00 91.89 LIG 0.16  HD
ATOM     69 21HE GLN C 841       5.247   3.622   8.098  1.00 91.89 LIG 0.16  HD
ENDBRANCH 64 65
ENDBRANCH 63 64
ENDBRANCH 61 63
ENDBRANCH 59 61
ENDBRANCH 48 57
ENDBRANCH 45 48
ENDBRANCH 1 44
TORSDOF 29
ENDMDL
MODEL 28
USER: ADFR SOLUTION from run 122
USER: SCORE 19.795520 LL:  -3.094 LR: -17.775 RR:   0.000 FEB:  -9.125
USER: RMSD 6.284178
USER: SEED 121
USER: STATUS no improvement in best in 2 clusters for 5 generations
USER: GENES 31
USER: genes 0 Translation |==|  0.54659 0.41276 0.49604
USER: genes 1 Rotation |==|  0.30619 0.77130 0.20024 0.72130
USER: genes 2 Torsion [N]-CA--C-[N] |==|  0.38603
USER: genes 3 Torsion [C]-N--CA-[CB] |==|  0.50742
USER: genes 4 Torsion [N]-CA--CB-[OG] |==|  0.59528
USER: genes 5 Torsion [CA]-CB--OG-[HG] |==|  0.87540
USER: genes 6 Torsion [N]-CA--C-[N] |==|  0.47353
USER: genes 7 Torsion [C]-N--CA-[CB] |==|  0.51111
USER: genes 8 Torsion [N]-CA--CB-[CG] |==|  0.99825
USER: genes 9 Torsion [CA]-CB--CG-[CD2] |==|  0.66198
USER: genes 10 Torsion [N]-CA--C-[N] |==|  0.43459
USER: genes 11 Torsion [C]-N--CA-[CB] |==|  0.40790
USER: genes 12 Torsion [N]-CA--CB-[OG] |==|  0.46152
USER: genes 13 Torsion [CA]-CB--OG-[HG] |==|  0.29924
USER: genes 14 Torsion [N]-CA--C-[O] |==|  0.95491
USER: genes 15 Torsion [C]-CA--CB-[CG] |==|  0.11396
USER: genes 16 Torsion [CA]-CB--CG-[CD] |==|  0.41404
USER: genes 17 Torsion [CB]-CG--CD-[NE] |==|  0.24866
USER: genes 18 Torsion [CG]-CD--NE-[CZ] |==|  0.38493
USER: genes 19 Torsion [C]-CA--N-[C] |==|  0.80171
USER: genes 20 Torsion [N]-C--CA-[N] |==|  0.31832
USER: genes 21 Torsion [C]-CA--CB-[CG] |==|  0.19364
USER: genes 22 Torsion [CA]-CB--CG-[CD] |==|  0.64229
USER: genes 23 Torsion [CB]-CG--CD-[CE] |==|  0.89142
USER: genes 24 Torsion [CG]-CD--CE-[NZ] |==|  0.49906
USER: genes 25 Torsion [CD]-CE--NZ-[HZ2] |==|  0.72641
USER: genes 26 Torsion [C]-CA--N-[C] |==|  0.75690
USER: genes 27 Torsion [N]-C--CA-[N] |==|  0.41828
USER: genes 28 Torsion [C]-CA--CB-[CG] |==|  0.63218
USER: genes 29 Torsion [CA]-CB--CG-[CD] |==|  0.77888
USER: genes 30 Torsion [CB]-CG--CD-[OE1] |==|  0.08549
ROOT
ATOM      1  CA  ARG C 843       1.307   2.524   9.148  1.00 48.28 LIG 0.18  C 
ENDROOT
BRANCH 1 2
ATOM      2  C   ARG C 843       2.095   2.502  10.453  1.00 51.26 LIG 0.24  C 
ATOM      3  N   SER C 844       1.501   1.915  11.506  1.00 48.21 LIG-0.34  N 
ATOM      4 H    SER C 844       0.709   1.582  11.476  1.00 48.21 LIG 0.16  HD
ATOM      5 O    ARG C 843       3.217   3.018  10.508  1.00 49.46 LIG-0.27  OA
BRANCH 3 6
ATOM      6  CA  SER C 844       2.148   1.785  12.815  1.00 48.58 LIG 0.20  C 
BRANCH 6 7
ATOM      7  CB  SER C 844       1.254   1.018  13.789  1.00 52.82 LIG 0.20  C 
BRANCH 7 8
ATOM      8 OG   SER C 844       1.378   1.483  15.125  1.00 64.87 LIG-0.40  OA
ATOM      9 HG   SER C 844       2.189   1.589  15.310  1.00 64.87 LIG 0.21  HD
ENDBRANCH 7 8
ENDBRANCH 6 7
BRANCH 6 10
ATOM     10  C   SER C 844       3.506   1.089  12.679  1.00 51.88 LIG 0.24  C 
ATOM     11  N   PHE C 845       4.297   1.078  13.766  1.00 48.65 LIG-0.35  N 
ATOM     12 H    PHE C 845       4.090   1.473  14.502  1.00 48.65 LIG 0.16  HD
ATOM     13 O    SER C 844       3.832   0.583  11.600  1.00 50.80 LIG-0.27  OA
BRANCH 11 14
ATOM     14  CA  PHE C 845       5.591   0.395  13.811  1.00 48.60 LIG 0.18  C 
BRANCH 14 15
ATOM     15  CB  PHE C 845       6.229   0.470  15.221  1.00 50.69 LIG 0.07  C 
BRANCH 15 16
ATOM     16  CG  PHE C 845       5.494   1.211  16.327  1.00 53.32 LIG-0.06  A 
ATOM     17  CD2 PHE C 845       6.090   2.282  16.982  1.00 56.28 LIG 0.01  A 
ATOM     18  CE2 PHE C 845       5.419   2.970  18.003  1.00 59.52 LIG 0.00  A 
ATOM     19  CZ  PHE C 845       4.168   2.566  18.397  1.00 57.95 LIG 0.00  A 
ATOM     20  CE1 PHE C 845       3.562   1.495  17.771  1.00 59.50 LIG 0.00  A 
ATOM     21  CD1 PHE C 845       4.231   0.808  16.748  1.00 58.05 LIG 0.01  A 
ENDBRANCH 15 16
ENDBRANCH 14 15
BRANCH 14 22
ATOM     22  C   PHE C 845       5.360  -1.045  13.338  1.00 51.55 LIG 0.24  C 
ATOM     23 O    PHE C 845       4.230  -1.546  13.364  1.00 49.31 LIG-0.27  OA
ATOM     24  N   SER C 846       6.441  -1.676  12.843  1.00 48.84 LIG-0.34  N 
ATOM     25 H    SER C 846       7.215  -1.303  12.801  1.00 48.84 LIG 0.16  HD
BRANCH 24 26
ATOM     26  CA  SER C 846       6.436  -3.044  12.325  1.00 80.27 LIG 0.19  C 
BRANCH 26 27
ATOM     27  CB  SER C 846       7.434  -3.183  11.179  1.00 83.79 LIG 0.20  C 
BRANCH 27 28
ATOM     28 OG   SER C 846       7.682  -4.546  10.871  1.00 92.96 LIG-0.40  OA
ATOM     29 HG   SER C 846       7.315  -4.739  10.140  1.00 92.96 LIG 0.21  HD
ENDBRANCH 27 28
ENDBRANCH 26 27
BRANCH 26 30
ATOM     30  C   SER C 846       6.761  -4.040  13.429  1.00107.57 LIG 0.22  C 
ATOM     31 O    SER C 846       7.268  -3.648  14.477  1.00 73.66 LIG-0.29  OA
ENDBRANCH 26 30
ENDBRANCH 24 26
ENDBRANCH 14 22
ENDBRANCH 11 14
ENDBRANCH 6 10
ENDBRANCH 3 6
ENDBRANCH 1 2
BRANCH 1 32
ATOM     32  CB  ARG C 843       1.755   1.350   8.230  1.00 50.74 LIG 0.04  C 
BRANCH 32 33
ATOM     33  CG  ARG C 843       1.991   0.023   8.967  1.00 63.97 LIG 0.02  C 
BRANCH 33 34
ATOM     34  CD  ARG C 843       1.698  -1.202   8.132  1.00 82.46 LIG 0.14  C 
BRANCH 34 35
ATOM     35  NE  ARG C 843       2.890  -1.624   7.401  1.00 98.18 LIG-0.23  N 
ATOM     36 HE   ARG C 843       3.379  -1.013   7.045  1.00 98.18 LIG 0.18  HD
ATOM     37  CZ  ARG C 843       3.272  -2.888   7.251  1.00115.63 LIG 0.67  C 
ATOM     38  NH2 ARG C 843       4.385  -3.176   6.595  1.00101.74 LIG-0.23  N 
ATOM     39  NH1 ARG C 843       2.535  -3.876   7.747  1.00105.44 LIG-0.23  N 
ATOM     40 1HH2 ARG C 843       4.865  -2.544   6.264  1.00101.74 LIG 0.17  HD
ATOM     41 2HH2 ARG C 843       4.628  -3.996   6.500  1.00101.74 LIG 0.17  HD
ATOM     42 1HH1 ARG C 843       1.807  -3.700   8.169  1.00105.44 LIG 0.17  HD
ATOM     43 2HH1 ARG C 843       2.787  -4.692   7.647  1.00105.44 LIG 0.17  HD
ENDBRANCH 34 35
ENDBRANCH 33 34
ENDBRANCH 32 33
ENDBRANCH 1 32
BRANCH 1 44
ATOM     44  N   ARG C 843       1.455   3.821   8.474  1.00 47.52 LIG-0.35  N 
ATOM     45  C   LYS C 842       0.880   4.939   8.939  1.00 51.06 LIG 0.24  C 
ATOM     46 O    LYS C 842       0.197   4.969   9.966  1.00 51.08 LIG-0.27  OA
ATOM     47 H    ARG C 843       1.938   3.794   7.763  1.00 47.52 LIG 0.16  HD
BRANCH 45 48
ATOM     48  CA  LYS C 842       1.092   6.215   8.141  1.00 46.69 LIG 0.18  C 
BRANCH 48 49
ATOM     49  CB  LYS C 842       1.747   7.291   9.025  1.00 47.71 LIG 0.04  C 
BRANCH 49 50
ATOM     50  CG  LYS C 842       3.193   7.007   9.399  1.00 50.03 LIG 0.00  C 
BRANCH 50 51
ATOM     51  CD  LYS C 842       3.388   7.131  10.901  1.00 53.65 LIG 0.03  C 
BRANCH 51 52
ATOM     52  CE  LYS C 842       2.594   8.285  11.455  1.00 52.95 LIG 0.23  C 
BRANCH 52 53
ATOM     53  NZ  LYS C 842       2.756   8.428  12.920  1.00 44.67 LIG-0.08  N 
ATOM     54 HZ3  LYS C 842       3.508   8.027  13.176  1.00 44.67 LIG 0.27  HD
ATOM     55 HZ2  LYS C 842       2.065   8.051  13.334  1.00 44.67 LIG 0.27  HD
ATOM     56 HZ1  LYS C 842       2.794   9.292  13.132  1.00 44.67 LIG 0.27  HD
ENDBRANCH 52 53
ENDBRANCH 51 52
ENDBRANCH 50 51
ENDBRANCH 49 50
ENDBRANCH 48 49
BRANCH 48 57
ATOM     57  N   LYS C 842      -0.184   6.668   7.591  1.00 47.24 LIG-0.35  N 
ATOM     58 H    LYS C 842      -0.589   7.228   8.102  1.00 47.24 LIG 0.16  HD
ATOM     59  C   GLN C 841      -0.693   6.268   6.416  1.00 52.93 LIG 0.26  C 
ATOM     60 O    GLN C 841      -0.103   5.504   5.646  1.00 51.68 LIG-0.27  OA
BRANCH 59 61
ATOM     61  CA  GLN C 841      -2.049   6.862   6.026  1.00 52.44 LIG 0.40  C 
ATOM     62  N   GLN C 841      -2.160   6.940   4.569  1.00 53.67 LIG 0.61  N 
BRANCH 61 63
ATOM     63  CB  GLN C 841      -3.209   6.034   6.623  1.00 53.85 LIG 0.06  C 
BRANCH 63 64
ATOM     64  CG  GLN C 841      -4.333   5.680   5.636  1.00 74.06 LIG 0.10  C 
BRANCH 64 65
ATOM     65  CD  GLN C 841      -5.328   6.796   5.373  1.00 99.82 LIG 0.21  C 
ATOM     66 OE1  GLN C 841      -5.004   7.992   5.417  1.00 97.42 LIG-0.27  OA
ATOM     67  NE2 GLN C 841      -6.556   6.423   5.045  1.00 91.89 LIG-0.37  N 
ATOM     68 22HE GLN C 841      -7.149   7.016   4.856  1.00 91.89 LIG 0.16  HD
ATOM     69 21HE GLN C 841      -6.760   5.588   5.021  1.00 91.89 LIG 0.16  HD
ENDBRANCH 64 65
ENDBRANCH 63 64
ENDBRANCH 61 63
ENDBRANCH 59 61
ENDBRANCH 48 57
ENDBRANCH 45 48
ENDBRANCH 1 44
TORSDOF 29
ENDMDL
MODEL 29
USER: ADFR SOLUTION from run 161
USER: SCORE 19.001669 LL:  -3.611 LR: -17.736 RR:   0.000 FEB:  -9.085
USER: RMSD 10.205060
USER: SEED 160
USER: STATUS no improvement in best in 3 clusters for 5 generations
USER: GENES 31
USER: genes 0 Translation |==|  0.65655 0.65528 0.59859
USER: genes 1 Rotation |==|  0.37985 0.01857 0.44225 0.52133
USER: genes 2 Torsion [N]-CA--C-[N] |==|  0.46936
USER: genes 3 Torsion [C]-N--CA-[CB] |==|  0.85972
USER: genes 4 Torsion [N]-CA--CB-[OG] |==|  0.88159
USER: genes 5 Torsion [CA]-CB--OG-[HG] |==|  0.25894
USER: genes 6 Torsion [N]-CA--C-[N] |==|  0.34696
USER: genes 7 Torsion [C]-N--CA-[CB] |==|  0.85617
USER: genes 8 Torsion [N]-CA--CB-[CG] |==|  0.52635
USER: genes 9 Torsion [CA]-CB--CG-[CD2] |==|  0.13212
USER: genes 10 Torsion [N]-CA--C-[N] |==|  0.64399
USER: genes 11 Torsion [C]-N--CA-[CB] |==|  0.11049
USER: genes 12 Torsion [N]-CA--CB-[OG] |==|  0.72544
USER: genes 13 Torsion [CA]-CB--OG-[HG] |==|  0.99876
USER: genes 14 Torsion [N]-CA--C-[O] |==|  0.79407
USER: genes 15 Torsion [C]-CA--CB-[CG] |==|  0.45008
USER: genes 16 Torsion [CA]-CB--CG-[CD] |==|  0.18893
USER: genes 17 Torsion [CB]-CG--CD-[NE] |==|  0.23149
USER: genes 18 Torsion [CG]-CD--NE-[CZ] |==|  0.56765
USER: genes 19 Torsion [C]-CA--N-[C] |==|  0.65373
USER: genes 20 Torsion [N]-C--CA-[N] |==|  0.49236
USER: genes 21 Torsion [C]-CA--CB-[CG] |==|  0.51984
USER: genes 22 Torsion [CA]-CB--CG-[CD] |==|  0.77510
USER: genes 23 Torsion [CB]-CG--CD-[CE] |==|  0.31633
USER: genes 24 Torsion [CG]-CD--CE-[NZ] |==|  0.62582
USER: genes 25 Torsion [CD]-CE--NZ-[HZ2] |==|  0.66044
USER: genes 26 Torsion [C]-CA--N-[C] |==|  0.80919
USER: genes 27 Torsion [N]-C--CA-[N] |==|  0.75034
USER: genes 28 Torsion [C]-CA--CB-[CG] |==|  0.27683
USER: genes 29 Torsion [CA]-CB--CG-[CD] |==|  0.89935
USER: genes 30 Torsion [CB]-CG--CD-[OE1] |==|  0.88913
ROOT
ATOM      1  CA  ARG C 843       3.946   8.162  11.763  1.00 48.28 LIG 0.18  C 
ENDROOT
BRANCH 1 2
ATOM      2  C   ARG C 843       3.564   7.232  10.617  1.00 51.26 LIG 0.24  C 
ATOM      3  N   SER C 844       2.250   7.044  10.407  1.00 48.21 LIG-0.34  N 
ATOM      4 H    SER C 844       1.638   7.400  10.894  1.00 48.21 LIG 0.16  HD
ATOM      5 O    ARG C 843       4.444   6.687   9.942  1.00 49.46 LIG-0.27  OA
BRANCH 3 6
ATOM      6  CA  SER C 844       1.729   6.208   9.320  1.00 48.58 LIG 0.20  C 
BRANCH 6 7
ATOM      7  CB  SER C 844       2.366   6.594   7.985  1.00 52.82 LIG 0.20  C 
BRANCH 7 8
ATOM      8 OG   SER C 844       2.462   8.000   7.813  1.00 64.87 LIG-0.40  OA
ATOM      9 HG   SER C 844       3.214   8.264   8.079  1.00 64.87 LIG 0.21  HD
ENDBRANCH 7 8
ENDBRANCH 6 7
BRANCH 6 10
ATOM     10  C   SER C 844       1.971   4.725   9.617  1.00 51.88 LIG 0.24  C 
ATOM     11  N   PHE C 845       0.896   3.916   9.599  1.00 48.65 LIG-0.35  N 
ATOM     12 H    PHE C 845       0.095   4.203   9.470  1.00 48.65 LIG 0.16  HD
ATOM     13 O    SER C 844       3.112   4.327   9.871  1.00 50.80 LIG-0.27  OA
BRANCH 11 14
ATOM     14  CA  PHE C 845       0.978   2.468   9.796  1.00 48.60 LIG 0.18  C 
BRANCH 14 15
ATOM     15  CB  PHE C 845       2.021   1.820   8.852  1.00 50.69 LIG 0.07  C 
BRANCH 15 16
ATOM     16  CG  PHE C 845       2.092   0.304   8.756  1.00 53.32 LIG-0.06  A 
ATOM     17  CD2 PHE C 845       0.938  -0.452   8.588  1.00 56.28 LIG 0.01  A 
ATOM     18  CE2 PHE C 845       0.995  -1.850   8.499  1.00 59.52 LIG 0.00  A 
ATOM     19  CZ  PHE C 845       2.199  -2.498   8.617  1.00 57.95 LIG 0.00  A 
ATOM     20  CE1 PHE C 845       3.357  -1.769   8.800  1.00 59.50 LIG 0.00  A 
ATOM     21  CD1 PHE C 845       3.302  -0.370   8.886  1.00 58.05 LIG 0.01  A 
ENDBRANCH 15 16
ENDBRANCH 14 15
BRANCH 14 22
ATOM     22  C   PHE C 845       1.287   2.229  11.278  1.00 51.55 LIG 0.24  C 
ATOM     23 O    PHE C 845       0.564   2.708  12.161  1.00 49.31 LIG-0.27  OA
ATOM     24  N   SER C 846       2.336   1.425  11.532  1.00 48.84 LIG-0.34  N 
ATOM     25 H    SER C 846       2.810   1.073  10.907  1.00 48.84 LIG 0.16  HD
BRANCH 24 26
ATOM     26  CA  SER C 846       2.790   1.056  12.873  1.00 80.27 LIG 0.19  C 
BRANCH 26 27
ATOM     27  CB  SER C 846       1.596   0.802  13.788  1.00 83.79 LIG 0.20  C 
BRANCH 27 28
ATOM     28 OG   SER C 846       1.314   1.932  14.599  1.00 92.96 LIG-0.40  OA
ATOM     29 HG   SER C 846       1.866   2.542  14.430  1.00 92.96 LIG 0.21  HD
ENDBRANCH 27 28
ENDBRANCH 26 27
BRANCH 26 30
ATOM     30  C   SER C 846       3.684  -0.175  12.821  1.00107.57 LIG 0.22  C 
ATOM     31 O    SER C 846       3.189  -1.282  12.624  1.00 73.66 LIG-0.29  OA
ENDBRANCH 26 30
ENDBRANCH 24 26
ENDBRANCH 14 22
ENDBRANCH 11 14
ENDBRANCH 6 10
ENDBRANCH 3 6
ENDBRANCH 1 2
BRANCH 1 32
ATOM     32  CB  ARG C 843       3.518   9.622  11.436  1.00 50.74 LIG 0.04  C 
BRANCH 32 33
ATOM     33  CG  ARG C 843       3.451  10.552  12.657  1.00 63.97 LIG 0.02  C 
BRANCH 33 34
ATOM     34  CD  ARG C 843       4.797  10.852  13.273  1.00 82.46 LIG 0.14  C 
BRANCH 34 35
ATOM     35  NE  ARG C 843       5.458  11.942  12.559  1.00 98.18 LIG-0.23  N 
ATOM     36 HE   ARG C 843       4.963  12.496  12.127  1.00 98.18 LIG 0.18  HD
ATOM     37  CZ  ARG C 843       6.772  12.136  12.533  1.00115.63 LIG 0.67  C 
ATOM     38  NH2 ARG C 843       7.282  13.169  11.881  1.00101.74 LIG-0.23  N 
ATOM     39  NH1 ARG C 843       7.589  11.290  13.151  1.00105.44 LIG-0.23  N 
ATOM     40 1HH2 ARG C 843       6.762  13.719  11.472  1.00101.74 LIG 0.17  HD
ATOM     41 2HH2 ARG C 843       8.133  13.291  11.866  1.00101.74 LIG 0.17  HD
ATOM     42 1HH1 ARG C 843       7.269  10.613  13.572  1.00105.44 LIG 0.17  HD
ATOM     43 2HH1 ARG C 843       8.439  11.421  13.131  1.00105.44 LIG 0.17  HD
ENDBRANCH 34 35
ENDBRANCH 33 34
ENDBRANCH 32 33
ENDBRANCH 1 32
BRANCH 1 44
ATOM     44  N   ARG C 843       5.385   8.073  12.046  1.00 47.52 LIG-0.35  N 
ATOM     45  C   LYS C 842       5.859   7.779  13.265  1.00 51.06 LIG 0.24  C 
ATOM     46 O    LYS C 842       5.130   7.552  14.235  1.00 51.08 LIG-0.27  OA
ATOM     47 H    ARG C 843       5.887   8.226  11.364  1.00 47.52 LIG 0.16  HD
BRANCH 45 48
ATOM     48  CA  LYS C 842       7.368   7.736  13.434  1.00 46.69 LIG 0.18  C 
BRANCH 48 49
ATOM     49  CB  LYS C 842       7.978   6.683  12.490  1.00 47.71 LIG 0.04  C 
BRANCH 49 50
ATOM     50  CG  LYS C 842       9.462   6.435  12.696  1.00 50.03 LIG 0.00  C 
BRANCH 50 51
ATOM     51  CD  LYS C 842      10.282   7.508  11.999  1.00 53.65 LIG 0.03  C 
BRANCH 51 52
ATOM     52  CE  LYS C 842      11.024   8.355  13.000  1.00 52.95 LIG 0.23  C 
BRANCH 52 53
ATOM     53  NZ  LYS C 842      10.918   9.802  12.702  1.00 44.67 LIG-0.08  N 
ATOM     54 HZ3  LYS C 842      10.453   9.918  11.952  1.00 44.67 LIG 0.27  HD
ATOM     55 HZ2  LYS C 842      11.733  10.145  12.601  1.00 44.67 LIG 0.27  HD
ATOM     56 HZ1  LYS C 842      10.503  10.214  13.374  1.00 44.67 LIG 0.27  HD
ENDBRANCH 52 53
ENDBRANCH 51 52
ENDBRANCH 50 51
ENDBRANCH 49 50
ENDBRANCH 48 49
BRANCH 48 57
ATOM     57  N   LYS C 842       7.699   7.467  14.832  1.00 47.24 LIG-0.35  N 
ATOM     58 H    LYS C 842       8.050   6.691  14.950  1.00 47.24 LIG 0.16  HD
ATOM     59  C   GLN C 841       7.488   8.323  15.843  1.00 52.93 LIG 0.26  C 
ATOM     60 O    GLN C 841       7.032   9.459  15.687  1.00 51.68 LIG-0.27  OA
BRANCH 59 61
ATOM     61  CA  GLN C 841       7.904   7.842  17.237  1.00 52.44 LIG 0.40  C 
ATOM     62  N   GLN C 841       6.787   7.150  17.880  1.00 53.67 LIG 0.61  N 
BRANCH 61 63
ATOM     63  CB  GLN C 841       9.148   6.929  17.159  1.00 53.85 LIG 0.06  C 
BRANCH 63 64
ATOM     64  CG  GLN C 841      10.482   7.616  17.493  1.00 74.06 LIG 0.10  C 
BRANCH 64 65
ATOM     65  CD  GLN C 841      10.596   9.055  17.024  1.00 99.82 LIG 0.21  C 
ATOM     66 OE1  GLN C 841      10.160   9.427  15.925  1.00 97.42 LIG-0.27  OA
ATOM     67  NE2 GLN C 841      11.147   9.909  17.874  1.00 91.89 LIG-0.37  N 
ATOM     68 22HE GLN C 841      11.207  10.741  17.669  1.00 91.89 LIG 0.16  HD
ATOM     69 21HE GLN C 841      11.444   9.630  18.632  1.00 91.89 LIG 0.16  HD
ENDBRANCH 64 65
ENDBRANCH 63 64
ENDBRANCH 61 63
ENDBRANCH 59 61
ENDBRANCH 48 57
ENDBRANCH 45 48
ENDBRANCH 1 44
TORSDOF 29
ENDMDL
MODEL 30
USER: ADFR SOLUTION from run 116
USER: SCORE 19.404030 LL:  -3.601 LR: -17.742 RR:   0.000 FEB:  -9.092
USER: RMSD 7.931151
USER: SEED 115
USER: STATUS no improvement in best in 24 clusters for 5 generations
USER: GENES 31
USER: genes 0 Translation |==|  0.57592 0.55745 0.47987
USER: genes 1 Rotation |==|  0.62680 0.83435 0.20642 0.68959
USER: genes 2 Torsion [N]-CA--C-[N] |==|  0.85003
USER: genes 3 Torsion [C]-N--CA-[CB] |==|  0.14847
USER: genes 4 Torsion [N]-CA--CB-[OG] |==|  0.53688
USER: genes 5 Torsion [CA]-CB--OG-[HG] |==|  0.71167
USER: genes 6 Torsion [N]-CA--C-[N] |==|  0.59131
USER: genes 7 Torsion [C]-N--CA-[CB] |==|  0.88801
USER: genes 8 Torsion [N]-CA--CB-[CG] |==|  0.71159
USER: genes 9 Torsion [CA]-CB--CG-[CD2] |==|  0.03107
USER: genes 10 Torsion [N]-CA--C-[N] |==|  0.92222
USER: genes 11 Torsion [C]-N--CA-[CB] |==|  0.31598
USER: genes 12 Torsion [N]-CA--CB-[OG] |==|  0.95521
USER: genes 13 Torsion [CA]-CB--OG-[HG] |==|  0.14095
USER: genes 14 Torsion [N]-CA--C-[O] |==|  0.97984
USER: genes 15 Torsion [C]-CA--CB-[CG] |==|  0.28134
USER: genes 16 Torsion [CA]-CB--CG-[CD] |==|  0.80487
USER: genes 17 Torsion [CB]-CG--CD-[NE] |==|  0.29392
USER: genes 18 Torsion [CG]-CD--NE-[CZ] |==|  0.32729
USER: genes 19 Torsion [C]-CA--N-[C] |==|  0.72175
USER: genes 20 Torsion [N]-C--CA-[N] |==|  0.35950
USER: genes 21 Torsion [C]-CA--CB-[CG] |==|  0.41878
USER: genes 22 Torsion [CA]-CB--CG-[CD] |==|  0.22637
USER: genes 23 Torsion [CB]-CG--CD-[CE] |==|  0.57758
USER: genes 24 Torsion [CG]-CD--CE-[NZ] |==|  0.43934
USER: genes 25 Torsion [CD]-CE--NZ-[HZ2] |==|  0.43933
USER: genes 26 Torsion [C]-CA--N-[C] |==|  0.64860
USER: genes 27 Torsion [N]-C--CA-[N] |==|  0.79947
USER: genes 28 Torsion [C]-CA--CB-[CG] |==|  0.25174
USER: genes 29 Torsion [CA]-CB--CG-[CD] |==|  0.58690
USER: genes 30 Torsion [CB]-CG--CD-[OE1] |==|  0.22215
ROOT
ATOM      1  CA  ARG C 843       2.011   5.888   8.736  1.00 48.28 LIG 0.18  C 
ENDROOT
BRANCH 1 2
ATOM      2  C   ARG C 843       1.391   4.817   9.627  1.00 51.26 LIG 0.24  C 
ATOM      3  N   SER C 844       2.205   3.831  10.040  1.00 48.21 LIG-0.34  N 
ATOM      4 H    SER C 844       3.031   3.772   9.808  1.00 48.21 LIG 0.16  HD
ATOM      5 O    ARG C 843       0.193   4.878   9.926  1.00 49.46 LIG-0.27  OA
BRANCH 3 6
ATOM      6  CA  SER C 844       1.762   2.753  10.930  1.00 48.58 LIG 0.20  C 
BRANCH 6 7
ATOM      7  CB  SER C 844       0.517   2.064  10.371  1.00 52.82 LIG 0.20  C 
BRANCH 7 8
ATOM      8 OG   SER C 844      -0.119   1.228  11.326  1.00 64.87 LIG-0.40  OA
ATOM      9 HG   SER C 844       0.056   0.425  11.156  1.00 64.87 LIG 0.21  HD
ENDBRANCH 7 8
ENDBRANCH 6 7
BRANCH 6 10
ATOM     10  C   SER C 844       2.885   1.734  11.142  1.00 51.88 LIG 0.24  C 
ATOM     11  N   PHE C 845       2.519   0.451  11.313  1.00 48.65 LIG-0.35  N 
ATOM     12 H    PHE C 845       1.698   0.197  11.347  1.00 48.65 LIG 0.16  HD
ATOM     13 O    SER C 844       4.061   2.110  11.163  1.00 50.80 LIG-0.27  OA
BRANCH 11 14
ATOM     14  CA  PHE C 845       3.479  -0.646  11.459  1.00 48.60 LIG 0.18  C 
BRANCH 14 15
ATOM     15  CB  PHE C 845       4.682  -0.484  10.497  1.00 50.69 LIG 0.07  C 
BRANCH 15 16
ATOM     16  CG  PHE C 845       4.753  -1.347   9.247  1.00 53.32 LIG-0.06  A 
ATOM     17  CD2 PHE C 845       3.657  -2.099   8.841  1.00 56.28 LIG 0.01  A 
ATOM     18  CE2 PHE C 845       3.714  -2.897   7.690  1.00 59.52 LIG 0.00  A 
ATOM     19  CZ  PHE C 845       4.876  -2.977   6.965  1.00 57.95 LIG 0.00  A 
ATOM     20  CE1 PHE C 845       5.982  -2.249   7.358  1.00 59.50 LIG 0.00  A 
ATOM     21  CD1 PHE C 845       5.926  -1.449   8.507  1.00 58.05 LIG 0.01  A 
ENDBRANCH 15 16
ENDBRANCH 14 15
BRANCH 14 22
ATOM     22  C   PHE C 845       3.895  -0.690  12.933  1.00 51.55 LIG 0.24  C 
ATOM     23 O    PHE C 845       4.314  -1.737  13.442  1.00 49.31 LIG-0.27  OA
ATOM     24  N   SER C 846       3.837   0.484  13.590  1.00 48.84 LIG-0.34  N 
ATOM     25 H    SER C 846       3.574   1.212  13.214  1.00 48.84 LIG 0.16  HD
BRANCH 24 26
ATOM     26  CA  SER C 846       4.204   0.665  14.995  1.00 80.27 LIG 0.19  C 
BRANCH 26 27
ATOM     27  CB  SER C 846       5.440   1.552  15.112  1.00 83.79 LIG 0.20  C 
BRANCH 27 28
ATOM     28 OG   SER C 846       6.117   1.662  13.870  1.00 92.96 LIG-0.40  OA
ATOM     29 HG   SER C 846       5.569   1.878  13.270  1.00 92.96 LIG 0.21  HD
ENDBRANCH 27 28
ENDBRANCH 26 27
BRANCH 26 30
ATOM     30  C   SER C 846       3.048   1.269  15.781  1.00107.57 LIG 0.22  C 
ATOM     31 O    SER C 846       2.042   1.654  15.191  1.00 73.66 LIG-0.29  OA
ENDBRANCH 26 30
ENDBRANCH 24 26
ENDBRANCH 14 22
ENDBRANCH 11 14
ENDBRANCH 6 10
ENDBRANCH 3 6
ENDBRANCH 1 2
BRANCH 1 32
ATOM     32  CB  ARG C 843       2.346   5.293   7.337  1.00 50.74 LIG 0.04  C 
BRANCH 32 33
ATOM     33  CG  ARG C 843       1.331   5.644   6.239  1.00 63.97 LIG 0.02  C 
BRANCH 33 34
ATOM     34  CD  ARG C 843      -0.007   4.961   6.400  1.00 82.46 LIG 0.14  C 
BRANCH 34 35
ATOM     35  NE  ARG C 843      -1.015   5.909   6.867  1.00 98.18 LIG-0.23  N 
ATOM     36 HE   ARG C 843      -0.894   6.276   7.635  1.00 98.18 LIG 0.18  HD
ATOM     37  CZ  ARG C 843      -2.107   6.241   6.187  1.00115.63 LIG 0.67  C 
ATOM     38  NH2 ARG C 843      -2.954   7.132   6.677  1.00101.74 LIG-0.23  N 
ATOM     39  NH1 ARG C 843      -2.365   5.677   5.012  1.00105.44 LIG-0.23  N 
ATOM     40 1HH2 ARG C 843      -2.799   7.499   7.440  1.00101.74 LIG 0.17  HD
ATOM     41 2HH2 ARG C 843      -3.659   7.345   6.233  1.00101.74 LIG 0.17  HD
ATOM     42 1HH1 ARG C 843      -1.824   5.092   4.688  1.00105.44 LIG 0.17  HD
ATOM     43 2HH1 ARG C 843      -3.073   5.896   4.576  1.00105.44 LIG 0.17  HD
ENDBRANCH 34 35
ENDBRANCH 33 34
ENDBRANCH 32 33
ENDBRANCH 1 32
BRANCH 1 44
ATOM     44  N   ARG C 843       3.201   6.469   9.373  1.00 47.52 LIG-0.35  N 
ATOM     45  C   LYS C 842       3.167   7.648  10.011  1.00 51.06 LIG 0.24  C 
ATOM     46 O    LYS C 842       2.142   8.326  10.122  1.00 51.08 LIG-0.27  OA
ATOM     47 H    ARG C 843       3.909   5.988   9.298  1.00 47.52 LIG 0.16  HD
BRANCH 45 48
ATOM     48  CA  LYS C 842       4.469   8.151  10.612  1.00 46.69 LIG 0.18  C 
BRANCH 48 49
ATOM     49  CB  LYS C 842       4.427   8.027  12.147  1.00 47.71 LIG 0.04  C 
BRANCH 49 50
ATOM     50  CG  LYS C 842       5.783   7.815  12.799  1.00 50.03 LIG 0.00  C 
BRANCH 50 51
ATOM     51  CD  LYS C 842       6.510   9.141  12.955  1.00 53.65 LIG 0.03  C 
BRANCH 51 52
ATOM     52  CE  LYS C 842       8.004   8.941  12.939  1.00 52.95 LIG 0.23  C 
BRANCH 52 53
ATOM     53  NZ  LYS C 842       8.733  10.177  12.572  1.00 44.67 LIG-0.08  N 
ATOM     54 HZ3  LYS C 842       8.738  10.267  11.686  1.00 44.67 LIG 0.27  HD
ATOM     55 HZ2  LYS C 842       9.570  10.128  12.869  1.00 44.67 LIG 0.27  HD
ATOM     56 HZ1  LYS C 842       8.328  10.881  12.938  1.00 44.67 LIG 0.27  HD
ENDBRANCH 52 53
ENDBRANCH 51 52
ENDBRANCH 50 51
ENDBRANCH 49 50
ENDBRANCH 48 49
BRANCH 48 57
ATOM     57  N   LYS C 842       4.707   9.528  10.186  1.00 47.24 LIG-0.35  N 
ATOM     58 H    LYS C 842       4.044  10.050  10.350  1.00 47.24 LIG 0.16  HD
ATOM     59  C   GLN C 841       5.833   9.960   9.598  1.00 52.93 LIG 0.26  C 
ATOM     60 O    GLN C 841       6.814   9.239   9.399  1.00 51.68 LIG-0.27  OA
BRANCH 59 61
ATOM     61  CA  GLN C 841       5.877  11.445   9.225  1.00 52.44 LIG 0.40  C 
ATOM     62  N   GLN C 841       4.998  11.701   8.084  1.00 53.67 LIG 0.61  N 
BRANCH 61 63
ATOM     63  CB  GLN C 841       5.487  12.330  10.430  1.00 53.85 LIG 0.06  C 
BRANCH 63 64
ATOM     64  CG  GLN C 841       6.660  12.773  11.320  1.00 74.06 LIG 0.10  C 
BRANCH 64 65
ATOM     65  CD  GLN C 841       6.317  12.958  12.787  1.00 99.82 LIG 0.21  C 
ATOM     66 OE1  GLN C 841       6.232  12.001  13.570  1.00 97.42 LIG-0.27  OA
ATOM     67  NE2 GLN C 841       6.159  14.207  13.201  1.00 91.89 LIG-0.37  N 
ATOM     68 22HE GLN C 841       5.993  14.367  14.029  1.00 91.89 LIG 0.16  HD
ATOM     69 21HE GLN C 841       6.221  14.857  12.641  1.00 91.89 LIG 0.16  HD
ENDBRANCH 64 65
ENDBRANCH 63 64
ENDBRANCH 61 63
ENDBRANCH 59 61
ENDBRANCH 48 57
ENDBRANCH 45 48
ENDBRANCH 1 44
TORSDOF 29
ENDMDL
MODEL 31
USER: ADFR SOLUTION from run 48
USER: SCORE 20.181632 LL:  -3.937 LR: -17.741 RR:   0.000 FEB:  -9.090
USER: RMSD 6.839829
USER: SEED 47
USER: STATUS no improvement in best in 5 clusters for 5 generations
USER: GENES 31
USER: genes 0 Translation |==|  0.54781 0.55836 0.47296
USER: genes 1 Rotation |==|  0.58903 0.85539 0.20301 0.66604
USER: genes 2 Torsion [N]-CA--C-[N] |==|  0.86119
USER: genes 3 Torsion [C]-N--CA-[CB] |==|  0.15745
USER: genes 4 Torsion [N]-CA--CB-[OG] |==|  0.56563
USER: genes 5 Torsion [CA]-CB--OG-[HG] |==|  0.69452
USER: genes 6 Torsion [N]-CA--C-[N] |==|  0.63246
USER: genes 7 Torsion [C]-N--CA-[CB] |==|  0.25000
USER: genes 8 Torsion [N]-CA--CB-[CG] |==|  0.95445
USER: genes 9 Torsion [CA]-CB--CG-[CD2] |==|  0.62947
USER: genes 10 Torsion [N]-CA--C-[N] |==|  0.98441
USER: genes 11 Torsion [C]-N--CA-[CB] |==|  0.49288
USER: genes 12 Torsion [N]-CA--CB-[OG] |==|  0.02236
USER: genes 13 Torsion [CA]-CB--OG-[HG] |==|  0.46519
USER: genes 14 Torsion [N]-CA--C-[O] |==|  0.24112
USER: genes 15 Torsion [C]-CA--CB-[CG] |==|  0.32889
USER: genes 16 Torsion [CA]-CB--CG-[CD] |==|  0.90678
USER: genes 17 Torsion [CB]-CG--CD-[NE] |==|  0.65527
USER: genes 18 Torsion [CG]-CD--NE-[CZ] |==|  0.53181
USER: genes 19 Torsion [C]-CA--N-[C] |==|  0.79448
USER: genes 20 Torsion [N]-C--CA-[N] |==|  0.12076
USER: genes 21 Torsion [C]-CA--CB-[CG] |==|  0.39538
USER: genes 22 Torsion [CA]-CB--CG-[CD] |==|  0.24533
USER: genes 23 Torsion [CB]-CG--CD-[CE] |==|  0.37664
USER: genes 24 Torsion [CG]-CD--CE-[NZ] |==|  0.48951
USER: genes 25 Torsion [CD]-CE--NZ-[HZ2] |==|  0.80075
USER: genes 26 Torsion [C]-CA--N-[C] |==|  0.15506
USER: genes 27 Torsion [N]-C--CA-[N] |==|  0.41809
USER: genes 28 Torsion [C]-CA--CB-[CG] |==|  0.07473
USER: genes 29 Torsion [CA]-CB--CG-[CD] |==|  0.63157
USER: genes 30 Torsion [CB]-CG--CD-[OE1] |==|  0.58802
ROOT
ATOM      1  CA  ARG C 843       1.337   5.909   8.559  1.00 48.28 LIG 0.18  C 
ENDROOT
BRANCH 1 2
ATOM      2  C   ARG C 843       0.960   4.801   9.537  1.00 51.26 LIG 0.24  C 
ATOM      3  N   SER C 844       1.922   3.914   9.843  1.00 48.21 LIG-0.34  N 
ATOM      4 H    SER C 844       2.710   3.936   9.501  1.00 48.21 LIG 0.16  HD
ATOM      5 O    ARG C 843      -0.186   4.745   9.997  1.00 49.46 LIG-0.27  OA
BRANCH 3 6
ATOM      6  CA  SER C 844       1.720   2.817  10.795  1.00 48.58 LIG 0.20  C 
BRANCH 6 7
ATOM      7  CB  SER C 844       0.539   1.943  10.373  1.00 52.82 LIG 0.20  C 
BRANCH 7 8
ATOM      8 OG   SER C 844      -0.030   1.234  11.464  1.00 64.87 LIG-0.40  OA
ATOM      9 HG   SER C 844       0.141   0.416  11.386  1.00 64.87 LIG 0.21  HD
ENDBRANCH 7 8
ENDBRANCH 6 7
BRANCH 6 10
ATOM     10  C   SER C 844       2.991   1.972  10.920  1.00 51.88 LIG 0.24  C 
ATOM     11  N   PHE C 845       2.845   0.637  10.845  1.00 48.65 LIG-0.35  N 
ATOM     12 H    PHE C 845       2.079   0.252  10.772  1.00 48.65 LIG 0.16  HD
ATOM     13 O    SER C 844       4.082   2.523  11.093  1.00 50.80 LIG-0.27  OA
BRANCH 11 14
ATOM     14  CA  PHE C 845       3.971  -0.298  10.878  1.00 48.60 LIG 0.18  C 
BRANCH 14 15
ATOM     15  CB  PHE C 845       4.310  -0.733  12.326  1.00 50.69 LIG 0.07  C 
BRANCH 15 16
ATOM     16  CG  PHE C 845       3.766   0.081  13.490  1.00 53.32 LIG-0.06  A 
ATOM     17  CD2 PHE C 845       4.591   0.451  14.544  1.00 56.28 LIG 0.01  A 
ATOM     18  CE2 PHE C 845       4.097   1.202  15.620  1.00 59.52 LIG 0.00  A 
ATOM     19  CZ  PHE C 845       2.770   1.550  15.665  1.00 57.95 LIG 0.00  A 
ATOM     20  CE1 PHE C 845       1.928   1.180  14.635  1.00 59.50 LIG 0.00  A 
ATOM     21  CD1 PHE C 845       2.421   0.432  13.557  1.00 58.05 LIG 0.01  A 
ENDBRANCH 15 16
ENDBRANCH 14 15
BRANCH 14 22
ATOM     22  C   PHE C 845       3.606  -1.479   9.971  1.00 51.55 LIG 0.24  C 
ATOM     23 O    PHE C 845       4.407  -2.403   9.782  1.00 49.31 LIG-0.27  OA
ATOM     24  N   SER C 846       2.357  -1.464   9.469  1.00 48.84 LIG-0.34  N 
ATOM     25 H    SER C 846       1.800  -0.831   9.637  1.00 48.84 LIG 0.16  HD
BRANCH 24 26
ATOM     26  CA  SER C 846       1.804  -2.500   8.597  1.00 80.27 LIG 0.19  C 
BRANCH 26 27
ATOM     27  CB  SER C 846       0.345  -2.195   8.269  1.00 83.79 LIG 0.20  C 
BRANCH 27 28
ATOM     28 OG   SER C 846      -0.034  -0.911   8.737  1.00 92.96 LIG-0.40  OA
ATOM     29 HG   SER C 846      -0.774  -0.697   8.401  1.00 92.96 LIG 0.21  HD
ENDBRANCH 27 28
ENDBRANCH 26 27
BRANCH 26 30
ATOM     30  C   SER C 846       2.617  -2.617   7.315  1.00107.57 LIG 0.22  C 
ATOM     31 O    SER C 846       3.606  -3.345   7.282  1.00 73.66 LIG-0.29  OA
ENDBRANCH 26 30
ENDBRANCH 24 26
ENDBRANCH 14 22
ENDBRANCH 11 14
ENDBRANCH 6 10
ENDBRANCH 3 6
ENDBRANCH 1 2
BRANCH 1 32
ATOM     32  CB  ARG C 843       1.441   5.338   7.116  1.00 50.74 LIG 0.04  C 
BRANCH 32 33
ATOM     33  CG  ARG C 843       0.450   5.955   6.117  1.00 63.97 LIG 0.02  C 
BRANCH 33 34
ATOM     34  CD  ARG C 843      -0.879   6.335   6.728  1.00 82.46 LIG 0.14  C 
BRANCH 34 35
ATOM     35  NE  ARG C 843      -1.977   5.684   6.017  1.00 98.18 LIG-0.23  N 
ATOM     36 HE   ARG C 843      -1.779   5.062   5.458  1.00 98.18 LIG 0.18  HD
ATOM     37  CZ  ARG C 843      -3.260   5.988   6.176  1.00115.63 LIG 0.67  C 
ATOM     38  NH2 ARG C 843      -4.192   5.325   5.509  1.00101.74 LIG-0.23  N 
ATOM     39  NH1 ARG C 843      -3.623   6.966   6.999  1.00105.44 LIG-0.23  N 
ATOM     40 1HH2 ARG C 843      -3.967   4.694   4.969  1.00101.74 LIG 0.17  HD
ATOM     41 2HH2 ARG C 843      -5.021   5.524   5.615  1.00101.74 LIG 0.17  HD
ATOM     42 1HH1 ARG C 843      -3.026   7.407   7.432  1.00105.44 LIG 0.17  HD
ATOM     43 2HH1 ARG C 843      -4.455   7.158   7.099  1.00105.44 LIG 0.17  HD
ENDBRANCH 34 35
ENDBRANCH 33 34
ENDBRANCH 32 33
ENDBRANCH 1 32
BRANCH 1 44
ATOM     44  N   ARG C 843       2.586   6.562   8.972  1.00 47.52 LIG-0.35  N 
ATOM     45  C   LYS C 842       2.643   7.407  10.012  1.00 51.06 LIG 0.24  C 
ATOM     46 O    LYS C 842       1.663   7.691  10.704  1.00 51.08 LIG-0.27  OA
ATOM     47 H    ARG C 843       3.267   6.355   8.490  1.00 47.52 LIG 0.16  HD
BRANCH 45 48
ATOM     48  CA  LYS C 842       3.992   8.033  10.326  1.00 46.69 LIG 0.18  C 
BRANCH 48 49
ATOM     49  CB  LYS C 842       3.817   9.201  11.314  1.00 47.71 LIG 0.04  C 
BRANCH 49 50
ATOM     50  CG  LYS C 842       4.922   9.322  12.349  1.00 50.03 LIG 0.00  C 
BRANCH 50 51
ATOM     51  CD  LYS C 842       6.056  10.183  11.818  1.00 53.65 LIG 0.03  C 
BRANCH 51 52
ATOM     52  CE  LYS C 842       6.524  11.163  12.862  1.00 52.95 LIG 0.23  C 
BRANCH 52 53
ATOM     53  NZ  LYS C 842       7.689  11.957  12.407  1.00 44.67 LIG-0.08  N 
ATOM     54 HZ3  LYS C 842       7.530  12.279  11.593  1.00 44.67 LIG 0.27  HD
ATOM     55 HZ2  LYS C 842       8.411  11.438  12.383  1.00 44.67 LIG 0.27  HD
ATOM     56 HZ1  LYS C 842       7.827  12.632  12.971  1.00 44.67 LIG 0.27  HD
ENDBRANCH 52 53
ENDBRANCH 51 52
ENDBRANCH 50 51
ENDBRANCH 49 50
ENDBRANCH 48 49
BRANCH 48 57
ATOM     57  N   LYS C 842       4.634   8.464   9.085  1.00 47.24 LIG-0.35  N 
ATOM     58 H    LYS C 842       5.417   8.124   8.977  1.00 47.24 LIG 0.16  HD
ATOM     59  C   GLN C 841       4.084   9.301   8.193  1.00 52.93 LIG 0.26  C 
ATOM     60 O    GLN C 841       2.944   9.759   8.306  1.00 51.68 LIG-0.27  OA
BRANCH 59 61
ATOM     61  CA  GLN C 841       4.929   9.628   6.958  1.00 52.44 LIG 0.40  C 
ATOM     62  N   GLN C 841       4.058   9.914   5.818  1.00 53.67 LIG 0.61  N 
BRANCH 61 63
ATOM     63  CB  GLN C 841       5.879  10.815   7.237  1.00 53.85 LIG 0.06  C 
BRANCH 63 64
ATOM     64  CG  GLN C 841       6.282  10.994   8.710  1.00 74.06 LIG 0.10  C 
BRANCH 64 65
ATOM     65  CD  GLN C 841       6.170  12.414   9.235  1.00 99.82 LIG 0.21  C 
ATOM     66 OE1  GLN C 841       6.930  12.856  10.109  1.00 97.42 LIG-0.27  OA
ATOM     67  NE2 GLN C 841       5.243  13.177   8.674  1.00 91.89 LIG-0.37  N 
ATOM     68 22HE GLN C 841       5.159  13.998   8.914  1.00 91.89 LIG 0.16  HD
ATOM     69 21HE GLN C 841       4.725  12.850   8.070  1.00 91.89 LIG 0.16  HD
ENDBRANCH 64 65
ENDBRANCH 63 64
ENDBRANCH 61 63
ENDBRANCH 59 61
ENDBRANCH 48 57
ENDBRANCH 45 48
ENDBRANCH 1 44
TORSDOF 29
ENDMDL
