MODEL 1
USER: ADFR SOLUTION from run 129
USER: SCORE 22.114379 LL:  -1.742 LR: -22.460 RR:   0.000 FEB: -12.617
USER: RMSD 6.881097
USER: SEED 128
USER: STATUS 1 or 2 clusters left
USER: GENES 35
USER: genes 0 Translation |==|  0.51513 0.48444 0.44641
USER: genes 1 Rotation |==|  0.47870 0.97568 0.37322 0.58484
USER: genes 2 Torsion [C]-CA--N-[C] |==|  0.72969
USER: genes 3 Torsion [N]-C--CA-[N] |==|  0.64493
USER: genes 4 Torsion [C]-CA--N-[C] |==|  0.23271
USER: genes 5 Torsion [N]-C--CA-[N] |==|  0.57201
USER: genes 6 Torsion [C]-CA--CB-[CG] |==|  0.90781
USER: genes 7 Torsion [CA]-CB--CG-[CD] |==|  0.84335
USER: genes 8 Torsion [CB]-CG--CD-[NE] |==|  0.59303
USER: genes 9 Torsion [CG]-CD--NE-[HE] |==|  0.36406
USER: genes 10 Torsion [C]-CA--CB-[CG] |==|  0.42582
USER: genes 11 Torsion [CA]-CB--CG-[CD] |==|  0.68648
USER: genes 12 Torsion [CB]-CG--CD-[CE] |==|  0.54677
USER: genes 13 Torsion [CG]-CD--CE-[NZ] |==|  0.76132
USER: genes 14 Torsion [CD]-CE--NZ-[HZ2] |==|  0.86564
USER: genes 15 Torsion [N]-CA--C-[N] |==|  0.38751
USER: genes 16 Torsion [C]-N--CA-[CB] |==|  0.87041
USER: genes 17 Torsion [N]-CA--CB-[CG] |==|  0.56062
USER: genes 18 Torsion [CA]-CB--CG-[CD] |==|  0.45495
USER: genes 19 Torsion [CB]-CG--CD-[CE] |==|  0.83730
USER: genes 20 Torsion [CG]-CD--CE-[NZ] |==|  0.73962
USER: genes 21 Torsion [CD]-CE--NZ-[HZ1] |==|  0.96866
USER: genes 22 Torsion [N]-CA--C-[N] |==|  0.38118
USER: genes 23 Torsion [C]-N--CA-[C] |==|  0.68467
USER: genes 24 Torsion [N]-CA--C-[N] |==|  0.13889
USER: genes 25 Torsion [C]-N--CA-[CB] |==|  0.30289
USER: genes 26 Torsion [N]-CA--CB-[OG] |==|  0.79240
USER: genes 27 Torsion [CA]-CB--OG-[HG] |==|  0.58978
USER: genes 28 Torsion [N]-CA--C-[O] |==|  0.80504
USER: genes 29 Torsion [N]-CA--CB-[CG] |==|  0.55980
USER: genes 30 Torsion [CA]-CB--CG-[CD2] |==|  0.47746
USER: genes 31 Torsion [N]-CA--CB-[CG] |==|  0.47655
USER: genes 32 Torsion [CA]-CB--CG-[CD] |==|  0.42364
USER: genes 33 Torsion [CB]-CG--CD-[NE] |==|  0.54325
USER: genes 34 Torsion [CG]-CD--NE-[CZ] |==|  0.26186
ROOT
ATOM      1  CA  ARG B   6       1.086   6.664   8.992  1.00 51.45 LIG 0.18  C 
ENDROOT
BRANCH 1 2
ATOM      2  N   ARG B   6       2.131   7.599   9.390  1.00 51.69 LIG-0.35  N 
ATOM      3 H    ARG B   6       2.698   7.784   8.771  1.00 51.69 LIG 0.16  HD
ATOM      4  C   LYS B   5       2.180   8.108  10.613  1.00 56.23 LIG 0.24  C 
ATOM      5 O    LYS B   5       1.358   7.834  11.471  1.00 55.49 LIG-0.27  OA
BRANCH 4 6
ATOM      6  CA  LYS B   5       3.308   9.076  10.917  1.00 54.66 LIG 0.18  C 
BRANCH 6 7
ATOM      7  N   LYS B   5       3.962   8.599  12.117  1.00 56.15 LIG-0.35  N 
ATOM      8 H    LYS B   5       3.687   8.981  12.837  1.00 56.15 LIG 0.16  HD
ATOM      9  C   ARG B   4       4.897   7.664  12.106  1.00 62.85 LIG 0.26  C 
ATOM     10 O    ARG B   4       5.202   7.025  11.105  1.00 61.66 LIG-0.27  OA
BRANCH 9 11
ATOM     11  CA  ARG B   4       5.582   7.400  13.437  1.00 63.68 LIG 0.40  C 
ATOM     12  N   ARG B   4       6.905   6.869  13.181  1.00 64.21 LIG 0.61  N 
BRANCH 11 13
ATOM     13  CB  ARG B   4       5.656   8.688  14.272  1.00 20.00 LIG 0.05  C 
BRANCH 13 14
ATOM     14  CG  ARG B   4       5.821   9.971  13.457  1.00 20.00 LIG 0.02  C 
BRANCH 14 15
ATOM     15  CD  ARG B   4       7.065   9.929  12.542  1.00 20.00 LIG 0.14  C 
BRANCH 15 16
ATOM     16  NE  ARG B   4       7.708  11.237  12.366  1.00 20.00 LIG-0.23  N 
ATOM     17  CZ  ARG B   4       7.064  12.362  12.045  1.00 20.00 LIG 0.67  C 
ATOM     18  NH2 ARG B   4       7.731  13.497  11.901  1.00 20.00 LIG-0.23  N 
ATOM     19  NH1 ARG B   4       5.754  12.361  11.872  1.00 20.00 LIG-0.23  N 
ATOM     20 2HH2 ARG B   4       7.311  14.218  11.695  1.00 20.00 LIG 0.17  HD
ATOM     21 1HH2 ARG B   4       8.583  13.512  12.016  1.00 20.00 LIG 0.17  HD
ATOM     22 1HH1 ARG B   4       5.308  11.631  11.966  1.00 20.00 LIG 0.17  HD
ATOM     23 2HH1 ARG B   4       5.348  13.089  11.665  1.00 20.00 LIG 0.17  HD
ATOM     24 HE   ARG B   4       8.559  11.282  12.478  1.00 20.00 LIG 0.18  HD
ENDBRANCH 15 16
ENDBRANCH 14 15
ENDBRANCH 13 14
ENDBRANCH 11 13
ENDBRANCH 9 11
ENDBRANCH 6 7
BRANCH 6 25
ATOM     25  CB  LYS B   5       4.292   9.128   9.752  1.00 20.00 LIG 0.04  C 
BRANCH 25 26
ATOM     26  CG  LYS B   5       5.047  10.432   9.636  1.00 20.00 LIG 0.00  C 
BRANCH 26 27
ATOM     27  CD  LYS B   5       4.646  11.186   8.378  1.00 20.00 LIG 0.03  C 
BRANCH 27 28
ATOM     28  CE  LYS B   5       5.660  12.264   8.032  1.00 20.00 LIG 0.23  C 
BRANCH 28 29
ATOM     29  NZ  LYS B   5       5.402  13.537   8.736  1.00 20.00 LIG-0.08  N 
ATOM     30 HZ2  LYS B   5       4.542  13.754   8.650  1.00 20.00 LIG 0.27  HD
ATOM     31 HZ3  LYS B   5       5.599  13.445   9.599  1.00 20.00 LIG 0.27  HD
ATOM     32 HZ1  LYS B   5       5.906  14.179   8.383  1.00 20.00 LIG 0.27  HD
ENDBRANCH 28 29
ENDBRANCH 27 28
ENDBRANCH 26 27
ENDBRANCH 25 26
ENDBRANCH 6 25
ENDBRANCH 4 6
ENDBRANCH 1 2
BRANCH 1 33
ATOM     33  C   ARG B   6       1.583   5.231   9.097  1.00 52.50 LIG 0.24  C 
ATOM     34  N   LYS B   7       0.727   4.341   9.580  1.00 47.60 LIG-0.35  N 
ATOM     35 H    LYS B   7      -0.047   4.539   9.897  1.00 47.60 LIG 0.16  HD
ATOM     36 O    ARG B   6       2.715   4.936   8.737  1.00 51.14 LIG-0.27  OA
BRANCH 34 37
ATOM     37  CA  LYS B   7       1.049   2.923   9.610  1.00 46.86 LIG 0.18  C 
BRANCH 37 38
ATOM     38  CB  LYS B   7       1.627   2.466   8.271  1.00 20.00 LIG 0.04  C 
BRANCH 38 39
ATOM     39  CG  LYS B   7       1.511   0.988   8.012  1.00 20.00 LIG 0.00  C 
BRANCH 39 40
ATOM     40  CD  LYS B   7       1.729   0.650   6.539  1.00 20.00 LIG 0.03  C 
BRANCH 40 41
ATOM     41  CE  LYS B   7       0.726   1.373   5.649  1.00 20.00 LIG 0.23  C 
BRANCH 41 42
ATOM     42  NZ  LYS B   7      -0.477   0.537   5.362  1.00 20.00 LIG-0.08  N 
ATOM     43 HZ2  LYS B   7      -1.179   0.866   5.801  1.00 20.00 LIG 0.27  HD
ATOM     44 HZ1  LYS B   7      -0.328  -0.300   5.627  1.00 20.00 LIG 0.27  HD
ATOM     45 HZ3  LYS B   7      -0.644   0.546   4.488  1.00 20.00 LIG 0.27  HD
ENDBRANCH 41 42
ENDBRANCH 40 41
ENDBRANCH 39 40
ENDBRANCH 38 39
ENDBRANCH 37 38
BRANCH 37 46
ATOM     46  C   LYS B   7       2.059   2.648  10.713  1.00 48.01 LIG 0.24  C 
ATOM     47 O    LYS B   7       3.009   3.393  10.891  1.00 46.73 LIG-0.27  OA
ATOM     48  N   PHE B   8       1.842   1.569  11.451  1.00 43.62 LIG-0.35  N 
ATOM     49 H    PHE B   8       1.134   1.084  11.390  1.00 43.62 LIG 0.16  HD
BRANCH 48 50
ATOM     50  CA  PHE B   8       2.796   1.104  12.444  1.00 44.29 LIG 0.18  C 
BRANCH 50 51
ATOM     51  C   PHE B   8       3.340  -0.240  11.960  1.00 70.57 LIG 0.24  C 
ATOM     52  N   SER B   9       3.777  -0.276  10.708  1.00 30.00 LIG-0.34  N 
ATOM     53 H    SER B   9       3.821   0.412  10.193  1.00 30.00 LIG 0.16  HD
ATOM     54 O    PHE B   8       3.330  -1.227  12.685  1.00 41.97 LIG-0.27  OA
BRANCH 52 55
ATOM     55  CA  SER B   9       4.226  -1.521  10.094  1.00 30.00 LIG 0.19  C 
BRANCH 55 56
ATOM     56  CB  SER B   9       3.219  -1.986   9.040  1.00 20.00 LIG 0.20  C 
BRANCH 56 57
ATOM     57 OG   SER B   9       2.059  -2.528   9.647  1.00 20.00 LIG-0.40  OA
ATOM     58 HG   SER B   9       1.746  -3.138   9.161  1.00 20.00 LIG 0.21  HD
ENDBRANCH 56 57
ENDBRANCH 55 56
BRANCH 55 59
ATOM     59  C   SER B   9       5.603  -1.391   9.465  1.00 30.00 LIG 0.22  C 
ATOM     60 O    SER B   9       5.765  -0.723   8.450  1.00 30.00 LIG-0.29  OA
ENDBRANCH 55 59
ENDBRANCH 52 55
ENDBRANCH 50 51
BRANCH 50 61
ATOM     61  CB  PHE B   8       2.123   0.981  13.809  1.00 20.00 LIG 0.07  C 
BRANCH 61 62
ATOM     62  CG  PHE B   8       3.073   1.011  14.973  1.00 20.00 LIG-0.06  A 
ATOM     63  CD1 PHE B   8       4.431   0.961  14.785  1.00 20.00 LIG 0.01  A 
ATOM     64  CE1 PHE B   8       5.292   0.983  15.869  1.00 20.00 LIG 0.00  A 
ATOM     65  CZ  PHE B   8       4.789   1.052  17.153  1.00 20.00 LIG 0.00  A 
ATOM     66  CE2 PHE B   8       3.450   1.094  17.348  1.00 20.00 LIG 0.00  A 
ATOM     67  CD2 PHE B   8       2.595   1.077  16.266  1.00 20.00 LIG 0.01  A 
ENDBRANCH 61 62
ENDBRANCH 50 61
ENDBRANCH 48 50
ENDBRANCH 37 46
ENDBRANCH 34 37
ENDBRANCH 1 33
BRANCH 1 68
ATOM     68  CB  ARG B   6       0.616   6.923   7.549  1.00 20.00 LIG 0.04  C 
BRANCH 68 69
ATOM     69  CG  ARG B   6      -0.333   5.890   6.938  1.00 20.00 LIG 0.02  C 
BRANCH 69 70
ATOM     70  CD  ARG B   6      -1.210   6.569   5.879  1.00 20.00 LIG 0.14  C 
BRANCH 70 71
ATOM     71  NE  ARG B   6      -2.388   5.795   5.479  1.00 20.00 LIG-0.23  N 
ATOM     72  CZ  ARG B   6      -3.593   5.949   6.023  1.00 20.00 LIG 0.67  C 
ATOM     73  NH1 ARG B   6      -3.771   6.851   6.976  1.00 20.00 LIG-0.23  N 
ATOM     74  NH2 ARG B   6      -4.624   5.209   5.620  1.00 20.00 LIG-0.23  N 
ATOM     75 1HH1 ARG B   6      -3.109   7.333   7.239  1.00 20.00 LIG 0.17  HD
ATOM     76 2HH1 ARG B   6      -4.547   6.955   7.331  1.00 20.00 LIG 0.17  HD
ATOM     77 1HH2 ARG B   6      -4.516   4.623   5.000  1.00 20.00 LIG 0.17  HD
ATOM     78 2HH2 ARG B   6      -5.397   5.317   5.979  1.00 20.00 LIG 0.17  HD
ATOM     79 HE   ARG B   6      -2.295   5.208   4.857  1.00 20.00 LIG 0.18  HD
ENDBRANCH 70 71
ENDBRANCH 69 70
ENDBRANCH 68 69
ENDBRANCH 1 68
TORSDOF 33
ENDMDL
MODEL 2
USER: ADFR SOLUTION from run 45
USER: SCORE 21.950719 LL:  -3.238 LR: -21.799 RR:   0.000 FEB: -11.955
USER: RMSD 11.830841
USER: SEED 44
USER: STATUS no improvement in best in 1 clusters for 5 generations
USER: GENES 35
USER: genes 0 Translation |==|  0.51282 0.48630 0.37290
USER: genes 1 Rotation |==|  0.75342 0.32149 0.21241 0.76685
USER: genes 2 Torsion [C]-CA--N-[C] |==|  0.55557
USER: genes 3 Torsion [N]-C--CA-[N] |==|  0.42089
USER: genes 4 Torsion [C]-CA--N-[C] |==|  0.75000
USER: genes 5 Torsion [N]-C--CA-[N] |==|  0.86759
USER: genes 6 Torsion [C]-CA--CB-[CG] |==|  0.07398
USER: genes 7 Torsion [CA]-CB--CG-[CD] |==|  0.76699
USER: genes 8 Torsion [CB]-CG--CD-[NE] |==|  0.68696
USER: genes 9 Torsion [CG]-CD--NE-[HE] |==|  0.69667
USER: genes 10 Torsion [C]-CA--CB-[CG] |==|  0.74591
USER: genes 11 Torsion [CA]-CB--CG-[CD] |==|  0.63884
USER: genes 12 Torsion [CB]-CG--CD-[CE] |==|  0.87641
USER: genes 13 Torsion [CG]-CD--CE-[NZ] |==|  0.44376
USER: genes 14 Torsion [CD]-CE--NZ-[HZ2] |==|  0.85176
USER: genes 15 Torsion [N]-CA--C-[N] |==|  0.81417
USER: genes 16 Torsion [C]-N--CA-[CB] |==|  0.40973
USER: genes 17 Torsion [N]-CA--CB-[CG] |==|  0.82871
USER: genes 18 Torsion [CA]-CB--CG-[CD] |==|  0.71783
USER: genes 19 Torsion [CB]-CG--CD-[CE] |==|  0.88511
USER: genes 20 Torsion [CG]-CD--CE-[NZ] |==|  0.57766
USER: genes 21 Torsion [CD]-CE--NZ-[HZ1] |==|  0.29720
USER: genes 22 Torsion [N]-CA--C-[N] |==|  0.34333
USER: genes 23 Torsion [C]-N--CA-[C] |==|  0.62340
USER: genes 24 Torsion [N]-CA--C-[N] |==|  0.10272
USER: genes 25 Torsion [C]-N--CA-[CB] |==|  0.47519
USER: genes 26 Torsion [N]-CA--CB-[OG] |==|  0.51862
USER: genes 27 Torsion [CA]-CB--OG-[HG] |==|  0.68636
USER: genes 28 Torsion [N]-CA--C-[O] |==|  0.98924
USER: genes 29 Torsion [N]-CA--CB-[CG] |==|  0.96255
USER: genes 30 Torsion [CA]-CB--CG-[CD2] |==|  0.76552
USER: genes 31 Torsion [N]-CA--CB-[CG] |==|  0.64876
USER: genes 32 Torsion [CA]-CB--CG-[CD] |==|  0.40559
USER: genes 33 Torsion [CB]-CG--CD-[NE] |==|  0.41994
USER: genes 34 Torsion [CG]-CD--NE-[CZ] |==|  0.34104
ROOT
ATOM      1  CA  ARG B   6       1.029   6.714   7.283  1.00 51.45 LIG 0.18  C 
ENDROOT
BRANCH 1 2
ATOM      2  N   ARG B   6       1.468   7.885   8.033  1.00 51.69 LIG-0.35  N 
ATOM      3 H    ARG B   6       0.913   8.541   8.023  1.00 51.69 LIG 0.16  HD
ATOM      4  C   LYS B   5       2.631   7.908   8.668  1.00 56.23 LIG 0.24  C 
ATOM      5 O    LYS B   5       3.396   6.959   8.670  1.00 55.49 LIG-0.27  OA
BRANCH 4 6
ATOM      6  CA  LYS B   5       2.984   9.176   9.422  1.00 54.66 LIG 0.18  C 
BRANCH 6 7
ATOM      7  N   LYS B   5       3.847   8.790  10.518  1.00 56.15 LIG-0.35  N 
ATOM      8 H    LYS B   5       4.684   8.795  10.319  1.00 56.15 LIG 0.16  HD
ATOM      9  C   ARG B   4       3.389   8.458  11.714  1.00 62.85 LIG 0.26  C 
ATOM     10 O    ARG B   4       2.214   8.572  12.043  1.00 61.66 LIG-0.27  OA
BRANCH 9 11
ATOM     11  CA  ARG B   4       4.425   7.931  12.693  1.00 63.68 LIG 0.40  C 
ATOM     12  N   ARG B   4       5.228   6.927  12.023  1.00 64.21 LIG 0.61  N 
BRANCH 11 13
ATOM     13  CB  ARG B   4       5.302   9.076  13.224  1.00 20.00 LIG 0.05  C 
BRANCH 13 14
ATOM     14  CG  ARG B   4       4.631  10.449  13.222  1.00 20.00 LIG 0.02  C 
BRANCH 14 15
ATOM     15  CD  ARG B   4       4.734  11.151  11.849  1.00 20.00 LIG 0.14  C 
BRANCH 15 16
ATOM     16  NE  ARG B   4       5.583  12.348  11.865  1.00 20.00 LIG-0.23  N 
ATOM     17  CZ  ARG B   4       6.912  12.335  11.989  1.00 20.00 LIG 0.67  C 
ATOM     18  NH2 ARG B   4       7.595  13.470  11.999  1.00 20.00 LIG-0.23  N 
ATOM     19  NH1 ARG B   4       7.566  11.192  12.097  1.00 20.00 LIG-0.23  N 
ATOM     20 2HH2 ARG B   4       8.451  13.455  12.079  1.00 20.00 LIG 0.17  HD
ATOM     21 1HH2 ARG B   4       7.182  14.220  11.925  1.00 20.00 LIG 0.17  HD
ATOM     22 1HH1 ARG B   4       7.135  10.448  12.088  1.00 20.00 LIG 0.17  HD
ATOM     23 2HH1 ARG B   4       8.422  11.192  12.177  1.00 20.00 LIG 0.17  HD
ATOM     24 HE   ARG B   4       5.196  13.113  11.789  1.00 20.00 LIG 0.18  HD
ENDBRANCH 15 16
ENDBRANCH 14 15
ENDBRANCH 13 14
ENDBRANCH 11 13
ENDBRANCH 9 11
ENDBRANCH 6 7
BRANCH 6 25
ATOM     25  CB  LYS B   5       3.696  10.162   8.499  1.00 20.00 LIG 0.04  C 
BRANCH 25 26
ATOM     26  CG  LYS B   5       5.202  10.037   8.504  1.00 20.00 LIG 0.00  C 
BRANCH 26 27
ATOM     27  CD  LYS B   5       5.863  11.391   8.712  1.00 20.00 LIG 0.03  C 
BRANCH 27 28
ATOM     28  CE  LYS B   5       5.209  12.464   7.857  1.00 20.00 LIG 0.23  C 
BRANCH 28 29
ATOM     29  NZ  LYS B   5       5.473  13.830   8.356  1.00 20.00 LIG-0.08  N 
ATOM     30 HZ2  LYS B   5       5.244  13.882   9.214  1.00 20.00 LIG 0.27  HD
ATOM     31 HZ3  LYS B   5       6.339  14.015   8.269  1.00 20.00 LIG 0.27  HD
ATOM     32 HZ1  LYS B   5       4.996  14.415   7.885  1.00 20.00 LIG 0.27  HD
ENDBRANCH 28 29
ENDBRANCH 27 28
ENDBRANCH 26 27
ENDBRANCH 25 26
ENDBRANCH 6 25
ENDBRANCH 4 6
ENDBRANCH 1 2
BRANCH 1 33
ATOM     33  C   ARG B   6      -0.047   7.095   6.280  1.00 52.50 LIG 0.24  C 
ATOM     34  N   LYS B   7      -1.209   7.494   6.780  1.00 47.60 LIG-0.35  N 
ATOM     35 H    LYS B   7      -1.404   7.478   7.617  1.00 47.60 LIG 0.16  HD
ATOM     36 O    ARG B   6       0.174   7.042   5.077  1.00 51.14 LIG-0.27  OA
BRANCH 34 37
ATOM     37  CA  LYS B   7      -2.267   8.000   5.920  1.00 46.86 LIG 0.18  C 
BRANCH 37 38
ATOM     38  CB  LYS B   7      -3.643   7.649   6.483  1.00 20.00 LIG 0.04  C 
BRANCH 38 39
ATOM     39  CG  LYS B   7      -3.914   6.172   6.594  1.00 20.00 LIG 0.00  C 
BRANCH 39 40
ATOM     40  CD  LYS B   7      -4.800   5.670   5.457  1.00 20.00 LIG 0.03  C 
BRANCH 40 41
ATOM     41  CE  LYS B   7      -5.926   6.650   5.154  1.00 20.00 LIG 0.23  C 
BRANCH 41 42
ATOM     42  NZ  LYS B   7      -7.129   5.969   4.590  1.00 20.00 LIG-0.08  N 
ATOM     43 HZ2  LYS B   7      -7.416   6.417   3.876  1.00 20.00 LIG 0.27  HD
ATOM     44 HZ1  LYS B   7      -7.773   5.946   5.204  1.00 20.00 LIG 0.27  HD
ATOM     45 HZ3  LYS B   7      -6.916   5.138   4.352  1.00 20.00 LIG 0.27  HD
ENDBRANCH 41 42
ENDBRANCH 40 41
ENDBRANCH 39 40
ENDBRANCH 38 39
ENDBRANCH 37 38
BRANCH 37 46
ATOM     46  C   LYS B   7      -2.147   9.511   5.793  1.00 48.01 LIG 0.24  C 
ATOM     47 O    LYS B   7      -2.150  10.224   6.785  1.00 46.73 LIG-0.27  OA
ATOM     48  N   PHE B   8      -2.041   9.990   4.562  1.00 43.62 LIG-0.35  N 
ATOM     49 H    PHE B   8      -1.953   9.496   3.865  1.00 43.62 LIG 0.16  HD
BRANCH 48 50
ATOM     50  CA  PHE B   8      -2.062  11.416   4.280  1.00 44.29 LIG 0.18  C 
BRANCH 50 51
ATOM     51  C   PHE B   8      -2.975  11.628   3.074  1.00 70.57 LIG 0.24  C 
ATOM     52  N   SER B   9      -4.049  10.851   3.010  1.00 30.00 LIG-0.34  N 
ATOM     53 H    SER B   9      -4.277  10.294   3.625  1.00 30.00 LIG 0.16  HD
ATOM     54 O    PHE B   8      -2.699  12.446   2.205  1.00 41.97 LIG-0.27  OA
BRANCH 52 55
ATOM     55  CA  SER B   9      -4.946  10.885   1.860  1.00 30.00 LIG 0.19  C 
BRANCH 55 56
ATOM     56  CB  SER B   9      -5.962   9.745   1.947  1.00 20.00 LIG 0.20  C 
BRANCH 56 57
ATOM     57 OG   SER B   9      -6.743   9.666   0.767  1.00 20.00 LIG-0.40  OA
ATOM     58 HG   SER B   9      -7.539   9.868   0.943  1.00 20.00 LIG 0.21  HD
ENDBRANCH 56 57
ENDBRANCH 55 56
BRANCH 55 59
ATOM     59  C   SER B   9      -5.675  12.213   1.735  1.00 30.00 LIG 0.22  C 
ATOM     60 O    SER B   9      -5.536  13.084   2.586  1.00 30.00 LIG-0.29  OA
ENDBRANCH 55 59
ENDBRANCH 52 55
ENDBRANCH 50 51
BRANCH 50 61
ATOM     61  CB  PHE B   8      -0.647  11.924   4.013  1.00 20.00 LIG 0.07  C 
BRANCH 61 62
ATOM     62  CG  PHE B   8       0.440  10.964   4.405  1.00 20.00 LIG-0.06  A 
ATOM     63  CD1 PHE B   8       0.994  10.104   3.489  1.00 20.00 LIG 0.01  A 
ATOM     64  CE1 PHE B   8       1.991   9.221   3.869  1.00 20.00 LIG 0.00  A 
ATOM     65  CZ  PHE B   8       2.435   9.197   5.176  1.00 20.00 LIG 0.00  A 
ATOM     66  CE2 PHE B   8       1.890  10.037   6.086  1.00 20.00 LIG 0.00  A 
ATOM     67  CD2 PHE B   8       0.900  10.918   5.705  1.00 20.00 LIG 0.01  A 
ENDBRANCH 61 62
ENDBRANCH 50 61
ENDBRANCH 48 50
ENDBRANCH 37 46
ENDBRANCH 34 37
ENDBRANCH 1 33
BRANCH 1 68
ATOM     68  CB  ARG B   6       0.477   5.620   8.215  1.00 20.00 LIG 0.04  C 
BRANCH 68 69
ATOM     69  CG  ARG B   6       1.088   4.225   8.077  1.00 20.00 LIG 0.02  C 
BRANCH 69 70
ATOM     70  CD  ARG B   6       1.126   3.548   9.453  1.00 20.00 LIG 0.14  C 
BRANCH 70 71
ATOM     71  NE  ARG B   6       1.042   2.086   9.412  1.00 20.00 LIG-0.23  N 
ATOM     72  CZ  ARG B   6       1.960   1.277   9.939  1.00 20.00 LIG 0.67  C 
ATOM     73  NH1 ARG B   6       3.015   1.795  10.548  1.00 20.00 LIG-0.23  N 
ATOM     74  NH2 ARG B   6       1.828  -0.045   9.864  1.00 20.00 LIG-0.23  N 
ATOM     75 1HH1 ARG B   6       3.104   2.649  10.602  1.00 20.00 LIG 0.17  HD
ATOM     76 2HH1 ARG B   6       3.611   1.278  10.891  1.00 20.00 LIG 0.17  HD
ATOM     77 1HH2 ARG B   6       1.144  -0.388   9.472  1.00 20.00 LIG 0.17  HD
ATOM     78 2HH2 ARG B   6       2.428  -0.557  10.207  1.00 20.00 LIG 0.17  HD
ATOM     79 HE   ARG B   6       0.361   1.729   9.026  1.00 20.00 LIG 0.18  HD
ENDBRANCH 70 71
ENDBRANCH 69 70
ENDBRANCH 68 69
ENDBRANCH 1 68
TORSDOF 33
ENDMDL
MODEL 3
USER: ADFR SOLUTION from run 156
USER: SCORE 23.003966 LL:  -2.747 LR: -21.744 RR:   0.000 FEB: -11.900
USER: RMSD 11.875184
USER: SEED 155
USER: STATUS no improvement in best in 4 clusters for 5 generations
USER: GENES 35
USER: genes 0 Translation |==|  0.63261 0.56618 0.53923
USER: genes 1 Rotation |==|  0.85671 0.55095 0.83583 0.58594
USER: genes 2 Torsion [C]-CA--N-[C] |==|  0.61201
USER: genes 3 Torsion [N]-C--CA-[N] |==|  0.78202
USER: genes 4 Torsion [C]-CA--N-[C] |==|  0.58503
USER: genes 5 Torsion [N]-C--CA-[N] |==|  0.18069
USER: genes 6 Torsion [C]-CA--CB-[CG] |==|  0.24184
USER: genes 7 Torsion [CA]-CB--CG-[CD] |==|  0.64321
USER: genes 8 Torsion [CB]-CG--CD-[NE] |==|  0.53923
USER: genes 9 Torsion [CG]-CD--NE-[HE] |==|  0.88299
USER: genes 10 Torsion [C]-CA--CB-[CG] |==|  0.25980
USER: genes 11 Torsion [CA]-CB--CG-[CD] |==|  0.17883
USER: genes 12 Torsion [CB]-CG--CD-[CE] |==|  0.52786
USER: genes 13 Torsion [CG]-CD--CE-[NZ] |==|  0.58344
USER: genes 14 Torsion [CD]-CE--NZ-[HZ2] |==|  0.31875
USER: genes 15 Torsion [N]-CA--C-[N] |==|  0.35910
USER: genes 16 Torsion [C]-N--CA-[CB] |==|  0.85990
USER: genes 17 Torsion [N]-CA--CB-[CG] |==|  0.70604
USER: genes 18 Torsion [CA]-CB--CG-[CD] |==|  0.12058
USER: genes 19 Torsion [CB]-CG--CD-[CE] |==|  0.58263
USER: genes 20 Torsion [CG]-CD--CE-[NZ] |==|  0.33359
USER: genes 21 Torsion [CD]-CE--NZ-[HZ1] |==|  0.99311
USER: genes 22 Torsion [N]-CA--C-[N] |==|  0.39438
USER: genes 23 Torsion [C]-N--CA-[C] |==|  0.71382
USER: genes 24 Torsion [N]-CA--C-[N] |==|  0.85752
USER: genes 25 Torsion [C]-N--CA-[CB] |==|  0.78409
USER: genes 26 Torsion [N]-CA--CB-[OG] |==|  0.74325
USER: genes 27 Torsion [CA]-CB--OG-[HG] |==|  0.91702
USER: genes 28 Torsion [N]-CA--C-[O] |==|  0.27484
USER: genes 29 Torsion [N]-CA--CB-[CG] |==|  0.78630
USER: genes 30 Torsion [CA]-CB--CG-[CD2] |==|  0.38130
USER: genes 31 Torsion [N]-CA--CB-[CG] |==|  0.13660
USER: genes 32 Torsion [CA]-CB--CG-[CD] |==|  0.33554
USER: genes 33 Torsion [CB]-CG--CD-[NE] |==|  0.74342
USER: genes 34 Torsion [CG]-CD--NE-[CZ] |==|  0.45437
ROOT
ATOM      1  CA  ARG B   6       3.994   8.871  11.150  1.00 51.45 LIG 0.18  C 
ENDROOT
BRANCH 1 2
ATOM      2  N   ARG B   6       3.445   7.872  10.242  1.00 51.69 LIG-0.35  N 
ATOM      3 H    ARG B   6       3.990   7.610   9.631  1.00 51.69 LIG 0.16  HD
ATOM      4  C   LYS B   5       2.205   7.423  10.370  1.00 56.23 LIG 0.24  C 
ATOM      5 O    LYS B   5       1.455   7.807  11.251  1.00 55.49 LIG-0.27  OA
BRANCH 4 6
ATOM      6  CA  LYS B   5       1.739   6.379   9.372  1.00 54.66 LIG 0.18  C 
BRANCH 6 7
ATOM      7  N   LYS B   5       1.415   7.080   8.147  1.00 56.15 LIG-0.35  N 
ATOM      8 H    LYS B   5       1.885   7.788   8.018  1.00 56.15 LIG 0.16  HD
ATOM      9  C   ARG B   4       0.481   6.668   7.306  1.00 62.85 LIG 0.26  C 
ATOM     10 O    ARG B   4      -0.102   5.595   7.415  1.00 61.66 LIG-0.27  OA
BRANCH 9 11
ATOM     11  CA  ARG B   4       0.169   7.611   6.155  1.00 63.68 LIG 0.40  C 
ATOM     12  N   ARG B   4       1.341   7.712   5.308  1.00 64.21 LIG 0.61  N 
BRANCH 11 13
ATOM     13  CB  ARG B   4      -1.046   7.110   5.358  1.00 20.00 LIG 0.05  C 
BRANCH 13 14
ATOM     14  CG  ARG B   4      -2.399   7.577   5.895  1.00 20.00 LIG 0.02  C 
BRANCH 14 15
ATOM     15  CD  ARG B   4      -3.384   6.405   6.103  1.00 20.00 LIG 0.14  C 
BRANCH 15 16
ATOM     16  NE  ARG B   4      -4.774   6.835   6.299  1.00 20.00 LIG-0.23  N 
ATOM     17  CZ  ARG B   4      -5.836   6.245   5.745  1.00 20.00 LIG 0.67  C 
ATOM     18  NH2 ARG B   4      -7.055   6.709   5.976  1.00 20.00 LIG-0.23  N 
ATOM     19  NH1 ARG B   4      -5.689   5.188   4.967  1.00 20.00 LIG-0.23  N 
ATOM     20 2HH2 ARG B   4      -7.736   6.325   5.617  1.00 20.00 LIG 0.17  HD
ATOM     21 1HH2 ARG B   4      -7.165   7.393   6.484  1.00 20.00 LIG 0.17  HD
ATOM     22 1HH1 ARG B   4      -4.903   4.874   4.812  1.00 20.00 LIG 0.17  HD
ATOM     23 2HH1 ARG B   4      -6.378   4.815   4.614  1.00 20.00 LIG 0.17  HD
ATOM     24 HE   ARG B   4      -4.914   7.515   6.806  1.00 20.00 LIG 0.18  HD
ENDBRANCH 15 16
ENDBRANCH 14 15
ENDBRANCH 13 14
ENDBRANCH 11 13
ENDBRANCH 9 11
ENDBRANCH 6 7
BRANCH 6 25
ATOM     25  CB  LYS B   5       2.839   5.350   9.127  1.00 20.00 LIG 0.04  C 
BRANCH 25 26
ATOM     26  CG  LYS B   5       2.746   4.123  10.004  1.00 20.00 LIG 0.00  C 
BRANCH 26 27
ATOM     27  CD  LYS B   5       1.478   3.335   9.711  1.00 20.00 LIG 0.03  C 
BRANCH 27 28
ATOM     28  CE  LYS B   5       1.252   2.245  10.746  1.00 20.00 LIG 0.23  C 
BRANCH 28 29
ATOM     29  NZ  LYS B   5       0.540   1.074  10.194  1.00 20.00 LIG-0.08  N 
ATOM     30 HZ2  LYS B   5       1.078   0.365  10.209  1.00 20.00 LIG 0.27  HD
ATOM     31 HZ3  LYS B   5      -0.183   0.908  10.687  1.00 20.00 LIG 0.27  HD
ATOM     32 HZ1  LYS B   5       0.295   1.244   9.356  1.00 20.00 LIG 0.27  HD
ENDBRANCH 28 29
ENDBRANCH 27 28
ENDBRANCH 26 27
ENDBRANCH 25 26
ENDBRANCH 6 25
ENDBRANCH 4 6
ENDBRANCH 1 2
BRANCH 1 33
ATOM     33  C   ARG B   6       4.836   9.881  10.388  1.00 52.50 LIG 0.24  C 
ATOM     34  N   LYS B   7       4.566  11.161  10.605  1.00 47.60 LIG-0.35  N 
ATOM     35 H    LYS B   7       3.910  11.441  11.086  1.00 47.60 LIG 0.16  HD
ATOM     36 O    ARG B   6       5.720   9.509   9.627  1.00 51.14 LIG-0.27  OA
BRANCH 34 37
ATOM     37  CA  LYS B   7       5.387  12.215  10.029  1.00 46.86 LIG 0.18  C 
BRANCH 37 38
ATOM     38  CB  LYS B   7       6.869  11.968  10.309  1.00 20.00 LIG 0.04  C 
BRANCH 38 39
ATOM     39  CG  LYS B   7       7.465  12.868  11.358  1.00 20.00 LIG 0.00  C 
BRANCH 39 40
ATOM     40  CD  LYS B   7       6.540  13.025  12.563  1.00 20.00 LIG 0.03  C 
BRANCH 40 41
ATOM     41  CE  LYS B   7       6.724  14.381  13.231  1.00 20.00 LIG 0.23  C 
BRANCH 41 42
ATOM     42  NZ  LYS B   7       5.464  15.182  13.238  1.00 20.00 LIG-0.08  N 
ATOM     43 HZ2  LYS B   7       5.211  15.332  14.078  1.00 20.00 LIG 0.27  HD
ATOM     44 HZ1  LYS B   7       4.824  14.733  12.811  1.00 20.00 LIG 0.27  HD
ATOM     45 HZ3  LYS B   7       5.604  15.960  12.828  1.00 20.00 LIG 0.27  HD
ENDBRANCH 41 42
ENDBRANCH 40 41
ENDBRANCH 39 40
ENDBRANCH 38 39
ENDBRANCH 37 38
BRANCH 37 46
ATOM     46  C   LYS B   7       5.163  12.275   8.525  1.00 48.01 LIG 0.24  C 
ATOM     47 O    LYS B   7       5.013  11.254   7.874  1.00 46.73 LIG-0.27  OA
ATOM     48  N   PHE B   8       5.143  13.485   7.984  1.00 43.62 LIG-0.35  N 
ATOM     49 H    PHE B   8       5.164  14.212   8.441  1.00 43.62 LIG 0.16  HD
BRANCH 48 50
ATOM     50  CA  PHE B   8       5.082  13.689   6.546  1.00 44.29 LIG 0.18  C 
BRANCH 50 51
ATOM     51  C   PHE B   8       6.485  14.075   6.081  1.00 70.57 LIG 0.24  C 
ATOM     52  N   SER B   9       7.067  15.068   6.740  1.00 30.00 LIG-0.34  N 
ATOM     53 H    SER B   9       6.727  15.452   7.431  1.00 30.00 LIG 0.16  HD
ATOM     54 O    PHE B   8       7.014  13.515   5.128  1.00 41.97 LIG-0.27  OA
BRANCH 52 55
ATOM     55  CA  SER B   9       8.363  15.598   6.330  1.00 30.00 LIG 0.19  C 
BRANCH 55 56
ATOM     56  CB  SER B   9       9.485  14.661   6.783  1.00 20.00 LIG 0.20  C 
BRANCH 56 57
ATOM     57 OG   SER B   9       9.988  15.044   8.052  1.00 20.00 LIG-0.40  OA
ATOM     58 HG   SER B   9       9.907  15.875   8.147  1.00 20.00 LIG 0.21  HD
ENDBRANCH 56 57
ENDBRANCH 55 56
BRANCH 55 59
ATOM     59  C   SER B   9       8.451  15.812   4.828  1.00 30.00 LIG 0.22  C 
ATOM     60 O    SER B   9       8.281  16.925   4.345  1.00 30.00 LIG-0.29  OA
ENDBRANCH 55 59
ENDBRANCH 52 55
ENDBRANCH 50 51
BRANCH 50 61
ATOM     61  CB  PHE B   8       4.059  14.771   6.208  1.00 20.00 LIG 0.07  C 
BRANCH 61 62
ATOM     62  CG  PHE B   8       2.628  14.315   6.281  1.00 20.00 LIG-0.06  A 
ATOM     63  CD1 PHE B   8       2.241  13.103   5.766  1.00 20.00 LIG 0.01  A 
ATOM     64  CE1 PHE B   8       0.918  12.701   5.836  1.00 20.00 LIG 0.00  A 
ATOM     65  CZ  PHE B   8      -0.026  13.520   6.423  1.00 20.00 LIG 0.00  A 
ATOM     66  CE2 PHE B   8       0.347  14.719   6.927  1.00 20.00 LIG 0.00  A 
ATOM     67  CD2 PHE B   8       1.666  15.116   6.860  1.00 20.00 LIG 0.01  A 
ENDBRANCH 61 62
ENDBRANCH 50 61
ENDBRANCH 48 50
ENDBRANCH 37 46
ENDBRANCH 34 37
ENDBRANCH 1 33
BRANCH 1 68
ATOM     68  CB  ARG B   6       4.863   8.223  12.244  1.00 20.00 LIG 0.04  C 
BRANCH 68 69
ATOM     69  CG  ARG B   6       5.921   7.221  11.778  1.00 20.00 LIG 0.02  C 
BRANCH 69 70
ATOM     70  CD  ARG B   6       7.308   7.705  12.217  1.00 20.00 LIG 0.14  C 
BRANCH 70 71
ATOM     71  NE  ARG B   6       8.009   8.521  11.221  1.00 20.00 LIG-0.23  N 
ATOM     72  CZ  ARG B   6       9.058   9.291  11.503  1.00 20.00 LIG 0.67  C 
ATOM     73  NH1 ARG B   6       9.524   9.335  12.742  1.00 20.00 LIG-0.23  N 
ATOM     74  NH2 ARG B   6       9.648  10.014  10.554  1.00 20.00 LIG-0.23  N 
ATOM     75 1HH1 ARG B   6       9.148   8.868  13.359  1.00 20.00 LIG 0.17  HD
ATOM     76 2HH1 ARG B   6      10.201   9.830  12.929  1.00 20.00 LIG 0.17  HD
ATOM     77 1HH2 ARG B   6       9.353   9.988   9.747  1.00 20.00 LIG 0.17  HD
ATOM     78 2HH2 ARG B   6      10.325  10.507  10.748  1.00 20.00 LIG 0.17  HD
ATOM     79 HE   ARG B   6       7.726   8.502  10.409  1.00 20.00 LIG 0.18  HD
ENDBRANCH 70 71
ENDBRANCH 69 70
ENDBRANCH 68 69
ENDBRANCH 1 68
TORSDOF 33
ENDMDL
MODEL 4
USER: ADFR SOLUTION from run 67
USER: SCORE 23.786126 LL:  -3.349 LR: -21.549 RR:   0.000 FEB: -11.705
USER: RMSD 7.467649
USER: SEED 66
USER: STATUS 1 or 2 clusters left
USER: GENES 35
USER: genes 0 Translation |==|  0.53905 0.50130 0.44451
USER: genes 1 Rotation |==|  0.51843 0.97188 0.34803 0.56243
USER: genes 2 Torsion [C]-CA--N-[C] |==|  0.72005
USER: genes 3 Torsion [N]-C--CA-[N] |==|  0.22900
USER: genes 4 Torsion [C]-CA--N-[C] |==|  0.58930
USER: genes 5 Torsion [N]-C--CA-[N] |==|  0.38227
USER: genes 6 Torsion [C]-CA--CB-[CG] |==|  0.32271
USER: genes 7 Torsion [CA]-CB--CG-[CD] |==|  0.22068
USER: genes 8 Torsion [CB]-CG--CD-[NE] |==|  0.60407
USER: genes 9 Torsion [CG]-CD--NE-[HE] |==|  0.84222
USER: genes 10 Torsion [C]-CA--CB-[CG] |==|  0.71100
USER: genes 11 Torsion [CA]-CB--CG-[CD] |==|  0.65649
USER: genes 12 Torsion [CB]-CG--CD-[CE] |==|  0.27799
USER: genes 13 Torsion [CG]-CD--CE-[NZ] |==|  0.61596
USER: genes 14 Torsion [CD]-CE--NZ-[HZ2] |==|  0.24680
USER: genes 15 Torsion [N]-CA--C-[N] |==|  0.85649
USER: genes 16 Torsion [C]-N--CA-[CB] |==|  0.84992
USER: genes 17 Torsion [N]-CA--CB-[CG] |==|  0.39153
USER: genes 18 Torsion [CA]-CB--CG-[CD] |==|  0.66730
USER: genes 19 Torsion [CB]-CG--CD-[CE] |==|  0.24671
USER: genes 20 Torsion [CG]-CD--CE-[NZ] |==|  0.17675
USER: genes 21 Torsion [CD]-CE--NZ-[HZ1] |==|  0.32319
USER: genes 22 Torsion [N]-CA--C-[N] |==|  0.40000
USER: genes 23 Torsion [C]-N--CA-[C] |==|  0.71762
USER: genes 24 Torsion [N]-CA--C-[N] |==|  0.95480
USER: genes 25 Torsion [C]-N--CA-[CB] |==|  0.23019
USER: genes 26 Torsion [N]-CA--CB-[OG] |==|  0.83575
USER: genes 27 Torsion [CA]-CB--OG-[HG] |==|  0.77044
USER: genes 28 Torsion [N]-CA--C-[O] |==|  0.37562
USER: genes 29 Torsion [N]-CA--CB-[CG] |==|  0.22038
USER: genes 30 Torsion [CA]-CB--CG-[CD2] |==|  0.85175
USER: genes 31 Torsion [N]-CA--CB-[CG] |==|  0.43977
USER: genes 32 Torsion [CA]-CB--CG-[CD] |==|  0.31080
USER: genes 33 Torsion [CB]-CG--CD-[NE] |==|  0.48609
USER: genes 34 Torsion [CG]-CD--NE-[CZ] |==|  0.42115
ROOT
ATOM      1  CA  ARG B   6       1.678   7.119   8.948  1.00 51.45 LIG 0.18  C 
ENDROOT
BRANCH 1 2
ATOM      2  N   ARG B   6       2.897   7.864   9.238  1.00 51.69 LIG-0.35  N 
ATOM      3 H    ARG B   6       3.480   7.853   8.606  1.00 51.69 LIG 0.16  HD
ATOM      4  C   LYS B   5       3.067   8.498  10.389  1.00 56.23 LIG 0.24  C 
ATOM      5 O    LYS B   5       2.220   8.504  11.266  1.00 55.49 LIG-0.27  OA
BRANCH 4 6
ATOM      6  CA  LYS B   5       4.372   9.247  10.582  1.00 54.66 LIG 0.18  C 
BRANCH 6 7
ATOM      7  N   LYS B   5       4.223  10.533   9.933  1.00 56.15 LIG-0.35  N 
ATOM      8 H    LYS B   5       3.420  10.840   9.953  1.00 56.15 LIG 0.16  HD
ATOM      9  C   ARG B   4       5.229  11.173   9.360  1.00 62.85 LIG 0.26  C 
ATOM     10 O    ARG B   4       6.396  10.806   9.439  1.00 61.66 LIG-0.27  OA
BRANCH 9 11
ATOM     11  CA  ARG B   4       4.857  12.431   8.593  1.00 63.68 LIG 0.40  C 
ATOM     12  N   ARG B   4       5.836  13.459   8.886  1.00 64.21 LIG 0.61  N 
BRANCH 11 13
ATOM     13  CB  ARG B   4       4.790  12.146   7.084  1.00 20.00 LIG 0.05  C 
BRANCH 13 14
ATOM     14  CG  ARG B   4       3.405  12.322   6.461  1.00 20.00 LIG 0.02  C 
BRANCH 14 15
ATOM     15  CD  ARG B   4       3.068  13.806   6.188  1.00 20.00 LIG 0.14  C 
BRANCH 15 16
ATOM     16  NE  ARG B   4       1.662  14.143   6.439  1.00 20.00 LIG-0.23  N 
ATOM     17  CZ  ARG B   4       1.248  15.095   7.280  1.00 20.00 LIG 0.67  C 
ATOM     18  NH2 ARG B   4      -0.046  15.324   7.446  1.00 20.00 LIG-0.23  N 
ATOM     19  NH1 ARG B   4       2.120  15.824   7.952  1.00 20.00 LIG-0.23  N 
ATOM     20 2HH2 ARG B   4      -0.307  15.938   7.988  1.00 20.00 LIG 0.17  HD
ATOM     21 1HH2 ARG B   4      -0.624  14.860   7.011  1.00 20.00 LIG 0.17  HD
ATOM     22 1HH1 ARG B   4       2.964  15.688   7.850  1.00 20.00 LIG 0.17  HD
ATOM     23 2HH1 ARG B   4       1.845  16.434   8.491  1.00 20.00 LIG 0.17  HD
ATOM     24 HE   ARG B   4       1.062  13.697   6.015  1.00 20.00 LIG 0.18  HD
ENDBRANCH 15 16
ENDBRANCH 14 15
ENDBRANCH 13 14
ENDBRANCH 11 13
ENDBRANCH 9 11
ENDBRANCH 6 7
BRANCH 6 25
ATOM     25  CB  LYS B   5       4.666   9.428  12.069  1.00 20.00 LIG 0.04  C 
BRANCH 25 26
ATOM     26  CG  LYS B   5       4.404  10.823  12.587  1.00 20.00 LIG 0.00  C 
BRANCH 26 27
ATOM     27  CD  LYS B   5       5.648  11.408  13.237  1.00 20.00 LIG 0.03  C 
BRANCH 27 28
ATOM     28  CE  LYS B   5       6.369  12.359  12.296  1.00 20.00 LIG 0.23  C 
BRANCH 28 29
ATOM     29  NZ  LYS B   5       7.837  12.197  12.335  1.00 20.00 LIG-0.08  N 
ATOM     30 HZ2  LYS B   5       8.083  11.581  11.741  1.00 20.00 LIG 0.27  HD
ATOM     31 HZ3  LYS B   5       8.227  12.972  12.137  1.00 20.00 LIG 0.27  HD
ATOM     32 HZ1  LYS B   5       8.085  11.939  13.150  1.00 20.00 LIG 0.27  HD
ENDBRANCH 28 29
ENDBRANCH 27 28
ENDBRANCH 26 27
ENDBRANCH 25 26
ENDBRANCH 6 25
ENDBRANCH 4 6
ENDBRANCH 1 2
BRANCH 1 33
ATOM     33  C   ARG B   6       1.902   5.630   9.152  1.00 52.50 LIG 0.24  C 
ATOM     34  N   LYS B   7       2.949   5.098   8.536  1.00 47.60 LIG-0.35  N 
ATOM     35 H    LYS B   7       3.451   5.524   7.983  1.00 47.60 LIG 0.16  HD
ATOM     36 O    ARG B   6       1.148   4.978   9.863  1.00 51.14 LIG-0.27  OA
BRANCH 34 37
ATOM     37  CA  LYS B   7       3.332   3.712   8.758  1.00 46.86 LIG 0.18  C 
BRANCH 37 38
ATOM     38  CB  LYS B   7       3.516   3.428  10.248  1.00 20.00 LIG 0.04  C 
BRANCH 38 39
ATOM     39  CG  LYS B   7       3.011   2.083  10.696  1.00 20.00 LIG 0.00  C 
BRANCH 39 40
ATOM     40  CD  LYS B   7       1.918   2.211  11.754  1.00 20.00 LIG 0.03  C 
BRANCH 40 41
ATOM     41  CE  LYS B   7       0.538   2.317  11.118  1.00 20.00 LIG 0.23  C 
BRANCH 41 42
ATOM     42  NZ  LYS B   7       0.171   1.084  10.359  1.00 20.00 LIG-0.08  N 
ATOM     43 HZ2  LYS B   7      -0.024   1.300   9.518  1.00 20.00 LIG 0.27  HD
ATOM     44 HZ1  LYS B   7      -0.538   0.702  10.739  1.00 20.00 LIG 0.27  HD
ATOM     45 HZ3  LYS B   7       0.856   0.515  10.369  1.00 20.00 LIG 0.27  HD
ENDBRANCH 41 42
ENDBRANCH 40 41
ENDBRANCH 39 40
ENDBRANCH 38 39
ENDBRANCH 37 38
BRANCH 37 46
ATOM     46  C   LYS B   7       2.262   2.787   8.199  1.00 48.01 LIG 0.24  C 
ATOM     47 O    LYS B   7       1.080   3.087   8.263  1.00 46.73 LIG-0.27  OA
ATOM     48  N   PHE B   8       2.690   1.660   7.650  1.00 43.62 LIG-0.35  N 
ATOM     49 H    PHE B   8       3.520   1.476   7.524  1.00 43.62 LIG 0.16  HD
BRANCH 48 50
ATOM     50  CA  PHE B   8       1.778   0.619   7.205  1.00 44.29 LIG 0.18  C 
BRANCH 50 51
ATOM     51  C   PHE B   8       1.782  -0.477   8.270  1.00 70.57 LIG 0.24  C 
ATOM     52  N   SER B   9       2.788  -0.447   9.135  1.00 30.00 LIG-0.34  N 
ATOM     53 H    SER B   9       3.384   0.174   9.159  1.00 30.00 LIG 0.16  HD
ATOM     54 O    PHE B   8       0.921  -1.348   8.288  1.00 41.97 LIG-0.27  OA
BRANCH 52 55
ATOM     55  CA  SER B   9       2.962  -1.493  10.136  1.00 30.00 LIG 0.19  C 
BRANCH 55 56
ATOM     56  CB  SER B   9       3.686  -2.695   9.526  1.00 20.00 LIG 0.20  C 
BRANCH 56 57
ATOM     57 OG   SER B   9       2.962  -3.224   8.429  1.00 20.00 LIG-0.40  OA
ATOM     58 HG   SER B   9       2.361  -3.738   8.712  1.00 20.00 LIG 0.21  HD
ENDBRANCH 56 57
ENDBRANCH 55 56
BRANCH 55 59
ATOM     59  C   SER B   9       3.722  -1.003  11.358  1.00 30.00 LIG 0.22  C 
ATOM     60 O    SER B   9       3.337  -1.282  12.487  1.00 30.00 LIG-0.29  OA
ENDBRANCH 55 59
ENDBRANCH 52 55
ENDBRANCH 50 51
BRANCH 50 61
ATOM     61  CB  PHE B   8       2.210   0.083   5.842  1.00 20.00 LIG 0.07  C 
BRANCH 61 62
ATOM     62  CG  PHE B   8       3.344  -0.902   5.896  1.00 20.00 LIG-0.06  A 
ATOM     63  CD1 PHE B   8       3.238  -2.142   5.316  1.00 20.00 LIG 0.01  A 
ATOM     64  CE1 PHE B   8       4.291  -3.039   5.380  1.00 20.00 LIG 0.00  A 
ATOM     65  CZ  PHE B   8       5.458  -2.694   6.032  1.00 20.00 LIG 0.00  A 
ATOM     66  CE2 PHE B   8       5.568  -1.477   6.612  1.00 20.00 LIG 0.00  A 
ATOM     67  CD2 PHE B   8       4.520  -0.582   6.544  1.00 20.00 LIG 0.01  A 
ENDBRANCH 61 62
ENDBRANCH 50 61
ENDBRANCH 48 50
ENDBRANCH 37 46
ENDBRANCH 34 37
ENDBRANCH 1 33
BRANCH 1 68
ATOM     68  CB  ARG B   6       1.200   7.358   7.504  1.00 20.00 LIG 0.04  C 
BRANCH 68 69
ATOM     69  CG  ARG B   6       0.278   6.298   6.900  1.00 20.00 LIG 0.02  C 
BRANCH 69 70
ATOM     70  CD  ARG B   6      -1.122   6.893   6.704  1.00 20.00 LIG 0.14  C 
BRANCH 70 71
ATOM     71  NE  ARG B   6      -2.069   6.006   6.024  1.00 20.00 LIG-0.23  N 
ATOM     72  CZ  ARG B   6      -3.386   6.046   6.215  1.00 20.00 LIG 0.67  C 
ATOM     73  NH1 ARG B   6      -3.899   6.932   7.054  1.00 20.00 LIG-0.23  N 
ATOM     74  NH2 ARG B   6      -4.195   5.208   5.570  1.00 20.00 LIG-0.23  N 
ATOM     75 1HH1 ARG B   6      -3.382   7.477   7.472  1.00 20.00 LIG 0.17  HD
ATOM     76 2HH1 ARG B   6      -4.749   6.962   7.182  1.00 20.00 LIG 0.17  HD
ATOM     77 1HH2 ARG B   6      -3.868   4.632   5.022  1.00 20.00 LIG 0.17  HD
ATOM     78 2HH2 ARG B   6      -5.044   5.243   5.702  1.00 20.00 LIG 0.17  HD
ATOM     79 HE   ARG B   6      -1.757   5.428   5.469  1.00 20.00 LIG 0.18  HD
ENDBRANCH 70 71
ENDBRANCH 69 70
ENDBRANCH 68 69
ENDBRANCH 1 68
TORSDOF 33
ENDMDL
MODEL 5
USER: ADFR SOLUTION from run 88
USER: SCORE 22.566084 LL:  -3.049 LR: -21.550 RR:   0.000 FEB: -11.706
USER: RMSD 10.082566
USER: SEED 87
USER: STATUS searching
USER: GENES 35
USER: genes 0 Translation |==|  0.61874 0.54386 0.59243
USER: genes 1 Rotation |==|  0.36338 0.03495 0.39170 0.55776
USER: genes 2 Torsion [C]-CA--N-[C] |==|  0.65992
USER: genes 3 Torsion [N]-C--CA-[N] |==|  0.51987
USER: genes 4 Torsion [C]-CA--N-[C] |==|  0.79100
USER: genes 5 Torsion [N]-C--CA-[N] |==|  0.54509
USER: genes 6 Torsion [C]-CA--CB-[CG] |==|  0.67320
USER: genes 7 Torsion [CA]-CB--CG-[CD] |==|  0.54717
USER: genes 8 Torsion [CB]-CG--CD-[NE] |==|  0.54481
USER: genes 9 Torsion [CG]-CD--NE-[HE] |==|  0.31843
USER: genes 10 Torsion [C]-CA--CB-[CG] |==|  0.35727
USER: genes 11 Torsion [CA]-CB--CG-[CD] |==|  0.95927
USER: genes 12 Torsion [CB]-CG--CD-[CE] |==|  0.49528
USER: genes 13 Torsion [CG]-CD--CE-[NZ] |==|  0.64816
USER: genes 14 Torsion [CD]-CE--NZ-[HZ2] |==|  0.20862
USER: genes 15 Torsion [N]-CA--C-[N] |==|  0.07885
USER: genes 16 Torsion [C]-N--CA-[CB] |==|  0.25133
USER: genes 17 Torsion [N]-CA--CB-[CG] |==|  0.48723
USER: genes 18 Torsion [CA]-CB--CG-[CD] |==|  0.11456
USER: genes 19 Torsion [CB]-CG--CD-[CE] |==|  0.34844
USER: genes 20 Torsion [CG]-CD--CE-[NZ] |==|  0.40546
USER: genes 21 Torsion [CD]-CE--NZ-[HZ1] |==|  0.85851
USER: genes 22 Torsion [N]-CA--C-[N] |==|  0.29332
USER: genes 23 Torsion [C]-N--CA-[C] |==|  0.75450
USER: genes 24 Torsion [N]-CA--C-[N] |==|  0.49444
USER: genes 25 Torsion [C]-N--CA-[CB] |==|  0.51317
USER: genes 26 Torsion [N]-CA--CB-[OG] |==|  0.98350
USER: genes 27 Torsion [CA]-CB--OG-[HG] |==|  0.35713
USER: genes 28 Torsion [N]-CA--C-[O] |==|  0.68812
USER: genes 29 Torsion [N]-CA--CB-[CG] |==|  0.72991
USER: genes 30 Torsion [CA]-CB--CG-[CD2] |==|  0.90744
USER: genes 31 Torsion [N]-CA--CB-[CG] |==|  0.91073
USER: genes 32 Torsion [CA]-CB--CG-[CD] |==|  0.27547
USER: genes 33 Torsion [CB]-CG--CD-[NE] |==|  0.37964
USER: genes 34 Torsion [CG]-CD--NE-[CZ] |==|  0.30699
ROOT
ATOM      1  CA  ARG B   6       3.651   8.268  12.387  1.00 51.45 LIG 0.18  C 
ENDROOT
BRANCH 1 2
ATOM      2  N   ARG B   6       5.071   7.973  12.532  1.00 51.69 LIG-0.35  N 
ATOM      3 H    ARG B   6       5.545   8.162  11.840  1.00 51.69 LIG 0.16  HD
ATOM      4  C   LYS B   5       5.563   7.458  13.649  1.00 56.23 LIG 0.24  C 
ATOM      5 O    LYS B   5       4.868   7.207  14.618  1.00 55.49 LIG-0.27  OA
BRANCH 4 6
ATOM      6  CA  LYS B   5       7.058   7.196  13.692  1.00 54.66 LIG 0.18  C 
BRANCH 6 7
ATOM      7  N   LYS B   5       7.327   6.485  14.925  1.00 56.15 LIG-0.35  N 
ATOM      8 H    LYS B   5       7.480   5.647  14.814  1.00 56.15 LIG 0.16  HD
ATOM      9  C   ARG B   4       7.335   7.074  16.110  1.00 62.85 LIG 0.26  C 
ATOM     10 O    ARG B   4       7.247   8.287  16.262  1.00 61.66 LIG-0.27  OA
BRANCH 9 11
ATOM     11  CA  ARG B   4       7.481   6.146  17.304  1.00 63.68 LIG 0.40  C 
ATOM     12  N   ARG B   4       7.092   6.866  18.501  1.00 64.21 LIG 0.61  N 
BRANCH 11 13
ATOM     13  CB  ARG B   4       6.626   4.882  17.117  1.00 20.00 LIG 0.05  C 
BRANCH 13 14
ATOM     14  CG  ARG B   4       5.525   4.695  18.160  1.00 20.00 LIG 0.02  C 
BRANCH 14 15
ATOM     15  CD  ARG B   4       4.983   3.248  18.189  1.00 20.00 LIG 0.14  C 
BRANCH 15 16
ATOM     16  NE  ARG B   4       3.700   3.116  18.888  1.00 20.00 LIG-0.23  N 
ATOM     17  CZ  ARG B   4       3.520   3.335  20.193  1.00 20.00 LIG 0.67  C 
ATOM     18  NH2 ARG B   4       2.322   3.185  20.738  1.00 20.00 LIG-0.23  N 
ATOM     19  NH1 ARG B   4       4.530   3.709  20.957  1.00 20.00 LIG-0.23  N 
ATOM     20 2HH2 ARG B   4       2.212   3.327  21.579  1.00 20.00 LIG 0.17  HD
ATOM     21 1HH2 ARG B   4       1.655   2.946  20.251  1.00 20.00 LIG 0.17  HD
ATOM     22 1HH1 ARG B   4       5.312   3.814  20.616  1.00 20.00 LIG 0.17  HD
ATOM     23 2HH1 ARG B   4       4.406   3.847  21.797  1.00 20.00 LIG 0.17  HD
ATOM     24 HE   ARG B   4       3.014   2.882  18.425  1.00 20.00 LIG 0.18  HD
ENDBRANCH 15 16
ENDBRANCH 14 15
ENDBRANCH 13 14
ENDBRANCH 11 13
ENDBRANCH 9 11
ENDBRANCH 6 7
BRANCH 6 25
ATOM     25  CB  LYS B   5       7.486   6.364  12.487  1.00 20.00 LIG 0.04  C 
BRANCH 25 26
ATOM     26  CG  LYS B   5       8.648   6.944  11.715  1.00 20.00 LIG 0.00  C 
BRANCH 26 27
ATOM     27  CD  LYS B   5       8.892   8.395  12.101  1.00 20.00 LIG 0.03  C 
BRANCH 27 28
ATOM     28  CE  LYS B   5      10.086   8.972  11.358  1.00 20.00 LIG 0.23  C 
BRANCH 28 29
ATOM     29  NZ  LYS B   5      11.084   9.576  12.265  1.00 20.00 LIG-0.08  N 
ATOM     30 HZ2  LYS B   5      11.542   8.931  12.674  1.00 20.00 LIG 0.27  HD
ATOM     31 HZ3  LYS B   5      11.643  10.084  11.795  1.00 20.00 LIG 0.27  HD
ATOM     32 HZ1  LYS B   5      10.669  10.075  12.873  1.00 20.00 LIG 0.27  HD
ENDBRANCH 28 29
ENDBRANCH 27 28
ENDBRANCH 26 27
ENDBRANCH 25 26
ENDBRANCH 6 25
ENDBRANCH 4 6
ENDBRANCH 1 2
BRANCH 1 33
ATOM     33  C   ARG B   6       3.069   7.523  11.197  1.00 52.50 LIG 0.24  C 
ATOM     34  N   LYS B   7       3.654   6.379  10.871  1.00 47.60 LIG-0.35  N 
ATOM     35 H    LYS B   7       4.371   6.080  11.241  1.00 47.60 LIG 0.16  HD
ATOM     36 O    ARG B   6       2.103   7.970  10.593  1.00 51.14 LIG-0.27  OA
BRANCH 34 37
ATOM     37  CA  LYS B   7       3.108   5.521   9.831  1.00 46.86 LIG 0.18  C 
BRANCH 37 38
ATOM     38  CB  LYS B   7       3.700   5.871   8.467  1.00 20.00 LIG 0.04  C 
BRANCH 38 39
ATOM     39  CG  LYS B   7       3.272   4.961   7.347  1.00 20.00 LIG 0.00  C 
BRANCH 39 40
ATOM     40  CD  LYS B   7       1.788   4.611   7.435  1.00 20.00 LIG 0.03  C 
BRANCH 40 41
ATOM     41  CE  LYS B   7       1.061   4.943   6.139  1.00 20.00 LIG 0.23  C 
BRANCH 41 42
ATOM     42  NZ  LYS B   7      -0.038   3.976   5.845  1.00 20.00 LIG-0.08  N 
ATOM     43 HZ2  LYS B   7      -0.695   4.085   6.436  1.00 20.00 LIG 0.27  HD
ATOM     44 HZ1  LYS B   7       0.275   3.145   5.900  1.00 20.00 LIG 0.27  HD
ATOM     45 HZ3  LYS B   7      -0.351   4.122   5.025  1.00 20.00 LIG 0.27  HD
ENDBRANCH 41 42
ENDBRANCH 40 41
ENDBRANCH 39 40
ENDBRANCH 38 39
ENDBRANCH 37 38
BRANCH 37 46
ATOM     46  C   LYS B   7       3.413   4.066  10.153  1.00 48.01 LIG 0.24  C 
ATOM     47 O    LYS B   7       4.538   3.616  10.008  1.00 46.73 LIG-0.27  OA
ATOM     48  N   PHE B   8       2.396   3.337  10.591  1.00 43.62 LIG-0.35  N 
ATOM     49 H    PHE B   8       1.622   3.661  10.776  1.00 43.62 LIG 0.16  HD
BRANCH 48 50
ATOM     50  CA  PHE B   8       2.505   1.902  10.801  1.00 44.29 LIG 0.18  C 
BRANCH 50 51
ATOM     51  C   PHE B   8       2.153   1.220   9.480  1.00 70.57 LIG 0.24  C 
ATOM     52  N   SER B   9       2.238  -0.103   9.465  1.00 30.00 LIG-0.34  N 
ATOM     53 H    SER B   9       2.417  -0.582  10.157  1.00 30.00 LIG 0.16  HD
ATOM     54 O    PHE B   8       1.850   1.874   8.489  1.00 41.97 LIG-0.27  OA
BRANCH 52 55
ATOM     55  CA  SER B   9       2.026  -0.866   8.239  1.00 30.00 LIG 0.19  C 
BRANCH 55 56
ATOM     56  CB  SER B   9       2.066  -2.366   8.535  1.00 20.00 LIG 0.20  C 
BRANCH 56 57
ATOM     57 OG   SER B   9       2.431  -2.611   9.882  1.00 20.00 LIG-0.40  OA
ATOM     58 HG   SER B   9       1.872  -3.129  10.235  1.00 20.00 LIG 0.21  HD
ENDBRANCH 56 57
ENDBRANCH 55 56
BRANCH 55 59
ATOM     59  C   SER B   9       0.713  -0.514   7.559  1.00 30.00 LIG 0.22  C 
ATOM     60 O    SER B   9      -0.200  -1.330   7.502  1.00 30.00 LIG-0.29  OA
ENDBRANCH 55 59
ENDBRANCH 52 55
ENDBRANCH 50 51
BRANCH 50 61
ATOM     61  CB  PHE B   8       1.575   1.461  11.928  1.00 20.00 LIG 0.07  C 
BRANCH 61 62
ATOM     62  CG  PHE B   8       2.245   1.326  13.267  1.00 20.00 LIG-0.06  A 
ATOM     63  CD1 PHE B   8       1.577   1.618  14.430  1.00 20.00 LIG 0.01  A 
ATOM     64  CE1 PHE B   8       2.212   1.494  15.654  1.00 20.00 LIG 0.00  A 
ATOM     65  CZ  PHE B   8       3.527   1.077  15.715  1.00 20.00 LIG 0.00  A 
ATOM     66  CE2 PHE B   8       4.194   0.793  14.573  1.00 20.00 LIG 0.00  A 
ATOM     67  CD2 PHE B   8       3.559   0.913  13.354  1.00 20.00 LIG 0.01  A 
ENDBRANCH 61 62
ENDBRANCH 50 61
ENDBRANCH 48 50
ENDBRANCH 37 46
ENDBRANCH 34 37
ENDBRANCH 1 33
BRANCH 1 68
ATOM     68  CB  ARG B   6       3.403   9.777  12.200  1.00 20.00 LIG 0.04  C 
BRANCH 68 69
ATOM     69  CG  ARG B   6       4.374  10.726  12.906  1.00 20.00 LIG 0.02  C 
BRANCH 69 70
ATOM     70  CD  ARG B   6       5.424  11.217  11.902  1.00 20.00 LIG 0.14  C 
BRANCH 70 71
ATOM     71  NE  ARG B   6       5.722  12.649  11.987  1.00 20.00 LIG-0.23  N 
ATOM     72  CZ  ARG B   6       6.879  13.139  12.429  1.00 20.00 LIG 0.67  C 
ATOM     73  NH1 ARG B   6       7.837  12.308  12.811  1.00 20.00 LIG-0.23  N 
ATOM     74  NH2 ARG B   6       7.086  14.452  12.488  1.00 20.00 LIG-0.23  N 
ATOM     75 1HH1 ARG B   6       7.710  11.459  12.773  1.00 20.00 LIG 0.17  HD
ATOM     76 2HH1 ARG B   6       8.586  12.619  13.096  1.00 20.00 LIG 0.17  HD
ATOM     77 1HH2 ARG B   6       6.469  14.996  12.239  1.00 20.00 LIG 0.17  HD
ATOM     78 2HH2 ARG B   6       7.837  14.756  12.775  1.00 20.00 LIG 0.17  HD
ATOM     79 HE   ARG B   6       5.115  13.206  11.737  1.00 20.00 LIG 0.18  HD
ENDBRANCH 70 71
ENDBRANCH 69 70
ENDBRANCH 68 69
ENDBRANCH 1 68
TORSDOF 33
ENDMDL
MODEL 6
USER: ADFR SOLUTION from run 99
USER: SCORE 23.222772 LL:  -2.746 LR: -21.481 RR:   0.000 FEB: -11.637
USER: RMSD 7.604714
USER: SEED 98
USER: STATUS searching
USER: GENES 35
USER: genes 0 Translation |==|  0.47984 0.47133 0.37327
USER: genes 1 Rotation |==|  0.46706 0.99522 0.53392 0.55020
USER: genes 2 Torsion [C]-CA--N-[C] |==|  0.74079
USER: genes 3 Torsion [N]-C--CA-[N] |==|  0.01987
USER: genes 4 Torsion [C]-CA--N-[C] |==|  0.70754
USER: genes 5 Torsion [N]-C--CA-[N] |==|  0.93566
USER: genes 6 Torsion [C]-CA--CB-[CG] |==|  0.94195
USER: genes 7 Torsion [CA]-CB--CG-[CD] |==|  0.45391
USER: genes 8 Torsion [CB]-CG--CD-[NE] |==|  0.35023
USER: genes 9 Torsion [CG]-CD--NE-[HE] |==|  0.86598
USER: genes 10 Torsion [C]-CA--CB-[CG] |==|  0.57123
USER: genes 11 Torsion [CA]-CB--CG-[CD] |==|  0.81902
USER: genes 12 Torsion [CB]-CG--CD-[CE] |==|  0.90498
USER: genes 13 Torsion [CG]-CD--CE-[NZ] |==|  0.72435
USER: genes 14 Torsion [CD]-CE--NZ-[HZ2] |==|  0.65420
USER: genes 15 Torsion [N]-CA--C-[N] |==|  0.49444
USER: genes 16 Torsion [C]-N--CA-[CB] |==|  0.89276
USER: genes 17 Torsion [N]-CA--CB-[CG] |==|  0.61300
USER: genes 18 Torsion [CA]-CB--CG-[CD] |==|  0.96110
USER: genes 19 Torsion [CB]-CG--CD-[CE] |==|  0.26681
USER: genes 20 Torsion [CG]-CD--CE-[NZ] |==|  0.69094
USER: genes 21 Torsion [CD]-CE--NZ-[HZ1] |==|  0.60038
USER: genes 22 Torsion [N]-CA--C-[N] |==|  0.87544
USER: genes 23 Torsion [C]-N--CA-[C] |==|  0.58559
USER: genes 24 Torsion [N]-CA--C-[N] |==|  0.39147
USER: genes 25 Torsion [C]-N--CA-[CB] |==|  0.78652
USER: genes 26 Torsion [N]-CA--CB-[OG] |==|  0.81219
USER: genes 27 Torsion [CA]-CB--OG-[HG] |==|  0.95843
USER: genes 28 Torsion [N]-CA--C-[O] |==|  0.08083
USER: genes 29 Torsion [N]-CA--CB-[CG] |==|  0.58857
USER: genes 30 Torsion [CA]-CB--CG-[CD2] |==|  0.30528
USER: genes 31 Torsion [N]-CA--CB-[CG] |==|  0.69282
USER: genes 32 Torsion [CA]-CB--CG-[CD] |==|  0.74910
USER: genes 33 Torsion [CB]-CG--CD-[NE] |==|  0.51294
USER: genes 34 Torsion [CG]-CD--NE-[CZ] |==|  0.47540
ROOT
ATOM      1  CA  ARG B   6       0.213   6.310   7.292  1.00 51.45 LIG 0.18  C 
ENDROOT
BRANCH 1 2
ATOM      2  N   ARG B   6       1.268   7.005   8.018  1.00 51.69 LIG-0.35  N 
ATOM      3 H    ARG B   6       1.646   7.639   7.576  1.00 51.69 LIG 0.16  HD
ATOM      4  C   LYS B   5       1.598   6.668   9.256  1.00 56.23 LIG 0.24  C 
ATOM      5 O    LYS B   5       1.041   5.769   9.863  1.00 55.49 LIG-0.27  OA
BRANCH 4 6
ATOM      6  CA  LYS B   5       2.708   7.464   9.919  1.00 54.66 LIG 0.18  C 
BRANCH 6 7
ATOM      7  N   LYS B   5       3.032   8.559   9.030  1.00 56.15 LIG-0.35  N 
ATOM      8 H    LYS B   5       2.447   9.190   9.029  1.00 56.15 LIG 0.16  HD
ATOM      9  C   ARG B   4       4.127   8.586   8.288  1.00 62.85 LIG 0.26  C 
ATOM     10 O    ARG B   4       5.025   7.758   8.379  1.00 61.66 LIG-0.27  OA
BRANCH 9 11
ATOM     11  CA  ARG B   4       4.225   9.738   7.301  1.00 63.68 LIG 0.40  C 
ATOM     12  N   ARG B   4       2.889  10.220   7.016  1.00 64.21 LIG 0.61  N 
BRANCH 11 13
ATOM     13  CB  ARG B   4       5.110  10.861   7.864  1.00 20.00 LIG 0.05  C 
BRANCH 13 14
ATOM     14  CG  ARG B   4       5.272  10.846   9.384  1.00 20.00 LIG 0.02  C 
BRANCH 14 15
ATOM     15  CD  ARG B   4       6.464  11.708   9.857  1.00 20.00 LIG 0.14  C 
BRANCH 15 16
ATOM     16  NE  ARG B   4       6.099  12.709  10.867  1.00 20.00 LIG-0.23  N 
ATOM     17  CZ  ARG B   4       6.762  12.913  12.007  1.00 20.00 LIG 0.67  C 
ATOM     18  NH2 ARG B   4       6.353  13.838  12.863  1.00 20.00 LIG-0.23  N 
ATOM     19  NH1 ARG B   4       7.837  12.202  12.296  1.00 20.00 LIG-0.23  N 
ATOM     20 2HH2 ARG B   4       6.784  13.965  13.596  1.00 20.00 LIG 0.17  HD
ATOM     21 1HH2 ARG B   4       5.658  14.311  12.685  1.00 20.00 LIG 0.17  HD
ATOM     22 1HH1 ARG B   4       8.116  11.601  11.748  1.00 20.00 LIG 0.17  HD
ATOM     23 2HH1 ARG B   4       8.258  12.339  13.033  1.00 20.00 LIG 0.17  HD
ATOM     24 HE   ARG B   4       5.409  13.199  10.712  1.00 20.00 LIG 0.18  HD
ENDBRANCH 15 16
ENDBRANCH 14 15
ENDBRANCH 13 14
ENDBRANCH 11 13
ENDBRANCH 9 11
ENDBRANCH 6 7
BRANCH 6 25
ATOM     25  CB  LYS B   5       2.247   7.991  11.275  1.00 20.00 LIG 0.04  C 
BRANCH 25 26
ATOM     26  CG  LYS B   5       2.968   9.237  11.733  1.00 20.00 LIG 0.00  C 
BRANCH 26 27
ATOM     27  CD  LYS B   5       4.441   8.956  11.984  1.00 20.00 LIG 0.03  C 
BRANCH 27 28
ATOM     28  CE  LYS B   5       4.653   7.553  12.526  1.00 20.00 LIG 0.23  C 
BRANCH 28 29
ATOM     29  NZ  LYS B   5       4.824   7.528  13.994  1.00 20.00 LIG-0.08  N 
ATOM     30 HZ2  LYS B   5       5.591   7.124  14.197  1.00 20.00 LIG 0.27  HD
ATOM     31 HZ3  LYS B   5       4.837   8.362  14.305  1.00 20.00 LIG 0.27  HD
ATOM     32 HZ1  LYS B   5       4.147   7.084  14.363  1.00 20.00 LIG 0.27  HD
ENDBRANCH 28 29
ENDBRANCH 27 28
ENDBRANCH 26 27
ENDBRANCH 25 26
ENDBRANCH 6 25
ENDBRANCH 4 6
ENDBRANCH 1 2
BRANCH 1 33
ATOM     33  C   ARG B   6       0.795   5.182   6.455  1.00 52.50 LIG 0.24  C 
ATOM     34  N   LYS B   7      -0.071   4.442   5.775  1.00 47.60 LIG-0.35  N 
ATOM     35 H    LYS B   7      -0.925   4.518   5.838  1.00 47.60 LIG 0.16  HD
ATOM     36 O    ARG B   6       2.003   4.993   6.417  1.00 51.14 LIG-0.27  OA
BRANCH 34 37
ATOM     37  CA  LYS B   7       0.379   3.418   4.845  1.00 46.86 LIG 0.18  C 
BRANCH 37 38
ATOM     38  CB  LYS B   7       1.613   3.883   4.074  1.00 20.00 LIG 0.04  C 
BRANCH 38 39
ATOM     39  CG  LYS B   7       1.616   3.514   2.615  1.00 20.00 LIG 0.00  C 
BRANCH 39 40
ATOM     40  CD  LYS B   7       0.554   2.465   2.293  1.00 20.00 LIG 0.03  C 
BRANCH 40 41
ATOM     41  CE  LYS B   7      -0.724   3.109   1.772  1.00 20.00 LIG 0.23  C 
BRANCH 41 42
ATOM     42  NZ  LYS B   7      -1.855   2.979   2.738  1.00 20.00 LIG-0.08  N 
ATOM     43 HZ2  LYS B   7      -1.711   2.281   3.272  1.00 20.00 LIG 0.27  HD
ATOM     44 HZ1  LYS B   7      -2.615   2.858   2.291  1.00 20.00 LIG 0.27  HD
ATOM     45 HZ3  LYS B   7      -1.914   3.720   3.228  1.00 20.00 LIG 0.27  HD
ENDBRANCH 41 42
ENDBRANCH 40 41
ENDBRANCH 39 40
ENDBRANCH 38 39
ENDBRANCH 37 38
BRANCH 37 46
ATOM     46  C   LYS B   7       0.712   2.144   5.606  1.00 48.01 LIG 0.24  C 
ATOM     47 O    LYS B   7       0.337   1.056   5.199  1.00 46.73 LIG-0.27  OA
ATOM     48  N   PHE B   8       1.421   2.292   6.716  1.00 43.62 LIG-0.35  N 
ATOM     49 H    PHE B   8       1.760   3.040   6.968  1.00 43.62 LIG 0.16  HD
BRANCH 48 50
ATOM     50  CA  PHE B   8       1.690   1.184   7.618  1.00 44.29 LIG 0.18  C 
BRANCH 50 51
ATOM     51  C   PHE B   8       1.794   1.761   9.029  1.00 70.57 LIG 0.24  C 
ATOM     52  N   SER B   9       1.256   1.033   9.999  1.00 30.00 LIG-0.34  N 
ATOM     53 H    SER B   9       0.915   0.252   9.882  1.00 30.00 LIG 0.16  HD
ATOM     54 O    PHE B   8       2.314   2.851   9.233  1.00 41.97 LIG-0.27  OA
BRANCH 52 55
ATOM     55  CA  SER B   9       1.201   1.518  11.374  1.00 30.00 LIG 0.19  C 
BRANCH 55 56
ATOM     56  CB  SER B   9       2.574   1.390  12.036  1.00 20.00 LIG 0.20  C 
BRANCH 56 57
ATOM     57 OG   SER B   9       2.928   0.030  12.217  1.00 20.00 LIG-0.40  OA
ATOM     58 HG   SER B   9       2.248  -0.453  12.119  1.00 20.00 LIG 0.21  HD
ENDBRANCH 56 57
ENDBRANCH 55 56
BRANCH 55 59
ATOM     59  C   SER B   9       0.724   2.959  11.459  1.00 30.00 LIG 0.22  C 
ATOM     60 O    SER B   9      -0.038   3.416  10.615  1.00 30.00 LIG-0.29  OA
ENDBRANCH 55 59
ENDBRANCH 52 55
ENDBRANCH 50 51
BRANCH 50 61
ATOM     61  CB  PHE B   8       2.972   0.466   7.206  1.00 20.00 LIG 0.07  C 
BRANCH 61 62
ATOM     62  CG  PHE B   8       2.977  -1.009   7.498  1.00 20.00 LIG-0.06  A 
ATOM     63  CD1 PHE B   8       3.055  -1.479   8.784  1.00 20.00 LIG 0.01  A 
ATOM     64  CE1 PHE B   8       3.064  -2.841   9.035  1.00 20.00 LIG 0.00  A 
ATOM     65  CZ  PHE B   8       2.999  -3.739   7.988  1.00 20.00 LIG 0.00  A 
ATOM     66  CE2 PHE B   8       2.929  -3.283   6.716  1.00 20.00 LIG 0.00  A 
ATOM     67  CD2 PHE B   8       2.915  -1.926   6.469  1.00 20.00 LIG 0.01  A 
ENDBRANCH 61 62
ENDBRANCH 50 61
ENDBRANCH 48 50
ENDBRANCH 37 46
ENDBRANCH 34 37
ENDBRANCH 1 33
BRANCH 1 68
ATOM     68  CB  ARG B   6      -0.562   7.267   6.368  1.00 20.00 LIG 0.04  C 
BRANCH 68 69
ATOM     69  CG  ARG B   6      -2.007   7.583   6.760  1.00 20.00 LIG 0.02  C 
BRANCH 69 70
ATOM     70  CD  ARG B   6      -2.946   6.565   6.102  1.00 20.00 LIG 0.14  C 
BRANCH 70 71
ATOM     71  NE  ARG B   6      -4.372   6.828   6.317  1.00 20.00 LIG-0.23  N 
ATOM     72  CZ  ARG B   6      -5.347   6.168   5.694  1.00 20.00 LIG 0.67  C 
ATOM     73  NH1 ARG B   6      -5.042   5.209   4.833  1.00 20.00 LIG-0.23  N 
ATOM     74  NH2 ARG B   6      -6.624   6.458   5.928  1.00 20.00 LIG-0.23  N 
ATOM     75 1HH1 ARG B   6      -4.218   5.016   4.679  1.00 20.00 LIG 0.17  HD
ATOM     76 2HH1 ARG B   6      -5.667   4.779   4.429  1.00 20.00 LIG 0.17  HD
ATOM     77 1HH2 ARG B   6      -6.829   7.078   6.488  1.00 20.00 LIG 0.17  HD
ATOM     78 2HH2 ARG B   6      -7.245   6.025   5.520  1.00 20.00 LIG 0.17  HD
ATOM     79 HE   ARG B   6      -4.592   7.442   6.877  1.00 20.00 LIG 0.18  HD
ENDBRANCH 70 71
ENDBRANCH 69 70
ENDBRANCH 68 69
ENDBRANCH 1 68
TORSDOF 33
ENDMDL
MODEL 7
USER: ADFR SOLUTION from run 184
USER: SCORE 22.819995 LL:  -2.565 LR: -21.443 RR:   0.000 FEB: -11.599
USER: RMSD 6.679743
USER: SEED 183
USER: STATUS no improvement in best in 2 clusters for 5 generations
USER: GENES 35
USER: genes 0 Translation |==|  0.48560 0.43863 0.41812
USER: genes 1 Rotation |==|  0.50090 0.88584 0.30421 0.75058
USER: genes 2 Torsion [C]-CA--N-[C] |==|  0.17778
USER: genes 3 Torsion [N]-C--CA-[N] |==|  0.40977
USER: genes 4 Torsion [C]-CA--N-[C] |==|  0.61205
USER: genes 5 Torsion [N]-C--CA-[N] |==|  0.09952
USER: genes 6 Torsion [C]-CA--CB-[CG] |==|  0.72760
USER: genes 7 Torsion [CA]-CB--CG-[CD] |==|  0.35552
USER: genes 8 Torsion [CB]-CG--CD-[NE] |==|  0.57860
USER: genes 9 Torsion [CG]-CD--NE-[HE] |==|  0.87615
USER: genes 10 Torsion [C]-CA--CB-[CG] |==|  0.57309
USER: genes 11 Torsion [CA]-CB--CG-[CD] |==|  0.50436
USER: genes 12 Torsion [CB]-CG--CD-[CE] |==|  0.49923
USER: genes 13 Torsion [CG]-CD--CE-[NZ] |==|  0.65146
USER: genes 14 Torsion [CD]-CE--NZ-[HZ2] |==|  0.97507
USER: genes 15 Torsion [N]-CA--C-[N] |==|  0.63966
USER: genes 16 Torsion [C]-N--CA-[CB] |==|  0.51131
USER: genes 17 Torsion [N]-CA--CB-[CG] |==|  0.65534
USER: genes 18 Torsion [CA]-CB--CG-[CD] |==|  0.67191
USER: genes 19 Torsion [CB]-CG--CD-[CE] |==|  0.69675
USER: genes 20 Torsion [CG]-CD--CE-[NZ] |==|  0.64215
USER: genes 21 Torsion [CD]-CE--NZ-[HZ1] |==|  0.84366
USER: genes 22 Torsion [N]-CA--C-[N] |==|  0.45480
USER: genes 23 Torsion [C]-N--CA-[C] |==|  0.81612
USER: genes 24 Torsion [N]-CA--C-[N] |==|  0.92518
USER: genes 25 Torsion [C]-N--CA-[CB] |==|  0.38604
USER: genes 26 Torsion [N]-CA--CB-[OG] |==|  0.63014
USER: genes 27 Torsion [CA]-CB--OG-[HG] |==|  0.90288
USER: genes 28 Torsion [N]-CA--C-[O] |==|  0.13229
USER: genes 29 Torsion [N]-CA--CB-[CG] |==|  0.57429
USER: genes 30 Torsion [CA]-CB--CG-[CD2] |==|  0.73962
USER: genes 31 Torsion [N]-CA--CB-[CG] |==|  0.72508
USER: genes 32 Torsion [CA]-CB--CG-[CD] |==|  0.99465
USER: genes 33 Torsion [CB]-CG--CD-[NE] |==|  0.67297
USER: genes 34 Torsion [CG]-CD--NE-[CZ] |==|  0.48127
ROOT
ATOM      1  CA  ARG B   6       0.355   5.427   8.334  1.00 51.45 LIG 0.18  C 
ENDROOT
BRANCH 1 2
ATOM      2  N   ARG B   6       0.915   6.590   9.012  1.00 51.69 LIG-0.35  N 
ATOM      3 H    ARG B   6       0.336   7.185   9.233  1.00 51.69 LIG 0.16  HD
ATOM      4  C   LYS B   5       2.214   6.695   9.254  1.00 56.23 LIG 0.24  C 
ATOM      5 O    LYS B   5       3.013   5.831   8.935  1.00 55.49 LIG-0.27  OA
BRANCH 4 6
ATOM      6  CA  LYS B   5       2.687   7.946   9.971  1.00 54.66 LIG 0.18  C 
BRANCH 6 7
ATOM      7  N   LYS B   5       3.824   7.564  10.782  1.00 56.15 LIG-0.35  N 
ATOM      8 H    LYS B   5       4.356   7.012  10.394  1.00 56.15 LIG 0.16  HD
ATOM      9  C   ARG B   4       4.023   8.023  12.007  1.00 62.85 LIG 0.26  C 
ATOM     10 O    ARG B   4       3.342   8.906  12.516  1.00 61.66 LIG-0.27  OA
BRANCH 9 11
ATOM     11  CA  ARG B   4       5.180   7.396  12.765  1.00 63.68 LIG 0.40  C 
ATOM     12  N   ARG B   4       6.251   7.116  11.830  1.00 64.21 LIG 0.61  N 
BRANCH 11 13
ATOM     13  CB  ARG B   4       5.659   8.326  13.891  1.00 20.00 LIG 0.05  C 
BRANCH 13 14
ATOM     14  CG  ARG B   4       6.882   9.175  13.543  1.00 20.00 LIG 0.02  C 
BRANCH 14 15
ATOM     15  CD  ARG B   4       6.654  10.677  13.824  1.00 20.00 LIG 0.14  C 
BRANCH 15 16
ATOM     16  NE  ARG B   4       7.442  11.562  12.958  1.00 20.00 LIG-0.23  N 
ATOM     17  CZ  ARG B   4       6.967  12.652  12.353  1.00 20.00 LIG 0.67  C 
ATOM     18  NH2 ARG B   4       7.754  13.388  11.583  1.00 20.00 LIG-0.23  N 
ATOM     19  NH1 ARG B   4       5.708  13.018  12.518  1.00 20.00 LIG-0.23  N 
ATOM     20 2HH2 ARG B   4       7.442  14.090  11.195  1.00 20.00 LIG 0.17  HD
ATOM     21 1HH2 ARG B   4       8.576  13.164  11.470  1.00 20.00 LIG 0.17  HD
ATOM     22 1HH1 ARG B   4       5.187  12.552  13.019  1.00 20.00 LIG 0.17  HD
ATOM     23 2HH1 ARG B   4       5.410  13.722  12.125  1.00 20.00 LIG 0.17  HD
ATOM     24 HE   ARG B   4       8.269  11.363  12.831  1.00 20.00 LIG 0.18  HD
ENDBRANCH 15 16
ENDBRANCH 14 15
ENDBRANCH 13 14
ENDBRANCH 11 13
ENDBRANCH 9 11
ENDBRANCH 6 7
BRANCH 6 25
ATOM     25  CB  LYS B   5       3.083   9.019   8.962  1.00 20.00 LIG 0.04  C 
BRANCH 25 26
ATOM     26  CG  LYS B   5       4.107  10.004   9.475  1.00 20.00 LIG 0.00  C 
BRANCH 26 27
ATOM     27  CD  LYS B   5       4.421  11.062   8.429  1.00 20.00 LIG 0.03  C 
BRANCH 27 28
ATOM     28  CE  LYS B   5       5.446  12.061   8.941  1.00 20.00 LIG 0.23  C 
BRANCH 28 29
ATOM     29  NZ  LYS B   5       4.979  13.459   8.842  1.00 20.00 LIG-0.08  N 
ATOM     30 HZ2  LYS B   5       4.221  13.486   8.375  1.00 20.00 LIG 0.27  HD
ATOM     31 HZ3  LYS B   5       4.836  13.783   9.658  1.00 20.00 LIG 0.27  HD
ATOM     32 HZ1  LYS B   5       5.598  13.950   8.432  1.00 20.00 LIG 0.27  HD
ENDBRANCH 28 29
ENDBRANCH 27 28
ENDBRANCH 26 27
ENDBRANCH 25 26
ENDBRANCH 6 25
ENDBRANCH 4 6
ENDBRANCH 1 2
BRANCH 1 33
ATOM     33  C   ARG B   6       0.557   4.173   9.170  1.00 52.50 LIG 0.24  C 
ATOM     34  N   LYS B   7       1.088   3.128   8.550  1.00 47.60 LIG-0.35  N 
ATOM     35 H    LYS B   7       1.252   3.099   7.707  1.00 47.60 LIG 0.16  HD
ATOM     36 O    ARG B   6       0.250   4.157  10.354  1.00 51.14 LIG-0.27  OA
BRANCH 34 37
ATOM     37  CA  LYS B   7       1.441   1.918   9.278  1.00 46.86 LIG 0.18  C 
BRANCH 37 38
ATOM     38  CB  LYS B   7       2.123   0.907   8.358  1.00 20.00 LIG 0.04  C 
BRANCH 38 39
ATOM     39  CG  LYS B   7       1.461  -0.444   8.313  1.00 20.00 LIG 0.00  C 
BRANCH 39 40
ATOM     40  CD  LYS B   7       2.390  -1.548   8.814  1.00 20.00 LIG 0.03  C 
BRANCH 40 41
ATOM     41  CE  LYS B   7       2.849  -2.447   7.674  1.00 20.00 LIG 0.23  C 
BRANCH 41 42
ATOM     42  NZ  LYS B   7       2.633  -3.894   7.975  1.00 20.00 LIG-0.08  N 
ATOM     43 HZ2  LYS B   7       1.761  -4.052   8.059  1.00 20.00 LIG 0.27  HD
ATOM     44 HZ1  LYS B   7       3.047  -4.104   8.735  1.00 20.00 LIG 0.27  HD
ATOM     45 HZ3  LYS B   7       2.962  -4.388   7.312  1.00 20.00 LIG 0.27  HD
ENDBRANCH 41 42
ENDBRANCH 40 41
ENDBRANCH 39 40
ENDBRANCH 38 39
ENDBRANCH 37 38
BRANCH 37 46
ATOM     46  C   LYS B   7       2.377   2.265  10.426  1.00 48.01 LIG 0.24  C 
ATOM     47 O    LYS B   7       2.955   3.339  10.459  1.00 46.73 LIG-0.27  OA
ATOM     48  N   PHE B   8       2.518   1.341  11.366  1.00 43.62 LIG-0.35  N 
ATOM     49 H    PHE B   8       2.054   0.618  11.397  1.00 43.62 LIG 0.16  HD
BRANCH 48 50
ATOM     50  CA  PHE B   8       3.484   1.474  12.444  1.00 44.29 LIG 0.18  C 
BRANCH 50 51
ATOM     51  C   PHE B   8       4.877   1.415  11.818  1.00 70.57 LIG 0.24  C 
ATOM     52  N   SER B   9       4.977   0.742  10.679  1.00 30.00 LIG-0.34  N 
ATOM     53 H    SER B   9       4.307   0.400  10.261  1.00 30.00 LIG 0.16  HD
ATOM     54 O    PHE B   8       5.842   1.932  12.367  1.00 41.97 LIG-0.27  OA
BRANCH 52 55
ATOM     55  CA  SER B   9       6.267   0.527  10.033  1.00 30.00 LIG 0.19  C 
BRANCH 55 56
ATOM     56  CB  SER B   9       6.354  -0.899   9.485  1.00 20.00 LIG 0.20  C 
BRANCH 56 57
ATOM     57 OG   SER B   9       7.586  -1.506   9.834  1.00 20.00 LIG-0.40  OA
ATOM     58 HG   SER B   9       8.195  -0.927   9.831  1.00 20.00 LIG 0.21  HD
ENDBRANCH 56 57
ENDBRANCH 55 56
BRANCH 55 59
ATOM     59  C   SER B   9       6.526   1.522   8.914  1.00 30.00 LIG 0.22  C 
ATOM     60 O    SER B   9       6.338   2.720   9.088  1.00 30.00 LIG-0.29  OA
ENDBRANCH 55 59
ENDBRANCH 52 55
ENDBRANCH 50 51
BRANCH 50 61
ATOM     61  CB  PHE B   8       3.282   0.366  13.475  1.00 20.00 LIG 0.07  C 
BRANCH 61 62
ATOM     62  CG  PHE B   8       3.733   0.723  14.864  1.00 20.00 LIG-0.06  A 
ATOM     63  CD1 PHE B   8       2.904   1.389  15.732  1.00 20.00 LIG 0.01  A 
ATOM     64  CE1 PHE B   8       3.337   1.715  17.006  1.00 20.00 LIG 0.00  A 
ATOM     65  CZ  PHE B   8       4.612   1.375  17.413  1.00 20.00 LIG 0.00  A 
ATOM     66  CE2 PHE B   8       5.438   0.725  16.561  1.00 20.00 LIG 0.00  A 
ATOM     67  CD2 PHE B   8       5.002   0.396  15.294  1.00 20.00 LIG 0.01  A 
ENDBRANCH 61 62
ENDBRANCH 50 61
ENDBRANCH 48 50
ENDBRANCH 37 46
ENDBRANCH 34 37
ENDBRANCH 1 33
BRANCH 1 68
ATOM     68  CB  ARG B   6       1.000   5.214   6.952  1.00 20.00 LIG 0.04  C 
BRANCH 68 69
ATOM     69  CG  ARG B   6       0.220   5.730   5.742  1.00 20.00 LIG 0.02  C 
BRANCH 69 70
ATOM     70  CD  ARG B   6      -1.111   6.329   6.214  1.00 20.00 LIG 0.14  C 
BRANCH 70 71
ATOM     71  NE  ARG B   6      -2.301   5.647   5.695  1.00 20.00 LIG-0.23  N 
ATOM     72  CZ  ARG B   6      -3.542   5.928   6.085  1.00 20.00 LIG 0.67  C 
ATOM     73  NH1 ARG B   6      -3.746   6.879   6.984  1.00 20.00 LIG-0.23  N 
ATOM     74  NH2 ARG B   6      -4.582   5.269   5.581  1.00 20.00 LIG-0.23  N 
ATOM     75 1HH1 ARG B   6      -3.078   7.310   7.313  1.00 20.00 LIG 0.17  HD
ATOM     76 2HH1 ARG B   6      -4.546   7.065   7.240  1.00 20.00 LIG 0.17  HD
ATOM     77 1HH2 ARG B   6      -4.457   4.652   4.995  1.00 20.00 LIG 0.17  HD
ATOM     78 2HH2 ARG B   6      -5.379   5.459   5.841  1.00 20.00 LIG 0.17  HD
ATOM     79 HE   ARG B   6      -2.191   5.031   5.105  1.00 20.00 LIG 0.18  HD
ENDBRANCH 70 71
ENDBRANCH 69 70
ENDBRANCH 68 69
ENDBRANCH 1 68
TORSDOF 33
ENDMDL
MODEL 8
USER: ADFR SOLUTION from run 161
USER: SCORE 22.314639 LL:  -3.083 LR: -21.348 RR:   0.000 FEB: -11.504
USER: RMSD 8.056132
USER: SEED 160
USER: STATUS no improvement in best in 1 clusters for 5 generations
USER: GENES 35
USER: genes 0 Translation |==|  0.52604 0.32517 0.46388
USER: genes 1 Rotation |==|  0.31878 0.82358 0.20086 0.65155
USER: genes 2 Torsion [C]-CA--N-[C] |==|  0.75960
USER: genes 3 Torsion [N]-C--CA-[N] |==|  0.29570
USER: genes 4 Torsion [C]-CA--N-[C] |==|  0.63842
USER: genes 5 Torsion [N]-C--CA-[N] |==|  0.77083
USER: genes 6 Torsion [C]-CA--CB-[CG] |==|  0.52150
USER: genes 7 Torsion [CA]-CB--CG-[CD] |==|  0.25623
USER: genes 8 Torsion [CB]-CG--CD-[NE] |==|  0.50324
USER: genes 9 Torsion [CG]-CD--NE-[HE] |==|  0.73723
USER: genes 10 Torsion [C]-CA--CB-[CG] |==|  0.31583
USER: genes 11 Torsion [CA]-CB--CG-[CD] |==|  0.49860
USER: genes 12 Torsion [CB]-CG--CD-[CE] |==|  0.11004
USER: genes 13 Torsion [CG]-CD--CE-[NZ] |==|  0.29839
USER: genes 14 Torsion [CD]-CE--NZ-[HZ2] |==|  0.87304
USER: genes 15 Torsion [N]-CA--C-[N] |==|  0.46886
USER: genes 16 Torsion [C]-N--CA-[CB] |==|  0.34746
USER: genes 17 Torsion [N]-CA--CB-[CG] |==|  0.67497
USER: genes 18 Torsion [CA]-CB--CG-[CD] |==|  0.64136
USER: genes 19 Torsion [CB]-CG--CD-[CE] |==|  0.42564
USER: genes 20 Torsion [CG]-CD--CE-[NZ] |==|  0.35023
USER: genes 21 Torsion [CD]-CE--NZ-[HZ1] |==|  0.75129
USER: genes 22 Torsion [N]-CA--C-[N] |==|  0.20147
USER: genes 23 Torsion [C]-N--CA-[C] |==|  0.79509
USER: genes 24 Torsion [N]-CA--C-[N] |==|  0.95695
USER: genes 25 Torsion [C]-N--CA-[CB] |==|  0.29362
USER: genes 26 Torsion [N]-CA--CB-[OG] |==|  0.85489
USER: genes 27 Torsion [CA]-CB--OG-[HG] |==|  0.18453
USER: genes 28 Torsion [N]-CA--C-[O] |==|  0.96271
USER: genes 29 Torsion [N]-CA--CB-[CG] |==|  0.75184
USER: genes 30 Torsion [CA]-CB--CG-[CD2] |==|  0.48558
USER: genes 31 Torsion [N]-CA--CB-[CG] |==|  0.94152
USER: genes 32 Torsion [CA]-CB--CG-[CD] |==|  0.55564
USER: genes 33 Torsion [CB]-CG--CD-[NE] |==|  0.98607
USER: genes 34 Torsion [CG]-CD--NE-[CZ] |==|  0.30303
ROOT
ATOM      1  CA  ARG B   6       1.357   2.363   9.398  1.00 51.45 LIG 0.18  C 
ENDROOT
BRANCH 1 2
ATOM      2  N   ARG B   6       1.654   3.645   8.771  1.00 51.69 LIG-0.35  N 
ATOM      3 H    ARG B   6       2.217   3.601   8.123  1.00 51.69 LIG 0.16  HD
ATOM      4  C   LYS B   5       1.090   4.770   9.186  1.00 56.23 LIG 0.24  C 
ATOM      5 O    LYS B   5       0.288   4.802  10.104  1.00 55.49 LIG-0.27  OA
BRANCH 4 6
ATOM      6  CA  LYS B   5       1.468   6.046   8.457  1.00 54.66 LIG 0.18  C 
BRANCH 6 7
ATOM      7  N   LYS B   5       0.334   6.417   7.637  1.00 56.15 LIG-0.35  N 
ATOM      8 H    LYS B   5      -0.413   6.424   8.063  1.00 56.15 LIG 0.16  HD
ATOM      9  C   ARG B   4       0.439   6.716   6.353  1.00 62.85 LIG 0.26  C 
ATOM     10 O    ARG B   4       1.512   6.835   5.773  1.00 61.66 LIG-0.27  OA
BRANCH 9 11
ATOM     11  CA  ARG B   4      -0.873   6.930   5.617  1.00 63.68 LIG 0.40  C 
ATOM     12  N   ARG B   4      -1.404   5.637   5.231  1.00 64.21 LIG 0.61  N 
BRANCH 11 13
ATOM     13  CB  ARG B   4      -1.871   7.696   6.499  1.00 20.00 LIG 0.05  C 
BRANCH 13 14
ATOM     14  CG  ARG B   4      -3.284   7.801   5.924  1.00 20.00 LIG 0.02  C 
BRANCH 14 15
ATOM     15  CD  ARG B   4      -4.200   6.652   6.403  1.00 20.00 LIG 0.14  C 
BRANCH 15 16
ATOM     16  NE  ARG B   4      -5.556   6.711   5.845  1.00 20.00 LIG-0.23  N 
ATOM     17  CZ  ARG B   4      -5.913   6.203   4.663  1.00 20.00 LIG 0.67  C 
ATOM     18  NH2 ARG B   4      -7.163   6.311   4.238  1.00 20.00 LIG-0.23  N 
ATOM     19  NH1 ARG B   4      -5.029   5.582   3.903  1.00 20.00 LIG-0.23  N 
ATOM     20 2HH2 ARG B   4      -7.388   5.982   3.476  1.00 20.00 LIG 0.17  HD
ATOM     21 1HH2 ARG B   4      -7.749   6.709   4.725  1.00 20.00 LIG 0.17  HD
ATOM     22 1HH1 ARG B   4      -4.215   5.501   4.169  1.00 20.00 LIG 0.17  HD
ATOM     23 2HH1 ARG B   4      -5.267   5.258   3.143  1.00 20.00 LIG 0.17  HD
ATOM     24 HE   ARG B   4      -6.163   7.101   6.312  1.00 20.00 LIG 0.18  HD
ENDBRANCH 15 16
ENDBRANCH 14 15
ENDBRANCH 13 14
ENDBRANCH 11 13
ENDBRANCH 9 11
ENDBRANCH 6 7
BRANCH 6 25
ATOM     25  CB  LYS B   5       1.794   7.152   9.457  1.00 20.00 LIG 0.04  C 
BRANCH 25 26
ATOM     26  CG  LYS B   5       3.240   7.591   9.446  1.00 20.00 LIG 0.00  C 
BRANCH 26 27
ATOM     27  CD  LYS B   5       3.483   8.700  10.456  1.00 20.00 LIG 0.03  C 
BRANCH 27 28
ATOM     28  CE  LYS B   5       2.713   8.456  11.743  1.00 20.00 LIG 0.23  C 
BRANCH 28 29
ATOM     29  NZ  LYS B   5       3.587   8.050  12.863  1.00 20.00 LIG-0.08  N 
ATOM     30 HZ2  LYS B   5       4.158   7.427  12.583  1.00 20.00 LIG 0.27  HD
ATOM     31 HZ3  LYS B   5       4.042   8.757  13.156  1.00 20.00 LIG 0.27  HD
ATOM     32 HZ1  LYS B   5       3.090   7.722  13.524  1.00 20.00 LIG 0.27  HD
ENDBRANCH 28 29
ENDBRANCH 27 28
ENDBRANCH 26 27
ENDBRANCH 25 26
ENDBRANCH 6 25
ENDBRANCH 4 6
ENDBRANCH 1 2
BRANCH 1 33
ATOM     33  C   ARG B   6       2.262   2.132  10.597  1.00 52.50 LIG 0.24  C 
ATOM     34  N   LYS B   7       1.946   1.118  11.391  1.00 47.60 LIG-0.35  N 
ATOM     35 H    LYS B   7       1.234   0.643  11.307  1.00 47.60 LIG 0.16  HD
ATOM     36 O    ARG B   6       3.234   2.849  10.792  1.00 51.14 LIG-0.27  OA
BRANCH 34 37
ATOM     37  CA  LYS B   7       2.809   0.726  12.495  1.00 46.86 LIG 0.18  C 
BRANCH 37 38
ATOM     38  CB  LYS B   7       2.037   0.711  13.813  1.00 20.00 LIG 0.04  C 
BRANCH 38 39
ATOM     39  CG  LYS B   7       2.530   1.697  14.838  1.00 20.00 LIG 0.00  C 
BRANCH 39 40
ATOM     40  CD  LYS B   7       2.777   1.034  16.191  1.00 20.00 LIG 0.03  C 
BRANCH 40 41
ATOM     41  CE  LYS B   7       3.835   1.781  16.992  1.00 20.00 LIG 0.23  C 
BRANCH 41 42
ATOM     42  NZ  LYS B   7       3.350   2.158  18.352  1.00 20.00 LIG-0.08  N 
ATOM     43 HZ2  LYS B   7       2.759   1.555  18.635  1.00 20.00 LIG 0.27  HD
ATOM     44 HZ1  LYS B   7       2.962   2.959  18.318  1.00 20.00 LIG 0.27  HD
ATOM     45 HZ3  LYS B   7       4.038   2.186  18.916  1.00 20.00 LIG 0.27  HD
ENDBRANCH 41 42
ENDBRANCH 40 41
ENDBRANCH 39 40
ENDBRANCH 38 39
ENDBRANCH 37 38
BRANCH 37 46
ATOM     46  C   LYS B   7       3.381  -0.659  12.232  1.00 48.01 LIG 0.24  C 
ATOM     47 O    LYS B   7       2.989  -1.627  12.863  1.00 46.73 LIG-0.27  OA
ATOM     48  N   PHE B   8       4.313  -0.739  11.293  1.00 43.62 LIG-0.35  N 
ATOM     49 H    PHE B   8       4.537  -0.082  10.786  1.00 43.62 LIG 0.16  HD
BRANCH 48 50
ATOM     50  CA  PHE B   8       5.049  -1.966  11.035  1.00 44.29 LIG 0.18  C 
BRANCH 50 51
ATOM     51  C   PHE B   8       6.042  -2.152  12.180  1.00 70.57 LIG 0.24  C 
ATOM     52  N   SER B   9       6.265  -1.086  12.939  1.00 30.00 LIG-0.34  N 
ATOM     53 H    SER B   9       5.846  -0.339  12.855  1.00 30.00 LIG 0.16  HD
ATOM     54 O    PHE B   8       6.621  -3.218  12.353  1.00 41.97 LIG-0.27  OA
BRANCH 52 55
ATOM     55  CA  SER B   9       7.265  -1.104  14.001  1.00 30.00 LIG 0.19  C 
BRANCH 55 56
ATOM     56  CB  SER B   9       8.500  -0.305  13.580  1.00 20.00 LIG 0.20  C 
BRANCH 56 57
ATOM     57 OG   SER B   9       8.981  -0.738  12.320  1.00 20.00 LIG-0.40  OA
ATOM     58 HG   SER B   9       8.418  -0.552  11.725  1.00 20.00 LIG 0.21  HD
ENDBRANCH 56 57
ENDBRANCH 55 56
BRANCH 55 59
ATOM     59  C   SER B   9       6.724  -0.557  15.312  1.00 30.00 LIG 0.22  C 
ATOM     60 O    SER B   9       5.664   0.058  15.343  1.00 30.00 LIG-0.29  OA
ENDBRANCH 55 59
ENDBRANCH 52 55
ENDBRANCH 50 51
BRANCH 50 61
ATOM     61  CB  PHE B   8       5.755  -1.885   9.683  1.00 20.00 LIG 0.07  C 
BRANCH 61 62
ATOM     62  CG  PHE B   8       4.932  -2.371   8.524  1.00 20.00 LIG-0.06  A 
ATOM     63  CD1 PHE B   8       3.702  -2.950   8.717  1.00 20.00 LIG 0.01  A 
ATOM     64  CE1 PHE B   8       2.960  -3.397   7.637  1.00 20.00 LIG 0.00  A 
ATOM     65  CZ  PHE B   8       3.454  -3.269   6.355  1.00 20.00 LIG 0.00  A 
ATOM     66  CE2 PHE B   8       4.668  -2.706   6.156  1.00 20.00 LIG 0.00  A 
ATOM     67  CD2 PHE B   8       5.404  -2.256   7.233  1.00 20.00 LIG 0.01  A 
ENDBRANCH 61 62
ENDBRANCH 50 61
ENDBRANCH 48 50
ENDBRANCH 37 46
ENDBRANCH 34 37
ENDBRANCH 1 33
BRANCH 1 68
ATOM     68  CB  ARG B   6       1.531   1.196   8.409  1.00 20.00 LIG 0.04  C 
BRANCH 68 69
ATOM     69  CG  ARG B   6       1.477   1.543   6.920  1.00 20.00 LIG 0.02  C 
BRANCH 69 70
ATOM     70  CD  ARG B   6       1.166   0.276   6.114  1.00 20.00 LIG 0.14  C 
BRANCH 70 71
ATOM     71  NE  ARG B   6       1.112  -0.953   6.911  1.00 20.00 LIG-0.23  N 
ATOM     72  CZ  ARG B   6      -0.013  -1.614   7.175  1.00 20.00 LIG 0.67  C 
ATOM     73  NH1 ARG B   6      -1.163  -1.166   6.696  1.00 20.00 LIG-0.23  N 
ATOM     74  NH2 ARG B   6       0.004  -2.723   7.912  1.00 20.00 LIG-0.23  N 
ATOM     75 1HH1 ARG B   6      -1.180  -0.452   6.218  1.00 20.00 LIG 0.17  HD
ATOM     76 2HH1 ARG B   6      -1.893  -1.589   6.863  1.00 20.00 LIG 0.17  HD
ATOM     77 1HH2 ARG B   6       0.748  -3.020   8.224  1.00 20.00 LIG 0.17  HD
ATOM     78 2HH2 ARG B   6      -0.729  -3.141   8.076  1.00 20.00 LIG 0.17  HD
ATOM     79 HE   ARG B   6       1.850  -1.264   7.226  1.00 20.00 LIG 0.18  HD
ENDBRANCH 70 71
ENDBRANCH 69 70
ENDBRANCH 68 69
ENDBRANCH 1 68
TORSDOF 33
ENDMDL
MODEL 9
USER: ADFR SOLUTION from run 5
USER: SCORE 20.936506 LL:  -2.667 LR: -21.343 RR:   0.000 FEB: -11.499
USER: RMSD 8.423623
USER: SEED 519647
USER: STATUS no improvement in best in 4 clusters for 5 generations
USER: GENES 35
USER: genes 0 Translation |==|  0.60971 0.52061 0.54402
USER: genes 1 Rotation |==|  0.67540 0.96538 0.55112 0.50640
USER: genes 2 Torsion [C]-CA--N-[C] |==|  0.52000
USER: genes 3 Torsion [N]-C--CA-[N] |==|  0.23991
USER: genes 4 Torsion [C]-CA--N-[C] |==|  0.19340
USER: genes 5 Torsion [N]-C--CA-[N] |==|  0.89062
USER: genes 6 Torsion [C]-CA--CB-[CG] |==|  0.16890
USER: genes 7 Torsion [CA]-CB--CG-[CD] |==|  0.19025
USER: genes 8 Torsion [CB]-CG--CD-[NE] |==|  0.60973
USER: genes 9 Torsion [CG]-CD--NE-[HE] |==|  0.72719
USER: genes 10 Torsion [C]-CA--CB-[CG] |==|  0.30444
USER: genes 11 Torsion [CA]-CB--CG-[CD] |==|  0.55548
USER: genes 12 Torsion [CB]-CG--CD-[CE] |==|  0.50671
USER: genes 13 Torsion [CG]-CD--CE-[NZ] |==|  0.49833
USER: genes 14 Torsion [CD]-CE--NZ-[HZ2] |==|  0.33800
USER: genes 15 Torsion [N]-CA--C-[N] |==|  0.47009
USER: genes 16 Torsion [C]-N--CA-[CB] |==|  0.85701
USER: genes 17 Torsion [N]-CA--CB-[CG] |==|  0.72268
USER: genes 18 Torsion [CA]-CB--CG-[CD] |==|  0.89053
USER: genes 19 Torsion [CB]-CG--CD-[CE] |==|  0.67050
USER: genes 20 Torsion [CG]-CD--CE-[NZ] |==|  0.29855
USER: genes 21 Torsion [CD]-CE--NZ-[HZ1] |==|  0.56540
USER: genes 22 Torsion [N]-CA--C-[N] |==|  0.69210
USER: genes 23 Torsion [C]-N--CA-[C] |==|  0.79761
USER: genes 24 Torsion [N]-CA--C-[N] |==|  0.40902
USER: genes 25 Torsion [C]-N--CA-[CB] |==|  0.34478
USER: genes 26 Torsion [N]-CA--CB-[OG] |==|  0.09448
USER: genes 27 Torsion [CA]-CB--OG-[HG] |==|  0.93840
USER: genes 28 Torsion [N]-CA--C-[O] |==|  0.86844
USER: genes 29 Torsion [N]-CA--CB-[CG] |==|  0.50799
USER: genes 30 Torsion [CA]-CB--CG-[CD2] |==|  0.71462
USER: genes 31 Torsion [N]-CA--CB-[CG] |==|  0.25982
USER: genes 32 Torsion [CA]-CB--CG-[CD] |==|  0.65856
USER: genes 33 Torsion [CB]-CG--CD-[NE] |==|  0.66864
USER: genes 34 Torsion [CG]-CD--NE-[CZ] |==|  0.29559
ROOT
ATOM      1  CA  ARG B   6       3.427   7.640  11.261  1.00 51.45 LIG 0.18  C 
ENDROOT
BRANCH 1 2
ATOM      2  N   ARG B   6       4.739   7.197  11.718  1.00 51.69 LIG-0.35  N 
ATOM      3 H    ARG B   6       5.050   6.516  11.296  1.00 51.69 LIG 0.16  HD
ATOM      4  C   LYS B   5       5.376   7.812  12.703  1.00 56.23 LIG 0.24  C 
ATOM      5 O    LYS B   5       4.914   8.782  13.280  1.00 55.49 LIG-0.27  OA
BRANCH 4 6
ATOM      6  CA  LYS B   5       6.738   7.269  13.094  1.00 54.66 LIG 0.18  C 
BRANCH 6 7
ATOM      7  N   LYS B   5       7.710   7.901  12.226  1.00 56.15 LIG-0.35  N 
ATOM      8 H    LYS B   5       8.065   7.365  11.655  1.00 56.15 LIG 0.16  HD
ATOM      9  C   ARG B   4       8.021   9.185  12.306  1.00 62.85 LIG 0.26  C 
ATOM     10 O    ARG B   4       7.429   9.980  13.026  1.00 61.66 LIG-0.27  OA
BRANCH 9 11
ATOM     11  CA  ARG B   4       9.171   9.639  11.422  1.00 63.68 LIG 0.40  C 
ATOM     12  N   ARG B   4      10.194   8.612  11.426  1.00 64.21 LIG 0.61  N 
BRANCH 11 13
ATOM     13  CB  ARG B   4       8.679   9.923   9.994  1.00 20.00 LIG 0.05  C 
BRANCH 13 14
ATOM     14  CG  ARG B   4       7.623  11.024   9.889  1.00 20.00 LIG 0.02  C 
BRANCH 14 15
ATOM     15  CD  ARG B   4       8.197  12.421  10.217  1.00 20.00 LIG 0.14  C 
BRANCH 15 16
ATOM     16  NE  ARG B   4       7.282  13.262  10.999  1.00 20.00 LIG-0.23  N 
ATOM     17  CZ  ARG B   4       7.130  13.190  12.323  1.00 20.00 LIG 0.67  C 
ATOM     18  NH2 ARG B   4       6.274  13.988  12.943  1.00 20.00 LIG-0.23  N 
ATOM     19  NH1 ARG B   4       7.834  12.329  13.035  1.00 20.00 LIG-0.23  N 
ATOM     20 2HH2 ARG B   4       6.179  13.938  13.796  1.00 20.00 LIG 0.17  HD
ATOM     21 1HH2 ARG B   4       5.812  14.556  12.492  1.00 20.00 LIG 0.17  HD
ATOM     22 1HH1 ARG B   4       8.397  11.807  12.646  1.00 20.00 LIG 0.17  HD
ATOM     23 2HH1 ARG B   4       7.730  12.288  13.888  1.00 20.00 LIG 0.17  HD
ATOM     24 HE   ARG B   4       6.811  13.842  10.574  1.00 20.00 LIG 0.18  HD
ENDBRANCH 15 16
ENDBRANCH 14 15
ENDBRANCH 13 14
ENDBRANCH 11 13
ENDBRANCH 9 11
ENDBRANCH 6 7
BRANCH 6 25
ATOM     25  CB  LYS B   5       7.038   7.586  14.556  1.00 20.00 LIG 0.04  C 
BRANCH 25 26
ATOM     26  CG  LYS B   5       7.020   6.381  15.467  1.00 20.00 LIG 0.00  C 
BRANCH 26 27
ATOM     27  CD  LYS B   5       6.834   6.795  16.919  1.00 20.00 LIG 0.03  C 
BRANCH 27 28
ATOM     28  CE  LYS B   5       6.874   5.592  17.847  1.00 20.00 LIG 0.23  C 
BRANCH 28 29
ATOM     29  NZ  LYS B   5       6.711   5.963  19.268  1.00 20.00 LIG-0.08  N 
ATOM     30 HZ2  LYS B   5       6.003   5.541  19.605  1.00 20.00 LIG 0.27  HD
ATOM     31 HZ3  LYS B   5       7.440   5.728  19.722  1.00 20.00 LIG 0.27  HD
ATOM     32 HZ1  LYS B   5       6.592   6.842  19.333  1.00 20.00 LIG 0.27  HD
ENDBRANCH 28 29
ENDBRANCH 27 28
ENDBRANCH 26 27
ENDBRANCH 25 26
ENDBRANCH 6 25
ENDBRANCH 4 6
ENDBRANCH 1 2
BRANCH 1 33
ATOM     33  C   ARG B   6       2.854   6.660  10.251  1.00 52.50 LIG 0.24  C 
ATOM     34  N   LYS B   7       1.580   6.825   9.923  1.00 47.60 LIG-0.35  N 
ATOM     35 H    LYS B   7       1.056   7.396  10.296  1.00 47.60 LIG 0.16  HD
ATOM     36 O    ARG B   6       3.555   5.780   9.770  1.00 51.14 LIG-0.27  OA
BRANCH 34 37
ATOM     37  CA  LYS B   7       0.960   6.027   8.876  1.00 46.86 LIG 0.18  C 
BRANCH 37 38
ATOM     38  CB  LYS B   7       1.791   6.067   7.595  1.00 20.00 LIG 0.04  C 
BRANCH 38 39
ATOM     39  CG  LYS B   7       1.284   7.025   6.550  1.00 20.00 LIG 0.00  C 
BRANCH 39 40
ATOM     40  CD  LYS B   7      -0.241   7.020   6.468  1.00 20.00 LIG 0.03  C 
BRANCH 40 41
ATOM     41  CE  LYS B   7      -0.722   6.580   5.092  1.00 20.00 LIG 0.23  C 
BRANCH 41 42
ATOM     42  NZ  LYS B   7      -1.313   5.209   5.113  1.00 20.00 LIG-0.08  N 
ATOM     43 HZ2  LYS B   7      -0.859   4.699   5.685  1.00 20.00 LIG 0.27  HD
ATOM     44 HZ1  LYS B   7      -1.267   4.853   4.298  1.00 20.00 LIG 0.27  HD
ATOM     45 HZ3  LYS B   7      -2.164   5.256   5.368  1.00 20.00 LIG 0.27  HD
ENDBRANCH 41 42
ENDBRANCH 40 41
ENDBRANCH 39 40
ENDBRANCH 38 39
ENDBRANCH 37 38
BRANCH 37 46
ATOM     46  C   LYS B   7       0.823   4.586   9.343  1.00 48.01 LIG 0.24  C 
ATOM     47 O    LYS B   7       0.039   4.287  10.229  1.00 46.73 LIG-0.27  OA
ATOM     48  N   PHE B   8       1.595   3.697   8.735  1.00 43.62 LIG-0.35  N 
ATOM     49 H    PHE B   8       2.088   3.880   8.055  1.00 43.62 LIG 0.16  HD
BRANCH 48 50
ATOM     50  CA  PHE B   8       1.676   2.313   9.171  1.00 44.29 LIG 0.18  C 
BRANCH 50 51
ATOM     51  C   PHE B   8       2.472   2.292  10.475  1.00 70.57 LIG 0.24  C 
ATOM     52  N   SER B   9       2.125   1.362  11.356  1.00 30.00 LIG-0.34  N 
ATOM     53 H    SER B   9       1.534   0.755  11.208  1.00 30.00 LIG 0.16  HD
ATOM     54 O    PHE B   8       3.351   3.116  10.696  1.00 41.97 LIG-0.27  OA
BRANCH 52 55
ATOM     55  CA  SER B   9       2.739   1.300  12.678  1.00 30.00 LIG 0.19  C 
BRANCH 55 56
ATOM     56  CB  SER B   9       1.663   1.356  13.764  1.00 20.00 LIG 0.20  C 
BRANCH 56 57
ATOM     57 OG   SER B   9       0.479   0.701  13.344  1.00 20.00 LIG-0.40  OA
ATOM     58 HG   SER B   9       0.459   0.669  12.505  1.00 20.00 LIG 0.21  HD
ENDBRANCH 56 57
ENDBRANCH 55 56
BRANCH 55 59
ATOM     59  C   SER B   9       3.589   0.054  12.863  1.00 30.00 LIG 0.22  C 
ATOM     60 O    SER B   9       3.159  -1.049  12.544  1.00 30.00 LIG-0.29  OA
ENDBRANCH 55 59
ENDBRANCH 52 55
ENDBRANCH 50 51
BRANCH 50 61
ATOM     61  CB  PHE B   8       2.336   1.456   8.094  1.00 20.00 LIG 0.07  C 
BRANCH 61 62
ATOM     62  CG  PHE B   8       2.405  -0.009   8.423  1.00 20.00 LIG-0.06  A 
ATOM     63  CD1 PHE B   8       1.299  -0.814   8.319  1.00 20.00 LIG 0.01  A 
ATOM     64  CE1 PHE B   8       1.379  -2.161   8.632  1.00 20.00 LIG 0.00  A 
ATOM     65  CZ  PHE B   8       2.575  -2.705   9.056  1.00 20.00 LIG 0.00  A 
ATOM     66  CE2 PHE B   8       3.668  -1.916   9.168  1.00 20.00 LIG 0.00  A 
ATOM     67  CD2 PHE B   8       3.588  -0.576   8.851  1.00 20.00 LIG 0.01  A 
ENDBRANCH 61 62
ENDBRANCH 50 61
ENDBRANCH 48 50
ENDBRANCH 37 46
ENDBRANCH 34 37
ENDBRANCH 1 33
BRANCH 1 68
ATOM     68  CB  ARG B   6       3.496   9.037  10.617  1.00 20.00 LIG 0.04  C 
BRANCH 68 69
ATOM     69  CG  ARG B   6       3.674   9.086   9.098  1.00 20.00 LIG 0.02  C 
BRANCH 69 70
ATOM     70  CD  ARG B   6       4.933   9.893   8.759  1.00 20.00 LIG 0.14  C 
BRANCH 70 71
ATOM     71  NE  ARG B   6       4.687  11.087   7.946  1.00 20.00 LIG-0.23  N 
ATOM     72  CZ  ARG B   6       4.738  12.330   8.422  1.00 20.00 LIG 0.67  C 
ATOM     73  NH1 ARG B   6       5.035  12.529   9.697  1.00 20.00 LIG-0.23  N 
ATOM     74  NH2 ARG B   6       4.499  13.374   7.632  1.00 20.00 LIG-0.23  N 
ATOM     75 1HH1 ARG B   6       5.192  11.859  10.212  1.00 20.00 LIG 0.17  HD
ATOM     76 2HH1 ARG B   6       5.070  13.330  10.010  1.00 20.00 LIG 0.17  HD
ATOM     77 1HH2 ARG B   6       4.309  13.251   6.803  1.00 20.00 LIG 0.17  HD
ATOM     78 2HH2 ARG B   6       4.535  14.171   7.952  1.00 20.00 LIG 0.17  HD
ATOM     79 HE   ARG B   6       4.499  10.980   7.113  1.00 20.00 LIG 0.18  HD
ENDBRANCH 70 71
ENDBRANCH 69 70
ENDBRANCH 68 69
ENDBRANCH 1 68
TORSDOF 33
ENDMDL
MODEL 10
USER: ADFR SOLUTION from run 155
USER: SCORE 22.175206 LL:  -3.223 LR: -21.235 RR:   0.000 FEB: -11.391
USER: RMSD 8.528505
USER: SEED 154
USER: STATUS no improvement in best in 7 clusters for 5 generations
USER: GENES 35
USER: genes 0 Translation |==|  0.49951 0.48128 0.41829
USER: genes 1 Rotation |==|  0.45607 0.95741 0.32334 0.58740
USER: genes 2 Torsion [C]-CA--N-[C] |==|  0.86024
USER: genes 3 Torsion [N]-C--CA-[N] |==|  0.55366
USER: genes 4 Torsion [C]-CA--N-[C] |==|  0.79891
USER: genes 5 Torsion [N]-C--CA-[N] |==|  0.90235
USER: genes 6 Torsion [C]-CA--CB-[CG] |==|  0.10515
USER: genes 7 Torsion [CA]-CB--CG-[CD] |==|  0.74379
USER: genes 8 Torsion [CB]-CG--CD-[NE] |==|  0.60424
USER: genes 9 Torsion [CG]-CD--NE-[HE] |==|  0.72638
USER: genes 10 Torsion [C]-CA--CB-[CG] |==|  0.33969
USER: genes 11 Torsion [CA]-CB--CG-[CD] |==|  0.29235
USER: genes 12 Torsion [CB]-CG--CD-[CE] |==|  0.74304
USER: genes 13 Torsion [CG]-CD--CE-[NZ] |==|  0.62281
USER: genes 14 Torsion [CD]-CE--NZ-[HZ2] |==|  0.91685
USER: genes 15 Torsion [N]-CA--C-[N] |==|  0.78954
USER: genes 16 Torsion [C]-N--CA-[CB] |==|  0.13211
USER: genes 17 Torsion [N]-CA--CB-[CG] |==|  0.60032
USER: genes 18 Torsion [CA]-CB--CG-[CD] |==|  0.30196
USER: genes 19 Torsion [CB]-CG--CD-[CE] |==|  0.12024
USER: genes 20 Torsion [CG]-CD--CE-[NZ] |==|  0.11269
USER: genes 21 Torsion [CD]-CE--NZ-[HZ1] |==|  0.47783
USER: genes 22 Torsion [N]-CA--C-[N] |==|  0.61439
USER: genes 23 Torsion [C]-N--CA-[C] |==|  0.81288
USER: genes 24 Torsion [N]-CA--C-[N] |==|  0.93059
USER: genes 25 Torsion [C]-N--CA-[CB] |==|  0.33703
USER: genes 26 Torsion [N]-CA--CB-[OG] |==|  0.06539
USER: genes 27 Torsion [CA]-CB--OG-[HG] |==|  0.23861
USER: genes 28 Torsion [N]-CA--C-[O] |==|  0.02472
USER: genes 29 Torsion [N]-CA--CB-[CG] |==|  0.08637
USER: genes 30 Torsion [CA]-CB--CG-[CD2] |==|  0.18733
USER: genes 31 Torsion [N]-CA--CB-[CG] |==|  0.52522
USER: genes 32 Torsion [CA]-CB--CG-[CD] |==|  0.30731
USER: genes 33 Torsion [CB]-CG--CD-[NE] |==|  0.44953
USER: genes 34 Torsion [CG]-CD--NE-[CZ] |==|  0.40578
ROOT
ATOM      1  CA  ARG B   6       0.700   6.579   8.338  1.00 51.45 LIG 0.18  C 
ENDROOT
BRANCH 1 2
ATOM      2  N   ARG B   6       1.684   7.638   8.520  1.00 51.69 LIG-0.35  N 
ATOM      3 H    ARG B   6       1.795   8.142   7.832  1.00 51.69 LIG 0.16  HD
ATOM      4  C   LYS B   5       2.339   7.790   9.662  1.00 56.23 LIG 0.24  C 
ATOM      5 O    LYS B   5       2.156   7.066  10.625  1.00 55.49 LIG-0.27  OA
BRANCH 4 6
ATOM      6  CA  LYS B   5       3.337   8.931   9.743  1.00 54.66 LIG 0.18  C 
BRANCH 6 7
ATOM      7  N   LYS B   5       4.229   8.634  10.844  1.00 56.15 LIG-0.35  N 
ATOM      8 H    LYS B   5       5.018   8.398  10.596  1.00 56.15 LIG 0.16  HD
ATOM      9  C   ARG B   4       3.863   8.718  12.112  1.00 62.85 LIG 0.26  C 
ATOM     10 O    ARG B   4       2.786   9.177  12.475  1.00 61.66 LIG-0.27  OA
BRANCH 9 11
ATOM     11  CA  ARG B   4       4.880   8.220  13.126  1.00 63.68 LIG 0.40  C 
ATOM     12  N   ARG B   4       5.584   7.087  12.559  1.00 64.21 LIG 0.61  N 
BRANCH 11 13
ATOM     13  CB  ARG B   4       5.858   9.343  13.509  1.00 20.00 LIG 0.05  C 
BRANCH 13 14
ATOM     14  CG  ARG B   4       5.225  10.730  13.625  1.00 20.00 LIG 0.02  C 
BRANCH 14 15
ATOM     15  CD  ARG B   4       5.301  11.522  12.300  1.00 20.00 LIG 0.14  C 
BRANCH 15 16
ATOM     16  NE  ARG B   4       5.555  12.955  12.489  1.00 20.00 LIG-0.23  N 
ATOM     17  CZ  ARG B   4       6.759  13.492  12.698  1.00 20.00 LIG 0.67  C 
ATOM     18  NH2 ARG B   4       6.889  14.800  12.863  1.00 20.00 LIG-0.23  N 
ATOM     19  NH1 ARG B   4       7.837  12.730  12.737  1.00 20.00 LIG-0.23  N 
ATOM     20 2HH2 ARG B   4       7.667  15.141  12.998  1.00 20.00 LIG 0.17  HD
ATOM     21 1HH2 ARG B   4       6.196  15.308  12.835  1.00 20.00 LIG 0.17  HD
ATOM     22 1HH1 ARG B   4       7.767  11.880  12.627  1.00 20.00 LIG 0.17  HD
ATOM     23 2HH1 ARG B   4       8.609  13.084  12.873  1.00 20.00 LIG 0.17  HD
ATOM     24 HE   ARG B   4       4.879  13.487  12.462  1.00 20.00 LIG 0.18  HD
ENDBRANCH 15 16
ENDBRANCH 14 15
ENDBRANCH 13 14
ENDBRANCH 11 13
ENDBRANCH 9 11
ENDBRANCH 6 7
BRANCH 6 25
ATOM     25  CB  LYS B   5       4.116   9.048   8.436  1.00 20.00 LIG 0.04  C 
BRANCH 25 26
ATOM     26  CG  LYS B   5       4.004  10.399   7.767  1.00 20.00 LIG 0.00  C 
BRANCH 26 27
ATOM     27  CD  LYS B   5       5.283  11.204   7.942  1.00 20.00 LIG 0.03  C 
BRANCH 27 28
ATOM     28  CE  LYS B   5       5.213  12.094   9.172  1.00 20.00 LIG 0.23  C 
BRANCH 28 29
ATOM     29  NZ  LYS B   5       5.718  13.459   8.916  1.00 20.00 LIG-0.08  N 
ATOM     30 HZ2  LYS B   5       6.345  13.430   8.285  1.00 20.00 LIG 0.27  HD
ATOM     31 HZ3  LYS B   5       5.047  13.978   8.644  1.00 20.00 LIG 0.27  HD
ATOM     32 HZ1  LYS B   5       6.065  13.791   9.665  1.00 20.00 LIG 0.27  HD
ENDBRANCH 28 29
ENDBRANCH 27 28
ENDBRANCH 26 27
ENDBRANCH 25 26
ENDBRANCH 6 25
ENDBRANCH 4 6
ENDBRANCH 1 2
BRANCH 1 33
ATOM     33  C   ARG B   6       1.276   5.236   8.760  1.00 52.50 LIG 0.24  C 
ATOM     34  N   LYS B   7       2.135   4.672   7.922  1.00 47.60 LIG-0.35  N 
ATOM     35 H    LYS B   7       2.322   4.980   7.142  1.00 47.60 LIG 0.16  HD
ATOM     36 O    ARG B   6       0.958   4.729   9.827  1.00 51.14 LIG-0.27  OA
BRANCH 34 37
ATOM     37  CA  LYS B   7       2.843   3.451   8.276  1.00 46.86 LIG 0.18  C 
BRANCH 37 38
ATOM     38  CB  LYS B   7       1.883   2.409   8.849  1.00 20.00 LIG 0.04  C 
BRANCH 38 39
ATOM     39  CG  LYS B   7       2.461   1.568   9.955  1.00 20.00 LIG 0.00  C 
BRANCH 39 40
ATOM     40  CD  LYS B   7       1.855   1.919  11.311  1.00 20.00 LIG 0.03  C 
BRANCH 40 41
ATOM     41  CE  LYS B   7       0.346   2.101  11.216  1.00 20.00 LIG 0.23  C 
BRANCH 41 42
ATOM     42  NZ  LYS B   7      -0.290   1.084  10.327  1.00 20.00 LIG-0.08  N 
ATOM     43 HZ2  LYS B   7      -0.038   1.227   9.485  1.00 20.00 LIG 0.27  HD
ATOM     44 HZ1  LYS B   7      -1.176   1.149  10.387  1.00 20.00 LIG 0.27  HD
ATOM     45 HZ3  LYS B   7      -0.035   0.269  10.578  1.00 20.00 LIG 0.27  HD
ENDBRANCH 41 42
ENDBRANCH 40 41
ENDBRANCH 39 40
ENDBRANCH 38 39
ENDBRANCH 37 38
BRANCH 37 46
ATOM     46  C   LYS B   7       3.530   2.880   7.045  1.00 48.01 LIG 0.24  C 
ATOM     47 O    LYS B   7       4.096   3.612   6.250  1.00 46.73 LIG-0.27  OA
ATOM     48  N   PHE B   8       3.471   1.564   6.899  1.00 43.62 LIG-0.35  N 
ATOM     49 H    PHE B   8       3.149   1.032   7.492  1.00 43.62 LIG 0.16  HD
BRANCH 48 50
ATOM     50  CA  PHE B   8       3.956   0.895   5.703  1.00 44.29 LIG 0.18  C 
BRANCH 50 51
ATOM     51  C   PHE B   8       3.036   1.297   4.551  1.00 70.57 LIG 0.24  C 
ATOM     52  N   SER B   9       1.807   1.667   4.887  1.00 30.00 LIG-0.34  N 
ATOM     53 H    SER B   9       1.533   1.744   5.698  1.00 30.00 LIG 0.16  HD
ATOM     54 O    PHE B   8       3.414   1.240   3.387  1.00 41.97 LIG-0.27  OA
BRANCH 52 55
ATOM     55  CA  SER B   9       0.803   1.978   3.875  1.00 30.00 LIG 0.19  C 
BRANCH 55 56
ATOM     56  CB  SER B   9      -0.413   1.064   4.038  1.00 20.00 LIG 0.20  C 
BRANCH 56 57
ATOM     57 OG   SER B   9      -0.505   0.568   5.362  1.00 20.00 LIG-0.40  OA
ATOM     58 HG   SER B   9      -0.918   1.121   5.841  1.00 20.00 LIG 0.21  HD
ENDBRANCH 56 57
ENDBRANCH 55 56
BRANCH 55 59
ATOM     59  C   SER B   9       0.362   3.431   3.927  1.00 30.00 LIG 0.22  C 
ATOM     60 O    SER B   9       0.949   4.238   4.638  1.00 30.00 LIG-0.29  OA
ENDBRANCH 55 59
ENDBRANCH 52 55
ENDBRANCH 50 51
BRANCH 50 61
ATOM     61  CB  PHE B   8       3.970  -0.617   5.911  1.00 20.00 LIG 0.07  C 
BRANCH 61 62
ATOM     62  CG  PHE B   8       2.901  -1.125   6.838  1.00 20.00 LIG-0.06  A 
ATOM     63  CD1 PHE B   8       3.217  -1.674   8.055  1.00 20.00 LIG 0.01  A 
ATOM     64  CE1 PHE B   8       2.220  -2.143   8.894  1.00 20.00 LIG 0.00  A 
ATOM     65  CZ  PHE B   8       0.896  -2.064   8.510  1.00 20.00 LIG 0.00  A 
ATOM     66  CE2 PHE B   8       0.577  -1.530   7.308  1.00 20.00 LIG 0.00  A 
ATOM     67  CD2 PHE B   8       1.572  -1.059   6.476  1.00 20.00 LIG 0.01  A 
ENDBRANCH 61 62
ENDBRANCH 50 61
ENDBRANCH 48 50
ENDBRANCH 37 46
ENDBRANCH 34 37
ENDBRANCH 1 33
BRANCH 1 68
ATOM     68  CB  ARG B   6       0.236   6.484   6.873  1.00 20.00 LIG 0.04  C 
BRANCH 68 69
ATOM     69  CG  ARG B   6      -0.949   5.560   6.585  1.00 20.00 LIG 0.02  C 
BRANCH 69 70
ATOM     70  CD  ARG B   6      -2.169   6.405   6.198  1.00 20.00 LIG 0.14  C 
BRANCH 70 71
ATOM     71  NE  ARG B   6      -3.226   5.663   5.505  1.00 20.00 LIG-0.23  N 
ATOM     72  CZ  ARG B   6      -4.524   5.924   5.641  1.00 20.00 LIG 0.67  C 
ATOM     73  NH1 ARG B   6      -4.913   6.911   6.435  1.00 20.00 LIG-0.23  N 
ATOM     74  NH2 ARG B   6      -5.437   5.209   4.988  1.00 20.00 LIG-0.23  N 
ATOM     75 1HH1 ARG B   6      -4.328   7.377   6.858  1.00 20.00 LIG 0.17  HD
ATOM     76 2HH1 ARG B   6      -5.750   7.084   6.527  1.00 20.00 LIG 0.17  HD
ATOM     77 1HH2 ARG B   6      -5.191   4.569   4.469  1.00 20.00 LIG 0.17  HD
ATOM     78 2HH2 ARG B   6      -6.273   5.387   5.084  1.00 20.00 LIG 0.17  HD
ATOM     79 HE   ARG B   6      -2.994   5.022   4.979  1.00 20.00 LIG 0.18  HD
ENDBRANCH 70 71
ENDBRANCH 69 70
ENDBRANCH 68 69
ENDBRANCH 1 68
TORSDOF 33
ENDMDL
MODEL 11
USER: ADFR SOLUTION from run 15
USER: SCORE 22.585889 LL:  -3.354 LR: -21.235 RR:   0.000 FEB: -11.391
USER: RMSD 12.685182
USER: SEED 678328
USER: STATUS searching
USER: GENES 35
USER: genes 0 Translation |==|  0.61672 0.54799 0.53249
USER: genes 1 Rotation |==|  0.74412 0.61496 0.91084 0.59165
USER: genes 2 Torsion [C]-CA--N-[C] |==|  0.61852
USER: genes 3 Torsion [N]-C--CA-[N] |==|  0.33779
USER: genes 4 Torsion [C]-CA--N-[C] |==|  0.20066
USER: genes 5 Torsion [N]-C--CA-[N] |==|  0.74355
USER: genes 6 Torsion [C]-CA--CB-[CG] |==|  0.46111
USER: genes 7 Torsion [CA]-CB--CG-[CD] |==|  0.62813
USER: genes 8 Torsion [CB]-CG--CD-[NE] |==|  0.74673
USER: genes 9 Torsion [CG]-CD--NE-[HE] |==|  0.01858
USER: genes 10 Torsion [C]-CA--CB-[CG] |==|  0.17059
USER: genes 11 Torsion [CA]-CB--CG-[CD] |==|  0.65564
USER: genes 12 Torsion [CB]-CG--CD-[CE] |==|  0.18452
USER: genes 13 Torsion [CG]-CD--CE-[NZ] |==|  0.75039
USER: genes 14 Torsion [CD]-CE--NZ-[HZ2] |==|  0.20768
USER: genes 15 Torsion [N]-CA--C-[N] |==|  0.43984
USER: genes 16 Torsion [C]-N--CA-[CB] |==|  0.86023
USER: genes 17 Torsion [N]-CA--CB-[CG] |==|  0.74342
USER: genes 18 Torsion [CA]-CB--CG-[CD] |==|  0.72223
USER: genes 19 Torsion [CB]-CG--CD-[CE] |==|  0.98388
USER: genes 20 Torsion [CG]-CD--CE-[NZ] |==|  0.40069
USER: genes 21 Torsion [CD]-CE--NZ-[HZ1] |==|  0.59055
USER: genes 22 Torsion [N]-CA--C-[N] |==|  0.39404
USER: genes 23 Torsion [C]-N--CA-[C] |==|  0.72953
USER: genes 24 Torsion [N]-CA--C-[N] |==|  0.76474
USER: genes 25 Torsion [C]-N--CA-[CB] |==|  0.42270
USER: genes 26 Torsion [N]-CA--CB-[OG] |==|  0.67752
USER: genes 27 Torsion [CA]-CB--OG-[HG] |==|  0.64703
USER: genes 28 Torsion [N]-CA--C-[O] |==|  0.53981
USER: genes 29 Torsion [N]-CA--CB-[CG] |==|  0.80224
USER: genes 30 Torsion [CA]-CB--CG-[CD2] |==|  0.35940
USER: genes 31 Torsion [N]-CA--CB-[CG] |==|  0.35471
USER: genes 32 Torsion [CA]-CB--CG-[CD] |==|  0.70785
USER: genes 33 Torsion [CB]-CG--CD-[NE] |==|  0.27142
USER: genes 34 Torsion [CG]-CD--NE-[CZ] |==|  0.30540
ROOT
ATOM      1  CA  ARG B   6       3.601   8.380  10.993  1.00 51.45 LIG 0.18  C 
ENDROOT
BRANCH 1 2
ATOM      2  N   ARG B   6       3.770   7.127  10.268  1.00 51.69 LIG-0.35  N 
ATOM      3 H    ARG B   6       4.586   6.935  10.076  1.00 51.69 LIG 0.16  HD
ATOM      4  C   LYS B   5       2.735   6.366   9.943  1.00 56.23 LIG 0.24  C 
ATOM      5 O    LYS B   5       1.588   6.659  10.234  1.00 55.49 LIG-0.27  OA
BRANCH 4 6
ATOM      6  CA  LYS B   5       3.027   5.080   9.192  1.00 54.66 LIG 0.18  C 
BRANCH 6 7
ATOM      7  N   LYS B   5       2.501   3.994   9.993  1.00 56.15 LIG-0.35  N 
ATOM      8 H    LYS B   5       3.108   3.519  10.374  1.00 56.15 LIG 0.16  HD
ATOM      9  C   ARG B   4       1.206   3.757  10.124  1.00 62.85 LIG 0.26  C 
ATOM     10 O    ARG B   4       0.335   4.503   9.692  1.00 61.66 LIG-0.27  OA
BRANCH 9 11
ATOM     11  CA  ARG B   4       0.842   2.485  10.873  1.00 63.68 LIG 0.40  C 
ATOM     12  N   ARG B   4       0.686   1.410   9.913  1.00 64.21 LIG 0.61  N 
BRANCH 11 13
ATOM     13  CB  ARG B   4       1.919   2.143  11.915  1.00 20.00 LIG 0.05  C 
BRANCH 13 14
ATOM     14  CG  ARG B   4       1.502   1.092  12.943  1.00 20.00 LIG 0.02  C 
BRANCH 14 15
ATOM     15  CD  ARG B   4       1.870   1.503  14.387  1.00 20.00 LIG 0.14  C 
BRANCH 15 16
ATOM     16  NE  ARG B   4       3.194   1.032  14.810  1.00 20.00 LIG-0.23  N 
ATOM     17  CZ  ARG B   4       3.681   1.148  16.048  1.00 20.00 LIG 0.67  C 
ATOM     18  NH2 ARG B   4       4.893   0.697  16.336  1.00 20.00 LIG-0.23  N 
ATOM     19  NH1 ARG B   4       2.962   1.709  17.003  1.00 20.00 LIG-0.23  N 
ATOM     20 2HH2 ARG B   4       5.202   0.774  17.134  1.00 20.00 LIG 0.17  HD
ATOM     21 1HH2 ARG B   4       5.370   0.326  15.724  1.00 20.00 LIG 0.17  HD
ATOM     22 1HH1 ARG B   4       2.172   2.003  16.831  1.00 20.00 LIG 0.17  HD
ATOM     23 2HH1 ARG B   4       3.284   1.781  17.797  1.00 20.00 LIG 0.17  HD
ATOM     24 HE   ARG B   4       3.691   0.653  14.220  1.00 20.00 LIG 0.18  HD
ENDBRANCH 15 16
ENDBRANCH 14 15
ENDBRANCH 13 14
ENDBRANCH 11 13
ENDBRANCH 9 11
ENDBRANCH 6 7
BRANCH 6 25
ATOM     25  CB  LYS B   5       2.365   5.105   7.818  1.00 20.00 LIG 0.04  C 
BRANCH 25 26
ATOM     26  CG  LYS B   5       2.850   6.216   6.916  1.00 20.00 LIG 0.00  C 
BRANCH 26 27
ATOM     27  CD  LYS B   5       1.692   7.078   6.438  1.00 20.00 LIG 0.03  C 
BRANCH 27 28
ATOM     28  CE  LYS B   5       1.057   7.841   7.589  1.00 20.00 LIG 0.23  C 
BRANCH 28 29
ATOM     29  NZ  LYS B   5      -0.038   7.090   8.236  1.00 20.00 LIG-0.08  N 
ATOM     30 HZ2  LYS B   5       0.304   6.440   8.739  1.00 20.00 LIG 0.27  HD
ATOM     31 HZ3  LYS B   5      -0.514   7.642   8.748  1.00 20.00 LIG 0.27  HD
ATOM     32 HZ1  LYS B   5      -0.564   6.737   7.612  1.00 20.00 LIG 0.27  HD
ENDBRANCH 28 29
ENDBRANCH 27 28
ENDBRANCH 26 27
ENDBRANCH 25 26
ENDBRANCH 6 25
ENDBRANCH 4 6
ENDBRANCH 1 2
BRANCH 1 33
ATOM     33  C   ARG B   6       4.488   9.463  10.403  1.00 52.50 LIG 0.24  C 
ATOM     34  N   LYS B   7       4.134  10.717  10.647  1.00 47.60 LIG-0.35  N 
ATOM     35 H    LYS B   7       3.408  10.944  11.048  1.00 47.60 LIG 0.16  HD
ATOM     36 O    ARG B   6       5.481   9.169   9.751  1.00 51.14 LIG-0.27  OA
BRANCH 34 37
ATOM     37  CA  LYS B   7       4.974  11.833  10.239  1.00 46.86 LIG 0.18  C 
BRANCH 37 38
ATOM     38  CB  LYS B   7       6.416  11.627  10.701  1.00 20.00 LIG 0.04  C 
BRANCH 38 39
ATOM     39  CG  LYS B   7       6.736  12.235  12.040  1.00 20.00 LIG 0.00  C 
BRANCH 39 40
ATOM     40  CD  LYS B   7       7.460  13.572  11.899  1.00 20.00 LIG 0.03  C 
BRANCH 40 41
ATOM     41  CE  LYS B   7       7.794  13.872  10.443  1.00 20.00 LIG 0.23  C 
BRANCH 41 42
ATOM     42  NZ  LYS B   7       7.682  15.327  10.127  1.00 20.00 LIG-0.08  N 
ATOM     43 HZ2  LYS B   7       7.089  15.705  10.674  1.00 20.00 LIG 0.27  HD
ATOM     44 HZ1  LYS B   7       7.414  15.428   9.284  1.00 20.00 LIG 0.27  HD
ATOM     45 HZ3  LYS B   7       8.475  15.717  10.235  1.00 20.00 LIG 0.27  HD
ENDBRANCH 41 42
ENDBRANCH 40 41
ENDBRANCH 39 40
ENDBRANCH 38 39
ENDBRANCH 37 38
BRANCH 37 46
ATOM     46  C   LYS B   7       4.946  11.971   8.725  1.00 48.01 LIG 0.24  C 
ATOM     47 O    LYS B   7       4.931  10.983   8.007  1.00 46.73 LIG-0.27  OA
ATOM     48  N   PHE B   8       4.940  13.207   8.249  1.00 43.62 LIG-0.35  N 
ATOM     49 H    PHE B   8       4.867  13.908   8.742  1.00 43.62 LIG 0.16  HD
BRANCH 48 50
ATOM     50  CA  PHE B   8       5.058  13.492   6.828  1.00 44.29 LIG 0.18  C 
BRANCH 50 51
ATOM     51  C   PHE B   8       6.523  13.822   6.550  1.00 70.57 LIG 0.24  C 
ATOM     52  N   SER B   9       6.889  15.080   6.761  1.00 30.00 LIG-0.34  N 
ATOM     53 H    SER B   9       6.372  15.682   7.092  1.00 30.00 LIG 0.16  HD
ATOM     54 O    PHE B   8       7.295  12.973   6.120  1.00 41.97 LIG-0.27  OA
BRANCH 52 55
ATOM     55  CA  SER B   9       8.234  15.546   6.438  1.00 30.00 LIG 0.19  C 
BRANCH 55 56
ATOM     56  CB  SER B   9       8.212  17.041   6.113  1.00 20.00 LIG 0.20  C 
BRANCH 56 57
ATOM     57 OG   SER B   9       8.591  17.276   4.768  1.00 20.00 LIG-0.40  OA
ATOM     58 HG   SER B   9       9.214  17.839   4.746  1.00 20.00 LIG 0.21  HD
ENDBRANCH 56 57
ENDBRANCH 55 56
BRANCH 55 59
ATOM     59  C   SER B   9       9.223  15.280   7.561  1.00 30.00 LIG 0.22  C 
ATOM     60 O    SER B   9      10.318  15.830   7.572  1.00 30.00 LIG-0.29  OA
ENDBRANCH 55 59
ENDBRANCH 52 55
ENDBRANCH 50 51
BRANCH 50 61
ATOM     61  CB  PHE B   8       4.137  14.646   6.441  1.00 20.00 LIG 0.07  C 
BRANCH 61 62
ATOM     62  CG  PHE B   8       2.673  14.302   6.455  1.00 20.00 LIG-0.06  A 
ATOM     63  CD1 PHE B   8       2.196  13.200   5.792  1.00 20.00 LIG 0.01  A 
ATOM     64  CE1 PHE B   8       0.844  12.901   5.810  1.00 20.00 LIG 0.00  A 
ATOM     65  CZ  PHE B   8      -0.037  13.714   6.494  1.00 20.00 LIG 0.00  A 
ATOM     66  CE2 PHE B   8       0.425  14.807   7.145  1.00 20.00 LIG 0.00  A 
ATOM     67  CD2 PHE B   8       1.773  15.100   7.130  1.00 20.00 LIG 0.01  A 
ENDBRANCH 61 62
ENDBRANCH 50 61
ENDBRANCH 48 50
ENDBRANCH 37 46
ENDBRANCH 34 37
ENDBRANCH 1 33
BRANCH 1 68
ATOM     68  CB  ARG B   6       3.939   8.217  12.487  1.00 20.00 LIG 0.04  C 
BRANCH 68 69
ATOM     69  CG  ARG B   6       4.943   9.209  13.077  1.00 20.00 LIG 0.02  C 
BRANCH 69 70
ATOM     70  CD  ARG B   6       6.291   8.508  13.279  1.00 20.00 LIG 0.14  C 
BRANCH 70 71
ATOM     71  NE  ARG B   6       7.262   8.734  12.205  1.00 20.00 LIG-0.23  N 
ATOM     72  CZ  ARG B   6       8.363   9.470  12.347  1.00 20.00 LIG 0.67  C 
ATOM     73  NH1 ARG B   6       8.627  10.033  13.516  1.00 20.00 LIG-0.23  N 
ATOM     74  NH2 ARG B   6       9.203   9.644  11.330  1.00 20.00 LIG-0.23  N 
ATOM     75 1HH1 ARG B   6       8.089   9.923  14.177  1.00 20.00 LIG 0.17  HD
ATOM     76 2HH1 ARG B   6       9.337  10.509  13.613  1.00 20.00 LIG 0.17  HD
ATOM     77 1HH2 ARG B   6       9.038   9.279  10.569  1.00 20.00 LIG 0.17  HD
ATOM     78 2HH2 ARG B   6       9.911  10.121  11.433  1.00 20.00 LIG 0.17  HD
ATOM     79 HE   ARG B   6       7.112   8.372  11.440  1.00 20.00 LIG 0.18  HD
ENDBRANCH 70 71
ENDBRANCH 69 70
ENDBRANCH 68 69
ENDBRANCH 1 68
TORSDOF 33
ENDMDL
MODEL 12
USER: ADFR SOLUTION from run 74
USER: SCORE 20.544764 LL:  -2.382 LR: -21.151 RR:   0.000 FEB: -11.307
USER: RMSD 12.161347
USER: SEED 73
USER: STATUS no improvement in best in 20 clusters for 5 generations
USER: GENES 35
USER: genes 0 Translation |==|  0.69740 0.53984 0.65807
USER: genes 1 Rotation |==|  0.25870 0.11725 0.28816 0.52000
USER: genes 2 Torsion [C]-CA--N-[C] |==|  0.57405
USER: genes 3 Torsion [N]-C--CA-[N] |==|  0.71075
USER: genes 4 Torsion [C]-CA--N-[C] |==|  0.67856
USER: genes 5 Torsion [N]-C--CA-[N] |==|  0.16674
USER: genes 6 Torsion [C]-CA--CB-[CG] |==|  0.27373
USER: genes 7 Torsion [CA]-CB--CG-[CD] |==|  0.95263
USER: genes 8 Torsion [CB]-CG--CD-[NE] |==|  0.44502
USER: genes 9 Torsion [CG]-CD--NE-[HE] |==|  0.76741
USER: genes 10 Torsion [C]-CA--CB-[CG] |==|  0.26919
USER: genes 11 Torsion [CA]-CB--CG-[CD] |==|  0.68357
USER: genes 12 Torsion [CB]-CG--CD-[CE] |==|  0.49796
USER: genes 13 Torsion [CG]-CD--CE-[NZ] |==|  0.51263
USER: genes 14 Torsion [CD]-CE--NZ-[HZ2] |==|  0.82944
USER: genes 15 Torsion [N]-CA--C-[N] |==|  0.45297
USER: genes 16 Torsion [C]-N--CA-[CB] |==|  0.86471
USER: genes 17 Torsion [N]-CA--CB-[CG] |==|  0.51414
USER: genes 18 Torsion [CA]-CB--CG-[CD] |==|  0.46078
USER: genes 19 Torsion [CB]-CG--CD-[CE] |==|  0.89346
USER: genes 20 Torsion [CG]-CD--CE-[NZ] |==|  0.70894
USER: genes 21 Torsion [CD]-CE--NZ-[HZ1] |==|  0.99095
USER: genes 22 Torsion [N]-CA--C-[N] |==|  0.72827
USER: genes 23 Torsion [C]-N--CA-[C] |==|  0.16667
USER: genes 24 Torsion [N]-CA--C-[N] |==|  0.23826
USER: genes 25 Torsion [C]-N--CA-[CB] |==|  0.85520
USER: genes 26 Torsion [N]-CA--CB-[OG] |==|  0.76703
USER: genes 27 Torsion [CA]-CB--OG-[HG] |==|  0.52605
USER: genes 28 Torsion [N]-CA--C-[O] |==|  0.65587
USER: genes 29 Torsion [N]-CA--CB-[CG] |==|  0.46477
USER: genes 30 Torsion [CA]-CB--CG-[CD2] |==|  0.13769
USER: genes 31 Torsion [N]-CA--CB-[CG] |==|  0.12760
USER: genes 32 Torsion [CA]-CB--CG-[CD] |==|  0.25836
USER: genes 33 Torsion [CB]-CG--CD-[NE] |==|  0.29917
USER: genes 34 Torsion [CG]-CD--NE-[CZ] |==|  0.67990
ROOT
ATOM      1  CA  ARG B   6       5.598   8.160  13.913  1.00 51.45 LIG 0.18  C 
ENDROOT
BRANCH 1 2
ATOM      2  N   ARG B   6       6.604   7.106  13.956  1.00 51.69 LIG-0.35  N 
ATOM      3 H    ARG B   6       6.983   6.946  13.202  1.00 51.69 LIG 0.16  HD
ATOM      4  C   LYS B   5       6.889   6.463  15.079  1.00 56.23 LIG 0.24  C 
ATOM      5 O    LYS B   5       6.340   6.714  16.138  1.00 55.49 LIG-0.27  OA
BRANCH 4 6
ATOM      6  CA  LYS B   5       7.958   5.387  15.010  1.00 54.66 LIG 0.18  C 
BRANCH 6 7
ATOM      7  N   LYS B   5       7.275   4.111  15.036  1.00 56.15 LIG-0.35  N 
ATOM      8 H    LYS B   5       6.771   3.974  14.352  1.00 56.15 LIG 0.16  HD
ATOM      9  C   ARG B   4       7.413   3.239  16.021  1.00 62.85 LIG 0.26  C 
ATOM     10 O    ARG B   4       8.225   3.369  16.930  1.00 61.66 LIG-0.27  OA
BRANCH 9 11
ATOM     11  CA  ARG B   4       6.503   2.024  15.957  1.00 63.68 LIG 0.40  C 
ATOM     12  N   ARG B   4       6.769   1.308  14.726  1.00 64.21 LIG 0.61  N 
BRANCH 11 13
ATOM     13  CB  ARG B   4       6.720   1.119  17.181  1.00 20.00 LIG 0.05  C 
BRANCH 13 14
ATOM     14  CG  ARG B   4       5.697   1.303  18.302  1.00 20.00 LIG 0.02  C 
BRANCH 14 15
ATOM     15  CD  ARG B   4       4.914   2.629  18.171  1.00 20.00 LIG 0.14  C 
BRANCH 15 16
ATOM     16  NE  ARG B   4       3.650   2.639  18.917  1.00 20.00 LIG-0.23  N 
ATOM     17  CZ  ARG B   4       3.495   3.150  20.140  1.00 20.00 LIG 0.67  C 
ATOM     18  NH2 ARG B   4       2.314   3.109  20.738  1.00 20.00 LIG-0.23  N 
ATOM     19  NH1 ARG B   4       4.513   3.710  20.769  1.00 20.00 LIG-0.23  N 
ATOM     20 2HH2 ARG B   4       2.219   3.440  21.526  1.00 20.00 LIG 0.17  HD
ATOM     21 1HH2 ARG B   4       1.642   2.752  20.338  1.00 20.00 LIG 0.17  HD
ATOM     22 1HH1 ARG B   4       5.285   3.747  20.391  1.00 20.00 LIG 0.17  HD
ATOM     23 2HH1 ARG B   4       4.404   4.036  21.557  1.00 20.00 LIG 0.17  HD
ATOM     24 HE   ARG B   4       2.961   2.292  18.538  1.00 20.00 LIG 0.18  HD
ENDBRANCH 15 16
ENDBRANCH 14 15
ENDBRANCH 13 14
ENDBRANCH 11 13
ENDBRANCH 9 11
ENDBRANCH 6 7
BRANCH 6 25
ATOM     25  CB  LYS B   5       8.776   5.533  13.730  1.00 20.00 LIG 0.04  C 
BRANCH 25 26
ATOM     26  CG  LYS B   5      10.074   6.287  13.908  1.00 20.00 LIG 0.00  C 
BRANCH 26 27
ATOM     27  CD  LYS B   5      10.050   7.604  13.149  1.00 20.00 LIG 0.03  C 
BRANCH 27 28
ATOM     28  CE  LYS B   5      11.346   8.376  13.338  1.00 20.00 LIG 0.23  C 
BRANCH 28 29
ATOM     29  NZ  LYS B   5      11.313   9.709  12.701  1.00 20.00 LIG-0.08  N 
ATOM     30 HZ2  LYS B   5      11.196   9.616  11.823  1.00 20.00 LIG 0.27  HD
ATOM     31 HZ3  LYS B   5      10.642  10.184  13.041  1.00 20.00 LIG 0.27  HD
ATOM     32 HZ1  LYS B   5      12.082  10.129  12.855  1.00 20.00 LIG 0.27  HD
ENDBRANCH 28 29
ENDBRANCH 27 28
ENDBRANCH 26 27
ENDBRANCH 25 26
ENDBRANCH 6 25
ENDBRANCH 4 6
ENDBRANCH 1 2
BRANCH 1 33
ATOM     33  C   ARG B   6       4.999   8.270  12.520  1.00 52.50 LIG 0.24  C 
ATOM     34  N   LYS B   7       3.853   8.930  12.419  1.00 47.60 LIG-0.35  N 
ATOM     35 H    LYS B   7       3.406   9.227  13.091  1.00 47.60 LIG 0.16  HD
ATOM     36 O    ARG B   6       5.570   7.779  11.556  1.00 51.14 LIG-0.27  OA
BRANCH 34 37
ATOM     37  CA  LYS B   7       3.253   9.206  11.123  1.00 46.86 LIG 0.18  C 
BRANCH 37 38
ATOM     38  CB  LYS B   7       4.281   9.796  10.159  1.00 20.00 LIG 0.04  C 
BRANCH 38 39
ATOM     39  CG  LYS B   7       3.719  10.225   8.830  1.00 20.00 LIG 0.00  C 
BRANCH 39 40
ATOM     40  CD  LYS B   7       4.697  11.107   8.058  1.00 20.00 LIG 0.03  C 
BRANCH 40 41
ATOM     41  CE  LYS B   7       5.439  12.059   8.986  1.00 20.00 LIG 0.23  C 
BRANCH 41 42
ATOM     42  NZ  LYS B   7       4.930  13.459   8.883  1.00 20.00 LIG-0.08  N 
ATOM     43 HZ2  LYS B   7       4.582  13.707   9.664  1.00 20.00 LIG 0.27  HD
ATOM     44 HZ1  LYS B   7       4.302  13.501   8.252  1.00 20.00 LIG 0.27  HD
ATOM     45 HZ3  LYS B   7       5.600  14.004   8.670  1.00 20.00 LIG 0.27  HD
ENDBRANCH 41 42
ENDBRANCH 40 41
ENDBRANCH 39 40
ENDBRANCH 38 39
ENDBRANCH 37 38
BRANCH 37 46
ATOM     46  C   LYS B   7       2.690   7.921  10.533  1.00 48.01 LIG 0.24  C 
ATOM     47 O    LYS B   7       1.591   7.509  10.868  1.00 46.73 LIG-0.27  OA
ATOM     48  N   PHE B   8       3.457   7.296   9.652  1.00 43.62 LIG-0.35  N 
ATOM     49 H    PHE B   8       4.193   7.618   9.347  1.00 43.62 LIG 0.16  HD
BRANCH 48 50
ATOM     50  CA  PHE B   8       3.114   5.989   9.116  1.00 44.29 LIG 0.18  C 
BRANCH 50 51
ATOM     51  C   PHE B   8       1.766   6.126   8.409  1.00 70.57 LIG 0.24  C 
ATOM     52  N   SER B   9       1.808   6.532   7.146  1.00 30.00 LIG-0.34  N 
ATOM     53 H    SER B   9       2.535   6.661   6.705  1.00 30.00 LIG 0.16  HD
ATOM     54 O    PHE B   8       0.715   5.906   8.998  1.00 41.97 LIG-0.27  OA
BRANCH 52 55
ATOM     55  CA  SER B   9       0.587   6.799   6.392  1.00 30.00 LIG 0.19  C 
BRANCH 55 56
ATOM     56  CB  SER B   9      -0.359   5.600   6.475  1.00 20.00 LIG 0.20  C 
BRANCH 56 57
ATOM     57 OG   SER B   9      -0.027   4.620   5.506  1.00 20.00 LIG-0.40  OA
ATOM     58 HG   SER B   9      -0.629   4.035   5.481  1.00 20.00 LIG 0.21  HD
ENDBRANCH 56 57
ENDBRANCH 55 56
BRANCH 55 59
ATOM     59  C   SER B   9      -0.128   8.050   6.875  1.00 30.00 LIG 0.22  C 
ATOM     60 O    SER B   9      -1.298   8.000   7.238  1.00 30.00 LIG-0.29  OA
ENDBRANCH 55 59
ENDBRANCH 52 55
ENDBRANCH 50 51
BRANCH 50 61
ATOM     61  CB  PHE B   8       3.059   4.954  10.237  1.00 20.00 LIG 0.07  C 
BRANCH 61 62
ATOM     62  CG  PHE B   8       2.427   3.648   9.845  1.00 20.00 LIG-0.06  A 
ATOM     63  CD1 PHE B   8       1.452   3.070  10.619  1.00 20.00 LIG 0.01  A 
ATOM     64  CE1 PHE B   8       0.884   1.863  10.246  1.00 20.00 LIG 0.00  A 
ATOM     65  CZ  PHE B   8       1.298   1.229   9.091  1.00 20.00 LIG 0.00  A 
ATOM     66  CE2 PHE B   8       2.264   1.790   8.327  1.00 20.00 LIG 0.00  A 
ATOM     67  CD2 PHE B   8       2.825   2.994   8.698  1.00 20.00 LIG 0.01  A 
ENDBRANCH 61 62
ENDBRANCH 50 61
ENDBRANCH 48 50
ENDBRANCH 37 46
ENDBRANCH 34 37
ENDBRANCH 1 33
BRANCH 1 68
ATOM     68  CB  ARG B   6       6.192   9.524  14.310  1.00 20.00 LIG 0.04  C 
BRANCH 68 69
ATOM     69  CG  ARG B   6       7.531   9.902  13.674  1.00 20.00 LIG 0.02  C 
BRANCH 69 70
ATOM     70  CD  ARG B   6       7.276  10.718  12.401  1.00 20.00 LIG 0.14  C 
BRANCH 70 71
ATOM     71  NE  ARG B   6       7.596  12.143  12.518  1.00 20.00 LIG-0.23  N 
ATOM     72  CZ  ARG B   6       6.688  13.114  12.435  1.00 20.00 LIG 0.67  C 
ATOM     73  NH1 ARG B   6       5.415  12.804  12.245  1.00 20.00 LIG-0.23  N 
ATOM     74  NH2 ARG B   6       7.044  14.392  12.545  1.00 20.00 LIG-0.23  N 
ATOM     75 1HH1 ARG B   6       5.179  11.980  12.176  1.00 20.00 LIG 0.17  HD
ATOM     76 2HH1 ARG B   6       4.824  13.427  12.191  1.00 20.00 LIG 0.17  HD
ATOM     77 1HH2 ARG B   6       7.869  14.600  12.671  1.00 20.00 LIG 0.17  HD
ATOM     78 2HH2 ARG B   6       6.449  15.010  12.489  1.00 20.00 LIG 0.17  HD
ATOM     79 HE   ARG B   6       8.417  12.366  12.649  1.00 20.00 LIG 0.18  HD
ENDBRANCH 70 71
ENDBRANCH 69 70
ENDBRANCH 68 69
ENDBRANCH 1 68
TORSDOF 33
ENDMDL
MODEL 13
USER: ADFR SOLUTION from run 103
USER: SCORE 21.078525 LL:  -2.919 LR: -21.110 RR:   0.000 FEB: -11.266
USER: RMSD 12.364319
USER: SEED 102
USER: STATUS no improvement in best in 6 clusters for 5 generations
USER: GENES 35
USER: genes 0 Translation |==|  0.54219 0.49662 0.45495
USER: genes 1 Rotation |==|  0.81292 0.83501 0.69842 0.52184
USER: genes 2 Torsion [C]-CA--N-[C] |==|  0.75716
USER: genes 3 Torsion [N]-C--CA-[N] |==|  0.31613
USER: genes 4 Torsion [C]-CA--N-[C] |==|  0.20879
USER: genes 5 Torsion [N]-C--CA-[N] |==|  0.60162
USER: genes 6 Torsion [C]-CA--CB-[CG] |==|  0.52536
USER: genes 7 Torsion [CA]-CB--CG-[CD] |==|  0.68355
USER: genes 8 Torsion [CB]-CG--CD-[NE] |==|  0.36886
USER: genes 9 Torsion [CG]-CD--NE-[HE] |==|  0.81872
USER: genes 10 Torsion [C]-CA--CB-[CG] |==|  0.47256
USER: genes 11 Torsion [CA]-CB--CG-[CD] |==|  0.37933
USER: genes 12 Torsion [CB]-CG--CD-[CE] |==|  0.27338
USER: genes 13 Torsion [CG]-CD--CE-[NZ] |==|  0.59641
USER: genes 14 Torsion [CD]-CE--NZ-[HZ2] |==|  0.23457
USER: genes 15 Torsion [N]-CA--C-[N] |==|  0.31237
USER: genes 16 Torsion [C]-N--CA-[CB] |==|  0.39553
USER: genes 17 Torsion [N]-CA--CB-[CG] |==|  0.54926
USER: genes 18 Torsion [CA]-CB--CG-[CD] |==|  0.60506
USER: genes 19 Torsion [CB]-CG--CD-[CE] |==|  0.88166
USER: genes 20 Torsion [CG]-CD--CE-[NZ] |==|  0.72622
USER: genes 21 Torsion [CD]-CE--NZ-[HZ1] |==|  0.06945
USER: genes 22 Torsion [N]-CA--C-[N] |==|  0.25352
USER: genes 23 Torsion [C]-N--CA-[C] |==|  0.80253
USER: genes 24 Torsion [N]-CA--C-[N] |==|  0.93952
USER: genes 25 Torsion [C]-N--CA-[CB] |==|  0.85161
USER: genes 26 Torsion [N]-CA--CB-[OG] |==|  0.68850
USER: genes 27 Torsion [CA]-CB--OG-[HG] |==|  0.52731
USER: genes 28 Torsion [N]-CA--C-[O] |==|  0.03915
USER: genes 29 Torsion [N]-CA--CB-[CG] |==|  0.60194
USER: genes 30 Torsion [CA]-CB--CG-[CD2] |==|  0.99602
USER: genes 31 Torsion [N]-CA--CB-[CG] |==|  0.36361
USER: genes 32 Torsion [CA]-CB--CG-[CD] |==|  0.51898
USER: genes 33 Torsion [CB]-CG--CD-[NE] |==|  0.51125
USER: genes 34 Torsion [CG]-CD--NE-[CZ] |==|  0.40496
ROOT
ATOM      1  CA  ARG B   6       1.756   6.993   9.190  1.00 51.45 LIG 0.18  C 
ENDROOT
BRANCH 1 2
ATOM      2  N   ARG B   6       2.298   5.642   9.277  1.00 51.69 LIG-0.35  N 
ATOM      3 H    ARG B   6       3.137   5.584   9.097  1.00 51.69 LIG 0.16  HD
ATOM      4  C   LYS B   5       1.538   4.608   9.607  1.00 56.23 LIG 0.24  C 
ATOM      5 O    LYS B   5       0.352   4.720   9.863  1.00 55.49 LIG-0.27  OA
BRANCH 4 6
ATOM      6  CA  LYS B   5       2.208   3.248   9.671  1.00 54.66 LIG 0.18  C 
BRANCH 6 7
ATOM      7  N   LYS B   5       2.179   2.827  11.056  1.00 56.15 LIG-0.35  N 
ATOM      8 H    LYS B   5       2.938   2.892  11.454  1.00 56.15 LIG 0.16  HD
ATOM      9  C   ARG B   4       1.083   2.385  11.652  1.00 62.85 LIG 0.26  C 
ATOM     10 O    ARG B   4      -0.026   2.412  11.133  1.00 61.66 LIG-0.27  OA
BRANCH 9 11
ATOM     11  CA  ARG B   4       1.273   1.842  13.059  1.00 63.68 LIG 0.40  C 
ATOM     12  N   ARG B   4       0.388   0.709  13.242  1.00 64.21 LIG 0.61  N 
BRANCH 11 13
ATOM     13  CB  ARG B   4       2.738   1.441  13.293  1.00 20.00 LIG 0.05  C 
BRANCH 13 14
ATOM     14  CG  ARG B   4       2.994   0.682  14.595  1.00 20.00 LIG 0.02  C 
BRANCH 14 15
ATOM     15  CD  ARG B   4       3.867   1.489  15.583  1.00 20.00 LIG 0.14  C 
BRANCH 15 16
ATOM     16  NE  ARG B   4       3.337   1.508  16.952  1.00 20.00 LIG-0.23  N 
ATOM     17  CZ  ARG B   4       3.939   0.953  18.006  1.00 20.00 LIG 0.67  C 
ATOM     18  NH2 ARG B   4       3.381   1.016  19.206  1.00 20.00 LIG-0.23  N 
ATOM     19  NH1 ARG B   4       5.102   0.340  17.871  1.00 20.00 LIG-0.23  N 
ATOM     20 2HH2 ARG B   4       3.773   0.657  19.881  1.00 20.00 LIG 0.17  HD
ATOM     21 1HH2 ARG B   4       2.627   1.416  19.308  1.00 20.00 LIG 0.17  HD
ATOM     22 1HH1 ARG B   4       5.477   0.296  17.099  1.00 20.00 LIG 0.17  HD
ATOM     23 2HH1 ARG B   4       5.482  -0.015  18.556  1.00 20.00 LIG 0.17  HD
ATOM     24 HE   ARG B   4       2.586   1.904  17.084  1.00 20.00 LIG 0.18  HD
ENDBRANCH 15 16
ENDBRANCH 14 15
ENDBRANCH 13 14
ENDBRANCH 11 13
ENDBRANCH 9 11
ENDBRANCH 6 7
BRANCH 6 25
ATOM     25  CB  LYS B   5       1.466   2.248   8.790  1.00 20.00 LIG 0.04  C 
BRANCH 25 26
ATOM     26  CG  LYS B   5       2.187   0.933   8.602  1.00 20.00 LIG 0.00  C 
BRANCH 26 27
ATOM     27  CD  LYS B   5       1.228  -0.240   8.726  1.00 20.00 LIG 0.03  C 
BRANCH 27 28
ATOM     28  CE  LYS B   5       0.785  -0.740   7.361  1.00 20.00 LIG 0.23  C 
BRANCH 28 29
ATOM     29  NZ  LYS B   5      -0.613  -1.220   7.356  1.00 20.00 LIG-0.08  N 
ATOM     30 HZ2  LYS B   5      -1.163  -0.530   7.238  1.00 20.00 LIG 0.27  HD
ATOM     31 HZ3  LYS B   5      -0.724  -1.803   6.693  1.00 20.00 LIG 0.27  HD
ATOM     32 HZ1  LYS B   5      -0.793  -1.614   8.132  1.00 20.00 LIG 0.27  HD
ENDBRANCH 28 29
ENDBRANCH 27 28
ENDBRANCH 26 27
ENDBRANCH 25 26
ENDBRANCH 6 25
ENDBRANCH 4 6
ENDBRANCH 1 2
BRANCH 1 33
ATOM     33  C   ARG B   6       1.192   7.254   7.804  1.00 52.50 LIG 0.24  C 
ATOM     34  N   LYS B   7      -0.123   7.404   7.718  1.00 47.60 LIG-0.35  N 
ATOM     35 H    LYS B   7      -0.666   7.291   8.376  1.00 47.60 LIG 0.16  HD
ATOM     36 O    ARG B   6       1.933   7.332   6.833  1.00 51.14 LIG-0.27  OA
BRANCH 34 37
ATOM     37  CA  LYS B   7      -0.760   7.781   6.466  1.00 46.86 LIG 0.18  C 
BRANCH 37 38
ATOM     38  CB  LYS B   7      -2.092   7.053   6.290  1.00 20.00 LIG 0.04  C 
BRANCH 38 39
ATOM     39  CG  LYS B   7      -2.617   7.043   4.879  1.00 20.00 LIG 0.00  C 
BRANCH 39 40
ATOM     40  CD  LYS B   7      -4.135   7.198   4.837  1.00 20.00 LIG 0.03  C 
BRANCH 40 41
ATOM     41  CE  LYS B   7      -4.811   6.351   5.908  1.00 20.00 LIG 0.23  C 
BRANCH 41 42
ATOM     42  NZ  LYS B   7      -5.327   5.060   5.363  1.00 20.00 LIG-0.08  N 
ATOM     43 HZ2  LYS B   7      -5.241   4.422   5.978  1.00 20.00 LIG 0.27  HD
ATOM     44 HZ1  LYS B   7      -4.862   4.837   4.637  1.00 20.00 LIG 0.27  HD
ATOM     45 HZ3  LYS B   7      -6.186   5.151   5.148  1.00 20.00 LIG 0.27  HD
ENDBRANCH 41 42
ENDBRANCH 40 41
ENDBRANCH 39 40
ENDBRANCH 38 39
ENDBRANCH 37 38
BRANCH 37 46
ATOM     46  C   LYS B   7      -1.001   9.283   6.444  1.00 48.01 LIG 0.24  C 
ATOM     47 O    LYS B   7      -2.034   9.757   6.892  1.00 46.73 LIG-0.27  OA
ATOM     48  N   PHE B   8      -0.037  10.024   5.918  1.00 43.62 LIG-0.35  N 
ATOM     49 H    PHE B   8       0.726   9.711   5.677  1.00 43.62 LIG 0.16  HD
BRANCH 48 50
ATOM     50  CA  PHE B   8      -0.189  11.453   5.701  1.00 44.29 LIG 0.18  C 
BRANCH 50 51
ATOM     51  C   PHE B   8      -1.174  11.637   4.548  1.00 70.57 LIG 0.24  C 
ATOM     52  N   SER B   9      -1.318  10.601   3.732  1.00 30.00 LIG-0.34  N 
ATOM     53 H    SER B   9      -0.940   9.837   3.851  1.00 30.00 LIG 0.16  HD
ATOM     54 O    PHE B   8      -1.762  12.698   4.378  1.00 41.97 LIG-0.27  OA
BRANCH 52 55
ATOM     55  CA  SER B   9      -2.151  10.683   2.537  1.00 30.00 LIG 0.19  C 
BRANCH 55 56
ATOM     56  CB  SER B   9      -3.555  11.170   2.902  1.00 20.00 LIG 0.20  C 
BRANCH 56 57
ATOM     57 OG   SER B   9      -4.515  10.146   2.716  1.00 20.00 LIG-0.40  OA
ATOM     58 HG   SER B   9      -5.288  10.468   2.791  1.00 20.00 LIG 0.21  HD
ENDBRANCH 56 57
ENDBRANCH 55 56
BRANCH 55 59
ATOM     59  C   SER B   9      -1.553  11.593   1.477  1.00 30.00 LIG 0.22  C 
ATOM     60 O    SER B   9      -0.385  11.957   1.552  1.00 30.00 LIG-0.29  OA
ENDBRANCH 55 59
ENDBRANCH 52 55
ENDBRANCH 50 51
BRANCH 50 61
ATOM     61  CB  PHE B   8       1.165  12.088   5.392  1.00 20.00 LIG 0.07  C 
BRANCH 61 62
ATOM     62  CG  PHE B   8       1.351  13.462   5.972  1.00 20.00 LIG-0.06  A 
ATOM     63  CD1 PHE B   8       2.530  14.147   5.816  1.00 20.00 LIG 0.01  A 
ATOM     64  CE1 PHE B   8       2.687  15.409   6.362  1.00 20.00 LIG 0.00  A 
ATOM     65  CZ  PHE B   8       1.656  15.990   7.074  1.00 20.00 LIG 0.00  A 
ATOM     66  CE2 PHE B   8       0.493  15.319   7.238  1.00 20.00 LIG 0.00  A 
ATOM     67  CD2 PHE B   8       0.337  14.063   6.689  1.00 20.00 LIG 0.01  A 
ENDBRANCH 61 62
ENDBRANCH 50 61
ENDBRANCH 48 50
ENDBRANCH 37 46
ENDBRANCH 34 37
ENDBRANCH 1 33
BRANCH 1 68
ATOM     68  CB  ARG B   6       2.829   8.053   9.500  1.00 20.00 LIG 0.04  C 
BRANCH 68 69
ATOM     69  CG  ARG B   6       2.957   9.212   8.509  1.00 20.00 LIG 0.02  C 
BRANCH 69 70
ATOM     70  CD  ARG B   6       4.175  10.066   8.881  1.00 20.00 LIG 0.14  C 
BRANCH 70 71
ATOM     71  NE  ARG B   6       4.350  11.265   8.057  1.00 20.00 LIG-0.23  N 
ATOM     72  CZ  ARG B   6       4.838  12.415   8.520  1.00 20.00 LIG 0.67  C 
ATOM     73  NH1 ARG B   6       5.203  12.507   9.789  1.00 20.00 LIG-0.23  N 
ATOM     74  NH2 ARG B   6       4.966  13.472   7.721  1.00 20.00 LIG-0.23  N 
ATOM     75 1HH1 ARG B   6       5.125  11.827  10.309  1.00 20.00 LIG 0.17  HD
ATOM     76 2HH1 ARG B   6       5.519  13.247  10.093  1.00 20.00 LIG 0.17  HD
ATOM     77 1HH2 ARG B   6       4.733  13.418   6.895  1.00 20.00 LIG 0.17  HD
ATOM     78 2HH2 ARG B   6       5.282  14.209   8.031  1.00 20.00 LIG 0.17  HD
ATOM     79 HE   ARG B   6       4.125  11.225   7.228  1.00 20.00 LIG 0.18  HD
ENDBRANCH 70 71
ENDBRANCH 69 70
ENDBRANCH 68 69
ENDBRANCH 1 68
TORSDOF 33
ENDMDL
MODEL 14
USER: ADFR SOLUTION from run 197
USER: SCORE 21.549051 LL:  -2.312 LR: -21.035 RR:   0.000 FEB: -11.191
USER: RMSD 6.104843
USER: SEED 196
USER: STATUS 1 or 2 clusters left
USER: GENES 35
USER: genes 0 Translation |==|  0.55536 0.45389 0.43399
USER: genes 1 Rotation |==|  0.62766 0.84324 0.23544 0.71424
USER: genes 2 Torsion [C]-CA--N-[C] |==|  0.63133
USER: genes 3 Torsion [N]-C--CA-[N] |==|  0.42605
USER: genes 4 Torsion [C]-CA--N-[C] |==|  0.65884
USER: genes 5 Torsion [N]-C--CA-[N] |==|  0.14282
USER: genes 6 Torsion [C]-CA--CB-[CG] |==|  0.38679
USER: genes 7 Torsion [CA]-CB--CG-[CD] |==|  0.19437
USER: genes 8 Torsion [CB]-CG--CD-[NE] |==|  0.10036
USER: genes 9 Torsion [CG]-CD--NE-[HE] |==|  0.67572
USER: genes 10 Torsion [C]-CA--CB-[CG] |==|  0.60289
USER: genes 11 Torsion [CA]-CB--CG-[CD] |==|  0.80593
USER: genes 12 Torsion [CB]-CG--CD-[CE] |==|  0.40612
USER: genes 13 Torsion [CG]-CD--CE-[NZ] |==|  0.54362
USER: genes 14 Torsion [CD]-CE--NZ-[HZ2] |==|  0.00251
USER: genes 15 Torsion [N]-CA--C-[N] |==|  0.80571
USER: genes 16 Torsion [C]-N--CA-[CB] |==|  0.27477
USER: genes 17 Torsion [N]-CA--CB-[CG] |==|  0.19600
USER: genes 18 Torsion [CA]-CB--CG-[CD] |==|  0.46758
USER: genes 19 Torsion [CB]-CG--CD-[CE] |==|  0.63205
USER: genes 20 Torsion [CG]-CD--CE-[NZ] |==|  0.52904
USER: genes 21 Torsion [CD]-CE--NZ-[HZ1] |==|  0.21172
USER: genes 22 Torsion [N]-CA--C-[N] |==|  0.41430
USER: genes 23 Torsion [C]-N--CA-[C] |==|  0.80313
USER: genes 24 Torsion [N]-CA--C-[N] |==|  0.42464
USER: genes 25 Torsion [C]-N--CA-[CB] |==|  0.17818
USER: genes 26 Torsion [N]-CA--CB-[OG] |==|  0.42920
USER: genes 27 Torsion [CA]-CB--OG-[HG] |==|  0.27181
USER: genes 28 Torsion [N]-CA--C-[O] |==|  0.04986
USER: genes 29 Torsion [N]-CA--CB-[CG] |==|  0.56689
USER: genes 30 Torsion [CA]-CB--CG-[CD2] |==|  0.03364
USER: genes 31 Torsion [N]-CA--CB-[CG] |==|  0.47077
USER: genes 32 Torsion [CA]-CB--CG-[CD] |==|  0.26169
USER: genes 33 Torsion [CB]-CG--CD-[NE] |==|  0.67168
USER: genes 34 Torsion [CG]-CD--NE-[CZ] |==|  0.21674
ROOT
ATOM      1  CA  ARG B   6       2.082   5.839   8.703  1.00 51.45 LIG 0.18  C 
ENDROOT
BRANCH 1 2
ATOM      2  N   ARG B   6       3.083   6.540   9.497  1.00 51.69 LIG-0.35  N 
ATOM      3 H    ARG B   6       3.615   6.025   9.935  1.00 51.69 LIG 0.16  HD
ATOM      4  C   LYS B   5       3.147   7.863   9.525  1.00 56.23 LIG 0.24  C 
ATOM      5 O    LYS B   5       2.385   8.570   8.889  1.00 55.49 LIG-0.27  OA
BRANCH 4 6
ATOM      6  CA  LYS B   5       4.233   8.488  10.381  1.00 54.66 LIG 0.18  C 
BRANCH 6 7
ATOM      7  N   LYS B   5       4.535   9.781   9.805  1.00 56.15 LIG-0.35  N 
ATOM      8 H    LYS B   5       3.853  10.301   9.746  1.00 56.15 LIG 0.16  HD
ATOM      9  C   ARG B   4       5.748  10.128   9.406  1.00 62.85 LIG 0.26  C 
ATOM     10 O    ARG B   4       6.746   9.444   9.605  1.00 61.66 LIG-0.27  OA
BRANCH 9 11
ATOM     11  CA  ARG B   4       5.848  11.461   8.684  1.00 63.68 LIG 0.40  C 
ATOM     12  N   ARG B   4       5.201  12.476   9.492  1.00 64.21 LIG 0.61  N 
BRANCH 11 13
ATOM     13  CB  ARG B   4       7.317  11.823   8.414  1.00 20.00 LIG 0.05  C 
BRANCH 13 14
ATOM     14  CG  ARG B   4       7.582  12.438   7.040  1.00 20.00 LIG 0.02  C 
BRANCH 14 15
ATOM     15  CD  ARG B   4       6.999  13.864   6.912  1.00 20.00 LIG 0.14  C 
BRANCH 15 16
ATOM     16  NE  ARG B   4       7.088  14.647   8.150  1.00 20.00 LIG-0.23  N 
ATOM     17  CZ  ARG B   4       8.231  15.005   8.741  1.00 20.00 LIG 0.67  C 
ATOM     18  NH2 ARG B   4       8.212  15.709   9.863  1.00 20.00 LIG-0.23  N 
ATOM     19  NH1 ARG B   4       9.394  14.669   8.214  1.00 20.00 LIG-0.23  N 
ATOM     20 2HH2 ARG B   4       8.951  15.937  10.239  1.00 20.00 LIG 0.17  HD
ATOM     21 1HH2 ARG B   4       7.462  15.938  10.214  1.00 20.00 LIG 0.17  HD
ATOM     22 1HH1 ARG B   4       9.421  14.216   7.483  1.00 20.00 LIG 0.17  HD
ATOM     23 2HH1 ARG B   4      10.125  14.903   8.601  1.00 20.00 LIG 0.17  HD
ATOM     24 HE   ARG B   4       6.353  14.893   8.521  1.00 20.00 LIG 0.18  HD
ENDBRANCH 15 16
ENDBRANCH 14 15
ENDBRANCH 13 14
ENDBRANCH 11 13
ENDBRANCH 9 11
ENDBRANCH 6 7
BRANCH 6 25
ATOM     25  CB  LYS B   5       3.752   8.640  11.821  1.00 20.00 LIG 0.04  C 
BRANCH 25 26
ATOM     26  CG  LYS B   5       4.232   9.900  12.505  1.00 20.00 LIG 0.00  C 
BRANCH 26 27
ATOM     27  CD  LYS B   5       5.726   9.840  12.776  1.00 20.00 LIG 0.03  C 
BRANCH 27 28
ATOM     28  CE  LYS B   5       6.365  11.215  12.662  1.00 20.00 LIG 0.23  C 
BRANCH 28 29
ATOM     29  NZ  LYS B   5       7.837  11.152  12.551  1.00 20.00 LIG-0.08  N 
ATOM     30 HZ2  LYS B   5       8.099  10.301  12.558  1.00 20.00 LIG 0.27  HD
ATOM     31 HZ3  LYS B   5       8.094  11.535  11.790  1.00 20.00 LIG 0.27  HD
ATOM     32 HZ1  LYS B   5       8.205  11.581  13.238  1.00 20.00 LIG 0.27  HD
ENDBRANCH 28 29
ENDBRANCH 27 28
ENDBRANCH 26 27
ENDBRANCH 25 26
ENDBRANCH 6 25
ENDBRANCH 4 6
ENDBRANCH 1 2
BRANCH 1 33
ATOM     33  C   ARG B   6       1.413   4.751   9.527  1.00 52.50 LIG 0.24  C 
ATOM     34  N   LYS B   7       2.158   3.698   9.834  1.00 47.60 LIG-0.35  N 
ATOM     35 H    LYS B   7       2.955   3.568   9.538  1.00 47.60 LIG 0.16  HD
ATOM     36 O    ARG B   6       0.250   4.868   9.888  1.00 51.14 LIG-0.27  OA
BRANCH 34 37
ATOM     37  CA  LYS B   7       1.664   2.655  10.721  1.00 46.86 LIG 0.18  C 
BRANCH 37 38
ATOM     38  CB  LYS B   7       1.145   1.460   9.923  1.00 20.00 LIG 0.04  C 
BRANCH 38 39
ATOM     39  CG  LYS B   7       2.215   0.653   9.238  1.00 20.00 LIG 0.00  C 
BRANCH 39 40
ATOM     40  CD  LYS B   7       1.674  -0.671   8.704  1.00 20.00 LIG 0.03  C 
BRANCH 40 41
ATOM     41  CE  LYS B   7       2.578  -1.836   9.084  1.00 20.00 LIG 0.23  C 
BRANCH 41 42
ATOM     42  NZ  LYS B   7       2.208  -3.093   8.369  1.00 20.00 LIG-0.08  N 
ATOM     43 HZ2  LYS B   7       2.587  -3.789   8.776  1.00 20.00 LIG 0.27  HD
ATOM     44 HZ1  LYS B   7       2.494  -3.051   7.527  1.00 20.00 LIG 0.27  HD
ATOM     45 HZ3  LYS B   7       1.323  -3.191   8.378  1.00 20.00 LIG 0.27  HD
ENDBRANCH 41 42
ENDBRANCH 40 41
ENDBRANCH 39 40
ENDBRANCH 38 39
ENDBRANCH 37 38
BRANCH 37 46
ATOM     46  C   LYS B   7       2.781   2.196  11.645  1.00 48.01 LIG 0.24  C 
ATOM     47 O    LYS B   7       3.946   2.221  11.279  1.00 46.73 LIG-0.27  OA
ATOM     48  N   PHE B   8       2.412   1.776  12.847  1.00 43.62 LIG-0.35  N 
ATOM     49 H    PHE B   8       1.608   1.832  13.145  1.00 43.62 LIG 0.16  HD
BRANCH 48 50
ATOM     50  CA  PHE B   8       3.351   1.176  13.780  1.00 44.29 LIG 0.18  C 
BRANCH 50 51
ATOM     51  C   PHE B   8       3.719  -0.202  13.234  1.00 70.57 LIG 0.24  C 
ATOM     52  N   SER B   9       4.911  -0.670  13.582  1.00 30.00 LIG-0.34  N 
ATOM     53 H    SER B   9       5.443  -0.272  14.129  1.00 30.00 LIG 0.16  HD
ATOM     54 O    PHE B   8       2.962  -0.812  12.488  1.00 41.97 LIG-0.27  OA
BRANCH 52 55
ATOM     55  CA  SER B   9       5.421  -1.927  13.046  1.00 30.00 LIG 0.19  C 
BRANCH 55 56
ATOM     56  CB  SER B   9       5.619  -1.817  11.533  1.00 20.00 LIG 0.20  C 
BRANCH 56 57
ATOM     57 OG   SER B   9       6.606  -2.727  11.080  1.00 20.00 LIG-0.40  OA
ATOM     58 HG   SER B   9       6.234  -3.416  10.777  1.00 20.00 LIG 0.21  HD
ENDBRANCH 56 57
ENDBRANCH 55 56
BRANCH 55 59
ATOM     59  C   SER B   9       6.725  -2.348  13.704  1.00 30.00 LIG 0.22  C 
ATOM     60 O    SER B   9       7.069  -1.864  14.777  1.00 30.00 LIG-0.29  OA
ENDBRANCH 55 59
ENDBRANCH 52 55
ENDBRANCH 50 51
BRANCH 50 61
ATOM     61  CB  PHE B   8       2.728   1.084  15.171  1.00 20.00 LIG 0.07  C 
BRANCH 61 62
ATOM     62  CG  PHE B   8       3.726   1.031  16.295  1.00 20.00 LIG-0.06  A 
ATOM     63  CD1 PHE B   8       3.341   0.714  17.573  1.00 20.00 LIG 0.01  A 
ATOM     64  CE1 PHE B   8       4.272   0.675  18.597  1.00 20.00 LIG 0.00  A 
ATOM     65  CZ  PHE B   8       5.598   0.960  18.340  1.00 20.00 LIG 0.00  A 
ATOM     66  CE2 PHE B   8       5.985   1.280  17.083  1.00 20.00 LIG 0.00  A 
ATOM     67  CD2 PHE B   8       5.056   1.313  16.064  1.00 20.00 LIG 0.01  A 
ENDBRANCH 61 62
ENDBRANCH 50 61
ENDBRANCH 48 50
ENDBRANCH 37 46
ENDBRANCH 34 37
ENDBRANCH 1 33
BRANCH 1 68
ATOM     68  CB  ARG B   6       2.703   5.202   7.446  1.00 20.00 LIG 0.04  C 
BRANCH 68 69
ATOM     69  CG  ARG B   6       1.819   4.233   6.658  1.00 20.00 LIG 0.02  C 
BRANCH 69 70
ATOM     70  CD  ARG B   6       1.113   4.993   5.529  1.00 20.00 LIG 0.14  C 
BRANCH 70 71
ATOM     71  NE  ARG B   6      -0.349   4.995   5.621  1.00 20.00 LIG-0.23  N 
ATOM     72  CZ  ARG B   6      -1.037   5.781   6.447  1.00 20.00 LIG 0.67  C 
ATOM     73  NH1 ARG B   6      -0.390   6.625   7.236  1.00 20.00 LIG-0.23  N 
ATOM     74  NH2 ARG B   6      -2.366   5.732   6.488  1.00 20.00 LIG-0.23  N 
ATOM     75 1HH1 ARG B   6       0.469   6.663   7.213  1.00 20.00 LIG 0.17  HD
ATOM     76 2HH1 ARG B   6      -0.829   7.135   7.772  1.00 20.00 LIG 0.17  HD
ATOM     77 1HH2 ARG B   6      -2.792   5.188   5.977  1.00 20.00 LIG 0.17  HD
ATOM     78 2HH2 ARG B   6      -2.799   6.244   7.026  1.00 20.00 LIG 0.17  HD
ATOM     79 HE   ARG B   6      -0.789   4.459   5.112  1.00 20.00 LIG 0.18  HD
ENDBRANCH 70 71
ENDBRANCH 69 70
ENDBRANCH 68 69
ENDBRANCH 1 68
TORSDOF 33
ENDMDL
MODEL 15
USER: ADFR SOLUTION from run 116
USER: SCORE 22.688625 LL:  -3.782 LR: -21.016 RR:   0.000 FEB: -11.172
USER: RMSD 6.974387
USER: SEED 115
USER: STATUS no improvement in best in 10 clusters for 5 generations
USER: GENES 35
USER: genes 0 Translation |==|  0.49497 0.47176 0.41743
USER: genes 1 Rotation |==|  0.49097 0.91813 0.25589 0.62448
USER: genes 2 Torsion [C]-CA--N-[C] |==|  0.83422
USER: genes 3 Torsion [N]-C--CA-[N] |==|  0.57778
USER: genes 4 Torsion [C]-CA--N-[C] |==|  0.18832
USER: genes 5 Torsion [N]-C--CA-[N] |==|  0.63543
USER: genes 6 Torsion [C]-CA--CB-[CG] |==|  0.75042
USER: genes 7 Torsion [CA]-CB--CG-[CD] |==|  0.29543
USER: genes 8 Torsion [CB]-CG--CD-[NE] |==|  0.31724
USER: genes 9 Torsion [CG]-CD--NE-[HE] |==|  0.65937
USER: genes 10 Torsion [C]-CA--CB-[CG] |==|  0.38845
USER: genes 11 Torsion [CA]-CB--CG-[CD] |==|  0.07810
USER: genes 12 Torsion [CB]-CG--CD-[CE] |==|  0.48291
USER: genes 13 Torsion [CG]-CD--CE-[NZ] |==|  0.49727
USER: genes 14 Torsion [CD]-CE--NZ-[HZ2] |==|  0.58460
USER: genes 15 Torsion [N]-CA--C-[N] |==|  0.87266
USER: genes 16 Torsion [C]-N--CA-[CB] |==|  0.18361
USER: genes 17 Torsion [N]-CA--CB-[CG] |==|  0.65744
USER: genes 18 Torsion [CA]-CB--CG-[CD] |==|  0.98109
USER: genes 19 Torsion [CB]-CG--CD-[CE] |==|  0.62319
USER: genes 20 Torsion [CG]-CD--CE-[NZ] |==|  0.09654
USER: genes 21 Torsion [CD]-CE--NZ-[HZ1] |==|  0.95613
USER: genes 22 Torsion [N]-CA--C-[N] |==|  0.49145
USER: genes 23 Torsion [C]-N--CA-[C] |==|  0.65965
USER: genes 24 Torsion [N]-CA--C-[N] |==|  0.96382
USER: genes 25 Torsion [C]-N--CA-[CB] |==|  0.46486
USER: genes 26 Torsion [N]-CA--CB-[OG] |==|  0.80466
USER: genes 27 Torsion [CA]-CB--OG-[HG] |==|  0.71109
USER: genes 28 Torsion [N]-CA--C-[O] |==|  0.96433
USER: genes 29 Torsion [N]-CA--CB-[CG] |==|  0.20411
USER: genes 30 Torsion [CA]-CB--CG-[CD2] |==|  0.81131
USER: genes 31 Torsion [N]-CA--CB-[CG] |==|  0.79112
USER: genes 32 Torsion [CA]-CB--CG-[CD] |==|  0.81640
USER: genes 33 Torsion [CB]-CG--CD-[NE] |==|  0.76704
USER: genes 34 Torsion [CG]-CD--NE-[CZ] |==|  0.52077
ROOT
ATOM      1  CA  ARG B   6       0.588   6.322   8.318  1.00 51.45 LIG 0.18  C 
ENDROOT
BRANCH 1 2
ATOM      2  N   ARG B   6       1.645   7.313   8.469  1.00 51.69 LIG-0.35  N 
ATOM      3 H    ARG B   6       2.058   7.506   7.740  1.00 51.69 LIG 0.16  HD
ATOM      4  C   LYS B   5       1.926   7.857   9.644  1.00 56.23 LIG 0.24  C 
ATOM      5 O    LYS B   5       1.319   7.570  10.662  1.00 55.49 LIG-0.27  OA
BRANCH 4 6
ATOM      6  CA  LYS B   5       3.043   8.883   9.685  1.00 54.66 LIG 0.18  C 
BRANCH 6 7
ATOM      7  N   LYS B   5       3.614   8.834  11.015  1.00 56.15 LIG-0.35  N 
ATOM      8 H    LYS B   5       3.470   9.543  11.479  1.00 56.15 LIG 0.16  HD
ATOM      9  C   ARG B   4       4.293   7.795  11.471  1.00 62.85 LIG 0.26  C 
ATOM     10 O    ARG B   4       4.391   6.733  10.866  1.00 61.66 LIG-0.27  OA
BRANCH 9 11
ATOM     11  CA  ARG B   4       4.950   7.982  12.828  1.00 63.68 LIG 0.40  C 
ATOM     12  N   ARG B   4       6.331   7.551  12.739  1.00 64.21 LIG 0.61  N 
BRANCH 11 13
ATOM     13  CB  ARG B   4       4.857   9.448  13.279  1.00 20.00 LIG 0.05  C 
BRANCH 13 14
ATOM     14  CG  ARG B   4       6.027  10.328  12.840  1.00 20.00 LIG 0.02  C 
BRANCH 14 15
ATOM     15  CD  ARG B   4       5.640  11.295  11.698  1.00 20.00 LIG 0.14  C 
BRANCH 15 16
ATOM     16  NE  ARG B   4       5.681  12.709  12.088  1.00 20.00 LIG-0.23  N 
ATOM     17  CZ  ARG B   4       6.757  13.331  12.574  1.00 20.00 LIG 0.67  C 
ATOM     18  NH2 ARG B   4       6.698  14.613  12.905  1.00 20.00 LIG-0.23  N 
ATOM     19  NH1 ARG B   4       7.898  12.683  12.726  1.00 20.00 LIG-0.23  N 
ATOM     20 2HH2 ARG B   4       7.394  15.009  13.218  1.00 20.00 LIG 0.17  HD
ATOM     21 1HH2 ARG B   4       5.963  15.048  12.807  1.00 20.00 LIG 0.17  HD
ATOM     22 1HH1 ARG B   4       7.952  11.851  12.511  1.00 20.00 LIG 0.17  HD
ATOM     23 2HH1 ARG B   4       8.586  13.091  13.040  1.00 20.00 LIG 0.17  HD
ATOM     24 HE   ARG B   4       4.961  13.169  11.997  1.00 20.00 LIG 0.18  HD
ENDBRANCH 15 16
ENDBRANCH 14 15
ENDBRANCH 13 14
ENDBRANCH 11 13
ENDBRANCH 9 11
ENDBRANCH 6 7
BRANCH 6 25
ATOM     25  CB  LYS B   5       4.101   8.558   8.634  1.00 20.00 LIG 0.04  C 
BRANCH 25 26
ATOM     26  CG  LYS B   5       4.651   9.767   7.914  1.00 20.00 LIG 0.00  C 
BRANCH 26 27
ATOM     27  CD  LYS B   5       4.582  11.006   8.792  1.00 20.00 LIG 0.03  C 
BRANCH 27 28
ATOM     28  CE  LYS B   5       5.268  12.191   8.134  1.00 20.00 LIG 0.23  C 
BRANCH 28 29
ATOM     29  NZ  LYS B   5       5.198  13.419   8.953  1.00 20.00 LIG-0.08  N 
ATOM     30 HZ2  LYS B   5       5.187  14.132   8.420  1.00 20.00 LIG 0.27  HD
ATOM     31 HZ3  LYS B   5       4.456  13.405   9.445  1.00 20.00 LIG 0.27  HD
ATOM     32 HZ1  LYS B   5       5.908  13.459   9.488  1.00 20.00 LIG 0.27  HD
ENDBRANCH 28 29
ENDBRANCH 27 28
ENDBRANCH 26 27
ENDBRANCH 25 26
ENDBRANCH 6 25
ENDBRANCH 4 6
ENDBRANCH 1 2
BRANCH 1 33
ATOM     33  C   ARG B   6       0.867   5.106   9.187  1.00 52.50 LIG 0.24  C 
ATOM     34  N   LYS B   7       2.102   4.625   9.153  1.00 47.60 LIG-0.35  N 
ATOM     35 H    LYS B   7       2.717   4.912   8.625  1.00 47.60 LIG 0.16  HD
ATOM     36 O    ARG B   6      -0.015   4.622   9.884  1.00 51.14 LIG-0.27  OA
BRANCH 34 37
ATOM     37  CA  LYS B   7       2.517   3.545  10.035  1.00 46.86 LIG 0.18  C 
BRANCH 37 38
ATOM     38  CB  LYS B   7       1.778   2.251   9.699  1.00 20.00 LIG 0.04  C 
BRANCH 38 39
ATOM     39  CG  LYS B   7       1.014   1.650  10.848  1.00 20.00 LIG 0.00  C 
BRANCH 39 40
ATOM     40  CD  LYS B   7       1.285   2.388  12.157  1.00 20.00 LIG 0.03  C 
BRANCH 40 41
ATOM     41  CE  LYS B   7       1.517   1.416  13.306  1.00 20.00 LIG 0.23  C 
BRANCH 41 42
ATOM     42  NZ  LYS B   7       2.227   0.179  12.864  1.00 20.00 LIG-0.08  N 
ATOM     43 HZ2  LYS B   7       3.078   0.216  13.124  1.00 20.00 LIG 0.27  HD
ATOM     44 HZ1  LYS B   7       2.191   0.118  11.976  1.00 20.00 LIG 0.27  HD
ATOM     45 HZ3  LYS B   7       1.837  -0.534  13.226  1.00 20.00 LIG 0.27  HD
ENDBRANCH 41 42
ENDBRANCH 40 41
ENDBRANCH 39 40
ENDBRANCH 38 39
ENDBRANCH 37 38
BRANCH 37 46
ATOM     46  C   LYS B   7       4.015   3.318   9.901  1.00 48.01 LIG 0.24  C 
ATOM     47 O    LYS B   7       4.674   3.958   9.096  1.00 46.73 LIG-0.27  OA
ATOM     48  N   PHE B   8       4.543   2.401  10.698  1.00 43.62 LIG-0.35  N 
ATOM     49 H    PHE B   8       4.106   2.005  11.324  1.00 43.62 LIG 0.16  HD
BRANCH 48 50
ATOM     50  CA  PHE B   8       5.929   1.977  10.581  1.00 44.29 LIG 0.18  C 
BRANCH 50 51
ATOM     51  C   PHE B   8       5.926   0.467  10.351  1.00 70.57 LIG 0.24  C 
ATOM     52  N   SER B   9       4.775  -0.155  10.571  1.00 30.00 LIG-0.34  N 
ATOM     53 H    SER B   9       4.041   0.246  10.772  1.00 30.00 LIG 0.16  HD
ATOM     54 O    PHE B   8       6.945  -0.126  10.019  1.00 41.97 LIG-0.27  OA
BRANCH 52 55
ATOM     55  CA  SER B   9       4.667  -1.608  10.484  1.00 30.00 LIG 0.19  C 
BRANCH 55 56
ATOM     56  CB  SER B   9       3.338  -2.076  11.080  1.00 20.00 LIG 0.20  C 
BRANCH 56 57
ATOM     57 OG   SER B   9       3.327  -1.917  12.488  1.00 20.00 LIG-0.40  OA
ATOM     58 HG   SER B   9       3.433  -2.665  12.856  1.00 20.00 LIG 0.21  HD
ENDBRANCH 56 57
ENDBRANCH 55 56
BRANCH 55 59
ATOM     59  C   SER B   9       4.793  -2.112   9.055  1.00 30.00 LIG 0.22  C 
ATOM     60 O    SER B   9       4.730  -1.334   8.111  1.00 30.00 LIG-0.29  OA
ENDBRANCH 55 59
ENDBRANCH 52 55
ENDBRANCH 50 51
BRANCH 50 61
ATOM     61  CB  PHE B   8       6.705   2.354  11.841  1.00 20.00 LIG 0.07  C 
BRANCH 61 62
ATOM     62  CG  PHE B   8       6.389   1.506  13.040  1.00 20.00 LIG-0.06  A 
ATOM     63  CD1 PHE B   8       7.314   0.637  13.561  1.00 20.00 LIG 0.01  A 
ATOM     64  CE1 PHE B   8       7.004  -0.142  14.664  1.00 20.00 LIG 0.00  A 
ATOM     65  CZ  PHE B   8       5.756  -0.052  15.247  1.00 20.00 LIG 0.00  A 
ATOM     66  CE2 PHE B   8       4.836   0.798  14.736  1.00 20.00 LIG 0.00  A 
ATOM     67  CD2 PHE B   8       5.148   1.576  13.641  1.00 20.00 LIG 0.01  A 
ENDBRANCH 61 62
ENDBRANCH 50 61
ENDBRANCH 48 50
ENDBRANCH 37 46
ENDBRANCH 34 37
ENDBRANCH 1 33
BRANCH 1 68
ATOM     68  CB  ARG B   6       0.445   5.866   6.854  1.00 20.00 LIG 0.04  C 
BRANCH 68 69
ATOM     69  CG  ARG B   6      -0.234   6.843   5.893  1.00 20.00 LIG 0.02  C 
BRANCH 69 70
ATOM     70  CD  ARG B   6      -1.705   7.011   6.294  1.00 20.00 LIG 0.14  C 
BRANCH 70 71
ATOM     71  NE  ARG B   6      -2.599   5.977   5.769  1.00 20.00 LIG-0.23  N 
ATOM     72  CZ  ARG B   6      -3.926   6.020   5.881  1.00 20.00 LIG 0.67  C 
ATOM     73  NH1 ARG B   6      -4.497   7.048   6.487  1.00 20.00 LIG-0.23  N 
ATOM     74  NH2 ARG B   6      -4.685   5.044   5.387  1.00 20.00 LIG-0.23  N 
ATOM     75 1HH1 ARG B   6      -4.013   7.683   6.807  1.00 20.00 LIG 0.17  HD
ATOM     76 2HH1 ARG B   6      -5.354   7.082   6.563  1.00 20.00 LIG 0.17  HD
ATOM     77 1HH2 ARG B   6      -4.320   4.375   4.989  1.00 20.00 LIG 0.17  HD
ATOM     78 2HH2 ARG B   6      -5.540   5.083   5.465  1.00 20.00 LIG 0.17  HD
ATOM     79 HE   ARG B   6      -2.248   5.303   5.365  1.00 20.00 LIG 0.18  HD
ENDBRANCH 70 71
ENDBRANCH 69 70
ENDBRANCH 68 69
ENDBRANCH 1 68
TORSDOF 33
ENDMDL
MODEL 16
USER: ADFR SOLUTION from run 130
USER: SCORE 22.338037 LL:  -3.939 LR: -20.963 RR:   0.000 FEB: -11.119
USER: RMSD 7.044917
USER: SEED 129
USER: STATUS searching
USER: GENES 35
USER: genes 0 Translation |==|  0.53272 0.32676 0.51445
USER: genes 1 Rotation |==|  0.36983 0.86241 0.19501 0.59326
USER: genes 2 Torsion [C]-CA--N-[C] |==|  0.61790
USER: genes 3 Torsion [N]-C--CA-[N] |==|  0.80000
USER: genes 4 Torsion [C]-CA--N-[C] |==|  0.69511
USER: genes 5 Torsion [N]-C--CA-[N] |==|  0.15967
USER: genes 6 Torsion [C]-CA--CB-[CG] |==|  0.75191
USER: genes 7 Torsion [CA]-CB--CG-[CD] |==|  0.62979
USER: genes 8 Torsion [CB]-CG--CD-[NE] |==|  0.48848
USER: genes 9 Torsion [CG]-CD--NE-[HE] |==|  0.21404
USER: genes 10 Torsion [C]-CA--CB-[CG] |==|  0.25375
USER: genes 11 Torsion [CA]-CB--CG-[CD] |==|  0.92567
USER: genes 12 Torsion [CB]-CG--CD-[CE] |==|  0.26485
USER: genes 13 Torsion [CG]-CD--CE-[NZ] |==|  0.71000
USER: genes 14 Torsion [CD]-CE--NZ-[HZ2] |==|  0.28736
USER: genes 15 Torsion [N]-CA--C-[N] |==|  0.46260
USER: genes 16 Torsion [C]-N--CA-[CB] |==|  0.86427
USER: genes 17 Torsion [N]-CA--CB-[CG] |==|  0.79944
USER: genes 18 Torsion [CA]-CB--CG-[CD] |==|  0.41236
USER: genes 19 Torsion [CB]-CG--CD-[CE] |==|  0.16594
USER: genes 20 Torsion [CG]-CD--CE-[NZ] |==|  0.29587
USER: genes 21 Torsion [CD]-CE--NZ-[HZ1] |==|  0.17388
USER: genes 22 Torsion [N]-CA--C-[N] |==|  0.58451
USER: genes 23 Torsion [C]-N--CA-[C] |==|  0.66172
USER: genes 24 Torsion [N]-CA--C-[N] |==|  0.07511
USER: genes 25 Torsion [C]-N--CA-[CB] |==|  0.25013
USER: genes 26 Torsion [N]-CA--CB-[OG] |==|  0.03142
USER: genes 27 Torsion [CA]-CB--OG-[HG] |==|  0.82378
USER: genes 28 Torsion [N]-CA--C-[O] |==|  0.05495
USER: genes 29 Torsion [N]-CA--CB-[CG] |==|  0.62174
USER: genes 30 Torsion [CA]-CB--CG-[CD2] |==|  0.00335
USER: genes 31 Torsion [N]-CA--CB-[CG] |==|  0.15090
USER: genes 32 Torsion [CA]-CB--CG-[CD] |==|  0.54252
USER: genes 33 Torsion [CB]-CG--CD-[NE] |==|  0.90141
USER: genes 34 Torsion [CG]-CD--NE-[CZ] |==|  0.74924
ROOT
ATOM      1  CA  ARG B   6       1.522   2.407  10.574  1.00 51.45 LIG 0.18  C 
ENDROOT
BRANCH 1 2
ATOM      2  N   ARG B   6       2.192   3.558   9.982  1.00 51.69 LIG-0.35  N 
ATOM      3 H    ARG B   6       3.035   3.451   9.854  1.00 51.69 LIG 0.16  HD
ATOM      4  C   LYS B   5       1.531   4.665   9.677  1.00 56.23 LIG 0.24  C 
ATOM      5 O    LYS B   5       0.333   4.788   9.863  1.00 55.49 LIG-0.27  OA
BRANCH 4 6
ATOM      6  CA  LYS B   5       2.328   5.800   9.060  1.00 54.66 LIG 0.18  C 
BRANCH 6 7
ATOM      7  N   LYS B   5       3.153   6.358  10.111  1.00 56.15 LIG-0.35  N 
ATOM      8 H    LYS B   5       3.792   5.840  10.361  1.00 56.15 LIG 0.16  HD
ATOM      9  C   ARG B   4       2.941   7.553  10.636  1.00 62.85 LIG 0.26  C 
ATOM     10 O    ARG B   4       2.117   8.348  10.198  1.00 61.66 LIG-0.27  OA
BRANCH 9 11
ATOM     11  CA  ARG B   4       3.808   7.909  11.833  1.00 63.68 LIG 0.40  C 
ATOM     12  N   ARG B   4       5.200   7.814  11.443  1.00 64.21 LIG 0.61  N 
BRANCH 11 13
ATOM     13  CB  ARG B   4       3.473   9.319  12.345  1.00 20.00 LIG 0.05  C 
BRANCH 13 14
ATOM     14  CG  ARG B   4       4.278  10.444  11.694  1.00 20.00 LIG 0.02  C 
BRANCH 14 15
ATOM     15  CD  ARG B   4       4.843  11.439  12.733  1.00 20.00 LIG 0.14  C 
BRANCH 15 16
ATOM     16  NE  ARG B   4       5.701  12.475  12.146  1.00 20.00 LIG-0.23  N 
ATOM     17  CZ  ARG B   4       7.035  12.478  12.204  1.00 20.00 LIG 0.67  C 
ATOM     18  NH2 ARG B   4       7.726  13.462  11.648  1.00 20.00 LIG-0.23  N 
ATOM     19  NH1 ARG B   4       7.684  11.500  12.809  1.00 20.00 LIG-0.23  N 
ATOM     20 2HH2 ARG B   4       8.585  13.459  11.687  1.00 20.00 LIG 0.17  HD
ATOM     21 1HH2 ARG B   4       7.316  14.102  11.247  1.00 20.00 LIG 0.17  HD
ATOM     22 1HH1 ARG B   4       7.247  10.853  13.170  1.00 20.00 LIG 0.17  HD
ATOM     23 2HH1 ARG B   4       8.543  11.510  12.842  1.00 20.00 LIG 0.17  HD
ATOM     24 HE   ARG B   4       5.317  13.126  11.736  1.00 20.00 LIG 0.18  HD
ENDBRANCH 15 16
ENDBRANCH 14 15
ENDBRANCH 13 14
ENDBRANCH 11 13
ENDBRANCH 9 11
ENDBRANCH 6 7
BRANCH 6 25
ATOM     25  CB  LYS B   5       3.194   5.281   7.915  1.00 20.00 LIG 0.04  C 
BRANCH 25 26
ATOM     26  CG  LYS B   5       2.529   5.340   6.560  1.00 20.00 LIG 0.00  C 
BRANCH 26 27
ATOM     27  CD  LYS B   5       1.015   5.268   6.688  1.00 20.00 LIG 0.03  C 
BRANCH 27 28
ATOM     28  CE  LYS B   5       0.394   6.655   6.694  1.00 20.00 LIG 0.23  C 
BRANCH 28 29
ATOM     29  NZ  LYS B   5      -0.038   7.081   8.041  1.00 20.00 LIG-0.08  N 
ATOM     30 HZ2  LYS B   5       0.548   7.665   8.369  1.00 20.00 LIG 0.27  HD
ATOM     31 HZ3  LYS B   5      -0.840   7.464   7.988  1.00 20.00 LIG 0.27  HD
ATOM     32 HZ1  LYS B   5      -0.082   6.372   8.576  1.00 20.00 LIG 0.27  HD
ENDBRANCH 28 29
ENDBRANCH 27 28
ENDBRANCH 26 27
ENDBRANCH 25 26
ENDBRANCH 6 25
ENDBRANCH 4 6
ENDBRANCH 1 2
BRANCH 1 33
ATOM     33  C   ARG B   6       2.366   1.813  11.690  1.00 52.50 LIG 0.24  C 
ATOM     34  N   LYS B   7       1.763   0.943  12.489  1.00 47.60 LIG-0.35  N 
ATOM     35 H    LYS B   7       0.924   0.758  12.456  1.00 47.60 LIG 0.16  HD
ATOM     36 O    ARG B   6       3.542   2.126  11.816  1.00 51.14 LIG-0.27  OA
BRANCH 34 37
ATOM     37  CA  LYS B   7       2.503   0.219  13.511  1.00 46.86 LIG 0.18  C 
BRANCH 37 38
ATOM     38  CB  LYS B   7       3.772  -0.404  12.929  1.00 20.00 LIG 0.04  C 
BRANCH 38 39
ATOM     39  CG  LYS B   7       3.531  -1.585  12.028  1.00 20.00 LIG 0.00  C 
BRANCH 39 40
ATOM     40  CD  LYS B   7       4.586  -1.684  10.928  1.00 20.00 LIG 0.03  C 
BRANCH 40 41
ATOM     41  CE  LYS B   7       5.985  -1.832  11.511  1.00 20.00 LIG 0.23  C 
BRANCH 41 42
ATOM     42  NZ  LYS B   7       6.518  -3.217  11.353  1.00 20.00 LIG-0.08  N 
ATOM     43 HZ2  LYS B   7       7.319  -3.274  11.738  1.00 20.00 LIG 0.27  HD
ATOM     44 HZ1  LYS B   7       6.591  -3.411  10.487  1.00 20.00 LIG 0.27  HD
ATOM     45 HZ3  LYS B   7       5.962  -3.796  11.740  1.00 20.00 LIG 0.27  HD
ENDBRANCH 41 42
ENDBRANCH 40 41
ENDBRANCH 39 40
ENDBRANCH 38 39
ENDBRANCH 37 38
BRANCH 37 46
ATOM     46  C   LYS B   7       2.881   1.165  14.641  1.00 48.01 LIG 0.24  C 
ATOM     47 O    LYS B   7       2.172   2.120  14.919  1.00 46.73 LIG-0.27  OA
ATOM     48  N   PHE B   8       4.004   0.889  15.287  1.00 43.62 LIG-0.35  N 
ATOM     49 H    PHE B   8       4.466   0.176  15.156  1.00 43.62 LIG 0.16  HD
BRANCH 48 50
ATOM     50  CA  PHE B   8       4.562   1.783  16.289  1.00 44.29 LIG 0.18  C 
BRANCH 50 51
ATOM     51  C   PHE B   8       5.970   2.159  15.831  1.00 70.57 LIG 0.24  C 
ATOM     52  N   SER B   9       6.187   2.127  14.523  1.00 30.00 LIG-0.34  N 
ATOM     53 H    SER B   9       5.577   1.968  13.937  1.00 30.00 LIG 0.16  HD
ATOM     54 O    PHE B   8       6.848   2.435  16.640  1.00 41.97 LIG-0.27  OA
BRANCH 52 55
ATOM     55  CA  SER B   9       7.513   2.368  13.965  1.00 30.00 LIG 0.19  C 
BRANCH 55 56
ATOM     56  CB  SER B   9       8.283   1.051  13.844  1.00 20.00 LIG 0.20  C 
BRANCH 56 57
ATOM     57 OG   SER B   9       7.430  -0.060  14.054  1.00 20.00 LIG-0.40  OA
ATOM     58 HG   SER B   9       7.131  -0.041  14.839  1.00 20.00 LIG 0.21  HD
ENDBRANCH 56 57
ENDBRANCH 55 56
BRANCH 55 59
ATOM     59  C   SER B   9       7.455   3.054  12.610  1.00 30.00 LIG 0.22  C 
ATOM     60 O    SER B   9       6.450   3.662  12.261  1.00 30.00 LIG-0.29  OA
ENDBRANCH 55 59
ENDBRANCH 52 55
ENDBRANCH 50 51
BRANCH 50 61
ATOM     61  CB  PHE B   8       4.576   1.102  17.655  1.00 20.00 LIG 0.07  C 
BRANCH 61 62
ATOM     62  CG  PHE B   8       4.115   1.976  18.788  1.00 20.00 LIG-0.06  A 
ATOM     63  CD1 PHE B   8       4.084   1.510  20.079  1.00 20.00 LIG 0.01  A 
ATOM     64  CE1 PHE B   8       3.651   2.327  21.110  1.00 20.00 LIG 0.00  A 
ATOM     65  CZ  PHE B   8       3.243   3.619  20.846  1.00 20.00 LIG 0.00  A 
ATOM     66  CE2 PHE B   8       3.264   4.083  19.575  1.00 20.00 LIG 0.00  A 
ATOM     67  CD2 PHE B   8       3.700   3.270  18.550  1.00 20.00 LIG 0.01  A 
ENDBRANCH 61 62
ENDBRANCH 50 61
ENDBRANCH 48 50
ENDBRANCH 37 46
ENDBRANCH 34 37
ENDBRANCH 1 33
BRANCH 1 68
ATOM     68  CB  ARG B   6       1.243   1.314   9.525  1.00 20.00 LIG 0.04  C 
BRANCH 68 69
ATOM     69  CG  ARG B   6       2.440   0.819   8.712  1.00 20.00 LIG 0.02  C 
BRANCH 69 70
ATOM     70  CD  ARG B   6       1.938   0.043   7.488  1.00 20.00 LIG 0.14  C 
BRANCH 70 71
ATOM     71  NE  ARG B   6       0.722  -0.740   7.723  1.00 20.00 LIG-0.23  N 
ATOM     72  CZ  ARG B   6       0.726  -2.006   8.134  1.00 20.00 LIG 0.67  C 
ATOM     73  NH1 ARG B   6       1.879  -2.616   8.362  1.00 20.00 LIG-0.23  N 
ATOM     74  NH2 ARG B   6      -0.414  -2.666   8.323  1.00 20.00 LIG-0.23  N 
ATOM     75 1HH1 ARG B   6       2.619  -2.195   8.244  1.00 20.00 LIG 0.17  HD
ATOM     76 2HH1 ARG B   6       1.888  -3.434   8.628  1.00 20.00 LIG 0.17  HD
ATOM     77 1HH2 ARG B   6      -1.166  -2.275   8.180  1.00 20.00 LIG 0.17  HD
ATOM     78 2HH2 ARG B   6      -0.399  -3.483   8.589  1.00 20.00 LIG 0.17  HD
ATOM     79 HE   ARG B   6      -0.038  -0.360   7.587  1.00 20.00 LIG 0.18  HD
ENDBRANCH 70 71
ENDBRANCH 69 70
ENDBRANCH 68 69
ENDBRANCH 1 68
TORSDOF 33
ENDMDL
MODEL 17
USER: ADFR SOLUTION from run 150
USER: SCORE 22.828866 LL:  -3.525 LR: -20.927 RR:   0.000 FEB: -11.083
USER: RMSD 11.444277
USER: SEED 149
USER: STATUS no improvement in best in 5 clusters for 5 generations
USER: GENES 35
USER: genes 0 Translation |==|  0.64949 0.50443 0.50136
USER: genes 1 Rotation |==|  0.95117 0.53892 0.71076 0.52259
USER: genes 2 Torsion [C]-CA--N-[C] |==|  0.78303
USER: genes 3 Torsion [N]-C--CA-[N] |==|  0.66034
USER: genes 4 Torsion [C]-CA--N-[C] |==|  0.16267
USER: genes 5 Torsion [N]-C--CA-[N] |==|  0.71373
USER: genes 6 Torsion [C]-CA--CB-[CG] |==|  0.74515
USER: genes 7 Torsion [CA]-CB--CG-[CD] |==|  0.71567
USER: genes 8 Torsion [CB]-CG--CD-[NE] |==|  0.68353
USER: genes 9 Torsion [CG]-CD--NE-[HE] |==|  0.17893
USER: genes 10 Torsion [C]-CA--CB-[CG] |==|  0.27780
USER: genes 11 Torsion [CA]-CB--CG-[CD] |==|  0.06181
USER: genes 12 Torsion [CB]-CG--CD-[CE] |==|  0.50151
USER: genes 13 Torsion [CG]-CD--CE-[NZ] |==|  0.80383
USER: genes 14 Torsion [CD]-CE--NZ-[HZ2] |==|  0.96411
USER: genes 15 Torsion [N]-CA--C-[N] |==|  0.22146
USER: genes 16 Torsion [C]-N--CA-[CB] |==|  0.86466
USER: genes 17 Torsion [N]-CA--CB-[CG] |==|  0.75072
USER: genes 18 Torsion [CA]-CB--CG-[CD] |==|  0.24668
USER: genes 19 Torsion [CB]-CG--CD-[CE] |==|  0.47973
USER: genes 20 Torsion [CG]-CD--CE-[NZ] |==|  0.08903
USER: genes 21 Torsion [CD]-CE--NZ-[HZ1] |==|  0.02704
USER: genes 22 Torsion [N]-CA--C-[N] |==|  0.36176
USER: genes 23 Torsion [C]-N--CA-[C] |==|  0.56667
USER: genes 24 Torsion [N]-CA--C-[N] |==|  0.01344
USER: genes 25 Torsion [C]-N--CA-[CB] |==|  0.45487
USER: genes 26 Torsion [N]-CA--CB-[OG] |==|  0.67404
USER: genes 27 Torsion [CA]-CB--OG-[HG] |==|  0.39405
USER: genes 28 Torsion [N]-CA--C-[O] |==|  0.29259
USER: genes 29 Torsion [N]-CA--CB-[CG] |==|  0.24280
USER: genes 30 Torsion [CA]-CB--CG-[CD2] |==|  0.31912
USER: genes 31 Torsion [N]-CA--CB-[CG] |==|  0.62475
USER: genes 32 Torsion [CA]-CB--CG-[CD] |==|  0.81867
USER: genes 33 Torsion [CB]-CG--CD-[NE] |==|  0.72718
USER: genes 34 Torsion [CG]-CD--NE-[CZ] |==|  0.57596
ROOT
ATOM      1  CA  ARG B   6       4.412   7.204  10.270  1.00 51.45 LIG 0.18  C 
ENDROOT
BRANCH 1 2
ATOM      2  N   ARG B   6       3.372   6.377   9.671  1.00 51.69 LIG-0.35  N 
ATOM      3 H    ARG B   6       3.663   5.675   9.269  1.00 51.69 LIG 0.16  HD
ATOM      4  C   LYS B   5       2.090   6.703   9.754  1.00 56.23 LIG 0.24  C 
ATOM      5 O    LYS B   5       1.704   7.702  10.337  1.00 55.49 LIG-0.27  OA
BRANCH 4 6
ATOM      6  CA  LYS B   5       1.092   5.766   9.099  1.00 54.66 LIG 0.18  C 
BRANCH 6 7
ATOM      7  N   LYS B   5       0.348   6.549   8.134  1.00 56.15 LIG-0.35  N 
ATOM      8 H    LYS B   5      -0.500   6.556   8.273  1.00 56.15 LIG 0.16  HD
ATOM      9  C   ARG B   4       0.923   7.193   7.131  1.00 62.85 LIG 0.26  C 
ATOM     10 O    ARG B   4       2.138   7.296   7.002  1.00 61.66 LIG-0.27  OA
BRANCH 9 11
ATOM     11  CA  ARG B   4      -0.024   7.833   6.130  1.00 63.68 LIG 0.40  C 
ATOM     12  N   ARG B   4      -0.068   7.007   4.940  1.00 64.21 LIG 0.61  N 
BRANCH 11 13
ATOM     13  CB  ARG B   4      -1.426   7.999   6.739  1.00 20.00 LIG 0.05  C 
BRANCH 13 14
ATOM     14  CG  ARG B   4      -2.375   6.828   6.488  1.00 20.00 LIG 0.02  C 
BRANCH 14 15
ATOM     15  CD  ARG B   4      -3.399   7.132   5.370  1.00 20.00 LIG 0.14  C 
BRANCH 15 16
ATOM     16  NE  ARG B   4      -4.785   7.203   5.849  1.00 20.00 LIG-0.23  N 
ATOM     17  CZ  ARG B   4      -5.756   6.360   5.490  1.00 20.00 LIG 0.67  C 
ATOM     18  NH2 ARG B   4      -6.982   6.507   5.971  1.00 20.00 LIG-0.23  N 
ATOM     19  NH1 ARG B   4      -5.509   5.366   4.657  1.00 20.00 LIG-0.23  N 
ATOM     20 2HH2 ARG B   4      -7.603   5.962   5.737  1.00 20.00 LIG 0.17  HD
ATOM     21 1HH2 ARG B   4      -7.154   7.148   6.518  1.00 20.00 LIG 0.17  HD
ATOM     22 1HH1 ARG B   4      -4.717   5.256   4.340  1.00 20.00 LIG 0.17  HD
ATOM     23 2HH1 ARG B   4      -6.141   4.828   4.430  1.00 20.00 LIG 0.17  HD
ATOM     24 HE   ARG B   4      -4.985   7.832   6.400  1.00 20.00 LIG 0.18  HD
ENDBRANCH 15 16
ENDBRANCH 14 15
ENDBRANCH 13 14
ENDBRANCH 11 13
ENDBRANCH 9 11
ENDBRANCH 6 7
BRANCH 6 25
ATOM     25  CB  LYS B   5       1.817   4.613   8.412  1.00 20.00 LIG 0.04  C 
BRANCH 25 26
ATOM     26  CG  LYS B   5       1.831   3.328   9.207  1.00 20.00 LIG 0.00  C 
BRANCH 26 27
ATOM     27  CD  LYS B   5       0.698   3.299  10.220  1.00 20.00 LIG 0.03  C 
BRANCH 27 28
ATOM     28  CE  LYS B   5       0.715   2.014  11.032  1.00 20.00 LIG 0.23  C 
BRANCH 28 29
ATOM     29  NZ  LYS B   5       0.321   0.832  10.238  1.00 20.00 LIG-0.08  N 
ATOM     30 HZ2  LYS B   5      -0.038   1.098   9.468  1.00 20.00 LIG 0.27  HD
ATOM     31 HZ3  LYS B   5       1.040   0.333  10.073  1.00 20.00 LIG 0.27  HD
ATOM     32 HZ1  LYS B   5      -0.274   0.354  10.694  1.00 20.00 LIG 0.27  HD
ENDBRANCH 28 29
ENDBRANCH 27 28
ENDBRANCH 26 27
ENDBRANCH 25 26
ENDBRANCH 6 25
ENDBRANCH 4 6
ENDBRANCH 1 2
BRANCH 1 33
ATOM     33  C   ARG B   6       4.696   8.417   9.400  1.00 52.50 LIG 0.24  C 
ATOM     34  N   LYS B   7       3.847   9.430   9.501  1.00 47.60 LIG-0.35  N 
ATOM     35 H    LYS B   7       3.123   9.409   9.965  1.00 47.60 LIG 0.16  HD
ATOM     36 O    ARG B   6       5.672   8.441   8.662  1.00 51.14 LIG-0.27  OA
BRANCH 34 37
ATOM     37  CA  LYS B   7       4.087  10.689   8.812  1.00 46.86 LIG 0.18  C 
BRANCH 37 38
ATOM     38  CB  LYS B   7       5.514  11.180   9.053  1.00 20.00 LIG 0.04  C 
BRANCH 38 39
ATOM     39  CG  LYS B   7       5.676  12.062  10.262  1.00 20.00 LIG 0.00  C 
BRANCH 39 40
ATOM     40  CD  LYS B   7       5.966  11.250  11.522  1.00 20.00 LIG 0.03  C 
BRANCH 40 41
ATOM     41  CE  LYS B   7       6.305  12.154  12.700  1.00 20.00 LIG 0.23  C 
BRANCH 41 42
ATOM     42  NZ  LYS B   7       5.584  13.459  12.635  1.00 20.00 LIG-0.08  N 
ATOM     43 HZ2  LYS B   7       5.185  13.618  13.415  1.00 20.00 LIG 0.27  HD
ATOM     44 HZ1  LYS B   7       4.971  13.428  11.990  1.00 20.00 LIG 0.27  HD
ATOM     45 HZ3  LYS B   7       6.164  14.111  12.460  1.00 20.00 LIG 0.27  HD
ENDBRANCH 41 42
ENDBRANCH 40 41
ENDBRANCH 39 40
ENDBRANCH 38 39
ENDBRANCH 37 38
BRANCH 37 46
ATOM     46  C   LYS B   7       3.863  10.509   7.319  1.00 48.01 LIG 0.24  C 
ATOM     47 O    LYS B   7       4.386   9.586   6.715  1.00 46.73 LIG-0.27  OA
ATOM     48  N   PHE B   8       3.078  11.401   6.732  1.00 43.62 LIG-0.35  N 
ATOM     49 H    PHE B   8       2.639  12.004   7.159  1.00 43.62 LIG 0.16  HD
BRANCH 48 50
ATOM     50  CA  PHE B   8       2.890  11.438   5.291  1.00 44.29 LIG 0.18  C 
BRANCH 50 51
ATOM     51  C   PHE B   8       2.468  12.860   4.923  1.00 70.57 LIG 0.24  C 
ATOM     52  N   SER B   9       2.462  13.742   5.914  1.00 30.00 LIG-0.34  N 
ATOM     53 H    SER B   9       2.732  13.571   6.713  1.00 30.00 LIG 0.16  HD
ATOM     54 O    PHE B   8       2.121  13.144   3.783  1.00 41.97 LIG-0.27  OA
BRANCH 52 55
ATOM     55  CA  SER B   9       1.983  15.106   5.715  1.00 30.00 LIG 0.19  C 
BRANCH 55 56
ATOM     56  CB  SER B   9       1.708  15.772   7.065  1.00 20.00 LIG 0.20  C 
BRANCH 56 57
ATOM     57 OG   SER B   9       0.338  16.109   7.197  1.00 20.00 LIG-0.40  OA
ATOM     58 HG   SER B   9       0.089  15.971   7.988  1.00 20.00 LIG 0.21  HD
ENDBRANCH 56 57
ENDBRANCH 55 56
BRANCH 55 59
ATOM     59  C   SER B   9       2.963  15.952   4.918  1.00 30.00 LIG 0.22  C 
ATOM     60 O    SER B   9       2.736  16.231   3.746  1.00 30.00 LIG-0.29  OA
ENDBRANCH 55 59
ENDBRANCH 52 55
ENDBRANCH 50 51
BRANCH 50 61
ATOM     61  CB  PHE B   8       1.842  10.412   4.867  1.00 20.00 LIG 0.07  C 
BRANCH 61 62
ATOM     62  CG  PHE B   8       0.427  10.917   4.908  1.00 20.00 LIG-0.06  A 
ATOM     63  CD1 PHE B   8      -0.173  11.259   6.094  1.00 20.00 LIG 0.01  A 
ATOM     64  CE1 PHE B   8      -1.479  11.718   6.113  1.00 20.00 LIG 0.00  A 
ATOM     65  CZ  PHE B   8      -2.192  11.832   4.936  1.00 20.00 LIG 0.00  A 
ATOM     66  CE2 PHE B   8      -1.610  11.490   3.763  1.00 20.00 LIG 0.00  A 
ATOM     67  CD2 PHE B   8      -0.307  11.038   3.746  1.00 20.00 LIG 0.01  A 
ENDBRANCH 61 62
ENDBRANCH 50 61
ENDBRANCH 48 50
ENDBRANCH 37 46
ENDBRANCH 34 37
ENDBRANCH 1 33
BRANCH 1 68
ATOM     68  CB  ARG B   6       5.719   6.413  10.465  1.00 20.00 LIG 0.04  C 
BRANCH 68 69
ATOM     69  CG  ARG B   6       6.428   6.579  11.810  1.00 20.00 LIG 0.02  C 
BRANCH 69 70
ATOM     70  CD  ARG B   6       6.914   8.026  11.954  1.00 20.00 LIG 0.14  C 
BRANCH 70 71
ATOM     71  NE  ARG B   6       8.326   8.229  11.618  1.00 20.00 LIG-0.23  N 
ATOM     72  CZ  ARG B   6       9.077   9.199  12.137  1.00 20.00 LIG 0.67  C 
ATOM     73  NH1 ARG B   6       8.549  10.036  13.016  1.00 20.00 LIG-0.23  N 
ATOM     74  NH2 ARG B   6      10.354   9.334  11.786  1.00 20.00 LIG-0.23  N 
ATOM     75 1HH1 ARG B   6       7.725   9.953  13.248  1.00 20.00 LIG 0.17  HD
ATOM     76 2HH1 ARG B   6       9.029  10.664  13.354  1.00 20.00 LIG 0.17  HD
ATOM     77 1HH2 ARG B   6      10.704   8.792  11.218  1.00 20.00 LIG 0.17  HD
ATOM     78 2HH2 ARG B   6      10.829   9.964  12.128  1.00 20.00 LIG 0.17  HD
ATOM     79 HE   ARG B   6       8.690   7.691  11.054  1.00 20.00 LIG 0.18  HD
ENDBRANCH 70 71
ENDBRANCH 69 70
ENDBRANCH 68 69
ENDBRANCH 1 68
TORSDOF 33
ENDMDL
MODEL 18
USER: ADFR SOLUTION from run 108
USER: SCORE 22.390457 LL:  -2.847 LR: -20.934 RR:   0.000 FEB: -11.090
USER: RMSD 8.646002
USER: SEED 107
USER: STATUS searching
USER: GENES 35
USER: genes 0 Translation |==|  0.51432 0.50086 0.45093
USER: genes 1 Rotation |==|  0.48469 0.97802 0.36138 0.54528
USER: genes 2 Torsion [C]-CA--N-[C] |==|  0.77587
USER: genes 3 Torsion [N]-C--CA-[N] |==|  0.53872
USER: genes 4 Torsion [C]-CA--N-[C] |==|  0.21080
USER: genes 5 Torsion [N]-C--CA-[N] |==|  0.34529
USER: genes 6 Torsion [C]-CA--CB-[CG] |==|  0.31539
USER: genes 7 Torsion [CA]-CB--CG-[CD] |==|  0.91215
USER: genes 8 Torsion [CB]-CG--CD-[NE] |==|  0.67583
USER: genes 9 Torsion [CG]-CD--NE-[HE] |==|  0.98529
USER: genes 10 Torsion [C]-CA--CB-[CG] |==|  0.42640
USER: genes 11 Torsion [CA]-CB--CG-[CD] |==|  0.84730
USER: genes 12 Torsion [CB]-CG--CD-[CE] |==|  0.47715
USER: genes 13 Torsion [CG]-CD--CE-[NZ] |==|  0.66196
USER: genes 14 Torsion [CD]-CE--NZ-[HZ2] |==|  0.65266
USER: genes 15 Torsion [N]-CA--C-[N] |==|  0.87931
USER: genes 16 Torsion [C]-N--CA-[CB] |==|  0.85556
USER: genes 17 Torsion [N]-CA--CB-[CG] |==|  0.35954
USER: genes 18 Torsion [CA]-CB--CG-[CD] |==|  0.68122
USER: genes 19 Torsion [CB]-CG--CD-[CE] |==|  0.32657
USER: genes 20 Torsion [CG]-CD--CE-[NZ] |==|  0.09373
USER: genes 21 Torsion [CD]-CE--NZ-[HZ1] |==|  0.02912
USER: genes 22 Torsion [N]-CA--C-[N] |==|  0.39811
USER: genes 23 Torsion [C]-N--CA-[C] |==|  0.62001
USER: genes 24 Torsion [N]-CA--C-[N] |==|  0.40038
USER: genes 25 Torsion [C]-N--CA-[CB] |==|  0.81677
USER: genes 26 Torsion [N]-CA--CB-[OG] |==|  0.31606
USER: genes 27 Torsion [CA]-CB--OG-[HG] |==|  0.32083
USER: genes 28 Torsion [N]-CA--C-[O] |==|  0.16110
USER: genes 29 Torsion [N]-CA--CB-[CG] |==|  0.58885
USER: genes 30 Torsion [CA]-CB--CG-[CD2] |==|  0.44454
USER: genes 31 Torsion [N]-CA--CB-[CG] |==|  0.42632
USER: genes 32 Torsion [CA]-CB--CG-[CD] |==|  0.46672
USER: genes 33 Torsion [CB]-CG--CD-[NE] |==|  0.56287
USER: genes 34 Torsion [CG]-CD--NE-[CZ] |==|  0.25341
ROOT
ATOM      1  CA  ARG B   6       1.066   7.107   9.097  1.00 51.45 LIG 0.18  C 
ENDROOT
BRANCH 1 2
ATOM      2  N   ARG B   6       2.219   7.977   9.295  1.00 51.69 LIG-0.35  N 
ATOM      3 H    ARG B   6       2.568   8.276   8.569  1.00 51.69 LIG 0.16  HD
ATOM      4  C   LYS B   5       2.670   8.268  10.507  1.00 56.23 LIG 0.24  C 
ATOM      5 O    LYS B   5       2.152   7.836  11.522  1.00 55.49 LIG-0.27  OA
BRANCH 4 6
ATOM      6  CA  LYS B   5       3.873   9.189  10.596  1.00 54.66 LIG 0.18  C 
BRANCH 6 7
ATOM      7  N   LYS B   5       4.379   9.093  11.950  1.00 56.15 LIG-0.35  N 
ATOM      8 H    LYS B   5       4.183   9.770  12.441  1.00 56.15 LIG 0.16  HD
ATOM      9  C   ARG B   4       5.078   8.058  12.387  1.00 62.85 LIG 0.26  C 
ATOM     10 O    ARG B   4       5.249   7.034  11.736  1.00 61.66 LIG-0.27  OA
BRANCH 9 11
ATOM     11  CA  ARG B   4       5.658   8.199  13.785  1.00 63.68 LIG 0.40  C 
ATOM     12  N   ARG B   4       5.203   7.084  14.591  1.00 64.21 LIG 0.61  N 
BRANCH 11 13
ATOM     13  CB  ARG B   4       7.194   8.252  13.731  1.00 20.00 LIG 0.05  C 
BRANCH 13 14
ATOM     14  CG  ARG B   4       7.802   9.589  14.153  1.00 20.00 LIG 0.02  C 
BRANCH 14 15
ATOM     15  CD  ARG B   4       6.888  10.786  13.807  1.00 20.00 LIG 0.14  C 
BRANCH 15 16
ATOM     16  NE  ARG B   4       7.481  11.716  12.838  1.00 20.00 LIG-0.23  N 
ATOM     17  CZ  ARG B   4       6.849  12.766  12.308  1.00 20.00 LIG 0.67  C 
ATOM     18  NH2 ARG B   4       7.465  13.548  11.435  1.00 20.00 LIG-0.23  N 
ATOM     19  NH1 ARG B   4       5.604  13.044  12.651  1.00 20.00 LIG-0.23  N 
ATOM     20 2HH2 ARG B   4       7.054  14.222  11.097  1.00 20.00 LIG 0.17  HD
ATOM     21 1HH2 ARG B   4       8.277  13.380  11.206  1.00 20.00 LIG 0.17  HD
ATOM     22 1HH1 ARG B   4       5.193  12.547  13.221  1.00 20.00 LIG 0.17  HD
ATOM     23 2HH1 ARG B   4       5.204  13.722  12.305  1.00 20.00 LIG 0.17  HD
ATOM     24 HE   ARG B   4       8.293  11.574  12.594  1.00 20.00 LIG 0.18  HD
ENDBRANCH 15 16
ENDBRANCH 14 15
ENDBRANCH 13 14
ENDBRANCH 11 13
ENDBRANCH 9 11
ENDBRANCH 6 7
BRANCH 6 25
ATOM     25  CB  LYS B   5       4.942   8.766   9.592  1.00 20.00 LIG 0.04  C 
BRANCH 25 26
ATOM     26  CG  LYS B   5       5.847   9.889   9.141  1.00 20.00 LIG 0.00  C 
BRANCH 26 27
ATOM     27  CD  LYS B   5       5.041  11.051   8.582  1.00 20.00 LIG 0.03  C 
BRANCH 27 28
ATOM     28  CE  LYS B   5       5.923  12.259   8.314  1.00 20.00 LIG 0.23  C 
BRANCH 28 29
ATOM     29  NZ  LYS B   5       5.488  13.459   9.057  1.00 20.00 LIG-0.08  N 
ATOM     30 HZ2  LYS B   5       5.358  14.130   8.487  1.00 20.00 LIG 0.27  HD
ATOM     31 HZ3  LYS B   5       4.727  13.283   9.485  1.00 20.00 LIG 0.27  HD
ATOM     32 HZ1  LYS B   5       6.114  13.687   9.646  1.00 20.00 LIG 0.27  HD
ENDBRANCH 28 29
ENDBRANCH 27 28
ENDBRANCH 26 27
ENDBRANCH 25 26
ENDBRANCH 6 25
ENDBRANCH 4 6
ENDBRANCH 1 2
BRANCH 1 33
ATOM     33  C   ARG B   6       1.475   5.647   9.203  1.00 52.50 LIG 0.24  C 
ATOM     34  N   LYS B   7       2.599   5.301   8.590  1.00 47.60 LIG-0.35  N 
ATOM     35 H    LYS B   7       3.057   5.828   8.088  1.00 47.60 LIG 0.16  HD
ATOM     36 O    ARG B   6       0.793   4.853   9.837  1.00 51.14 LIG-0.27  OA
BRANCH 34 37
ATOM     37  CA  LYS B   7       3.152   3.962   8.727  1.00 46.86 LIG 0.18  C 
BRANCH 37 38
ATOM     38  CB  LYS B   7       3.284   3.574  10.199  1.00 20.00 LIG 0.04  C 
BRANCH 38 39
ATOM     39  CG  LYS B   7       2.687   2.237  10.548  1.00 20.00 LIG 0.00  C 
BRANCH 39 40
ATOM     40  CD  LYS B   7       1.499   2.376  11.497  1.00 20.00 LIG 0.03  C 
BRANCH 40 41
ATOM     41  CE  LYS B   7       0.214   1.864  10.858  1.00 20.00 LIG 0.23  C 
BRANCH 41 42
ATOM     42  NZ  LYS B   7       0.461   0.709   9.945  1.00 20.00 LIG-0.08  N 
ATOM     43 HZ2  LYS B   7      -0.105   0.050  10.141  1.00 20.00 LIG 0.27  HD
ATOM     44 HZ1  LYS B   7       1.297   0.422  10.048  1.00 20.00 LIG 0.27  HD
ATOM     45 HZ3  LYS B   7       0.337   0.965   9.102  1.00 20.00 LIG 0.27  HD
ENDBRANCH 41 42
ENDBRANCH 40 41
ENDBRANCH 39 40
ENDBRANCH 38 39
ENDBRANCH 37 38
BRANCH 37 46
ATOM     46  C   LYS B   7       2.253   2.959   8.020  1.00 48.01 LIG 0.24  C 
ATOM     47 O    LYS B   7       1.039   3.090   8.035  1.00 46.73 LIG-0.27  OA
ATOM     48  N   PHE B   8       2.862   1.958   7.403  1.00 43.62 LIG-0.35  N 
ATOM     49 H    PHE B   8       3.715   1.901   7.315  1.00 43.62 LIG 0.16  HD
BRANCH 48 50
ATOM     50  CA  PHE B   8       2.129   0.852   6.810  1.00 44.29 LIG 0.18  C 
BRANCH 50 51
ATOM     51  C   PHE B   8       2.870  -0.434   7.175  1.00 70.57 LIG 0.24  C 
ATOM     52  N   SER B   9       2.114  -1.498   7.411  1.00 30.00 LIG-0.34  N 
ATOM     53 H    SER B   9       1.259  -1.512   7.313  1.00 30.00 LIG 0.16  HD
ATOM     54 O    PHE B   8       4.091  -0.455   7.278  1.00 41.97 LIG-0.27  OA
BRANCH 52 55
ATOM     55  CA  SER B   9       2.693  -2.757   7.865  1.00 30.00 LIG 0.19  C 
BRANCH 55 56
ATOM     56  CB  SER B   9       3.584  -3.355   6.775  1.00 20.00 LIG 0.20  C 
BRANCH 56 57
ATOM     57 OG   SER B   9       4.943  -3.369   7.177  1.00 20.00 LIG-0.40  OA
ATOM     58 HG   SER B   9       5.208  -4.164   7.242  1.00 20.00 LIG 0.21  HD
ENDBRANCH 56 57
ENDBRANCH 55 56
BRANCH 55 59
ATOM     59  C   SER B   9       3.492  -2.596   9.149  1.00 30.00 LIG 0.22  C 
ATOM     60 O    SER B   9       2.964  -2.150  10.161  1.00 30.00 LIG-0.29  OA
ENDBRANCH 55 59
ENDBRANCH 52 55
ENDBRANCH 50 51
BRANCH 50 61
ATOM     61  CB  PHE B   8       2.027   1.034   5.298  1.00 20.00 LIG 0.07  C 
BRANCH 61 62
ATOM     62  CG  PHE B   8       0.769   0.479   4.691  1.00 20.00 LIG-0.06  A 
ATOM     63  CD1 PHE B   8       0.025  -0.473   5.341  1.00 20.00 LIG 0.01  A 
ATOM     64  CE1 PHE B   8      -1.128  -0.978   4.764  1.00 20.00 LIG 0.00  A 
ATOM     65  CZ  PHE B   8      -1.538  -0.528   3.525  1.00 20.00 LIG 0.00  A 
ATOM     66  CE2 PHE B   8      -0.806   0.406   2.874  1.00 20.00 LIG 0.00  A 
ATOM     67  CD2 PHE B   8       0.340   0.911   3.453  1.00 20.00 LIG 0.01  A 
ENDBRANCH 61 62
ENDBRANCH 50 61
ENDBRANCH 48 50
ENDBRANCH 37 46
ENDBRANCH 34 37
ENDBRANCH 1 33
BRANCH 1 68
ATOM     68  CB  ARG B   6       0.410   7.343   7.724  1.00 20.00 LIG 0.04  C 
BRANCH 68 69
ATOM     69  CG  ARG B   6      -0.354   6.165   7.115  1.00 20.00 LIG 0.02  C 
BRANCH 69 70
ATOM     70  CD  ARG B   6      -1.178   6.658   5.920  1.00 20.00 LIG 0.14  C 
BRANCH 70 71
ATOM     71  NE  ARG B   6      -2.319   5.806   5.577  1.00 20.00 LIG-0.23  N 
ATOM     72  CZ  ARG B   6      -3.544   5.976   6.071  1.00 20.00 LIG 0.67  C 
ATOM     73  NH1 ARG B   6      -3.776   6.969   6.915  1.00 20.00 LIG-0.23  N 
ATOM     74  NH2 ARG B   6      -4.539   5.163   5.725  1.00 20.00 LIG-0.23  N 
ATOM     75 1HH1 ARG B   6      -3.138   7.499   7.141  1.00 20.00 LIG 0.17  HD
ATOM     76 2HH1 ARG B   6      -4.565   7.084   7.237  1.00 20.00 LIG 0.17  HD
ATOM     77 1HH2 ARG B   6      -4.395   4.517   5.175  1.00 20.00 LIG 0.17  HD
ATOM     78 2HH2 ARG B   6      -5.326   5.283   6.051  1.00 20.00 LIG 0.17  HD
ATOM     79 HE   ARG B   6      -2.191   5.158   5.025  1.00 20.00 LIG 0.18  HD
ENDBRANCH 70 71
ENDBRANCH 69 70
ENDBRANCH 68 69
ENDBRANCH 1 68
TORSDOF 33
ENDMDL
MODEL 19
USER: ADFR SOLUTION from run 108
USER: SCORE 23.243453 LL:  -3.716 LR: -20.901 RR:   0.000 FEB: -11.057
USER: RMSD 8.332156
USER: SEED 107
USER: STATUS searching
USER: GENES 35
USER: genes 0 Translation |==|  0.51585 0.50240 0.45277
USER: genes 1 Rotation |==|  0.46794 0.97815 0.37003 0.55876
USER: genes 2 Torsion [C]-CA--N-[C] |==|  0.78062
USER: genes 3 Torsion [N]-C--CA-[N] |==|  0.54752
USER: genes 4 Torsion [C]-CA--N-[C] |==|  0.20487
USER: genes 5 Torsion [N]-C--CA-[N] |==|  0.33678
USER: genes 6 Torsion [C]-CA--CB-[CG] |==|  0.30183
USER: genes 7 Torsion [CA]-CB--CG-[CD] |==|  0.90598
USER: genes 8 Torsion [CB]-CG--CD-[NE] |==|  0.67429
USER: genes 9 Torsion [CG]-CD--NE-[HE] |==|  0.98777
USER: genes 10 Torsion [C]-CA--CB-[CG] |==|  0.43808
USER: genes 11 Torsion [CA]-CB--CG-[CD] |==|  0.71397
USER: genes 12 Torsion [CB]-CG--CD-[CE] |==|  0.47657
USER: genes 13 Torsion [CG]-CD--CE-[NZ] |==|  0.77813
USER: genes 14 Torsion [CD]-CE--NZ-[HZ2] |==|  0.55721
USER: genes 15 Torsion [N]-CA--C-[N] |==|  0.88512
USER: genes 16 Torsion [C]-N--CA-[CB] |==|  0.87112
USER: genes 17 Torsion [N]-CA--CB-[CG] |==|  0.33769
USER: genes 18 Torsion [CA]-CB--CG-[CD] |==|  0.65533
USER: genes 19 Torsion [CB]-CG--CD-[CE] |==|  0.34891
USER: genes 20 Torsion [CG]-CD--CE-[NZ] |==|  0.11320
USER: genes 21 Torsion [CD]-CE--NZ-[HZ1] |==|  0.01905
USER: genes 22 Torsion [N]-CA--C-[N] |==|  0.37890
USER: genes 23 Torsion [C]-N--CA-[C] |==|  0.82612
USER: genes 24 Torsion [N]-CA--C-[N] |==|  0.43062
USER: genes 25 Torsion [C]-N--CA-[CB] |==|  0.48595
USER: genes 26 Torsion [N]-CA--CB-[OG] |==|  0.82938
USER: genes 27 Torsion [CA]-CB--OG-[HG] |==|  0.86682
USER: genes 28 Torsion [N]-CA--C-[O] |==|  0.23119
USER: genes 29 Torsion [N]-CA--CB-[CG] |==|  0.28327
USER: genes 30 Torsion [CA]-CB--CG-[CD2] |==|  0.75885
USER: genes 31 Torsion [N]-CA--CB-[CG] |==|  0.44702
USER: genes 32 Torsion [CA]-CB--CG-[CD] |==|  0.46218
USER: genes 33 Torsion [CB]-CG--CD-[NE] |==|  0.55552
USER: genes 34 Torsion [CG]-CD--NE-[CZ] |==|  0.25583
ROOT
ATOM      1  CA  ARG B   6       1.104   7.149   9.140  1.00 51.45 LIG 0.18  C 
ENDROOT
BRANCH 1 2
ATOM      2  N   ARG B   6       2.174   8.104   9.400  1.00 51.69 LIG-0.35  N 
ATOM      3 H    ARG B   6       2.504   8.469   8.695  1.00 51.69 LIG 0.16  HD
ATOM      4  C   LYS B   5       2.585   8.369  10.631  1.00 56.23 LIG 0.24  C 
ATOM      5 O    LYS B   5       2.095   7.841  11.615  1.00 55.49 LIG-0.27  OA
BRANCH 4 6
ATOM      6  CA  LYS B   5       3.703   9.384  10.786  1.00 54.66 LIG 0.18  C 
BRANCH 6 7
ATOM      7  N   LYS B   5       4.251   9.210  12.116  1.00 56.15 LIG-0.35  N 
ATOM      8 H    LYS B   5       4.031   9.834  12.665  1.00 56.15 LIG 0.16  HD
ATOM      9  C   ARG B   4       5.018   8.186  12.451  1.00 62.85 LIG 0.26  C 
ATOM     10 O    ARG B   4       5.227   7.229  11.715  1.00 61.66 LIG-0.27  OA
BRANCH 9 11
ATOM     11  CA  ARG B   4       5.628   8.249  13.842  1.00 63.68 LIG 0.40  C 
ATOM     12  N   ARG B   4       5.199   7.084  14.590  1.00 64.21 LIG 0.61  N 
BRANCH 11 13
ATOM     13  CB  ARG B   4       7.162   8.317  13.758  1.00 20.00 LIG 0.05  C 
BRANCH 13 14
ATOM     14  CG  ARG B   4       7.762   9.672  14.134  1.00 20.00 LIG 0.02  C 
BRANCH 14 15
ATOM     15  CD  ARG B   4       6.852  10.852  13.725  1.00 20.00 LIG 0.14  C 
BRANCH 15 16
ATOM     16  NE  ARG B   4       7.464  11.749  12.737  1.00 20.00 LIG-0.23  N 
ATOM     17  CZ  ARG B   4       6.846  12.787  12.169  1.00 20.00 LIG 0.67  C 
ATOM     18  NH2 ARG B   4       7.480  13.540  11.282  1.00 20.00 LIG-0.23  N 
ATOM     19  NH1 ARG B   4       5.599  13.084  12.488  1.00 20.00 LIG-0.23  N 
ATOM     20 2HH2 ARG B   4       7.077  14.207  10.919  1.00 20.00 LIG 0.17  HD
ATOM     21 1HH2 ARG B   4       8.293  13.360  11.069  1.00 20.00 LIG 0.17  HD
ATOM     22 1HH1 ARG B   4       5.178  12.606  13.066  1.00 20.00 LIG 0.17  HD
ATOM     23 2HH1 ARG B   4       5.209  13.754  12.117  1.00 20.00 LIG 0.17  HD
ATOM     24 HE   ARG B   4       8.279  11.595  12.509  1.00 20.00 LIG 0.18  HD
ENDBRANCH 15 16
ENDBRANCH 14 15
ENDBRANCH 13 14
ENDBRANCH 11 13
ENDBRANCH 9 11
ENDBRANCH 6 7
BRANCH 6 25
ATOM     25  CB  LYS B   5       4.778   9.156   9.728  1.00 20.00 LIG 0.04  C 
BRANCH 25 26
ATOM     26  CG  LYS B   5       5.632  10.369   9.442  1.00 20.00 LIG 0.00  C 
BRANCH 26 27
ATOM     27  CD  LYS B   5       5.220  11.034   8.137  1.00 20.00 LIG 0.03  C 
BRANCH 27 28
ATOM     28  CE  LYS B   5       5.930  12.364   7.945  1.00 20.00 LIG 0.23  C 
BRANCH 28 29
ATOM     29  NZ  LYS B   5       5.308  13.459   8.717  1.00 20.00 LIG-0.08  N 
ATOM     30 HZ2  LYS B   5       5.542  14.242   8.364  1.00 20.00 LIG 0.27  HD
ATOM     31 HZ3  LYS B   5       4.422  13.376   8.690  1.00 20.00 LIG 0.27  HD
ATOM     32 HZ1  LYS B   5       5.584  13.420   9.562  1.00 20.00 LIG 0.27  HD
ENDBRANCH 28 29
ENDBRANCH 27 28
ENDBRANCH 26 27
ENDBRANCH 25 26
ENDBRANCH 6 25
ENDBRANCH 4 6
ENDBRANCH 1 2
BRANCH 1 33
ATOM     33  C   ARG B   6       1.629   5.724   9.219  1.00 52.50 LIG 0.24  C 
ATOM     34  N   LYS B   7       2.815   5.499   8.672  1.00 47.60 LIG-0.35  N 
ATOM     35 H    LYS B   7       3.258   6.083   8.222  1.00 47.60 LIG 0.16  HD
ATOM     36 O    ARG B   6       0.978   4.850   9.776  1.00 51.14 LIG-0.27  OA
BRANCH 34 37
ATOM     37  CA  LYS B   7       3.471   4.206   8.796  1.00 46.86 LIG 0.18  C 
BRANCH 37 38
ATOM     38  CB  LYS B   7       3.417   3.703  10.238  1.00 20.00 LIG 0.04  C 
BRANCH 38 39
ATOM     39  CG  LYS B   7       2.739   2.371  10.411  1.00 20.00 LIG 0.00  C 
BRANCH 39 40
ATOM     40  CD  LYS B   7       1.587   2.446  11.410  1.00 20.00 LIG 0.03  C 
BRANCH 40 41
ATOM     41  CE  LYS B   7       0.290   1.928  10.802  1.00 20.00 LIG 0.23  C 
BRANCH 41 42
ATOM     42  NZ  LYS B   7       0.505   0.710   9.966  1.00 20.00 LIG-0.08  N 
ATOM     43 HZ2  LYS B   7      -0.043   0.063  10.238  1.00 20.00 LIG 0.27  HD
ATOM     44 HZ1  LYS B   7       1.349   0.438  10.050  1.00 20.00 LIG 0.27  HD
ATOM     45 HZ3  LYS B   7       0.338   0.901   9.113  1.00 20.00 LIG 0.27  HD
ENDBRANCH 41 42
ENDBRANCH 40 41
ENDBRANCH 39 40
ENDBRANCH 38 39
ENDBRANCH 37 38
BRANCH 37 46
ATOM     46  C   LYS B   7       2.791   3.195   7.885  1.00 48.01 LIG 0.24  C 
ATOM     47 O    LYS B   7       1.574   3.138   7.814  1.00 46.73 LIG-0.27  OA
ATOM     48  N   PHE B   8       3.592   2.400   7.191  1.00 43.62 LIG-0.35  N 
ATOM     49 H    PHE B   8       4.447   2.486   7.169  1.00 43.62 LIG 0.16  HD
BRANCH 48 50
ATOM     50  CA  PHE B   8       3.086   1.296   6.393  1.00 44.29 LIG 0.18  C 
BRANCH 50 51
ATOM     51  C   PHE B   8       2.405   0.317   7.348  1.00 70.57 LIG 0.24  C 
ATOM     52  N   SER B   9       1.465  -0.457   6.820  1.00 30.00 LIG-0.34  N 
ATOM     53 H    SER B   9       1.270  -0.473   5.983  1.00 30.00 LIG 0.16  HD
ATOM     54 O    PHE B   8       2.694   0.287   8.538  1.00 41.97 LIG-0.27  OA
BRANCH 52 55
ATOM     55  CA  SER B   9       0.672  -1.361   7.645  1.00 30.00 LIG 0.19  C 
BRANCH 55 56
ATOM     56  CB  SER B   9      -0.413  -2.033   6.802  1.00 20.00 LIG 0.20  C 
BRANCH 56 57
ATOM     57 OG   SER B   9      -1.304  -1.075   6.259  1.00 20.00 LIG-0.40  OA
ATOM     58 HG   SER B   9      -1.548  -0.544   6.863  1.00 20.00 LIG 0.21  HD
ENDBRANCH 56 57
ENDBRANCH 55 56
BRANCH 55 59
ATOM     59  C   SER B   9       1.524  -2.422   8.323  1.00 30.00 LIG 0.22  C 
ATOM     60 O    SER B   9       2.110  -2.176   9.372  1.00 30.00 LIG-0.29  OA
ENDBRANCH 55 59
ENDBRANCH 52 55
ENDBRANCH 50 51
BRANCH 50 61
ATOM     61  CB  PHE B   8       4.226   0.633   5.624  1.00 20.00 LIG 0.07  C 
BRANCH 61 62
ATOM     62  CG  PHE B   8       4.710  -0.657   6.224  1.00 20.00 LIG-0.06  A 
ATOM     63  CD1 PHE B   8       4.196  -1.865   5.824  1.00 20.00 LIG 0.01  A 
ATOM     64  CE1 PHE B   8       4.650  -3.044   6.393  1.00 20.00 LIG 0.00  A 
ATOM     65  CZ  PHE B   8       5.623  -3.012   7.371  1.00 20.00 LIG 0.00  A 
ATOM     66  CE2 PHE B   8       6.130  -1.825   7.775  1.00 20.00 LIG 0.00  A 
ATOM     67  CD2 PHE B   8       5.681  -0.652   7.205  1.00 20.00 LIG 0.01  A 
ENDBRANCH 61 62
ENDBRANCH 50 61
ENDBRANCH 48 50
ENDBRANCH 37 46
ENDBRANCH 34 37
ENDBRANCH 1 33
BRANCH 1 68
ATOM     68  CB  ARG B   6       0.473   7.371   7.753  1.00 20.00 LIG 0.04  C 
BRANCH 68 69
ATOM     69  CG  ARG B   6      -0.323   6.206   7.165  1.00 20.00 LIG 0.02  C 
BRANCH 69 70
ATOM     70  CD  ARG B   6      -1.148   6.704   5.971  1.00 20.00 LIG 0.14  C 
BRANCH 70 71
ATOM     71  NE  ARG B   6      -2.276   5.842   5.610  1.00 20.00 LIG-0.23  N 
ATOM     72  CZ  ARG B   6      -3.509   6.000   6.087  1.00 20.00 LIG 0.67  C 
ATOM     73  NH1 ARG B   6      -3.763   6.990   6.929  1.00 20.00 LIG-0.23  N 
ATOM     74  NH2 ARG B   6      -4.492   5.179   5.724  1.00 20.00 LIG-0.23  N 
ATOM     75 1HH1 ARG B   6      -3.133   7.525   7.166  1.00 20.00 LIG 0.17  HD
ATOM     76 2HH1 ARG B   6      -4.557   7.097   7.240  1.00 20.00 LIG 0.17  HD
ATOM     77 1HH2 ARG B   6      -4.334   4.536   5.176  1.00 20.00 LIG 0.17  HD
ATOM     78 2HH2 ARG B   6      -5.284   5.291   6.039  1.00 20.00 LIG 0.17  HD
ATOM     79 HE   ARG B   6      -2.134   5.197   5.059  1.00 20.00 LIG 0.18  HD
ENDBRANCH 70 71
ENDBRANCH 69 70
ENDBRANCH 68 69
ENDBRANCH 1 68
TORSDOF 33
ENDMDL
MODEL 20
USER: ADFR SOLUTION from run 74
USER: SCORE 20.579079 LL:  -2.128 LR: -20.884 RR:   0.000 FEB: -11.040
USER: RMSD 12.094654
USER: SEED 73
USER: STATUS no improvement in best in 20 clusters for 5 generations
USER: GENES 35
USER: genes 0 Translation |==|  0.69518 0.53463 0.65911
USER: genes 1 Rotation |==|  0.26989 0.12372 0.26516 0.51766
USER: genes 2 Torsion [C]-CA--N-[C] |==|  0.55777
USER: genes 3 Torsion [N]-C--CA-[N] |==|  0.71094
USER: genes 4 Torsion [C]-CA--N-[C] |==|  0.67974
USER: genes 5 Torsion [N]-C--CA-[N] |==|  0.16959
USER: genes 6 Torsion [C]-CA--CB-[CG] |==|  0.26768
USER: genes 7 Torsion [CA]-CB--CG-[CD] |==|  0.95124
USER: genes 8 Torsion [CB]-CG--CD-[NE] |==|  0.44698
USER: genes 9 Torsion [CG]-CD--NE-[HE] |==|  0.77076
USER: genes 10 Torsion [C]-CA--CB-[CG] |==|  0.26582
USER: genes 11 Torsion [CA]-CB--CG-[CD] |==|  0.68765
USER: genes 12 Torsion [CB]-CG--CD-[CE] |==|  0.50057
USER: genes 13 Torsion [CG]-CD--CE-[NZ] |==|  0.51498
USER: genes 14 Torsion [CD]-CE--NZ-[HZ2] |==|  0.83214
USER: genes 15 Torsion [N]-CA--C-[N] |==|  0.42809
USER: genes 16 Torsion [C]-N--CA-[CB] |==|  0.85167
USER: genes 17 Torsion [N]-CA--CB-[CG] |==|  0.45439
USER: genes 18 Torsion [CA]-CB--CG-[CD] |==|  0.49517
USER: genes 19 Torsion [CB]-CG--CD-[CE] |==|  0.96754
USER: genes 20 Torsion [CG]-CD--CE-[NZ] |==|  0.66196
USER: genes 21 Torsion [CD]-CE--NZ-[HZ1] |==|  0.89626
USER: genes 22 Torsion [N]-CA--C-[N] |==|  0.30177
USER: genes 23 Torsion [C]-N--CA-[C] |==|  0.18982
USER: genes 24 Torsion [N]-CA--C-[N] |==|  0.41975
USER: genes 25 Torsion [C]-N--CA-[CB] |==|  0.26599
USER: genes 26 Torsion [N]-CA--CB-[OG] |==|  0.28795
USER: genes 27 Torsion [CA]-CB--OG-[HG] |==|  0.24882
USER: genes 28 Torsion [N]-CA--C-[O] |==|  0.50779
USER: genes 29 Torsion [N]-CA--CB-[CG] |==|  0.47932
USER: genes 30 Torsion [CA]-CB--CG-[CD2] |==|  0.14763
USER: genes 31 Torsion [N]-CA--CB-[CG] |==|  0.14439
USER: genes 32 Torsion [CA]-CB--CG-[CD] |==|  0.23764
USER: genes 33 Torsion [CB]-CG--CD-[NE] |==|  0.32784
USER: genes 34 Torsion [CG]-CD--NE-[CZ] |==|  0.66808
ROOT
ATOM      1  CA  ARG B   6       5.543   8.019  13.937  1.00 51.45 LIG 0.18  C 
ENDROOT
BRANCH 1 2
ATOM      2  N   ARG B   6       6.561   6.976  13.968  1.00 51.69 LIG-0.35  N 
ATOM      3 H    ARG B   6       6.939   6.827  13.211  1.00 51.69 LIG 0.16  HD
ATOM      4  C   LYS B   5       6.859   6.329  15.085  1.00 56.23 LIG 0.24  C 
ATOM      5 O    LYS B   5       6.310   6.565  16.147  1.00 55.49 LIG-0.27  OA
BRANCH 4 6
ATOM      6  CA  LYS B   5       7.939   5.266  15.003  1.00 54.66 LIG 0.18  C 
BRANCH 6 7
ATOM      7  N   LYS B   5       7.271   3.981  15.020  1.00 56.15 LIG-0.35  N 
ATOM      8 H    LYS B   5       6.771   3.842  14.335  1.00 56.15 LIG 0.16  HD
ATOM      9  C   ARG B   4       7.416   3.106  16.001  1.00 62.85 LIG 0.26  C 
ATOM     10 O    ARG B   4       8.223   3.241  16.914  1.00 61.66 LIG-0.27  OA
BRANCH 9 11
ATOM     11  CA  ARG B   4       6.520   1.881  15.929  1.00 63.68 LIG 0.40  C 
ATOM     12  N   ARG B   4       6.816   1.161  14.706  1.00 64.21 LIG 0.61  N 
BRANCH 11 13
ATOM     13  CB  ARG B   4       6.725   0.985  17.161  1.00 20.00 LIG 0.05  C 
BRANCH 13 14
ATOM     14  CG  ARG B   4       5.711   1.201  18.284  1.00 20.00 LIG 0.02  C 
BRANCH 14 15
ATOM     15  CD  ARG B   4       4.963   2.547  18.149  1.00 20.00 LIG 0.14  C 
BRANCH 15 16
ATOM     16  NE  ARG B   4       3.710   2.599  18.912  1.00 20.00 LIG-0.23  N 
ATOM     17  CZ  ARG B   4       3.581   3.148  20.122  1.00 20.00 LIG 0.67  C 
ATOM     18  NH2 ARG B   4       2.408   3.144  20.738  1.00 20.00 LIG-0.23  N 
ATOM     19  NH1 ARG B   4       4.617   3.709  20.720  1.00 20.00 LIG-0.23  N 
ATOM     20 2HH2 ARG B   4       2.331   3.499  21.517  1.00 20.00 LIG 0.17  HD
ATOM     21 1HH2 ARG B   4       1.725   2.786  20.358  1.00 20.00 LIG 0.17  HD
ATOM     22 1HH1 ARG B   4       5.383   3.723  20.330  1.00 20.00 LIG 0.17  HD
ATOM     23 2HH1 ARG B   4       4.525   4.060  21.500  1.00 20.00 LIG 0.17  HD
ATOM     24 HE   ARG B   4       3.010   2.252  18.554  1.00 20.00 LIG 0.18  HD
ENDBRANCH 15 16
ENDBRANCH 14 15
ENDBRANCH 13 14
ENDBRANCH 11 13
ENDBRANCH 9 11
ENDBRANCH 6 7
BRANCH 6 25
ATOM     25  CB  LYS B   5       8.752   5.432  13.722  1.00 20.00 LIG 0.04  C 
BRANCH 25 26
ATOM     26  CG  LYS B   5      10.027   6.224  13.896  1.00 20.00 LIG 0.00  C 
BRANCH 26 27
ATOM     27  CD  LYS B   5       9.950   7.554  13.163  1.00 20.00 LIG 0.03  C 
BRANCH 27 28
ATOM     28  CE  LYS B   5      11.232   8.353  13.330  1.00 20.00 LIG 0.23  C 
BRANCH 28 29
ATOM     29  NZ  LYS B   5      11.142   9.703  12.737  1.00 20.00 LIG-0.08  N 
ATOM     30 HZ2  LYS B   5      10.982   9.634  11.864  1.00 20.00 LIG 0.27  HD
ATOM     31 HZ3  LYS B   5      10.481  10.155  13.125  1.00 20.00 LIG 0.27  HD
ATOM     32 HZ1  LYS B   5      11.910  10.134  12.864  1.00 20.00 LIG 0.27  HD
ENDBRANCH 28 29
ENDBRANCH 27 28
ENDBRANCH 26 27
ENDBRANCH 25 26
ENDBRANCH 6 25
ENDBRANCH 4 6
ENDBRANCH 1 2
BRANCH 1 33
ATOM     33  C   ARG B   6       5.039   8.232  12.519  1.00 52.50 LIG 0.24  C 
ATOM     34  N   LYS B   7       3.812   8.718  12.393  1.00 47.60 LIG-0.35  N 
ATOM     35 H    LYS B   7       3.274   8.846  13.051  1.00 47.60 LIG 0.16  HD
ATOM     36 O    ARG B   6       5.753   7.975  11.559  1.00 51.14 LIG-0.27  OA
BRANCH 34 37
ATOM     37  CA  LYS B   7       3.273   9.080  11.091  1.00 46.86 LIG 0.18  C 
BRANCH 37 38
ATOM     38  CB  LYS B   7       4.208  10.042  10.361  1.00 20.00 LIG 0.04  C 
BRANCH 38 39
ATOM     39  CG  LYS B   7       3.947  10.169   8.884  1.00 20.00 LIG 0.00  C 
BRANCH 39 40
ATOM     40  CD  LYS B   7       4.887  11.176   8.225  1.00 20.00 LIG 0.03  C 
BRANCH 40 41
ATOM     41  CE  LYS B   7       5.642  11.994   9.264  1.00 20.00 LIG 0.23  C 
BRANCH 41 42
ATOM     42  NZ  LYS B   7       5.399  13.459   9.113  1.00 20.00 LIG-0.08  N 
ATOM     43 HZ2  LYS B   7       4.636  13.677   9.516  1.00 20.00 LIG 0.27  HD
ATOM     44 HZ1  LYS B   7       5.347  13.664   8.248  1.00 20.00 LIG 0.27  HD
ATOM     45 HZ3  LYS B   7       6.070  13.911   9.485  1.00 20.00 LIG 0.27  HD
ENDBRANCH 41 42
ENDBRANCH 40 41
ENDBRANCH 39 40
ENDBRANCH 38 39
ENDBRANCH 37 38
BRANCH 37 46
ATOM     46  C   LYS B   7       3.082   7.828  10.248  1.00 48.01 LIG 0.24  C 
ATOM     47 O    LYS B   7       4.044   7.224   9.799  1.00 46.73 LIG-0.27  OA
ATOM     48  N   PHE B   8       1.831   7.446  10.040  1.00 43.62 LIG-0.35  N 
ATOM     49 H    PHE B   8       1.151   7.813  10.418  1.00 43.62 LIG 0.16  HD
BRANCH 48 50
ATOM     50  CA  PHE B   8       1.492   6.356   9.139  1.00 44.29 LIG 0.18  C 
BRANCH 50 51
ATOM     51  C   PHE B   8       2.005   5.065   9.774  1.00 70.57 LIG 0.24  C 
ATOM     52  N   SER B   9       1.333   3.960   9.475  1.00 30.00 LIG-0.34  N 
ATOM     53 H    SER B   9       0.682   3.930   8.913  1.00 30.00 LIG 0.16  HD
ATOM     54 O    PHE B   8       2.959   5.070  10.543  1.00 41.97 LIG-0.27  OA
BRANCH 52 55
ATOM     55  CA  SER B   9       1.659   2.680  10.094  1.00 30.00 LIG 0.19  C 
BRANCH 55 56
ATOM     56  CB  SER B   9       0.750   2.427  11.298  1.00 20.00 LIG 0.20  C 
BRANCH 56 57
ATOM     57 OG   SER B   9      -0.260   1.484  10.986  1.00 20.00 LIG-0.40  OA
ATOM     58 HG   SER B   9       0.018   0.709  11.154  1.00 20.00 LIG 0.21  HD
ENDBRANCH 56 57
ENDBRANCH 55 56
BRANCH 55 59
ATOM     59  C   SER B   9       1.549   1.521   9.117  1.00 30.00 LIG 0.22  C 
ATOM     60 O    SER B   9       1.740   0.370   9.490  1.00 30.00 LIG-0.29  OA
ENDBRANCH 55 59
ENDBRANCH 52 55
ENDBRANCH 50 51
BRANCH 50 61
ATOM     61  CB  PHE B   8       2.112   6.594   7.764  1.00 20.00 LIG 0.07  C 
BRANCH 61 62
ATOM     62  CG  PHE B   8       1.968   5.440   6.812  1.00 20.00 LIG-0.06  A 
ATOM     63  CD1 PHE B   8       3.057   4.912   6.165  1.00 20.00 LIG 0.01  A 
ATOM     64  CE1 PHE B   8       2.906   3.852   5.286  1.00 20.00 LIG 0.00  A 
ATOM     65  CZ  PHE B   8       1.654   3.319   5.051  1.00 20.00 LIG 0.00  A 
ATOM     66  CE2 PHE B   8       0.575   3.839   5.680  1.00 20.00 LIG 0.00  A 
ATOM     67  CD2 PHE B   8       0.728   4.891   6.559  1.00 20.00 LIG 0.01  A 
ENDBRANCH 61 62
ENDBRANCH 50 61
ENDBRANCH 48 50
ENDBRANCH 37 46
ENDBRANCH 34 37
ENDBRANCH 1 33
BRANCH 1 68
ATOM     68  CB  ARG B   6       6.085   9.354  14.480  1.00 20.00 LIG 0.04  C 
BRANCH 68 69
ATOM     69  CG  ARG B   6       7.389   9.868  13.866  1.00 20.00 LIG 0.02  C 
BRANCH 69 70
ATOM     70  CD  ARG B   6       7.073  10.661  12.592  1.00 20.00 LIG 0.14  C 
BRANCH 70 71
ATOM     71  NE  ARG B   6       7.470  12.071  12.641  1.00 20.00 LIG-0.23  N 
ATOM     72  CZ  ARG B   6       6.616  13.085  12.518  1.00 20.00 LIG 0.67  C 
ATOM     73  NH1 ARG B   6       5.326  12.836  12.351  1.00 20.00 LIG-0.23  N 
ATOM     74  NH2 ARG B   6       7.041  14.345  12.565  1.00 20.00 LIG-0.23  N 
ATOM     75 1HH1 ARG B   6       5.045  12.024  12.322  1.00 20.00 LIG 0.17  HD
ATOM     76 2HH1 ARG B   6       4.769  13.487  12.272  1.00 20.00 LIG 0.17  HD
ATOM     77 1HH2 ARG B   6       7.877  14.513  12.676  1.00 20.00 LIG 0.17  HD
ATOM     78 2HH2 ARG B   6       6.479  14.991  12.485  1.00 20.00 LIG 0.17  HD
ATOM     79 HE   ARG B   6       8.303  12.254  12.755  1.00 20.00 LIG 0.18  HD
ENDBRANCH 70 71
ENDBRANCH 69 70
ENDBRANCH 68 69
ENDBRANCH 1 68
TORSDOF 33
ENDMDL
MODEL 21
USER: ADFR SOLUTION from run 176
USER: SCORE 21.454533 LL:  -2.676 LR: -20.861 RR:   0.000 FEB: -11.017
USER: RMSD 6.258118
USER: SEED 175
USER: STATUS no improvement in best in 10 clusters for 5 generations
USER: GENES 35
USER: genes 0 Translation |==|  0.51466 0.47492 0.44694
USER: genes 1 Rotation |==|  0.56307 0.94650 0.30610 0.59520
USER: genes 2 Torsion [C]-CA--N-[C] |==|  0.74389
USER: genes 3 Torsion [N]-C--CA-[N] |==|  0.15434
USER: genes 4 Torsion [C]-CA--N-[C] |==|  0.70678
USER: genes 5 Torsion [N]-C--CA-[N] |==|  0.75073
USER: genes 6 Torsion [C]-CA--CB-[CG] |==|  0.13198
USER: genes 7 Torsion [CA]-CB--CG-[CD] |==|  0.25357
USER: genes 8 Torsion [CB]-CG--CD-[NE] |==|  0.32845
USER: genes 9 Torsion [CG]-CD--NE-[HE] |==|  0.98280
USER: genes 10 Torsion [C]-CA--CB-[CG] |==|  0.51043
USER: genes 11 Torsion [CA]-CB--CG-[CD] |==|  0.37926
USER: genes 12 Torsion [CB]-CG--CD-[CE] |==|  0.56230
USER: genes 13 Torsion [CG]-CD--CE-[NZ] |==|  0.45350
USER: genes 14 Torsion [CD]-CE--NZ-[HZ2] |==|  0.23583
USER: genes 15 Torsion [N]-CA--C-[N] |==|  0.88856
USER: genes 16 Torsion [C]-N--CA-[CB] |==|  0.25849
USER: genes 17 Torsion [N]-CA--CB-[CG] |==|  0.57879
USER: genes 18 Torsion [CA]-CB--CG-[CD] |==|  0.59118
USER: genes 19 Torsion [CB]-CG--CD-[CE] |==|  0.60911
USER: genes 20 Torsion [CG]-CD--CE-[NZ] |==|  0.22318
USER: genes 21 Torsion [CD]-CE--NZ-[HZ1] |==|  0.28061
USER: genes 22 Torsion [N]-CA--C-[N] |==|  0.48522
USER: genes 23 Torsion [C]-N--CA-[C] |==|  0.56224
USER: genes 24 Torsion [N]-CA--C-[N] |==|  0.45946
USER: genes 25 Torsion [C]-N--CA-[CB] |==|  0.38692
USER: genes 26 Torsion [N]-CA--CB-[OG] |==|  0.73972
USER: genes 27 Torsion [CA]-CB--OG-[HG] |==|  0.88554
USER: genes 28 Torsion [N]-CA--C-[O] |==|  0.06130
USER: genes 29 Torsion [N]-CA--CB-[CG] |==|  0.16462
USER: genes 30 Torsion [CA]-CB--CG-[CD2] |==|  0.38720
USER: genes 31 Torsion [N]-CA--CB-[CG] |==|  0.68190
USER: genes 32 Torsion [CA]-CB--CG-[CD] |==|  0.67480
USER: genes 33 Torsion [CB]-CG--CD-[NE] |==|  0.35831
USER: genes 34 Torsion [CG]-CD--NE-[CZ] |==|  0.47877
ROOT
ATOM      1  CA  ARG B   6       1.075   6.407   9.004  1.00 51.45 LIG 0.18  C 
ENDROOT
BRANCH 1 2
ATOM      2  N   ARG B   6       2.334   7.020   9.408  1.00 51.69 LIG-0.35  N 
ATOM      3 H    ARG B   6       2.978   6.909   8.849  1.00 51.69 LIG 0.16  HD
ATOM      4  C   LYS B   5       2.449   7.688  10.546  1.00 56.23 LIG 0.24  C 
ATOM      5 O    LYS B   5       1.516   7.836  11.317  1.00 55.49 LIG-0.27  OA
BRANCH 4 6
ATOM      6  CA  LYS B   5       3.805   8.290  10.864  1.00 54.66 LIG 0.18  C 
BRANCH 6 7
ATOM      7  N   LYS B   5       4.164   9.137   9.745  1.00 56.15 LIG-0.35  N 
ATOM      8 H    LYS B   5       3.729   9.877   9.718  1.00 56.15 LIG 0.16  HD
ATOM      9  C   ARG B   4       5.077   8.800   8.849  1.00 62.85 LIG 0.26  C 
ATOM     10 O    ARG B   4       5.792   7.809   8.953  1.00 61.66 LIG-0.27  OA
BRANCH 9 11
ATOM     11  CA  ARG B   4       5.212   9.737   7.661  1.00 63.68 LIG 0.40  C 
ATOM     12  N   ARG B   4       4.308   9.296   6.617  1.00 64.21 LIG 0.61  N 
BRANCH 11 13
ATOM     13  CB  ARG B   4       4.911  11.186   8.076  1.00 20.00 LIG 0.05  C 
BRANCH 13 14
ATOM     14  CG  ARG B   4       5.617  11.645   9.352  1.00 20.00 LIG 0.02  C 
BRANCH 14 15
ATOM     15  CD  ARG B   4       6.984  12.304   9.062  1.00 20.00 LIG 0.14  C 
BRANCH 15 16
ATOM     16  NE  ARG B   4       7.061  13.707   9.487  1.00 20.00 LIG-0.23  N 
ATOM     17  CZ  ARG B   4       8.169  14.451   9.452  1.00 20.00 LIG 0.67  C 
ATOM     18  NH2 ARG B   4       8.143  15.710   9.863  1.00 20.00 LIG-0.23  N 
ATOM     19  NH1 ARG B   4       9.303  13.947   9.001  1.00 20.00 LIG-0.23  N 
ATOM     20 2HH2 ARG B   4       8.859  16.185   9.838  1.00 20.00 LIG 0.17  HD
ATOM     21 1HH2 ARG B   4       7.409  16.052  10.154  1.00 20.00 LIG 0.17  HD
ATOM     22 1HH1 ARG B   4       9.333  13.132   8.727  1.00 20.00 LIG 0.17  HD
ATOM     23 2HH1 ARG B   4      10.012  14.433   8.982  1.00 20.00 LIG 0.17  HD
ATOM     24 HE   ARG B   4       6.341  14.075   9.780  1.00 20.00 LIG 0.18  HD
ENDBRANCH 15 16
ENDBRANCH 14 15
ENDBRANCH 13 14
ENDBRANCH 11 13
ENDBRANCH 9 11
ENDBRANCH 6 7
BRANCH 6 25
ATOM     25  CB  LYS B   5       3.737   9.104  12.153  1.00 20.00 LIG 0.04  C 
BRANCH 25 26
ATOM     26  CG  LYS B   5       5.022   9.817  12.504  1.00 20.00 LIG 0.00  C 
BRANCH 26 27
ATOM     27  CD  LYS B   5       4.749  11.238  12.970  1.00 20.00 LIG 0.03  C 
BRANCH 27 28
ATOM     28  CE  LYS B   5       5.975  12.121  12.802  1.00 20.00 LIG 0.23  C 
BRANCH 28 29
ATOM     29  NZ  LYS B   5       5.652  13.562  12.863  1.00 20.00 LIG-0.08  N 
ATOM     30 HZ2  LYS B   5       5.635  13.826  13.713  1.00 20.00 LIG 0.27  HD
ATOM     31 HZ3  LYS B   5       6.272  14.024  12.422  1.00 20.00 LIG 0.27  HD
ATOM     32 HZ1  LYS B   5       4.857  13.704  12.492  1.00 20.00 LIG 0.27  HD
ENDBRANCH 28 29
ENDBRANCH 27 28
ENDBRANCH 26 27
ENDBRANCH 25 26
ENDBRANCH 6 25
ENDBRANCH 4 6
ENDBRANCH 1 2
BRANCH 1 33
ATOM     33  C   ARG B   6       1.008   4.964   9.477  1.00 52.50 LIG 0.24  C 
ATOM     34  N   LYS B   7       2.125   4.257   9.381  1.00 47.60 LIG-0.35  N 
ATOM     35 H    LYS B   7       2.846   4.541   9.008  1.00 47.60 LIG 0.16  HD
ATOM     36 O    ARG B   6      -0.032   4.505   9.932  1.00 51.14 LIG-0.27  OA
BRANCH 34 37
ATOM     37  CA  LYS B   7       2.213   2.907   9.917  1.00 46.86 LIG 0.18  C 
BRANCH 37 38
ATOM     38  CB  LYS B   7       1.878   1.871   8.846  1.00 20.00 LIG 0.04  C 
BRANCH 38 39
ATOM     39  CG  LYS B   7       1.293   0.589   9.376  1.00 20.00 LIG 0.00  C 
BRANCH 39 40
ATOM     40  CD  LYS B   7       1.703  -0.614   8.531  1.00 20.00 LIG 0.03  C 
BRANCH 40 41
ATOM     41  CE  LYS B   7       0.551  -1.596   8.365  1.00 20.00 LIG 0.23  C 
BRANCH 41 42
ATOM     42  NZ  LYS B   7      -0.408  -1.166   7.305  1.00 20.00 LIG-0.08  N 
ATOM     43 HZ2  LYS B   7      -1.241  -1.317   7.579  1.00 20.00 LIG 0.27  HD
ATOM     44 HZ1  LYS B   7      -0.253  -1.627   6.559  1.00 20.00 LIG 0.27  HD
ATOM     45 HZ3  LYS B   7      -0.302  -0.297   7.144  1.00 20.00 LIG 0.27  HD
ENDBRANCH 41 42
ENDBRANCH 40 41
ENDBRANCH 39 40
ENDBRANCH 38 39
ENDBRANCH 37 38
BRANCH 37 46
ATOM     46  C   LYS B   7       3.618   2.653  10.441  1.00 48.01 LIG 0.24  C 
ATOM     47 O    LYS B   7       4.501   3.482  10.289  1.00 46.73 LIG-0.27  OA
ATOM     48  N   PHE B   8       3.813   1.497  11.060  1.00 43.62 LIG-0.35  N 
ATOM     49 H    PHE B   8       3.183   0.944  11.246  1.00 43.62 LIG 0.16  HD
BRANCH 48 50
ATOM     50  CA  PHE B   8       5.133   1.058  11.484  1.00 44.29 LIG 0.18  C 
BRANCH 50 51
ATOM     51  C   PHE B   8       5.085  -0.462  11.622  1.00 70.57 LIG 0.24  C 
ATOM     52  N   SER B   9       6.256  -1.079  11.707  1.00 30.00 LIG-0.34  N 
ATOM     53 H    SER B   9       7.013  -0.671  11.747  1.00 30.00 LIG 0.16  HD
ATOM     54 O    PHE B   8       4.019  -1.067  11.613  1.00 41.97 LIG-0.27  OA
BRANCH 52 55
ATOM     55  CA  SER B   9       6.350  -2.534  11.741  1.00 30.00 LIG 0.19  C 
BRANCH 55 56
ATOM     56  CB  SER B   9       7.527  -3.009  10.886  1.00 20.00 LIG 0.20  C 
BRANCH 56 57
ATOM     57 OG   SER B   9       7.107  -3.324   9.570  1.00 20.00 LIG-0.40  OA
ATOM     58 HG   SER B   9       6.372  -3.731   9.599  1.00 20.00 LIG 0.21  HD
ENDBRANCH 56 57
ENDBRANCH 55 56
BRANCH 55 59
ATOM     59  C   SER B   9       6.495  -3.071  13.156  1.00 30.00 LIG 0.22  C 
ATOM     60 O    SER B   9       6.132  -2.404  14.117  1.00 30.00 LIG-0.29  OA
ENDBRANCH 55 59
ENDBRANCH 52 55
ENDBRANCH 50 51
BRANCH 50 61
ATOM     61  CB  PHE B   8       5.517   1.732  12.799  1.00 20.00 LIG 0.07  C 
BRANCH 61 62
ATOM     62  CG  PHE B   8       4.573   1.456  13.936  1.00 20.00 LIG-0.06  A 
ATOM     63  CD1 PHE B   8       3.214   1.444  13.745  1.00 20.00 LIG 0.01  A 
ATOM     64  CE1 PHE B   8       2.358   1.194  14.804  1.00 20.00 LIG 0.00  A 
ATOM     65  CZ  PHE B   8       2.867   0.956  16.066  1.00 20.00 LIG 0.00  A 
ATOM     66  CE2 PHE B   8       4.205   0.973  16.264  1.00 20.00 LIG 0.00  A 
ATOM     67  CD2 PHE B   8       5.056   1.218  15.206  1.00 20.00 LIG 0.01  A 
ENDBRANCH 61 62
ENDBRANCH 50 61
ENDBRANCH 48 50
ENDBRANCH 37 46
ENDBRANCH 34 37
ENDBRANCH 1 33
BRANCH 1 68
ATOM     68  CB  ARG B   6       0.895   6.439   7.475  1.00 20.00 LIG 0.04  C 
BRANCH 68 69
ATOM     69  CG  ARG B   6      -0.252   7.296   6.935  1.00 20.00 LIG 0.02  C 
BRANCH 69 70
ATOM     70  CD  ARG B   6      -1.262   6.396   6.213  1.00 20.00 LIG 0.14  C 
BRANCH 70 71
ATOM     71  NE  ARG B   6      -2.651   6.577   6.640  1.00 20.00 LIG-0.23  N 
ATOM     72  CZ  ARG B   6      -3.691   6.003   6.038  1.00 20.00 LIG 0.67  C 
ATOM     73  NH1 ARG B   6      -3.487   5.209   4.997  1.00 20.00 LIG-0.23  N 
ATOM     74  NH2 ARG B   6      -4.932   6.212   6.471  1.00 20.00 LIG-0.23  N 
ATOM     75 1HH1 ARG B   6      -2.688   5.068   4.714  1.00 20.00 LIG 0.17  HD
ATOM     76 2HH1 ARG B   6      -4.155   4.835   4.605  1.00 20.00 LIG 0.17  HD
ATOM     77 1HH2 ARG B   6      -5.070   6.725   7.147  1.00 20.00 LIG 0.17  HD
ATOM     78 2HH2 ARG B   6      -5.595   5.836   6.074  1.00 20.00 LIG 0.17  HD
ATOM     79 HE   ARG B   6      -2.805   7.084   7.318  1.00 20.00 LIG 0.18  HD
ENDBRANCH 70 71
ENDBRANCH 69 70
ENDBRANCH 68 69
ENDBRANCH 1 68
TORSDOF 33
ENDMDL
MODEL 22
USER: ADFR SOLUTION from run 121
USER: SCORE 21.879507 LL:  -2.651 LR: -20.828 RR:   0.000 FEB: -10.984
USER: RMSD 4.014112
USER: SEED 120
USER: STATUS no improvement in best in 1 clusters for 5 generations
USER: GENES 35
USER: genes 0 Translation |==|  0.52502 0.44701 0.42037
USER: genes 1 Rotation |==|  0.48655 0.47530 0.50555 0.99918
USER: genes 2 Torsion [C]-CA--N-[C] |==|  0.69276
USER: genes 3 Torsion [N]-C--CA-[N] |==|  0.47061
USER: genes 4 Torsion [C]-CA--N-[C] |==|  0.72283
USER: genes 5 Torsion [N]-C--CA-[N] |==|  0.69410
USER: genes 6 Torsion [C]-CA--CB-[CG] |==|  0.27585
USER: genes 7 Torsion [CA]-CB--CG-[CD] |==|  0.92445
USER: genes 8 Torsion [CB]-CG--CD-[NE] |==|  0.54454
USER: genes 9 Torsion [CG]-CD--NE-[HE] |==|  0.01384
USER: genes 10 Torsion [C]-CA--CB-[CG] |==|  0.60432
USER: genes 11 Torsion [CA]-CB--CG-[CD] |==|  0.71053
USER: genes 12 Torsion [CB]-CG--CD-[CE] |==|  0.55331
USER: genes 13 Torsion [CG]-CD--CE-[NZ] |==|  0.02925
USER: genes 14 Torsion [CD]-CE--NZ-[HZ2] |==|  0.06756
USER: genes 15 Torsion [N]-CA--C-[N] |==|  0.32222
USER: genes 16 Torsion [C]-N--CA-[CB] |==|  0.45001
USER: genes 17 Torsion [N]-CA--CB-[CG] |==|  0.34682
USER: genes 18 Torsion [CA]-CB--CG-[CD] |==|  0.35909
USER: genes 19 Torsion [CB]-CG--CD-[CE] |==|  0.33696
USER: genes 20 Torsion [CG]-CD--CE-[NZ] |==|  0.52801
USER: genes 21 Torsion [CD]-CE--NZ-[HZ1] |==|  0.76639
USER: genes 22 Torsion [N]-CA--C-[N] |==|  0.44576
USER: genes 23 Torsion [C]-N--CA-[C] |==|  0.70455
USER: genes 24 Torsion [N]-CA--C-[N] |==|  0.31672
USER: genes 25 Torsion [C]-N--CA-[CB] |==|  0.84009
USER: genes 26 Torsion [N]-CA--CB-[OG] |==|  0.77319
USER: genes 27 Torsion [CA]-CB--OG-[HG] |==|  0.62115
USER: genes 28 Torsion [N]-CA--C-[O] |==|  0.33133
USER: genes 29 Torsion [N]-CA--CB-[CG] |==|  0.52255
USER: genes 30 Torsion [CA]-CB--CG-[CD2] |==|  0.49503
USER: genes 31 Torsion [N]-CA--CB-[CG] |==|  0.85128
USER: genes 32 Torsion [CA]-CB--CG-[CD] |==|  0.50587
USER: genes 33 Torsion [CB]-CG--CD-[NE] |==|  0.05456
USER: genes 34 Torsion [CG]-CD--NE-[CZ] |==|  0.65983
ROOT
ATOM      1  CA  ARG B   6       1.331   5.653   8.387  1.00 51.45 LIG 0.18  C 
ENDROOT
BRANCH 1 2
ATOM      2  N   ARG B   6       0.108   6.219   7.830  1.00 51.69 LIG-0.35  N 
ATOM      3 H    ARG B   6      -0.424   6.558   8.414  1.00 51.69 LIG 0.16  HD
ATOM      4  C   LYS B   5      -0.137   6.198   6.528  1.00 56.23 LIG 0.24  C 
ATOM      5 O    LYS B   5       0.639   5.717   5.721  1.00 55.49 LIG-0.27  OA
BRANCH 4 6
ATOM      6  CA  LYS B   5      -1.439   6.821   6.058  1.00 54.66 LIG 0.18  C 
BRANCH 6 7
ATOM      7  N   LYS B   5      -1.368   6.908   4.614  1.00 56.15 LIG-0.35  N 
ATOM      8 H    LYS B   5      -1.545   6.169   4.213  1.00 56.15 LIG 0.16  HD
ATOM      9  C   ARG B   4      -1.059   8.024   3.974  1.00 62.85 LIG 0.26  C 
ATOM     10 O    ARG B   4      -0.933   9.109   4.529  1.00 61.66 LIG-0.27  OA
BRANCH 9 11
ATOM     11  CA  ARG B   4      -0.880   7.892   2.470  1.00 63.68 LIG 0.40  C 
ATOM     12  N   ARG B   4       0.524   8.064   2.153  1.00 64.21 LIG 0.61  N 
BRANCH 11 13
ATOM     13  CB  ARG B   4      -1.394   6.528   1.981  1.00 20.00 LIG 0.05  C 
BRANCH 13 14
ATOM     14  CG  ARG B   4      -2.795   6.555   1.371  1.00 20.00 LIG 0.02  C 
BRANCH 14 15
ATOM     15  CD  ARG B   4      -3.661   7.702   1.938  1.00 20.00 LIG 0.14  C 
BRANCH 15 16
ATOM     16  NE  ARG B   4      -5.095   7.542   1.670  1.00 20.00 LIG-0.23  N 
ATOM     17  CZ  ARG B   4      -6.030   8.445   1.975  1.00 20.00 LIG 0.67  C 
ATOM     18  NH2 ARG B   4      -7.304   8.209   1.699  1.00 20.00 LIG-0.23  N 
ATOM     19  NH1 ARG B   4      -5.699   9.588   2.548  1.00 20.00 LIG-0.23  N 
ATOM     20 2HH2 ARG B   4      -7.902   8.794   1.896  1.00 20.00 LIG 0.17  HD
ATOM     21 1HH2 ARG B   4      -7.532   7.471   1.321  1.00 20.00 LIG 0.17  HD
ATOM     22 1HH1 ARG B   4      -4.875   9.756   2.729  1.00 20.00 LIG 0.17  HD
ATOM     23 2HH1 ARG B   4      -6.307  10.164   2.741  1.00 20.00 LIG 0.17  HD
ATOM     24 HE   ARG B   4      -5.351   6.814   1.290  1.00 20.00 LIG 0.18  HD
ENDBRANCH 15 16
ENDBRANCH 14 15
ENDBRANCH 13 14
ENDBRANCH 11 13
ENDBRANCH 9 11
ENDBRANCH 6 7
BRANCH 6 25
ATOM     25  CB  LYS B   5      -2.624   5.961   6.487  1.00 20.00 LIG 0.04  C 
BRANCH 25 26
ATOM     26  CG  LYS B   5      -3.737   5.887   5.467  1.00 20.00 LIG 0.00  C 
BRANCH 26 27
ATOM     27  CD  LYS B   5      -4.915   6.754   5.878  1.00 20.00 LIG 0.03  C 
BRANCH 27 28
ATOM     28  CE  LYS B   5      -6.185   6.345   5.151  1.00 20.00 LIG 0.23  C 
BRANCH 28 29
ATOM     29  NZ  LYS B   5      -6.038   5.069   4.420  1.00 20.00 LIG-0.08  N 
ATOM     30 HZ2  LYS B   5      -5.389   4.587   4.793  1.00 20.00 LIG 0.27  HD
ATOM     31 HZ3  LYS B   5      -6.803   4.616   4.458  1.00 20.00 LIG 0.27  HD
ATOM     32 HZ1  LYS B   5      -5.834   5.236   3.571  1.00 20.00 LIG 0.27  HD
ENDBRANCH 28 29
ENDBRANCH 27 28
ENDBRANCH 26 27
ENDBRANCH 25 26
ENDBRANCH 6 25
ENDBRANCH 4 6
ENDBRANCH 1 2
BRANCH 1 33
ATOM     33  C   ARG B   6       1.024   4.396   9.183  1.00 52.50 LIG 0.24  C 
ATOM     34  N   LYS B   7       1.538   3.263   8.724  1.00 47.60 LIG-0.35  N 
ATOM     35 H    LYS B   7       1.962   3.193   7.980  1.00 47.60 LIG 0.16  HD
ATOM     36 O    ARG B   6       0.345   4.452  10.201  1.00 51.14 LIG-0.27  OA
BRANCH 34 37
ATOM     37  CA  LYS B   7       1.414   2.020   9.470  1.00 46.86 LIG 0.18  C 
BRANCH 37 38
ATOM     38  CB  LYS B   7       1.674   0.814   8.569  1.00 20.00 LIG 0.04  C 
BRANCH 38 39
ATOM     39  CG  LYS B   7       2.752  -0.114   9.062  1.00 20.00 LIG 0.00  C 
BRANCH 39 40
ATOM     40  CD  LYS B   7       2.283  -1.567   9.088  1.00 20.00 LIG 0.03  C 
BRANCH 40 41
ATOM     41  CE  LYS B   7       3.164  -2.451   8.216  1.00 20.00 LIG 0.23  C 
BRANCH 41 42
ATOM     42  NZ  LYS B   7       2.588  -3.816   8.034  1.00 20.00 LIG-0.08  N 
ATOM     43 HZ2  LYS B   7       1.701  -3.760   7.984  1.00 20.00 LIG 0.27  HD
ATOM     44 HZ1  LYS B   7       2.814  -4.329   8.726  1.00 20.00 LIG 0.27  HD
ATOM     45 HZ3  LYS B   7       2.905  -4.175   7.283  1.00 20.00 LIG 0.27  HD
ENDBRANCH 41 42
ENDBRANCH 40 41
ENDBRANCH 39 40
ENDBRANCH 38 39
ENDBRANCH 37 38
BRANCH 37 46
ATOM     46  C   LYS B   7       2.409   2.012  10.622  1.00 48.01 LIG 0.24  C 
ATOM     47 O    LYS B   7       3.377   2.755  10.616  1.00 46.73 LIG-0.27  OA
ATOM     48  N   PHE B   8       2.157   1.163  11.607  1.00 43.62 LIG-0.35  N 
ATOM     49 H    PHE B   8       1.437   0.697  11.663  1.00 43.62 LIG 0.16  HD
BRANCH 48 50
ATOM     50  CA  PHE B   8       3.091   0.944  12.699  1.00 44.29 LIG 0.18  C 
BRANCH 50 51
ATOM     51  C   PHE B   8       3.736  -0.424  12.480  1.00 70.57 LIG 0.24  C 
ATOM     52  N   SER B   9       5.036  -0.421  12.216  1.00 30.00 LIG-0.34  N 
ATOM     53 H    SER B   9       5.527   0.285  12.221  1.00 30.00 LIG 0.16  HD
ATOM     54 O    PHE B   8       3.070  -1.452  12.511  1.00 41.97 LIG-0.27  OA
BRANCH 52 55
ATOM     55  CA  SER B   9       5.748  -1.652  11.888  1.00 30.00 LIG 0.19  C 
BRANCH 55 56
ATOM     56  CB  SER B   9       5.591  -2.671  13.018  1.00 20.00 LIG 0.20  C 
BRANCH 56 57
ATOM     57 OG   SER B   9       6.509  -2.415  14.067  1.00 20.00 LIG-0.40  OA
ATOM     58 HG   SER B   9       6.851  -3.138  14.324  1.00 20.00 LIG 0.21  HD
ENDBRANCH 56 57
ENDBRANCH 55 56
BRANCH 55 59
ATOM     59  C   SER B   9       5.276  -2.262  10.579  1.00 30.00 LIG 0.22  C 
ATOM     60 O    SER B   9       6.052  -2.410   9.643  1.00 30.00 LIG-0.29  OA
ENDBRANCH 55 59
ENDBRANCH 52 55
ENDBRANCH 50 51
BRANCH 50 61
ATOM     61  CB  PHE B   8       2.365   1.017  14.040  1.00 20.00 LIG 0.07  C 
BRANCH 61 62
ATOM     62  CG  PHE B   8       3.272   0.995  15.238  1.00 20.00 LIG-0.06  A 
ATOM     63  CD1 PHE B   8       4.631   0.867  15.099  1.00 20.00 LIG 0.01  A 
ATOM     64  CE1 PHE B   8       5.452   0.842  16.214  1.00 20.00 LIG 0.00  A 
ATOM     65  CZ  PHE B   8       4.907   0.943  17.479  1.00 20.00 LIG 0.00  A 
ATOM     66  CE2 PHE B   8       3.567   1.062  17.625  1.00 20.00 LIG 0.00  A 
ATOM     67  CD2 PHE B   8       2.752   1.091  16.512  1.00 20.00 LIG 0.01  A 
ENDBRANCH 61 62
ENDBRANCH 50 61
ENDBRANCH 48 50
ENDBRANCH 37 46
ENDBRANCH 34 37
ENDBRANCH 1 33
BRANCH 1 68
ATOM     68  CB  ARG B   6       2.053   6.659   9.302  1.00 20.00 LIG 0.04  C 
BRANCH 68 69
ATOM     69  CG  ARG B   6       2.361   8.034   8.706  1.00 20.00 LIG 0.02  C 
BRANCH 69 70
ATOM     70  CD  ARG B   6       3.123   8.876   9.737  1.00 20.00 LIG 0.14  C 
BRANCH 70 71
ATOM     71  NE  ARG B   6       3.765   8.099  10.800  1.00 20.00 LIG-0.23  N 
ATOM     72  CZ  ARG B   6       3.519   8.277  12.097  1.00 20.00 LIG 0.67  C 
ATOM     73  NH1 ARG B   6       2.643   9.195  12.477  1.00 20.00 LIG-0.23  N 
ATOM     74  NH2 ARG B   6       4.140   7.543  13.016  1.00 20.00 LIG-0.23  N 
ATOM     75 1HH1 ARG B   6       2.237   9.672  11.887  1.00 20.00 LIG 0.17  HD
ATOM     76 2HH1 ARG B   6       2.480   9.314  13.313  1.00 20.00 LIG 0.17  HD
ATOM     77 1HH2 ARG B   6       4.708   6.943  12.776  1.00 20.00 LIG 0.17  HD
ATOM     78 2HH2 ARG B   6       3.973   7.667  13.851  1.00 20.00 LIG 0.17  HD
ATOM     79 HE   ARG B   6       4.332   7.493  10.575  1.00 20.00 LIG 0.18  HD
ENDBRANCH 70 71
ENDBRANCH 69 70
ENDBRANCH 68 69
ENDBRANCH 1 68
TORSDOF 33
ENDMDL
MODEL 23
USER: ADFR SOLUTION from run 26
USER: SCORE 22.898691 LL:  -2.910 LR: -20.788 RR:   0.000 FEB: -10.944
USER: RMSD 12.688920
USER: SEED 25
USER: STATUS 1 or 2 clusters left
USER: GENES 35
USER: genes 0 Translation |==|  0.60702 0.56857 0.49371
USER: genes 1 Rotation |==|  0.75887 0.59710 0.89820 0.62244
USER: genes 2 Torsion [C]-CA--N-[C] |==|  0.54228
USER: genes 3 Torsion [N]-C--CA-[N] |==|  0.44956
USER: genes 4 Torsion [C]-CA--N-[C] |==|  0.63904
USER: genes 5 Torsion [N]-C--CA-[N] |==|  0.38159
USER: genes 6 Torsion [C]-CA--CB-[CG] |==|  0.74708
USER: genes 7 Torsion [CA]-CB--CG-[CD] |==|  0.55635
USER: genes 8 Torsion [CB]-CG--CD-[NE] |==|  0.61482
USER: genes 9 Torsion [CG]-CD--NE-[HE] |==|  0.91949
USER: genes 10 Torsion [C]-CA--CB-[CG] |==|  0.75146
USER: genes 11 Torsion [CA]-CB--CG-[CD] |==|  0.34849
USER: genes 12 Torsion [CB]-CG--CD-[CE] |==|  0.35419
USER: genes 13 Torsion [CG]-CD--CE-[NZ] |==|  0.06730
USER: genes 14 Torsion [CD]-CE--NZ-[HZ2] |==|  0.89869
USER: genes 15 Torsion [N]-CA--C-[N] |==|  0.46460
USER: genes 16 Torsion [C]-N--CA-[CB] |==|  0.87672
USER: genes 17 Torsion [N]-CA--CB-[CG] |==|  0.59496
USER: genes 18 Torsion [CA]-CB--CG-[CD] |==|  0.75322
USER: genes 19 Torsion [CB]-CG--CD-[CE] |==|  0.37964
USER: genes 20 Torsion [CG]-CD--CE-[NZ] |==|  0.87456
USER: genes 21 Torsion [CD]-CE--NZ-[HZ1] |==|  0.68778
USER: genes 22 Torsion [N]-CA--C-[N] |==|  0.38333
USER: genes 23 Torsion [C]-N--CA-[C] |==|  0.67121
USER: genes 24 Torsion [N]-CA--C-[N] |==|  0.33984
USER: genes 25 Torsion [C]-N--CA-[CB] |==|  0.40630
USER: genes 26 Torsion [N]-CA--CB-[OG] |==|  0.91778
USER: genes 27 Torsion [CA]-CB--OG-[HG] |==|  0.91778
USER: genes 28 Torsion [N]-CA--C-[O] |==|  0.26706
USER: genes 29 Torsion [N]-CA--CB-[CG] |==|  0.80412
USER: genes 30 Torsion [CA]-CB--CG-[CD2] |==|  0.88003
USER: genes 31 Torsion [N]-CA--CB-[CG] |==|  0.52580
USER: genes 32 Torsion [CA]-CB--CG-[CD] |==|  0.69842
USER: genes 33 Torsion [CB]-CG--CD-[NE] |==|  0.38303
USER: genes 34 Torsion [CG]-CD--NE-[CZ] |==|  0.54798
ROOT
ATOM      1  CA  ARG B   6       3.361   8.935  10.092  1.00 51.45 LIG 0.18  C 
ENDROOT
BRANCH 1 2
ATOM      2  N   ARG B   6       3.306   7.672   9.367  1.00 51.69 LIG-0.35  N 
ATOM      3 H    ARG B   6       3.973   7.534   8.842  1.00 51.69 LIG 0.16  HD
ATOM      4  C   LYS B   5       2.300   6.824   9.523  1.00 56.23 LIG 0.24  C 
ATOM      5 O    LYS B   5       1.370   7.041  10.279  1.00 55.49 LIG-0.27  OA
BRANCH 4 6
ATOM      6  CA  LYS B   5       2.349   5.536   8.722  1.00 54.66 LIG 0.18  C 
BRANCH 6 7
ATOM      7  N   LYS B   5       1.429   4.611   9.353  1.00 56.15 LIG-0.35  N 
ATOM      8 H    LYS B   5       0.650   4.943   9.497  1.00 56.15 LIG 0.16  HD
ATOM      9  C   ARG B   4       1.761   3.372   9.677  1.00 62.85 LIG 0.26  C 
ATOM     10 O    ARG B   4       2.825   2.852   9.359  1.00 61.66 LIG-0.27  OA
BRANCH 9 11
ATOM     11  CA  ARG B   4       0.721   2.598  10.470  1.00 63.68 LIG 0.40  C 
ATOM     12  N   ARG B   4       0.642   1.252   9.940  1.00 64.21 LIG 0.61  N 
BRANCH 11 13
ATOM     13  CB  ARG B   4       1.080   2.584  11.965  1.00 20.00 LIG 0.05  C 
BRANCH 13 14
ATOM     14  CG  ARG B   4       1.935   1.397  12.406  1.00 20.00 LIG 0.02  C 
BRANCH 14 15
ATOM     15  CD  ARG B   4       1.852   1.146  13.928  1.00 20.00 LIG 0.14  C 
BRANCH 15 16
ATOM     16  NE  ARG B   4       3.145   0.815  14.539  1.00 20.00 LIG-0.23  N 
ATOM     17  CZ  ARG B   4       3.478   1.084  15.804  1.00 20.00 LIG 0.67  C 
ATOM     18  NH2 ARG B   4       4.674   0.751  16.266  1.00 20.00 LIG-0.23  N 
ATOM     19  NH1 ARG B   4       2.620   1.679  16.613  1.00 20.00 LIG-0.23  N 
ATOM     20 2HH2 ARG B   4       4.883   0.927  17.081  1.00 20.00 LIG 0.17  HD
ATOM     21 1HH2 ARG B   4       5.240   0.359  15.751  1.00 20.00 LIG 0.17  HD
ATOM     22 1HH1 ARG B   4       1.839   1.897  16.327  1.00 20.00 LIG 0.17  HD
ATOM     23 2HH1 ARG B   4       2.843   1.850  17.426  1.00 20.00 LIG 0.17  HD
ATOM     24 HE   ARG B   4       3.729   0.419  14.048  1.00 20.00 LIG 0.18  HD
ENDBRANCH 15 16
ENDBRANCH 14 15
ENDBRANCH 13 14
ENDBRANCH 11 13
ENDBRANCH 9 11
ENDBRANCH 6 7
BRANCH 6 25
ATOM     25  CB  LYS B   5       1.943   5.794   7.274  1.00 20.00 LIG 0.04  C 
BRANCH 25 26
ATOM     26  CG  LYS B   5       0.460   5.660   7.013  1.00 20.00 LIG 0.00  C 
BRANCH 26 27
ATOM     27  CD  LYS B   5      -0.098   6.918   6.367  1.00 20.00 LIG 0.03  C 
BRANCH 27 28
ATOM     28  CE  LYS B   5      -0.868   6.594   5.097  1.00 20.00 LIG 0.23  C 
BRANCH 28 29
ATOM     29  NZ  LYS B   5      -1.383   5.209   5.081  1.00 20.00 LIG-0.08  N 
ATOM     30 HZ2  LYS B   5      -0.792   4.668   5.469  1.00 20.00 LIG 0.27  HD
ATOM     31 HZ3  LYS B   5      -2.153   5.174   5.525  1.00 20.00 LIG 0.27  HD
ATOM     32 HZ1  LYS B   5      -1.513   4.951   4.240  1.00 20.00 LIG 0.27  HD
ENDBRANCH 28 29
ENDBRANCH 27 28
ENDBRANCH 26 27
ENDBRANCH 25 26
ENDBRANCH 6 25
ENDBRANCH 4 6
ENDBRANCH 1 2
BRANCH 1 33
ATOM     33  C   ARG B   6       4.390   9.865   9.469  1.00 52.50 LIG 0.24  C 
ATOM     34  N   LYS B   7       4.358  11.131   9.861  1.00 47.60 LIG-0.35  N 
ATOM     35 H    LYS B   7       3.757  11.461  10.379  1.00 47.60 LIG 0.16  HD
ATOM     36 O    ARG B   6       5.203   9.441   8.659  1.00 51.14 LIG-0.27  OA
BRANCH 34 37
ATOM     37  CA  LYS B   7       5.371  12.081   9.428  1.00 46.86 LIG 0.18  C 
BRANCH 37 38
ATOM     38  CB  LYS B   7       6.769  11.471   9.522  1.00 20.00 LIG 0.04  C 
BRANCH 38 39
ATOM     39  CG  LYS B   7       7.853  12.446   9.894  1.00 20.00 LIG 0.00  C 
BRANCH 39 40
ATOM     40  CD  LYS B   7       8.459  13.117   8.664  1.00 20.00 LIG 0.03  C 
BRANCH 40 41
ATOM     41  CE  LYS B   7       8.656  14.611   8.886  1.00 20.00 LIG 0.23  C 
BRANCH 41 42
ATOM     42  NZ  LYS B   7       7.462  15.249   9.517  1.00 20.00 LIG-0.08  N 
ATOM     43 HZ2  LYS B   7       6.880  14.619   9.756  1.00 20.00 LIG 0.27  HD
ATOM     44 HZ1  LYS B   7       7.078  15.802   8.935  1.00 20.00 LIG 0.27  HD
ATOM     45 HZ3  LYS B   7       7.716  15.706  10.238  1.00 20.00 LIG 0.27  HD
ENDBRANCH 41 42
ENDBRANCH 40 41
ENDBRANCH 39 40
ENDBRANCH 38 39
ENDBRANCH 37 38
BRANCH 37 46
ATOM     46  C   LYS B   7       5.101  12.500   7.990  1.00 48.01 LIG 0.24  C 
ATOM     47 O    LYS B   7       4.764  11.679   7.153  1.00 46.73 LIG-0.27  OA
ATOM     48  N   PHE B   8       5.255  13.787   7.716  1.00 43.62 LIG-0.35  N 
ATOM     49 H    PHE B   8       5.410  14.386   8.313  1.00 43.62 LIG 0.16  HD
BRANCH 48 50
ATOM     50  CA  PHE B   8       5.171  14.307   6.361  1.00 44.29 LIG 0.18  C 
BRANCH 50 51
ATOM     51  C   PHE B   8       6.527  14.927   6.027  1.00 70.57 LIG 0.24  C 
ATOM     52  N   SER B   9       7.147  14.437   4.961  1.00 30.00 LIG-0.34  N 
ATOM     53 H    SER B   9       6.806  13.848   4.435  1.00 30.00 LIG 0.16  HD
ATOM     54 O    PHE B   8       7.017  15.800   6.733  1.00 41.97 LIG-0.27  OA
BRANCH 52 55
ATOM     55  CA  SER B   9       8.490  14.873   4.594  1.00 30.00 LIG 0.19  C 
BRANCH 55 56
ATOM     56  CB  SER B   9       9.271  13.715   3.969  1.00 20.00 LIG 0.20  C 
BRANCH 56 57
ATOM     57 OG   SER B   9       8.837  12.470   4.487  1.00 20.00 LIG-0.40  OA
ATOM     58 HG   SER B   9       8.560  12.573   5.273  1.00 20.00 LIG 0.21  HD
ENDBRANCH 56 57
ENDBRANCH 55 56
BRANCH 55 59
ATOM     59  C   SER B   9       8.472  16.054   3.638  1.00 30.00 LIG 0.22  C 
ATOM     60 O    SER B   9       8.586  17.200   4.058  1.00 30.00 LIG-0.29  OA
ENDBRANCH 55 59
ENDBRANCH 52 55
ENDBRANCH 50 51
BRANCH 50 61
ATOM     61  CB  PHE B   8       4.042  15.328   6.254  1.00 20.00 LIG 0.07  C 
BRANCH 61 62
ATOM     62  CG  PHE B   8       2.662  14.738   6.342  1.00 20.00 LIG-0.06  A 
ATOM     63  CD1 PHE B   8       1.683  15.327   7.102  1.00 20.00 LIG 0.01  A 
ATOM     64  CE1 PHE B   8       0.419  14.766   7.177  1.00 20.00 LIG 0.00  A 
ATOM     65  CZ  PHE B   8       0.134  13.605   6.488  1.00 20.00 LIG 0.00  A 
ATOM     66  CE2 PHE B   8       1.096  13.014   5.741  1.00 20.00 LIG 0.00  A 
ATOM     67  CD2 PHE B   8       2.353  13.576   5.665  1.00 20.00 LIG 0.01  A 
ENDBRANCH 61 62
ENDBRANCH 50 61
ENDBRANCH 48 50
ENDBRANCH 37 46
ENDBRANCH 34 37
ENDBRANCH 1 33
BRANCH 1 68
ATOM     68  CB  ARG B   6       3.716   8.721  11.575  1.00 20.00 LIG 0.04  C 
BRANCH 68 69
ATOM     69  CG  ARG B   6       3.592   9.937  12.494  1.00 20.00 LIG 0.02  C 
BRANCH 69 70
ATOM     70  CD  ARG B   6       4.993  10.418  12.893  1.00 20.00 LIG 0.14  C 
BRANCH 70 71
ATOM     71  NE  ARG B   6       5.162  11.874  12.878  1.00 20.00 LIG-0.23  N 
ATOM     72  CZ  ARG B   6       6.347  12.480  12.863  1.00 20.00 LIG 0.67  C 
ATOM     73  NH1 ARG B   6       7.454  11.753  12.850  1.00 20.00 LIG-0.23  N 
ATOM     74  NH2 ARG B   6       6.435  13.808  12.857  1.00 20.00 LIG-0.23  N 
ATOM     75 1HH1 ARG B   6       7.404  10.894  12.852  1.00 20.00 LIG 0.17  HD
ATOM     76 2HH1 ARG B   6       8.222  12.139  12.840  1.00 20.00 LIG 0.17  HD
ATOM     77 1HH2 ARG B   6       5.720  14.286  12.862  1.00 20.00 LIG 0.17  HD
ATOM     78 2HH2 ARG B   6       7.206  14.188  12.847  1.00 20.00 LIG 0.17  HD
ATOM     79 HE   ARG B   6       4.455  12.365  12.880  1.00 20.00 LIG 0.18  HD
ENDBRANCH 70 71
ENDBRANCH 69 70
ENDBRANCH 68 69
ENDBRANCH 1 68
TORSDOF 33
ENDMDL
MODEL 24
USER: ADFR SOLUTION from run 37
USER: SCORE 21.362543 LL:  -2.538 LR: -20.781 RR:   0.000 FEB: -10.937
USER: RMSD 12.679977
USER: SEED 36
USER: STATUS no improvement in best in 9 clusters for 5 generations
USER: GENES 35
USER: genes 0 Translation |==|  0.55346 0.31065 0.48074
USER: genes 1 Rotation |==|  0.10561 0.50780 0.80530 0.53445
USER: genes 2 Torsion [C]-CA--N-[C] |==|  0.76357
USER: genes 3 Torsion [N]-C--CA-[N] |==|  0.33462
USER: genes 4 Torsion [C]-CA--N-[C] |==|  0.73429
USER: genes 5 Torsion [N]-C--CA-[N] |==|  0.35392
USER: genes 6 Torsion [C]-CA--CB-[CG] |==|  0.12518
USER: genes 7 Torsion [CA]-CB--CG-[CD] |==|  0.60588
USER: genes 8 Torsion [CB]-CG--CD-[NE] |==|  0.15010
USER: genes 9 Torsion [CG]-CD--NE-[HE] |==|  0.06613
USER: genes 10 Torsion [C]-CA--CB-[CG] |==|  0.66239
USER: genes 11 Torsion [CA]-CB--CG-[CD] |==|  0.61632
USER: genes 12 Torsion [CB]-CG--CD-[CE] |==|  0.63684
USER: genes 13 Torsion [CG]-CD--CE-[NZ] |==|  0.43890
USER: genes 14 Torsion [CD]-CE--NZ-[HZ2] |==|  0.78121
USER: genes 15 Torsion [N]-CA--C-[N] |==|  0.38007
USER: genes 16 Torsion [C]-N--CA-[CB] |==|  0.36697
USER: genes 17 Torsion [N]-CA--CB-[CG] |==|  0.60315
USER: genes 18 Torsion [CA]-CB--CG-[CD] |==|  0.47783
USER: genes 19 Torsion [CB]-CG--CD-[CE] |==|  0.87709
USER: genes 20 Torsion [CG]-CD--CE-[NZ] |==|  0.72077
USER: genes 21 Torsion [CD]-CE--NZ-[HZ1] |==|  0.12895
USER: genes 22 Torsion [N]-CA--C-[N] |==|  0.44400
USER: genes 23 Torsion [C]-N--CA-[C] |==|  0.79644
USER: genes 24 Torsion [N]-CA--C-[N] |==|  0.92032
USER: genes 25 Torsion [C]-N--CA-[CB] |==|  0.80428
USER: genes 26 Torsion [N]-CA--CB-[OG] |==|  0.81253
USER: genes 27 Torsion [CA]-CB--OG-[HG] |==|  0.60467
USER: genes 28 Torsion [N]-CA--C-[O] |==|  0.23391
USER: genes 29 Torsion [N]-CA--CB-[CG] |==|  0.69426
USER: genes 30 Torsion [CA]-CB--CG-[CD2] |==|  0.07053
USER: genes 31 Torsion [N]-CA--CB-[CG] |==|  0.56374
USER: genes 32 Torsion [CA]-CB--CG-[CD] |==|  0.40403
USER: genes 33 Torsion [CB]-CG--CD-[NE] |==|  0.96184
USER: genes 34 Torsion [CG]-CD--NE-[CZ] |==|  0.27759
ROOT
ATOM      1  CA  ARG B   6       2.035   1.971   9.790  1.00 51.45 LIG 0.18  C 
ENDROOT
BRANCH 1 2
ATOM      2  N   ARG B   6       2.035   1.232  11.047  1.00 51.69 LIG-0.35  N 
ATOM      3 H    ARG B   6       1.372   0.693  11.142  1.00 51.69 LIG 0.16  HD
ATOM      4  C   LYS B   5       2.990   1.397  11.950  1.00 56.23 LIG 0.24  C 
ATOM      5 O    LYS B   5       3.923   2.164  11.786  1.00 55.49 LIG-0.27  OA
BRANCH 4 6
ATOM      6  CA  LYS B   5       2.893   0.572  13.220  1.00 54.66 LIG 0.18  C 
BRANCH 6 7
ATOM      7  N   LYS B   5       4.096  -0.231  13.295  1.00 56.15 LIG-0.35  N 
ATOM      8 H    LYS B   5       4.765   0.180  13.644  1.00 56.15 LIG 0.16  HD
ATOM      9  C   ARG B   4       4.156  -1.481  12.864  1.00 62.85 LIG 0.26  C 
ATOM     10 O    ARG B   4       3.177  -2.113  12.486  1.00 61.66 LIG-0.27  OA
BRANCH 9 11
ATOM     11  CA  ARG B   4       5.537  -2.116  12.879  1.00 63.68 LIG 0.40  C 
ATOM     12  N   ARG B   4       5.461  -3.375  13.593  1.00 64.21 LIG 0.61  N 
BRANCH 11 13
ATOM     13  CB  ARG B   4       6.053  -2.324  11.446  1.00 20.00 LIG 0.05  C 
BRANCH 13 14
ATOM     14  CG  ARG B   4       5.851  -1.130  10.514  1.00 20.00 LIG 0.02  C 
BRANCH 14 15
ATOM     15  CD  ARG B   4       5.470  -1.562   9.080  1.00 20.00 LIG 0.14  C 
BRANCH 15 16
ATOM     16  NE  ARG B   4       4.304  -2.452   9.026  1.00 20.00 LIG-0.23  N 
ATOM     17  CZ  ARG B   4       4.045  -3.305   8.033  1.00 20.00 LIG 0.67  C 
ATOM     18  NH2 ARG B   4       2.962  -4.067   8.069  1.00 20.00 LIG-0.23  N 
ATOM     19  NH1 ARG B   4       4.868  -3.409   7.005  1.00 20.00 LIG-0.23  N 
ATOM     20 2HH2 ARG B   4       2.801  -4.615   7.427  1.00 20.00 LIG 0.17  HD
ATOM     21 1HH2 ARG B   4       2.421  -4.012   8.735  1.00 20.00 LIG 0.17  HD
ATOM     22 1HH1 ARG B   4       5.577  -2.924   6.970  1.00 20.00 LIG 0.17  HD
ATOM     23 2HH1 ARG B   4       4.694  -3.961   6.369  1.00 20.00 LIG 0.17  HD
ATOM     24 HE   ARG B   4       3.748  -2.421   9.681  1.00 20.00 LIG 0.18  HD
ENDBRANCH 15 16
ENDBRANCH 14 15
ENDBRANCH 13 14
ENDBRANCH 11 13
ENDBRANCH 9 11
ENDBRANCH 6 7
BRANCH 6 25
ATOM     25  CB  LYS B   5       2.780   1.484  14.439  1.00 20.00 LIG 0.04  C 
BRANCH 25 26
ATOM     26  CG  LYS B   5       3.875   1.290  15.462  1.00 20.00 LIG 0.00  C 
BRANCH 26 27
ATOM     27  CD  LYS B   5       3.315   1.320  16.875  1.00 20.00 LIG 0.03  C 
BRANCH 27 28
ATOM     28  CE  LYS B   5       4.112   2.258  17.767  1.00 20.00 LIG 0.23  C 
BRANCH 28 29
ATOM     29  NZ  LYS B   5       3.343   2.716  18.943  1.00 20.00 LIG-0.08  N 
ATOM     30 HZ2  LYS B   5       2.784   3.364  18.698  1.00 20.00 LIG 0.27  HD
ATOM     31 HZ3  LYS B   5       2.878   2.034  19.277  1.00 20.00 LIG 0.27  HD
ATOM     32 HZ1  LYS B   5       3.903   3.024  19.561  1.00 20.00 LIG 0.27  HD
ENDBRANCH 28 29
ENDBRANCH 27 28
ENDBRANCH 26 27
ENDBRANCH 25 26
ENDBRANCH 6 25
ENDBRANCH 4 6
ENDBRANCH 1 2
BRANCH 1 33
ATOM     33  C   ARG B   6       1.383   3.333   9.971  1.00 52.50 LIG 0.24  C 
ATOM     34  N   LYS B   7       1.990   4.361   9.395  1.00 47.60 LIG-0.35  N 
ATOM     35 H    LYS B   7       2.751   4.311   8.997  1.00 47.60 LIG 0.16  HD
ATOM     36 O    ARG B   6       0.345   3.447  10.609  1.00 51.14 LIG-0.27  OA
BRANCH 34 37
ATOM     37  CA  LYS B   7       1.393   5.688   9.395  1.00 46.86 LIG 0.18  C 
BRANCH 37 38
ATOM     38  CB  LYS B   7       2.410   6.745   9.820  1.00 20.00 LIG 0.04  C 
BRANCH 38 39
ATOM     39  CG  LYS B   7       1.844   7.853  10.667  1.00 20.00 LIG 0.00  C 
BRANCH 39 40
ATOM     40  CD  LYS B   7       2.940   8.763  11.217  1.00 20.00 LIG 0.03  C 
BRANCH 40 41
ATOM     41  CE  LYS B   7       4.117   7.957  11.750  1.00 20.00 LIG 0.23  C 
BRANCH 41 42
ATOM     42  NZ  LYS B   7       4.087   7.833  13.238  1.00 20.00 LIG-0.08  N 
ATOM     43 HZ2  LYS B   7       4.663   7.204  13.495  1.00 20.00 LIG 0.27  HD
ATOM     44 HZ1  LYS B   7       3.267   7.609  13.501  1.00 20.00 LIG 0.27  HD
ATOM     45 HZ3  LYS B   7       4.315   8.611  13.606  1.00 20.00 LIG 0.27  HD
ENDBRANCH 41 42
ENDBRANCH 40 41
ENDBRANCH 39 40
ENDBRANCH 38 39
ENDBRANCH 37 38
BRANCH 37 46
ATOM     46  C   LYS B   7       0.875   6.018   8.004  1.00 48.01 LIG 0.24  C 
ATOM     47 O    LYS B   7       1.292   5.422   7.024  1.00 46.73 LIG-0.27  OA
ATOM     48  N   PHE B   8      -0.038   6.976   7.930  1.00 43.62 LIG-0.35  N 
ATOM     49 H    PHE B   8      -0.399   7.344   8.617  1.00 43.62 LIG 0.16  HD
BRANCH 48 50
ATOM     50  CA  PHE B   8      -0.516   7.494   6.659  1.00 44.29 LIG 0.18  C 
BRANCH 50 51
ATOM     51  C   PHE B   8       0.599   8.357   6.070  1.00 70.57 LIG 0.24  C 
ATOM     52  N   SER B   9       1.410   8.939   6.944  1.00 30.00 LIG-0.34  N 
ATOM     53 H    SER B   9       1.375   8.810   7.794  1.00 30.00 LIG 0.16  HD
ATOM     54 O    PHE B   8       0.702   8.524   4.861  1.00 41.97 LIG-0.27  OA
BRANCH 52 55
ATOM     55  CA  SER B   9       2.451   9.867   6.515  1.00 30.00 LIG 0.19  C 
BRANCH 55 56
ATOM     56  CB  SER B   9       3.562   9.114   5.782  1.00 20.00 LIG 0.20  C 
BRANCH 56 57
ATOM     57 OG   SER B   9       4.269   8.261   6.665  1.00 20.00 LIG-0.40  OA
ATOM     58 HG   SER B   9       5.086   8.266   6.467  1.00 20.00 LIG 0.21  HD
ENDBRANCH 56 57
ENDBRANCH 55 56
BRANCH 55 59
ATOM     59  C   SER B   9       1.908  10.973   5.625  1.00 30.00 LIG 0.22  C 
ATOM     60 O    SER B   9       1.407  11.979   6.113  1.00 30.00 LIG-0.29  OA
ENDBRANCH 55 59
ENDBRANCH 52 55
ENDBRANCH 50 51
BRANCH 50 61
ATOM     61  CB  PHE B   8      -1.801   8.294   6.863  1.00 20.00 LIG 0.07  C 
BRANCH 61 62
ATOM     62  CG  PHE B   8      -3.034   7.638   6.310  1.00 20.00 LIG-0.06  A 
ATOM     63  CD1 PHE B   8      -4.133   8.377   5.951  1.00 20.00 LIG 0.01  A 
ATOM     64  CE1 PHE B   8      -5.264   7.755   5.448  1.00 20.00 LIG 0.00  A 
ATOM     65  CZ  PHE B   8      -5.295   6.382   5.307  1.00 20.00 LIG 0.00  A 
ATOM     66  CE2 PHE B   8      -4.218   5.646   5.665  1.00 20.00 LIG 0.00  A 
ATOM     67  CD2 PHE B   8      -3.091   6.267   6.161  1.00 20.00 LIG 0.01  A 
ENDBRANCH 61 62
ENDBRANCH 50 61
ENDBRANCH 48 50
ENDBRANCH 37 46
ENDBRANCH 34 37
ENDBRANCH 1 33
BRANCH 1 68
ATOM     68  CB  ARG B   6       1.288   1.204   8.684  1.00 20.00 LIG 0.04  C 
BRANCH 68 69
ATOM     69  CG  ARG B   6       1.650   1.555   7.239  1.00 20.00 LIG 0.02  C 
BRANCH 69 70
ATOM     70  CD  ARG B   6       1.564   0.292   6.373  1.00 20.00 LIG 0.14  C 
BRANCH 70 71
ATOM     71  NE  ARG B   6       1.485  -0.959   7.131  1.00 20.00 LIG-0.23  N 
ATOM     72  CZ  ARG B   6       0.349  -1.618   7.353  1.00 20.00 LIG 0.67  C 
ATOM     73  NH1 ARG B   6      -0.788  -1.145   6.866  1.00 20.00 LIG-0.23  N 
ATOM     74  NH2 ARG B   6       0.342  -2.749   8.055  1.00 20.00 LIG-0.23  N 
ATOM     75 1HH1 ARG B   6      -0.789  -0.416   6.410  1.00 20.00 LIG 0.17  HD
ATOM     76 2HH1 ARG B   6      -1.524  -1.566   7.006  1.00 20.00 LIG 0.17  HD
ATOM     77 1HH2 ARG B   6       1.077  -3.063   8.372  1.00 20.00 LIG 0.17  HD
ATOM     78 2HH2 ARG B   6      -0.398  -3.165   8.192  1.00 20.00 LIG 0.17  HD
ATOM     79 HE   ARG B   6       2.213  -1.288   7.450  1.00 20.00 LIG 0.18  HD
ENDBRANCH 70 71
ENDBRANCH 69 70
ENDBRANCH 68 69
ENDBRANCH 1 68
TORSDOF 33
ENDMDL
MODEL 25
USER: ADFR SOLUTION from run 192
USER: SCORE 21.620419 LL:  -3.031 LR: -20.707 RR:   0.000 FEB: -10.863
USER: RMSD 7.999229
USER: SEED 191
USER: STATUS no improvement in best in 2 clusters for 5 generations
USER: GENES 35
USER: genes 0 Translation |==|  0.54088 0.33295 0.48567
USER: genes 1 Rotation |==|  0.30433 0.88078 0.25151 0.57051
USER: genes 2 Torsion [C]-CA--N-[C] |==|  0.62303
USER: genes 3 Torsion [N]-C--CA-[N] |==|  0.41413
USER: genes 4 Torsion [C]-CA--N-[C] |==|  0.62212
USER: genes 5 Torsion [N]-C--CA-[N] |==|  0.39764
USER: genes 6 Torsion [C]-CA--CB-[CG] |==|  0.46569
USER: genes 7 Torsion [CA]-CB--CG-[CD] |==|  0.63227
USER: genes 8 Torsion [CB]-CG--CD-[NE] |==|  0.68866
USER: genes 9 Torsion [CG]-CD--NE-[HE] |==|  0.26273
USER: genes 10 Torsion [C]-CA--CB-[CG] |==|  0.25149
USER: genes 11 Torsion [CA]-CB--CG-[CD] |==|  0.54269
USER: genes 12 Torsion [CB]-CG--CD-[CE] |==|  0.94804
USER: genes 13 Torsion [CG]-CD--CE-[NZ] |==|  0.51675
USER: genes 14 Torsion [CD]-CE--NZ-[HZ2] |==|  0.31505
USER: genes 15 Torsion [N]-CA--C-[N] |==|  0.35467
USER: genes 16 Torsion [C]-N--CA-[CB] |==|  0.45862
USER: genes 17 Torsion [N]-CA--CB-[CG] |==|  0.51109
USER: genes 18 Torsion [CA]-CB--CG-[CD] |==|  0.39682
USER: genes 19 Torsion [CB]-CG--CD-[CE] |==|  0.13480
USER: genes 20 Torsion [CG]-CD--CE-[NZ] |==|  0.54730
USER: genes 21 Torsion [CD]-CE--NZ-[HZ1] |==|  0.31641
USER: genes 22 Torsion [N]-CA--C-[N] |==|  0.25170
USER: genes 23 Torsion [C]-N--CA-[C] |==|  0.70311
USER: genes 24 Torsion [N]-CA--C-[N] |==|  0.50934
USER: genes 25 Torsion [C]-N--CA-[CB] |==|  0.42178
USER: genes 26 Torsion [N]-CA--CB-[OG] |==|  0.12001
USER: genes 27 Torsion [CA]-CB--OG-[HG] |==|  0.92218
USER: genes 28 Torsion [N]-CA--C-[O] |==|  0.36789
USER: genes 29 Torsion [N]-CA--CB-[CG] |==|  0.77621
USER: genes 30 Torsion [CA]-CB--CG-[CD2] |==|  0.09716
USER: genes 31 Torsion [N]-CA--CB-[CG] |==|  0.03794
USER: genes 32 Torsion [CA]-CB--CG-[CD] |==|  0.49358
USER: genes 33 Torsion [CB]-CG--CD-[NE] |==|  0.33048
USER: genes 34 Torsion [CG]-CD--NE-[CZ] |==|  0.29018
ROOT
ATOM      1  CA  ARG B   6       1.724   2.574   9.905  1.00 51.45 LIG 0.18  C 
ENDROOT
BRANCH 1 2
ATOM      2  N   ARG B   6       2.021   3.883   9.336  1.00 51.69 LIG-0.35  N 
ATOM      3 H    ARG B   6       2.781   3.933   8.938  1.00 51.69 LIG 0.16  HD
ATOM      4  C   LYS B   5       1.171   4.894   9.440  1.00 56.23 LIG 0.24  C 
ATOM      5 O    LYS B   5       0.096   4.794  10.005  1.00 55.49 LIG-0.27  OA
BRANCH 4 6
ATOM      6  CA  LYS B   5       1.581   6.211   8.806  1.00 54.66 LIG 0.18  C 
BRANCH 6 7
ATOM      7  N   LYS B   5       0.365   6.871   8.379  1.00 56.15 LIG-0.35  N 
ATOM      8 H    LYS B   5      -0.269   6.839   8.959  1.00 56.15 LIG 0.16  HD
ATOM      9  C   ARG B   4       0.241   7.466   7.204  1.00 62.85 LIG 0.26  C 
ATOM     10 O    ARG B   4       1.176   7.629   6.427  1.00 61.66 LIG-0.27  OA
BRANCH 9 11
ATOM     11  CA  ARG B   4      -1.152   7.968   6.863  1.00 63.68 LIG 0.40  C 
ATOM     12  N   ARG B   4      -1.031   9.220   6.143  1.00 64.21 LIG 0.61  N 
BRANCH 11 13
ATOM     13  CB  ARG B   4      -1.916   6.925   6.032  1.00 20.00 LIG 0.05  C 
BRANCH 13 14
ATOM     14  CG  ARG B   4      -3.414   7.195   5.887  1.00 20.00 LIG 0.02  C 
BRANCH 14 15
ATOM     15  CD  ARG B   4      -4.267   5.940   6.175  1.00 20.00 LIG 0.14  C 
BRANCH 15 16
ATOM     16  NE  ARG B   4      -4.953   5.412   4.989  1.00 20.00 LIG-0.23  N 
ATOM     17  CZ  ARG B   4      -6.136   5.841   4.543  1.00 20.00 LIG 0.67  C 
ATOM     18  NH2 ARG B   4      -6.680   5.299   3.464  1.00 20.00 LIG-0.23  N 
ATOM     19  NH1 ARG B   4      -6.777   6.814   5.165  1.00 20.00 LIG-0.23  N 
ATOM     20 2HH2 ARG B   4      -7.442   5.579   3.180  1.00 20.00 LIG 0.17  HD
ATOM     21 1HH2 ARG B   4      -6.272   4.669   3.047  1.00 20.00 LIG 0.17  HD
ATOM     22 1HH1 ARG B   4      -6.432   7.178   5.864  1.00 20.00 LIG 0.17  HD
ATOM     23 2HH1 ARG B   4      -7.538   7.084   4.871  1.00 20.00 LIG 0.17  HD
ATOM     24 HE   ARG B   4      -4.565   4.783   4.550  1.00 20.00 LIG 0.18  HD
ENDBRANCH 15 16
ENDBRANCH 14 15
ENDBRANCH 13 14
ENDBRANCH 11 13
ENDBRANCH 9 11
ENDBRANCH 6 7
BRANCH 6 25
ATOM     25  CB  LYS B   5       2.335   7.074   9.813  1.00 20.00 LIG 0.04  C 
BRANCH 25 26
ATOM     26  CG  LYS B   5       3.832   6.868   9.807  1.00 20.00 LIG 0.00  C 
BRANCH 26 27
ATOM     27  CD  LYS B   5       4.470   7.455  11.056  1.00 20.00 LIG 0.03  C 
BRANCH 27 28
ATOM     28  CE  LYS B   5       3.550   8.461  11.728  1.00 20.00 LIG 0.23  C 
BRANCH 28 29
ATOM     29  NZ  LYS B   5       4.195   9.154  12.863  1.00 20.00 LIG-0.08  N 
ATOM     30 HZ2  LYS B   5       4.296  10.016  12.666  1.00 20.00 LIG 0.27  HD
ATOM     31 HZ3  LYS B   5       3.685   9.074  13.588  1.00 20.00 LIG 0.27  HD
ATOM     32 HZ1  LYS B   5       4.992   8.790  13.019  1.00 20.00 LIG 0.27  HD
ENDBRANCH 28 29
ENDBRANCH 27 28
ENDBRANCH 26 27
ENDBRANCH 25 26
ENDBRANCH 6 25
ENDBRANCH 4 6
ENDBRANCH 1 2
BRANCH 1 33
ATOM     33  C   ARG B   6       2.939   2.017  10.629  1.00 52.50 LIG 0.24  C 
ATOM     34  N   LYS B   7       2.751   1.615  11.878  1.00 47.60 LIG-0.35  N 
ATOM     35 H    LYS B   7       2.016   1.717  12.313  1.00 47.60 LIG 0.16  HD
ATOM     36 O    ARG B   6       4.022   1.943  10.063  1.00 51.14 LIG-0.27  OA
BRANCH 34 37
ATOM     37  CA  LYS B   7       3.809   0.951  12.625  1.00 46.86 LIG 0.18  C 
BRANCH 37 38
ATOM     38  CB  LYS B   7       3.486   0.919  14.118  1.00 20.00 LIG 0.04  C 
BRANCH 38 39
ATOM     39  CG  LYS B   7       4.572   0.334  14.980  1.00 20.00 LIG 0.00  C 
BRANCH 39 40
ATOM     40  CD  LYS B   7       4.694   1.065  16.315  1.00 20.00 LIG 0.03  C 
BRANCH 40 41
ATOM     41  CE  LYS B   7       3.335   1.235  16.981  1.00 20.00 LIG 0.23  C 
BRANCH 41 42
ATOM     42  NZ  LYS B   7       3.358   2.274  18.053  1.00 20.00 LIG-0.08  N 
ATOM     43 HZ2  LYS B   7       3.048   1.926  18.811  1.00 20.00 LIG 0.27  HD
ATOM     44 HZ1  LYS B   7       2.847   2.962  17.811  1.00 20.00 LIG 0.27  HD
ATOM     45 HZ3  LYS B   7       4.194   2.555  18.176  1.00 20.00 LIG 0.27  HD
ENDBRANCH 41 42
ENDBRANCH 40 41
ENDBRANCH 39 40
ENDBRANCH 38 39
ENDBRANCH 37 38
BRANCH 37 46
ATOM     46  C   LYS B   7       3.982  -0.472  12.117  1.00 48.01 LIG 0.24  C 
ATOM     47 O    LYS B   7       3.340  -1.391  12.601  1.00 46.73 LIG-0.27  OA
ATOM     48  N   PHE B   8       4.856  -0.643  11.136  1.00 43.62 LIG-0.35  N 
ATOM     49 H    PHE B   8       5.251   0.005  10.731  1.00 43.62 LIG 0.16  HD
BRANCH 48 50
ATOM     50  CA  PHE B   8       5.229  -1.961  10.650  1.00 44.29 LIG 0.18  C 
BRANCH 50 51
ATOM     51  C   PHE B   8       6.644  -2.247  11.149  1.00 70.57 LIG 0.24  C 
ATOM     52  N   SER B   9       7.186  -3.388  10.744  1.00 30.00 LIG-0.34  N 
ATOM     53 H    SER B   9       6.814  -3.927  10.186  1.00 30.00 LIG 0.16  HD
ATOM     54 O    PHE B   8       7.217  -1.476  11.909  1.00 41.97 LIG-0.27  OA
BRANCH 52 55
ATOM     55  CA  SER B   9       8.491  -3.825  11.230  1.00 30.00 LIG 0.19  C 
BRANCH 55 56
ATOM     56  CB  SER B   9       8.579  -5.353  11.209  1.00 20.00 LIG 0.20  C 
BRANCH 56 57
ATOM     57 OG   SER B   9       8.035  -5.879  10.011  1.00 20.00 LIG-0.40  OA
ATOM     58 HG   SER B   9       7.446  -5.357   9.717  1.00 20.00 LIG 0.21  HD
ENDBRANCH 56 57
ENDBRANCH 55 56
BRANCH 55 59
ATOM     59  C   SER B   9       9.635  -3.235  10.422  1.00 30.00 LIG 0.22  C 
ATOM     60 O    SER B   9      10.598  -2.726  10.983  1.00 30.00 LIG-0.29  OA
ENDBRANCH 55 59
ENDBRANCH 52 55
ENDBRANCH 50 51
BRANCH 50 61
ATOM     61  CB  PHE B   8       5.148  -2.006   9.126  1.00 20.00 LIG 0.07  C 
BRANCH 61 62
ATOM     62  CG  PHE B   8       3.760  -2.203   8.584  1.00 20.00 LIG-0.06  A 
ATOM     63  CD1 PHE B   8       3.539  -2.927   7.440  1.00 20.00 LIG 0.01  A 
ATOM     64  CE1 PHE B   8       2.254  -3.094   6.952  1.00 20.00 LIG 0.00  A 
ATOM     65  CZ  PHE B   8       1.182  -2.529   7.613  1.00 20.00 LIG 0.00  A 
ATOM     66  CE2 PHE B   8       1.392  -1.808   8.738  1.00 20.00 LIG 0.00  A 
ATOM     67  CD2 PHE B   8       2.672  -1.646   9.225  1.00 20.00 LIG 0.01  A 
ENDBRANCH 61 62
ENDBRANCH 50 61
ENDBRANCH 48 50
ENDBRANCH 37 46
ENDBRANCH 34 37
ENDBRANCH 1 33
BRANCH 1 68
ATOM     68  CB  ARG B   6       1.288   1.572   8.819  1.00 20.00 LIG 0.04  C 
BRANCH 68 69
ATOM     69  CG  ARG B   6       1.545   1.978   7.367  1.00 20.00 LIG 0.02  C 
BRANCH 69 70
ATOM     70  CD  ARG B   6       1.103   0.841   6.436  1.00 20.00 LIG 0.14  C 
BRANCH 70 71
ATOM     71  NE  ARG B   6       0.039   1.205   5.496  1.00 20.00 LIG-0.23  N 
ATOM     72  CZ  ARG B   6       0.244   1.433   4.201  1.00 20.00 LIG 0.67  C 
ATOM     73  NH1 ARG B   6       1.465   1.324   3.702  1.00 20.00 LIG-0.23  N 
ATOM     74  NH2 ARG B   6      -0.765   1.766   3.399  1.00 20.00 LIG-0.23  N 
ATOM     75 1HH1 ARG B   6       2.121   1.107   4.215  1.00 20.00 LIG 0.17  HD
ATOM     76 2HH1 ARG B   6       1.604   1.470   2.866  1.00 20.00 LIG 0.17  HD
ATOM     77 1HH2 ARG B   6      -1.561   1.837   3.716  1.00 20.00 LIG 0.17  HD
ATOM     78 2HH2 ARG B   6      -0.620   1.911   2.564  1.00 20.00 LIG 0.17  HD
ATOM     79 HE   ARG B   6      -0.763   1.275   5.799  1.00 20.00 LIG 0.18  HD
ENDBRANCH 70 71
ENDBRANCH 69 70
ENDBRANCH 68 69
ENDBRANCH 1 68
TORSDOF 33
ENDMDL
MODEL 26
USER: ADFR SOLUTION from run 77
USER: SCORE 22.211659 LL:  -3.318 LR: -20.705 RR:   0.000 FEB: -10.861
USER: RMSD 6.340850
USER: SEED 76
USER: STATUS no improvement in best in 5 clusters for 5 generations
USER: GENES 35
USER: genes 0 Translation |==|  0.51866 0.48507 0.45034
USER: genes 1 Rotation |==|  0.56361 0.95420 0.31349 0.56980
USER: genes 2 Torsion [C]-CA--N-[C] |==|  0.73245
USER: genes 3 Torsion [N]-C--CA-[N] |==|  0.25693
USER: genes 4 Torsion [C]-CA--N-[C] |==|  0.64132
USER: genes 5 Torsion [N]-C--CA-[N] |==|  0.35604
USER: genes 6 Torsion [C]-CA--CB-[CG] |==|  0.54345
USER: genes 7 Torsion [CA]-CB--CG-[CD] |==|  0.74632
USER: genes 8 Torsion [CB]-CG--CD-[NE] |==|  0.32886
USER: genes 9 Torsion [CG]-CD--NE-[HE] |==|  0.05970
USER: genes 10 Torsion [C]-CA--CB-[CG] |==|  0.69222
USER: genes 11 Torsion [CA]-CB--CG-[CD] |==|  0.66498
USER: genes 12 Torsion [CB]-CG--CD-[CE] |==|  0.14281
USER: genes 13 Torsion [CG]-CD--CE-[NZ] |==|  0.40748
USER: genes 14 Torsion [CD]-CE--NZ-[HZ2] |==|  0.38496
USER: genes 15 Torsion [N]-CA--C-[N] |==|  0.91256
USER: genes 16 Torsion [C]-N--CA-[CB] |==|  0.24710
USER: genes 17 Torsion [N]-CA--CB-[CG] |==|  0.58407
USER: genes 18 Torsion [CA]-CB--CG-[CD] |==|  0.70497
USER: genes 19 Torsion [CB]-CG--CD-[CE] |==|  0.64892
USER: genes 20 Torsion [CG]-CD--CE-[NZ] |==|  0.58351
USER: genes 21 Torsion [CD]-CE--NZ-[HZ1] |==|  0.84398
USER: genes 22 Torsion [N]-CA--C-[N] |==|  0.48744
USER: genes 23 Torsion [C]-N--CA-[C] |==|  0.75229
USER: genes 24 Torsion [N]-CA--C-[N] |==|  0.03119
USER: genes 25 Torsion [C]-N--CA-[CB] |==|  0.82133
USER: genes 26 Torsion [N]-CA--CB-[OG] |==|  0.92288
USER: genes 27 Torsion [CA]-CB--OG-[HG] |==|  0.63240
USER: genes 28 Torsion [N]-CA--C-[O] |==|  0.12919
USER: genes 29 Torsion [N]-CA--CB-[CG] |==|  0.89686
USER: genes 30 Torsion [CA]-CB--CG-[CD2] |==|  0.67966
USER: genes 31 Torsion [N]-CA--CB-[CG] |==|  0.43655
USER: genes 32 Torsion [CA]-CB--CG-[CD] |==|  0.37562
USER: genes 33 Torsion [CB]-CG--CD-[NE] |==|  0.52187
USER: genes 34 Torsion [CG]-CD--NE-[CZ] |==|  0.29624
ROOT
ATOM      1  CA  ARG B   6       1.174   6.681   9.083  1.00 51.45 LIG 0.18  C 
ENDROOT
BRANCH 1 2
ATOM      2  N   ARG B   6       2.485   7.235   9.398  1.00 51.69 LIG-0.35  N 
ATOM      3 H    ARG B   6       3.086   7.086   8.802  1.00 51.69 LIG 0.16  HD
ATOM      4  C   LYS B   5       2.704   7.908  10.518  1.00 56.23 LIG 0.24  C 
ATOM      5 O    LYS B   5       1.831   8.110  11.345  1.00 55.49 LIG-0.27  OA
BRANCH 4 6
ATOM      6  CA  LYS B   5       4.106   8.445  10.742  1.00 54.66 LIG 0.18  C 
BRANCH 6 7
ATOM      7  N   LYS B   5       4.130   9.794  10.218  1.00 56.15 LIG-0.35  N 
ATOM      8 H    LYS B   5       3.489  10.289  10.507  1.00 56.15 LIG 0.16  HD
ATOM      9  C   ARG B   4       5.053  10.224   9.373  1.00 62.85 LIG 0.26  C 
ATOM     10 O    ARG B   4       6.039   9.567   9.058  1.00 61.66 LIG-0.27  OA
BRANCH 9 11
ATOM     11  CA  ARG B   4       4.832  11.617   8.809  1.00 63.68 LIG 0.40  C 
ATOM     12  N   ARG B   4       6.038  12.395   9.009  1.00 64.21 LIG 0.61  N 
BRANCH 11 13
ATOM     13  CB  ARG B   4       4.461  11.547   7.319  1.00 20.00 LIG 0.05  C 
BRANCH 13 14
ATOM     14  CG  ARG B   4       4.583  12.871   6.566  1.00 20.00 LIG 0.02  C 
BRANCH 14 15
ATOM     15  CD  ARG B   4       3.263  13.675   6.572  1.00 20.00 LIG 0.14  C 
BRANCH 15 16
ATOM     16  NE  ARG B   4       3.374  14.980   7.234  1.00 20.00 LIG-0.23  N 
ATOM     17  CZ  ARG B   4       2.345  15.669   7.731  1.00 20.00 LIG 0.67  C 
ATOM     18  NH2 ARG B   4       2.542  16.845   8.308  1.00 20.00 LIG-0.23  N 
ATOM     19  NH1 ARG B   4       1.117  15.187   7.663  1.00 20.00 LIG-0.23  N 
ATOM     20 2HH2 ARG B   4       1.876  17.285   8.626  1.00 20.00 LIG 0.17  HD
ATOM     21 1HH2 ARG B   4       3.337  17.169   8.363  1.00 20.00 LIG 0.17  HD
ATOM     22 1HH1 ARG B   4       0.975  14.423   7.295  1.00 20.00 LIG 0.17  HD
ATOM     23 2HH1 ARG B   4       0.459  15.638   7.985  1.00 20.00 LIG 0.17  HD
ATOM     24 HE   ARG B   4       4.158  15.325   7.307  1.00 20.00 LIG 0.18  HD
ENDBRANCH 15 16
ENDBRANCH 14 15
ENDBRANCH 13 14
ENDBRANCH 11 13
ENDBRANCH 9 11
ENDBRANCH 6 7
BRANCH 6 25
ATOM     25  CB  LYS B   5       4.446   8.439  12.229  1.00 20.00 LIG 0.04  C 
BRANCH 25 26
ATOM     26  CG  LYS B   5       4.552   9.815  12.846  1.00 20.00 LIG 0.00  C 
BRANCH 26 27
ATOM     27  CD  LYS B   5       5.933  10.046  13.436  1.00 20.00 LIG 0.03  C 
BRANCH 27 28
ATOM     28  CE  LYS B   5       7.027   9.728  12.429  1.00 20.00 LIG 0.23  C 
BRANCH 28 29
ATOM     29  NZ  LYS B   5       8.212  10.597  12.582  1.00 20.00 LIG-0.08  N 
ATOM     30 HZ2  LYS B   5       8.951  10.110  12.489  1.00 20.00 LIG 0.27  HD
ATOM     31 HZ3  LYS B   5       8.196  11.233  11.959  1.00 20.00 LIG 0.27  HD
ATOM     32 HZ1  LYS B   5       8.203  10.972  13.389  1.00 20.00 LIG 0.27  HD
ENDBRANCH 28 29
ENDBRANCH 27 28
ENDBRANCH 26 27
ENDBRANCH 25 26
ENDBRANCH 6 25
ENDBRANCH 4 6
ENDBRANCH 1 2
BRANCH 1 33
ATOM     33  C   ARG B   6       1.101   5.217   9.488  1.00 52.50 LIG 0.24  C 
ATOM     34  N   LYS B   7       2.231   4.527   9.419  1.00 47.60 LIG-0.35  N 
ATOM     35 H    LYS B   7       2.966   4.835   9.097  1.00 47.60 LIG 0.16  HD
ATOM     36 O    ARG B   6       0.045   4.727   9.867  1.00 51.14 LIG-0.27  OA
BRANCH 34 37
ATOM     37  CA  LYS B   7       2.308   3.156   9.899  1.00 46.86 LIG 0.18  C 
BRANCH 37 38
ATOM     38  CB  LYS B   7       1.944   2.168   8.791  1.00 20.00 LIG 0.04  C 
BRANCH 38 39
ATOM     39  CG  LYS B   7       1.308   0.893   9.275  1.00 20.00 LIG 0.00  C 
BRANCH 39 40
ATOM     40  CD  LYS B   7       2.271  -0.289   9.190  1.00 20.00 LIG 0.03  C 
BRANCH 40 41
ATOM     41  CE  LYS B   7       1.662  -1.447   8.410  1.00 20.00 LIG 0.23  C 
BRANCH 41 42
ATOM     42  NZ  LYS B   7       2.171  -2.771   8.877  1.00 20.00 LIG-0.08  N 
ATOM     43 HZ2  LYS B   7       1.921  -2.905   9.721  1.00 20.00 LIG 0.27  HD
ATOM     44 HZ1  LYS B   7       3.060  -2.782   8.827  1.00 20.00 LIG 0.27  HD
ATOM     45 HZ3  LYS B   7       1.837  -3.416   8.363  1.00 20.00 LIG 0.27  HD
ENDBRANCH 41 42
ENDBRANCH 40 41
ENDBRANCH 39 40
ENDBRANCH 38 39
ENDBRANCH 37 38
BRANCH 37 46
ATOM     46  C   LYS B   7       3.717   2.862  10.391  1.00 48.01 LIG 0.24  C 
ATOM     47 O    LYS B   7       4.606   3.691  10.273  1.00 46.73 LIG-0.27  OA
ATOM     48  N   PHE B   8       3.909   1.674  10.944  1.00 43.62 LIG-0.35  N 
ATOM     49 H    PHE B   8       3.276   1.116  11.108  1.00 43.62 LIG 0.16  HD
BRANCH 48 50
ATOM     50  CA  PHE B   8       5.230   1.202  11.328  1.00 44.29 LIG 0.18  C 
BRANCH 50 51
ATOM     51  C   PHE B   8       5.827   0.484  10.119  1.00 70.57 LIG 0.24  C 
ATOM     52  N   SER B   9       5.179   0.636   8.971  1.00 30.00 LIG-0.34  N 
ATOM     53 H    SER B   9       4.496   1.149   8.868  1.00 30.00 LIG 0.16  HD
ATOM     54 O    PHE B   8       6.825  -0.217  10.226  1.00 41.97 LIG-0.27  OA
BRANCH 52 55
ATOM     55  CA  SER B   9       5.588  -0.077   7.766  1.00 30.00 LIG 0.19  C 
BRANCH 55 56
ATOM     56  CB  SER B   9       6.984   0.376   7.331  1.00 20.00 LIG 0.20  C 
BRANCH 56 57
ATOM     57 OG   SER B   9       7.241   1.705   7.747  1.00 20.00 LIG-0.40  OA
ATOM     58 HG   SER B   9       7.555   2.145   7.103  1.00 20.00 LIG 0.21  HD
ENDBRANCH 56 57
ENDBRANCH 55 56
BRANCH 55 59
ATOM     59  C   SER B   9       5.574  -1.585   7.954  1.00 30.00 LIG 0.22  C 
ATOM     60 O    SER B   9       4.618  -2.140   8.482  1.00 30.00 LIG-0.29  OA
ENDBRANCH 55 59
ENDBRANCH 52 55
ENDBRANCH 50 51
BRANCH 50 61
ATOM     61  CB  PHE B   8       5.130   0.277  12.539  1.00 20.00 LIG 0.07  C 
BRANCH 61 62
ATOM     62  CG  PHE B   8       4.092   0.686  13.547  1.00 20.00 LIG-0.06  A 
ATOM     63  CD1 PHE B   8       2.757   0.699  13.228  1.00 20.00 LIG 0.01  A 
ATOM     64  CE1 PHE B   8       1.815   1.084  14.166  1.00 20.00 LIG 0.00  A 
ATOM     65  CZ  PHE B   8       2.212   1.462  15.433  1.00 20.00 LIG 0.00  A 
ATOM     66  CE2 PHE B   8       3.527   1.459  15.753  1.00 20.00 LIG 0.00  A 
ATOM     67  CD2 PHE B   8       4.463   1.070  14.819  1.00 20.00 LIG 0.01  A 
ENDBRANCH 61 62
ENDBRANCH 50 61
ENDBRANCH 48 50
ENDBRANCH 37 46
ENDBRANCH 34 37
ENDBRANCH 1 33
BRANCH 1 68
ATOM     68  CB  ARG B   6       0.857   6.799   7.581  1.00 20.00 LIG 0.04  C 
BRANCH 68 69
ATOM     69  CG  ARG B   6      -0.179   5.825   7.018  1.00 20.00 LIG 0.02  C 
BRANCH 69 70
ATOM     70  CD  ARG B   6      -1.151   6.586   6.108  1.00 20.00 LIG 0.14  C 
BRANCH 70 71
ATOM     71  NE  ARG B   6      -2.299   5.798   5.651  1.00 20.00 LIG-0.23  N 
ATOM     72  CZ  ARG B   6      -3.538   5.962   6.110  1.00 20.00 LIG 0.67  C 
ATOM     73  NH1 ARG B   6      -3.780   6.889   7.024  1.00 20.00 LIG-0.23  N 
ATOM     74  NH2 ARG B   6      -4.538   5.209   5.659  1.00 20.00 LIG-0.23  N 
ATOM     75 1HH1 ARG B   6      -3.138   7.380   7.318  1.00 20.00 LIG 0.17  HD
ATOM     76 2HH1 ARG B   6      -4.578   7.000   7.324  1.00 20.00 LIG 0.17  HD
ATOM     77 1HH2 ARG B   6      -4.389   4.607   5.063  1.00 20.00 LIG 0.17  HD
ATOM     78 2HH2 ARG B   6      -5.334   5.324   5.962  1.00 20.00 LIG 0.17  HD
ATOM     79 HE   ARG B   6      -2.165   5.195   5.053  1.00 20.00 LIG 0.18  HD
ENDBRANCH 70 71
ENDBRANCH 69 70
ENDBRANCH 68 69
ENDBRANCH 1 68
TORSDOF 33
ENDMDL
MODEL 27
USER: ADFR SOLUTION from run 184
USER: SCORE 21.624753 LL:  -2.770 LR: -20.680 RR:   0.000 FEB: -10.836
USER: RMSD 7.057483
USER: SEED 183
USER: STATUS no improvement in best in 2 clusters for 5 generations
USER: GENES 35
USER: genes 0 Translation |==|  0.46124 0.45728 0.36645
USER: genes 1 Rotation |==|  0.46231 0.94903 0.38734 0.68510
USER: genes 2 Torsion [C]-CA--N-[C] |==|  0.16867
USER: genes 3 Torsion [N]-C--CA-[N] |==|  0.31276
USER: genes 4 Torsion [C]-CA--N-[C] |==|  0.59291
USER: genes 5 Torsion [N]-C--CA-[N] |==|  0.09642
USER: genes 6 Torsion [C]-CA--CB-[CG] |==|  0.75381
USER: genes 7 Torsion [CA]-CB--CG-[CD] |==|  0.46178
USER: genes 8 Torsion [CB]-CG--CD-[NE] |==|  0.57688
USER: genes 9 Torsion [CG]-CD--NE-[HE] |==|  0.74254
USER: genes 10 Torsion [C]-CA--CB-[CG] |==|  0.60158
USER: genes 11 Torsion [CA]-CB--CG-[CD] |==|  0.58061
USER: genes 12 Torsion [CB]-CG--CD-[CE] |==|  0.49455
USER: genes 13 Torsion [CG]-CD--CE-[NZ] |==|  0.64248
USER: genes 14 Torsion [CD]-CE--NZ-[HZ2] |==|  0.79512
USER: genes 15 Torsion [N]-CA--C-[N] |==|  0.57669
USER: genes 16 Torsion [C]-N--CA-[CB] |==|  0.55118
USER: genes 17 Torsion [N]-CA--CB-[CG] |==|  0.62770
USER: genes 18 Torsion [CA]-CB--CG-[CD] |==|  0.95073
USER: genes 19 Torsion [CB]-CG--CD-[CE] |==|  0.46484
USER: genes 20 Torsion [CG]-CD--CE-[NZ] |==|  0.64388
USER: genes 21 Torsion [CD]-CE--NZ-[HZ1] |==|  0.64681
USER: genes 22 Torsion [N]-CA--C-[N] |==|  0.32802
USER: genes 23 Torsion [C]-N--CA-[C] |==|  0.66571
USER: genes 24 Torsion [N]-CA--C-[N] |==|  0.99695
USER: genes 25 Torsion [C]-N--CA-[CB] |==|  0.22536
USER: genes 26 Torsion [N]-CA--CB-[OG] |==|  0.00620
USER: genes 27 Torsion [CA]-CB--OG-[HG] |==|  0.35592
USER: genes 28 Torsion [N]-CA--C-[O] |==|  0.53088
USER: genes 29 Torsion [N]-CA--CB-[CG] |==|  0.15871
USER: genes 30 Torsion [CA]-CB--CG-[CD2] |==|  0.30240
USER: genes 31 Torsion [N]-CA--CB-[CG] |==|  0.59032
USER: genes 32 Torsion [CA]-CB--CG-[CD] |==|  0.13948
USER: genes 33 Torsion [CB]-CG--CD-[NE] |==|  0.52260
USER: genes 34 Torsion [CG]-CD--NE-[CZ] |==|  0.51742
ROOT
ATOM      1  CA  ARG B   6      -0.247   5.931   7.133  1.00 51.45 LIG 0.18  C 
ENDROOT
BRANCH 1 2
ATOM      2  N   ARG B   6       0.389   7.000   7.892  1.00 51.69 LIG-0.35  N 
ATOM      3 H    ARG B   6      -0.133   7.405   8.441  1.00 51.69 LIG 0.16  HD
ATOM      4  C   LYS B   5       1.670   7.301   7.729  1.00 56.23 LIG 0.24  C 
ATOM      5 O    LYS B   5       2.390   6.704   6.948  1.00 55.49 LIG-0.27  OA
BRANCH 4 6
ATOM      6  CA  LYS B   5       2.230   8.429   8.576  1.00 54.66 LIG 0.18  C 
BRANCH 6 7
ATOM      7  N   LYS B   5       3.176   7.835   9.498  1.00 56.15 LIG-0.35  N 
ATOM      8 H    LYS B   5       3.598   7.160   9.174  1.00 56.15 LIG 0.16  HD
ATOM      9  C   ARG B   4       3.372   8.292  10.724  1.00 62.85 LIG 0.26  C 
ATOM     10 O    ARG B   4       2.873   9.329  11.146  1.00 61.66 LIG-0.27  OA
BRANCH 9 11
ATOM     11  CA  ARG B   4       4.286   7.453  11.601  1.00 63.68 LIG 0.40  C 
ATOM     12  N   ARG B   4       5.323   6.874  10.771  1.00 64.21 LIG 0.61  N 
BRANCH 11 13
ATOM     13  CB  ARG B   4       4.891   8.307  12.727  1.00 20.00 LIG 0.05  C 
BRANCH 13 14
ATOM     14  CG  ARG B   4       6.202   9.005  12.365  1.00 20.00 LIG 0.02  C 
BRANCH 14 15
ATOM     15  CD  ARG B   4       6.585  10.100  13.386  1.00 20.00 LIG 0.14  C 
BRANCH 15 16
ATOM     16  NE  ARG B   4       7.397  11.179  12.810  1.00 20.00 LIG-0.23  N 
ATOM     17  CZ  ARG B   4       6.902  12.268  12.216  1.00 20.00 LIG 0.67  C 
ATOM     18  NH2 ARG B   4       7.715  13.188  11.720  1.00 20.00 LIG-0.23  N 
ATOM     19  NH1 ARG B   4       5.597  12.446  12.120  1.00 20.00 LIG-0.23  N 
ATOM     20 2HH2 ARG B   4       7.391  13.887  11.339  1.00 20.00 LIG 0.17  HD
ATOM     21 1HH2 ARG B   4       8.567  13.086  11.780  1.00 20.00 LIG 0.17  HD
ATOM     22 1HH1 ARG B   4       5.057  11.858  12.442  1.00 20.00 LIG 0.17  HD
ATOM     23 2HH1 ARG B   4       5.286  13.150  11.736  1.00 20.00 LIG 0.17  HD
ATOM     24 HE   ARG B   4       8.252  11.105  12.860  1.00 20.00 LIG 0.18  HD
ENDBRANCH 15 16
ENDBRANCH 14 15
ENDBRANCH 13 14
ENDBRANCH 11 13
ENDBRANCH 9 11
ENDBRANCH 6 7
BRANCH 6 25
ATOM     25  CB  LYS B   5       2.918   9.465   7.692  1.00 20.00 LIG 0.04  C 
BRANCH 25 26
ATOM     26  CG  LYS B   5       4.157  10.077   8.304  1.00 20.00 LIG 0.00  C 
BRANCH 26 27
ATOM     27  CD  LYS B   5       4.377  11.492   7.795  1.00 20.00 LIG 0.03  C 
BRANCH 27 28
ATOM     28  CE  LYS B   5       5.595  12.130   8.443  1.00 20.00 LIG 0.23  C 
BRANCH 28 29
ATOM     29  NZ  LYS B   5       5.303  13.459   9.020  1.00 20.00 LIG-0.08  N 
ATOM     30 HZ2  LYS B   5       5.213  14.054   8.364  1.00 20.00 LIG 0.27  HD
ATOM     31 HZ3  LYS B   5       4.548  13.419   9.489  1.00 20.00 LIG 0.27  HD
ATOM     32 HZ1  LYS B   5       5.972  13.704   9.553  1.00 20.00 LIG 0.27  HD
ENDBRANCH 28 29
ENDBRANCH 27 28
ENDBRANCH 26 27
ENDBRANCH 25 26
ENDBRANCH 6 25
ENDBRANCH 4 6
ENDBRANCH 1 2
BRANCH 1 33
ATOM     33  C   ARG B   6       0.426   4.598   7.420  1.00 52.50 LIG 0.24  C 
ATOM     34  N   LYS B   7       0.372   3.688   6.457  1.00 47.60 LIG-0.35  N 
ATOM     35 H    LYS B   7      -0.074   3.783   5.728  1.00 47.60 LIG 0.16  HD
ATOM     36 O    ARG B   6       0.993   4.403   8.487  1.00 51.14 LIG-0.27  OA
BRANCH 34 37
ATOM     37  CA  LYS B   7       1.086   2.426   6.570  1.00 46.86 LIG 0.18  C 
BRANCH 37 38
ATOM     38  CB  LYS B   7       1.247   1.765   5.202  1.00 20.00 LIG 0.04  C 
BRANCH 38 39
ATOM     39  CG  LYS B   7       0.921   0.296   5.175  1.00 20.00 LIG 0.00  C 
BRANCH 39 40
ATOM     40  CD  LYS B   7       0.918  -0.311   6.576  1.00 20.00 LIG 0.03  C 
BRANCH 40 41
ATOM     41  CE  LYS B   7       0.292  -1.700   6.580  1.00 20.00 LIG 0.23  C 
BRANCH 41 42
ATOM     42  NZ  LYS B   7      -0.778  -1.833   7.612  1.00 20.00 LIG-0.08  N 
ATOM     43 HZ2  LYS B   7      -0.794  -1.102   8.119  1.00 20.00 LIG 0.27  HD
ATOM     44 HZ1  LYS B   7      -0.613  -2.544   8.121  1.00 20.00 LIG 0.27  HD
ATOM     45 HZ3  LYS B   7      -1.567  -1.933   7.211  1.00 20.00 LIG 0.27  HD
ENDBRANCH 41 42
ENDBRANCH 40 41
ENDBRANCH 39 40
ENDBRANCH 38 39
ENDBRANCH 37 38
BRANCH 37 46
ATOM     46  C   LYS B   7       2.460   2.665   7.178  1.00 48.01 LIG 0.24  C 
ATOM     47 O    LYS B   7       3.279   3.370   6.611  1.00 46.73 LIG-0.27  OA
ATOM     48  N   PHE B   8       2.700   2.070   8.337  1.00 43.62 LIG-0.35  N 
ATOM     49 H    PHE B   8       2.105   1.641   8.785  1.00 43.62 LIG 0.16  HD
BRANCH 48 50
ATOM     50  CA  PHE B   8       4.012   2.092   8.963  1.00 44.29 LIG 0.18  C 
BRANCH 50 51
ATOM     51  C   PHE B   8       4.469   0.642   9.114  1.00 70.57 LIG 0.24  C 
ATOM     52  N   SER B   9       3.619  -0.285   8.692  1.00 30.00 LIG-0.34  N 
ATOM     53 H    SER B   9       2.875  -0.112   8.298  1.00 30.00 LIG 0.16  HD
ATOM     54 O    PHE B   8       5.545   0.366   9.631  1.00 41.97 LIG-0.27  OA
BRANCH 52 55
ATOM     55  CA  SER B   9       3.893  -1.707   8.872  1.00 30.00 LIG 0.19  C 
BRANCH 55 56
ATOM     56  CB  SER B   9       3.526  -2.141  10.292  1.00 20.00 LIG 0.20  C 
BRANCH 56 57
ATOM     57 OG   SER B   9       2.974  -1.064  11.029  1.00 20.00 LIG-0.40  OA
ATOM     58 HG   SER B   9       2.243  -1.301  11.368  1.00 20.00 LIG 0.21  HD
ENDBRANCH 56 57
ENDBRANCH 55 56
BRANCH 55 59
ATOM     59  C   SER B   9       3.151  -2.570   7.865  1.00 30.00 LIG 0.22  C 
ATOM     60 O    SER B   9       3.107  -3.788   7.998  1.00 30.00 LIG-0.29  OA
ENDBRANCH 55 59
ENDBRANCH 52 55
ENDBRANCH 50 51
BRANCH 50 61
ATOM     61  CB  PHE B   8       3.944   2.805  10.311  1.00 20.00 LIG 0.07  C 
BRANCH 61 62
ATOM     62  CG  PHE B   8       2.958   2.210  11.278  1.00 20.00 LIG-0.06  A 
ATOM     63  CD1 PHE B   8       1.606   2.346  11.089  1.00 20.00 LIG 0.01  A 
ATOM     64  CE1 PHE B   8       0.712   1.797  11.993  1.00 20.00 LIG 0.00  A 
ATOM     65  CZ  PHE B   8       1.176   1.108  13.096  1.00 20.00 LIG 0.00  A 
ATOM     66  CE2 PHE B   8       2.509   0.976  13.293  1.00 20.00 LIG 0.00  A 
ATOM     67  CD2 PHE B   8       3.397   1.520  12.389  1.00 20.00 LIG 0.01  A 
ENDBRANCH 61 62
ENDBRANCH 50 61
ENDBRANCH 48 50
ENDBRANCH 37 46
ENDBRANCH 34 37
ENDBRANCH 1 33
BRANCH 1 68
ATOM     68  CB  ARG B   6      -0.190   6.202   5.618  1.00 20.00 LIG 0.04  C 
BRANCH 68 69
ATOM     69  CG  ARG B   6      -1.365   5.689   4.783  1.00 20.00 LIG 0.02  C 
BRANCH 69 70
ATOM     70  CD  ARG B   6      -2.681   6.145   5.424  1.00 20.00 LIG 0.14  C 
BRANCH 70 71
ATOM     71  NE  ARG B   6      -3.883   5.560   4.823  1.00 20.00 LIG-0.23  N 
ATOM     72  CZ  ARG B   6      -5.123   5.917   5.153  1.00 20.00 LIG 0.67  C 
ATOM     73  NH1 ARG B   6      -5.312   6.858   6.065  1.00 20.00 LIG-0.23  N 
ATOM     74  NH2 ARG B   6      -6.175   5.344   4.574  1.00 20.00 LIG-0.23  N 
ATOM     75 1HH1 ARG B   6      -4.636   7.234   6.441  1.00 20.00 LIG 0.17  HD
ATOM     76 2HH1 ARG B   6      -6.110   7.093   6.282  1.00 20.00 LIG 0.17  HD
ATOM     77 1HH2 ARG B   6      -6.060   4.734   3.979  1.00 20.00 LIG 0.17  HD
ATOM     78 2HH2 ARG B   6      -6.971   5.583   4.795  1.00 20.00 LIG 0.17  HD
ATOM     79 HE   ARG B   6      -3.782   4.952   4.223  1.00 20.00 LIG 0.18  HD
ENDBRANCH 70 71
ENDBRANCH 69 70
ENDBRANCH 68 69
ENDBRANCH 1 68
TORSDOF 33
ENDMDL
MODEL 28
USER: ADFR SOLUTION from run 51
USER: SCORE 23.077116 LL:  -2.814 LR: -20.672 RR:   0.000 FEB: -10.828
USER: RMSD 10.919026
USER: SEED 50
USER: STATUS searching
USER: GENES 35
USER: genes 0 Translation |==|  0.66073 0.57183 0.60128
USER: genes 1 Rotation |==|  0.33190 0.04124 0.39408 0.50807
USER: genes 2 Torsion [C]-CA--N-[C] |==|  0.72133
USER: genes 3 Torsion [N]-C--CA-[N] |==|  0.46928
USER: genes 4 Torsion [C]-CA--N-[C] |==|  0.77613
USER: genes 5 Torsion [N]-C--CA-[N] |==|  0.47965
USER: genes 6 Torsion [C]-CA--CB-[CG] |==|  0.33149
USER: genes 7 Torsion [CA]-CB--CG-[CD] |==|  0.23936
USER: genes 8 Torsion [CB]-CG--CD-[NE] |==|  0.13496
USER: genes 9 Torsion [CG]-CD--NE-[HE] |==|  0.76037
USER: genes 10 Torsion [C]-CA--CB-[CG] |==|  0.40415
USER: genes 11 Torsion [CA]-CB--CG-[CD] |==|  0.96575
USER: genes 12 Torsion [CB]-CG--CD-[CE] |==|  0.58582
USER: genes 13 Torsion [CG]-CD--CE-[NZ] |==|  0.36475
USER: genes 14 Torsion [CD]-CE--NZ-[HZ2] |==|  0.41215
USER: genes 15 Torsion [N]-CA--C-[N] |==|  0.41066
USER: genes 16 Torsion [C]-N--CA-[CB] |==|  0.86109
USER: genes 17 Torsion [N]-CA--CB-[CG] |==|  0.49269
USER: genes 18 Torsion [CA]-CB--CG-[CD] |==|  0.17951
USER: genes 19 Torsion [CB]-CG--CD-[CE] |==|  0.54517
USER: genes 20 Torsion [CG]-CD--CE-[NZ] |==|  0.35207
USER: genes 21 Torsion [CD]-CE--NZ-[HZ1] |==|  0.50264
USER: genes 22 Torsion [N]-CA--C-[N] |==|  0.37815
USER: genes 23 Torsion [C]-N--CA-[C] |==|  0.68613
USER: genes 24 Torsion [N]-CA--C-[N] |==|  0.43235
USER: genes 25 Torsion [C]-N--CA-[CB] |==|  0.39033
USER: genes 26 Torsion [N]-CA--CB-[OG] |==|  0.00238
USER: genes 27 Torsion [CA]-CB--OG-[HG] |==|  0.58785
USER: genes 28 Torsion [N]-CA--C-[O] |==|  0.39399
USER: genes 29 Torsion [N]-CA--CB-[CG] |==|  0.67946
USER: genes 30 Torsion [CA]-CB--CG-[CD2] |==|  0.37396
USER: genes 31 Torsion [N]-CA--CB-[CG] |==|  0.86970
USER: genes 32 Torsion [CA]-CB--CG-[CD] |==|  0.31386
USER: genes 33 Torsion [CB]-CG--CD-[NE] |==|  0.16882
USER: genes 34 Torsion [CG]-CD--NE-[CZ] |==|  0.56053
ROOT
ATOM      1  CA  ARG B   6       4.690   9.023  12.593  1.00 51.45 LIG 0.18  C 
ENDROOT
BRANCH 1 2
ATOM      2  N   ARG B   6       6.003   8.519  12.976  1.00 51.69 LIG-0.35  N 
ATOM      3 H    ARG B   6       6.653   8.826  12.505  1.00 51.69 LIG 0.16  HD
ATOM      4  C   LYS B   5       6.153   7.660  13.973  1.00 56.23 LIG 0.24  C 
ATOM      5 O    LYS B   5       5.214   7.245  14.630  1.00 55.49 LIG-0.27  OA
BRANCH 4 6
ATOM      6  CA  LYS B   5       7.566   7.205  14.289  1.00 54.66 LIG 0.18  C 
BRANCH 6 7
ATOM      7  N   LYS B   5       7.510   6.498  15.552  1.00 56.15 LIG-0.35  N 
ATOM      8 H    LYS B   5       7.494   5.643  15.469  1.00 56.15 LIG 0.16  HD
ATOM      9  C   ARG B   4       7.486   7.114  16.723  1.00 62.85 LIG 0.26  C 
ATOM     10 O    ARG B   4       7.640   8.323  16.854  1.00 61.66 LIG-0.27  OA
BRANCH 9 11
ATOM     11  CA  ARG B   4       7.269   6.220  17.932  1.00 63.68 LIG 0.40  C 
ATOM     12  N   ARG B   4       7.442   7.014  19.133  1.00 64.21 LIG 0.61  N 
BRANCH 11 13
ATOM     13  CB  ARG B   4       5.873   5.579  17.890  1.00 20.00 LIG 0.05  C 
BRANCH 13 14
ATOM     14  CG  ARG B   4       5.873   4.051  17.843  1.00 20.00 LIG 0.02  C 
BRANCH 14 15
ATOM     15  CD  ARG B   4       5.944   3.420  19.253  1.00 20.00 LIG 0.14  C 
BRANCH 15 16
ATOM     16  NE  ARG B   4       4.981   3.993  20.200  1.00 20.00 LIG-0.23  N 
ATOM     17  CZ  ARG B   4       3.767   3.494  20.443  1.00 20.00 LIG 0.67  C 
ATOM     18  NH2 ARG B   4       2.962   4.084  21.314  1.00 20.00 LIG-0.23  N 
ATOM     19  NH1 ARG B   4       3.353   2.402  19.826  1.00 20.00 LIG-0.23  N 
ATOM     20 2HH2 ARG B   4       2.181   3.758  21.467  1.00 20.00 LIG 0.17  HD
ATOM     21 1HH2 ARG B   4       3.221   4.793  21.727  1.00 20.00 LIG 0.17  HD
ATOM     22 1HH1 ARG B   4       3.867   2.006  19.261  1.00 20.00 LIG 0.17  HD
ATOM     23 2HH1 ARG B   4       2.569   2.087  19.988  1.00 20.00 LIG 0.17  HD
ATOM     24 HE   ARG B   4       5.215   4.700  20.630  1.00 20.00 LIG 0.18  HD
ENDBRANCH 15 16
ENDBRANCH 14 15
ENDBRANCH 13 14
ENDBRANCH 11 13
ENDBRANCH 9 11
ENDBRANCH 6 7
BRANCH 6 25
ATOM     25  CB  LYS B   5       8.091   6.292  13.185  1.00 20.00 LIG 0.04  C 
BRANCH 25 26
ATOM     26  CG  LYS B   5       9.571   6.432  12.916  1.00 20.00 LIG 0.00  C 
BRANCH 26 27
ATOM     27  CD  LYS B   5      10.138   7.665  13.603  1.00 20.00 LIG 0.03  C 
BRANCH 27 28
ATOM     28  CE  LYS B   5      11.301   8.250  12.818  1.00 20.00 LIG 0.23  C 
BRANCH 28 29
ATOM     29  NZ  LYS B   5      11.176   9.709  12.618  1.00 20.00 LIG-0.08  N 
ATOM     30 HZ2  LYS B   5      11.987  10.076  12.593  1.00 20.00 LIG 0.27  HD
ATOM     31 HZ3  LYS B   5      10.756   9.868  11.849  1.00 20.00 LIG 0.27  HD
ATOM     32 HZ1  LYS B   5      10.711  10.062  13.289  1.00 20.00 LIG 0.27  HD
ENDBRANCH 28 29
ENDBRANCH 27 28
ENDBRANCH 26 27
ENDBRANCH 25 26
ENDBRANCH 6 25
ENDBRANCH 4 6
ENDBRANCH 1 2
BRANCH 1 33
ATOM     33  C   ARG B   6       4.169   8.283  11.372  1.00 52.50 LIG 0.24  C 
ATOM     34  N   LYS B   7       2.855   8.122  11.293  1.00 47.60 LIG-0.35  N 
ATOM     35 H    LYS B   7       2.304   8.343  11.914  1.00 47.60 LIG 0.16  HD
ATOM     36 O    ARG B   6       4.940   7.877  10.513  1.00 51.14 LIG-0.27  OA
BRANCH 34 37
ATOM     37  CA  LYS B   7       2.235   7.540  10.112  1.00 46.86 LIG 0.18  C 
BRANCH 37 38
ATOM     38  CB  LYS B   7       2.733   8.226   8.840  1.00 20.00 LIG 0.04  C 
BRANCH 38 39
ATOM     39  CG  LYS B   7       2.189   7.645   7.563  1.00 20.00 LIG 0.00  C 
BRANCH 39 40
ATOM     40  CD  LYS B   7       0.677   7.831   7.453  1.00 20.00 LIG 0.03  C 
BRANCH 40 41
ATOM     41  CE  LYS B   7       0.081   6.918   6.390  1.00 20.00 LIG 0.23  C 
BRANCH 41 42
ATOM     42  NZ  LYS B   7      -1.045   6.094   6.922  1.00 20.00 LIG-0.08  N 
ATOM     43 HZ2  LYS B   7      -0.754   5.595   7.599  1.00 20.00 LIG 0.27  HD
ATOM     44 HZ1  LYS B   7      -1.357   5.566   6.277  1.00 20.00 LIG 0.27  HD
ATOM     45 HZ3  LYS B   7      -1.697   6.630   7.207  1.00 20.00 LIG 0.27  HD
ENDBRANCH 41 42
ENDBRANCH 40 41
ENDBRANCH 39 40
ENDBRANCH 38 39
ENDBRANCH 37 38
BRANCH 37 46
ATOM     46  C   LYS B   7       2.557   6.055  10.041  1.00 48.01 LIG 0.24  C 
ATOM     47 O    LYS B   7       3.686   5.649  10.265  1.00 46.73 LIG-0.27  OA
ATOM     48  N   PHE B   8       1.551   5.252   9.727  1.00 43.62 LIG-0.35  N 
ATOM     49 H    PHE B   8       0.737   5.515   9.650  1.00 43.62 LIG 0.16  HD
BRANCH 48 50
ATOM     50  CA  PHE B   8       1.741   3.831   9.484  1.00 44.29 LIG 0.18  C 
BRANCH 50 51
ATOM     51  C   PHE B   8       1.449   3.579   8.006  1.00 70.57 LIG 0.24  C 
ATOM     52  N   SER B   9       2.023   2.509   7.471  1.00 30.00 LIG-0.34  N 
ATOM     53 H    SER B   9       2.487   1.939   7.916  1.00 30.00 LIG 0.16  HD
ATOM     54 O    PHE B   8       0.753   4.351   7.356  1.00 41.97 LIG-0.27  OA
BRANCH 52 55
ATOM     55  CA  SER B   9       1.904   2.214   6.047  1.00 30.00 LIG 0.19  C 
BRANCH 55 56
ATOM     56  CB  SER B   9       3.233   1.683   5.504  1.00 20.00 LIG 0.20  C 
BRANCH 56 57
ATOM     57 OG   SER B   9       4.207   1.604   6.529  1.00 20.00 LIG-0.40  OA
ATOM     58 HG   SER B   9       4.970   1.740   6.203  1.00 20.00 LIG 0.21  HD
ENDBRANCH 56 57
ENDBRANCH 55 56
BRANCH 55 59
ATOM     59  C   SER B   9       0.796   1.216   5.754  1.00 30.00 LIG 0.22  C 
ATOM     60 O    SER B   9       0.092   1.339   4.758  1.00 30.00 LIG-0.29  OA
ENDBRANCH 55 59
ENDBRANCH 52 55
ENDBRANCH 50 51
BRANCH 50 61
ATOM     61  CB  PHE B   8       0.823   3.012  10.388  1.00 20.00 LIG 0.07  C 
BRANCH 61 62
ATOM     62  CG  PHE B   8       1.544   2.153  11.389  1.00 20.00 LIG-0.06  A 
ATOM     63  CD1 PHE B   8       2.619   1.383  11.021  1.00 20.00 LIG 0.01  A 
ATOM     64  CE1 PHE B   8       3.268   0.593  11.955  1.00 20.00 LIG 0.00  A 
ATOM     65  CZ  PHE B   8       2.836   0.571  13.266  1.00 20.00 LIG 0.00  A 
ATOM     66  CE2 PHE B   8       1.773   1.323  13.635  1.00 20.00 LIG 0.00  A 
ATOM     67  CD2 PHE B   8       1.131   2.113  12.704  1.00 20.00 LIG 0.01  A 
ENDBRANCH 61 62
ENDBRANCH 50 61
ENDBRANCH 48 50
ENDBRANCH 37 46
ENDBRANCH 34 37
ENDBRANCH 1 33
BRANCH 1 68
ATOM     68  CB  ARG B   6       4.733  10.531  12.281  1.00 20.00 LIG 0.04  C 
BRANCH 68 69
ATOM     69  CG  ARG B   6       5.465  11.421  13.287  1.00 20.00 LIG 0.02  C 
BRANCH 69 70
ATOM     70  CD  ARG B   6       6.725  11.999  12.631  1.00 20.00 LIG 0.14  C 
BRANCH 70 71
ATOM     71  NE  ARG B   6       6.469  12.831  11.452  1.00 20.00 LIG-0.23  N 
ATOM     72  CZ  ARG B   6       7.378  13.078  10.511  1.00 20.00 LIG 0.67  C 
ATOM     73  NH1 ARG B   6       8.587  12.548  10.613  1.00 20.00 LIG-0.23  N 
ATOM     74  NH2 ARG B   6       7.085  13.848   9.466  1.00 20.00 LIG-0.23  N 
ATOM     75 1HH1 ARG B   6       8.781  12.048  11.285  1.00 20.00 LIG 0.17  HD
ATOM     76 2HH1 ARG B   6       9.177  12.704  10.008  1.00 20.00 LIG 0.17  HD
ATOM     77 1HH2 ARG B   6       6.301  14.194   9.392  1.00 20.00 LIG 0.17  HD
ATOM     78 2HH2 ARG B   6       7.680  14.001   8.864  1.00 20.00 LIG 0.17  HD
ATOM     79 HE   ARG B   6       5.688  13.180  11.363  1.00 20.00 LIG 0.18  HD
ENDBRANCH 70 71
ENDBRANCH 69 70
ENDBRANCH 68 69
ENDBRANCH 1 68
TORSDOF 33
ENDMDL
MODEL 29
USER: ADFR SOLUTION from run 188
USER: SCORE 22.669057 LL:  -2.943 LR: -20.630 RR:   0.000 FEB: -10.787
USER: RMSD 7.447235
USER: SEED 187
USER: STATUS no improvement in best in 3 clusters for 5 generations
USER: GENES 35
USER: genes 0 Translation |==|  0.53726 0.32150 0.49779
USER: genes 1 Rotation |==|  0.31927 0.87505 0.23707 0.58683
USER: genes 2 Torsion [C]-CA--N-[C] |==|  0.61382
USER: genes 3 Torsion [N]-C--CA-[N] |==|  0.41215
USER: genes 4 Torsion [C]-CA--N-[C] |==|  0.70627
USER: genes 5 Torsion [N]-C--CA-[N] |==|  0.40196
USER: genes 6 Torsion [C]-CA--CB-[CG] |==|  0.45173
USER: genes 7 Torsion [CA]-CB--CG-[CD] |==|  0.28526
USER: genes 8 Torsion [CB]-CG--CD-[NE] |==|  0.34329
USER: genes 9 Torsion [CG]-CD--NE-[HE] |==|  0.84959
USER: genes 10 Torsion [C]-CA--CB-[CG] |==|  0.27772
USER: genes 11 Torsion [CA]-CB--CG-[CD] |==|  0.43034
USER: genes 12 Torsion [CB]-CG--CD-[CE] |==|  0.04146
USER: genes 13 Torsion [CG]-CD--CE-[NZ] |==|  0.27054
USER: genes 14 Torsion [CD]-CE--NZ-[HZ2] |==|  0.78693
USER: genes 15 Torsion [N]-CA--C-[N] |==|  0.46623
USER: genes 16 Torsion [C]-N--CA-[CB] |==|  0.85175
USER: genes 17 Torsion [N]-CA--CB-[CG] |==|  0.47495
USER: genes 18 Torsion [CA]-CB--CG-[CD] |==|  0.54534
USER: genes 19 Torsion [CB]-CG--CD-[CE] |==|  0.65616
USER: genes 20 Torsion [CG]-CD--CE-[NZ] |==|  0.15710
USER: genes 21 Torsion [CD]-CE--NZ-[HZ1] |==|  0.41009
USER: genes 22 Torsion [N]-CA--C-[N] |==|  0.29564
USER: genes 23 Torsion [C]-N--CA-[C] |==|  0.84662
USER: genes 24 Torsion [N]-CA--C-[N] |==|  0.89392
USER: genes 25 Torsion [C]-N--CA-[CB] |==|  0.46368
USER: genes 26 Torsion [N]-CA--CB-[OG] |==|  0.06162
USER: genes 27 Torsion [CA]-CB--OG-[HG] |==|  0.34791
USER: genes 28 Torsion [N]-CA--C-[O] |==|  0.96628
USER: genes 29 Torsion [N]-CA--CB-[CG] |==|  0.51813
USER: genes 30 Torsion [CA]-CB--CG-[CD2] |==|  0.65079
USER: genes 31 Torsion [N]-CA--CB-[CG] |==|  0.13568
USER: genes 32 Torsion [CA]-CB--CG-[CD] |==|  0.47629
USER: genes 33 Torsion [CB]-CG--CD-[NE] |==|  0.00271
USER: genes 34 Torsion [CG]-CD--NE-[CZ] |==|  0.68891
ROOT
ATOM      1  CA  ARG B   6       1.634   2.264  10.187  1.00 51.45 LIG 0.18  C 
ENDROOT
BRANCH 1 2
ATOM      2  N   ARG B   6       2.007   3.557   9.626  1.00 51.69 LIG-0.35  N 
ATOM      3 H    ARG B   6       2.819   3.604   9.349  1.00 51.69 LIG 0.16  HD
ATOM      4  C   LYS B   5       1.144   4.561   9.559  1.00 56.23 LIG 0.24  C 
ATOM      5 O    LYS B   5      -0.006   4.465   9.953  1.00 55.49 LIG-0.27  OA
BRANCH 4 6
ATOM      6  CA  LYS B   5       1.638   5.860   8.951  1.00 54.66 LIG 0.18  C 
BRANCH 6 7
ATOM      7  N   LYS B   5       0.502   6.481   8.301  1.00 56.15 LIG-0.35  N 
ATOM      8 H    LYS B   5      -0.061   6.831   8.849  1.00 56.15 LIG 0.16  HD
ATOM      9  C   ARG B   4       0.348   6.507   6.988  1.00 62.85 LIG 0.26  C 
ATOM     10 O    ARG B   4       1.206   6.128   6.199  1.00 61.66 LIG-0.27  OA
BRANCH 9 11
ATOM     11  CA  ARG B   4      -0.977   7.062   6.491  1.00 63.68 LIG 0.40  C 
ATOM     12  N   ARG B   4      -0.744   7.787   5.258  1.00 64.21 LIG 0.61  N 
BRANCH 11 13
ATOM     13  CB  ARG B   4      -1.995   5.929   6.282  1.00 20.00 LIG 0.05  C 
BRANCH 13 14
ATOM     14  CG  ARG B   4      -3.451   6.386   6.192  1.00 20.00 LIG 0.02  C 
BRANCH 14 15
ATOM     15  CD  ARG B   4      -3.972   6.403   4.737  1.00 20.00 LIG 0.14  C 
BRANCH 15 16
ATOM     16  NE  ARG B   4      -5.173   5.584   4.535  1.00 20.00 LIG-0.23  N 
ATOM     17  CZ  ARG B   4      -6.313   6.027   4.000  1.00 20.00 LIG 0.67  C 
ATOM     18  NH2 ARG B   4      -7.349   5.214   3.863  1.00 20.00 LIG-0.23  N 
ATOM     19  NH1 ARG B   4      -6.423   7.279   3.594  1.00 20.00 LIG-0.23  N 
ATOM     20 2HH2 ARG B   4      -8.081   5.504   3.518  1.00 20.00 LIG 0.17  HD
ATOM     21 1HH2 ARG B   4      -7.290   4.395   4.119  1.00 20.00 LIG 0.17  HD
ATOM     22 1HH1 ARG B   4      -5.756   7.817   3.673  1.00 20.00 LIG 0.17  HD
ATOM     23 2HH1 ARG B   4      -7.161   7.557   3.251  1.00 20.00 LIG 0.17  HD
ATOM     24 HE   ARG B   4      -5.140   4.760   4.779  1.00 20.00 LIG 0.18  HD
ENDBRANCH 15 16
ENDBRANCH 14 15
ENDBRANCH 13 14
ENDBRANCH 11 13
ENDBRANCH 9 11
ENDBRANCH 6 7
BRANCH 6 25
ATOM     25  CB  LYS B   5       2.202   6.774  10.035  1.00 20.00 LIG 0.04  C 
BRANCH 25 26
ATOM     26  CG  LYS B   5       3.710   6.760  10.133  1.00 20.00 LIG 0.00  C 
BRANCH 26 27
ATOM     27  CD  LYS B   5       4.231   8.055  10.736  1.00 20.00 LIG 0.03  C 
BRANCH 27 28
ATOM     28  CE  LYS B   5       3.117   8.844  11.403  1.00 20.00 LIG 0.23  C 
BRANCH 28 29
ATOM     29  NZ  LYS B   5       3.057   8.624  12.863  1.00 20.00 LIG-0.08  N 
ATOM     30 HZ2  LYS B   5       2.684   7.833  13.029  1.00 20.00 LIG 0.27  HD
ATOM     31 HZ3  LYS B   5       3.882   8.638  13.199  1.00 20.00 LIG 0.27  HD
ATOM     32 HZ1  LYS B   5       2.572   9.266  13.240  1.00 20.00 LIG 0.27  HD
ENDBRANCH 28 29
ENDBRANCH 27 28
ENDBRANCH 26 27
ENDBRANCH 25 26
ENDBRANCH 6 25
ENDBRANCH 4 6
ENDBRANCH 1 2
BRANCH 1 33
ATOM     33  C   ARG B   6       2.759   1.711  11.046  1.00 52.50 LIG 0.24  C 
ATOM     34  N   LYS B   7       2.462   0.669  11.811  1.00 47.60 LIG-0.35  N 
ATOM     35 H    LYS B   7       1.671   0.346  11.900  1.00 47.60 LIG 0.16  HD
ATOM     36 O    ARG B   6       3.877   2.208  11.006  1.00 51.14 LIG-0.27  OA
BRANCH 34 37
ATOM     37  CA  LYS B   7       3.488  -0.020  12.579  1.00 46.86 LIG 0.18  C 
BRANCH 37 38
ATOM     38  CB  LYS B   7       4.649  -0.445  11.681  1.00 20.00 LIG 0.04  C 
BRANCH 38 39
ATOM     39  CG  LYS B   7       5.849  -0.975  12.420  1.00 20.00 LIG 0.00  C 
BRANCH 39 40
ATOM     40  CD  LYS B   7       7.093  -1.003  11.535  1.00 20.00 LIG 0.03  C 
BRANCH 40 41
ATOM     41  CE  LYS B   7       7.695  -2.400  11.468  1.00 20.00 LIG 0.23  C 
BRANCH 41 42
ATOM     42  NZ  LYS B   7       6.712  -3.416  10.987  1.00 20.00 LIG-0.08  N 
ATOM     43 HZ2  LYS B   7       6.300  -3.784  11.685  1.00 20.00 LIG 0.27  HD
ATOM     44 HZ1  LYS B   7       7.138  -4.048  10.527  1.00 20.00 LIG 0.27  HD
ATOM     45 HZ3  LYS B   7       6.110  -3.022  10.462  1.00 20.00 LIG 0.27  HD
ENDBRANCH 41 42
ENDBRANCH 40 41
ENDBRANCH 39 40
ENDBRANCH 38 39
ENDBRANCH 37 38
BRANCH 37 46
ATOM     46  C   LYS B   7       4.010   0.894  13.677  1.00 48.01 LIG 0.24  C 
ATOM     47 O    LYS B   7       4.743   1.833  13.412  1.00 46.73 LIG-0.27  OA
ATOM     48  N   PHE B   8       3.623   0.608  14.911  1.00 43.62 LIG-0.35  N 
ATOM     49 H    PHE B   8       3.042   0.003  15.101  1.00 43.62 LIG 0.16  HD
BRANCH 48 50
ATOM     50  CA  PHE B   8       4.154   1.304  16.071  1.00 44.29 LIG 0.18  C 
BRANCH 50 51
ATOM     51  C   PHE B   8       5.676   1.174  16.023  1.00 70.57 LIG 0.24  C 
ATOM     52  N   SER B   9       6.149   0.007  15.605  1.00 30.00 LIG-0.34  N 
ATOM     53 H    SER B   9       5.657  -0.636  15.314  1.00 30.00 LIG 0.16  HD
ATOM     54 O    PHE B   8       6.403   2.089  16.389  1.00 41.97 LIG-0.27  OA
BRANCH 52 55
ATOM     55  CA  SER B   9       7.580  -0.279  15.609  1.00 30.00 LIG 0.19  C 
BRANCH 55 56
ATOM     56  CB  SER B   9       7.821  -1.775  15.393  1.00 20.00 LIG 0.20  C 
BRANCH 56 57
ATOM     57 OG   SER B   9       6.710  -2.385  14.761  1.00 20.00 LIG-0.40  OA
ATOM     58 HG   SER B   9       6.965  -2.783  14.067  1.00 20.00 LIG 0.21  HD
ENDBRANCH 56 57
ENDBRANCH 55 56
BRANCH 55 59
ATOM     59  C   SER B   9       8.331   0.518  14.555  1.00 30.00 LIG 0.22  C 
ATOM     60 O    SER B   9       7.724   1.123  13.679  1.00 30.00 LIG-0.29  OA
ENDBRANCH 55 59
ENDBRANCH 52 55
ENDBRANCH 50 51
BRANCH 50 61
ATOM     61  CB  PHE B   8       3.577   0.711  17.355  1.00 20.00 LIG 0.07  C 
BRANCH 61 62
ATOM     62  CG  PHE B   8       3.946   1.462  18.604  1.00 20.00 LIG-0.06  A 
ATOM     63  CD1 PHE B   8       3.714   2.810  18.718  1.00 20.00 LIG 0.01  A 
ATOM     64  CE1 PHE B   8       4.065   3.487  19.875  1.00 20.00 LIG 0.00  A 
ATOM     65  CZ  PHE B   8       4.655   2.809  20.923  1.00 20.00 LIG 0.00  A 
ATOM     66  CE2 PHE B   8       4.893   1.482  20.815  1.00 20.00 LIG 0.00  A 
ATOM     67  CD2 PHE B   8       4.539   0.808  19.664  1.00 20.00 LIG 0.01  A 
ENDBRANCH 61 62
ENDBRANCH 50 61
ENDBRANCH 48 50
ENDBRANCH 37 46
ENDBRANCH 34 37
ENDBRANCH 1 33
BRANCH 1 68
ATOM     68  CB  ARG B   6       1.302   1.244   9.082  1.00 20.00 LIG 0.04  C 
BRANCH 68 69
ATOM     69  CG  ARG B   6       2.310   1.116   7.938  1.00 20.00 LIG 0.02  C 
BRANCH 69 70
ATOM     70  CD  ARG B   6       1.929  -0.080   7.057  1.00 20.00 LIG 0.14  C 
BRANCH 70 71
ATOM     71  NE  ARG B   6       0.718  -0.787   7.483  1.00 20.00 LIG-0.23  N 
ATOM     72  CZ  ARG B   6       0.719  -2.025   7.973  1.00 20.00 LIG 0.67  C 
ATOM     73  NH1 ARG B   6       1.865  -2.676   8.104  1.00 20.00 LIG-0.23  N 
ATOM     74  NH2 ARG B   6      -0.416  -2.616   8.338  1.00 20.00 LIG-0.23  N 
ATOM     75 1HH1 ARG B   6       2.602  -2.299   7.872  1.00 20.00 LIG 0.17  HD
ATOM     76 2HH1 ARG B   6       1.872  -3.476   8.420  1.00 20.00 LIG 0.17  HD
ATOM     77 1HH2 ARG B   6      -1.164  -2.198   8.258  1.00 20.00 LIG 0.17  HD
ATOM     78 2HH2 ARG B   6      -0.403  -3.416   8.653  1.00 20.00 LIG 0.17  HD
ATOM     79 HE   ARG B   6      -0.036  -0.380   7.413  1.00 20.00 LIG 0.18  HD
ENDBRANCH 70 71
ENDBRANCH 69 70
ENDBRANCH 68 69
ENDBRANCH 1 68
TORSDOF 33
ENDMDL
MODEL 30
USER: ADFR SOLUTION from run 125
USER: SCORE 22.204778 LL:  -2.572 LR: -20.604 RR:   0.000 FEB: -10.760
USER: RMSD 12.137859
USER: SEED 124
USER: STATUS no improvement in best in 2 clusters for 5 generations
USER: GENES 35
USER: genes 0 Translation |==|  0.57605 0.54430 0.48240
USER: genes 1 Rotation |==|  0.79620 0.57481 0.86976 0.64124
USER: genes 2 Torsion [C]-CA--N-[C] |==|  0.78061
USER: genes 3 Torsion [N]-C--CA-[N] |==|  0.01556
USER: genes 4 Torsion [C]-CA--N-[C] |==|  0.20255
USER: genes 5 Torsion [N]-C--CA-[N] |==|  0.59853
USER: genes 6 Torsion [C]-CA--CB-[CG] |==|  0.81020
USER: genes 7 Torsion [CA]-CB--CG-[CD] |==|  0.64902
USER: genes 8 Torsion [CB]-CG--CD-[NE] |==|  0.36271
USER: genes 9 Torsion [CG]-CD--NE-[HE] |==|  0.04985
USER: genes 10 Torsion [C]-CA--CB-[CG] |==|  0.22713
USER: genes 11 Torsion [CA]-CB--CG-[CD] |==|  0.47758
USER: genes 12 Torsion [CB]-CG--CD-[CE] |==|  0.24827
USER: genes 13 Torsion [CG]-CD--CE-[NZ] |==|  0.52606
USER: genes 14 Torsion [CD]-CE--NZ-[HZ2] |==|  0.33725
USER: genes 15 Torsion [N]-CA--C-[N] |==|  0.41582
USER: genes 16 Torsion [C]-N--CA-[CB] |==|  0.86667
USER: genes 17 Torsion [N]-CA--CB-[CG] |==|  0.77436
USER: genes 18 Torsion [CA]-CB--CG-[CD] |==|  0.95224
USER: genes 19 Torsion [CB]-CG--CD-[CE] |==|  0.50002
USER: genes 20 Torsion [CG]-CD--CE-[NZ] |==|  0.10747
USER: genes 21 Torsion [CD]-CE--NZ-[HZ1] |==|  0.12150
USER: genes 22 Torsion [N]-CA--C-[N] |==|  0.36162
USER: genes 23 Torsion [C]-N--CA-[C] |==|  0.60150
USER: genes 24 Torsion [N]-CA--C-[N] |==|  0.01767
USER: genes 25 Torsion [C]-N--CA-[CB] |==|  0.49744
USER: genes 26 Torsion [N]-CA--CB-[OG] |==|  0.02414
USER: genes 27 Torsion [CA]-CB--OG-[HG] |==|  0.79936
USER: genes 28 Torsion [N]-CA--C-[O] |==|  0.36661
USER: genes 29 Torsion [N]-CA--CB-[CG] |==|  0.12611
USER: genes 30 Torsion [CA]-CB--CG-[CD2] |==|  0.64628
USER: genes 31 Torsion [N]-CA--CB-[CG] |==|  0.50860
USER: genes 32 Torsion [CA]-CB--CG-[CD] |==|  0.66680
USER: genes 33 Torsion [CB]-CG--CD-[NE] |==|  0.60727
USER: genes 34 Torsion [CG]-CD--NE-[CZ] |==|  0.50179
ROOT
ATOM      1  CA  ARG B   6       2.594   8.280   9.829  1.00 51.45 LIG 0.18  C 
ENDROOT
BRANCH 1 2
ATOM      2  N   ARG B   6       2.233   7.085   9.076  1.00 51.69 LIG-0.35  N 
ATOM      3 H    ARG B   6       2.590   6.360   9.368  1.00 51.69 LIG 0.16  HD
ATOM      4  C   LYS B   5       1.420   7.141   8.032  1.00 56.23 LIG 0.24  C 
ATOM      5 O    LYS B   5       0.921   8.183   7.643  1.00 55.49 LIG-0.27  OA
BRANCH 4 6
ATOM      6  CA  LYS B   5       1.107   5.835   7.325  1.00 54.66 LIG 0.18  C 
BRANCH 6 7
ATOM      7  N   LYS B   5       1.720   4.777   8.102  1.00 56.15 LIG-0.35  N 
ATOM      8 H    LYS B   5       2.417   4.436   7.732  1.00 56.15 LIG 0.16  HD
ATOM      9  C   ARG B   4       1.249   4.375   9.271  1.00 62.85 LIG 0.26  C 
ATOM     10 O    ARG B   4       0.338   4.941   9.863  1.00 61.66 LIG-0.27  OA
BRANCH 9 11
ATOM     11  CA  ARG B   4       1.926   3.152   9.868  1.00 63.68 LIG 0.40  C 
ATOM     12  N   ARG B   4       0.929   2.363  10.562  1.00 64.21 LIG 0.61  N 
BRANCH 11 13
ATOM     13  CB  ARG B   4       2.620   2.327   8.772  1.00 20.00 LIG 0.05  C 
BRANCH 13 14
ATOM     14  CG  ARG B   4       1.670   1.639   7.792  1.00 20.00 LIG 0.02  C 
BRANCH 14 15
ATOM     15  CD  ARG B   4       1.939   0.121   7.681  1.00 20.00 LIG 0.14  C 
BRANCH 15 16
ATOM     16  NE  ARG B   4       0.730  -0.700   7.820  1.00 20.00 LIG-0.23  N 
ATOM     17  CZ  ARG B   4       0.727  -2.005   8.101  1.00 20.00 LIG 0.67  C 
ATOM     18  NH2 ARG B   4      -0.417  -2.666   8.202  1.00 20.00 LIG-0.23  N 
ATOM     19  NH1 ARG B   4       1.861  -2.655   8.291  1.00 20.00 LIG-0.23  N 
ATOM     20 2HH2 ARG B   4      -0.413  -3.506   8.383  1.00 20.00 LIG 0.17  HD
ATOM     21 1HH2 ARG B   4      -1.163  -2.254   8.085  1.00 20.00 LIG 0.17  HD
ATOM     22 1HH1 ARG B   4       2.611  -2.237   8.233  1.00 20.00 LIG 0.17  HD
ATOM     23 2HH1 ARG B   4       1.850  -3.495   8.472  1.00 20.00 LIG 0.17  HD
ATOM     24 HE   ARG B   4      -0.030  -0.313   7.712  1.00 20.00 LIG 0.18  HD
ENDBRANCH 15 16
ENDBRANCH 14 15
ENDBRANCH 13 14
ENDBRANCH 11 13
ENDBRANCH 9 11
ENDBRANCH 6 7
BRANCH 6 25
ATOM     25  CB  LYS B   5      -0.402   5.628   7.233  1.00 20.00 LIG 0.04  C 
BRANCH 25 26
ATOM     26  CG  LYS B   5      -1.059   6.367   6.091  1.00 20.00 LIG 0.00  C 
BRANCH 26 27
ATOM     27  CD  LYS B   5      -2.517   5.960   5.942  1.00 20.00 LIG 0.03  C 
BRANCH 27 28
ATOM     28  CE  LYS B   5      -3.426   6.837   6.788  1.00 20.00 LIG 0.23  C 
BRANCH 28 29
ATOM     29  NZ  LYS B   5      -4.814   6.334   6.841  1.00 20.00 LIG-0.08  N 
ATOM     30 HZ2  LYS B   5      -5.042   6.179   7.688  1.00 20.00 LIG 0.27  HD
ATOM     31 HZ3  LYS B   5      -5.363   6.942   6.493  1.00 20.00 LIG 0.27  HD
ATOM     32 HZ1  LYS B   5      -4.874   5.579   6.375  1.00 20.00 LIG 0.27  HD
ENDBRANCH 28 29
ENDBRANCH 27 28
ENDBRANCH 26 27
ENDBRANCH 25 26
ENDBRANCH 6 25
ENDBRANCH 4 6
ENDBRANCH 1 2
BRANCH 1 33
ATOM     33  C   ARG B   6       3.667   9.069   9.096  1.00 52.50 LIG 0.24  C 
ATOM     34  N   LYS B   7       3.661  10.383   9.274  1.00 47.60 LIG-0.35  N 
ATOM     35 H    LYS B   7       3.054  10.808   9.710  1.00 47.60 LIG 0.16  HD
ATOM     36 O    ARG B   6       4.492   8.498   8.395  1.00 51.14 LIG-0.27  OA
BRANCH 34 37
ATOM     37  CA  LYS B   7       4.713  11.224   8.724  1.00 46.86 LIG 0.18  C 
BRANCH 37 38
ATOM     38  CB  LYS B   7       6.093  10.651   9.043  1.00 20.00 LIG 0.04  C 
BRANCH 38 39
ATOM     39  CG  LYS B   7       6.599  10.969  10.425  1.00 20.00 LIG 0.00  C 
BRANCH 39 40
ATOM     40  CD  LYS B   7       5.832  12.128  11.056  1.00 20.00 LIG 0.03  C 
BRANCH 40 41
ATOM     41  CE  LYS B   7       6.351  12.443  12.453  1.00 20.00 LIG 0.23  C 
BRANCH 41 42
ATOM     42  NZ  LYS B   7       7.837  12.325  12.542  1.00 20.00 LIG-0.08  N 
ATOM     43 HZ2  LYS B   7       8.124  12.733  13.279  1.00 20.00 LIG 0.27  HD
ATOM     44 HZ1  LYS B   7       8.209  12.706  11.828  1.00 20.00 LIG 0.27  HD
ATOM     45 HZ3  LYS B   7       8.066  11.465  12.572  1.00 20.00 LIG 0.27  HD
ENDBRANCH 41 42
ENDBRANCH 40 41
ENDBRANCH 39 40
ENDBRANCH 38 39
ENDBRANCH 37 38
BRANCH 37 46
ATOM     46  C   LYS B   7       4.550  11.333   7.216  1.00 48.01 LIG 0.24  C 
ATOM     47 O    LYS B   7       4.402  10.334   6.530  1.00 46.73 LIG-0.27  OA
ATOM     48  N   PHE B   8       4.579  12.557   6.709  1.00 43.62 LIG-0.35  N 
ATOM     49 H    PHE B   8       4.598  13.270   7.188  1.00 43.62 LIG 0.16  HD
BRANCH 48 50
ATOM     50  CA  PHE B   8       4.579  12.803   5.277  1.00 44.29 LIG 0.18  C 
BRANCH 50 51
ATOM     51  C   PHE B   8       5.477  14.013   5.022  1.00 70.57 LIG 0.24  C 
ATOM     52  N   SER B   9       6.142  14.478   6.072  1.00 30.00 LIG-0.34  N 
ATOM     53 H    SER B   9       6.136  14.107   6.848  1.00 30.00 LIG 0.16  HD
ATOM     54 O    PHE B   8       5.540  14.535   3.916  1.00 41.97 LIG-0.27  OA
BRANCH 52 55
ATOM     55  CA  SER B   9       6.953  15.687   5.984  1.00 30.00 LIG 0.19  C 
BRANCH 55 56
ATOM     56  CB  SER B   9       7.584  16.001   7.342  1.00 20.00 LIG 0.20  C 
BRANCH 56 57
ATOM     57 OG   SER B   9       7.378  14.940   8.258  1.00 20.00 LIG-0.40  OA
ATOM     58 HG   SER B   9       6.572  14.927   8.496  1.00 20.00 LIG 0.21  HD
ENDBRANCH 56 57
ENDBRANCH 55 56
BRANCH 55 59
ATOM     59  C   SER B   9       8.040  15.577   4.927  1.00 30.00 LIG 0.22  C 
ATOM     60 O    SER B   9       8.212  16.476   4.112  1.00 30.00 LIG-0.29  OA
ENDBRANCH 55 59
ENDBRANCH 52 55
ENDBRANCH 50 51
BRANCH 50 61
ATOM     61  CB  PHE B   8       3.155  13.044   4.781  1.00 20.00 LIG 0.07  C 
BRANCH 61 62
ATOM     62  CG  PHE B   8       2.350  13.979   5.639  1.00 20.00 LIG-0.06  A 
ATOM     63  CD1 PHE B   8       2.829  15.218   5.985  1.00 20.00 LIG 0.01  A 
ATOM     64  CE1 PHE B   8       2.076  16.065   6.781  1.00 20.00 LIG 0.00  A 
ATOM     65  CZ  PHE B   8       0.836  15.666   7.238  1.00 20.00 LIG 0.00  A 
ATOM     66  CE2 PHE B   8       0.359  14.444   6.908  1.00 20.00 LIG 0.00  A 
ATOM     67  CD2 PHE B   8       1.109  13.604   6.110  1.00 20.00 LIG 0.01  A 
ENDBRANCH 61 62
ENDBRANCH 50 61
ENDBRANCH 48 50
ENDBRANCH 37 46
ENDBRANCH 34 37
ENDBRANCH 1 33
BRANCH 1 68
ATOM     68  CB  ARG B   6       3.109   7.927  11.237  1.00 20.00 LIG 0.04  C 
BRANCH 68 69
ATOM     69  CG  ARG B   6       3.453   9.099  12.157  1.00 20.00 LIG 0.02  C 
BRANCH 69 70
ATOM     70  CD  ARG B   6       4.933   9.018  12.552  1.00 20.00 LIG 0.14  C 
BRANCH 70 71
ATOM     71  NE  ARG B   6       5.212   9.390  13.941  1.00 20.00 LIG-0.23  N 
ATOM     72  CZ  ARG B   6       6.433   9.397  14.474  1.00 20.00 LIG 0.67  C 
ATOM     73  NH1 ARG B   6       7.474   9.062  13.727  1.00 20.00 LIG-0.23  N 
ATOM     74  NH2 ARG B   6       6.620   9.740  15.746  1.00 20.00 LIG-0.23  N 
ATOM     75 1HH1 ARG B   6       7.359   8.842  12.904  1.00 20.00 LIG 0.17  HD
ATOM     76 2HH1 ARG B   6       8.264   9.065  14.065  1.00 20.00 LIG 0.17  HD
ATOM     77 1HH2 ARG B   6       5.949   9.960  16.235  1.00 20.00 LIG 0.17  HD
ATOM     78 2HH2 ARG B   6       7.413   9.740  16.078  1.00 20.00 LIG 0.17  HD
ATOM     79 HE   ARG B   6       4.550   9.617  14.442  1.00 20.00 LIG 0.18  HD
ENDBRANCH 70 71
ENDBRANCH 69 70
ENDBRANCH 68 69
ENDBRANCH 1 68
TORSDOF 33
ENDMDL
MODEL 31
USER: ADFR SOLUTION from run 67
USER: SCORE 22.694100 LL:  -3.246 LR: -20.600 RR:   0.000 FEB: -10.756
USER: RMSD 7.846185
USER: SEED 66
USER: STATUS 1 or 2 clusters left
USER: GENES 35
USER: genes 0 Translation |==|  0.53849 0.50202 0.44489
USER: genes 1 Rotation |==|  0.51997 0.97235 0.34909 0.56096
USER: genes 2 Torsion [C]-CA--N-[C] |==|  0.71973
USER: genes 3 Torsion [N]-C--CA-[N] |==|  0.22899
USER: genes 4 Torsion [C]-CA--N-[C] |==|  0.58841
USER: genes 5 Torsion [N]-C--CA-[N] |==|  0.38154
USER: genes 6 Torsion [C]-CA--CB-[CG] |==|  0.32164
USER: genes 7 Torsion [CA]-CB--CG-[CD] |==|  0.22046
USER: genes 8 Torsion [CB]-CG--CD-[NE] |==|  0.60274
USER: genes 9 Torsion [CG]-CD--NE-[HE] |==|  0.84273
USER: genes 10 Torsion [C]-CA--CB-[CG] |==|  0.71260
USER: genes 11 Torsion [CA]-CB--CG-[CD] |==|  0.65731
USER: genes 12 Torsion [CB]-CG--CD-[CE] |==|  0.27851
USER: genes 13 Torsion [CG]-CD--CE-[NZ] |==|  0.61619
USER: genes 14 Torsion [CD]-CE--NZ-[HZ2] |==|  0.24664
USER: genes 15 Torsion [N]-CA--C-[N] |==|  0.85766
USER: genes 16 Torsion [C]-N--CA-[CB] |==|  0.85216
USER: genes 17 Torsion [N]-CA--CB-[CG] |==|  0.39191
USER: genes 18 Torsion [CA]-CB--CG-[CD] |==|  0.66644
USER: genes 19 Torsion [CB]-CG--CD-[CE] |==|  0.24742
USER: genes 20 Torsion [CG]-CD--CE-[NZ] |==|  0.17701
USER: genes 21 Torsion [CD]-CE--NZ-[HZ1] |==|  0.32462
USER: genes 22 Torsion [N]-CA--C-[N] |==|  0.39630
USER: genes 23 Torsion [C]-N--CA-[C] |==|  0.71701
USER: genes 24 Torsion [N]-CA--C-[N] |==|  0.95479
USER: genes 25 Torsion [C]-N--CA-[CB] |==|  0.22748
USER: genes 26 Torsion [N]-CA--CB-[OG] |==|  0.82639
USER: genes 27 Torsion [CA]-CB--OG-[HG] |==|  0.77084
USER: genes 28 Torsion [N]-CA--C-[O] |==|  0.37528
USER: genes 29 Torsion [N]-CA--CB-[CG] |==|  0.54699
USER: genes 30 Torsion [CA]-CB--CG-[CD2] |==|  0.69304
USER: genes 31 Torsion [N]-CA--CB-[CG] |==|  0.44871
USER: genes 32 Torsion [CA]-CB--CG-[CD] |==|  0.71478
USER: genes 33 Torsion [CB]-CG--CD-[NE] |==|  0.52129
USER: genes 34 Torsion [CG]-CD--NE-[CZ] |==|  0.46147
ROOT
ATOM      1  CA  ARG B   6       1.665   7.138   8.957  1.00 51.45 LIG 0.18  C 
ENDROOT
BRANCH 1 2
ATOM      2  N   ARG B   6       2.890   7.874   9.246  1.00 51.69 LIG-0.35  N 
ATOM      3 H    ARG B   6       3.470   7.860   8.613  1.00 51.69 LIG 0.16  HD
ATOM      4  C   LYS B   5       3.067   8.502  10.399  1.00 56.23 LIG 0.24  C 
ATOM      5 O    LYS B   5       2.223   8.510  11.279  1.00 55.49 LIG-0.27  OA
BRANCH 4 6
ATOM      6  CA  LYS B   5       4.379   9.240  10.592  1.00 54.66 LIG 0.18  C 
BRANCH 6 7
ATOM      7  N   LYS B   5       4.237  10.529   9.947  1.00 56.15 LIG-0.35  N 
ATOM      8 H    LYS B   5       3.436  10.840   9.968  1.00 56.15 LIG 0.16  HD
ATOM      9  C   ARG B   4       5.247  11.167   9.380  1.00 62.85 LIG 0.26  C 
ATOM     10 O    ARG B   4       6.412  10.794   9.460  1.00 61.66 LIG-0.27  OA
BRANCH 9 11
ATOM     11  CA  ARG B   4       4.884  12.430   8.618  1.00 63.68 LIG 0.40  C 
ATOM     12  N   ARG B   4       5.863  13.454   8.922  1.00 64.21 LIG 0.61  N 
BRANCH 11 13
ATOM     13  CB  ARG B   4       4.825  12.154   7.107  1.00 20.00 LIG 0.05  C 
BRANCH 13 14
ATOM     14  CG  ARG B   4       3.442  12.328   6.478  1.00 20.00 LIG 0.02  C 
BRANCH 14 15
ATOM     15  CD  ARG B   4       3.100  13.812   6.214  1.00 20.00 LIG 0.14  C 
BRANCH 15 16
ATOM     16  NE  ARG B   4       1.689  14.139   6.450  1.00 20.00 LIG-0.23  N 
ATOM     17  CZ  ARG B   4       1.258  15.082   7.291  1.00 20.00 LIG 0.67  C 
ATOM     18  NH2 ARG B   4      -0.039  15.303   7.442  1.00 20.00 LIG-0.23  N 
ATOM     19  NH1 ARG B   4       2.117  15.814   7.978  1.00 20.00 LIG-0.23  N 
ATOM     20 2HH2 ARG B   4      -0.311  15.912   7.985  1.00 20.00 LIG 0.17  HD
ATOM     21 1HH2 ARG B   4      -0.609  14.837   6.997  1.00 20.00 LIG 0.17  HD
ATOM     22 1HH1 ARG B   4       2.963  15.684   7.886  1.00 20.00 LIG 0.17  HD
ATOM     23 2HH1 ARG B   4       1.831  16.419   8.517  1.00 20.00 LIG 0.17  HD
ATOM     24 HE   ARG B   4       1.097  13.691   6.015  1.00 20.00 LIG 0.18  HD
ENDBRANCH 15 16
ENDBRANCH 14 15
ENDBRANCH 13 14
ENDBRANCH 11 13
ENDBRANCH 9 11
ENDBRANCH 6 7
BRANCH 6 25
ATOM     25  CB  LYS B   5       4.678   9.413  12.078  1.00 20.00 LIG 0.04  C 
BRANCH 25 26
ATOM     26  CG  LYS B   5       4.415  10.804  12.606  1.00 20.00 LIG 0.00  C 
BRANCH 26 27
ATOM     27  CD  LYS B   5       5.662  11.391  13.248  1.00 20.00 LIG 0.03  C 
BRANCH 27 28
ATOM     28  CE  LYS B   5       6.368  12.354  12.307  1.00 20.00 LIG 0.23  C 
BRANCH 28 29
ATOM     29  NZ  LYS B   5       7.837  12.198  12.329  1.00 20.00 LIG-0.08  N 
ATOM     30 HZ2  LYS B   5       8.080  11.588  11.728  1.00 20.00 LIG 0.27  HD
ATOM     31 HZ3  LYS B   5       8.221  12.976  12.132  1.00 20.00 LIG 0.27  HD
ATOM     32 HZ1  LYS B   5       8.095  11.936  13.139  1.00 20.00 LIG 0.27  HD
ENDBRANCH 28 29
ENDBRANCH 27 28
ENDBRANCH 26 27
ENDBRANCH 25 26
ENDBRANCH 6 25
ENDBRANCH 4 6
ENDBRANCH 1 2
BRANCH 1 33
ATOM     33  C   ARG B   6       1.878   5.646   9.152  1.00 52.50 LIG 0.24  C 
ATOM     34  N   LYS B   7       2.924   5.112   8.536  1.00 47.60 LIG-0.35  N 
ATOM     35 H    LYS B   7       3.431   5.539   7.988  1.00 47.60 LIG 0.16  HD
ATOM     36 O    ARG B   6       1.119   4.994   9.856  1.00 51.14 LIG-0.27  OA
BRANCH 34 37
ATOM     37  CA  LYS B   7       3.298   3.723   8.750  1.00 46.86 LIG 0.18  C 
BRANCH 37 38
ATOM     38  CB  LYS B   7       3.457   3.423  10.240  1.00 20.00 LIG 0.04  C 
BRANCH 38 39
ATOM     39  CG  LYS B   7       2.941   2.074  10.664  1.00 20.00 LIG 0.00  C 
BRANCH 39 40
ATOM     40  CD  LYS B   7       1.835   2.192  11.710  1.00 20.00 LIG 0.03  C 
BRANCH 40 41
ATOM     41  CE  LYS B   7       0.463   2.304  11.058  1.00 20.00 LIG 0.23  C 
BRANCH 41 42
ATOM     42  NZ  LYS B   7       0.105   1.078  10.286  1.00 20.00 LIG-0.08  N 
ATOM     43 HZ2  LYS B   7      -0.072   1.299   9.442  1.00 20.00 LIG 0.27  HD
ATOM     44 HZ1  LYS B   7      -0.613   0.697  10.650  1.00 20.00 LIG 0.27  HD
ATOM     45 HZ3  LYS B   7       0.786   0.505  10.306  1.00 20.00 LIG 0.27  HD
ENDBRANCH 41 42
ENDBRANCH 40 41
ENDBRANCH 39 40
ENDBRANCH 38 39
ENDBRANCH 37 38
BRANCH 37 46
ATOM     46  C   LYS B   7       2.234   2.808   8.163  1.00 48.01 LIG 0.24  C 
ATOM     47 O    LYS B   7       1.051   3.101   8.232  1.00 46.73 LIG-0.27  OA
ATOM     48  N   PHE B   8       2.669   1.697   7.586  1.00 43.62 LIG-0.35  N 
ATOM     49 H    PHE B   8       3.501   1.521   7.457  1.00 43.62 LIG 0.16  HD
BRANCH 48 50
ATOM     50  CA  PHE B   8       1.764   0.664   7.111  1.00 44.29 LIG 0.18  C 
BRANCH 50 51
ATOM     51  C   PHE B   8       1.775  -0.461   8.143  1.00 70.57 LIG 0.24  C 
ATOM     52  N   SER B   9       2.780  -0.450   9.009  1.00 30.00 LIG-0.34  N 
ATOM     53 H    SER B   9       3.372   0.173   9.051  1.00 30.00 LIG 0.16  HD
ATOM     54 O    PHE B   8       0.919  -1.338   8.136  1.00 41.97 LIG-0.27  OA
BRANCH 52 55
ATOM     55  CA  SER B   9       2.961  -1.524   9.980  1.00 30.00 LIG 0.19  C 
BRANCH 55 56
ATOM     56  CB  SER B   9       3.670  -2.713   9.329  1.00 20.00 LIG 0.20  C 
BRANCH 56 57
ATOM     57 OG   SER B   9       2.894  -3.257   8.276  1.00 20.00 LIG-0.40  OA
ATOM     58 HG   SER B   9       2.318  -3.781   8.593  1.00 20.00 LIG 0.21  HD
ENDBRANCH 56 57
ENDBRANCH 55 56
BRANCH 55 59
ATOM     59  C   SER B   9       3.738  -1.071  11.205  1.00 30.00 LIG 0.22  C 
ATOM     60 O    SER B   9       3.364  -1.377  12.331  1.00 30.00 LIG-0.29  OA
ENDBRANCH 55 59
ENDBRANCH 52 55
ENDBRANCH 50 51
BRANCH 50 61
ATOM     61  CB  PHE B   8       2.200   0.171   5.733  1.00 20.00 LIG 0.07  C 
BRANCH 61 62
ATOM     62  CG  PHE B   8       1.141  -0.587   4.983  1.00 20.00 LIG-0.06  A 
ATOM     63  CD1 PHE B   8       0.020   0.043   4.503  1.00 20.00 LIG 0.01  A 
ATOM     64  CE1 PHE B   8      -0.949  -0.672   3.819  1.00 20.00 LIG 0.00  A 
ATOM     65  CZ  PHE B   8      -0.796  -2.029   3.617  1.00 20.00 LIG 0.00  A 
ATOM     66  CE2 PHE B   8       0.303  -2.659   4.093  1.00 20.00 LIG 0.00  A 
ATOM     67  CD2 PHE B   8       1.269  -1.944   4.770  1.00 20.00 LIG 0.01  A 
ENDBRANCH 61 62
ENDBRANCH 50 61
ENDBRANCH 48 50
ENDBRANCH 37 46
ENDBRANCH 34 37
ENDBRANCH 1 33
BRANCH 1 68
ATOM     68  CB  ARG B   6       1.183   7.389   7.516  1.00 20.00 LIG 0.04  C 
BRANCH 68 69
ATOM     69  CG  ARG B   6       0.191   6.378   6.936  1.00 20.00 LIG 0.02  C 
BRANCH 69 70
ATOM     70  CD  ARG B   6       0.929   5.434   5.978  1.00 20.00 LIG 0.14  C 
BRANCH 70 71
ATOM     71  NE  ARG B   6       0.056   4.532   5.224  1.00 20.00 LIG-0.23  N 
ATOM     72  CZ  ARG B   6       0.456   3.832   4.164  1.00 20.00 LIG 0.67  C 
ATOM     73  NH1 ARG B   6       1.710   3.929   3.750  1.00 20.00 LIG-0.23  N 
ATOM     74  NH2 ARG B   6      -0.388   3.032   3.516  1.00 20.00 LIG-0.23  N 
ATOM     75 1HH1 ARG B   6       2.261   4.443   4.166  1.00 20.00 LIG 0.17  HD
ATOM     76 2HH1 ARG B   6       1.974   3.479   3.067  1.00 20.00 LIG 0.17  HD
ATOM     77 1HH2 ARG B   6      -1.203   2.962   3.781  1.00 20.00 LIG 0.17  HD
ATOM     78 2HH2 ARG B   6      -0.118   2.585   2.833  1.00 20.00 LIG 0.17  HD
ATOM     79 HE   ARG B   6      -0.761   4.449   5.480  1.00 20.00 LIG 0.18  HD
ENDBRANCH 70 71
ENDBRANCH 69 70
ENDBRANCH 68 69
ENDBRANCH 1 68
TORSDOF 33
ENDMDL
MODEL 32
USER: ADFR SOLUTION from run 92
USER: SCORE 22.035345 LL:  -3.271 LR: -20.569 RR:   0.000 FEB: -10.725
USER: RMSD 8.230789
USER: SEED 91
USER: STATUS searching
USER: GENES 35
USER: genes 0 Translation |==|  0.49511 0.44396 0.41969
USER: genes 1 Rotation |==|  0.36022 0.96450 0.38713 0.54428
USER: genes 2 Torsion [C]-CA--N-[C] |==|  0.84926
USER: genes 3 Torsion [N]-C--CA-[N] |==|  0.52052
USER: genes 4 Torsion [C]-CA--N-[C] |==|  0.78206
USER: genes 5 Torsion [N]-C--CA-[N] |==|  0.80329
USER: genes 6 Torsion [C]-CA--CB-[CG] |==|  0.23304
USER: genes 7 Torsion [CA]-CB--CG-[CD] |==|  0.39265
USER: genes 8 Torsion [CB]-CG--CD-[NE] |==|  0.28447
USER: genes 9 Torsion [CG]-CD--NE-[HE] |==|  0.71768
USER: genes 10 Torsion [C]-CA--CB-[CG] |==|  0.60873
USER: genes 11 Torsion [CA]-CB--CG-[CD] |==|  0.82078
USER: genes 12 Torsion [CB]-CG--CD-[CE] |==|  0.58904
USER: genes 13 Torsion [CG]-CD--CE-[NZ] |==|  0.48570
USER: genes 14 Torsion [CD]-CE--NZ-[HZ2] |==|  0.51609
USER: genes 15 Torsion [N]-CA--C-[N] |==|  0.36767
USER: genes 16 Torsion [C]-N--CA-[CB] |==|  0.28213
USER: genes 17 Torsion [N]-CA--CB-[CG] |==|  0.49120
USER: genes 18 Torsion [CA]-CB--CG-[CD] |==|  0.67855
USER: genes 19 Torsion [CB]-CG--CD-[CE] |==|  0.38775
USER: genes 20 Torsion [CG]-CD--CE-[NZ] |==|  0.62027
USER: genes 21 Torsion [CD]-CE--NZ-[HZ1] |==|  0.98739
USER: genes 22 Torsion [N]-CA--C-[N] |==|  0.33678
USER: genes 23 Torsion [C]-N--CA-[C] |==|  0.65002
USER: genes 24 Torsion [N]-CA--C-[N] |==|  0.01150
USER: genes 25 Torsion [C]-N--CA-[CB] |==|  0.21316
USER: genes 26 Torsion [N]-CA--CB-[OG] |==|  0.79318
USER: genes 27 Torsion [CA]-CB--OG-[HG] |==|  0.87208
USER: genes 28 Torsion [N]-CA--C-[O] |==|  0.14071
USER: genes 29 Torsion [N]-CA--CB-[CG] |==|  0.18649
USER: genes 30 Torsion [CA]-CB--CG-[CD2] |==|  0.28434
USER: genes 31 Torsion [N]-CA--CB-[CG] |==|  0.96101
USER: genes 32 Torsion [CA]-CB--CG-[CD] |==|  0.67806
USER: genes 33 Torsion [CB]-CG--CD-[NE] |==|  0.83896
USER: genes 34 Torsion [CG]-CD--NE-[CZ] |==|  0.48995
ROOT
ATOM      1  CA  ARG B   6       0.591   5.571   8.371  1.00 51.45 LIG 0.18  C 
ENDROOT
BRANCH 1 2
ATOM      2  N   ARG B   6       1.218   6.882   8.483  1.00 51.69 LIG-0.35  N 
ATOM      3 H    ARG B   6       0.976   7.445   7.880  1.00 51.69 LIG 0.16  HD
ATOM      4  C   LYS B   5       2.087   7.157   9.446  1.00 56.23 LIG 0.24  C 
ATOM      5 O    LYS B   5       2.408   6.341  10.293  1.00 55.49 LIG-0.27  OA
BRANCH 4 6
ATOM      6  CA  LYS B   5       2.674   8.556   9.471  1.00 54.66 LIG 0.18  C 
BRANCH 6 7
ATOM      7  N   LYS B   5       3.710   8.561  10.483  1.00 56.15 LIG-0.35  N 
ATOM      8 H    LYS B   5       4.506   8.505  10.163  1.00 56.15 LIG 0.16  HD
ATOM      9  C   ARG B   4       3.453   8.643  11.778  1.00 62.85 LIG 0.26  C 
ATOM     10 O    ARG B   4       2.334   8.854  12.233  1.00 61.66 LIG-0.27  OA
BRANCH 9 11
ATOM     11  CA  ARG B   4       4.650   8.478  12.699  1.00 63.68 LIG 0.40  C 
ATOM     12  N   ARG B   4       5.076   7.093  12.662  1.00 64.21 LIG 0.61  N 
BRANCH 11 13
ATOM     13  CB  ARG B   4       5.791   9.418  12.279  1.00 20.00 LIG 0.05  C 
BRANCH 13 14
ATOM     14  CG  ARG B   4       5.680  10.842  12.825  1.00 20.00 LIG 0.02  C 
BRANCH 14 15
ATOM     15  CD  ARG B   4       7.052  11.421  13.239  1.00 20.00 LIG 0.14  C 
BRANCH 15 16
ATOM     16  NE  ARG B   4       7.608  12.365  12.262  1.00 20.00 LIG-0.23  N 
ATOM     17  CZ  ARG B   4       7.223  13.637  12.132  1.00 20.00 LIG 0.67  C 
ATOM     18  NH2 ARG B   4       7.781  14.414  11.215  1.00 20.00 LIG-0.23  N 
ATOM     19  NH1 ARG B   4       6.288  14.140  12.917  1.00 20.00 LIG-0.23  N 
ATOM     20 2HH2 ARG B   4       7.529  15.232  11.135  1.00 20.00 LIG 0.17  HD
ATOM     21 1HH2 ARG B   4       8.394  14.100  10.701  1.00 20.00 LIG 0.17  HD
ATOM     22 1HH1 ARG B   4       5.921  13.648  13.519  1.00 20.00 LIG 0.17  HD
ATOM     23 2HH1 ARG B   4       6.046  14.960  12.826  1.00 20.00 LIG 0.17  HD
ATOM     24 HE   ARG B   4       8.226  12.079  11.737  1.00 20.00 LIG 0.18  HD
ENDBRANCH 15 16
ENDBRANCH 14 15
ENDBRANCH 13 14
ENDBRANCH 11 13
ENDBRANCH 9 11
ENDBRANCH 6 7
BRANCH 6 25
ATOM     25  CB  LYS B   5       3.254   8.913   8.106  1.00 20.00 LIG 0.04  C 
BRANCH 25 26
ATOM     26  CG  LYS B   5       4.549   9.689   8.167  1.00 20.00 LIG 0.00  C 
BRANCH 26 27
ATOM     27  CD  LYS B   5       4.341  11.053   8.807  1.00 20.00 LIG 0.03  C 
BRANCH 27 28
ATOM     28  CE  LYS B   5       5.286  12.089   8.222  1.00 20.00 LIG 0.23  C 
BRANCH 28 29
ATOM     29  NZ  LYS B   5       5.027  13.451   8.735  1.00 20.00 LIG-0.08  N 
ATOM     30 HZ2  LYS B   5       5.545  14.033   8.305  1.00 20.00 LIG 0.27  HD
ATOM     31 HZ3  LYS B   5       4.172  13.660   8.602  1.00 20.00 LIG 0.27  HD
ATOM     32 HZ1  LYS B   5       5.209  13.479   9.605  1.00 20.00 LIG 0.27  HD
ENDBRANCH 28 29
ENDBRANCH 27 28
ENDBRANCH 26 27
ENDBRANCH 25 26
ENDBRANCH 6 25
ENDBRANCH 4 6
ENDBRANCH 1 2
BRANCH 1 33
ATOM     33  C   ARG B   6       1.645   4.477   8.320  1.00 52.50 LIG 0.24  C 
ATOM     34  N   LYS B   7       1.457   3.435   9.118  1.00 47.60 LIG-0.35  N 
ATOM     35 H    LYS B   7       0.826   3.381   9.700  1.00 47.60 LIG 0.16  HD
ATOM     36 O    ARG B   6       2.603   4.569   7.564  1.00 51.14 LIG-0.27  OA
BRANCH 34 37
ATOM     37  CA  LYS B   7       2.332   2.274   9.064  1.00 46.86 LIG 0.18  C 
BRANCH 37 38
ATOM     38  CB  LYS B   7       3.342   2.297  10.210  1.00 20.00 LIG 0.04  C 
BRANCH 38 39
ATOM     39  CG  LYS B   7       4.241   1.092  10.275  1.00 20.00 LIG 0.00  C 
BRANCH 39 40
ATOM     40  CD  LYS B   7       4.015   0.283  11.551  1.00 20.00 LIG 0.03  C 
BRANCH 40 41
ATOM     41  CE  LYS B   7       4.052  -1.214  11.274  1.00 20.00 LIG 0.23  C 
BRANCH 41 42
ATOM     42  NZ  LYS B   7       2.962  -1.945  11.985  1.00 20.00 LIG-0.08  N 
ATOM     43 HZ2  LYS B   7       2.406  -2.303  11.389  1.00 20.00 LIG 0.27  HD
ATOM     44 HZ1  LYS B   7       2.514  -1.378  12.506  1.00 20.00 LIG 0.27  HD
ATOM     45 HZ3  LYS B   7       3.315  -2.591  12.486  1.00 20.00 LIG 0.27  HD
ENDBRANCH 41 42
ENDBRANCH 40 41
ENDBRANCH 39 40
ENDBRANCH 38 39
ENDBRANCH 37 38
BRANCH 37 46
ATOM     46  C   LYS B   7       1.502   1.002   9.150  1.00 48.01 LIG 0.24  C 
ATOM     47 O    LYS B   7       0.781   0.790  10.111  1.00 46.73 LIG-0.27  OA
ATOM     48  N   PHE B   8       1.614   0.159   8.133  1.00 43.62 LIG-0.35  N 
ATOM     49 H    PHE B   8       2.053   0.334   7.415  1.00 43.62 LIG 0.16  HD
BRANCH 48 50
ATOM     50  CA  PHE B   8       0.995  -1.156   8.145  1.00 44.29 LIG 0.18  C 
BRANCH 50 51
ATOM     51  C   PHE B   8       2.092  -2.179   7.852  1.00 70.57 LIG 0.24  C 
ATOM     52  N   SER B   9       3.324  -1.699   7.743  1.00 30.00 LIG-0.34  N 
ATOM     53 H    SER B   9       3.535  -0.877   7.883  1.00 30.00 LIG 0.16  HD
ATOM     54 O    PHE B   8       1.828  -3.364   7.691  1.00 41.97 LIG-0.27  OA
BRANCH 52 55
ATOM     55  CA  SER B   9       4.444  -2.555   7.366  1.00 30.00 LIG 0.19  C 
BRANCH 55 56
ATOM     56  CB  SER B   9       4.414  -2.834   5.862  1.00 20.00 LIG 0.20  C 
BRANCH 56 57
ATOM     57 OG   SER B   9       3.393  -3.760   5.535  1.00 20.00 LIG-0.40  OA
ATOM     58 HG   SER B   9       3.416  -4.405   6.073  1.00 20.00 LIG 0.21  HD
ENDBRANCH 56 57
ENDBRANCH 55 56
BRANCH 55 59
ATOM     59  C   SER B   9       5.786  -1.953   7.749  1.00 30.00 LIG 0.22  C 
ATOM     60 O    SER B   9       5.985  -1.544   8.887  1.00 30.00 LIG-0.29  OA
ENDBRANCH 55 59
ENDBRANCH 52 55
ENDBRANCH 50 51
BRANCH 50 61
ATOM     61  CB  PHE B   8      -0.127  -1.222   7.112  1.00 20.00 LIG 0.07  C 
BRANCH 61 62
ATOM     62  CG  PHE B   8       0.337  -1.139   5.685  1.00 20.00 LIG-0.06  A 
ATOM     63  CD1 PHE B   8       0.686   0.062   5.119  1.00 20.00 LIG 0.01  A 
ATOM     64  CE1 PHE B   8       1.107   0.121   3.801  1.00 20.00 LIG 0.00  A 
ATOM     65  CZ  PHE B   8       1.175  -1.031   3.043  1.00 20.00 LIG 0.00  A 
ATOM     66  CE2 PHE B   8       0.826  -2.218   3.591  1.00 20.00 LIG 0.00  A 
ATOM     67  CD2 PHE B   8       0.412  -2.275   4.906  1.00 20.00 LIG 0.01  A 
ENDBRANCH 61 62
ENDBRANCH 50 61
ENDBRANCH 48 50
ENDBRANCH 37 46
ENDBRANCH 34 37
ENDBRANCH 1 33
BRANCH 1 68
ATOM     68  CB  ARG B   6      -0.290   5.473   7.112  1.00 20.00 LIG 0.04  C 
BRANCH 68 69
ATOM     69  CG  ARG B   6      -0.630   6.787   6.406  1.00 20.00 LIG 0.02  C 
BRANCH 69 70
ATOM     70  CD  ARG B   6      -2.144   7.025   6.477  1.00 20.00 LIG 0.14  C 
BRANCH 70 71
ATOM     71  NE  ARG B   6      -2.955   5.956   5.888  1.00 20.00 LIG-0.23  N 
ATOM     72  CZ  ARG B   6      -4.286   5.940   5.911  1.00 20.00 LIG 0.67  C 
ATOM     73  NH1 ARG B   6      -4.942   6.938   6.483  1.00 20.00 LIG-0.23  N 
ATOM     74  NH2 ARG B   6      -4.966   4.936   5.363  1.00 20.00 LIG-0.23  N 
ATOM     75 1HH1 ARG B   6      -4.508   7.590   6.837  1.00 20.00 LIG 0.17  HD
ATOM     76 2HH1 ARG B   6      -5.802   6.933   6.501  1.00 20.00 LIG 0.17  HD
ATOM     77 1HH2 ARG B   6      -4.546   4.286   4.987  1.00 20.00 LIG 0.17  HD
ATOM     78 2HH2 ARG B   6      -5.826   4.937   5.384  1.00 20.00 LIG 0.17  HD
ATOM     79 HE   ARG B   6      -2.548   5.301   5.505  1.00 20.00 LIG 0.18  HD
ENDBRANCH 70 71
ENDBRANCH 69 70
ENDBRANCH 68 69
ENDBRANCH 1 68
TORSDOF 33
ENDMDL
MODEL 33
USER: ADFR SOLUTION from run 168
USER: SCORE 22.640545 LL:  -3.583 LR: -20.521 RR:   0.000 FEB: -10.677
USER: RMSD 6.574644
USER: SEED 167
USER: STATUS searching
USER: GENES 35
USER: genes 0 Translation |==|  0.51394 0.49291 0.44134
USER: genes 1 Rotation |==|  0.53312 0.94553 0.29327 0.58758
USER: genes 2 Torsion [C]-CA--N-[C] |==|  0.80672
USER: genes 3 Torsion [N]-C--CA-[N] |==|  0.09289
USER: genes 4 Torsion [C]-CA--N-[C] |==|  0.69739
USER: genes 5 Torsion [N]-C--CA-[N] |==|  0.97192
USER: genes 6 Torsion [C]-CA--CB-[CG] |==|  0.69182
USER: genes 7 Torsion [CA]-CB--CG-[CD] |==|  0.49496
USER: genes 8 Torsion [CB]-CG--CD-[NE] |==|  0.62623
USER: genes 9 Torsion [CG]-CD--NE-[HE] |==|  0.87975
USER: genes 10 Torsion [C]-CA--CB-[CG] |==|  0.58637
USER: genes 11 Torsion [CA]-CB--CG-[CD] |==|  0.58339
USER: genes 12 Torsion [CB]-CG--CD-[CE] |==|  0.46001
USER: genes 13 Torsion [CG]-CD--CE-[NZ] |==|  0.25413
USER: genes 14 Torsion [CD]-CE--NZ-[HZ2] |==|  0.57223
USER: genes 15 Torsion [N]-CA--C-[N] |==|  0.91193
USER: genes 16 Torsion [C]-N--CA-[CB] |==|  0.19779
USER: genes 17 Torsion [N]-CA--CB-[CG] |==|  0.58655
USER: genes 18 Torsion [CA]-CB--CG-[CD] |==|  0.13390
USER: genes 19 Torsion [CB]-CG--CD-[CE] |==|  0.72948
USER: genes 20 Torsion [CG]-CD--CE-[NZ] |==|  0.75298
USER: genes 21 Torsion [CD]-CE--NZ-[HZ1] |==|  0.83152
USER: genes 22 Torsion [N]-CA--C-[N] |==|  0.44338
USER: genes 23 Torsion [C]-N--CA-[C] |==|  0.65001
USER: genes 24 Torsion [N]-CA--C-[N] |==|  0.03790
USER: genes 25 Torsion [C]-N--CA-[CB] |==|  0.22725
USER: genes 26 Torsion [N]-CA--CB-[OG] |==|  0.15718
USER: genes 27 Torsion [CA]-CB--OG-[HG] |==|  0.07849
USER: genes 28 Torsion [N]-CA--C-[O] |==|  0.66590
USER: genes 29 Torsion [N]-CA--CB-[CG] |==|  0.21140
USER: genes 30 Torsion [CA]-CB--CG-[CD2] |==|  0.38000
USER: genes 31 Torsion [N]-CA--CB-[CG] |==|  0.68706
USER: genes 32 Torsion [CA]-CB--CG-[CD] |==|  0.65790
USER: genes 33 Torsion [CB]-CG--CD-[NE] |==|  0.35662
USER: genes 34 Torsion [CG]-CD--NE-[CZ] |==|  0.47703
ROOT
ATOM      1  CA  ARG B   6       1.057   6.893   8.874  1.00 51.45 LIG 0.18  C 
ENDROOT
BRANCH 1 2
ATOM      2  N   ARG B   6       2.285   7.634   9.134  1.00 51.69 LIG-0.35  N 
ATOM      3 H    ARG B   6       2.757   7.795   8.434  1.00 51.69 LIG 0.16  HD
ATOM      4  C   LYS B   5       2.621   8.015  10.357  1.00 56.23 LIG 0.24  C 
ATOM      5 O    LYS B   5       1.929   7.779  11.332  1.00 55.49 LIG-0.27  OA
BRANCH 4 6
ATOM      6  CA  LYS B   5       3.920   8.786  10.511  1.00 54.66 LIG 0.18  C 
BRANCH 6 7
ATOM      7  N   LYS B   5       4.081   9.584   9.314  1.00 56.15 LIG-0.35  N 
ATOM      8 H    LYS B   5       3.530  10.241   9.258  1.00 56.15 LIG 0.16  HD
ATOM      9  C   ARG B   4       4.994   9.324   8.391  1.00 62.85 LIG 0.26  C 
ATOM     10 O    ARG B   4       5.865   8.473   8.524  1.00 61.66 LIG-0.27  OA
BRANCH 9 11
ATOM     11  CA  ARG B   4       4.916  10.171   7.132  1.00 63.68 LIG 0.40  C 
ATOM     12  N   ARG B   4       3.678  10.923   7.153  1.00 64.21 LIG 0.61  N 
BRANCH 11 13
ATOM     13  CB  ARG B   4       6.131  11.108   7.032  1.00 20.00 LIG 0.05  C 
BRANCH 13 14
ATOM     14  CG  ARG B   4       5.810  12.591   7.216  1.00 20.00 LIG 0.02  C 
BRANCH 14 15
ATOM     15  CD  ARG B   4       7.075  13.478   7.150  1.00 20.00 LIG 0.14  C 
BRANCH 15 16
ATOM     16  NE  ARG B   4       7.137  14.489   8.212  1.00 20.00 LIG-0.23  N 
ATOM     17  CZ  ARG B   4       8.233  14.785   8.915  1.00 20.00 LIG 0.67  C 
ATOM     18  NH2 ARG B   4       8.191  15.712   9.860  1.00 20.00 LIG-0.23  N 
ATOM     19  NH1 ARG B   4       9.374  14.165   8.674  1.00 20.00 LIG-0.23  N 
ATOM     20 2HH2 ARG B   4       8.900  15.899  10.310  1.00 20.00 LIG 0.17  HD
ATOM     21 1HH2 ARG B   4       7.456  16.126  10.024  1.00 20.00 LIG 0.17  HD
ATOM     22 1HH1 ARG B   4       9.416  13.564   8.060  1.00 20.00 LIG 0.17  HD
ATOM     23 2HH1 ARG B   4      10.075  14.361   9.132  1.00 20.00 LIG 0.17  HD
ATOM     24 HE   ARG B   4       6.416  14.922   8.394  1.00 20.00 LIG 0.18  HD
ENDBRANCH 15 16
ENDBRANCH 14 15
ENDBRANCH 13 14
ENDBRANCH 11 13
ENDBRANCH 9 11
ENDBRANCH 6 7
BRANCH 6 25
ATOM     25  CB  LYS B   5       3.864   9.678  11.748  1.00 20.00 LIG 0.04  C 
BRANCH 25 26
ATOM     26  CG  LYS B   5       4.667  10.953  11.629  1.00 20.00 LIG 0.00  C 
BRANCH 26 27
ATOM     27  CD  LYS B   5       5.184  11.403  12.986  1.00 20.00 LIG 0.03  C 
BRANCH 27 28
ATOM     28  CE  LYS B   5       6.265  12.461  12.843  1.00 20.00 LIG 0.23  C 
BRANCH 28 29
ATOM     29  NZ  LYS B   5       5.724  13.836  12.863  1.00 20.00 LIG-0.08  N 
ATOM     30 HZ2  LYS B   5       6.274  14.378  12.420  1.00 20.00 LIG 0.27  HD
ATOM     31 HZ3  LYS B   5       4.923  13.845  12.474  1.00 20.00 LIG 0.27  HD
ATOM     32 HZ1  LYS B   5       5.649  14.113  13.705  1.00 20.00 LIG 0.27  HD
ENDBRANCH 28 29
ENDBRANCH 27 28
ENDBRANCH 26 27
ENDBRANCH 25 26
ENDBRANCH 6 25
ENDBRANCH 4 6
ENDBRANCH 1 2
BRANCH 1 33
ATOM     33  C   ARG B   6       1.153   5.485   9.441  1.00 52.50 LIG 0.24  C 
ATOM     34  N   LYS B   7       2.358   4.933   9.454  1.00 47.60 LIG-0.35  N 
ATOM     35 H    LYS B   7       3.056   5.290   9.102  1.00 47.60 LIG 0.16  HD
ATOM     36 O    ARG B   6       0.157   4.917   9.869  1.00 51.14 LIG-0.27  OA
BRANCH 34 37
ATOM     37  CA  LYS B   7       2.590   3.643  10.086  1.00 46.86 LIG 0.18  C 
BRANCH 37 38
ATOM     38  CB  LYS B   7       1.961   2.514   9.270  1.00 20.00 LIG 0.04  C 
BRANCH 38 39
ATOM     39  CG  LYS B   7       1.487   1.342  10.087  1.00 20.00 LIG 0.00  C 
BRANCH 39 40
ATOM     40  CD  LYS B   7       0.651   1.786  11.285  1.00 20.00 LIG 0.03  C 
BRANCH 40 41
ATOM     41  CE  LYS B   7       1.489   1.849  12.555  1.00 20.00 LIG 0.23  C 
BRANCH 41 42
ATOM     42  NZ  LYS B   7       1.508   0.545  13.282  1.00 20.00 LIG-0.08  N 
ATOM     43 HZ2  LYS B   7       1.843  -0.086  12.752  1.00 20.00 LIG 0.27  HD
ATOM     44 HZ1  LYS B   7       0.678   0.325  13.519  1.00 20.00 LIG 0.27  HD
ATOM     45 HZ3  LYS B   7       2.014   0.619  14.011  1.00 20.00 LIG 0.27  HD
ENDBRANCH 41 42
ENDBRANCH 40 41
ENDBRANCH 39 40
ENDBRANCH 38 39
ENDBRANCH 37 38
BRANCH 37 46
ATOM     46  C   LYS B   7       4.086   3.396  10.215  1.00 48.01 LIG 0.24  C 
ATOM     47 O    LYS B   7       4.882   4.004   9.517  1.00 46.73 LIG-0.27  OA
ATOM     48  N   PHE B   8       4.456   2.499  11.117  1.00 43.62 LIG-0.35  N 
ATOM     49 H    PHE B   8       3.913   2.127  11.670  1.00 43.62 LIG 0.16  HD
BRANCH 48 50
ATOM     50  CA  PHE B   8       5.835   2.058  11.251  1.00 44.29 LIG 0.18  C 
BRANCH 50 51
ATOM     51  C   PHE B   8       5.837   0.533  11.154  1.00 70.57 LIG 0.24  C 
ATOM     52  N   SER B   9       4.721  -0.025  10.704  1.00 30.00 LIG-0.34  N 
ATOM     53 H    SER B   9       4.041   0.419  10.419  1.00 30.00 LIG 0.16  HD
ATOM     54 O    PHE B   8       6.807  -0.124  11.512  1.00 41.97 LIG-0.27  OA
BRANCH 52 55
ATOM     55  CA  SER B   9       4.559  -1.475  10.660  1.00 30.00 LIG 0.19  C 
BRANCH 55 56
ATOM     56  CB  SER B   9       4.149  -2.005  12.035  1.00 20.00 LIG 0.20  C 
BRANCH 56 57
ATOM     57 OG   SER B   9       2.963  -1.377  12.490  1.00 20.00 LIG-0.40  OA
ATOM     58 HG   SER B   9       2.498  -1.142  11.831  1.00 20.00 LIG 0.21  HD
ENDBRANCH 56 57
ENDBRANCH 55 56
BRANCH 55 59
ATOM     59  C   SER B   9       3.541  -1.911   9.618  1.00 30.00 LIG 0.22  C 
ATOM     60 O    SER B   9       2.545  -2.544   9.946  1.00 30.00 LIG-0.29  OA
ENDBRANCH 55 59
ENDBRANCH 52 55
ENDBRANCH 50 51
BRANCH 50 61
ATOM     61  CB  PHE B   8       6.418   2.540  12.577  1.00 20.00 LIG 0.07  C 
BRANCH 61 62
ATOM     62  CG  PHE B   8       5.954   1.763  13.777  1.00 20.00 LIG-0.06  A 
ATOM     63  CD1 PHE B   8       4.636   1.414  13.932  1.00 20.00 LIG 0.01  A 
ATOM     64  CE1 PHE B   8       4.224   0.703  15.047  1.00 20.00 LIG 0.00  A 
ATOM     65  CZ  PHE B   8       5.140   0.341  16.016  1.00 20.00 LIG 0.00  A 
ATOM     66  CE2 PHE B   8       6.440   0.688  15.873  1.00 20.00 LIG 0.00  A 
ATOM     67  CD2 PHE B   8       6.848   1.392  14.760  1.00 20.00 LIG 0.01  A 
ENDBRANCH 61 62
ENDBRANCH 50 61
ENDBRANCH 48 50
ENDBRANCH 37 46
ENDBRANCH 34 37
ENDBRANCH 1 33
BRANCH 1 68
ATOM     68  CB  ARG B   6       0.759   6.803   7.366  1.00 20.00 LIG 0.04  C 
BRANCH 68 69
ATOM     69  CG  ARG B   6      -0.472   7.560   6.862  1.00 20.00 LIG 0.02  C 
BRANCH 69 70
ATOM     70  CD  ARG B   6      -1.414   6.580   6.151  1.00 20.00 LIG 0.14  C 
BRANCH 70 71
ATOM     71  NE  ARG B   6      -2.801   6.623   6.621  1.00 20.00 LIG-0.23  N 
ATOM     72  CZ  ARG B   6      -3.802   5.973   6.031  1.00 20.00 LIG 0.67  C 
ATOM     73  NH1 ARG B   6      -3.559   5.229   4.963  1.00 20.00 LIG-0.23  N 
ATOM     74  NH2 ARG B   6      -5.044   6.057   6.504  1.00 20.00 LIG-0.23  N 
ATOM     75 1HH1 ARG B   6      -2.759   5.169   4.654  1.00 20.00 LIG 0.17  HD
ATOM     76 2HH1 ARG B   6      -4.201   4.807   4.578  1.00 20.00 LIG 0.17  HD
ATOM     77 1HH2 ARG B   6      -5.208   6.536   7.199  1.00 20.00 LIG 0.17  HD
ATOM     78 2HH2 ARG B   6      -5.682   5.632   6.114  1.00 20.00 LIG 0.17  HD
ATOM     79 HE   ARG B   6      -2.980   7.095   7.318  1.00 20.00 LIG 0.18  HD
ENDBRANCH 70 71
ENDBRANCH 69 70
ENDBRANCH 68 69
ENDBRANCH 1 68
TORSDOF 33
ENDMDL
MODEL 34
USER: ADFR SOLUTION from run 175
USER: SCORE 21.603308 LL:  -2.933 LR: -20.502 RR:   0.000 FEB: -10.658
USER: RMSD 12.265563
USER: SEED 174
USER: STATUS 1 or 2 clusters left
USER: GENES 35
USER: genes 0 Translation |==|  0.64480 0.54293 0.58571
USER: genes 1 Rotation |==|  0.44434 0.02304 0.36068 0.50088
USER: genes 2 Torsion [C]-CA--N-[C] |==|  0.67248
USER: genes 3 Torsion [N]-C--CA-[N] |==|  0.52063
USER: genes 4 Torsion [C]-CA--N-[C] |==|  0.74181
USER: genes 5 Torsion [N]-C--CA-[N] |==|  0.44055
USER: genes 6 Torsion [C]-CA--CB-[CG] |==|  0.35797
USER: genes 7 Torsion [CA]-CB--CG-[CD] |==|  0.24876
USER: genes 8 Torsion [CB]-CG--CD-[NE] |==|  0.12917
USER: genes 9 Torsion [CG]-CD--NE-[HE] |==|  0.74882
USER: genes 10 Torsion [C]-CA--CB-[CG] |==|  0.22182
USER: genes 11 Torsion [CA]-CB--CG-[CD] |==|  0.41971
USER: genes 12 Torsion [CB]-CG--CD-[CE] |==|  0.79760
USER: genes 13 Torsion [CG]-CD--CE-[NZ] |==|  0.66289
USER: genes 14 Torsion [CD]-CE--NZ-[HZ2] |==|  0.41949
USER: genes 15 Torsion [N]-CA--C-[N] |==|  0.42005
USER: genes 16 Torsion [C]-N--CA-[CB] |==|  0.24246
USER: genes 17 Torsion [N]-CA--CB-[CG] |==|  0.24584
USER: genes 18 Torsion [CA]-CB--CG-[CD] |==|  0.35422
USER: genes 19 Torsion [CB]-CG--CD-[CE] |==|  0.75168
USER: genes 20 Torsion [CG]-CD--CE-[NZ] |==|  0.57926
USER: genes 21 Torsion [CD]-CE--NZ-[HZ1] |==|  0.10676
USER: genes 22 Torsion [N]-CA--C-[N] |==|  0.40468
USER: genes 23 Torsion [C]-N--CA-[C] |==|  0.55251
USER: genes 24 Torsion [N]-CA--C-[N] |==|  0.37833
USER: genes 25 Torsion [C]-N--CA-[CB] |==|  0.32235
USER: genes 26 Torsion [N]-CA--CB-[OG] |==|  0.29783
USER: genes 27 Torsion [CA]-CB--OG-[HG] |==|  0.79009
USER: genes 28 Torsion [N]-CA--C-[O] |==|  0.26526
USER: genes 29 Torsion [N]-CA--CB-[CG] |==|  0.47964
USER: genes 30 Torsion [CA]-CB--CG-[CD2] |==|  0.62119
USER: genes 31 Torsion [N]-CA--CB-[CG] |==|  0.93131
USER: genes 32 Torsion [CA]-CB--CG-[CD] |==|  0.23286
USER: genes 33 Torsion [CB]-CG--CD-[NE] |==|  0.23119
USER: genes 34 Torsion [CG]-CD--NE-[CZ] |==|  0.71861
ROOT
ATOM      1  CA  ARG B   6       4.296   8.243  12.231  1.00 51.45 LIG 0.18  C 
ENDROOT
BRANCH 1 2
ATOM      2  N   ARG B   6       5.630   8.271  12.817  1.00 51.69 LIG-0.35  N 
ATOM      3 H    ARG B   6       6.213   8.699  12.352  1.00 51.69 LIG 0.16  HD
ATOM      4  C   LYS B   5       5.894   7.678  13.972  1.00 56.23 LIG 0.24  C 
ATOM      5 O    LYS B   5       5.046   7.084  14.614  1.00 55.49 LIG-0.27  OA
BRANCH 4 6
ATOM      6  CA  LYS B   5       7.317   7.775  14.492  1.00 54.66 LIG 0.18  C 
BRANCH 6 7
ATOM      7  N   LYS B   5       7.402   6.916  15.654  1.00 56.15 LIG-0.35  N 
ATOM      8 H    LYS B   5       7.592   6.098  15.467  1.00 56.15 LIG 0.16  HD
ATOM      9  C   ARG B   4       7.204   7.350  16.888  1.00 62.85 LIG 0.26  C 
ATOM     10 O    ARG B   4       7.062   8.533  17.174  1.00 61.66 LIG-0.27  OA
BRANCH 9 11
ATOM     11  CA  ARG B   4       7.179   6.279  17.967  1.00 63.68 LIG 0.40  C 
ATOM     12  N   ARG B   4       7.464   6.901  19.244  1.00 64.21 LIG 0.61  N 
BRANCH 11 13
ATOM     13  CB  ARG B   4       5.818   5.566  17.991  1.00 20.00 LIG 0.05  C 
BRANCH 13 14
ATOM     14  CG  ARG B   4       5.895   4.040  17.945  1.00 20.00 LIG 0.02  C 
BRANCH 14 15
ATOM     15  CD  ARG B   4       5.982   3.413  19.355  1.00 20.00 LIG 0.14  C 
BRANCH 15 16
ATOM     16  NE  ARG B   4       5.012   3.971  20.305  1.00 20.00 LIG-0.23  N 
ATOM     17  CZ  ARG B   4       3.779   3.498  20.496  1.00 20.00 LIG 0.67  C 
ATOM     18  NH2 ARG B   4       2.970   4.072  21.374  1.00 20.00 LIG-0.23  N 
ATOM     19  NH1 ARG B   4       3.349   2.448  19.819  1.00 20.00 LIG-0.23  N 
ATOM     20 2HH2 ARG B   4       2.177   3.763  21.493  1.00 20.00 LIG 0.17  HD
ATOM     21 1HH2 ARG B   4       3.239   4.752  21.825  1.00 20.00 LIG 0.17  HD
ATOM     22 1HH1 ARG B   4       3.865   2.063  19.248  1.00 20.00 LIG 0.17  HD
ATOM     23 2HH1 ARG B   4       2.553   2.150  19.947  1.00 20.00 LIG 0.17  HD
ATOM     24 HE   ARG B   4       5.256   4.650  20.772  1.00 20.00 LIG 0.18  HD
ENDBRANCH 15 16
ENDBRANCH 14 15
ENDBRANCH 13 14
ENDBRANCH 11 13
ENDBRANCH 9 11
ENDBRANCH 6 7
BRANCH 6 25
ATOM     25  CB  LYS B   5       8.306   7.328  13.420  1.00 20.00 LIG 0.04  C 
BRANCH 25 26
ATOM     26  CG  LYS B   5       8.604   8.379  12.375  1.00 20.00 LIG 0.00  C 
BRANCH 26 27
ATOM     27  CD  LYS B   5      10.004   8.205  11.808  1.00 20.00 LIG 0.03  C 
BRANCH 27 28
ATOM     28  CE  LYS B   5      11.064   8.630  12.810  1.00 20.00 LIG 0.23  C 
BRANCH 28 29
ATOM     29  NZ  LYS B   5      11.933   9.709  12.298  1.00 20.00 LIG-0.08  N 
ATOM     30 HZ2  LYS B   5      12.228  10.201  12.979  1.00 20.00 LIG 0.27  HD
ATOM     31 HZ3  LYS B   5      12.627   9.353  11.869  1.00 20.00 LIG 0.27  HD
ATOM     32 HZ1  LYS B   5      11.470  10.223  11.739  1.00 20.00 LIG 0.27  HD
ENDBRANCH 28 29
ENDBRANCH 27 28
ENDBRANCH 26 27
ENDBRANCH 25 26
ENDBRANCH 6 25
ENDBRANCH 4 6
ENDBRANCH 1 2
BRANCH 1 33
ATOM     33  C   ARG B   6       4.317   7.530  10.888  1.00 52.50 LIG 0.24  C 
ATOM     34  N   LYS B   7       3.198   6.918  10.526  1.00 47.60 LIG-0.35  N 
ATOM     35 H    LYS B   7       2.505   6.842  11.028  1.00 47.60 LIG 0.16  HD
ATOM     36 O    ARG B   6       5.322   7.546  10.190  1.00 51.14 LIG-0.27  OA
BRANCH 34 37
ATOM     37  CA  LYS B   7       3.062   6.311   9.210  1.00 46.86 LIG 0.18  C 
BRANCH 37 38
ATOM     38  CB  LYS B   7       3.580   4.874   9.215  1.00 20.00 LIG 0.04  C 
BRANCH 38 39
ATOM     39  CG  LYS B   7       2.552   3.840   9.588  1.00 20.00 LIG 0.00  C 
BRANCH 39 40
ATOM     40  CD  LYS B   7       2.470   2.721   8.552  1.00 20.00 LIG 0.03  C 
BRANCH 40 41
ATOM     41  CE  LYS B   7       1.461   3.049   7.459  1.00 20.00 LIG 0.23  C 
BRANCH 41 42
ATOM     42  NZ  LYS B   7       0.857   1.820   6.864  1.00 20.00 LIG-0.08  N 
ATOM     43 HZ2  LYS B   7       0.082   2.028   6.477  1.00 20.00 LIG 0.27  HD
ATOM     44 HZ1  LYS B   7       0.717   1.218   7.504  1.00 20.00 LIG 0.27  HD
ATOM     45 HZ3  LYS B   7       1.411   1.482   6.254  1.00 20.00 LIG 0.27  HD
ENDBRANCH 41 42
ENDBRANCH 40 41
ENDBRANCH 39 40
ENDBRANCH 38 39
ENDBRANCH 37 38
BRANCH 37 46
ATOM     46  C   LYS B   7       1.600   6.317   8.790  1.00 48.01 LIG 0.24  C 
ATOM     47 O    LYS B   7       0.712   6.175   9.616  1.00 46.73 LIG-0.27  OA
ATOM     48  N   PHE B   8       1.362   6.484   7.498  1.00 43.62 LIG-0.35  N 
ATOM     49 H    PHE B   8       1.972   6.668   6.920  1.00 43.62 LIG 0.16  HD
BRANCH 48 50
ATOM     50  CA  PHE B   8       0.027   6.369   6.934  1.00 44.29 LIG 0.18  C 
BRANCH 50 51
ATOM     51  C   PHE B   8       0.184   6.144   5.431  1.00 70.57 LIG 0.24  C 
ATOM     52  N   SER B   9      -0.592   5.212   4.895  1.00 30.00 LIG-0.34  N 
ATOM     53 H    SER B   9      -1.200   4.784   5.328  1.00 30.00 LIG 0.16  HD
ATOM     54 O    PHE B   8       1.011   6.771   4.779  1.00 41.97 LIG-0.27  OA
BRANCH 52 55
ATOM     55  CA  SER B   9      -0.468   4.832   3.492  1.00 30.00 LIG 0.19  C 
BRANCH 55 56
ATOM     56  CB  SER B   9      -0.025   3.373   3.375  1.00 20.00 LIG 0.20  C 
BRANCH 56 57
ATOM     57 OG   SER B   9      -1.092   2.549   2.938  1.00 20.00 LIG-0.40  OA
ATOM     58 HG   SER B   9      -1.627   2.423   3.573  1.00 20.00 LIG 0.21  HD
ENDBRANCH 56 57
ENDBRANCH 55 56
BRANCH 55 59
ATOM     59  C   SER B   9      -1.762   5.038   2.721  1.00 30.00 LIG 0.22  C 
ATOM     60 O    SER B   9      -1.952   6.066   2.082  1.00 30.00 LIG-0.29  OA
ENDBRANCH 55 59
ENDBRANCH 52 55
ENDBRANCH 50 51
BRANCH 50 61
ATOM     61  CB  PHE B   8      -0.785   7.626   7.235  1.00 20.00 LIG 0.07  C 
BRANCH 61 62
ATOM     62  CG  PHE B   8      -2.121   7.681   6.548  1.00 20.00 LIG-0.06  A 
ATOM     63  CD1 PHE B   8      -2.935   6.577   6.487  1.00 20.00 LIG 0.01  A 
ATOM     64  CE1 PHE B   8      -4.160   6.644   5.845  1.00 20.00 LIG 0.00  A 
ATOM     65  CZ  PHE B   8      -4.572   7.823   5.257  1.00 20.00 LIG 0.00  A 
ATOM     66  CE2 PHE B   8      -3.772   8.913   5.306  1.00 20.00 LIG 0.00  A 
ATOM     67  CD2 PHE B   8      -2.554   8.846   5.950  1.00 20.00 LIG 0.01  A 
ENDBRANCH 61 62
ENDBRANCH 50 61
ENDBRANCH 48 50
ENDBRANCH 37 46
ENDBRANCH 34 37
ENDBRANCH 1 33
BRANCH 1 68
ATOM     68  CB  ARG B   6       3.736   9.664  12.032  1.00 20.00 LIG 0.04  C 
BRANCH 68 69
ATOM     69  CG  ARG B   6       4.300  10.759  12.940  1.00 20.00 LIG 0.02  C 
BRANCH 69 70
ATOM     70  CD  ARG B   6       5.611  11.288  12.344  1.00 20.00 LIG 0.14  C 
BRANCH 70 71
ATOM     71  NE  ARG B   6       5.437  12.310  11.308  1.00 20.00 LIG-0.23  N 
ATOM     72  CZ  ARG B   6       5.532  12.064  10.003  1.00 20.00 LIG 0.67  C 
ATOM     73  NH1 ARG B   6       5.789  10.833   9.587  1.00 20.00 LIG-0.23  N 
ATOM     74  NH2 ARG B   6       5.370  13.038   9.111  1.00 20.00 LIG-0.23  N 
ATOM     75 1HH1 ARG B   6       5.892  10.199  10.158  1.00 20.00 LIG 0.17  HD
ATOM     76 2HH1 ARG B   6       5.851  10.668   8.745  1.00 20.00 LIG 0.17  HD
ATOM     77 1HH2 ARG B   6       5.201  13.839   9.374  1.00 20.00 LIG 0.17  HD
ATOM     78 2HH2 ARG B   6       5.434  12.866   8.271  1.00 20.00 LIG 0.17  HD
ATOM     79 HE   ARG B   6       5.263  13.115  11.557  1.00 20.00 LIG 0.18  HD
ENDBRANCH 70 71
ENDBRANCH 69 70
ENDBRANCH 68 69
ENDBRANCH 1 68
TORSDOF 33
ENDMDL
MODEL 35
USER: ADFR SOLUTION from run 37
USER: SCORE 21.625725 LL:  -2.862 LR: -20.502 RR:   0.000 FEB: -10.658
USER: RMSD 13.048299
USER: SEED 36
USER: STATUS no improvement in best in 9 clusters for 5 generations
USER: GENES 35
USER: genes 0 Translation |==|  0.54861 0.29787 0.48083
USER: genes 1 Rotation |==|  0.11229 0.53122 0.81378 0.51587
USER: genes 2 Torsion [C]-CA--N-[C] |==|  0.72981
USER: genes 3 Torsion [N]-C--CA-[N] |==|  0.39253
USER: genes 4 Torsion [C]-CA--N-[C] |==|  0.76618
USER: genes 5 Torsion [N]-C--CA-[N] |==|  0.41973
USER: genes 6 Torsion [C]-CA--CB-[CG] |==|  0.80525
USER: genes 7 Torsion [CA]-CB--CG-[CD] |==|  0.45232
USER: genes 8 Torsion [CB]-CG--CD-[NE] |==|  0.17915
USER: genes 9 Torsion [CG]-CD--NE-[HE] |==|  0.87890
USER: genes 10 Torsion [C]-CA--CB-[CG] |==|  0.64776
USER: genes 11 Torsion [CA]-CB--CG-[CD] |==|  0.67227
USER: genes 12 Torsion [CB]-CG--CD-[CE] |==|  0.53217
USER: genes 13 Torsion [CG]-CD--CE-[NZ] |==|  0.34865
USER: genes 14 Torsion [CD]-CE--NZ-[HZ2] |==|  0.23080
USER: genes 15 Torsion [N]-CA--C-[N] |==|  0.39675
USER: genes 16 Torsion [C]-N--CA-[CB] |==|  0.31102
USER: genes 17 Torsion [N]-CA--CB-[CG] |==|  0.58361
USER: genes 18 Torsion [CA]-CB--CG-[CD] |==|  0.51217
USER: genes 19 Torsion [CB]-CG--CD-[CE] |==|  0.85978
USER: genes 20 Torsion [CG]-CD--CE-[NZ] |==|  0.70037
USER: genes 21 Torsion [CD]-CE--NZ-[HZ1] |==|  0.02185
USER: genes 22 Torsion [N]-CA--C-[N] |==|  0.40545
USER: genes 23 Torsion [C]-N--CA-[C] |==|  0.59987
USER: genes 24 Torsion [N]-CA--C-[N] |==|  0.42599
USER: genes 25 Torsion [C]-N--CA-[CB] |==|  0.81640
USER: genes 26 Torsion [N]-CA--CB-[OG] |==|  0.75426
USER: genes 27 Torsion [CA]-CB--OG-[HG] |==|  0.56737
USER: genes 28 Torsion [N]-CA--C-[O] |==|  0.23542
USER: genes 29 Torsion [N]-CA--CB-[CG] |==|  0.26475
USER: genes 30 Torsion [CA]-CB--CG-[CD2] |==|  0.28995
USER: genes 31 Torsion [N]-CA--CB-[CG] |==|  0.56919
USER: genes 32 Torsion [CA]-CB--CG-[CD] |==|  0.43172
USER: genes 33 Torsion [CB]-CG--CD-[NE] |==|  0.06478
USER: genes 34 Torsion [CG]-CD--NE-[CZ] |==|  0.67496
ROOT
ATOM      1  CA  ARG B   6       1.915   1.626   9.792  1.00 51.45 LIG 0.18  C 
ENDROOT
BRANCH 1 2
ATOM      2  N   ARG B   6       1.963   1.034  11.123  1.00 51.69 LIG-0.35  N 
ATOM      3 H    ARG B   6       1.228   0.667  11.375  1.00 51.69 LIG 0.16  HD
ATOM      4  C   LYS B   5       3.062   1.072  11.862  1.00 56.23 LIG 0.24  C 
ATOM      5 O    LYS B   5       4.094   1.594  11.477  1.00 55.49 LIG-0.27  OA
BRANCH 4 6
ATOM      6  CA  LYS B   5       3.001   0.419  13.230  1.00 54.66 LIG 0.18  C 
BRANCH 6 7
ATOM      7  N   LYS B   5       4.274  -0.239  13.442  1.00 56.15 LIG-0.35  N 
ATOM      8 H    LYS B   5       4.837   0.233  13.888  1.00 56.15 LIG 0.16  HD
ATOM      9  C   ARG B   4       4.543  -1.452  12.989  1.00 62.85 LIG 0.26  C 
ATOM     10 O    ARG B   4       3.706  -2.179  12.466  1.00 61.66 LIG-0.27  OA
BRANCH 9 11
ATOM     11  CA  ARG B   4       5.978  -1.919  13.169  1.00 63.68 LIG 0.40  C 
ATOM     12  N   ARG B   4       5.984  -3.363  13.290  1.00 64.21 LIG 0.61  N 
BRANCH 11 13
ATOM     13  CB  ARG B   4       6.850  -1.460  11.989  1.00 20.00 LIG 0.05  C 
BRANCH 13 14
ATOM     14  CG  ARG B   4       6.557  -2.165  10.665  1.00 20.00 LIG 0.02  C 
BRANCH 14 15
ATOM     15  CD  ARG B   4       7.134  -1.400   9.452  1.00 20.00 LIG 0.14  C 
BRANCH 15 16
ATOM     16  NE  ARG B   4       8.599  -1.324   9.450  1.00 20.00 LIG-0.23  N 
ATOM     17  CZ  ARG B   4       9.368  -1.519   8.375  1.00 20.00 LIG 0.67  C 
ATOM     18  NH2 ARG B   4      10.686  -1.436   8.471  1.00 20.00 LIG-0.23  N 
ATOM     19  NH1 ARG B   4       8.826  -1.792   7.202  1.00 20.00 LIG-0.23  N 
ATOM     20 2HH2 ARG B   4      11.176  -1.562   7.776  1.00 20.00 LIG 0.17  HD
ATOM     21 1HH2 ARG B   4      11.051  -1.254   9.228  1.00 20.00 LIG 0.17  HD
ATOM     22 1HH1 ARG B   4       7.971  -1.845   7.125  1.00 20.00 LIG 0.17  HD
ATOM     23 2HH1 ARG B   4       9.328  -1.917   6.515  1.00 20.00 LIG 0.17  HD
ATOM     24 HE   ARG B   4       8.991  -1.140  10.193  1.00 20.00 LIG 0.18  HD
ENDBRANCH 15 16
ENDBRANCH 14 15
ENDBRANCH 13 14
ENDBRANCH 11 13
ENDBRANCH 9 11
ENDBRANCH 6 7
BRANCH 6 25
ATOM     25  CB  LYS B   5       2.753   1.468  14.310  1.00 20.00 LIG 0.04  C 
BRANCH 25 26
ATOM     26  CG  LYS B   5       3.755   1.444  15.440  1.00 20.00 LIG 0.00  C 
BRANCH 26 27
ATOM     27  CD  LYS B   5       3.079   1.130  16.765  1.00 20.00 LIG 0.03  C 
BRANCH 27 28
ATOM     28  CE  LYS B   5       4.013   1.380  17.937  1.00 20.00 LIG 0.23  C 
BRANCH 28 29
ATOM     29  NZ  LYS B   5       3.435   2.294  18.943  1.00 20.00 LIG-0.08  N 
ATOM     30 HZ2  LYS B   5       2.904   1.835  19.492  1.00 20.00 LIG 0.27  HD
ATOM     31 HZ3  LYS B   5       4.090   2.672  19.413  1.00 20.00 LIG 0.27  HD
ATOM     32 HZ1  LYS B   5       2.962   2.926  18.533  1.00 20.00 LIG 0.27  HD
ENDBRANCH 28 29
ENDBRANCH 27 28
ENDBRANCH 26 27
ENDBRANCH 25 26
ENDBRANCH 6 25
ENDBRANCH 4 6
ENDBRANCH 1 2
BRANCH 1 33
ATOM     33  C   ARG B   6       1.306   3.018   9.849  1.00 52.50 LIG 0.24  C 
ATOM     34  N   LYS B   7       1.829   3.927   9.037  1.00 47.60 LIG-0.35  N 
ATOM     35 H    LYS B   7       2.523   3.794   8.548  1.00 47.60 LIG 0.16  HD
ATOM     36 O    ARG B   6       0.373   3.260  10.603  1.00 51.14 LIG-0.27  OA
BRANCH 34 37
ATOM     37  CA  LYS B   7       1.247   5.255   8.915  1.00 46.86 LIG 0.18  C 
BRANCH 37 38
ATOM     38  CB  LYS B   7       2.180   6.316   9.496  1.00 20.00 LIG 0.04  C 
BRANCH 38 39
ATOM     39  CG  LYS B   7       1.480   7.518  10.069  1.00 20.00 LIG 0.00  C 
BRANCH 39 40
ATOM     40  CD  LYS B   7       2.469   8.584  10.534  1.00 20.00 LIG 0.03  C 
BRANCH 40 41
ATOM     41  CE  LYS B   7       3.543   7.990  11.436  1.00 20.00 LIG 0.23  C 
BRANCH 41 42
ATOM     42  NZ  LYS B   7       3.366   8.393  12.863  1.00 20.00 LIG-0.08  N 
ATOM     43 HZ2  LYS B   7       3.367   7.667  13.379  1.00 20.00 LIG 0.27  HD
ATOM     44 HZ1  LYS B   7       2.592   8.822  12.957  1.00 20.00 LIG 0.27  HD
ATOM     45 HZ3  LYS B   7       4.034   8.930  13.105  1.00 20.00 LIG 0.27  HD
ENDBRANCH 41 42
ENDBRANCH 40 41
ENDBRANCH 39 40
ENDBRANCH 38 39
ENDBRANCH 37 38
BRANCH 37 46
ATOM     46  C   LYS B   7       0.982   5.566   7.450  1.00 48.01 LIG 0.24  C 
ATOM     47 O    LYS B   7       1.725   5.147   6.577  1.00 46.73 LIG-0.27  OA
ATOM     48  N   PHE B   8      -0.086   6.307   7.192  1.00 43.62 LIG-0.35  N 
ATOM     49 H    PHE B   8      -0.662   6.537   7.788  1.00 43.62 LIG 0.16  HD
BRANCH 48 50
ATOM     50  CA  PHE B   8      -0.383   6.801   5.858  1.00 44.29 LIG 0.18  C 
BRANCH 50 51
ATOM     51  C   PHE B   8      -0.997   8.191   6.013  1.00 70.57 LIG 0.24  C 
ATOM     52  N   SER B   9      -0.839   9.018   4.987  1.00 30.00 LIG-0.34  N 
ATOM     53 H    SER B   9      -0.471   8.795   4.242  1.00 30.00 LIG 0.16  HD
ATOM     54 O    PHE B   8      -1.566   8.522   7.046  1.00 41.97 LIG-0.27  OA
BRANCH 52 55
ATOM     55  CA  SER B   9      -1.290  10.404   5.050  1.00 30.00 LIG 0.19  C 
BRANCH 55 56
ATOM     56  CB  SER B   9      -2.816  10.461   5.145  1.00 20.00 LIG 0.20  C 
BRANCH 56 57
ATOM     57 OG   SER B   9      -3.407  10.478   3.858  1.00 20.00 LIG-0.40  OA
ATOM     58 HG   SER B   9      -4.168  10.832   3.903  1.00 20.00 LIG 0.21  HD
ENDBRANCH 56 57
ENDBRANCH 55 56
BRANCH 55 59
ATOM     59  C   SER B   9      -0.675  11.159   6.218  1.00 30.00 LIG 0.22  C 
ATOM     60 O    SER B   9       0.429  11.679   6.113  1.00 30.00 LIG-0.29  OA
ENDBRANCH 55 59
ENDBRANCH 52 55
ENDBRANCH 50 51
BRANCH 50 61
ATOM     61  CB  PHE B   8      -1.330   5.844   5.137  1.00 20.00 LIG 0.07  C 
BRANCH 61 62
ATOM     62  CG  PHE B   8      -2.782   6.218   5.235  1.00 20.00 LIG-0.06  A 
ATOM     63  CD1 PHE B   8      -3.497   5.998   6.386  1.00 20.00 LIG 0.01  A 
ATOM     64  CE1 PHE B   8      -4.836   6.344   6.457  1.00 20.00 LIG 0.00  A 
ATOM     65  CZ  PHE B   8      -5.465   6.910   5.366  1.00 20.00 LIG 0.00  A 
ATOM     66  CE2 PHE B   8      -4.769   7.124   4.226  1.00 20.00 LIG 0.00  A 
ATOM     67  CD2 PHE B   8      -3.434   6.784   4.159  1.00 20.00 LIG 0.01  A 
ENDBRANCH 61 62
ENDBRANCH 50 61
ENDBRANCH 48 50
ENDBRANCH 37 46
ENDBRANCH 34 37
ENDBRANCH 1 33
BRANCH 1 68
ATOM     68  CB  ARG B   6       1.093   0.762   8.818  1.00 20.00 LIG 0.04  C 
BRANCH 68 69
ATOM     69  CG  ARG B   6       1.420   0.903   7.330  1.00 20.00 LIG 0.02  C 
BRANCH 69 70
ATOM     70  CD  ARG B   6       1.008  -0.379   6.596  1.00 20.00 LIG 0.14  C 
BRANCH 70 71
ATOM     71  NE  ARG B   6      -0.027  -1.162   7.276  1.00 20.00 LIG-0.23  N 
ATOM     72  CZ  ARG B   6       0.163  -2.399   7.732  1.00 20.00 LIG 0.67  C 
ATOM     73  NH1 ARG B   6       1.346  -2.976   7.586  1.00 20.00 LIG-0.23  N 
ATOM     74  NH2 ARG B   6      -0.820  -3.062   8.337  1.00 20.00 LIG-0.23  N 
ATOM     75 1HH1 ARG B   6       1.986  -2.552   7.198  1.00 20.00 LIG 0.17  HD
ATOM     76 2HH1 ARG B   6       1.474  -3.774   7.879  1.00 20.00 LIG 0.17  HD
ATOM     77 1HH2 ARG B   6      -1.590  -2.692   8.437  1.00 20.00 LIG 0.17  HD
ATOM     78 2HH2 ARG B   6      -0.686  -3.860   8.627  1.00 20.00 LIG 0.17  HD
ATOM     79 HE   ARG B   6      -0.801  -0.804   7.387  1.00 20.00 LIG 0.18  HD
ENDBRANCH 70 71
ENDBRANCH 69 70
ENDBRANCH 68 69
ENDBRANCH 1 68
TORSDOF 33
ENDMDL
MODEL 36
USER: ADFR SOLUTION from run 168
USER: SCORE 22.885833 LL:  -3.877 LR: -20.486 RR:   0.000 FEB: -10.642
USER: RMSD 6.368668
USER: SEED 167
USER: STATUS searching
USER: GENES 35
USER: genes 0 Translation |==|  0.51467 0.49282 0.44098
USER: genes 1 Rotation |==|  0.53277 0.94526 0.29269 0.58770
USER: genes 2 Torsion [C]-CA--N-[C] |==|  0.80556
USER: genes 3 Torsion [N]-C--CA-[N] |==|  0.09626
USER: genes 4 Torsion [C]-CA--N-[C] |==|  0.65619
USER: genes 5 Torsion [N]-C--CA-[N] |==|  0.77452
USER: genes 6 Torsion [C]-CA--CB-[CG] |==|  0.62915
USER: genes 7 Torsion [CA]-CB--CG-[CD] |==|  0.56135
USER: genes 8 Torsion [CB]-CG--CD-[NE] |==|  0.64530
USER: genes 9 Torsion [CG]-CD--NE-[HE] |==|  0.87875
USER: genes 10 Torsion [C]-CA--CB-[CG] |==|  0.58664
USER: genes 11 Torsion [CA]-CB--CG-[CD] |==|  0.58284
USER: genes 12 Torsion [CB]-CG--CD-[CE] |==|  0.45790
USER: genes 13 Torsion [CG]-CD--CE-[NZ] |==|  0.25354
USER: genes 14 Torsion [CD]-CE--NZ-[HZ2] |==|  0.57224
USER: genes 15 Torsion [N]-CA--C-[N] |==|  0.91112
USER: genes 16 Torsion [C]-N--CA-[CB] |==|  0.19782
USER: genes 17 Torsion [N]-CA--CB-[CG] |==|  0.58661
USER: genes 18 Torsion [CA]-CB--CG-[CD] |==|  0.13379
USER: genes 19 Torsion [CB]-CG--CD-[CE] |==|  0.72843
USER: genes 20 Torsion [CG]-CD--CE-[NZ] |==|  0.75337
USER: genes 21 Torsion [CD]-CE--NZ-[HZ1] |==|  0.83152
USER: genes 22 Torsion [N]-CA--C-[N] |==|  0.44354
USER: genes 23 Torsion [C]-N--CA-[C] |==|  0.65015
USER: genes 24 Torsion [N]-CA--C-[N] |==|  0.03796
USER: genes 25 Torsion [C]-N--CA-[CB] |==|  0.22729
USER: genes 26 Torsion [N]-CA--CB-[OG] |==|  0.15720
USER: genes 27 Torsion [CA]-CB--OG-[HG] |==|  0.07849
USER: genes 28 Torsion [N]-CA--C-[O] |==|  0.66590
USER: genes 29 Torsion [N]-CA--CB-[CG] |==|  0.21140
USER: genes 30 Torsion [CA]-CB--CG-[CD2] |==|  0.38000
USER: genes 31 Torsion [N]-CA--CB-[CG] |==|  0.68706
USER: genes 32 Torsion [CA]-CB--CG-[CD] |==|  0.65790
USER: genes 33 Torsion [CB]-CG--CD-[NE] |==|  0.35662
USER: genes 34 Torsion [CG]-CD--NE-[CZ] |==|  0.47703
ROOT
ATOM      1  CA  ARG B   6       1.075   6.890   8.866  1.00 51.45 LIG 0.18  C 
ENDROOT
BRANCH 1 2
ATOM      2  N   ARG B   6       2.302   7.633   9.123  1.00 51.69 LIG-0.35  N 
ATOM      3 H    ARG B   6       2.777   7.788   8.423  1.00 51.69 LIG 0.16  HD
ATOM      4  C   LYS B   5       2.635   8.025  10.344  1.00 56.23 LIG 0.24  C 
ATOM      5 O    LYS B   5       1.939   7.798  11.319  1.00 55.49 LIG-0.27  OA
BRANCH 4 6
ATOM      6  CA  LYS B   5       3.932   8.797  10.496  1.00 54.66 LIG 0.18  C 
BRANCH 6 7
ATOM      7  N   LYS B   5       4.084   9.607   9.305  1.00 56.15 LIG-0.35  N 
ATOM      8 H    LYS B   5       3.419  10.130   9.155  1.00 56.15 LIG 0.16  HD
ATOM      9  C   ARG B   4       5.149   9.545   8.521  1.00 62.85 LIG 0.26  C 
ATOM     10 O    ARG B   4       6.154   8.900   8.797  1.00 61.66 LIG-0.27  OA
BRANCH 9 11
ATOM     11  CA  ARG B   4       5.067  10.349   7.235  1.00 63.68 LIG 0.40  C 
ATOM     12  N   ARG B   4       4.317   9.587   6.257  1.00 64.21 LIG 0.61  N 
BRANCH 11 13
ATOM     13  CB  ARG B   4       4.412  11.716   7.491  1.00 20.00 LIG 0.05  C 
BRANCH 13 14
ATOM     14  CG  ARG B   4       3.333  12.107   6.481  1.00 20.00 LIG 0.02  C 
BRANCH 14 15
ATOM     15  CD  ARG B   4       3.101  13.634   6.432  1.00 20.00 LIG 0.14  C 
BRANCH 15 16
ATOM     16  NE  ARG B   4       1.693  14.018   6.594  1.00 20.00 LIG-0.23  N 
ATOM     17  CZ  ARG B   4       1.264  15.022   7.363  1.00 20.00 LIG 0.67  C 
ATOM     18  NH2 ARG B   4      -0.030  15.291   7.452  1.00 20.00 LIG-0.23  N 
ATOM     19  NH1 ARG B   4       2.122  15.765   8.040  1.00 20.00 LIG-0.23  N 
ATOM     20 2HH2 ARG B   4      -0.301  15.938   7.949  1.00 20.00 LIG 0.17  HD
ATOM     21 1HH2 ARG B   4      -0.598  14.818   7.013  1.00 20.00 LIG 0.17  HD
ATOM     22 1HH1 ARG B   4       2.965  15.603   7.988  1.00 20.00 LIG 0.17  HD
ATOM     23 2HH1 ARG B   4       1.837  16.409   8.533  1.00 20.00 LIG 0.17  HD
ATOM     24 HE   ARG B   4       1.103  13.564   6.164  1.00 20.00 LIG 0.18  HD
ENDBRANCH 15 16
ENDBRANCH 14 15
ENDBRANCH 13 14
ENDBRANCH 11 13
ENDBRANCH 9 11
ENDBRANCH 6 7
BRANCH 6 25
ATOM     25  CB  LYS B   5       3.885   9.678  11.741  1.00 20.00 LIG 0.04  C 
BRANCH 25 26
ATOM     26  CG  LYS B   5       4.682  10.956  11.627  1.00 20.00 LIG 0.00  C 
BRANCH 26 27
ATOM     27  CD  LYS B   5       5.205  11.398  12.985  1.00 20.00 LIG 0.03  C 
BRANCH 27 28
ATOM     28  CE  LYS B   5       6.295  12.448  12.844  1.00 20.00 LIG 0.23  C 
BRANCH 28 29
ATOM     29  NZ  LYS B   5       5.765  13.827  12.863  1.00 20.00 LIG-0.08  N 
ATOM     30 HZ2  LYS B   5       6.320  14.364  12.421  1.00 20.00 LIG 0.27  HD
ATOM     31 HZ3  LYS B   5       4.965  13.843  12.473  1.00 20.00 LIG 0.27  HD
ATOM     32 HZ1  LYS B   5       5.691  14.104  13.705  1.00 20.00 LIG 0.27  HD
ENDBRANCH 28 29
ENDBRANCH 27 28
ENDBRANCH 26 27
ENDBRANCH 25 26
ENDBRANCH 6 25
ENDBRANCH 4 6
ENDBRANCH 1 2
BRANCH 1 33
ATOM     33  C   ARG B   6       1.172   5.485   9.436  1.00 52.50 LIG 0.24  C 
ATOM     34  N   LYS B   7       2.377   4.931   9.445  1.00 47.60 LIG-0.35  N 
ATOM     35 H    LYS B   7       3.074   5.286   9.088  1.00 47.60 LIG 0.16  HD
ATOM     36 O    ARG B   6       0.178   4.918   9.871  1.00 51.14 LIG-0.27  OA
BRANCH 34 37
ATOM     37  CA  LYS B   7       2.611   3.643  10.080  1.00 46.86 LIG 0.18  C 
BRANCH 37 38
ATOM     38  CB  LYS B   7       1.977   2.512   9.271  1.00 20.00 LIG 0.04  C 
BRANCH 38 39
ATOM     39  CG  LYS B   7       1.505   1.343  10.093  1.00 20.00 LIG 0.00  C 
BRANCH 39 40
ATOM     40  CD  LYS B   7       0.676   1.792  11.294  1.00 20.00 LIG 0.03  C 
BRANCH 40 41
ATOM     41  CE  LYS B   7       1.518   1.848  12.562  1.00 20.00 LIG 0.23  C 
BRANCH 41 42
ATOM     42  NZ  LYS B   7       1.533   0.543  13.287  1.00 20.00 LIG-0.08  N 
ATOM     43 HZ2  LYS B   7       1.864  -0.089  12.754  1.00 20.00 LIG 0.27  HD
ATOM     44 HZ1  LYS B   7       0.703   0.326  13.525  1.00 20.00 LIG 0.27  HD
ATOM     45 HZ3  LYS B   7       2.042   0.613  14.014  1.00 20.00 LIG 0.27  HD
ENDBRANCH 41 42
ENDBRANCH 40 41
ENDBRANCH 39 40
ENDBRANCH 38 39
ENDBRANCH 37 38
BRANCH 37 46
ATOM     46  C   LYS B   7       4.107   3.395  10.203  1.00 48.01 LIG 0.24  C 
ATOM     47 O    LYS B   7       4.900   4.001   9.500  1.00 46.73 LIG-0.27  OA
ATOM     48  N   PHE B   8       4.480   2.499  11.105  1.00 43.62 LIG-0.35  N 
ATOM     49 H    PHE B   8       3.940   2.129  11.662  1.00 43.62 LIG 0.16  HD
BRANCH 48 50
ATOM     50  CA  PHE B   8       5.859   2.057  11.234  1.00 44.29 LIG 0.18  C 
BRANCH 50 51
ATOM     51  C   PHE B   8       5.860   0.533  11.139  1.00 70.57 LIG 0.24  C 
ATOM     52  N   SER B   9       4.742  -0.026  10.694  1.00 30.00 LIG-0.34  N 
ATOM     53 H    SER B   9       4.062   0.419  10.411  1.00 30.00 LIG 0.16  HD
ATOM     54 O    PHE B   8       6.831  -0.125  11.494  1.00 41.97 LIG-0.27  OA
BRANCH 52 55
ATOM     55  CA  SER B   9       4.579  -1.475  10.652  1.00 30.00 LIG 0.19  C 
BRANCH 55 56
ATOM     56  CB  SER B   9       4.173  -2.003  12.029  1.00 20.00 LIG 0.20  C 
BRANCH 56 57
ATOM     57 OG   SER B   9       2.989  -1.374  12.488  1.00 20.00 LIG-0.40  OA
ATOM     58 HG   SER B   9       2.523  -1.139  11.830  1.00 20.00 LIG 0.21  HD
ENDBRANCH 56 57
ENDBRANCH 55 56
BRANCH 55 59
ATOM     59  C   SER B   9       3.557  -1.912   9.615  1.00 30.00 LIG 0.22  C 
ATOM     60 O    SER B   9       2.561  -2.543   9.947  1.00 30.00 LIG-0.29  OA
ENDBRANCH 55 59
ENDBRANCH 52 55
ENDBRANCH 50 51
BRANCH 50 61
ATOM     61  CB  PHE B   8       6.448   2.541  12.557  1.00 20.00 LIG 0.07  C 
BRANCH 61 62
ATOM     62  CG  PHE B   8       5.989   1.766  13.760  1.00 20.00 LIG-0.06  A 
ATOM     63  CD1 PHE B   8       4.671   1.418  13.921  1.00 20.00 LIG 0.01  A 
ATOM     64  CE1 PHE B   8       4.264   0.708  15.039  1.00 20.00 LIG 0.00  A 
ATOM     65  CZ  PHE B   8       5.183   0.348  16.004  1.00 20.00 LIG 0.00  A 
ATOM     66  CE2 PHE B   8       6.483   0.693  15.855  1.00 20.00 LIG 0.00  A 
ATOM     67  CD2 PHE B   8       6.887   1.395  14.739  1.00 20.00 LIG 0.01  A 
ENDBRANCH 61 62
ENDBRANCH 50 61
ENDBRANCH 48 50
ENDBRANCH 37 46
ENDBRANCH 34 37
ENDBRANCH 1 33
BRANCH 1 68
ATOM     68  CB  ARG B   6       0.777   6.796   7.358  1.00 20.00 LIG 0.04  C 
BRANCH 68 69
ATOM     69  CG  ARG B   6      -0.455   7.550   6.852  1.00 20.00 LIG 0.02  C 
BRANCH 69 70
ATOM     70  CD  ARG B   6      -1.396   6.568   6.144  1.00 20.00 LIG 0.14  C 
BRANCH 70 71
ATOM     71  NE  ARG B   6      -2.783   6.611   6.614  1.00 20.00 LIG-0.23  N 
ATOM     72  CZ  ARG B   6      -3.784   5.958   6.026  1.00 20.00 LIG 0.67  C 
ATOM     73  NH1 ARG B   6      -3.540   5.212   4.960  1.00 20.00 LIG-0.23  N 
ATOM     74  NH2 ARG B   6      -5.025   6.042   6.498  1.00 20.00 LIG-0.23  N 
ATOM     75 1HH1 ARG B   6      -2.740   5.152   4.651  1.00 20.00 LIG 0.17  HD
ATOM     76 2HH1 ARG B   6      -4.182   4.787   4.576  1.00 20.00 LIG 0.17  HD
ATOM     77 1HH2 ARG B   6      -5.190   6.523   7.192  1.00 20.00 LIG 0.17  HD
ATOM     78 2HH2 ARG B   6      -5.663   5.616   6.110  1.00 20.00 LIG 0.17  HD
ATOM     79 HE   ARG B   6      -2.962   7.085   7.310  1.00 20.00 LIG 0.18  HD
ENDBRANCH 70 71
ENDBRANCH 69 70
ENDBRANCH 68 69
ENDBRANCH 1 68
TORSDOF 33
ENDMDL
MODEL 37
USER: ADFR SOLUTION from run 15
USER: SCORE 21.951469 LL:  -2.569 LR: -20.475 RR:   0.000 FEB: -10.631
USER: RMSD 12.631680
USER: SEED 678328
USER: STATUS searching
USER: GENES 35
USER: genes 0 Translation |==|  0.62172 0.54511 0.52930
USER: genes 1 Rotation |==|  0.72468 0.62638 0.91954 0.58680
USER: genes 2 Torsion [C]-CA--N-[C] |==|  0.60667
USER: genes 3 Torsion [N]-C--CA-[N] |==|  0.36937
USER: genes 4 Torsion [C]-CA--N-[C] |==|  0.65357
USER: genes 5 Torsion [N]-C--CA-[N] |==|  0.67147
USER: genes 6 Torsion [C]-CA--CB-[CG] |==|  0.26601
USER: genes 7 Torsion [CA]-CB--CG-[CD] |==|  0.99079
USER: genes 8 Torsion [CB]-CG--CD-[NE] |==|  0.44667
USER: genes 9 Torsion [CG]-CD--NE-[HE] |==|  0.13208
USER: genes 10 Torsion [C]-CA--CB-[CG] |==|  0.92649
USER: genes 11 Torsion [CA]-CB--CG-[CD] |==|  0.72114
USER: genes 12 Torsion [CB]-CG--CD-[CE] |==|  0.77592
USER: genes 13 Torsion [CG]-CD--CE-[NZ] |==|  0.68139
USER: genes 14 Torsion [CD]-CE--NZ-[HZ2] |==|  0.20267
USER: genes 15 Torsion [N]-CA--C-[N] |==|  0.45245
USER: genes 16 Torsion [C]-N--CA-[CB] |==|  0.86082
USER: genes 17 Torsion [N]-CA--CB-[CG] |==|  0.74065
USER: genes 18 Torsion [CA]-CB--CG-[CD] |==|  0.71734
USER: genes 19 Torsion [CB]-CG--CD-[CE] |==|  0.98208
USER: genes 20 Torsion [CG]-CD--CE-[NZ] |==|  0.40239
USER: genes 21 Torsion [CD]-CE--NZ-[HZ1] |==|  0.58754
USER: genes 22 Torsion [N]-CA--C-[N] |==|  0.39435
USER: genes 23 Torsion [C]-N--CA-[C] |==|  0.73630
USER: genes 24 Torsion [N]-CA--C-[N] |==|  0.76153
USER: genes 25 Torsion [C]-N--CA-[CB] |==|  0.42232
USER: genes 26 Torsion [N]-CA--CB-[OG] |==|  0.67909
USER: genes 27 Torsion [CA]-CB--OG-[HG] |==|  0.65048
USER: genes 28 Torsion [N]-CA--C-[O] |==|  0.53786
USER: genes 29 Torsion [N]-CA--CB-[CG] |==|  0.80148
USER: genes 30 Torsion [CA]-CB--CG-[CD2] |==|  0.35954
USER: genes 31 Torsion [N]-CA--CB-[CG] |==|  0.34474
USER: genes 32 Torsion [CA]-CB--CG-[CD] |==|  0.71203
USER: genes 33 Torsion [CB]-CG--CD-[NE] |==|  0.26658
USER: genes 34 Torsion [CG]-CD--NE-[CZ] |==|  0.30724
ROOT
ATOM      1  CA  ARG B   6       3.725   8.302  10.919  1.00 51.45 LIG 0.18  C 
ENDROOT
BRANCH 1 2
ATOM      2  N   ARG B   6       4.020   7.040  10.253  1.00 51.69 LIG-0.35  N 
ATOM      3 H    ARG B   6       4.852   6.920  10.071  1.00 51.69 LIG 0.16  HD
ATOM      4  C   LYS B   5       3.066   6.167   9.962  1.00 56.23 LIG 0.24  C 
ATOM      5 O    LYS B   5       1.894   6.360  10.237  1.00 55.49 LIG-0.27  OA
BRANCH 4 6
ATOM      6  CA  LYS B   5       3.488   4.883   9.272  1.00 54.66 LIG 0.18  C 
BRANCH 6 7
ATOM      7  N   LYS B   5       2.836   3.795   9.970  1.00 56.15 LIG-0.35  N 
ATOM      8 H    LYS B   5       1.982   3.876  10.018  1.00 56.15 LIG 0.16  HD
ATOM      9  C   ARG B   4       3.497   2.771  10.487  1.00 62.85 LIG 0.26  C 
ATOM     10 O    ARG B   4       4.695   2.582  10.311  1.00 61.66 LIG-0.27  OA
BRANCH 9 11
ATOM     11  CA  ARG B   4       2.668   1.805  11.317  1.00 63.68 LIG 0.40  C 
ATOM     12  N   ARG B   4       3.180   1.802  12.673  1.00 64.21 LIG 0.61  N 
BRANCH 11 13
ATOM     13  CB  ARG B   4       1.183   2.199  11.288  1.00 20.00 LIG 0.05  C 
BRANCH 13 14
ATOM     14  CG  ARG B   4       0.346   1.461  10.244  1.00 20.00 LIG 0.02  C 
BRANCH 14 15
ATOM     15  CD  ARG B   4       1.199   0.515   9.369  1.00 20.00 LIG 0.14  C 
BRANCH 15 16
ATOM     16  NE  ARG B   4       0.412  -0.517   8.683  1.00 20.00 LIG-0.23  N 
ATOM     17  CZ  ARG B   4       0.723  -1.815   8.655  1.00 20.00 LIG 0.67  C 
ATOM     18  NH2 ARG B   4      -0.046  -2.674   8.003  1.00 20.00 LIG-0.23  N 
ATOM     19  NH1 ARG B   4       1.797  -2.263   9.280  1.00 20.00 LIG-0.23  N 
ATOM     20 2HH2 ARG B   4       0.159  -3.509   7.988  1.00 20.00 LIG 0.17  HD
ATOM     21 1HH2 ARG B   4      -0.750  -2.397   7.596  1.00 20.00 LIG 0.17  HD
ATOM     22 1HH1 ARG B   4       2.303  -1.717   9.711  1.00 20.00 LIG 0.17  HD
ATOM     23 2HH1 ARG B   4       1.991  -3.100   9.257  1.00 20.00 LIG 0.17  HD
ATOM     24 HE   ARG B   4      -0.300  -0.268   8.270  1.00 20.00 LIG 0.18  HD
ENDBRANCH 15 16
ENDBRANCH 14 15
ENDBRANCH 13 14
ENDBRANCH 11 13
ENDBRANCH 9 11
ENDBRANCH 6 7
BRANCH 6 25
ATOM     25  CB  LYS B   5       3.071   4.907   7.805  1.00 20.00 LIG 0.04  C 
BRANCH 25 26
ATOM     26  CG  LYS B   5       1.872   5.780   7.515  1.00 20.00 LIG 0.00  C 
BRANCH 26 27
ATOM     27  CD  LYS B   5       0.606   4.949   7.386  1.00 20.00 LIG 0.03  C 
BRANCH 27 28
ATOM     28  CE  LYS B   5       0.497   4.317   6.008  1.00 20.00 LIG 0.23  C 
BRANCH 28 29
ATOM     29  NZ  LYS B   5      -0.650   4.834   5.233  1.00 20.00 LIG-0.08  N 
ATOM     30 HZ2  LYS B   5      -0.476   5.664   4.963  1.00 20.00 LIG 0.27  HD
ATOM     31 HZ3  LYS B   5      -0.788   4.314   4.524  1.00 20.00 LIG 0.27  HD
ATOM     32 HZ1  LYS B   5      -1.378   4.835   5.746  1.00 20.00 LIG 0.27  HD
ENDBRANCH 28 29
ENDBRANCH 27 28
ENDBRANCH 26 27
ENDBRANCH 25 26
ENDBRANCH 6 25
ENDBRANCH 4 6
ENDBRANCH 1 2
BRANCH 1 33
ATOM     33  C   ARG B   6       4.583   9.420  10.351  1.00 52.50 LIG 0.24  C 
ATOM     34  N   LYS B   7       4.185  10.659  10.604  1.00 47.60 LIG-0.35  N 
ATOM     35 H    LYS B   7       3.448  10.858  11.000  1.00 47.60 LIG 0.16  HD
ATOM     36 O    ARG B   6       5.592   9.166   9.706  1.00 51.14 LIG-0.27  OA
BRANCH 34 37
ATOM     37  CA  LYS B   7       4.994  11.806  10.219  1.00 46.86 LIG 0.18  C 
BRANCH 37 38
ATOM     38  CB  LYS B   7       6.438  11.639  10.689  1.00 20.00 LIG 0.04  C 
BRANCH 38 39
ATOM     39  CG  LYS B   7       6.734  12.260  12.028  1.00 20.00 LIG 0.00  C 
BRANCH 39 40
ATOM     40  CD  LYS B   7       7.462  13.594  11.887  1.00 20.00 LIG 0.03  C 
BRANCH 40 41
ATOM     41  CE  LYS B   7       7.837  13.872  10.437  1.00 20.00 LIG 0.23  C 
BRANCH 41 42
ATOM     42  NZ  LYS B   7       7.749  15.324  10.101  1.00 20.00 LIG-0.08  N 
ATOM     43 HZ2  LYS B   7       7.135  15.712  10.616  1.00 20.00 LIG 0.27  HD
ATOM     44 HZ1  LYS B   7       7.520  15.418   9.246  1.00 20.00 LIG 0.27  HD
ATOM     45 HZ3  LYS B   7       8.539  15.710  10.240  1.00 20.00 LIG 0.27  HD
ENDBRANCH 41 42
ENDBRANCH 40 41
ENDBRANCH 39 40
ENDBRANCH 38 39
ENDBRANCH 37 38
BRANCH 37 46
ATOM     46  C   LYS B   7       4.973  11.963   8.706  1.00 48.01 LIG 0.24  C 
ATOM     47 O    LYS B   7       4.992  10.986   7.975  1.00 46.73 LIG-0.27  OA
ATOM     48  N   PHE B   8       4.934  13.206   8.246  1.00 43.62 LIG-0.35  N 
ATOM     49 H    PHE B   8       4.836  13.897   8.748  1.00 43.62 LIG 0.16  HD
BRANCH 48 50
ATOM     50  CA  PHE B   8       5.054  13.512   6.830  1.00 44.29 LIG 0.18  C 
BRANCH 50 51
ATOM     51  C   PHE B   8       6.523  13.829   6.556  1.00 70.57 LIG 0.24  C 
ATOM     52  N   SER B   9       6.899  15.084   6.765  1.00 30.00 LIG-0.34  N 
ATOM     53 H    SER B   9       6.386  15.692   7.093  1.00 30.00 LIG 0.16  HD
ATOM     54 O    PHE B   8       7.289  12.972   6.131  1.00 41.97 LIG-0.27  OA
BRANCH 52 55
ATOM     55  CA  SER B   9       8.248  15.538   6.445  1.00 30.00 LIG 0.19  C 
BRANCH 55 56
ATOM     56  CB  SER B   9       8.240  17.032   6.113  1.00 20.00 LIG 0.20  C 
BRANCH 56 57
ATOM     57 OG   SER B   9       8.613  17.257   4.765  1.00 20.00 LIG-0.40  OA
ATOM     58 HG   SER B   9       9.253  17.801   4.738  1.00 20.00 LIG 0.21  HD
ENDBRANCH 56 57
ENDBRANCH 55 56
BRANCH 55 59
ATOM     59  C   SER B   9       9.230  15.270   7.574  1.00 30.00 LIG 0.22  C 
ATOM     60 O    SER B   9      10.335  15.801   7.580  1.00 30.00 LIG-0.29  OA
ENDBRANCH 55 59
ENDBRANCH 52 55
ENDBRANCH 50 51
BRANCH 50 61
ATOM     61  CB  PHE B   8       4.146  14.684   6.464  1.00 20.00 LIG 0.07  C 
BRANCH 61 62
ATOM     62  CG  PHE B   8       2.679  14.356   6.467  1.00 20.00 LIG-0.06  A 
ATOM     63  CD1 PHE B   8       2.191  13.271   5.782  1.00 20.00 LIG 0.01  A 
ATOM     64  CE1 PHE B   8       0.836  12.987   5.791  1.00 20.00 LIG 0.00  A 
ATOM     65  CZ  PHE B   8      -0.038  13.797   6.488  1.00 20.00 LIG 0.00  A 
ATOM     66  CE2 PHE B   8       0.434  14.872   7.160  1.00 20.00 LIG 0.00  A 
ATOM     67  CD2 PHE B   8       1.785  15.151   7.154  1.00 20.00 LIG 0.01  A 
ENDBRANCH 61 62
ENDBRANCH 50 61
ENDBRANCH 48 50
ENDBRANCH 37 46
ENDBRANCH 34 37
ENDBRANCH 1 33
BRANCH 1 68
ATOM     68  CB  ARG B   6       3.968   8.210  12.437  1.00 20.00 LIG 0.04  C 
BRANCH 68 69
ATOM     69  CG  ARG B   6       4.933   9.230  13.042  1.00 20.00 LIG 0.02  C 
BRANCH 69 70
ATOM     70  CD  ARG B   6       6.279   8.551  13.327  1.00 20.00 LIG 0.14  C 
BRANCH 70 71
ATOM     71  NE  ARG B   6       7.282   8.725  12.273  1.00 20.00 LIG-0.23  N 
ATOM     72  CZ  ARG B   6       8.380   9.466  12.412  1.00 20.00 LIG 0.67  C 
ATOM     73  NH1 ARG B   6       8.610  10.084  13.560  1.00 20.00 LIG-0.23  N 
ATOM     74  NH2 ARG B   6       9.251   9.589  11.414  1.00 20.00 LIG-0.23  N 
ATOM     75 1HH1 ARG B   6       8.052  10.006  14.210  1.00 20.00 LIG 0.17  HD
ATOM     76 2HH1 ARG B   6       9.318  10.563  13.656  1.00 20.00 LIG 0.17  HD
ATOM     77 1HH2 ARG B   6       9.108   9.188  10.667  1.00 20.00 LIG 0.17  HD
ATOM     78 2HH2 ARG B   6       9.956  10.070  11.516  1.00 20.00 LIG 0.17  HD
ATOM     79 HE   ARG B   6       7.154   8.326  11.521  1.00 20.00 LIG 0.18  HD
ENDBRANCH 70 71
ENDBRANCH 69 70
ENDBRANCH 68 69
ENDBRANCH 1 68
TORSDOF 33
ENDMDL
