MODEL 1
USER: ADFR SOLUTION from run 195
USER: SCORE 14.077849 LL:  -1.719 LR: -13.038 RR:   0.000 FEB: -10.354
USER: RMSD 1.051934
USER: SEED 194
USER: STATUS 1 or 2 clusters left
USER: GENES 11
USER: genes 0 Translation |==|  0.53262 0.58094 0.40907
USER: genes 1 Rotation |==|  0.53089 0.44693 0.44814 0.99350
USER: genes 2 Torsion [C]-N--CA-[CB] |==|  0.51111
USER: genes 3 Torsion [N]-CA--CB-[CG2] |==|  0.83216
USER: genes 4 Torsion [N]-CA--C-[N] |==|  0.35520
USER: genes 5 Torsion [C]-N--CA-[CB] |==|  0.32150
USER: genes 6 Torsion [N]-CA--C-[O] |==|  0.34008
USER: genes 7 Torsion [N]-C--CA-[N] |==|  0.26066
USER: genes 8 Torsion [C]-CA--N-[H2] |==|  0.14798
USER: genes 9 Torsion [C]-CA--CB-[CG] |==|  0.14211
USER: genes 10 Torsion [CA]-CB--CG-[OD2] |==|  0.27227
ROOT
ATOM      1  C   ASP B   1      12.048  -5.986  18.719  1.00 14.06 LIG 0.25  C 
ATOM      2 O    ASP B   1      12.761  -5.732  19.699  1.00 13.02 LIG-0.27  OA
ATOM      3  N   VAL B   2      11.005  -6.809  18.782  1.00 15.42 LIG-0.35  N 
ATOM      4 H    VAL B   2      10.502  -7.010  18.113  1.00 15.42 LIG 0.16  HD
ENDROOT
BRANCH 3 5
ATOM      5  CA  VAL B   2      10.634  -7.448  20.040  1.00 13.63 LIG 0.18  C 
BRANCH 5 6
ATOM      6  CB  VAL B   2       9.458  -8.434  19.858  1.00 22.00 LIG 0.01  C 
ATOM      7  CG2 VAL B   2       8.238  -7.711  19.341  1.00 31.03 LIG 0.01  C 
ATOM      8  CG1 VAL B   2       9.142  -9.138  21.169  1.00 26.65 LIG 0.01  C 
ENDBRANCH 5 6
BRANCH 5 9
ATOM      9  C   VAL B   2      11.824  -8.155  20.700  1.00 16.31 LIG 0.24  C 
ATOM     10 O    VAL B   2      12.518  -8.955  20.073  1.00 16.18 LIG-0.27  OA
ATOM     11  N   ALA B   3      12.058  -7.842  21.970  1.00 17.95 LIG-0.34  N 
ATOM     12 H    ALA B   3      11.610  -7.254  22.408  1.00 17.95 LIG 0.16  HD
BRANCH 11 13
ATOM     13  CA  ALA B   3      13.120  -8.486  22.745  1.00 23.42 LIG 0.18  C 
ATOM     14  CB  ALA B   3      14.178  -7.467  23.141  1.00 32.12 LIG 0.04  C 
BRANCH 13 15
ATOM     15  C   ALA B   3      12.541  -9.157  23.989  1.00 26.28 LIG 0.20  C 
ATOM     16 O    ALA B   3      12.685 -10.360  24.216  1.00 32.58 LIG-0.65  OA
ATOM     17 OXT  ALA B   3      11.912  -8.495  24.808  1.00 24.09 LIG-0.65  OA
ENDBRANCH 13 15
ENDBRANCH 11 13
ENDBRANCH 5 9
ENDBRANCH 3 5
BRANCH 1 18
ATOM     18  CA  ASP B   1      12.330  -5.339  17.363  1.00 13.24 LIG 0.28  C 
BRANCH 18 19
ATOM     19  N   ASP B   1      11.686  -4.033  17.288  1.00 13.44 LIG-0.07  N 
ATOM     20 H2   ASP B   1      11.929  -3.542  17.990  1.00 13.44 LIG 0.28  HD
ATOM     21 H3   ASP B   1      11.934  -3.622  16.538  1.00 13.44 LIG 0.28  HD
ATOM     22 H1   ASP B   1      10.802  -4.137  17.290  1.00 13.44 LIG 0.28  HD
ENDBRANCH 18 19
BRANCH 18 23
ATOM     23  CB  ASP B   1      13.842  -5.222  17.088  1.00 18.19 LIG 0.15  C 
BRANCH 23 24
ATOM     24  CG  ASP B   1      14.599  -6.543  17.287  1.00 31.60 LIG 0.17  C 
ATOM     25 OD2  ASP B   1      14.860  -7.252  16.280  1.00 40.27 LIG-0.65  OA
ATOM     26 OD1  ASP B   1      14.916  -6.891  18.442  1.00 39.31 LIG-0.65  OA
ENDBRANCH 23 24
ENDBRANCH 18 23
ENDBRANCH 1 18
TORSDOF 9
ENDMDL
MODEL 2
USER: ADFR SOLUTION from run 49
USER: SCORE 12.146235 LL:  -1.905 LR: -11.521 RR:   0.000 FEB:  -8.836
USER: RMSD 5.390723
USER: SEED 48
USER: STATUS no improvement in best in 7 clusters for 5 generations
USER: GENES 11
USER: genes 0 Translation |==|  0.30835 0.47376 0.55414
USER: genes 1 Rotation |==|  0.18892 0.87249 0.39367 0.55632
USER: genes 2 Torsion [C]-N--CA-[CB] |==|  0.35363
USER: genes 3 Torsion [N]-CA--CB-[CG2] |==|  0.72374
USER: genes 4 Torsion [N]-CA--C-[N] |==|  0.90013
USER: genes 5 Torsion [C]-N--CA-[CB] |==|  0.34254
USER: genes 6 Torsion [N]-CA--C-[O] |==|  0.38429
USER: genes 7 Torsion [N]-C--CA-[N] |==|  0.03587
USER: genes 8 Torsion [C]-CA--N-[H2] |==|  0.17334
USER: genes 9 Torsion [C]-CA--CB-[CG] |==|  0.31778
USER: genes 10 Torsion [CA]-CB--CG-[OD2] |==|  0.27364
ROOT
ATOM      1  C   ASP B   1       8.684  -7.674  21.222  1.00 14.06 LIG 0.25  C 
ATOM      2 O    ASP B   1       8.391  -8.537  20.384  1.00 13.02 LIG-0.27  OA
ATOM      3  N   VAL B   2       9.878  -7.089  21.265  1.00 15.42 LIG-0.35  N 
ATOM      4 H    VAL B   2      10.109  -6.496  21.844  1.00 15.42 LIG 0.16  HD
ENDROOT
BRANCH 3 5
ATOM      5  CA  VAL B   2      10.911  -7.430  20.293  1.00 13.63 LIG 0.18  C 
BRANCH 5 6
ATOM      6  CB  VAL B   2      11.480  -6.175  19.595  1.00 22.00 LIG 0.01  C 
ATOM      7  CG2 VAL B   2      10.845  -5.993  18.238  1.00 31.03 LIG 0.01  C 
ATOM      8  CG1 VAL B   2      12.992  -6.274  19.464  1.00 26.65 LIG 0.01  C 
ENDBRANCH 5 6
BRANCH 5 9
ATOM      9  C   VAL B   2      12.046  -8.250  20.922  1.00 16.31 LIG 0.24  C 
ATOM     10 O    VAL B   2      12.618  -9.136  20.288  1.00 16.18 LIG-0.27  OA
ATOM     11  N   ALA B   3      12.371  -7.935  22.171  1.00 17.95 LIG-0.34  N 
ATOM     12 H    ALA B   3      12.010  -7.290  22.611  1.00 17.95 LIG 0.16  HD
BRANCH 11 13
ATOM     13  CA  ALA B   3      13.390  -8.674  22.917  1.00 23.42 LIG 0.18  C 
ATOM     14  CB  ALA B   3      14.480  -7.730  23.400  1.00 32.12 LIG 0.04  C 
BRANCH 13 15
ATOM     15  C   ALA B   3      12.760  -9.402  24.103  1.00 26.28 LIG 0.20  C 
ATOM     16 O    ALA B   3      13.076 -10.552  24.413  1.00 32.58 LIG-0.65  OA
ATOM     17 OXT  ALA B   3      11.911  -8.841  24.788  1.00 24.09 LIG-0.65  OA
ENDBRANCH 13 15
ENDBRANCH 11 13
ENDBRANCH 5 9
ENDBRANCH 3 5
BRANCH 1 18
ATOM     18  CA  ASP B   1       7.660  -7.219  22.262  1.00 13.24 LIG 0.28  C 
BRANCH 18 19
ATOM     19  N   ASP B   1       8.117  -5.997  22.913  1.00 13.44 LIG-0.07  N 
ATOM     20 H2   ASP B   1       8.186  -5.347  22.309  1.00 13.44 LIG 0.28  HD
ATOM     21 H3   ASP B   1       7.533  -5.758  23.541  1.00 13.44 LIG 0.28  HD
ATOM     22 H1   ASP B   1       8.912  -6.139  23.288  1.00 13.44 LIG 0.28  HD
ENDBRANCH 18 19
BRANCH 18 23
ATOM     23  CB  ASP B   1       6.264  -7.020  21.641  1.00 18.19 LIG 0.15  C 
BRANCH 23 24
ATOM     24  CG  ASP B   1       5.218  -8.011  22.172  1.00 31.60 LIG 0.17  C 
ATOM     25 OD2  ASP B   1       4.434  -7.638  23.085  1.00 40.27 LIG-0.65  OA
ATOM     26 OD1  ASP B   1       5.184  -9.166  21.702  1.00 39.31 LIG-0.65  OA
ENDBRANCH 23 24
ENDBRANCH 18 23
ENDBRANCH 1 18
TORSDOF 9
ENDMDL
