MODEL 1
USER: ADFR SOLUTION from run 74
USER: SCORE 18.153343 LL:  -1.944 LR: -18.829 RR:   0.000 FEB: -11.670
USER: RMSD 4.855742
USER: SEED 73
USER: STATUS no improvement in best in 3 clusters for 5 generations
USER: GENES 26
USER: genes 0 Translation |==|  0.54024 0.44945 0.45937
USER: genes 1 Rotation |==|  0.47666 0.44981 0.48516 0.99671
USER: genes 2 Torsion [CB]-CA--N-[C] |==|  0.36279
USER: genes 3 Torsion [N]-C--CA-[N] |==|  0.36716
USER: genes 4 Torsion [C]-CA--CB-[CG] |==|  0.87699
USER: genes 5 Torsion [CA]-CB--CG-[CD] |==|  0.47412
USER: genes 6 Torsion [CB]-CG--CD-[NE] |==|  0.44785
USER: genes 7 Torsion [CG]-CD--NE-[HE] |==|  0.82306
USER: genes 8 Torsion [C]-CA--N-[C] |==|  0.83338
USER: genes 9 Torsion [N]-C--CA-[N] |==|  0.35245
USER: genes 10 Torsion [C]-CA--N-[H1] |==|  0.65747
USER: genes 11 Torsion [N]-CA--CB-[CG2] |==|  0.02255
USER: genes 12 Torsion [CA]-CB--OG1-[HG1] |==|  0.32084
USER: genes 13 Torsion [N]-CA--C-[N] |==|  0.40093
USER: genes 14 Torsion [C]-N--CA-[CB] |==|  0.20320
USER: genes 15 Torsion [N]-CA--C-[N] |==|  0.45005
USER: genes 16 Torsion [C]-N--CA-[CB] |==|  0.04809
USER: genes 17 Torsion [N]-CA--CB-[CG] |==|  0.26836
USER: genes 18 Torsion [CA]-CB--CG-[CD] |==|  0.38851
USER: genes 19 Torsion [CB]-CG--CD-[OE1] |==|  0.51392
USER: genes 20 Torsion [N]-CA--C-[O] |==|  0.83186
USER: genes 21 Torsion [N]-CA--CB-[CG] |==|  0.32118
USER: genes 22 Torsion [CA]-CB--CG-[CD] |==|  0.56067
USER: genes 23 Torsion [CB]-CG--CD-[CE] |==|  0.49713
USER: genes 24 Torsion [CG]-CD--CE-[NZ] |==|  0.58357
USER: genes 25 Torsion [CD]-CE--NZ-[HZ2] |==|  0.22786
ROOT
ATOM      1  CA  THR D   3      15.945  15.596 147.564  1.00 39.79 LIG 0.20  C 
ENDROOT
BRANCH 1 2
ATOM      2  N   THR D   3      14.795  15.380 146.688  1.00 34.46 LIG-0.34  N 
ATOM      3  C   ARG D   2      14.281  14.166 146.490  1.00 39.53 LIG 0.24  C 
ATOM      4 O    ARG D   2      14.808  13.141 146.927  1.00 39.08 LIG-0.27  OA
ATOM      5 H    THR D   3      14.489  16.096 146.321  1.00 34.46 LIG 0.16  HD
BRANCH 3 6
ATOM      6  CA  ARG D   2      12.991  14.081 145.663  1.00 42.24 LIG 0.18  C 
BRANCH 6 7
ATOM      7  CB  ARG D   2      11.799  13.735 146.559  1.00 49.82 LIG 0.04  C 
BRANCH 7 8
ATOM      8  CG  ARG D   2      12.019  12.631 147.583  1.00 55.24 LIG 0.02  C 
BRANCH 8 9
ATOM      9  CD  ARG D   2      10.825  12.562 148.549  1.00 55.63 LIG 0.14  C 
BRANCH 9 10
ATOM     10  NE  ARG D   2      10.745  11.287 149.265  1.00 65.78 LIG-0.23  N 
ATOM     11 HE   ARG D   2      10.611  10.577 148.799  1.00 65.78 LIG 0.18  HD
ATOM     12  CZ  ARG D   2      10.864  11.146 150.583  1.00 70.57 LIG 0.67  C 
ATOM     13  NH1 ARG D   2      11.065  12.204 151.356  1.00 66.11 LIG-0.23  N 
ATOM     14  NH2 ARG D   2      10.776   9.942 151.134  1.00 74.94 LIG-0.23  N 
ATOM     15 1HH1 ARG D   2      11.119  12.988 151.007  1.00 66.11 LIG 0.17  HD
ATOM     16 2HH1 ARG D   2      11.141  12.106 152.207  1.00 66.11 LIG 0.17  HD
ATOM     17 2HH2 ARG D   2      10.853   9.853 151.986  1.00 74.94 LIG 0.17  HD
ATOM     18 1HH2 ARG D   2      10.642   9.251 150.639  1.00 74.94 LIG 0.17  HD
ENDBRANCH 9 10
ENDBRANCH 8 9
ENDBRANCH 7 8
ENDBRANCH 6 7
BRANCH 6 19
ATOM     19  N   ARG D   2      13.120  13.042 144.645  1.00 42.84 LIG-0.35  N 
ATOM     20  C   ALA D   1      14.055  13.080 143.710  1.00 44.74 LIG 0.25  C 
ATOM     21 O    ALA D   1      14.830  14.025 143.584  1.00 48.31 LIG-0.27  OA
ATOM     22 H    ARG D   2      12.538  12.413 144.710  1.00 42.84 LIG 0.16  HD
BRANCH 20 23
ATOM     23  CA  ALA D   1      14.114  11.874 142.772  1.00 45.19 LIG 0.27  C 
ATOM     24  CB  ALA D   1      15.370  11.070 143.027  1.00 43.32 LIG 0.05  C 
BRANCH 23 25
ATOM     25  N   ALA D   1      14.065  12.299 141.384  1.00 39.75 LIG-0.07  N 
ATOM     26 H1   ALA D   1      13.380  11.903 140.976  1.00 39.75 LIG 0.28  HD
ATOM     27 H2   ALA D   1      13.961  13.182 141.348  1.00 39.75 LIG 0.28  HD
ATOM     28 H3   ALA D   1      14.823  12.073 140.977  1.00 39.75 LIG 0.28  HD
ENDBRANCH 23 25
ENDBRANCH 20 23
ENDBRANCH 6 19
ENDBRANCH 3 6
ENDBRANCH 1 2
BRANCH 1 29
ATOM     29  CB  THR D   3      17.041  16.448 146.886  1.00 46.90 LIG 0.15  C 
ATOM     30  CG2 THR D   3      16.553  17.004 145.561  1.00 44.81 LIG 0.04  C 
BRANCH 29 31
ATOM     31 OG1  THR D   3      17.403  17.538 147.744  1.00 48.09 LIG-0.39  OA
ATOM     32 HG1  THR D   3      18.204  17.453 147.984  1.00 48.09 LIG 0.21  HD
ENDBRANCH 29 31
ENDBRANCH 1 29
BRANCH 1 33
ATOM     33  C   THR D   3      15.513  16.299 148.851  1.00 42.40 LIG 0.24  C 
ATOM     34 O    THR D   3      14.656  17.189 148.831  1.00 40.34 LIG-0.27  OA
ATOM     35  N   LYS D   4      16.114  15.973 149.962  1.00 38.45 LIG-0.35  N 
ATOM     36 H    LYS D   4      16.690  15.340 150.040  1.00 38.45 LIG 0.16  HD
BRANCH 35 37
ATOM     37  CA  LYS D   4      15.829  16.695 151.178  1.00 37.56 LIG 0.18  C 
BRANCH 37 38
ATOM     38  C   LYS D   4      16.927  16.468 152.206  1.00 44.28 LIG 0.24  C 
ATOM     39 O    LYS D   4      17.667  15.570 152.061  1.00 49.08 LIG-0.27  OA
ATOM     40  N   GLN D   5      16.989  17.336 153.202  1.00 53.59 LIG-0.35  N 
ATOM     41 H    GLN D   5      16.613  18.102 153.095  1.00 53.59 LIG 0.16  HD
BRANCH 40 42
ATOM     42  CA  GLN D   5      17.606  17.281 154.559  1.00 61.39 LIG 0.16  C 
BRANCH 42 43
ATOM     43  CB  GLN D   5      18.656  16.181 154.771  1.00 20.00 LIG 0.04  C 
BRANCH 43 44
ATOM     44  CG  GLN D   5      20.110  16.678 154.584  1.00 20.00 LIG 0.10  C 
BRANCH 44 45
ATOM     45  CD  GLN D   5      21.144  16.138 155.572  1.00 20.00 LIG 0.21  C 
ATOM     46  NE2 GLN D   5      20.718  15.195 156.404  1.00 20.00 LIG-0.37  N 
ATOM     47 21HE GLN D   5      19.897  14.939 156.380  1.00 20.00 LIG 0.16  HD
ATOM     48 22HE GLN D   5      21.262  14.841 156.967  1.00 20.00 LIG 0.16  HD
ATOM     49 OE1  GLN D   5      22.310  16.538 155.569  1.00 20.00 LIG-0.27  OA
ENDBRANCH 44 45
ENDBRANCH 43 44
ENDBRANCH 42 43
BRANCH 42 50
ATOM     50  C   GLN D   5      17.982  18.512 155.349  1.00 64.61 LIG 0.22  C 
ATOM     51 O    GLN D   5      18.781  19.296 154.926  1.00 68.60 LIG-0.29  OA
ENDBRANCH 42 50
ENDBRANCH 40 42
ENDBRANCH 37 38
BRANCH 37 52
ATOM     52  CB  LYS D   4      14.459  16.319 151.698  1.00 33.42 LIG 0.04  C 
BRANCH 52 53
ATOM     53  CG  LYS D   4      14.469  15.641 152.988  1.00 40.53 LIG 0.00  C 
BRANCH 53 54
ATOM     54  CD  LYS D   4      13.254  14.894 153.155  1.00 50.17 LIG 0.03  C 
BRANCH 54 55
ATOM     55  CE  LYS D   4      13.235  14.159 154.465  1.00 57.03 LIG 0.23  C 
BRANCH 55 56
ATOM     56  NZ  LYS D   4      12.437  12.946 154.286  1.00 52.11 LIG-0.08  N 
ATOM     57 HZ3  LYS D   4      12.143  12.666 155.078  1.00 52.11 LIG 0.27  HD
ATOM     58 HZ2  LYS D   4      12.940  12.313 153.915  1.00 52.11 LIG 0.27  HD
ATOM     59 HZ1  LYS D   4      11.744  13.122 153.757  1.00 52.11 LIG 0.27  HD
ENDBRANCH 55 56
ENDBRANCH 54 55
ENDBRANCH 53 54
ENDBRANCH 52 53
ENDBRANCH 37 52
ENDBRANCH 35 37
ENDBRANCH 1 33
TORSDOF 24
ENDMDL
MODEL 2
USER: ADFR SOLUTION from run 2
USER: SCORE 19.335125 LL:  -2.992 LR: -18.400 RR:   0.000 FEB: -11.241
USER: RMSD 7.880233
USER: SEED 313995
USER: STATUS 1 or 2 clusters left
USER: GENES 26
USER: genes 0 Translation |==|  0.45043 0.41749 0.39401
USER: genes 1 Rotation |==|  0.98254 0.60070 0.41850 0.51917
USER: genes 2 Torsion [CB]-CA--N-[C] |==|  0.47786
USER: genes 3 Torsion [N]-C--CA-[N] |==|  0.66382
USER: genes 4 Torsion [C]-CA--CB-[CG] |==|  0.56394
USER: genes 5 Torsion [CA]-CB--CG-[CD] |==|  0.33043
USER: genes 6 Torsion [CB]-CG--CD-[NE] |==|  0.40422
USER: genes 7 Torsion [CG]-CD--NE-[HE] |==|  0.80197
USER: genes 8 Torsion [C]-CA--N-[C] |==|  0.15446
USER: genes 9 Torsion [N]-C--CA-[N] |==|  0.50945
USER: genes 10 Torsion [C]-CA--N-[H1] |==|  0.07048
USER: genes 11 Torsion [N]-CA--CB-[CG2] |==|  0.64705
USER: genes 12 Torsion [CA]-CB--OG1-[HG1] |==|  0.62805
USER: genes 13 Torsion [N]-CA--C-[N] |==|  0.55532
USER: genes 14 Torsion [C]-N--CA-[CB] |==|  0.78276
USER: genes 15 Torsion [N]-CA--C-[N] |==|  0.19551
USER: genes 16 Torsion [C]-N--CA-[CB] |==|  0.12974
USER: genes 17 Torsion [N]-CA--CB-[CG] |==|  0.16521
USER: genes 18 Torsion [CA]-CB--CG-[CD] |==|  0.70909
USER: genes 19 Torsion [CB]-CG--CD-[OE1] |==|  0.48302
USER: genes 20 Torsion [N]-CA--C-[O] |==|  0.26025
USER: genes 21 Torsion [N]-CA--CB-[CG] |==|  0.91953
USER: genes 22 Torsion [CA]-CB--CG-[CD] |==|  0.29454
USER: genes 23 Torsion [CB]-CG--CD-[CE] |==|  0.03564
USER: genes 24 Torsion [CG]-CD--CE-[NZ] |==|  0.44395
USER: genes 25 Torsion [CD]-CE--NZ-[HZ2] |==|  0.53048
ROOT
ATOM      1  CA  THR D   3      14.261  14.900 146.045  1.00 39.79 LIG 0.20  C 
ENDROOT
BRANCH 1 2
ATOM      2  N   THR D   3      13.250  14.704 147.083  1.00 34.46 LIG-0.34  N 
ATOM      3  C   ARG D   2      12.008  15.169 146.950  1.00 39.53 LIG 0.24  C 
ATOM      4 O    ARG D   2      11.665  15.895 146.014  1.00 39.08 LIG-0.27  OA
ATOM      5 H    THR D   3      13.529  14.269 147.771  1.00 34.46 LIG 0.16  HD
BRANCH 3 6
ATOM      6  CA  ARG D   2      10.998  14.782 148.039  1.00 42.24 LIG 0.18  C 
BRANCH 6 7
ATOM      7  CB  ARG D   2      11.654  13.873 149.082  1.00 49.82 LIG 0.04  C 
BRANCH 7 8
ATOM      8  CG  ARG D   2      10.720  12.984 149.889  1.00 55.24 LIG 0.02  C 
BRANCH 8 9
ATOM      9  CD  ARG D   2      11.060  11.505 149.649  1.00 55.63 LIG 0.14  C 
BRANCH 9 10
ATOM     10  NE  ARG D   2      10.859  10.674 150.838  1.00 65.78 LIG-0.23  N 
ATOM     11 HE   ARG D   2      11.413  10.769 151.488  1.00 65.78 LIG 0.18  HD
ATOM     12  CZ  ARG D   2       9.883   9.781 150.985  1.00 70.57 LIG 0.67  C 
ATOM     13  NH1 ARG D   2       9.001   9.583 150.015  1.00 66.11 LIG-0.23  N 
ATOM     14  NH2 ARG D   2       9.788   9.078 152.107  1.00 74.94 LIG-0.23  N 
ATOM     15 1HH1 ARG D   2       9.058  10.032 149.284  1.00 66.11 LIG 0.17  HD
ATOM     16 2HH1 ARG D   2       8.373   9.005 150.117  1.00 66.11 LIG 0.17  HD
ATOM     17 2HH2 ARG D   2       9.157   8.501 152.200  1.00 74.94 LIG 0.17  HD
ATOM     18 1HH2 ARG D   2      10.358   9.198 152.739  1.00 74.94 LIG 0.17  HD
ENDBRANCH 9 10
ENDBRANCH 8 9
ENDBRANCH 7 8
ENDBRANCH 6 7
BRANCH 6 19
ATOM     19  N   ARG D   2       9.874  14.066 147.443  1.00 42.84 LIG-0.35  N 
ATOM     20  C   ALA D   1      10.038  12.976 146.711  1.00 44.74 LIG 0.25  C 
ATOM     21 O    ALA D   1      11.145  12.534 146.416  1.00 48.31 LIG-0.27  OA
ATOM     22 H    ARG D   2       9.107  14.414 147.612  1.00 42.84 LIG 0.16  HD
BRANCH 20 23
ATOM     23  CA  ALA D   1       8.757  12.292 146.232  1.00 45.19 LIG 0.27  C 
ATOM     24  CB  ALA D   1       7.852  11.988 147.405  1.00 43.32 LIG 0.05  C 
BRANCH 23 25
ATOM     25  N   ALA D   1       9.066  11.070 145.509  1.00 39.75 LIG-0.07  N 
ATOM     26 H1   ALA D   1       9.853  10.756 145.780  1.00 39.75 LIG 0.28  HD
ATOM     27 H2   ALA D   1       8.434  10.463 145.668  1.00 39.75 LIG 0.28  HD
ATOM     28 H3   ALA D   1       9.099  11.241 144.636  1.00 39.75 LIG 0.28  HD
ENDBRANCH 23 25
ENDBRANCH 20 23
ENDBRANCH 6 19
ENDBRANCH 3 6
ENDBRANCH 1 2
BRANCH 1 29
ATOM     29  CB  THR D   3      15.665  14.449 146.507  1.00 46.90 LIG 0.15  C 
ATOM     30  CG2 THR D   3      16.683  15.555 146.306  1.00 44.81 LIG 0.04  C 
BRANCH 29 31
ATOM     31 OG1  THR D   3      15.625  14.099 147.896  1.00 48.09 LIG-0.39  OA
ATOM     32 HG1  THR D   3      16.279  14.446 148.292  1.00 48.09 LIG 0.21  HD
ENDBRANCH 29 31
ENDBRANCH 1 29
BRANCH 1 33
ATOM     33  C   THR D   3      13.892  14.118 144.784  1.00 42.40 LIG 0.24  C 
ATOM     34 O    THR D   3      12.743  13.701 144.609  1.00 40.34 LIG-0.27  OA
ATOM     35  N   LYS D   4      14.839  13.855 143.924  1.00 38.45 LIG-0.35  N 
ATOM     36 H    LYS D   4      15.645  14.149 143.977  1.00 38.45 LIG 0.16  HD
BRANCH 35 37
ATOM     37  CA  LYS D   4      14.567  13.016 142.784  1.00 37.56 LIG 0.18  C 
BRANCH 37 38
ATOM     38  C   LYS D   4      13.275  13.441 142.100  1.00 44.28 LIG 0.24  C 
ATOM     39 O    LYS D   4      12.329  12.755 142.195  1.00 49.08 LIG-0.27  OA
ATOM     40  N   GLN D   5      13.303  14.593 141.454  1.00 53.59 LIG-0.35  N 
ATOM     41 H    GLN D   5      13.920  15.157 141.657  1.00 53.59 LIG 0.16  HD
BRANCH 40 42
ATOM     42  CA  GLN D   5      12.448  15.175 140.378  1.00 61.39 LIG 0.16  C 
BRANCH 42 43
ATOM     43  CB  GLN D   5      10.933  15.056 140.594  1.00 20.00 LIG 0.04  C 
BRANCH 43 44
ATOM     44  CG  GLN D   5      10.443  15.745 141.890  1.00 20.00 LIG 0.10  C 
BRANCH 44 45
ATOM     45  CD  GLN D   5      10.085  14.823 143.055  1.00 20.00 LIG 0.21  C 
ATOM     46  NE2 GLN D   5      10.142  13.520 142.807  1.00 20.00 LIG-0.37  N 
ATOM     47 21HE GLN D   5      10.349  13.241 142.020  1.00 20.00 LIG 0.16  HD
ATOM     48 22HE GLN D   5       9.970  12.956 143.431  1.00 20.00 LIG 0.16  HD
ATOM     49 OE1  GLN D   5       9.791  15.271 144.166  1.00 20.00 LIG-0.27  OA
ENDBRANCH 44 45
ENDBRANCH 43 44
ENDBRANCH 42 43
BRANCH 42 50
ATOM     50  C   GLN D   5      12.769  16.471 139.674  1.00 64.61 LIG 0.22  C 
ATOM     51 O    GLN D   5      13.380  16.479 138.646  1.00 68.60 LIG-0.29  OA
ENDBRANCH 42 50
ENDBRANCH 40 42
ENDBRANCH 37 38
BRANCH 37 52
ATOM     52  CB  LYS D   4      14.554  11.561 143.198  1.00 33.42 LIG 0.04  C 
BRANCH 52 53
ATOM     53  CG  LYS D   4      15.407  11.250 144.338  1.00 40.53 LIG 0.00  C 
BRANCH 53 54
ATOM     54  CD  LYS D   4      14.601  11.027 145.505  1.00 50.17 LIG 0.03  C 
BRANCH 54 55
ATOM     55  CE  LYS D   4      13.149  10.872 145.149  1.00 57.03 LIG 0.23  C 
BRANCH 55 56
ATOM     56  NZ  LYS D   4      12.487  10.187 146.259  1.00 52.11 LIG-0.08  N 
ATOM     57 HZ3  LYS D   4      12.957   9.466 146.485  1.00 52.11 LIG 0.27  HD
ATOM     58 HZ2  LYS D   4      11.669   9.942 146.010  1.00 52.11 LIG 0.27  HD
ATOM     59 HZ1  LYS D   4      12.433  10.737 146.957  1.00 52.11 LIG 0.27  HD
ENDBRANCH 55 56
ENDBRANCH 54 55
ENDBRANCH 53 54
ENDBRANCH 52 53
ENDBRANCH 37 52
ENDBRANCH 35 37
ENDBRANCH 1 33
TORSDOF 24
ENDMDL
MODEL 3
USER: ADFR SOLUTION from run 155
USER: SCORE 19.535528 LL:  -3.017 LR: -18.307 RR:   0.000 FEB: -11.148
USER: RMSD 7.223792
USER: SEED 154
USER: STATUS no improvement in best in 1 clusters for 5 generations
USER: GENES 26
USER: genes 0 Translation |==|  0.40567 0.29046 0.42995
USER: genes 1 Rotation |==|  0.20752 0.62416 0.39109 0.87038
USER: genes 2 Torsion [CB]-CA--N-[C] |==|  0.54444
USER: genes 3 Torsion [N]-C--CA-[N] |==|  0.01010
USER: genes 4 Torsion [C]-CA--CB-[CG] |==|  0.93439
USER: genes 5 Torsion [CA]-CB--CG-[CD] |==|  0.83012
USER: genes 6 Torsion [CB]-CG--CD-[NE] |==|  0.59066
USER: genes 7 Torsion [CG]-CD--NE-[HE] |==|  0.85303
USER: genes 8 Torsion [C]-CA--N-[C] |==|  0.67730
USER: genes 9 Torsion [N]-C--CA-[N] |==|  0.86927
USER: genes 10 Torsion [C]-CA--N-[H1] |==|  0.75884
USER: genes 11 Torsion [N]-CA--CB-[CG2] |==|  0.51725
USER: genes 12 Torsion [CA]-CB--OG1-[HG1] |==|  0.91968
USER: genes 13 Torsion [N]-CA--C-[N] |==|  0.78293
USER: genes 14 Torsion [C]-N--CA-[CB] |==|  0.18961
USER: genes 15 Torsion [N]-CA--C-[N] |==|  0.83970
USER: genes 16 Torsion [C]-N--CA-[CB] |==|  0.73908
USER: genes 17 Torsion [N]-CA--CB-[CG] |==|  0.92410
USER: genes 18 Torsion [CA]-CB--CG-[CD] |==|  0.85701
USER: genes 19 Torsion [CB]-CG--CD-[OE1] |==|  0.24546
USER: genes 20 Torsion [N]-CA--C-[O] |==|  0.32431
USER: genes 21 Torsion [N]-CA--CB-[CG] |==|  0.54679
USER: genes 22 Torsion [CA]-CB--CG-[CD] |==|  0.32801
USER: genes 23 Torsion [CB]-CG--CD-[CE] |==|  0.75076
USER: genes 24 Torsion [CG]-CD--CE-[NZ] |==|  0.46085
USER: genes 25 Torsion [CD]-CE--NZ-[HZ2] |==|  0.05220
ROOT
ATOM      1  CA  THR D   3      13.421  12.138 146.880  1.00 39.79 LIG 0.20  C 
ENDROOT
BRANCH 1 2
ATOM      2  N   THR D   3      12.000  12.388 147.113  1.00 34.46 LIG-0.34  N 
ATOM      3  C   ARG D   2      11.581  13.390 147.885  1.00 39.53 LIG 0.24  C 
ATOM      4 O    ARG D   2      12.353  14.088 148.548  1.00 39.08 LIG-0.27  OA
ATOM      5 H    THR D   3      11.473  11.839 146.712  1.00 34.46 LIG 0.16  HD
BRANCH 3 6
ATOM      6  CA  ARG D   2      10.068  13.642 147.942  1.00 42.24 LIG 0.18  C 
BRANCH 6 7
ATOM      7  CB  ARG D   2       9.567  13.577 149.387  1.00 49.82 LIG 0.04  C 
BRANCH 7 8
ATOM      8  CG  ARG D   2      10.414  12.774 150.363  1.00 55.24 LIG 0.02  C 
BRANCH 8 9
ATOM      9  CD  ARG D   2      10.491  11.307 149.913  1.00 55.63 LIG 0.14  C 
BRANCH 9 10
ATOM     10  NE  ARG D   2      10.578  10.370 151.035  1.00 65.78 LIG-0.23  N 
ATOM     11 HE   ARG D   2      11.194  10.505 151.618  1.00 65.78 LIG 0.18  HD
ATOM     12  CZ  ARG D   2       9.773   9.326 151.217  1.00 70.57 LIG 0.67  C 
ATOM     13  NH1 ARG D   2       8.808   9.061 150.348  1.00 66.11 LIG-0.23  N 
ATOM     14  NH2 ARG D   2       9.937   8.536 152.272  1.00 74.94 LIG-0.23  N 
ATOM     15 1HH1 ARG D   2       8.698   9.565 149.661  1.00 66.11 LIG 0.17  HD
ATOM     16 2HH1 ARG D   2       8.292   8.384 150.472  1.00 66.11 LIG 0.17  HD
ATOM     17 2HH2 ARG D   2       9.417   7.862 152.388  1.00 74.94 LIG 0.17  HD
ATOM     18 1HH2 ARG D   2      10.563   8.699 152.838  1.00 74.94 LIG 0.17  HD
ENDBRANCH 9 10
ENDBRANCH 8 9
ENDBRANCH 7 8
ENDBRANCH 6 7
BRANCH 6 19
ATOM     19  N   ARG D   2       9.365  12.627 147.163  1.00 42.84 LIG-0.35  N 
ATOM     20  C   ALA D   1       8.659  12.927 146.085  1.00 44.74 LIG 0.25  C 
ATOM     21 O    ALA D   1       8.481  14.082 145.707  1.00 48.31 LIG-0.27  OA
ATOM     22 H    ARG D   2       9.452  11.828 147.467  1.00 42.84 LIG 0.16  HD
BRANCH 20 23
ATOM     23  CA  ALA D   1       8.056  11.742 145.328  1.00 45.19 LIG 0.27  C 
ATOM     24  CB  ALA D   1       6.861  11.193 146.076  1.00 43.32 LIG 0.05  C 
BRANCH 23 25
ATOM     25  N   ALA D   1       9.048  10.698 145.134  1.00 39.75 LIG-0.07  N 
ATOM     26 H1   ALA D   1       9.508  10.860 144.389  1.00 39.75 LIG 0.28  HD
ATOM     27 H2   ALA D   1       9.604  10.684 145.828  1.00 39.75 LIG 0.28  HD
ATOM     28 H3   ALA D   1       8.640   9.910 145.065  1.00 39.75 LIG 0.28  HD
ENDBRANCH 23 25
ENDBRANCH 20 23
ENDBRANCH 6 19
ENDBRANCH 3 6
ENDBRANCH 1 2
BRANCH 1 29
ATOM     29  CB  THR D   3      13.657  11.205 145.671  1.00 46.90 LIG 0.15  C 
ATOM     30  CG2 THR D   3      15.125  10.841 145.545  1.00 44.81 LIG 0.04  C 
BRANCH 29 31
ATOM     31 OG1  THR D   3      12.891  10.004 145.832  1.00 48.09 LIG-0.39  OA
ATOM     32 HG1  THR D   3      12.790   9.843 146.650  1.00 48.09 LIG 0.21  HD
ENDBRANCH 29 31
ENDBRANCH 1 29
BRANCH 1 33
ATOM     33  C   THR D   3      14.163  13.450 146.630  1.00 42.40 LIG 0.24  C 
ATOM     34 O    THR D   3      14.797  14.004 147.533  1.00 40.34 LIG-0.27  OA
ATOM     35  N   LYS D   4      14.061  14.000 145.450  1.00 38.45 LIG-0.35  N 
ATOM     36 H    LYS D   4      13.664  13.643 144.776  1.00 38.45 LIG 0.16  HD
BRANCH 35 37
ATOM     37  CA  LYS D   4      14.639  15.297 145.203  1.00 37.56 LIG 0.18  C 
BRANCH 37 38
ATOM     38  C   LYS D   4      14.124  15.874 143.893  1.00 44.28 LIG 0.24  C 
ATOM     39 O    LYS D   4      13.598  16.922 143.900  1.00 49.08 LIG-0.27  OA
ATOM     40  N   GLN D   5      14.333  15.148 142.808  1.00 53.59 LIG-0.35  N 
ATOM     41 H    GLN D   5      14.951  14.551 142.834  1.00 53.59 LIG 0.16  HD
BRANCH 40 42
ATOM     42  CA  GLN D   5      13.696  15.131 141.459  1.00 61.39 LIG 0.16  C 
BRANCH 42 43
ATOM     43  CB  GLN D   5      12.552  14.124 141.275  1.00 20.00 LIG 0.04  C 
BRANCH 43 44
ATOM     44  CG  GLN D   5      12.669  12.888 142.199  1.00 20.00 LIG 0.10  C 
BRANCH 44 45
ATOM     45  CD  GLN D   5      14.010  12.154 142.183  1.00 20.00 LIG 0.21  C 
ATOM     46  NE2 GLN D   5      14.127  11.175 141.294  1.00 20.00 LIG-0.37  N 
ATOM     47 21HE GLN D   5      13.464  10.974 140.786  1.00 20.00 LIG 0.16  HD
ATOM     48 22HE GLN D   5      14.866  10.742 141.227  1.00 20.00 LIG 0.16  HD
ATOM     49 OE1  GLN D   5      14.932  12.478 142.934  1.00 20.00 LIG-0.27  OA
ENDBRANCH 44 45
ENDBRANCH 43 44
ENDBRANCH 42 43
BRANCH 42 50
ATOM     50  C   GLN D   5      13.418  16.380 140.658  1.00 64.61 LIG 0.22  C 
ATOM     51 O    GLN D   5      13.950  16.566 139.603  1.00 68.60 LIG-0.29  OA
ENDBRANCH 42 50
ENDBRANCH 40 42
ENDBRANCH 37 38
BRANCH 37 52
ATOM     52  CB  LYS D   4      16.149  15.212 145.247  1.00 33.42 LIG 0.04  C 
BRANCH 52 53
ATOM     53  CG  LYS D   4      16.822  16.496 145.397  1.00 40.53 LIG 0.00  C 
BRANCH 53 54
ATOM     54  CD  LYS D   4      17.569  16.514 146.623  1.00 50.17 LIG 0.03  C 
BRANCH 54 55
ATOM     55  CE  LYS D   4      16.738  17.021 147.767  1.00 57.03 LIG 0.23  C 
BRANCH 55 56
ATOM     56  NZ  LYS D   4      17.439  16.695 149.009  1.00 52.11 LIG-0.08  N 
ATOM     57 HZ3  LYS D   4      17.382  17.383 149.571  1.00 52.11 LIG 0.27  HD
ATOM     58 HZ2  LYS D   4      18.294  16.527 148.831  1.00 52.11 LIG 0.27  HD
ATOM     59 HZ1  LYS D   4      17.066  15.977 149.380  1.00 52.11 LIG 0.27  HD
ENDBRANCH 55 56
ENDBRANCH 54 55
ENDBRANCH 53 54
ENDBRANCH 52 53
ENDBRANCH 37 52
ENDBRANCH 35 37
ENDBRANCH 1 33
TORSDOF 24
ENDMDL
MODEL 4
USER: ADFR SOLUTION from run 148
USER: SCORE 18.898484 LL:  -3.601 LR: -18.273 RR:   0.000 FEB: -11.114
USER: RMSD 5.954303
USER: SEED 147
USER: STATUS searching
USER: GENES 26
USER: genes 0 Translation |==|  0.40283 0.27362 0.32419
USER: genes 1 Rotation |==|  0.45241 0.71155 0.38077 0.93447
USER: genes 2 Torsion [CB]-CA--N-[C] |==|  0.56668
USER: genes 3 Torsion [N]-C--CA-[N] |==|  0.18729
USER: genes 4 Torsion [C]-CA--CB-[CG] |==|  0.74280
USER: genes 5 Torsion [CA]-CB--CG-[CD] |==|  0.24869
USER: genes 6 Torsion [CB]-CG--CD-[NE] |==|  0.43641
USER: genes 7 Torsion [CG]-CD--NE-[HE] |==|  0.66300
USER: genes 8 Torsion [C]-CA--N-[C] |==|  0.71858
USER: genes 9 Torsion [N]-C--CA-[N] |==|  0.79805
USER: genes 10 Torsion [C]-CA--N-[H1] |==|  0.07857
USER: genes 11 Torsion [N]-CA--CB-[CG2] |==|  0.61954
USER: genes 12 Torsion [CA]-CB--OG1-[HG1] |==|  0.65004
USER: genes 13 Torsion [N]-CA--C-[N] |==|  0.80152
USER: genes 14 Torsion [C]-N--CA-[CB] |==|  0.43140
USER: genes 15 Torsion [N]-CA--C-[N] |==|  0.56911
USER: genes 16 Torsion [C]-N--CA-[CB] |==|  0.49162
USER: genes 17 Torsion [N]-CA--CB-[CG] |==|  0.24829
USER: genes 18 Torsion [CA]-CB--CG-[CD] |==|  0.81246
USER: genes 19 Torsion [CB]-CG--CD-[OE1] |==|  0.41791
USER: genes 20 Torsion [N]-CA--C-[O] |==|  0.96854
USER: genes 21 Torsion [N]-CA--CB-[CG] |==|  0.10717
USER: genes 22 Torsion [CA]-CB--CG-[CD] |==|  0.41414
USER: genes 23 Torsion [CB]-CG--CD-[CE] |==|  0.20529
USER: genes 24 Torsion [CG]-CD--CE-[NZ] |==|  0.57914
USER: genes 25 Torsion [CD]-CE--NZ-[HZ2] |==|  0.75164
ROOT
ATOM      1  CA  THR D   3      13.368  11.771 144.421  1.00 39.79 LIG 0.20  C 
ENDROOT
BRANCH 1 2
ATOM      2  N   THR D   3      12.106  12.246 144.986  1.00 34.46 LIG-0.34  N 
ATOM      3  C   ARG D   2      11.941  12.406 146.299  1.00 39.53 LIG 0.24  C 
ATOM      4 O    ARG D   2      12.786  12.053 147.124  1.00 39.08 LIG-0.27  OA
ATOM      5 H    THR D   3      11.495  12.407 144.403  1.00 34.46 LIG 0.16  HD
BRANCH 3 6
ATOM      6  CA  ARG D   2      10.624  13.042 146.764  1.00 42.24 LIG 0.18  C 
BRANCH 6 7
ATOM      7  CB  ARG D   2      10.661  13.318 148.269  1.00 49.82 LIG 0.04  C 
BRANCH 7 8
ATOM      8  CG  ARG D   2      10.108  12.226 149.172  1.00 55.24 LIG 0.02  C 
BRANCH 8 9
ATOM      9  CD  ARG D   2      11.225  11.240 149.553  1.00 55.63 LIG 0.14  C 
BRANCH 9 10
ATOM     10  NE  ARG D   2      10.941  10.508 150.789  1.00 65.78 LIG-0.23  N 
ATOM     11 HE   ARG D   2      11.503  10.584 151.435  1.00 65.78 LIG 0.18  HD
ATOM     12  CZ  ARG D   2       9.877   9.733 150.986  1.00 70.57 LIG 0.67  C 
ATOM     13  NH1 ARG D   2       8.977   9.569 150.026  1.00 66.11 LIG-0.23  N 
ATOM     14  NH2 ARG D   2       9.712   9.112 152.147  1.00 74.94 LIG-0.23  N 
ATOM     15 1HH1 ARG D   2       9.079   9.965 149.270  1.00 66.11 LIG 0.17  HD
ATOM     16 2HH1 ARG D   2       8.292   9.067 150.160  1.00 66.11 LIG 0.17  HD
ATOM     17 2HH2 ARG D   2       9.024   8.611 152.273  1.00 74.94 LIG 0.17  HD
ATOM     18 1HH2 ARG D   2      10.293   9.210 152.774  1.00 74.94 LIG 0.17  HD
ENDBRANCH 9 10
ENDBRANCH 8 9
ENDBRANCH 7 8
ENDBRANCH 6 7
BRANCH 6 19
ATOM     19  N   ARG D   2       9.510  12.139 146.488  1.00 42.84 LIG-0.35  N 
ATOM     20  C   ALA D   1       8.704  12.306 145.452  1.00 44.74 LIG 0.25  C 
ATOM     21 O    ALA D   1       8.785  13.270 144.695  1.00 48.31 LIG-0.27  OA
ATOM     22 H    ARG D   2       9.430  11.498 147.054  1.00 42.84 LIG 0.16  HD
BRANCH 20 23
ATOM     23  CA  ALA D   1       7.641  11.225 145.249  1.00 45.19 LIG 0.27  C 
ATOM     24  CB  ALA D   1       6.903  10.963 146.543  1.00 43.32 LIG 0.05  C 
BRANCH 23 25
ATOM     25  N   ALA D   1       8.243   9.997 144.759  1.00 39.75 LIG-0.07  N 
ATOM     26 H1   ALA D   1       9.085   9.945 145.043  1.00 39.75 LIG 0.28  HD
ATOM     27 H2   ALA D   1       7.783   9.299 145.065  1.00 39.75 LIG 0.28  HD
ATOM     28 H3   ALA D   1       8.230   9.994 143.869  1.00 39.75 LIG 0.28  HD
ENDBRANCH 23 25
ENDBRANCH 20 23
ENDBRANCH 6 19
ENDBRANCH 3 6
ENDBRANCH 1 2
BRANCH 1 29
ATOM     29  CB  THR D   3      13.548  12.210 142.950  1.00 46.90 LIG 0.15  C 
ATOM     30  CG2 THR D   3      14.091  11.071 142.108  1.00 44.81 LIG 0.04  C 
BRANCH 29 31
ATOM     31 OG1  THR D   3      12.286  12.626 142.414  1.00 48.09 LIG-0.39  OA
ATOM     32 HG1  THR D   3      12.126  12.199 141.708  1.00 48.09 LIG 0.21  HD
ENDBRANCH 29 31
ENDBRANCH 1 29
BRANCH 1 33
ATOM     33  C   THR D   3      14.550  12.302 145.231  1.00 42.40 LIG 0.24  C 
ATOM     34 O    THR D   3      15.182  11.562 145.992  1.00 40.34 LIG-0.27  OA
ATOM     35  N   LYS D   4      14.839  13.572 145.140  1.00 38.45 LIG-0.35  N 
ATOM     36 H    LYS D   4      14.458  14.123 144.602  1.00 38.45 LIG 0.16  HD
BRANCH 35 37
ATOM     37  CA  LYS D   4      15.865  14.143 145.977  1.00 37.56 LIG 0.18  C 
BRANCH 37 38
ATOM     38  C   LYS D   4      15.328  14.413 147.375  1.00 44.28 LIG 0.24  C 
ATOM     39 O    LYS D   4      14.431  13.772 147.774  1.00 49.08 LIG-0.27  OA
ATOM     40  N   GLN D   5      15.941  15.357 148.068  1.00 53.59 LIG-0.35  N 
ATOM     41 H    GLN D   5      16.737  15.579 147.833  1.00 53.59 LIG 0.16  HD
BRANCH 40 42
ATOM     42  CA  GLN D   5      15.534  16.179 149.245  1.00 61.39 LIG 0.16  C 
BRANCH 42 43
ATOM     43  CB  GLN D   5      16.603  17.135 149.792  1.00 20.00 LIG 0.04  C 
BRANCH 43 44
ATOM     44  CG  GLN D   5      16.573  18.532 149.126  1.00 20.00 LIG 0.10  C 
BRANCH 44 45
ATOM     45  CD  GLN D   5      16.971  18.589 147.652  1.00 20.00 LIG 0.21  C 
ATOM     46  NE2 GLN D   5      17.815  17.651 147.239  1.00 20.00 LIG-0.37  N 
ATOM     47 21HE GLN D   5      18.120  17.072 147.796  1.00 20.00 LIG 0.16  HD
ATOM     48 22HE GLN D   5      18.057  17.624 146.414  1.00 20.00 LIG 0.16  HD
ATOM     49 OE1  GLN D   5      16.507  19.442 146.891  1.00 20.00 LIG-0.27  OA
ENDBRANCH 44 45
ENDBRANCH 43 44
ENDBRANCH 42 43
BRANCH 42 50
ATOM     50  C   GLN D   5      14.165  16.798 149.391  1.00 64.61 LIG 0.22  C 
ATOM     51 O    GLN D   5      13.399  16.826 148.472  1.00 68.60 LIG-0.29  OA
ENDBRANCH 42 50
ENDBRANCH 40 42
ENDBRANCH 37 38
BRANCH 37 52
ATOM     52  CB  LYS D   4      16.440  15.381 145.325  1.00 33.42 LIG 0.04  C 
BRANCH 52 53
ATOM     53  CG  LYS D   4      15.459  16.214 144.641  1.00 40.53 LIG 0.00  C 
BRANCH 53 54
ATOM     54  CD  LYS D   4      15.864  17.590 144.697  1.00 50.17 LIG 0.03  C 
BRANCH 54 55
ATOM     55  CE  LYS D   4      17.011  17.865 143.766  1.00 57.03 LIG 0.23  C 
BRANCH 55 56
ATOM     56  NZ  LYS D   4      17.784  18.974 144.324  1.00 52.11 LIG-0.08  N 
ATOM     57 HZ3  LYS D   4      17.727  18.958 145.212  1.00 52.11 LIG 0.27  HD
ATOM     58 HZ2  LYS D   4      17.461  19.745 144.019  1.00 52.11 LIG 0.27  HD
ATOM     59 HZ1  LYS D   4      18.637  18.893 144.080  1.00 52.11 LIG 0.27  HD
ENDBRANCH 55 56
ENDBRANCH 54 55
ENDBRANCH 53 54
ENDBRANCH 52 53
ENDBRANCH 37 52
ENDBRANCH 35 37
ENDBRANCH 1 33
TORSDOF 24
ENDMDL
MODEL 5
USER: ADFR SOLUTION from run 185
USER: SCORE 19.180591 LL:  -2.303 LR: -18.225 RR:   0.000 FEB: -11.066
USER: RMSD 6.792108
USER: SEED 184
USER: STATUS no improvement in best in 7 clusters for 5 generations
USER: GENES 26
USER: genes 0 Translation |==|  0.54705 0.46863 0.52658
USER: genes 1 Rotation |==|  0.44694 0.44789 0.72421 0.94068
USER: genes 2 Torsion [CB]-CA--N-[C] |==|  0.84996
USER: genes 3 Torsion [N]-C--CA-[N] |==|  0.47936
USER: genes 4 Torsion [C]-CA--CB-[CG] |==|  0.75584
USER: genes 5 Torsion [CA]-CB--CG-[CD] |==|  0.64317
USER: genes 6 Torsion [CB]-CG--CD-[NE] |==|  0.47129
USER: genes 7 Torsion [CG]-CD--NE-[HE] |==|  0.26313
USER: genes 8 Torsion [C]-CA--N-[C] |==|  0.55390
USER: genes 9 Torsion [N]-C--CA-[N] |==|  0.53140
USER: genes 10 Torsion [C]-CA--N-[H1] |==|  0.30810
USER: genes 11 Torsion [N]-CA--CB-[CG2] |==|  0.43836
USER: genes 12 Torsion [CA]-CB--OG1-[HG1] |==|  0.87906
USER: genes 13 Torsion [N]-CA--C-[N] |==|  0.31231
USER: genes 14 Torsion [C]-N--CA-[CB] |==|  0.17547
USER: genes 15 Torsion [N]-CA--C-[N] |==|  0.82548
USER: genes 16 Torsion [C]-N--CA-[CB] |==|  0.55739
USER: genes 17 Torsion [N]-CA--CB-[CG] |==|  0.67594
USER: genes 18 Torsion [CA]-CB--CG-[CD] |==|  0.44279
USER: genes 19 Torsion [CB]-CG--CD-[OE1] |==|  0.23742
USER: genes 20 Torsion [N]-CA--C-[O] |==|  0.85012
USER: genes 21 Torsion [N]-CA--CB-[CG] |==|  0.53288
USER: genes 22 Torsion [CA]-CB--CG-[CD] |==|  0.63922
USER: genes 23 Torsion [CB]-CG--CD-[CE] |==|  0.93910
USER: genes 24 Torsion [CG]-CD--CE-[NZ] |==|  0.64766
USER: genes 25 Torsion [CD]-CE--NZ-[HZ2] |==|  0.44543
ROOT
ATOM      1  CA  THR D   3      16.072  16.013 149.127  1.00 39.79 LIG 0.20  C 
ENDROOT
BRANCH 1 2
ATOM      2  N   THR D   3      15.676  14.778 148.452  1.00 34.46 LIG-0.34  N 
ATOM      3  C   ARG D   2      14.530  14.682 147.781  1.00 39.53 LIG 0.24  C 
ATOM      4 O    ARG D   2      13.678  15.573 147.786  1.00 39.08 LIG-0.27  OA
ATOM      5 H    THR D   3      16.243  14.135 148.529  1.00 34.46 LIG 0.16  HD
BRANCH 3 6
ATOM      6  CA  ARG D   2      14.287  13.384 146.997  1.00 42.24 LIG 0.18  C 
BRANCH 6 7
ATOM      7  CB  ARG D   2      15.262  13.275 145.822  1.00 49.82 LIG 0.04  C 
BRANCH 7 8
ATOM      8  CG  ARG D   2      14.824  13.921 144.515  1.00 55.24 LIG 0.02  C 
BRANCH 8 9
ATOM      9  CD  ARG D   2      14.952  12.914 143.361  1.00 55.63 LIG 0.14  C 
BRANCH 9 10
ATOM     10  NE  ARG D   2      14.325  13.384 142.124  1.00 65.78 LIG-0.23  N 
ATOM     11 HE   ARG D   2      14.827  13.781 141.550  1.00 65.78 LIG 0.18  HD
ATOM     12  CZ  ARG D   2      13.037  13.242 141.823  1.00 70.57 LIG 0.67  C 
ATOM     13  NH1 ARG D   2      12.210  12.645 142.670  1.00 66.11 LIG-0.23  N 
ATOM     14  NH2 ARG D   2      12.568  13.705 140.670  1.00 74.94 LIG-0.23  N 
ATOM     15 1HH1 ARG D   2      12.505  12.346 143.420  1.00 66.11 LIG 0.17  HD
ATOM     16 2HH1 ARG D   2      11.378  12.557 142.469  1.00 66.11 LIG 0.17  HD
ATOM     17 2HH2 ARG D   2      11.735  13.613 140.477  1.00 74.94 LIG 0.17  HD
ATOM     18 1HH2 ARG D   2      13.097  14.097 140.117  1.00 74.94 LIG 0.17  HD
ENDBRANCH 9 10
ENDBRANCH 8 9
ENDBRANCH 7 8
ENDBRANCH 6 7
BRANCH 6 19
ATOM     19  N   ARG D   2      12.925  13.369 146.470  1.00 42.84 LIG-0.35  N 
ATOM     20  C   ALA D   1      12.326  12.252 146.090  1.00 44.74 LIG 0.25  C 
ATOM     21 O    ALA D   1      12.895  11.163 146.081  1.00 48.31 LIG-0.27  OA
ATOM     22 H    ARG D   2      12.555  14.144 146.430  1.00 42.84 LIG 0.16  HD
BRANCH 20 23
ATOM     23  CA  ALA D   1      10.870  12.391 145.644  1.00 45.19 LIG 0.27  C 
ATOM     24  CB  ALA D   1      10.096  13.237 146.630  1.00 43.32 LIG 0.05  C 
BRANCH 23 25
ATOM     25  N   ALA D   1      10.247  11.085 145.509  1.00 39.75 LIG-0.07  N 
ATOM     26 H1   ALA D   1       9.636  10.979 146.148  1.00 39.75 LIG 0.28  HD
ATOM     27 H2   ALA D   1       9.855  11.025 144.712  1.00 39.75 LIG 0.28  HD
ATOM     28 H3   ALA D   1      10.866  10.451 145.583  1.00 39.75 LIG 0.28  HD
ENDBRANCH 23 25
ENDBRANCH 20 23
ENDBRANCH 6 19
ENDBRANCH 3 6
ENDBRANCH 1 2
BRANCH 1 29
ATOM     29  CB  THR D   3      16.054  17.228 148.173  1.00 46.90 LIG 0.15  C 
ATOM     30  CG2 THR D   3      15.926  18.525 148.950  1.00 44.81 LIG 0.04  C 
BRANCH 29 31
ATOM     31 OG1  THR D   3      17.267  17.260 147.410  1.00 48.09 LIG-0.39  OA
ATOM     32 HG1  THR D   3      17.920  17.097 147.914  1.00 48.09 LIG 0.21  HD
ENDBRANCH 29 31
ENDBRANCH 1 29
BRANCH 1 33
ATOM     33  C   THR D   3      15.137  16.305 150.300  1.00 42.40 LIG 0.24  C 
ATOM     34 O    THR D   3      13.968  16.654 150.108  1.00 40.34 LIG-0.27  OA
ATOM     35  N   LYS D   4      15.623  16.231 151.509  1.00 38.45 LIG-0.35  N 
ATOM     36 H    LYS D   4      16.416  15.961 151.702  1.00 38.45 LIG 0.16  HD
BRANCH 35 37
ATOM     37  CA  LYS D   4      14.816  16.618 152.639  1.00 37.56 LIG 0.18  C 
BRANCH 37 38
ATOM     38  C   LYS D   4      15.650  16.643 153.911  1.00 44.28 LIG 0.24  C 
ATOM     39 O    LYS D   4      15.772  17.654 154.492  1.00 49.08 LIG-0.27  OA
ATOM     40  N   GLN D   5      16.170  15.490 154.297  1.00 53.59 LIG-0.35  N 
ATOM     41 H    GLN D   5      15.818  14.766 153.994  1.00 53.59 LIG 0.16  HD
BRANCH 40 42
ATOM     42  CA  GLN D   5      17.305  15.139 155.199  1.00 61.39 LIG 0.16  C 
BRANCH 42 43
ATOM     43  CB  GLN D   5      17.897  13.736 155.010  1.00 20.00 LIG 0.04  C 
BRANCH 43 44
ATOM     44  CG  GLN D   5      17.733  12.830 156.254  1.00 20.00 LIG 0.10  C 
BRANCH 44 45
ATOM     45  CD  GLN D   5      17.835  11.323 156.015  1.00 20.00 LIG 0.21  C 
ATOM     46  NE2 GLN D   5      16.690  10.690 155.792  1.00 20.00 LIG-0.37  N 
ATOM     47 21HE GLN D   5      15.948  11.123 155.810  1.00 20.00 LIG 0.16  HD
ATOM     48 22HE GLN D   5      16.690   9.845 155.631  1.00 20.00 LIG 0.16  HD
ATOM     49 OE1  GLN D   5      18.924  10.745 156.001  1.00 20.00 LIG-0.27  OA
ENDBRANCH 44 45
ENDBRANCH 43 44
ENDBRANCH 42 43
BRANCH 42 50
ATOM     50  C   GLN D   5      18.395  16.113 155.577  1.00 64.61 LIG 0.22  C 
ATOM     51 O    GLN D   5      19.023  16.692 154.740  1.00 68.60 LIG-0.29  OA
ENDBRANCH 42 50
ENDBRANCH 40 42
ENDBRANCH 37 38
BRANCH 37 52
ATOM     52  CB  LYS D   4      13.610  15.711 152.752  1.00 33.42 LIG 0.04  C 
BRANCH 52 53
ATOM     53  CG  LYS D   4      12.592  16.175 153.686  1.00 40.53 LIG 0.00  C 
BRANCH 53 54
ATOM     54  CD  LYS D   4      12.233  15.113 154.583  1.00 50.17 LIG 0.03  C 
BRANCH 54 55
ATOM     55  CE  LYS D   4      12.568  13.767 154.004  1.00 57.03 LIG 0.23  C 
BRANCH 55 56
ATOM     56  NZ  LYS D   4      11.359  12.945 154.053  1.00 52.11 LIG-0.08  N 
ATOM     57 HZ3  LYS D   4      11.252  12.623 154.876  1.00 52.11 LIG 0.27  HD
ATOM     58 HZ2  LYS D   4      11.436  12.270 153.479  1.00 52.11 LIG 0.27  HD
ATOM     59 HZ1  LYS D   4      10.653  13.441 153.835  1.00 52.11 LIG 0.27  HD
ENDBRANCH 55 56
ENDBRANCH 54 55
ENDBRANCH 53 54
ENDBRANCH 52 53
ENDBRANCH 37 52
ENDBRANCH 35 37
ENDBRANCH 1 33
TORSDOF 24
ENDMDL
MODEL 6
USER: ADFR SOLUTION from run 169
USER: SCORE 18.595001 LL:  -2.242 LR: -18.209 RR:   0.000 FEB: -11.049
USER: RMSD 5.320293
USER: SEED 168
USER: STATUS no improvement in best in 14 clusters for 5 generations
USER: GENES 26
USER: genes 0 Translation |==|  0.54044 0.47223 0.47793
USER: genes 1 Rotation |==|  0.39354 0.55521 0.51101 0.98528
USER: genes 2 Torsion [CB]-CA--N-[C] |==|  0.23995
USER: genes 3 Torsion [N]-C--CA-[N] |==|  0.46887
USER: genes 4 Torsion [C]-CA--CB-[CG] |==|  0.59568
USER: genes 5 Torsion [CA]-CB--CG-[CD] |==|  0.52967
USER: genes 6 Torsion [CB]-CG--CD-[NE] |==|  0.65178
USER: genes 7 Torsion [CG]-CD--NE-[HE] |==|  0.32699
USER: genes 8 Torsion [C]-CA--N-[C] |==|  0.77077
USER: genes 9 Torsion [N]-C--CA-[N] |==|  0.21373
USER: genes 10 Torsion [C]-CA--N-[H1] |==|  0.46507
USER: genes 11 Torsion [N]-CA--CB-[CG2] |==|  0.74393
USER: genes 12 Torsion [CA]-CB--OG1-[HG1] |==|  0.24822
USER: genes 13 Torsion [N]-CA--C-[N] |==|  0.55078
USER: genes 14 Torsion [C]-N--CA-[CB] |==|  0.81111
USER: genes 15 Torsion [N]-CA--C-[N] |==|  0.18626
USER: genes 16 Torsion [C]-N--CA-[CB] |==|  0.51859
USER: genes 17 Torsion [N]-CA--CB-[CG] |==|  0.37915
USER: genes 18 Torsion [CA]-CB--CG-[CD] |==|  0.39539
USER: genes 19 Torsion [CB]-CG--CD-[OE1] |==|  0.31588
USER: genes 20 Torsion [N]-CA--C-[O] |==|  0.87025
USER: genes 21 Torsion [N]-CA--CB-[CG] |==|  0.79286
USER: genes 22 Torsion [CA]-CB--CG-[CD] |==|  0.19572
USER: genes 23 Torsion [CB]-CG--CD-[CE] |==|  0.55669
USER: genes 24 Torsion [CG]-CD--CE-[NZ] |==|  0.41890
USER: genes 25 Torsion [CD]-CE--NZ-[HZ2] |==|  0.92184
ROOT
ATOM      1  CA  THR D   3      15.948  16.091 147.996  1.00 39.79 LIG 0.20  C 
ENDROOT
BRANCH 1 2
ATOM      2  N   THR D   3      14.576  15.628 147.798  1.00 34.46 LIG-0.34  N 
ATOM      3  C   ARG D   2      14.306  14.392 147.377  1.00 39.53 LIG 0.24  C 
ATOM      4 O    ARG D   2      15.184  13.607 147.012  1.00 39.08 LIG-0.27  OA
ATOM      5 H    THR D   3      13.974  16.216 147.976  1.00 34.46 LIG 0.16  HD
BRANCH 3 6
ATOM      6  CA  ARG D   2      12.830  13.974 147.342  1.00 42.24 LIG 0.18  C 
BRANCH 6 7
ATOM      7  CB  ARG D   2      12.291  13.782 148.761  1.00 49.82 LIG 0.04  C 
BRANCH 7 8
ATOM      8  CG  ARG D   2      11.257  12.682 148.950  1.00 55.24 LIG 0.02  C 
BRANCH 8 9
ATOM      9  CD  ARG D   2      10.624  12.786 150.347  1.00 55.63 LIG 0.14  C 
BRANCH 9 10
ATOM     10  NE  ARG D   2      10.722  11.541 151.111  1.00 65.78 LIG-0.23  N 
ATOM     11 HE   ARG D   2      11.172  11.558 151.843  1.00 65.78 LIG 0.18  HD
ATOM     12  CZ  ARG D   2      10.166  10.385 150.756  1.00 70.57 LIG 0.67  C 
ATOM     13  NH1 ARG D   2       9.466  10.293 149.634  1.00 66.11 LIG-0.23  N 
ATOM     14  NH2 ARG D   2      10.315   9.312 151.523  1.00 74.94 LIG-0.23  N 
ATOM     15 1HH1 ARG D   2       9.368  10.983 149.131  1.00 66.11 LIG 0.17  HD
ATOM     16 2HH1 ARG D   2       9.109   9.543 149.410  1.00 66.11 LIG 0.17  HD
ATOM     17 2HH2 ARG D   2       9.955   8.566 151.292  1.00 74.94 LIG 0.17  HD
ATOM     18 1HH2 ARG D   2      10.771   9.363 152.250  1.00 74.94 LIG 0.17  HD
ENDBRANCH 9 10
ENDBRANCH 8 9
ENDBRANCH 7 8
ENDBRANCH 6 7
BRANCH 6 19
ATOM     19  N   ARG D   2      12.687  12.714 146.618  1.00 42.84 LIG-0.35  N 
ATOM     20  C   ALA D   1      12.626  12.659 145.298  1.00 44.74 LIG 0.25  C 
ATOM     21 O    ALA D   1      12.607  13.664 144.591  1.00 48.31 LIG-0.27  OA
ATOM     22 H    ARG D   2      12.646  12.021 147.125  1.00 42.84 LIG 0.16  HD
BRANCH 20 23
ATOM     23  CA  ALA D   1      12.565  11.258 144.687  1.00 45.19 LIG 0.27  C 
ATOM     24  CB  ALA D   1      12.967  11.301 143.230  1.00 43.32 LIG 0.05  C 
BRANCH 23 25
ATOM     25  N   ALA D   1      11.233  10.695 144.823  1.00 39.75 LIG-0.07  N 
ATOM     26 H1   ALA D   1      11.163   9.970 144.312  1.00 39.75 LIG 0.28  HD
ATOM     27 H2   ALA D   1      11.090  10.472 145.673  1.00 39.75 LIG 0.28  HD
ATOM     28 H3   ALA D   1      10.628  11.296 144.569  1.00 39.75 LIG 0.28  HD
ENDBRANCH 23 25
ENDBRANCH 20 23
ENDBRANCH 6 19
ENDBRANCH 3 6
ENDBRANCH 1 2
BRANCH 1 29
ATOM     29  CB  THR D   3      16.568  16.647 146.694  1.00 46.90 LIG 0.15  C 
ATOM     30  CG2 THR D   3      17.314  15.560 145.942  1.00 44.81 LIG 0.04  C 
BRANCH 29 31
ATOM     31 OG1  THR D   3      15.532  17.168 145.852  1.00 48.09 LIG-0.39  OA
ATOM     32 HG1  THR D   3      15.403  17.979 146.034  1.00 48.09 LIG 0.21  HD
ENDBRANCH 29 31
ENDBRANCH 1 29
BRANCH 1 33
ATOM     33  C   THR D   3      15.995  17.188 149.059  1.00 42.40 LIG 0.24  C 
ATOM     34 O    THR D   3      15.040  17.377 149.819  1.00 40.34 LIG-0.27  OA
ATOM     35  N   LYS D   4      17.049  17.957 149.105  1.00 38.45 LIG-0.35  N 
ATOM     36 H    LYS D   4      17.755  17.849 148.626  1.00 38.45 LIG 0.16  HD
BRANCH 35 37
ATOM     37  CA  LYS D   4      17.086  19.081 150.006  1.00 37.56 LIG 0.18  C 
BRANCH 37 38
ATOM     38  C   LYS D   4      16.861  18.627 151.441  1.00 44.28 LIG 0.24  C 
ATOM     39 O    LYS D   4      15.869  18.933 151.986  1.00 49.08 LIG-0.27  OA
ATOM     40  N   GLN D   5      17.810  17.878 151.977  1.00 53.59 LIG-0.35  N 
ATOM     41 H    GLN D   5      18.352  17.471 151.448  1.00 53.59 LIG 0.16  HD
BRANCH 40 42
ATOM     42  CA  GLN D   5      18.176  17.560 153.387  1.00 61.39 LIG 0.16  C 
BRANCH 42 43
ATOM     43  CB  GLN D   5      19.471  16.756 153.575  1.00 20.00 LIG 0.04  C 
BRANCH 43 44
ATOM     44  CG  GLN D   5      20.358  17.285 154.727  1.00 20.00 LIG 0.10  C 
BRANCH 44 45
ATOM     45  CD  GLN D   5      21.082  16.231 155.565  1.00 20.00 LIG 0.21  C 
ATOM     46  NE2 GLN D   5      20.308  15.414 156.270  1.00 20.00 LIG-0.37  N 
ATOM     47 21HE GLN D   5      19.454  15.511 156.254  1.00 20.00 LIG 0.16  HD
ATOM     48 22HE GLN D   5      20.662  14.790 156.743  1.00 20.00 LIG 0.16  HD
ATOM     49 OE1  GLN D   5      22.312  16.133 155.556  1.00 20.00 LIG-0.27  OA
ENDBRANCH 44 45
ENDBRANCH 43 44
ENDBRANCH 42 43
BRANCH 42 50
ATOM     50  C   GLN D   5      18.003  18.532 154.529  1.00 64.61 LIG 0.22  C 
ATOM     51 O    GLN D   5      18.361  19.669 154.430  1.00 68.60 LIG-0.29  OA
ENDBRANCH 42 50
ENDBRANCH 40 42
ENDBRANCH 37 38
BRANCH 37 52
ATOM     52  CB  LYS D   4      16.091  20.134 149.568  1.00 33.42 LIG 0.04  C 
BRANCH 52 53
ATOM     53  CG  LYS D   4      16.501  20.900 148.398  1.00 40.53 LIG 0.00  C 
BRANCH 53 54
ATOM     54  CD  LYS D   4      16.453  20.068 147.229  1.00 50.17 LIG 0.03  C 
BRANCH 54 55
ATOM     55  CE  LYS D   4      17.305  20.622 146.122  1.00 57.03 LIG 0.23  C 
BRANCH 55 56
ATOM     56  NZ  LYS D   4      17.775  19.499 145.313  1.00 52.11 LIG-0.08  N 
ATOM     57 HZ3  LYS D   4      17.206  19.356 144.644  1.00 52.11 LIG 0.27  HD
ATOM     58 HZ2  LYS D   4      17.827  18.769 145.819  1.00 52.11 LIG 0.27  HD
ATOM     59 HZ1  LYS D   4      18.579  19.688 144.982  1.00 52.11 LIG 0.27  HD
ENDBRANCH 55 56
ENDBRANCH 54 55
ENDBRANCH 53 54
ENDBRANCH 52 53
ENDBRANCH 37 52
ENDBRANCH 35 37
ENDBRANCH 1 33
TORSDOF 24
ENDMDL
MODEL 7
USER: ADFR SOLUTION from run 185
USER: SCORE 19.240300 LL:  -2.345 LR: -18.024 RR:   0.000 FEB: -10.865
USER: RMSD 6.132070
USER: SEED 184
USER: STATUS no improvement in best in 7 clusters for 5 generations
USER: GENES 26
USER: genes 0 Translation |==|  0.54769 0.46907 0.52498
USER: genes 1 Rotation |==|  0.43947 0.44230 0.72012 0.94108
USER: genes 2 Torsion [CB]-CA--N-[C] |==|  0.84721
USER: genes 3 Torsion [N]-C--CA-[N] |==|  0.47643
USER: genes 4 Torsion [C]-CA--CB-[CG] |==|  0.75789
USER: genes 5 Torsion [CA]-CB--CG-[CD] |==|  0.64391
USER: genes 6 Torsion [CB]-CG--CD-[NE] |==|  0.46714
USER: genes 7 Torsion [CG]-CD--NE-[HE] |==|  0.26556
USER: genes 8 Torsion [C]-CA--N-[C] |==|  0.55514
USER: genes 9 Torsion [N]-C--CA-[N] |==|  0.53242
USER: genes 10 Torsion [C]-CA--N-[H1] |==|  0.25697
USER: genes 11 Torsion [N]-CA--CB-[CG2] |==|  0.43724
USER: genes 12 Torsion [CA]-CB--OG1-[HG1] |==|  0.83449
USER: genes 13 Torsion [N]-CA--C-[N] |==|  0.34268
USER: genes 14 Torsion [C]-N--CA-[CB] |==|  0.18239
USER: genes 15 Torsion [N]-CA--C-[N] |==|  0.90289
USER: genes 16 Torsion [C]-N--CA-[CB] |==|  0.60825
USER: genes 17 Torsion [N]-CA--CB-[CG] |==|  0.43888
USER: genes 18 Torsion [CA]-CB--CG-[CD] |==|  0.28353
USER: genes 19 Torsion [CB]-CG--CD-[OE1] |==|  0.37776
USER: genes 20 Torsion [N]-CA--C-[O] |==|  0.89499
USER: genes 21 Torsion [N]-CA--CB-[CG] |==|  0.30187
USER: genes 22 Torsion [CA]-CB--CG-[CD] |==|  0.36496
USER: genes 23 Torsion [CB]-CG--CD-[CE] |==|  0.17566
USER: genes 24 Torsion [CG]-CD--CE-[NZ] |==|  0.24741
USER: genes 25 Torsion [CD]-CE--NZ-[HZ2] |==|  0.45727
ROOT
ATOM      1  CA  THR D   3      16.084  16.022 149.090  1.00 39.79 LIG 0.20  C 
ENDROOT
BRANCH 1 2
ATOM      2  N   THR D   3      15.692  14.784 148.419  1.00 34.46 LIG-0.34  N 
ATOM      3  C   ARG D   2      14.558  14.690 147.725  1.00 39.53 LIG 0.24  C 
ATOM      4 O    ARG D   2      13.714  15.588 147.705  1.00 39.08 LIG-0.27  OA
ATOM      5 H    THR D   3      16.251  14.137 148.514  1.00 34.46 LIG 0.16  HD
BRANCH 3 6
ATOM      6  CA  ARG D   2      14.320  13.387 146.950  1.00 42.24 LIG 0.18  C 
BRANCH 6 7
ATOM      7  CB  ARG D   2      15.301  13.272 145.780  1.00 49.82 LIG 0.04  C 
BRANCH 7 8
ATOM      8  CG  ARG D   2      14.876  13.922 144.472  1.00 55.24 LIG 0.02  C 
BRANCH 8 9
ATOM      9  CD  ARG D   2      14.995  12.914 143.318  1.00 55.63 LIG 0.14  C 
BRANCH 9 10
ATOM     10  NE  ARG D   2      14.348  13.377 142.089  1.00 65.78 LIG-0.23  N 
ATOM     11 HE   ARG D   2      14.841  13.766 141.502  1.00 65.78 LIG 0.18  HD
ATOM     12  CZ  ARG D   2      13.053  13.240 141.813  1.00 70.57 LIG 0.67  C 
ATOM     13  NH1 ARG D   2      12.239  12.655 142.680  1.00 66.11 LIG-0.23  N 
ATOM     14  NH2 ARG D   2      12.566  13.695 140.665  1.00 74.94 LIG-0.23  N 
ATOM     15 1HH1 ARG D   2      12.546  12.361 143.427  1.00 66.11 LIG 0.17  HD
ATOM     16 2HH1 ARG D   2      11.404  12.570 142.496  1.00 66.11 LIG 0.17  HD
ATOM     17 2HH2 ARG D   2      11.729  13.606 140.488  1.00 74.94 LIG 0.17  HD
ATOM     18 1HH2 ARG D   2      13.087  14.079 140.099  1.00 74.94 LIG 0.17  HD
ENDBRANCH 9 10
ENDBRANCH 8 9
ENDBRANCH 7 8
ENDBRANCH 6 7
BRANCH 6 19
ATOM     19  N   ARG D   2      12.961  13.366 146.417  1.00 42.84 LIG-0.35  N 
ATOM     20  C   ALA D   1      12.363  12.244 146.050  1.00 44.74 LIG 0.25  C 
ATOM     21 O    ALA D   1      12.929  11.155 146.059  1.00 48.31 LIG-0.27  OA
ATOM     22 H    ARG D   2      12.592  14.141 146.364  1.00 42.84 LIG 0.16  HD
BRANCH 20 23
ATOM     23  CA  ALA D   1      10.908  12.379 145.596  1.00 45.19 LIG 0.27  C 
ATOM     24  CB  ALA D   1      10.133  13.248 146.561  1.00 43.32 LIG 0.05  C 
BRANCH 23 25
ATOM     25  N   ALA D   1      10.282  11.073 145.485  1.00 39.75 LIG-0.07  N 
ATOM     26 H1   ALA D   1       9.877  10.871 146.251  1.00 39.75 LIG 0.28  HD
ATOM     27 H2   ALA D   1       9.681  11.087 144.828  1.00 39.75 LIG 0.28  HD
ATOM     28 H3   ALA D   1      10.901  10.460 145.307  1.00 39.75 LIG 0.28  HD
ENDBRANCH 23 25
ENDBRANCH 20 23
ENDBRANCH 6 19
ENDBRANCH 3 6
ENDBRANCH 1 2
BRANCH 1 29
ATOM     29  CB  THR D   3      16.119  17.224 148.119  1.00 46.90 LIG 0.15  C 
ATOM     30  CG2 THR D   3      15.975  18.534 148.871  1.00 44.81 LIG 0.04  C 
BRANCH 29 31
ATOM     31 OG1  THR D   3      17.362  17.231 147.405  1.00 48.09 LIG-0.39  OA
ATOM     32 HG1  THR D   3      17.999  17.289 147.950  1.00 48.09 LIG 0.21  HD
ENDBRANCH 29 31
ENDBRANCH 1 29
BRANCH 1 33
ATOM     33  C   THR D   3      15.114  16.347 150.225  1.00 42.40 LIG 0.24  C 
ATOM     34 O    THR D   3      13.910  16.515 150.003  1.00 40.34 LIG-0.27  OA
ATOM     35  N   LYS D   4      15.600  16.496 151.427  1.00 38.45 LIG-0.35  N 
ATOM     36 H    LYS D   4      16.420  16.357 151.645  1.00 38.45 LIG 0.16  HD
BRANCH 35 37
ATOM     37  CA  LYS D   4      14.745  16.924 152.506  1.00 37.56 LIG 0.18  C 
BRANCH 37 38
ATOM     38  C   LYS D   4      15.568  17.282 153.734  1.00 44.28 LIG 0.24  C 
ATOM     39 O    LYS D   4      15.200  18.148 154.434  1.00 49.08 LIG-0.27  OA
ATOM     40  N   GLN D   5      16.654  16.559 153.947  1.00 53.59 LIG-0.35  N 
ATOM     41 H    GLN D   5      16.707  15.788 153.569  1.00 53.59 LIG 0.16  HD
BRANCH 40 42
ATOM     42  CA  GLN D   5      17.890  16.794 154.747  1.00 61.39 LIG 0.16  C 
BRANCH 42 43
ATOM     43  CB  GLN D   5      19.199  16.304 154.112  1.00 20.00 LIG 0.04  C 
BRANCH 43 44
ATOM     44  CG  GLN D   5      20.455  17.015 154.671  1.00 20.00 LIG 0.10  C 
BRANCH 44 45
ATOM     45  CD  GLN D   5      21.281  16.232 155.692  1.00 20.00 LIG 0.21  C 
ATOM     46  NE2 GLN D   5      20.592  15.571 156.614  1.00 20.00 LIG-0.37  N 
ATOM     47 21HE GLN D   5      19.733  15.616 156.624  1.00 20.00 LIG 0.16  HD
ATOM     48 22HE GLN D   5      21.004  15.097 157.201  1.00 20.00 LIG 0.16  HD
ATOM     49 OE1  GLN D   5      22.512  16.199 155.636  1.00 20.00 LIG-0.27  OA
ENDBRANCH 44 45
ENDBRANCH 43 44
ENDBRANCH 42 43
BRANCH 42 50
ATOM     50  C   GLN D   5      18.141  18.058 155.534  1.00 64.61 LIG 0.22  C 
ATOM     51 O    GLN D   5      17.804  19.125 155.111  1.00 68.60 LIG-0.29  OA
ENDBRANCH 42 50
ENDBRANCH 40 42
ENDBRANCH 37 38
BRANCH 37 52
ATOM     52  CB  LYS D   4      13.701  15.867 152.794  1.00 33.42 LIG 0.04  C 
BRANCH 52 53
ATOM     53  CG  LYS D   4      13.900  15.149 154.047  1.00 40.53 LIG 0.00  C 
BRANCH 53 54
ATOM     54  CD  LYS D   4      12.670  15.112 154.787  1.00 50.17 LIG 0.03  C 
BRANCH 54 55
ATOM     55  CE  LYS D   4      11.605  14.352 154.049  1.00 57.03 LIG 0.23  C 
BRANCH 55 56
ATOM     56  NZ  LYS D   4      11.710  12.945 154.432  1.00 52.11 LIG-0.08  N 
ATOM     57 HZ3  LYS D   4      12.411  12.578 154.024  1.00 52.11 LIG 0.27  HD
ATOM     58 HZ2  LYS D   4      10.969  12.516 154.192  1.00 52.11 LIG 0.27  HD
ATOM     59 HZ1  LYS D   4      11.816  12.885 155.314  1.00 52.11 LIG 0.27  HD
ENDBRANCH 55 56
ENDBRANCH 54 55
ENDBRANCH 53 54
ENDBRANCH 52 53
ENDBRANCH 37 52
ENDBRANCH 35 37
ENDBRANCH 1 33
TORSDOF 24
ENDMDL
MODEL 8
USER: ADFR SOLUTION from run 45
USER: SCORE 18.324534 LL:  -2.813 LR: -17.950 RR:   0.000 FEB: -10.791
USER: RMSD 6.252279
USER: SEED 44
USER: STATUS no improvement in best in 5 clusters for 5 generations
USER: GENES 26
USER: genes 0 Translation |==|  0.39904 0.26812 0.33678
USER: genes 1 Rotation |==|  0.41520 0.73297 0.38752 0.91938
USER: genes 2 Torsion [CB]-CA--N-[C] |==|  0.56728
USER: genes 3 Torsion [N]-C--CA-[N] |==|  0.13153
USER: genes 4 Torsion [C]-CA--CB-[CG] |==|  0.72386
USER: genes 5 Torsion [CA]-CB--CG-[CD] |==|  0.27351
USER: genes 6 Torsion [CB]-CG--CD-[NE] |==|  0.40685
USER: genes 7 Torsion [CG]-CD--NE-[HE] |==|  0.67926
USER: genes 8 Torsion [C]-CA--N-[C] |==|  0.76285
USER: genes 9 Torsion [N]-C--CA-[N] |==|  0.77228
USER: genes 10 Torsion [C]-CA--N-[H1] |==|  0.00806
USER: genes 11 Torsion [N]-CA--CB-[CG2] |==|  0.41365
USER: genes 12 Torsion [CA]-CB--OG1-[HG1] |==|  0.39570
USER: genes 13 Torsion [N]-CA--C-[N] |==|  0.88569
USER: genes 14 Torsion [C]-N--CA-[CB] |==|  0.27172
USER: genes 15 Torsion [N]-CA--C-[N] |==|  0.44857
USER: genes 16 Torsion [C]-N--CA-[CB] |==|  0.36497
USER: genes 17 Torsion [N]-CA--CB-[CG] |==|  0.20877
USER: genes 18 Torsion [CA]-CB--CG-[CD] |==|  0.42669
USER: genes 19 Torsion [CB]-CG--CD-[OE1] |==|  0.77170
USER: genes 20 Torsion [N]-CA--C-[O] |==|  0.00639
USER: genes 21 Torsion [N]-CA--CB-[CG] |==|  0.35209
USER: genes 22 Torsion [CA]-CB--CG-[CD] |==|  0.73031
USER: genes 23 Torsion [CB]-CG--CD-[CE] |==|  0.65051
USER: genes 24 Torsion [CG]-CD--CE-[NZ] |==|  0.95740
USER: genes 25 Torsion [CD]-CE--NZ-[HZ2] |==|  0.17943
ROOT
ATOM      1  CA  THR D   3      13.297  11.652 144.714  1.00 39.79 LIG 0.20  C 
ENDROOT
BRANCH 1 2
ATOM      2  N   THR D   3      12.092  12.112 145.402  1.00 34.46 LIG-0.34  N 
ATOM      3  C   ARG D   2      12.094  12.407 146.701  1.00 39.53 LIG 0.24  C 
ATOM      4 O    ARG D   2      13.067  12.196 147.430  1.00 39.08 LIG-0.27  OA
ATOM      5 H    THR D   3      11.397  12.172 144.897  1.00 34.46 LIG 0.16  HD
BRANCH 3 6
ATOM      6  CA  ARG D   2      10.809  13.013 147.282  1.00 42.24 LIG 0.18  C 
BRANCH 6 7
ATOM      7  CB  ARG D   2      10.850  12.996 148.812  1.00 49.82 LIG 0.04  C 
BRANCH 7 8
ATOM      8  CG  ARG D   2      10.095  11.868 149.498  1.00 55.24 LIG 0.02  C 
BRANCH 8 9
ATOM      9  CD  ARG D   2      11.066  10.741 149.885  1.00 55.63 LIG 0.14  C 
BRANCH 9 10
ATOM     10  NE  ARG D   2      10.685  10.063 151.125  1.00 65.78 LIG-0.23  N 
ATOM     11 HE   ARG D   2      11.219  10.130 151.796  1.00 65.78 LIG 0.18  HD
ATOM     12  CZ  ARG D   2       9.574   9.349 151.292  1.00 70.57 LIG 0.67  C 
ATOM     13  NH1 ARG D   2       8.715   9.200 150.293  1.00 66.11 LIG-0.23  N 
ATOM     14  NH2 ARG D   2       9.322   8.773 152.461  1.00 74.94 LIG-0.23  N 
ATOM     15 1HH1 ARG D   2       8.873   9.567 149.532  1.00 66.11 LIG 0.17  HD
ATOM     16 2HH1 ARG D   2       7.999   8.738 150.407  1.00 66.11 LIG 0.17  HD
ATOM     17 2HH2 ARG D   2       8.604   8.311 152.566  1.00 74.94 LIG 0.17  HD
ATOM     18 1HH2 ARG D   2       9.877   8.861 153.112  1.00 74.94 LIG 0.17  HD
ENDBRANCH 9 10
ENDBRANCH 8 9
ENDBRANCH 7 8
ENDBRANCH 6 7
BRANCH 6 19
ATOM     19  N   ARG D   2       9.651  12.240 146.842  1.00 42.84 LIG-0.35  N 
ATOM     20  C   ALA D   1       9.048  12.464 145.686  1.00 44.74 LIG 0.25  C 
ATOM     21 O    ALA D   1       9.368  13.384 144.938  1.00 48.31 LIG-0.27  OA
ATOM     22 H    ARG D   2       9.403  11.633 147.398  1.00 42.84 LIG 0.16  HD
BRANCH 20 23
ATOM     23  CA  ALA D   1       7.906  11.511 145.331  1.00 45.19 LIG 0.27  C 
ATOM     24  CB  ALA D   1       7.073  11.208 146.556  1.00 43.32 LIG 0.05  C 
BRANCH 23 25
ATOM     25  N   ALA D   1       8.423  10.280 144.759  1.00 39.75 LIG-0.07  N 
ATOM     26 H1   ALA D   1       9.313  10.300 144.765  1.00 39.75 LIG 0.28  HD
ATOM     27 H2   ALA D   1       8.140   9.587 145.241  1.00 39.75 LIG 0.28  HD
ATOM     28 H3   ALA D   1       8.134  10.196 143.922  1.00 39.75 LIG 0.28  HD
ENDBRANCH 23 25
ENDBRANCH 20 23
ENDBRANCH 6 19
ENDBRANCH 3 6
ENDBRANCH 1 2
BRANCH 1 29
ATOM     29  CB  THR D   3      13.247  11.939 143.196  1.00 46.90 LIG 0.15  C 
ATOM     30  CG2 THR D   3      14.639  12.188 142.646  1.00 44.81 LIG 0.04  C 
BRANCH 29 31
ATOM     31 OG1  THR D   3      12.668  10.820 142.513  1.00 48.09 LIG-0.39  OA
ATOM     32 HG1  THR D   3      12.185  11.095 141.883  1.00 48.09 LIG 0.21  HD
ENDBRANCH 29 31
ENDBRANCH 1 29
BRANCH 1 33
ATOM     33  C   THR D   3      14.537  12.332 145.293  1.00 42.40 LIG 0.24  C 
ATOM     34 O    THR D   3      15.563  11.687 145.532  1.00 40.34 LIG-0.27  OA
ATOM     35  N   LYS D   4      14.464  13.603 145.582  1.00 38.45 LIG-0.35  N 
ATOM     36 H    LYS D   4      13.790  14.108 145.405  1.00 38.45 LIG 0.16  HD
BRANCH 35 37
ATOM     37  CA  LYS D   4      15.564  14.259 146.244  1.00 37.56 LIG 0.18  C 
BRANCH 37 38
ATOM     38  C   LYS D   4      15.056  15.184 147.340  1.00 44.28 LIG 0.24  C 
ATOM     39 O    LYS D   4      13.928  15.506 147.337  1.00 49.08 LIG-0.27  OA
ATOM     40  N   GLN D   5      15.935  15.548 148.257  1.00 53.59 LIG-0.35  N 
ATOM     41 H    GLN D   5      16.641  15.066 148.355  1.00 53.59 LIG 0.16  HD
BRANCH 40 42
ATOM     42  CA  GLN D   5      15.983  16.682 149.225  1.00 61.39 LIG 0.16  C 
BRANCH 42 43
ATOM     43  CB  GLN D   5      16.313  16.307 150.677  1.00 20.00 LIG 0.04  C 
BRANCH 43 44
ATOM     44  CG  GLN D   5      17.809  15.974 150.897  1.00 20.00 LIG 0.10  C 
BRANCH 44 45
ATOM     45  CD  GLN D   5      18.354  16.201 152.308  1.00 20.00 LIG 0.21  C 
ATOM     46  NE2 GLN D   5      18.449  15.122 153.076  1.00 20.00 LIG-0.37  N 
ATOM     47 21HE GLN D   5      18.191  14.358 152.778  1.00 20.00 LIG 0.16  HD
ATOM     48 22HE GLN D   5      18.767  15.188 153.871  1.00 20.00 LIG 0.16  HD
ATOM     49 OE1  GLN D   5      18.709  17.318 152.690  1.00 20.00 LIG-0.27  OA
ENDBRANCH 44 45
ENDBRANCH 43 44
ENDBRANCH 42 43
BRANCH 42 50
ATOM     50  C   GLN D   5      16.574  18.031 148.894  1.00 64.61 LIG 0.22  C 
ATOM     51 O    GLN D   5      17.003  18.265 147.802  1.00 68.60 LIG-0.29  OA
ENDBRANCH 42 50
ENDBRANCH 40 42
ENDBRANCH 37 38
BRANCH 37 52
ATOM     52  CB  LYS D   4      16.427  14.979 145.231  1.00 33.42 LIG 0.04  C 
BRANCH 52 53
ATOM     53  CG  LYS D   4      16.658  16.387 145.527  1.00 40.53 LIG 0.00  C 
BRANCH 53 54
ATOM     54  CD  LYS D   4      15.733  17.199 144.787  1.00 50.17 LIG 0.03  C 
BRANCH 54 55
ATOM     55  CE  LYS D   4      16.443  18.243 143.973  1.00 57.03 LIG 0.23  C 
BRANCH 55 56
ATOM     56  NZ  LYS D   4      17.815  18.342 144.470  1.00 52.11 LIG-0.08  N 
ATOM     57 HZ3  LYS D   4      18.237  19.002 144.048  1.00 52.11 LIG 0.27  HD
ATOM     58 HZ2  LYS D   4      18.240  17.574 144.322  1.00 52.11 LIG 0.27  HD
ATOM     59 HZ1  LYS D   4      17.803  18.510 145.344  1.00 52.11 LIG 0.27  HD
ENDBRANCH 55 56
ENDBRANCH 54 55
ENDBRANCH 53 54
ENDBRANCH 52 53
ENDBRANCH 37 52
ENDBRANCH 35 37
ENDBRANCH 1 33
TORSDOF 24
ENDMDL
MODEL 9
USER: ADFR SOLUTION from run 23
USER: SCORE 18.276485 LL:  -2.293 LR: -17.935 RR:   0.000 FEB: -10.776
USER: RMSD 5.473940
USER: SEED 22
USER: STATUS no improvement in best in 10 clusters for 5 generations
USER: GENES 26
USER: genes 0 Translation |==|  0.56245 0.42012 0.40573
USER: genes 1 Rotation |==|  0.38556 0.49778 0.51028 0.98661
USER: genes 2 Torsion [CB]-CA--N-[C] |==|  0.49478
USER: genes 3 Torsion [N]-C--CA-[N] |==|  0.10484
USER: genes 4 Torsion [C]-CA--CB-[CG] |==|  0.37575
USER: genes 5 Torsion [CA]-CB--CG-[CD] |==|  0.66795
USER: genes 6 Torsion [CB]-CG--CD-[NE] |==|  0.77063
USER: genes 7 Torsion [CG]-CD--NE-[HE] |==|  0.93506
USER: genes 8 Torsion [C]-CA--N-[C] |==|  0.15713
USER: genes 9 Torsion [N]-C--CA-[N] |==|  0.91179
USER: genes 10 Torsion [C]-CA--N-[H1] |==|  0.30668
USER: genes 11 Torsion [N]-CA--CB-[CG2] |==|  0.21333
USER: genes 12 Torsion [CA]-CB--OG1-[HG1] |==|  0.59227
USER: genes 13 Torsion [N]-CA--C-[N] |==|  0.51686
USER: genes 14 Torsion [C]-N--CA-[CB] |==|  0.83889
USER: genes 15 Torsion [N]-CA--C-[N] |==|  0.21479
USER: genes 16 Torsion [C]-N--CA-[CB] |==|  0.53883
USER: genes 17 Torsion [N]-CA--CB-[CG] |==|  0.67243
USER: genes 18 Torsion [CA]-CB--CG-[CD] |==|  0.66440
USER: genes 19 Torsion [CB]-CG--CD-[OE1] |==|  0.19965
USER: genes 20 Torsion [N]-CA--C-[O] |==|  0.06652
USER: genes 21 Torsion [N]-CA--CB-[CG] |==|  0.76470
USER: genes 22 Torsion [CA]-CB--CG-[CD] |==|  0.36164
USER: genes 23 Torsion [CB]-CG--CD-[CE] |==|  0.53247
USER: genes 24 Torsion [CG]-CD--CE-[NZ] |==|  0.18281
USER: genes 25 Torsion [CD]-CE--NZ-[HZ2] |==|  0.05625
ROOT
ATOM      1  CA  THR D   3      16.361  14.958 146.317  1.00 39.79 LIG 0.20  C 
ENDROOT
BRANCH 1 2
ATOM      2  N   THR D   3      15.091  14.420 145.833  1.00 34.46 LIG-0.34  N 
ATOM      3  C   ARG D   2      14.209  13.853 146.656  1.00 39.53 LIG 0.24  C 
ATOM      4 O    ARG D   2      14.453  13.634 147.844  1.00 39.08 LIG-0.27  OA
ATOM      5 H    THR D   3      14.971  14.503 144.985  1.00 34.46 LIG 0.16  HD
BRANCH 3 6
ATOM      6  CA  ARG D   2      12.853  13.453 146.058  1.00 42.24 LIG 0.18  C 
BRANCH 6 7
ATOM      7  CB  ARG D   2      12.194  12.361 146.904  1.00 49.82 LIG 0.04  C 
BRANCH 7 8
ATOM      8  CG  ARG D   2      10.713  12.539 147.205  1.00 55.24 LIG 0.02  C 
BRANCH 8 9
ATOM      9  CD  ARG D   2      10.490  12.627 148.723  1.00 55.63 LIG 0.14  C 
BRANCH 9 10
ATOM     10  NE  ARG D   2      10.431  11.314 149.367  1.00 65.78 LIG-0.23  N 
ATOM     11 HE   ARG D   2      10.214  10.640 148.879  1.00 65.78 LIG 0.18  HD
ATOM     12  CZ  ARG D   2      10.688  11.085 150.653  1.00 70.57 LIG 0.67  C 
ATOM     13  NH1 ARG D   2      11.020  12.083 151.460  1.00 66.11 LIG-0.23  N 
ATOM     14  NH2 ARG D   2      10.606   9.853 151.139  1.00 74.94 LIG-0.23  N 
ATOM     15 1HH1 ARG D   2      11.071  12.885 151.153  1.00 66.11 LIG 0.17  HD
ATOM     16 2HH1 ARG D   2      11.185  11.929 152.290  1.00 66.11 LIG 0.17  HD
ATOM     17 2HH2 ARG D   2      10.772   9.707 151.970  1.00 74.94 LIG 0.17  HD
ATOM     18 1HH2 ARG D   2      10.387   9.201 150.623  1.00 74.94 LIG 0.17  HD
ENDBRANCH 9 10
ENDBRANCH 8 9
ENDBRANCH 7 8
ENDBRANCH 6 7
BRANCH 6 19
ATOM     19  N   ARG D   2      13.039  12.938 144.704  1.00 42.84 LIG-0.35  N 
ATOM     20  C   ALA D   1      13.840  11.920 144.438  1.00 44.74 LIG 0.25  C 
ATOM     21 O    ALA D   1      14.541  11.384 145.293  1.00 48.31 LIG-0.27  OA
ATOM     22 H    ARG D   2      12.585  13.355 144.105  1.00 42.84 LIG 0.16  HD
BRANCH 20 23
ATOM     23  CA  ALA D   1      13.858  11.443 142.984  1.00 45.19 LIG 0.27  C 
ATOM     24  CB  ALA D   1      14.927  12.175 142.204  1.00 43.32 LIG 0.05  C 
BRANCH 23 25
ATOM     25  N   ALA D   1      12.560  11.642 142.362  1.00 39.75 LIG-0.07  N 
ATOM     26 H1   ALA D   1      12.619  12.288 141.753  1.00 39.75 LIG 0.28  HD
ATOM     27 H2   ALA D   1      12.301  10.887 141.969  1.00 39.75 LIG 0.28  HD
ATOM     28 H3   ALA D   1      11.965  11.873 142.982  1.00 39.75 LIG 0.28  HD
ENDBRANCH 23 25
ENDBRANCH 20 23
ENDBRANCH 6 19
ENDBRANCH 3 6
ENDBRANCH 1 2
BRANCH 1 29
ATOM     29  CB  THR D   3      17.230  15.519 145.169  1.00 46.90 LIG 0.15  C 
ATOM     30  CG2 THR D   3      16.719  16.874 144.716  1.00 44.81 LIG 0.04  C 
BRANCH 29 31
ATOM     31 OG1  THR D   3      18.585  15.658 145.616  1.00 48.09 LIG-0.39  OA
ATOM     32 HG1  THR D   3      18.938  16.322 145.240  1.00 48.09 LIG 0.21  HD
ENDBRANCH 29 31
ENDBRANCH 1 29
BRANCH 1 33
ATOM     33  C   THR D   3      16.117  16.076 147.330  1.00 42.40 LIG 0.24  C 
ATOM     34 O    THR D   3      14.972  16.374 147.684  1.00 40.34 LIG-0.27  OA
ATOM     35  N   LYS D   4      17.149  16.744 147.769  1.00 38.45 LIG-0.35  N 
ATOM     36 H    LYS D   4      17.968  16.558 147.585  1.00 38.45 LIG 0.16  HD
BRANCH 35 37
ATOM     37  CA  LYS D   4      16.959  17.886 148.628  1.00 37.56 LIG 0.18  C 
BRANCH 37 38
ATOM     38  C   LYS D   4      16.399  17.456 149.976  1.00 44.28 LIG 0.24  C 
ATOM     39 O    LYS D   4      15.255  17.598 150.189  1.00 49.08 LIG-0.27  OA
ATOM     40  N   GLN D   5      17.257  16.916 150.825  1.00 53.59 LIG-0.35  N 
ATOM     41 H    GLN D   5      17.990  16.594 150.509  1.00 53.59 LIG 0.16  HD
BRANCH 40 42
ATOM     42  CA  GLN D   5      17.240  16.727 152.304  1.00 61.39 LIG 0.16  C 
BRANCH 42 43
ATOM     43  CB  GLN D   5      18.583  16.349 152.944  1.00 20.00 LIG 0.04  C 
BRANCH 43 44
ATOM     44  CG  GLN D   5      18.562  14.966 153.639  1.00 20.00 LIG 0.10  C 
BRANCH 44 45
ATOM     45  CD  GLN D   5      18.890  14.952 155.132  1.00 20.00 LIG 0.21  C 
ATOM     46  NE2 GLN D   5      20.082  14.470 155.463  1.00 20.00 LIG-0.37  N 
ATOM     47 21HE GLN D   5      20.609  14.170 154.853  1.00 20.00 LIG 0.16  HD
ATOM     48 22HE GLN D   5      20.327  14.457 156.286  1.00 20.00 LIG 0.16  HD
ATOM     49 OE1  GLN D   5      18.101  15.393 155.971  1.00 20.00 LIG-0.27  OA
ENDBRANCH 44 45
ENDBRANCH 43 44
ENDBRANCH 42 43
BRANCH 42 50
ATOM     50  C   GLN D   5      16.450  17.606 153.243  1.00 64.61 LIG 0.22  C 
ATOM     51 O    GLN D   5      15.492  18.212 152.862  1.00 68.60 LIG-0.29  OA
ENDBRANCH 42 50
ENDBRANCH 40 42
ENDBRANCH 37 38
BRANCH 37 52
ATOM     52  CB  LYS D   4      16.090  18.917 147.941  1.00 33.42 LIG 0.04  C 
BRANCH 52 53
ATOM     53  CG  LYS D   4      16.813  19.821 147.056  1.00 40.53 LIG 0.00  C 
BRANCH 53 54
ATOM     54  CD  LYS D   4      16.159  19.879 145.779  1.00 50.17 LIG 0.03  C 
BRANCH 54 55
ATOM     55  CE  LYS D   4      17.013  20.568 144.753  1.00 57.03 LIG 0.23  C 
BRANCH 55 56
ATOM     56  NZ  LYS D   4      18.194  19.738 144.521  1.00 52.11 LIG-0.08  N 
ATOM     57 HZ3  LYS D   4      18.392  19.738 143.653  1.00 52.11 LIG 0.27  HD
ATOM     58 HZ2  LYS D   4      18.028  18.905 144.788  1.00 52.11 LIG 0.27  HD
ATOM     59 HZ1  LYS D   4      18.882  20.065 144.982  1.00 52.11 LIG 0.27  HD
ENDBRANCH 55 56
ENDBRANCH 54 55
ENDBRANCH 53 54
ENDBRANCH 52 53
ENDBRANCH 37 52
ENDBRANCH 35 37
ENDBRANCH 1 33
TORSDOF 24
ENDMDL
MODEL 10
USER: ADFR SOLUTION from run 169
USER: SCORE 17.561065 LL:  -2.544 LR: -17.926 RR:   0.000 FEB: -10.767
USER: RMSD 2.353113
USER: SEED 168
USER: STATUS no improvement in best in 14 clusters for 5 generations
USER: GENES 26
USER: genes 0 Translation |==|  0.53297 0.46374 0.49459
USER: genes 1 Rotation |==|  0.51905 0.57684 0.54610 0.99154
USER: genes 2 Torsion [CB]-CA--N-[C] |==|  0.29997
USER: genes 3 Torsion [N]-C--CA-[N] |==|  0.49130
USER: genes 4 Torsion [C]-CA--CB-[CG] |==|  0.60002
USER: genes 5 Torsion [CA]-CB--CG-[CD] |==|  0.53101
USER: genes 6 Torsion [CB]-CG--CD-[NE] |==|  0.66434
USER: genes 7 Torsion [CG]-CD--NE-[HE] |==|  0.31545
USER: genes 8 Torsion [C]-CA--N-[C] |==|  0.78090
USER: genes 9 Torsion [N]-C--CA-[N] |==|  0.20486
USER: genes 10 Torsion [C]-CA--N-[H1] |==|  0.47390
USER: genes 11 Torsion [N]-CA--CB-[CG2] |==|  0.63736
USER: genes 12 Torsion [CA]-CB--OG1-[HG1] |==|  0.97733
USER: genes 13 Torsion [N]-CA--C-[N] |==|  0.40914
USER: genes 14 Torsion [C]-N--CA-[CB] |==|  0.47222
USER: genes 15 Torsion [N]-CA--C-[N] |==|  0.95334
USER: genes 16 Torsion [C]-N--CA-[CB] |==|  0.20826
USER: genes 17 Torsion [N]-CA--CB-[CG] |==|  0.36563
USER: genes 18 Torsion [CA]-CB--CG-[CD] |==|  0.53997
USER: genes 19 Torsion [CB]-CG--CD-[OE1] |==|  0.26891
USER: genes 20 Torsion [N]-CA--C-[O] |==|  0.84176
USER: genes 21 Torsion [N]-CA--CB-[CG] |==|  0.44665
USER: genes 22 Torsion [CA]-CB--CG-[CD] |==|  0.26911
USER: genes 23 Torsion [CB]-CG--CD-[CE] |==|  0.37981
USER: genes 24 Torsion [CG]-CD--CE-[NZ] |==|  0.68397
USER: genes 25 Torsion [CD]-CE--NZ-[HZ2] |==|  0.17668
ROOT
ATOM      1  CA  THR D   3      15.808  15.906 148.383  1.00 39.79 LIG 0.20  C 
ENDROOT
BRANCH 1 2
ATOM      2  N   THR D   3      14.436  15.475 148.124  1.00 34.46 LIG-0.34  N 
ATOM      3  C   ARG D   2      14.166  14.320 147.516  1.00 39.53 LIG 0.24  C 
ATOM      4 O    ARG D   2      15.043  13.606 147.025  1.00 39.08 LIG-0.27  OA
ATOM      5 H    THR D   3      13.834  16.026 148.397  1.00 34.46 LIG 0.16  HD
BRANCH 3 6
ATOM      6  CA  ARG D   2      12.690  13.907 147.425  1.00 42.24 LIG 0.18  C 
BRANCH 6 7
ATOM      7  CB  ARG D   2      12.107  13.684 148.823  1.00 49.82 LIG 0.04  C 
BRANCH 7 8
ATOM      8  CG  ARG D   2      11.092  12.559 148.962  1.00 55.24 LIG 0.02  C 
BRANCH 8 9
ATOM      9  CD  ARG D   2      10.401  12.639 150.332  1.00 55.63 LIG 0.14  C 
BRANCH 9 10
ATOM     10  NE  ARG D   2      10.587  11.428 151.135  1.00 65.78 LIG-0.23  N 
ATOM     11 HE   ARG D   2      11.053  11.495 151.854  1.00 65.78 LIG 0.18  HD
ATOM     12  CZ  ARG D   2      10.088  10.232 150.832  1.00 70.57 LIG 0.67  C 
ATOM     13  NH1 ARG D   2       9.368  10.062 149.733  1.00 66.11 LIG-0.23  N 
ATOM     14  NH2 ARG D   2      10.315   9.195 151.630  1.00 74.94 LIG-0.23  N 
ATOM     15 1HH1 ARG D   2       9.219  10.727 149.209  1.00 66.11 LIG 0.17  HD
ATOM     16 2HH1 ARG D   2       9.048   9.286 149.543  1.00 66.11 LIG 0.17  HD
ATOM     17 2HH2 ARG D   2       9.993   8.423 151.433  1.00 74.94 LIG 0.17  HD
ATOM     18 1HH2 ARG D   2      10.785   9.296 152.343  1.00 74.94 LIG 0.17  HD
ENDBRANCH 9 10
ENDBRANCH 8 9
ENDBRANCH 7 8
ENDBRANCH 6 7
BRANCH 6 19
ATOM     19  N   ARG D   2      12.567  12.664 146.669  1.00 42.84 LIG-0.35  N 
ATOM     20  C   ALA D   1      12.617  12.632 145.347  1.00 44.74 LIG 0.25  C 
ATOM     21 O    ALA D   1      12.694  13.648 144.661  1.00 48.31 LIG-0.27  OA
ATOM     22 H    ARG D   2      12.460  11.965 147.158  1.00 42.84 LIG 0.16  HD
BRANCH 20 23
ATOM     23  CA  ALA D   1      12.562  11.244 144.708  1.00 45.19 LIG 0.27  C 
ATOM     24  CB  ALA D   1      13.014  11.309 143.267  1.00 43.32 LIG 0.05  C 
BRANCH 23 25
ATOM     25  N   ALA D   1      11.219  10.695 144.787  1.00 39.75 LIG-0.07  N 
ATOM     26 H1   ALA D   1      11.171   9.954 144.296  1.00 39.75 LIG 0.28  HD
ATOM     27 H2   ALA D   1      11.027  10.501 145.634  1.00 39.75 LIG 0.28  HD
ATOM     28 H3   ALA D   1      10.635  11.292 144.480  1.00 39.75 LIG 0.28  HD
ENDBRANCH 23 25
ENDBRANCH 20 23
ENDBRANCH 6 19
ENDBRANCH 3 6
ENDBRANCH 1 2
BRANCH 1 29
ATOM     29  CB  THR D   3      16.232  17.077 147.468  1.00 46.90 LIG 0.15  C 
ATOM     30  CG2 THR D   3      17.571  16.795 146.812  1.00 44.81 LIG 0.04  C 
BRANCH 29 31
ATOM     31 OG1  THR D   3      15.245  17.272 146.447  1.00 48.09 LIG-0.39  OA
ATOM     32 HG1  THR D   3      14.686  16.645 146.474  1.00 48.09 LIG 0.21  HD
ENDBRANCH 29 31
ENDBRANCH 1 29
BRANCH 1 33
ATOM     33  C   THR D   3      15.965  16.350 149.837  1.00 42.40 LIG 0.24  C 
ATOM     34 O    THR D   3      15.048  16.931 150.427  1.00 40.34 LIG-0.27  OA
ATOM     35  N   LYS D   4      17.114  16.147 150.423  1.00 38.45 LIG-0.35  N 
ATOM     36 H    LYS D   4      17.772  15.718 150.074  1.00 38.45 LIG 0.16  HD
BRANCH 35 37
ATOM     37  CA  LYS D   4      17.350  16.658 151.750  1.00 37.56 LIG 0.18  C 
BRANCH 37 38
ATOM     38  C   LYS D   4      17.329  18.179 151.751  1.00 44.28 LIG 0.24  C 
ATOM     39 O    LYS D   4      17.230  18.746 152.773  1.00 49.08 LIG-0.27  OA
ATOM     40  N   GLN D   5      17.454  18.771 150.576  1.00 53.59 LIG-0.35  N 
ATOM     41 H    GLN D   5      17.796  18.318 149.929  1.00 53.59 LIG 0.16  HD
BRANCH 40 42
ATOM     42  CA  GLN D   5      17.112  20.137 150.085  1.00 61.39 LIG 0.16  C 
BRANCH 42 43
ATOM     43  CB  GLN D   5      18.054  21.263 150.536  1.00 20.00 LIG 0.04  C 
BRANCH 43 44
ATOM     44  CG  GLN D   5      18.511  22.179 149.376  1.00 20.00 LIG 0.10  C 
BRANCH 44 45
ATOM     45  CD  GLN D   5      19.697  23.099 149.665  1.00 20.00 LIG 0.21  C 
ATOM     46  NE2 GLN D   5      19.418  24.226 150.308  1.00 20.00 LIG-0.37  N 
ATOM     47 21HE GLN D   5      18.605  24.412 150.517  1.00 20.00 LIG 0.16  HD
ATOM     48 22HE GLN D   5      20.050  24.771 150.514  1.00 20.00 LIG 0.16  HD
ATOM     49 OE1  GLN D   5      20.847  22.790 149.343  1.00 20.00 LIG-0.27  OA
ENDBRANCH 44 45
ENDBRANCH 43 44
ENDBRANCH 42 43
BRANCH 42 50
ATOM     50  C   GLN D   5      16.606  20.415 148.690  1.00 64.61 LIG 0.22  C 
ATOM     51 O    GLN D   5      17.238  20.089 147.729  1.00 68.60 LIG-0.29  OA
ENDBRANCH 42 50
ENDBRANCH 40 42
ENDBRANCH 37 38
BRANCH 37 52
ATOM     52  CB  LYS D   4      18.640  16.094 152.304  1.00 33.42 LIG 0.04  C 
BRANCH 52 53
ATOM     53  CG  LYS D   4      19.201  16.850 153.416  1.00 40.53 LIG 0.00  C 
BRANCH 53 54
ATOM     54  CD  LYS D   4      18.813  16.247 154.660  1.00 50.17 LIG 0.03  C 
BRANCH 54 55
ATOM     55  CE  LYS D   4      19.964  16.182 155.623  1.00 57.03 LIG 0.23  C 
BRANCH 55 56
ATOM     56  NZ  LYS D   4      20.292  14.772 155.835  1.00 52.11 LIG-0.08  N 
ATOM     57 HZ3  LYS D   4      20.939  14.706 156.443  1.00 52.11 LIG 0.27  HD
ATOM     58 HZ2  LYS D   4      20.569  14.414 155.068  1.00 52.11 LIG 0.27  HD
ATOM     59 HZ1  LYS D   4      19.570  14.339 156.121  1.00 52.11 LIG 0.27  HD
ENDBRANCH 55 56
ENDBRANCH 54 55
ENDBRANCH 53 54
ENDBRANCH 52 53
ENDBRANCH 37 52
ENDBRANCH 35 37
ENDBRANCH 1 33
TORSDOF 24
ENDMDL
MODEL 11
USER: ADFR SOLUTION from run 35
USER: SCORE 19.786752 LL:  -2.487 LR: -17.863 RR:   0.000 FEB: -10.704
USER: RMSD 7.650747
USER: SEED 34
USER: STATUS 1 or 2 clusters left
USER: GENES 26
USER: genes 0 Translation |==|  0.28735 0.27448 0.43432
USER: genes 1 Rotation |==|  0.40020 0.89201 0.49318 0.79380
USER: genes 2 Torsion [CB]-CA--N-[C] |==|  0.77000
USER: genes 3 Torsion [N]-C--CA-[N] |==|  0.02222
USER: genes 4 Torsion [C]-CA--CB-[CG] |==|  0.41341
USER: genes 5 Torsion [CA]-CB--CG-[CD] |==|  0.10244
USER: genes 6 Torsion [CB]-CG--CD-[NE] |==|  0.31930
USER: genes 7 Torsion [CG]-CD--NE-[HE] |==|  0.81461
USER: genes 8 Torsion [C]-CA--N-[C] |==|  0.78328
USER: genes 9 Torsion [N]-C--CA-[N] |==|  0.00182
USER: genes 10 Torsion [C]-CA--N-[H1] |==|  0.53061
USER: genes 11 Torsion [N]-CA--CB-[CG2] |==|  0.12299
USER: genes 12 Torsion [CA]-CB--OG1-[HG1] |==|  0.39200
USER: genes 13 Torsion [N]-CA--C-[N] |==|  0.18139
USER: genes 14 Torsion [C]-N--CA-[CB] |==|  0.84460
USER: genes 15 Torsion [N]-CA--C-[N] |==|  0.40870
USER: genes 16 Torsion [C]-N--CA-[CB] |==|  0.21033
USER: genes 17 Torsion [N]-CA--CB-[CG] |==|  0.11967
USER: genes 18 Torsion [CA]-CB--CG-[CD] |==|  0.31538
USER: genes 19 Torsion [CB]-CG--CD-[OE1] |==|  0.20647
USER: genes 20 Torsion [N]-CA--C-[O] |==|  0.04339
USER: genes 21 Torsion [N]-CA--CB-[CG] |==|  0.83901
USER: genes 22 Torsion [CA]-CB--CG-[CD] |==|  0.43467
USER: genes 23 Torsion [CB]-CG--CD-[CE] |==|  0.91470
USER: genes 24 Torsion [CG]-CD--CE-[NZ] |==|  0.66038
USER: genes 25 Torsion [CD]-CE--NZ-[HZ2] |==|  0.28671
ROOT
ATOM      1  CA  THR D   3      11.203  11.790 146.982  1.00 39.79 LIG 0.20  C 
ENDROOT
BRANCH 1 2
ATOM      2  N   THR D   3      10.961  11.877 148.421  1.00 34.46 LIG-0.34  N 
ATOM      3  C   ARG D   2      11.092  13.023 149.087  1.00 39.53 LIG 0.24  C 
ATOM      4 O    ARG D   2      11.539  14.048 148.567  1.00 39.08 LIG-0.27  OA
ATOM      5 H    THR D   3      10.732  11.133 148.787  1.00 34.46 LIG 0.16  HD
BRANCH 3 6
ATOM      6  CA  ARG D   2      10.677  13.024 150.565  1.00 42.24 LIG 0.18  C 
BRANCH 6 7
ATOM      7  CB  ARG D   2      11.803  13.578 151.440  1.00 49.82 LIG 0.04  C 
BRANCH 7 8
ATOM      8  CG  ARG D   2      11.381  14.316 152.702  1.00 55.24 LIG 0.02  C 
BRANCH 8 9
ATOM      9  CD  ARG D   2      10.148  13.638 153.321  1.00 55.63 LIG 0.14  C 
BRANCH 9 10
ATOM     10  NE  ARG D   2      10.421  13.052 154.635  1.00 65.78 LIG-0.23  N 
ATOM     11 HE   ARG D   2      10.959  12.382 154.668  1.00 65.78 LIG 0.18  HD
ATOM     12  CZ  ARG D   2       9.898  13.479 155.782  1.00 70.57 LIG 0.67  C 
ATOM     13  NH1 ARG D   2       9.056  14.503 155.797  1.00 66.11 LIG-0.23  N 
ATOM     14  NH2 ARG D   2      10.212  12.876 156.922  1.00 74.94 LIG-0.23  N 
ATOM     15 1HH1 ARG D   2       8.845  14.896 155.062  1.00 66.11 LIG 0.17  HD
ATOM     16 2HH1 ARG D   2       8.721  14.774 156.541  1.00 66.11 LIG 0.17  HD
ATOM     17 2HH2 ARG D   2       9.872  13.153 157.662  1.00 74.94 LIG 0.17  HD
ATOM     18 1HH2 ARG D   2      10.754  12.209 156.921  1.00 74.94 LIG 0.17  HD
ENDBRANCH 9 10
ENDBRANCH 8 9
ENDBRANCH 7 8
ENDBRANCH 6 7
BRANCH 6 19
ATOM     19  N   ARG D   2      10.382  11.661 150.999  1.00 42.84 LIG-0.35  N 
ATOM     20  C   ALA D   1       9.244  11.054 150.703  1.00 44.74 LIG 0.25  C 
ATOM     21 O    ALA D   1       8.326  11.616 150.111  1.00 48.31 LIG-0.27  OA
ATOM     22 H    ARG D   2      11.010  11.296 151.459  1.00 42.84 LIG 0.16  HD
BRANCH 20 23
ATOM     23  CA  ALA D   1       9.125   9.598 151.155  1.00 45.19 LIG 0.27  C 
ATOM     24  CB  ALA D   1       7.915   9.421 152.045  1.00 43.32 LIG 0.05  C 
BRANCH 23 25
ATOM     25  N   ALA D   1      10.327   9.176 151.854  1.00 39.75 LIG-0.07  N 
ATOM     26 H1   ALA D   1      10.310   8.293 151.968  1.00 39.75 LIG 0.28  HD
ATOM     27 H2   ALA D   1      11.042   9.398 151.374  1.00 39.75 LIG 0.28  HD
ATOM     28 H3   ALA D   1      10.365   9.576 152.648  1.00 39.75 LIG 0.28  HD
ENDBRANCH 23 25
ENDBRANCH 20 23
ENDBRANCH 6 19
ENDBRANCH 3 6
ENDBRANCH 1 2
BRANCH 1 29
ATOM     29  CB  THR D   3       9.971  12.230 146.158  1.00 46.90 LIG 0.15  C 
ATOM     30  CG2 THR D   3       9.363  13.498 146.727  1.00 44.81 LIG 0.04  C 
BRANCH 29 31
ATOM     31 OG1  THR D   3      10.362  12.469 144.800  1.00 48.09 LIG-0.39  OA
ATOM     32 HG1  THR D   3       9.761  12.190 144.282  1.00 48.09 LIG 0.21  HD
ENDBRANCH 29 31
ENDBRANCH 1 29
BRANCH 1 33
ATOM     33  C   THR D   3      12.388  12.668 146.584  1.00 42.40 LIG 0.24  C 
ATOM     34 O    THR D   3      12.242  13.620 145.811  1.00 40.34 LIG-0.27  OA
ATOM     35  N   LYS D   4      13.570  12.352 147.040  1.00 38.45 LIG-0.35  N 
ATOM     36 H    LYS D   4      13.724  11.724 147.607  1.00 38.45 LIG 0.16  HD
BRANCH 35 37
ATOM     37  CA  LYS D   4      14.735  13.075 146.594  1.00 37.56 LIG 0.18  C 
BRANCH 37 38
ATOM     38  C   LYS D   4      14.723  14.497 147.133  1.00 44.28 LIG 0.24  C 
ATOM     39 O    LYS D   4      13.694  15.033 147.304  1.00 49.08 LIG-0.27  OA
ATOM     40  N   GLN D   5      15.900  15.035 147.402  1.00 53.59 LIG-0.35  N 
ATOM     41 H    GLN D   5      16.569  14.508 147.519  1.00 53.59 LIG 0.16  HD
BRANCH 40 42
ATOM     42  CA  GLN D   5      16.360  16.446 147.560  1.00 61.39 LIG 0.16  C 
BRANCH 42 43
ATOM     43  CB  GLN D   5      15.975  17.129 148.880  1.00 20.00 LIG 0.04  C 
BRANCH 43 44
ATOM     44  CG  GLN D   5      16.166  16.220 150.118  1.00 20.00 LIG 0.10  C 
BRANCH 44 45
ATOM     45  CD  GLN D   5      17.249  16.644 151.110  1.00 20.00 LIG 0.21  C 
ATOM     46  NE2 GLN D   5      18.378  15.948 151.074  1.00 20.00 LIG-0.37  N 
ATOM     47 21HE GLN D   5      18.459  15.288 150.528  1.00 20.00 LIG 0.16  HD
ATOM     48 22HE GLN D   5      19.029  16.156 151.596  1.00 20.00 LIG 0.16  HD
ATOM     49 OE1  GLN D   5      17.085  17.598 151.875  1.00 20.00 LIG-0.27  OA
ENDBRANCH 44 45
ENDBRANCH 43 44
ENDBRANCH 42 43
BRANCH 42 50
ATOM     50  C   GLN D   5      17.714  16.932 147.102  1.00 64.61 LIG 0.22  C 
ATOM     51 O    GLN D   5      18.379  16.285 146.347  1.00 68.60 LIG-0.29  OA
ENDBRANCH 42 50
ENDBRANCH 40 42
ENDBRANCH 37 38
BRANCH 37 52
ATOM     52  CB  LYS D   4      14.833  13.026 145.085  1.00 33.42 LIG 0.04  C 
BRANCH 52 53
ATOM     53  CG  LYS D   4      14.894  11.681 144.527  1.00 40.53 LIG 0.00  C 
BRANCH 53 54
ATOM     54  CD  LYS D   4      14.441  11.698 143.165  1.00 50.17 LIG 0.03  C 
BRANCH 54 55
ATOM     55  CE  LYS D   4      13.409  12.767 142.940  1.00 57.03 LIG 0.23  C 
BRANCH 55 56
ATOM     56  NZ  LYS D   4      12.199  12.122 142.433  1.00 52.11 LIG-0.08  N 
ATOM     57 HZ3  LYS D   4      11.864  12.604 141.764  1.00 52.11 LIG 0.27  HD
ATOM     58 HZ2  LYS D   4      11.597  12.063 143.086  1.00 52.11 LIG 0.27  HD
ATOM     59 HZ1  LYS D   4      12.398  11.306 142.139  1.00 52.11 LIG 0.27  HD
ENDBRANCH 55 56
ENDBRANCH 54 55
ENDBRANCH 53 54
ENDBRANCH 52 53
ENDBRANCH 37 52
ENDBRANCH 35 37
ENDBRANCH 1 33
TORSDOF 24
ENDMDL
MODEL 12
USER: ADFR SOLUTION from run 139
USER: SCORE 18.038598 LL:  -2.639 LR: -17.797 RR:   0.000 FEB: -10.638
USER: RMSD 5.200021
USER: SEED 138
USER: STATUS no improvement in best in 4 clusters for 5 generations
USER: GENES 26
USER: genes 0 Translation |==|  0.54210 0.46330 0.49590
USER: genes 1 Rotation |==|  0.45434 0.58512 0.50176 0.99058
USER: genes 2 Torsion [CB]-CA--N-[C] |==|  0.26021
USER: genes 3 Torsion [N]-C--CA-[N] |==|  0.49929
USER: genes 4 Torsion [C]-CA--CB-[CG] |==|  0.55872
USER: genes 5 Torsion [CA]-CB--CG-[CD] |==|  0.27745
USER: genes 6 Torsion [CB]-CG--CD-[NE] |==|  0.57971
USER: genes 7 Torsion [CG]-CD--NE-[HE] |==|  0.07530
USER: genes 8 Torsion [C]-CA--N-[C] |==|  0.75033
USER: genes 9 Torsion [N]-C--CA-[N] |==|  0.28155
USER: genes 10 Torsion [C]-CA--N-[H1] |==|  0.13385
USER: genes 11 Torsion [N]-CA--CB-[CG2] |==|  0.18378
USER: genes 12 Torsion [CA]-CB--OG1-[HG1] |==|  0.78475
USER: genes 13 Torsion [N]-CA--C-[N] |==|  0.35300
USER: genes 14 Torsion [C]-N--CA-[CB] |==|  0.14765
USER: genes 15 Torsion [N]-CA--C-[N] |==|  0.48670
USER: genes 16 Torsion [C]-N--CA-[CB] |==|  0.95438
USER: genes 17 Torsion [N]-CA--CB-[CG] |==|  0.86213
USER: genes 18 Torsion [CA]-CB--CG-[CD] |==|  0.79032
USER: genes 19 Torsion [CB]-CG--CD-[OE1] |==|  0.36721
USER: genes 20 Torsion [N]-CA--C-[O] |==|  0.67313
USER: genes 21 Torsion [N]-CA--CB-[CG] |==|  0.22597
USER: genes 22 Torsion [CA]-CB--CG-[CD] |==|  0.67701
USER: genes 23 Torsion [CB]-CG--CD-[CE] |==|  0.67491
USER: genes 24 Torsion [CG]-CD--CE-[NZ] |==|  0.76388
USER: genes 25 Torsion [CD]-CE--NZ-[HZ2] |==|  0.24454
ROOT
ATOM      1  CA  THR D   3      15.979  15.897 148.414  1.00 39.79 LIG 0.20  C 
ENDROOT
BRANCH 1 2
ATOM      2  N   THR D   3      14.555  15.597 148.283  1.00 34.46 LIG-0.34  N 
ATOM      3  C   ARG D   2      14.123  14.452 147.756  1.00 39.53 LIG 0.24  C 
ATOM      4 O    ARG D   2      14.882  13.631 147.235  1.00 39.08 LIG-0.27  OA
ATOM      5 H    THR D   3      14.034  16.218 148.573  1.00 34.46 LIG 0.16  HD
BRANCH 3 6
ATOM      6  CA  ARG D   2      12.612  14.189 147.799  1.00 42.24 LIG 0.18  C 
BRANCH 6 7
ATOM      7  CB  ARG D   2      12.113  14.156 149.246  1.00 49.82 LIG 0.04  C 
BRANCH 7 8
ATOM      8  CG  ARG D   2      10.796  13.436 149.492  1.00 55.24 LIG 0.02  C 
BRANCH 8 9
ATOM      9  CD  ARG D   2      11.061  12.023 150.035  1.00 55.63 LIG 0.14  C 
BRANCH 9 10
ATOM     10  NE  ARG D   2      10.006  11.070 149.683  1.00 65.78 LIG-0.23  N 
ATOM     11 HE   ARG D   2       9.556  11.222 148.966  1.00 65.78 LIG 0.18  HD
ATOM     12  CZ  ARG D   2       9.692   9.987 150.390  1.00 70.57 LIG 0.67  C 
ATOM     13  NH1 ARG D   2      10.343   9.703 151.509  1.00 66.11 LIG-0.23  N 
ATOM     14  NH2 ARG D   2       8.716   9.186 149.982  1.00 74.94 LIG-0.23  N 
ATOM     15 1HH1 ARG D   2      10.974  10.219 151.783  1.00 66.11 LIG 0.17  HD
ATOM     16 2HH1 ARG D   2      10.135   9.002 151.962  1.00 66.11 LIG 0.17  HD
ATOM     17 2HH2 ARG D   2       8.514   8.487 150.440  1.00 74.94 LIG 0.17  HD
ATOM     18 1HH2 ARG D   2       8.286   9.365 149.259  1.00 74.94 LIG 0.17  HD
ENDBRANCH 9 10
ENDBRANCH 8 9
ENDBRANCH 7 8
ENDBRANCH 6 7
BRANCH 6 19
ATOM     19  N   ARG D   2      12.313  12.902 147.178  1.00 42.84 LIG-0.35  N 
ATOM     20  C   ALA D   1      12.054  12.783 145.886  1.00 44.74 LIG 0.25  C 
ATOM     21 O    ALA D   1      11.970  13.750 145.133  1.00 48.31 LIG-0.27  OA
ATOM     22 H    ARG D   2      12.321  12.238 147.724  1.00 42.84 LIG 0.16  HD
BRANCH 20 23
ATOM     23  CA  ALA D   1      11.847  11.357 145.373  1.00 45.19 LIG 0.27  C 
ATOM     24  CB  ALA D   1      12.577  11.158 144.063  1.00 43.32 LIG 0.05  C 
BRANCH 23 25
ATOM     25  N   ALA D   1      10.433  11.070 145.206  1.00 39.75 LIG-0.07  N 
ATOM     26 H1   ALA D   1      10.045  11.735 144.759  1.00 39.75 LIG 0.28  HD
ATOM     27 H2   ALA D   1      10.336  10.312 144.750  1.00 39.75 LIG 0.28  HD
ATOM     28 H3   ALA D   1      10.050  10.987 146.005  1.00 39.75 LIG 0.28  HD
ENDBRANCH 23 25
ENDBRANCH 20 23
ENDBRANCH 6 19
ENDBRANCH 3 6
ENDBRANCH 1 2
BRANCH 1 29
ATOM     29  CB  THR D   3      16.519  16.697 147.206  1.00 46.90 LIG 0.15  C 
ATOM     30  CG2 THR D   3      15.898  18.080 147.152  1.00 44.81 LIG 0.04  C 
BRANCH 29 31
ATOM     31 OG1  THR D   3      17.942  16.829 147.314  1.00 48.09 LIG-0.39  OA
ATOM     32 HG1  THR D   3      18.128  17.424 147.877  1.00 48.09 LIG 0.21  HD
ENDBRANCH 29 31
ENDBRANCH 1 29
BRANCH 1 33
ATOM     33  C   THR D   3      16.242  16.704 149.684  1.00 42.40 LIG 0.24  C 
ATOM     34 O    THR D   3      15.654  17.771 149.892  1.00 40.34 LIG-0.27  OA
ATOM     35  N   LYS D   4      17.146  16.265 150.517  1.00 38.45 LIG-0.35  N 
ATOM     36 H    LYS D   4      17.559  15.515 150.441  1.00 38.45 LIG 0.16  HD
BRANCH 35 37
ATOM     37  CA  LYS D   4      17.517  17.055 151.665  1.00 37.56 LIG 0.18  C 
BRANCH 37 38
ATOM     38  C   LYS D   4      18.552  16.324 152.508  1.00 44.28 LIG 0.24  C 
ATOM     39 O    LYS D   4      18.874  15.239 152.199  1.00 49.08 LIG-0.27  OA
ATOM     40  N   GLN D   5      19.046  16.987 153.539  1.00 53.59 LIG-0.35  N 
ATOM     41 H    GLN D   5      18.980  17.844 153.538  1.00 53.59 LIG 0.16  HD
BRANCH 40 42
ATOM     42  CA  GLN D   5      19.740  16.554 154.786  1.00 61.39 LIG 0.16  C 
BRANCH 42 43
ATOM     43  CB  GLN D   5      19.602  15.067 155.145  1.00 20.00 LIG 0.04  C 
BRANCH 43 44
ATOM     44  CG  GLN D   5      18.139  14.563 155.110  1.00 20.00 LIG 0.10  C 
BRANCH 44 45
ATOM     45  CD  GLN D   5      17.250  14.977 156.282  1.00 20.00 LIG 0.21  C 
ATOM     46  NE2 GLN D   5      17.778  14.836 157.492  1.00 20.00 LIG-0.37  N 
ATOM     47 21HE GLN D   5      18.568  14.508 157.581  1.00 20.00 LIG 0.16  HD
ATOM     48 22HE GLN D   5      17.330  15.073 158.187  1.00 20.00 LIG 0.16  HD
ATOM     49 OE1  GLN D   5      16.122  15.442 156.104  1.00 20.00 LIG-0.27  OA
ENDBRANCH 44 45
ENDBRANCH 43 44
ENDBRANCH 42 43
BRANCH 42 50
ATOM     50  C   GLN D   5      21.103  17.058 155.195  1.00 64.61 LIG 0.22  C 
ATOM     51 O    GLN D   5      22.032  16.311 155.300  1.00 68.60 LIG-0.29  OA
ENDBRANCH 42 50
ENDBRANCH 40 42
ENDBRANCH 37 38
BRANCH 37 52
ATOM     52  CB  LYS D   4      16.285  17.433 152.458  1.00 33.42 LIG 0.04  C 
BRANCH 52 53
ATOM     53  CG  LYS D   4      15.802  16.392 153.355  1.00 40.53 LIG 0.00  C 
BRANCH 53 54
ATOM     54  CD  LYS D   4      14.493  15.966 152.948  1.00 50.17 LIG 0.03  C 
BRANCH 54 55
ATOM     55  CE  LYS D   4      13.465  16.256 154.004  1.00 57.03 LIG 0.23  C 
BRANCH 55 56
ATOM     56  NZ  LYS D   4      13.473  15.145 154.955  1.00 52.11 LIG-0.08  N 
ATOM     57 HZ3  LYS D   4      12.667  15.065 155.325  1.00 52.11 LIG 0.27  HD
ATOM     58 HZ2  LYS D   4      14.076  15.302 155.590  1.00 52.11 LIG 0.27  HD
ATOM     59 HZ1  LYS D   4      13.680  14.391 154.529  1.00 52.11 LIG 0.27  HD
ENDBRANCH 55 56
ENDBRANCH 54 55
ENDBRANCH 53 54
ENDBRANCH 52 53
ENDBRANCH 37 52
ENDBRANCH 35 37
ENDBRANCH 1 33
TORSDOF 24
ENDMDL
MODEL 13
USER: ADFR SOLUTION from run 169
USER: SCORE 18.076045 LL:  -2.629 LR: -17.794 RR:   0.000 FEB: -10.634
USER: RMSD 4.938675
USER: SEED 168
USER: STATUS no improvement in best in 14 clusters for 5 generations
USER: GENES 26
USER: genes 0 Translation |==|  0.54136 0.48825 0.43248
USER: genes 1 Rotation |==|  0.25625 0.51939 0.50278 0.93612
USER: genes 2 Torsion [CB]-CA--N-[C] |==|  0.24162
USER: genes 3 Torsion [N]-C--CA-[N] |==|  0.37010
USER: genes 4 Torsion [C]-CA--CB-[CG] |==|  0.54845
USER: genes 5 Torsion [CA]-CB--CG-[CD] |==|  0.53539
USER: genes 6 Torsion [CB]-CG--CD-[NE] |==|  0.68422
USER: genes 7 Torsion [CG]-CD--NE-[HE] |==|  0.33794
USER: genes 8 Torsion [C]-CA--N-[C] |==|  0.75731
USER: genes 9 Torsion [N]-C--CA-[N] |==|  0.23136
USER: genes 10 Torsion [C]-CA--N-[H1] |==|  0.12418
USER: genes 11 Torsion [N]-CA--CB-[CG2] |==|  0.62563
USER: genes 12 Torsion [CA]-CB--OG1-[HG1] |==|  0.01093
USER: genes 13 Torsion [N]-CA--C-[N] |==|  0.44974
USER: genes 14 Torsion [C]-N--CA-[CB] |==|  0.42583
USER: genes 15 Torsion [N]-CA--C-[N] |==|  0.93823
USER: genes 16 Torsion [C]-N--CA-[CB] |==|  0.26424
USER: genes 17 Torsion [N]-CA--CB-[CG] |==|  0.36909
USER: genes 18 Torsion [CA]-CB--CG-[CD] |==|  0.71294
USER: genes 19 Torsion [CB]-CG--CD-[OE1] |==|  0.39255
USER: genes 20 Torsion [N]-CA--C-[O] |==|  0.92577
USER: genes 21 Torsion [N]-CA--CB-[CG] |==|  0.47033
USER: genes 22 Torsion [CA]-CB--CG-[CD] |==|  0.54864
USER: genes 23 Torsion [CB]-CG--CD-[CE] |==|  0.35290
USER: genes 24 Torsion [CG]-CD--CE-[NZ] |==|  0.58606
USER: genes 25 Torsion [CD]-CE--NZ-[HZ2] |==|  0.20764
ROOT
ATOM      1  CA  THR D   3      15.966  16.439 146.939  1.00 39.79 LIG 0.20  C 
ENDROOT
BRANCH 1 2
ATOM      2  N   THR D   3      14.648  15.809 146.879  1.00 34.46 LIG-0.34  N 
ATOM      3  C   ARG D   2      14.468  14.527 147.197  1.00 39.53 LIG 0.24  C 
ATOM      4 O    ARG D   2      15.406  13.763 147.440  1.00 39.08 LIG-0.27  OA
ATOM      5 H    THR D   3      14.016  16.333 146.624  1.00 34.46 LIG 0.16  HD
BRANCH 3 6
ATOM      6  CA  ARG D   2      13.023  14.013 147.232  1.00 42.24 LIG 0.18  C 
BRANCH 6 7
ATOM      7  CB  ARG D   2      12.565  13.792 148.675  1.00 49.82 LIG 0.04  C 
BRANCH 7 8
ATOM      8  CG  ARG D   2      11.337  12.915 148.871  1.00 55.24 LIG 0.02  C 
BRANCH 8 9
ATOM      9  CD  ARG D   2      10.820  13.044 150.312  1.00 55.63 LIG 0.14  C 
BRANCH 9 10
ATOM     10  NE  ARG D   2      10.955  11.804 151.079  1.00 65.78 LIG-0.23  N 
ATOM     11 HE   ARG D   2      11.420  11.831 151.801  1.00 65.78 LIG 0.18  HD
ATOM     12  CZ  ARG D   2      10.411  10.638 150.740  1.00 70.57 LIG 0.67  C 
ATOM     13  NH1 ARG D   2       9.689  10.529 149.634  1.00 66.11 LIG-0.23  N 
ATOM     14  NH2 ARG D   2      10.594   9.570 151.507  1.00 74.94 LIG-0.23  N 
ATOM     15 1HH1 ARG D   2       9.569  11.215 149.130  1.00 66.11 LIG 0.17  HD
ATOM     16 2HH1 ARG D   2       9.340   9.772 149.420  1.00 66.11 LIG 0.17  HD
ATOM     17 2HH2 ARG D   2      10.242   8.817 151.287  1.00 74.94 LIG 0.17  HD
ATOM     18 1HH2 ARG D   2      11.065   9.631 152.225  1.00 74.94 LIG 0.17  HD
ENDBRANCH 9 10
ENDBRANCH 8 9
ENDBRANCH 7 8
ENDBRANCH 6 7
BRANCH 6 19
ATOM     19  N   ARG D   2      12.928  12.743 146.518  1.00 42.84 LIG-0.35  N 
ATOM     20  C   ALA D   1      12.715  12.679 145.213  1.00 44.74 LIG 0.25  C 
ATOM     21 O    ALA D   1      12.505  13.674 144.525  1.00 48.31 LIG-0.27  OA
ATOM     22 H    ARG D   2      13.024  12.051 147.018  1.00 42.84 LIG 0.16  HD
BRANCH 20 23
ATOM     23  CA  ALA D   1      12.731  11.278 144.600  1.00 45.19 LIG 0.27  C 
ATOM     24  CB  ALA D   1      13.101  11.349 143.135  1.00 43.32 LIG 0.05  C 
BRANCH 23 25
ATOM     25  N   ALA D   1      11.440  10.632 144.759  1.00 39.75 LIG-0.07  N 
ATOM     26 H1   ALA D   1      10.792  11.207 144.556  1.00 39.75 LIG 0.28  HD
ATOM     27 H2   ALA D   1      11.391   9.928 144.217  1.00 39.75 LIG 0.28  HD
ATOM     28 H3   ALA D   1      11.343  10.364 145.602  1.00 39.75 LIG 0.28  HD
ENDBRANCH 23 25
ENDBRANCH 20 23
ENDBRANCH 6 19
ENDBRANCH 3 6
ENDBRANCH 1 2
BRANCH 1 29
ATOM     29  CB  THR D   3      16.760  16.254 145.626  1.00 46.90 LIG 0.15  C 
ATOM     30  CG2 THR D   3      18.194  15.848 145.913  1.00 44.81 LIG 0.04  C 
BRANCH 29 31
ATOM     31 OG1  THR D   3      16.139  15.239 144.827  1.00 48.09 LIG-0.39  OA
ATOM     32 HG1  THR D   3      15.433  14.979 145.202  1.00 48.09 LIG 0.21  HD
ENDBRANCH 29 31
ENDBRANCH 1 29
BRANCH 1 33
ATOM     33  C   THR D   3      15.830  17.937 147.214  1.00 42.40 LIG 0.24  C 
ATOM     34 O    THR D   3      14.774  18.533 146.980  1.00 40.34 LIG-0.27  OA
ATOM     35  N   LYS D   4      16.879  18.580 147.651  1.00 38.45 LIG-0.35  N 
ATOM     36 H    LYS D   4      17.626  18.211 147.865  1.00 38.45 LIG 0.16  HD
BRANCH 35 37
ATOM     37  CA  LYS D   4      16.836  20.012 147.807  1.00 37.56 LIG 0.18  C 
BRANCH 37 38
ATOM     38  C   LYS D   4      17.078  20.705 146.474  1.00 44.28 LIG 0.24  C 
ATOM     39 O    LYS D   4      16.720  21.813 146.335  1.00 49.08 LIG-0.27  OA
ATOM     40  N   GLN D   5      17.712  20.002 145.552  1.00 53.59 LIG-0.35  N 
ATOM     41 H    GLN D   5      18.178  19.326 145.808  1.00 53.59 LIG 0.16  HD
BRANCH 40 42
ATOM     42  CA  GLN D   5      17.806  20.124 144.068  1.00 61.39 LIG 0.16  C 
BRANCH 42 43
ATOM     43  CB  GLN D   5      19.025  20.893 143.539  1.00 20.00 LIG 0.04  C 
BRANCH 43 44
ATOM     44  CG  GLN D   5      19.753  20.167 142.382  1.00 20.00 LIG 0.10  C 
BRANCH 44 45
ATOM     45  CD  GLN D   5      21.059  19.458 142.741  1.00 20.00 LIG 0.21  C 
ATOM     46  NE2 GLN D   5      21.827  20.070 143.634  1.00 20.00 LIG-0.37  N 
ATOM     47 21HE GLN D   5      21.589  20.829 143.958  1.00 20.00 LIG 0.16  HD
ATOM     48 22HE GLN D   5      22.564  19.706 143.888  1.00 20.00 LIG 0.16  HD
ATOM     49 OE1  GLN D   5      21.359  18.369 142.247  1.00 20.00 LIG-0.27  OA
ENDBRANCH 44 45
ENDBRANCH 43 44
ENDBRANCH 42 43
BRANCH 42 50
ATOM     50  C   GLN D   5      17.451  19.005 143.119  1.00 64.61 LIG 0.22  C 
ATOM     51 O    GLN D   5      17.529  17.861 143.458  1.00 68.60 LIG-0.29  OA
ENDBRANCH 42 50
ENDBRANCH 40 42
ENDBRANCH 37 38
BRANCH 37 52
ATOM     52  CB  LYS D   4      17.815  20.450 148.875  1.00 33.42 LIG 0.04  C 
BRANCH 52 53
ATOM     53  CG  LYS D   4      18.030  21.890 148.943  1.00 40.53 LIG 0.00  C 
BRANCH 53 54
ATOM     54  CD  LYS D   4      19.236  22.168 149.670  1.00 50.17 LIG 0.03  C 
BRANCH 54 55
ATOM     55  CE  LYS D   4      20.159  23.058 148.887  1.00 57.03 LIG 0.23  C 
BRANCH 55 56
ATOM     56  NZ  LYS D   4      21.532  22.716 149.258  1.00 52.11 LIG-0.08  N 
ATOM     57 HZ3  LYS D   4      22.083  23.358 148.979  1.00 52.11 LIG 0.27  HD
ATOM     58 HZ2  LYS D   4      21.759  21.945 148.877  1.00 52.11 LIG 0.27  HD
ATOM     59 HZ1  LYS D   4      21.591  22.639 150.142  1.00 52.11 LIG 0.27  HD
ENDBRANCH 55 56
ENDBRANCH 54 55
ENDBRANCH 53 54
ENDBRANCH 52 53
ENDBRANCH 37 52
ENDBRANCH 35 37
ENDBRANCH 1 33
TORSDOF 24
ENDMDL
MODEL 14
USER: ADFR SOLUTION from run 112
USER: SCORE 18.823086 LL:  -2.891 LR: -17.760 RR:   0.000 FEB: -10.601
USER: RMSD 4.282550
USER: SEED 111
USER: STATUS searching
USER: GENES 26
USER: genes 0 Translation |==|  0.54229 0.45332 0.43820
USER: genes 1 Rotation |==|  0.27081 0.52232 0.53522 0.94242
USER: genes 2 Torsion [CB]-CA--N-[C] |==|  0.53344
USER: genes 3 Torsion [N]-C--CA-[N] |==|  0.10734
USER: genes 4 Torsion [C]-CA--CB-[CG] |==|  0.59814
USER: genes 5 Torsion [CA]-CB--CG-[CD] |==|  0.53402
USER: genes 6 Torsion [CB]-CG--CD-[NE] |==|  0.63923
USER: genes 7 Torsion [CG]-CD--NE-[HE] |==|  0.31796
USER: genes 8 Torsion [C]-CA--N-[C] |==|  0.66042
USER: genes 9 Torsion [N]-C--CA-[N] |==|  0.39289
USER: genes 10 Torsion [C]-CA--N-[H1] |==|  0.86006
USER: genes 11 Torsion [N]-CA--CB-[CG2] |==|  0.60617
USER: genes 12 Torsion [CA]-CB--OG1-[HG1] |==|  0.32046
USER: genes 13 Torsion [N]-CA--C-[N] |==|  0.45092
USER: genes 14 Torsion [C]-N--CA-[CB] |==|  0.40596
USER: genes 15 Torsion [N]-CA--C-[N] |==|  0.95556
USER: genes 16 Torsion [C]-N--CA-[CB] |==|  0.27121
USER: genes 17 Torsion [N]-CA--CB-[CG] |==|  0.36712
USER: genes 18 Torsion [CA]-CB--CG-[CD] |==|  0.64597
USER: genes 19 Torsion [CB]-CG--CD-[OE1] |==|  0.41300
USER: genes 20 Torsion [N]-CA--C-[O] |==|  0.05650
USER: genes 21 Torsion [N]-CA--CB-[CG] |==|  0.75372
USER: genes 22 Torsion [CA]-CB--CG-[CD] |==|  0.29684
USER: genes 23 Torsion [CB]-CG--CD-[CE] |==|  0.76327
USER: genes 24 Torsion [CG]-CD--CE-[NZ] |==|  0.32145
USER: genes 25 Torsion [CD]-CE--NZ-[HZ2] |==|  0.75485
ROOT
ATOM      1  CA  THR D   3      15.983  15.680 147.072  1.00 39.79 LIG 0.20  C 
ENDROOT
BRANCH 1 2
ATOM      2  N   THR D   3      14.736  14.917 147.058  1.00 34.46 LIG-0.34  N 
ATOM      3  C   ARG D   2      13.856  14.991 148.056  1.00 39.53 LIG 0.24  C 
ATOM      4 O    ARG D   2      14.086  15.602 149.102  1.00 39.08 LIG-0.27  OA
ATOM      5 H    THR D   3      14.629  14.427 146.359  1.00 34.46 LIG 0.16  HD
BRANCH 3 6
ATOM      6  CA  ARG D   2      12.522  14.256 147.866  1.00 42.24 LIG 0.18  C 
BRANCH 6 7
ATOM      7  CB  ARG D   2      11.868  13.972 149.220  1.00 49.82 LIG 0.04  C 
BRANCH 7 8
ATOM      8  CG  ARG D   2      11.100  12.664 149.342  1.00 55.24 LIG 0.02  C 
BRANCH 8 9
ATOM      9  CD  ARG D   2      10.259  12.663 150.628  1.00 55.63 LIG 0.14  C 
BRANCH 9 10
ATOM     10  NE  ARG D   2      10.449  11.454 151.431  1.00 65.78 LIG-0.23  N 
ATOM     11 HE   ARG D   2      10.815  11.543 152.204  1.00 65.78 LIG 0.18  HD
ATOM     12  CZ  ARG D   2      10.096  10.227 151.054  1.00 70.57 LIG 0.67  C 
ATOM     13  NH1 ARG D   2       9.533  10.023 149.872  1.00 66.11 LIG-0.23  N 
ATOM     14  NH2 ARG D   2      10.312   9.195 151.861  1.00 74.94 LIG-0.23  N 
ATOM     15 1HH1 ARG D   2       9.393  10.685 149.342  1.00 66.11 LIG 0.17  HD
ATOM     16 2HH1 ARG D   2       9.307   9.228 149.634  1.00 66.11 LIG 0.17  HD
ATOM     17 2HH2 ARG D   2      10.084   8.403 151.616  1.00 74.94 LIG 0.17  HD
ATOM     18 1HH2 ARG D   2      10.681   9.318 152.628  1.00 74.94 LIG 0.17  HD
ENDBRANCH 9 10
ENDBRANCH 8 9
ENDBRANCH 7 8
ENDBRANCH 6 7
BRANCH 6 19
ATOM     19  N   ARG D   2      12.747  12.983 147.187  1.00 42.84 LIG-0.35  N 
ATOM     20  C   ALA D   1      12.156  12.677 146.044  1.00 44.74 LIG 0.25  C 
ATOM     21 O    ALA D   1      11.320  13.404 145.513  1.00 48.31 LIG-0.27  OA
ATOM     22 H    ARG D   2      13.294  12.459 147.594  1.00 42.84 LIG 0.16  HD
BRANCH 20 23
ATOM     23  CA  ALA D   1      12.563  11.345 145.414  1.00 45.19 LIG 0.27  C 
ATOM     24  CB  ALA D   1      13.637  11.562 144.370  1.00 43.32 LIG 0.05  C 
BRANCH 23 25
ATOM     25  N   ALA D   1      11.414  10.684 144.819  1.00 39.75 LIG-0.07  N 
ATOM     26 H1   ALA D   1      10.749  10.655 145.410  1.00 39.75 LIG 0.28  HD
ATOM     27 H2   ALA D   1      11.151  11.137 144.100  1.00 39.75 LIG 0.28  HD
ATOM     28 H3   ALA D   1      11.637   9.855 144.582  1.00 39.75 LIG 0.28  HD
ENDBRANCH 23 25
ENDBRANCH 20 23
ENDBRANCH 6 19
ENDBRANCH 3 6
ENDBRANCH 1 2
BRANCH 1 29
ATOM     29  CB  THR D   3      16.690  15.665 145.698  1.00 46.90 LIG 0.15  C 
ATOM     30  CG2 THR D   3      18.195  15.570 145.863  1.00 44.81 LIG 0.04  C 
BRANCH 29 31
ATOM     31 OG1  THR D   3      16.233  14.542 144.933  1.00 48.09 LIG-0.39  OA
ATOM     32 HG1  THR D   3      15.821  14.814 144.253  1.00 48.09 LIG 0.21  HD
ENDBRANCH 29 31
ENDBRANCH 1 29
BRANCH 1 33
ATOM     33  C   THR D   3      15.717  17.133 147.463  1.00 42.40 LIG 0.24  C 
ATOM     34 O    THR D   3      14.588  17.624 147.352  1.00 40.34 LIG-0.27  OA
ATOM     35  N   LYS D   4      16.726  17.858 147.863  1.00 38.45 LIG-0.35  N 
ATOM     36 H    LYS D   4      17.522  17.561 147.992  1.00 38.45 LIG 0.16  HD
BRANCH 35 37
ATOM     37  CA  LYS D   4      16.548  19.265 148.123  1.00 37.56 LIG 0.18  C 
BRANCH 37 38
ATOM     38  C   LYS D   4      16.778  20.078 146.858  1.00 44.28 LIG 0.24  C 
ATOM     39 O    LYS D   4      16.425  21.196 146.828  1.00 49.08 LIG-0.27  OA
ATOM     40  N   GLN D   5      17.399  19.462 145.867  1.00 53.59 LIG-0.35  N 
ATOM     41 H    GLN D   5      17.865  18.764 146.054  1.00 53.59 LIG 0.16  HD
BRANCH 40 42
ATOM     42  CA  GLN D   5      17.479  19.723 144.401  1.00 61.39 LIG 0.16  C 
BRANCH 42 43
ATOM     43  CB  GLN D   5      18.726  20.481 143.925  1.00 20.00 LIG 0.04  C 
BRANCH 43 44
ATOM     44  CG  GLN D   5      19.411  19.826 142.701  1.00 20.00 LIG 0.10  C 
BRANCH 44 45
ATOM     45  CD  GLN D   5      20.907  19.541 142.833  1.00 20.00 LIG 0.21  C 
ATOM     46  NE2 GLN D   5      21.589  20.362 143.622  1.00 20.00 LIG-0.37  N 
ATOM     47 21HE GLN D   5      21.191  21.020 144.006  1.00 20.00 LIG 0.16  HD
ATOM     48 22HE GLN D   5      22.430  20.236 143.749  1.00 20.00 LIG 0.16  HD
ATOM     49 OE1  GLN D   5      21.434  18.585 142.260  1.00 20.00 LIG-0.27  OA
ENDBRANCH 44 45
ENDBRANCH 43 44
ENDBRANCH 42 43
BRANCH 42 50
ATOM     50  C   GLN D   5      17.056  18.718 143.356  1.00 64.61 LIG 0.22  C 
ATOM     51 O    GLN D   5      16.315  17.820 143.628  1.00 68.60 LIG-0.29  OA
ENDBRANCH 42 50
ENDBRANCH 40 42
ENDBRANCH 37 38
BRANCH 37 52
ATOM     52  CB  LYS D   4      17.440  19.701 149.265  1.00 33.42 LIG 0.04  C 
BRANCH 52 53
ATOM     53  CG  LYS D   4      16.840  19.564 150.586  1.00 40.53 LIG 0.00  C 
BRANCH 53 54
ATOM     54  CD  LYS D   4      17.438  18.458 151.280  1.00 50.17 LIG 0.03  C 
BRANCH 54 55
ATOM     55  CE  LYS D   4      16.770  17.160 150.928  1.00 57.03 LIG 0.23  C 
BRANCH 55 56
ATOM     56  NZ  LYS D   4      17.754  16.320 150.246  1.00 52.11 LIG-0.08  N 
ATOM     57 HZ3  LYS D   4      18.567  16.496 150.565  1.00 52.11 LIG 0.27  HD
ATOM     58 HZ2  LYS D   4      17.735  16.490 149.373  1.00 52.11 LIG 0.27  HD
ATOM     59 HZ1  LYS D   4      17.561  15.463 150.386  1.00 52.11 LIG 0.27  HD
ENDBRANCH 55 56
ENDBRANCH 54 55
ENDBRANCH 53 54
ENDBRANCH 52 53
ENDBRANCH 37 52
ENDBRANCH 35 37
ENDBRANCH 1 33
TORSDOF 24
ENDMDL
MODEL 15
USER: ADFR SOLUTION from run 35
USER: SCORE 19.955133 LL:  -2.678 LR: -17.758 RR:   0.000 FEB: -10.599
USER: RMSD 7.472520
USER: SEED 34
USER: STATUS 1 or 2 clusters left
USER: GENES 26
USER: genes 0 Translation |==|  0.28851 0.27518 0.43530
USER: genes 1 Rotation |==|  0.39370 0.88985 0.49520 0.79443
USER: genes 2 Torsion [CB]-CA--N-[C] |==|  0.76823
USER: genes 3 Torsion [N]-C--CA-[N] |==|  0.02153
USER: genes 4 Torsion [C]-CA--CB-[CG] |==|  0.41568
USER: genes 5 Torsion [CA]-CB--CG-[CD] |==|  0.10260
USER: genes 6 Torsion [CB]-CG--CD-[NE] |==|  0.31851
USER: genes 7 Torsion [CG]-CD--NE-[HE] |==|  0.81474
USER: genes 8 Torsion [C]-CA--N-[C] |==|  0.78229
USER: genes 9 Torsion [N]-C--CA-[N] |==|  0.00213
USER: genes 10 Torsion [C]-CA--N-[H1] |==|  0.27800
USER: genes 11 Torsion [N]-CA--CB-[CG2] |==|  0.11733
USER: genes 12 Torsion [CA]-CB--OG1-[HG1] |==|  0.37068
USER: genes 13 Torsion [N]-CA--C-[N] |==|  0.18206
USER: genes 14 Torsion [C]-N--CA-[CB] |==|  0.84889
USER: genes 15 Torsion [N]-CA--C-[N] |==|  0.37724
USER: genes 16 Torsion [C]-N--CA-[CB] |==|  0.66989
USER: genes 17 Torsion [N]-CA--CB-[CG] |==|  0.10134
USER: genes 18 Torsion [CA]-CB--CG-[CD] |==|  0.23116
USER: genes 19 Torsion [CB]-CG--CD-[OE1] |==|  0.71569
USER: genes 20 Torsion [N]-CA--C-[O] |==|  0.60824
USER: genes 21 Torsion [N]-CA--CB-[CG] |==|  0.83651
USER: genes 22 Torsion [CA]-CB--CG-[CD] |==|  0.43616
USER: genes 23 Torsion [CB]-CG--CD-[CE] |==|  0.91231
USER: genes 24 Torsion [CG]-CD--CE-[NZ] |==|  0.65874
USER: genes 25 Torsion [CD]-CE--NZ-[HZ2] |==|  0.28934
ROOT
ATOM      1  CA  THR D   3      11.225  11.805 147.005  1.00 39.79 LIG 0.20  C 
ENDROOT
BRANCH 1 2
ATOM      2  N   THR D   3      10.973  11.897 148.442  1.00 34.46 LIG-0.34  N 
ATOM      3  C   ARG D   2      11.082  13.051 149.101  1.00 39.53 LIG 0.24  C 
ATOM      4 O    ARG D   2      11.516  14.079 148.576  1.00 39.08 LIG-0.27  OA
ATOM      5 H    THR D   3      10.754  11.152 148.812  1.00 34.46 LIG 0.16  HD
BRANCH 3 6
ATOM      6  CA  ARG D   2      10.658  13.054 150.576  1.00 42.24 LIG 0.18  C 
BRANCH 6 7
ATOM      7  CB  ARG D   2      11.773  13.627 151.454  1.00 49.82 LIG 0.04  C 
BRANCH 7 8
ATOM      8  CG  ARG D   2      11.335  14.349 152.720  1.00 55.24 LIG 0.02  C 
BRANCH 8 9
ATOM      9  CD  ARG D   2      10.117  13.644 153.336  1.00 55.63 LIG 0.14  C 
BRANCH 9 10
ATOM     10  NE  ARG D   2      10.404  13.051 154.644  1.00 65.78 LIG-0.23  N 
ATOM     11 HE   ARG D   2      10.954  12.392 154.670  1.00 65.78 LIG 0.18  HD
ATOM     12  CZ  ARG D   2       9.874  13.458 155.796  1.00 70.57 LIG 0.67  C 
ATOM     13  NH1 ARG D   2       9.013  14.465 155.821  1.00 66.11 LIG-0.23  N 
ATOM     14  NH2 ARG D   2      10.202  12.852 156.930  1.00 74.94 LIG-0.23  N 
ATOM     15 1HH1 ARG D   2       8.793  14.861 155.090  1.00 66.11 LIG 0.17  HD
ATOM     16 2HH1 ARG D   2       8.674  14.724 156.568  1.00 66.11 LIG 0.17  HD
ATOM     17 2HH2 ARG D   2       9.859  13.115 157.673  1.00 74.94 LIG 0.17  HD
ATOM     18 1HH2 ARG D   2      10.757  12.195 156.922  1.00 74.94 LIG 0.17  HD
ENDBRANCH 9 10
ENDBRANCH 8 9
ENDBRANCH 7 8
ENDBRANCH 6 7
BRANCH 6 19
ATOM     19  N   ARG D   2      10.377  11.690 151.016  1.00 42.84 LIG-0.35  N 
ATOM     20  C   ALA D   1       9.246  11.071 150.723  1.00 44.74 LIG 0.25  C 
ATOM     21 O    ALA D   1       8.322  11.621 150.129  1.00 48.31 LIG-0.27  OA
ATOM     22 H    ARG D   2      11.009  11.334 151.477  1.00 42.84 LIG 0.16  HD
BRANCH 20 23
ATOM     23  CA  ALA D   1       9.140   9.616 151.181  1.00 45.19 LIG 0.27  C 
ATOM     24  CB  ALA D   1       7.931   9.430 152.070  1.00 43.32 LIG 0.05  C 
BRANCH 23 25
ATOM     25  N   ALA D   1      10.345   9.209 151.884  1.00 39.75 LIG-0.07  N 
ATOM     26 H1   ALA D   1      10.202   9.241 152.762  1.00 39.75 LIG 0.28  HD
ATOM     27 H2   ALA D   1      10.560   8.378 151.649  1.00 39.75 LIG 0.28  HD
ATOM     28 H3   ALA D   1      11.012   9.759 151.673  1.00 39.75 LIG 0.28  HD
ENDBRANCH 23 25
ENDBRANCH 20 23
ENDBRANCH 6 19
ENDBRANCH 3 6
ENDBRANCH 1 2
BRANCH 1 29
ATOM     29  CB  THR D   3       9.986  12.205 146.171  1.00 46.90 LIG 0.15  C 
ATOM     30  CG2 THR D   3       9.312  13.432 146.756  1.00 44.81 LIG 0.04  C 
BRANCH 29 31
ATOM     31 OG1  THR D   3      10.384  12.489 144.823  1.00 48.09 LIG-0.39  OA
ATOM     32 HG1  THR D   3       9.862  12.104 144.289  1.00 48.09 LIG 0.21  HD
ENDBRANCH 29 31
ENDBRANCH 1 29
BRANCH 1 33
ATOM     33  C   THR D   3      12.388  12.712 146.605  1.00 42.40 LIG 0.24  C 
ATOM     34 O    THR D   3      12.219  13.656 145.826  1.00 40.34 LIG-0.27  OA
ATOM     35  N   LYS D   4      13.576  12.428 147.065  1.00 38.45 LIG-0.35  N 
ATOM     36 H    LYS D   4      13.745  11.808 147.636  1.00 38.45 LIG 0.16  HD
BRANCH 35 37
ATOM     37  CA  LYS D   4      14.723  13.179 146.619  1.00 37.56 LIG 0.18  C 
BRANCH 37 38
ATOM     38  C   LYS D   4      14.693  14.592 147.182  1.00 44.28 LIG 0.24  C 
ATOM     39 O    LYS D   4      13.679  15.181 147.186  1.00 49.08 LIG-0.27  OA
ATOM     40  N   GLN D   5      15.832  15.060 147.661  1.00 53.59 LIG-0.35  N 
ATOM     41 H    GLN D   5      16.442  14.494 147.878  1.00 53.59 LIG 0.16  HD
BRANCH 40 42
ATOM     42  CA  GLN D   5      16.331  16.440 147.929  1.00 61.39 LIG 0.16  C 
BRANCH 42 43
ATOM     43  CB  GLN D   5      17.582  16.860 147.144  1.00 20.00 LIG 0.04  C 
BRANCH 43 44
ATOM     44  CG  GLN D   5      17.616  16.302 145.701  1.00 20.00 LIG 0.10  C 
BRANCH 44 45
ATOM     45  CD  GLN D   5      16.837  17.093 144.649  1.00 20.00 LIG 0.21  C 
ATOM     46  NE2 GLN D   5      17.434  18.182 144.179  1.00 20.00 LIG-0.37  N 
ATOM     47 21HE GLN D   5      18.204  18.416 144.483  1.00 20.00 LIG 0.16  HD
ATOM     48 22HE GLN D   5      17.051  18.653 143.571  1.00 20.00 LIG 0.16  HD
ATOM     49 OE1  GLN D   5      15.734  16.718 144.246  1.00 20.00 LIG-0.27  OA
ENDBRANCH 44 45
ENDBRANCH 43 44
ENDBRANCH 42 43
BRANCH 42 50
ATOM     50  C   GLN D   5      15.420  17.628 148.122  1.00 64.61 LIG 0.22  C 
ATOM     51 O    GLN D   5      15.700  18.700 147.672  1.00 68.60 LIG-0.29  OA
ENDBRANCH 42 50
ENDBRANCH 40 42
ENDBRANCH 37 38
BRANCH 37 52
ATOM     52  CB  LYS D   4      14.805  13.156 145.108  1.00 33.42 LIG 0.04  C 
BRANCH 52 53
ATOM     53  CG  LYS D   4      14.904  11.823 144.529  1.00 40.53 LIG 0.00  C 
BRANCH 53 54
ATOM     54  CD  LYS D   4      14.446  11.848 143.168  1.00 50.17 LIG 0.03  C 
BRANCH 54 55
ATOM     55  CE  LYS D   4      13.368  12.875 142.968  1.00 57.03 LIG 0.23  C 
BRANCH 55 56
ATOM     56  NZ  LYS D   4      12.190  12.191 142.437  1.00 52.11 LIG-0.08  N 
ATOM     57 HZ3  LYS D   4      11.844  12.669 141.771  1.00 52.11 LIG 0.27  HD
ATOM     58 HZ2  LYS D   4      11.584  12.099 143.082  1.00 52.11 LIG 0.27  HD
ATOM     59 HZ1  LYS D   4      12.425  11.387 142.134  1.00 52.11 LIG 0.27  HD
ENDBRANCH 55 56
ENDBRANCH 54 55
ENDBRANCH 53 54
ENDBRANCH 52 53
ENDBRANCH 37 52
ENDBRANCH 35 37
ENDBRANCH 1 33
TORSDOF 24
ENDMDL
MODEL 16
USER: ADFR SOLUTION from run 148
USER: SCORE 18.571786 LL:  -3.348 LR: -17.711 RR:   0.000 FEB: -10.552
USER: RMSD 6.437964
USER: SEED 147
USER: STATUS searching
USER: GENES 26
USER: genes 0 Translation |==|  0.39694 0.26967 0.32435
USER: genes 1 Rotation |==|  0.45387 0.70496 0.39373 0.94110
USER: genes 2 Torsion [CB]-CA--N-[C] |==|  0.57795
USER: genes 3 Torsion [N]-C--CA-[N] |==|  0.17210
USER: genes 4 Torsion [C]-CA--CB-[CG] |==|  0.74582
USER: genes 5 Torsion [CA]-CB--CG-[CD] |==|  0.26620
USER: genes 6 Torsion [CB]-CG--CD-[NE] |==|  0.41330
USER: genes 7 Torsion [CG]-CD--NE-[HE] |==|  0.66107
USER: genes 8 Torsion [C]-CA--N-[C] |==|  0.65662
USER: genes 9 Torsion [N]-C--CA-[N] |==|  0.86046
USER: genes 10 Torsion [C]-CA--N-[H1] |==|  0.07852
USER: genes 11 Torsion [N]-CA--CB-[CG2] |==|  0.62235
USER: genes 12 Torsion [CA]-CB--OG1-[HG1] |==|  0.67434
USER: genes 13 Torsion [N]-CA--C-[N] |==|  0.80569
USER: genes 14 Torsion [C]-N--CA-[CB] |==|  0.38427
USER: genes 15 Torsion [N]-CA--C-[N] |==|  0.91258
USER: genes 16 Torsion [C]-N--CA-[CB] |==|  0.03665
USER: genes 17 Torsion [N]-CA--CB-[CG] |==|  0.56427
USER: genes 18 Torsion [CA]-CB--CG-[CD] |==|  0.40196
USER: genes 19 Torsion [CB]-CG--CD-[OE1] |==|  0.16480
USER: genes 20 Torsion [N]-CA--C-[O] |==|  0.92910
USER: genes 21 Torsion [N]-CA--CB-[CG] |==|  0.52260
USER: genes 22 Torsion [CA]-CB--CG-[CD] |==|  0.66707
USER: genes 23 Torsion [CB]-CG--CD-[CE] |==|  0.26839
USER: genes 24 Torsion [CG]-CD--CE-[NZ] |==|  0.12995
USER: genes 25 Torsion [CD]-CE--NZ-[HZ2] |==|  0.75307
ROOT
ATOM      1  CA  THR D   3      13.258  11.685 144.425  1.00 39.79 LIG 0.20  C 
ENDROOT
BRANCH 1 2
ATOM      2  N   THR D   3      11.956  12.081 144.961  1.00 34.46 LIG-0.34  N 
ATOM      3  C   ARG D   2      11.765  12.279 146.265  1.00 39.53 LIG 0.24  C 
ATOM      4 O    ARG D   2      12.625  12.024 147.110  1.00 39.08 LIG-0.27  OA
ATOM      5 H    THR D   3      11.341  12.172 144.366  1.00 34.46 LIG 0.16  HD
BRANCH 3 6
ATOM      6  CA  ARG D   2      10.397  12.827 146.694  1.00 42.24 LIG 0.18  C 
BRANCH 6 7
ATOM      7  CB  ARG D   2      10.352  13.035 148.209  1.00 49.82 LIG 0.04  C 
BRANCH 7 8
ATOM      8  CG  ARG D   2       9.840  11.867 149.040  1.00 55.24 LIG 0.02  C 
BRANCH 8 9
ATOM      9  CD  ARG D   2      11.020  11.031 149.559  1.00 55.63 LIG 0.14  C 
BRANCH 9 10
ATOM     10  NE  ARG D   2      10.747  10.405 150.854  1.00 65.78 LIG-0.23  N 
ATOM     11 HE   ARG D   2      11.278  10.589 151.505  1.00 65.78 LIG 0.18  HD
ATOM     12  CZ  ARG D   2       9.739   9.570 151.098  1.00 70.57 LIG 0.67  C 
ATOM     13  NH1 ARG D   2       8.892   9.240 150.134  1.00 66.11 LIG-0.23  N 
ATOM     14  NH2 ARG D   2       9.580   9.056 152.311  1.00 74.94 LIG-0.23  N 
ATOM     15 1HH1 ARG D   2       8.990   9.566 149.345  1.00 66.11 LIG 0.17  HD
ATOM     16 2HH1 ARG D   2       8.242   8.701 150.298  1.00 66.11 LIG 0.17  HD
ATOM     17 2HH2 ARG D   2       8.929   8.517 152.467  1.00 74.94 LIG 0.17  HD
ATOM     18 1HH2 ARG D   2      10.128   9.262 152.941  1.00 74.94 LIG 0.17  HD
ENDBRANCH 9 10
ENDBRANCH 8 9
ENDBRANCH 7 8
ENDBRANCH 6 7
BRANCH 6 19
ATOM     19  N   ARG D   2       9.345  11.884 146.326  1.00 42.84 LIG-0.35  N 
ATOM     20  C   ALA D   1       8.320  12.229 145.563  1.00 44.74 LIG 0.25  C 
ATOM     21 O    ALA D   1       8.139  13.380 145.175  1.00 48.31 LIG-0.27  OA
ATOM     22 H    ARG D   2       9.453  11.094 146.648  1.00 42.84 LIG 0.16  HD
BRANCH 20 23
ATOM     23  CA  ALA D   1       7.351  11.105 145.195  1.00 45.19 LIG 0.27  C 
ATOM     24  CB  ALA D   1       6.529  10.703 146.400  1.00 43.32 LIG 0.05  C 
BRANCH 23 25
ATOM     25  N   ALA D   1       8.070   9.955 144.674  1.00 39.75 LIG-0.07  N 
ATOM     26 H1   ALA D   1       8.888   9.932 145.025  1.00 39.75 LIG 0.28  HD
ATOM     27 H2   ALA D   1       7.634   9.210 144.890  1.00 39.75 LIG 0.28  HD
ATOM     28 H3   ALA D   1       8.129  10.018 143.788  1.00 39.75 LIG 0.28  HD
ENDBRANCH 23 25
ENDBRANCH 20 23
ENDBRANCH 6 19
ENDBRANCH 3 6
ENDBRANCH 1 2
BRANCH 1 29
ATOM     29  CB  THR D   3      13.459  12.168 142.971  1.00 46.90 LIG 0.15  C 
ATOM     30  CG2 THR D   3      14.062  11.070 142.114  1.00 44.81 LIG 0.04  C 
BRANCH 29 31
ATOM     31 OG1  THR D   3      12.196  12.554 142.412  1.00 48.09 LIG-0.39  OA
ATOM     32 HG1  THR D   3      12.014  12.057 141.759  1.00 48.09 LIG 0.21  HD
ENDBRANCH 29 31
ENDBRANCH 1 29
BRANCH 1 33
ATOM     33  C   THR D   3      14.386  12.256 145.283  1.00 42.40 LIG 0.24  C 
ATOM     34 O    THR D   3      15.050  11.526 146.026  1.00 40.34 LIG-0.27  OA
ATOM     35  N   LYS D   4      14.592  13.545 145.252  1.00 38.45 LIG-0.35  N 
ATOM     36 H    LYS D   4      14.186  14.093 144.730  1.00 38.45 LIG 0.16  HD
BRANCH 35 37
ATOM     37  CA  LYS D   4      15.561  14.144 146.136  1.00 37.56 LIG 0.18  C 
BRANCH 37 38
ATOM     38  C   LYS D   4      14.882  14.698 147.380  1.00 44.28 LIG 0.24  C 
ATOM     39 O    LYS D   4      15.478  14.724 148.389  1.00 49.08 LIG-0.27  OA
ATOM     40  N   GLN D   5      13.648  15.145 147.228  1.00 53.59 LIG-0.35  N 
ATOM     41 H    GLN D   5      13.387  15.351 146.434  1.00 53.59 LIG 0.16  HD
BRANCH 40 42
ATOM     42  CA  GLN D   5      12.531  15.391 148.186  1.00 61.39 LIG 0.16  C 
BRANCH 42 43
ATOM     43  CB  GLN D   5      12.914  15.380 149.672  1.00 20.00 LIG 0.04  C 
BRANCH 43 44
ATOM     44  CG  GLN D   5      11.721  15.069 150.609  1.00 20.00 LIG 0.10  C 
BRANCH 44 45
ATOM     45  CD  GLN D   5      12.036  14.248 151.859  1.00 20.00 LIG 0.21  C 
ATOM     46  NE2 GLN D   5      11.411  13.082 151.963  1.00 20.00 LIG-0.37  N 
ATOM     47 21HE GLN D   5      10.850  12.839 151.358  1.00 20.00 LIG 0.16  HD
ATOM     48 22HE GLN D   5      11.565  12.570 152.636  1.00 20.00 LIG 0.16  HD
ATOM     49 OE1  GLN D   5      12.847  14.641 152.701  1.00 20.00 LIG-0.27  OA
ENDBRANCH 44 45
ENDBRANCH 43 44
ENDBRANCH 42 43
BRANCH 42 50
ATOM     50  C   GLN D   5      11.437  16.401 147.942  1.00 64.61 LIG 0.22  C 
ATOM     51 O    GLN D   5      11.618  17.349 147.235  1.00 68.60 LIG-0.29  OA
ENDBRANCH 42 50
ENDBRANCH 40 42
ENDBRANCH 37 38
BRANCH 37 52
ATOM     52  CB  LYS D   4      16.362  15.193 145.396  1.00 33.42 LIG 0.04  C 
BRANCH 52 53
ATOM     53  CG  LYS D   4      17.492  15.728 146.144  1.00 40.53 LIG 0.00  C 
BRANCH 53 54
ATOM     54  CD  LYS D   4      17.335  17.145 146.317  1.00 50.17 LIG 0.03  C 
BRANCH 54 55
ATOM     55  CE  LYS D   4      16.731  17.473 147.653  1.00 57.03 LIG 0.23  C 
BRANCH 55 56
ATOM     56  NZ  LYS D   4      17.440  16.696 148.669  1.00 52.11 LIG-0.08  N 
ATOM     57 HZ3  LYS D   4      18.284  16.574 148.414  1.00 52.11 LIG 0.27  HD
ATOM     58 HZ2  LYS D   4      17.043  15.906 148.769  1.00 52.11 LIG 0.27  HD
ATOM     59 HZ1  LYS D   4      17.425  17.135 149.443  1.00 52.11 LIG 0.27  HD
ENDBRANCH 55 56
ENDBRANCH 54 55
ENDBRANCH 53 54
ENDBRANCH 52 53
ENDBRANCH 37 52
ENDBRANCH 35 37
ENDBRANCH 1 33
TORSDOF 24
ENDMDL
MODEL 17
USER: ADFR SOLUTION from run 68
USER: SCORE 18.578701 LL:  -2.304 LR: -17.643 RR:   0.000 FEB: -10.484
USER: RMSD 8.279676
USER: SEED 67
USER: STATUS searching
USER: GENES 26
USER: genes 0 Translation |==|  0.47886 0.32625 0.26467
USER: genes 1 Rotation |==|  0.13896 0.75734 0.70721 0.60242
USER: genes 2 Torsion [CB]-CA--N-[C] |==|  0.79376
USER: genes 3 Torsion [N]-C--CA-[N] |==|  0.20598
USER: genes 4 Torsion [C]-CA--CB-[CG] |==|  0.14790
USER: genes 5 Torsion [CA]-CB--CG-[CD] |==|  0.52185
USER: genes 6 Torsion [CB]-CG--CD-[NE] |==|  0.61842
USER: genes 7 Torsion [CG]-CD--NE-[HE] |==|  0.81046
USER: genes 8 Torsion [C]-CA--N-[C] |==|  0.77203
USER: genes 9 Torsion [N]-C--CA-[N] |==|  0.32527
USER: genes 10 Torsion [C]-CA--N-[H1] |==|  0.91359
USER: genes 11 Torsion [N]-CA--CB-[CG2] |==|  0.21551
USER: genes 12 Torsion [CA]-CB--OG1-[HG1] |==|  0.71505
USER: genes 13 Torsion [N]-CA--C-[N] |==|  0.55995
USER: genes 14 Torsion [C]-N--CA-[CB] |==|  0.77486
USER: genes 15 Torsion [N]-CA--C-[N] |==|  0.15000
USER: genes 16 Torsion [C]-N--CA-[CB] |==|  0.15734
USER: genes 17 Torsion [N]-CA--CB-[CG] |==|  0.03978
USER: genes 18 Torsion [CA]-CB--CG-[CD] |==|  0.23341
USER: genes 19 Torsion [CB]-CG--CD-[OE1] |==|  0.59933
USER: genes 20 Torsion [N]-CA--C-[O] |==|  0.90043
USER: genes 21 Torsion [N]-CA--CB-[CG] |==|  0.13745
USER: genes 22 Torsion [CA]-CB--CG-[CD] |==|  0.53968
USER: genes 23 Torsion [CB]-CG--CD-[CE] |==|  0.41664
USER: genes 24 Torsion [CG]-CD--CE-[NZ] |==|  0.67848
USER: genes 25 Torsion [CD]-CE--NZ-[HZ2] |==|  0.56493
ROOT
ATOM      1  CA  THR D   3      14.794  12.916 143.038  1.00 39.79 LIG 0.20  C 
ENDROOT
BRANCH 1 2
ATOM      2  N   THR D   3      15.080  13.271 144.426  1.00 34.46 LIG-0.34  N 
ATOM      3  C   ARG D   2      14.107  13.480 145.313  1.00 39.53 LIG 0.24  C 
ATOM      4 O    ARG D   2      12.915  13.511 144.998  1.00 39.08 LIG-0.27  OA
ATOM      5 H    THR D   3      15.918  13.330 144.611  1.00 34.46 LIG 0.16  HD
BRANCH 3 6
ATOM      6  CA  ARG D   2      14.528  13.707 146.771  1.00 42.24 LIG 0.18  C 
BRANCH 6 7
ATOM      7  CB  ARG D   2      13.321  13.589 147.704  1.00 49.82 LIG 0.04  C 
BRANCH 7 8
ATOM      8  CG  ARG D   2      12.497  12.315 147.588  1.00 55.24 LIG 0.02  C 
BRANCH 8 9
ATOM      9  CD  ARG D   2      11.223  12.432 148.440  1.00 55.63 LIG 0.14  C 
BRANCH 9 10
ATOM     10  NE  ARG D   2      10.924  11.210 149.189  1.00 65.78 LIG-0.23  N 
ATOM     11 HE   ARG D   2      10.688  10.516 148.740  1.00 65.78 LIG 0.18  HD
ATOM     12  CZ  ARG D   2      10.991  11.094 150.513  1.00 70.57 LIG 0.67  C 
ATOM     13  NH1 ARG D   2      11.341  12.131 151.261  1.00 66.11 LIG-0.23  N 
ATOM     14  NH2 ARG D   2      10.700   9.938 151.096  1.00 74.94 LIG-0.23  N 
ATOM     15 1HH1 ARG D   2      11.528  12.885 150.892  1.00 66.11 LIG 0.17  HD
ATOM     16 2HH1 ARG D   2      11.383  12.050 152.116  1.00 66.11 LIG 0.17  HD
ATOM     17 2HH2 ARG D   2      10.743   9.865 151.952  1.00 74.94 LIG 0.17  HD
ATOM     18 1HH2 ARG D   2      10.468   9.262 150.618  1.00 74.94 LIG 0.17  HD
ENDBRANCH 9 10
ENDBRANCH 8 9
ENDBRANCH 7 8
ENDBRANCH 6 7
BRANCH 6 19
ATOM     19  N   ARG D   2      15.100  15.042 146.922  1.00 42.84 LIG-0.35  N 
ATOM     20  C   ALA D   1      16.359  15.311 146.617  1.00 44.74 LIG 0.25  C 
ATOM     21 O    ALA D   1      17.156  14.447 146.261  1.00 48.31 LIG-0.27  OA
ATOM     22 H    ARG D   2      14.548  15.628 147.223  1.00 42.84 LIG 0.16  HD
BRANCH 20 23
ATOM     23  CA  ALA D   1      16.781  16.776 146.746  1.00 45.19 LIG 0.27  C 
ATOM     24  CB  ALA D   1      17.272  17.301 145.415  1.00 43.32 LIG 0.05  C 
BRANCH 23 25
ATOM     25  N   ALA D   1      17.814  16.926 147.756  1.00 39.75 LIG-0.07  N 
ATOM     26 H1   ALA D   1      17.703  16.311 148.389  1.00 39.75 LIG 0.28  HD
ATOM     27 H2   ALA D   1      18.614  16.822 147.380  1.00 39.75 LIG 0.28  HD
ATOM     28 H3   ALA D   1      17.760  17.737 148.118  1.00 39.75 LIG 0.28  HD
ENDBRANCH 23 25
ENDBRANCH 20 23
ENDBRANCH 6 19
ENDBRANCH 3 6
ENDBRANCH 1 2
BRANCH 1 29
ATOM     29  CB  THR D   3      14.318  11.452 142.897  1.00 46.90 LIG 0.15  C 
ATOM     30  CG2 THR D   3      12.867  11.311 143.315  1.00 44.81 LIG 0.04  C 
BRANCH 29 31
ATOM     31 OG1  THR D   3      14.454  11.031 141.534  1.00 48.09 LIG-0.39  OA
ATOM     32 HG1  THR D   3      13.701  11.040 141.161  1.00 48.09 LIG 0.21  HD
ENDBRANCH 29 31
ENDBRANCH 1 29
BRANCH 1 33
ATOM     33  C   THR D   3      13.713  13.831 142.463  1.00 42.40 LIG 0.24  C 
ATOM     34 O    THR D   3      13.449  14.914 142.996  1.00 40.34 LIG-0.27  OA
ATOM     35  N   LYS D   4      13.038  13.413 141.427  1.00 38.45 LIG-0.35  N 
ATOM     36 H    LYS D   4      13.202  12.687 140.996  1.00 38.45 LIG 0.16  HD
BRANCH 35 37
ATOM     37  CA  LYS D   4      11.928  14.185 140.927  1.00 37.56 LIG 0.18  C 
BRANCH 37 38
ATOM     38  C   LYS D   4      12.283  15.663 140.873  1.00 44.28 LIG 0.24  C 
ATOM     39 O    LYS D   4      11.597  16.434 141.430  1.00 49.08 LIG-0.27  OA
ATOM     40  N   GLN D   5      13.380  15.981 140.208  1.00 53.59 LIG-0.35  N 
ATOM     41 H    GLN D   5      13.964  15.365 140.073  1.00 53.59 LIG 0.16  HD
BRANCH 40 42
ATOM     42  CA  GLN D   5      13.864  17.254 139.598  1.00 61.39 LIG 0.16  C 
BRANCH 42 43
ATOM     43  CB  GLN D   5      13.971  18.452 140.551  1.00 20.00 LIG 0.04  C 
BRANCH 43 44
ATOM     44  CG  GLN D   5      13.894  18.055 142.045  1.00 20.00 LIG 0.10  C 
BRANCH 44 45
ATOM     45  CD  GLN D   5      15.201  17.598 142.694  1.00 20.00 LIG 0.21  C 
ATOM     46  NE2 GLN D   5      16.297  18.239 142.309  1.00 20.00 LIG-0.37  N 
ATOM     47 21HE GLN D   5      16.248  18.855 141.711  1.00 20.00 LIG 0.16  HD
ATOM     48 22HE GLN D   5      17.057  18.037 142.656  1.00 20.00 LIG 0.16  HD
ATOM     49 OE1  GLN D   5      15.221  16.707 143.547  1.00 20.00 LIG-0.27  OA
ENDBRANCH 44 45
ENDBRANCH 43 44
ENDBRANCH 42 43
BRANCH 42 50
ATOM     50  C   GLN D   5      14.968  17.313 138.570  1.00 64.61 LIG 0.22  C 
ATOM     51 O    GLN D   5      15.902  16.566 138.624  1.00 68.60 LIG-0.29  OA
ENDBRANCH 42 50
ENDBRANCH 40 42
ENDBRANCH 37 38
BRANCH 37 52
ATOM     52  CB  LYS D   4      10.690  13.914 141.753  1.00 33.42 LIG 0.04  C 
BRANCH 52 53
ATOM     53  CG  LYS D   4      10.892  14.015 143.193  1.00 40.53 LIG 0.00  C 
BRANCH 53 54
ATOM     54  CD  LYS D   4       9.779  13.426 143.884  1.00 50.17 LIG 0.03  C 
BRANCH 54 55
ATOM     55  CE  LYS D   4      10.194  12.850 145.208  1.00 57.03 LIG 0.23  C 
BRANCH 55 56
ATOM     56  NZ  LYS D   4       9.987  11.404 145.152  1.00 52.11 LIG-0.08  N 
ATOM     57 HZ3  LYS D   4       9.252  11.227 144.681  1.00 52.11 LIG 0.27  HD
ATOM     58 HZ2  LYS D   4       9.893  11.085 145.978  1.00 52.11 LIG 0.27  HD
ATOM     59 HZ1  LYS D   4      10.688  11.018 144.763  1.00 52.11 LIG 0.27  HD
ENDBRANCH 55 56
ENDBRANCH 54 55
ENDBRANCH 53 54
ENDBRANCH 52 53
ENDBRANCH 37 52
ENDBRANCH 35 37
ENDBRANCH 1 33
TORSDOF 24
ENDMDL
MODEL 18
USER: ADFR SOLUTION from run 16
USER: SCORE 18.168338 LL:  -2.877 LR: -17.642 RR:   0.000 FEB: -10.483
USER: RMSD 9.274432
USER: SEED 660831
USER: STATUS no improvement in best in 8 clusters for 5 generations
USER: GENES 26
USER: genes 0 Translation |==|  0.38740 0.35036 0.28409
USER: genes 1 Rotation |==|  0.11810 0.69868 0.72922 0.61017
USER: genes 2 Torsion [CB]-CA--N-[C] |==|  0.19444
USER: genes 3 Torsion [N]-C--CA-[N] |==|  0.75689
USER: genes 4 Torsion [C]-CA--CB-[CG] |==|  0.15408
USER: genes 5 Torsion [CA]-CB--CG-[CD] |==|  0.47382
USER: genes 6 Torsion [CB]-CG--CD-[NE] |==|  0.61765
USER: genes 7 Torsion [CG]-CD--NE-[HE] |==|  0.82776
USER: genes 8 Torsion [C]-CA--N-[C] |==|  0.83046
USER: genes 9 Torsion [N]-C--CA-[N] |==|  0.31408
USER: genes 10 Torsion [C]-CA--N-[H1] |==|  0.02081
USER: genes 11 Torsion [N]-CA--CB-[CG2] |==|  0.72860
USER: genes 12 Torsion [CA]-CB--OG1-[HG1] |==|  0.35850
USER: genes 13 Torsion [N]-CA--C-[N] |==|  0.65171
USER: genes 14 Torsion [C]-N--CA-[CB] |==|  0.80933
USER: genes 15 Torsion [N]-CA--C-[N] |==|  0.23369
USER: genes 16 Torsion [C]-N--CA-[CB] |==|  0.24806
USER: genes 17 Torsion [N]-CA--CB-[CG] |==|  0.91776
USER: genes 18 Torsion [CA]-CB--CG-[CD] |==|  0.28009
USER: genes 19 Torsion [CB]-CG--CD-[OE1] |==|  0.23190
USER: genes 20 Torsion [N]-CA--C-[O] |==|  0.98019
USER: genes 21 Torsion [N]-CA--CB-[CG] |==|  0.78084
USER: genes 22 Torsion [CA]-CB--CG-[CD] |==|  0.35653
USER: genes 23 Torsion [CB]-CG--CD-[CE] |==|  0.78871
USER: genes 24 Torsion [CG]-CD--CE-[NZ] |==|  0.77664
USER: genes 25 Torsion [CD]-CE--NZ-[HZ2] |==|  0.39751
ROOT
ATOM      1  CA  THR D   3      13.079  13.440 143.489  1.00 39.79 LIG 0.20  C 
ENDROOT
BRANCH 1 2
ATOM      2  N   THR D   3      13.255  13.635 144.927  1.00 34.46 LIG-0.34  N 
ATOM      3  C   ARG D   2      14.376  13.275 145.552  1.00 39.53 LIG 0.24  C 
ATOM      4 O    ARG D   2      15.278  12.649 144.992  1.00 39.08 LIG-0.27  OA
ATOM      5 H    THR D   3      12.581  13.996 145.321  1.00 34.46 LIG 0.16  HD
BRANCH 3 6
ATOM      6  CA  ARG D   2      14.502  13.656 147.034  1.00 42.24 LIG 0.18  C 
BRANCH 6 7
ATOM      7  CB  ARG D   2      13.129  13.649 147.709  1.00 49.82 LIG 0.04  C 
BRANCH 7 8
ATOM      8  CG  ARG D   2      12.330  12.358 147.607  1.00 55.24 LIG 0.02  C 
BRANCH 8 9
ATOM      9  CD  ARG D   2      11.097  12.426 148.522  1.00 55.63 LIG 0.14  C 
BRANCH 9 10
ATOM     10  NE  ARG D   2      10.861  11.180 149.254  1.00 65.78 LIG-0.23  N 
ATOM     11 HE   ARG D   2      10.698  10.473 148.794  1.00 65.78 LIG 0.18  HD
ATOM     12  CZ  ARG D   2      10.880  11.062 150.580  1.00 70.57 LIG 0.67  C 
ATOM     13  NH1 ARG D   2      11.118  12.117 151.346  1.00 66.11 LIG-0.23  N 
ATOM     14  NH2 ARG D   2      10.653   9.883 151.146  1.00 74.94 LIG-0.23  N 
ATOM     15 1HH1 ARG D   2      11.262  12.885 150.987  1.00 66.11 LIG 0.17  HD
ATOM     16 2HH1 ARG D   2      11.129  12.035 152.201  1.00 66.11 LIG 0.17  HD
ATOM     17 2HH2 ARG D   2      10.666   9.808 152.003  1.00 74.94 LIG 0.17  HD
ATOM     18 1HH2 ARG D   2      10.494   9.194 150.656  1.00 74.94 LIG 0.17  HD
ENDBRANCH 9 10
ENDBRANCH 8 9
ENDBRANCH 7 8
ENDBRANCH 6 7
BRANCH 6 19
ATOM     19  N   ARG D   2      15.070  14.996 147.156  1.00 42.84 LIG-0.35  N 
ATOM     20  C   ALA D   1      16.274  15.298 146.698  1.00 44.74 LIG 0.25  C 
ATOM     21 O    ALA D   1      17.028  14.462 146.209  1.00 48.31 LIG-0.27  OA
ATOM     22 H    ARG D   2      14.555  15.561 147.549  1.00 42.84 LIG 0.16  HD
BRANCH 20 23
ATOM     23  CA  ALA D   1      16.689  16.765 146.824  1.00 45.19 LIG 0.27  C 
ATOM     24  CB  ALA D   1      17.087  17.317 145.473  1.00 43.32 LIG 0.05  C 
BRANCH 23 25
ATOM     25  N   ALA D   1      17.785  16.910 147.767  1.00 39.75 LIG-0.07  N 
ATOM     26 H1   ALA D   1      18.076  16.105 148.010  1.00 39.75 LIG 0.28  HD
ATOM     27 H2   ALA D   1      18.448  17.362 147.383  1.00 39.75 LIG 0.28  HD
ATOM     28 H3   ALA D   1      17.502  17.352 148.486  1.00 39.75 LIG 0.28  HD
ENDBRANCH 23 25
ENDBRANCH 20 23
ENDBRANCH 6 19
ENDBRANCH 3 6
ENDBRANCH 1 2
BRANCH 1 29
ATOM     29  CB  THR D   3      12.937  11.947 143.117  1.00 46.90 LIG 0.15  C 
ATOM     30  CG2 THR D   3      14.262  11.378 142.646  1.00 44.81 LIG 0.04  C 
BRANCH 29 31
ATOM     31 OG1  THR D   3      12.493  11.206 144.261  1.00 48.09 LIG-0.39  OA
ATOM     32 HG1  THR D   3      11.828  10.737 144.051  1.00 48.09 LIG 0.21  HD
ENDBRANCH 29 31
ENDBRANCH 1 29
BRANCH 1 33
ATOM     33  C   THR D   3      11.835  14.180 142.997  1.00 42.40 LIG 0.24  C 
ATOM     34 O    THR D   3      11.665  15.376 143.254  1.00 40.34 LIG-0.27  OA
ATOM     35  N   LYS D   4      10.931  13.500 142.346  1.00 38.45 LIG-0.35  N 
ATOM     36 H    LYS D   4      11.013  12.677 142.110  1.00 38.45 LIG 0.16  HD
BRANCH 35 37
ATOM     37  CA  LYS D   4       9.687  14.124 141.971  1.00 37.56 LIG 0.18  C 
BRANCH 37 38
ATOM     38  C   LYS D   4       9.942  15.371 141.136  1.00 44.28 LIG 0.24  C 
ATOM     39 O    LYS D   4       9.983  16.414 141.670  1.00 49.08 LIG-0.27  OA
ATOM     40  N   GLN D   5      10.130  15.184 139.841  1.00 53.59 LIG-0.35  N 
ATOM     41 H    GLN D   5      10.361  14.400 139.575  1.00 53.59 LIG 0.16  HD
BRANCH 40 42
ATOM     42  CA  GLN D   5      10.024  16.088 138.659  1.00 61.39 LIG 0.16  C 
BRANCH 42 43
ATOM     43  CB  GLN D   5      11.304  16.848 138.285  1.00 20.00 LIG 0.04  C 
BRANCH 43 44
ATOM     44  CG  GLN D   5      12.218  17.144 139.498  1.00 20.00 LIG 0.10  C 
BRANCH 44 45
ATOM     45  CD  GLN D   5      13.424  16.223 139.680  1.00 20.00 LIG 0.21  C 
ATOM     46  NE2 GLN D   5      13.254  15.197 140.505  1.00 20.00 LIG-0.37  N 
ATOM     47 21HE GLN D   5      12.506  15.094 140.916  1.00 20.00 LIG 0.16  HD
ATOM     48 22HE GLN D   5      13.893  14.635 140.629  1.00 20.00 LIG 0.16  HD
ATOM     49 OE1  GLN D   5      14.478  16.412 139.069  1.00 20.00 LIG-0.27  OA
ENDBRANCH 44 45
ENDBRANCH 43 44
ENDBRANCH 42 43
BRANCH 42 50
ATOM     50  C   GLN D   5       9.250  15.735 137.412  1.00 64.61 LIG 0.22  C 
ATOM     51 O    GLN D   5       8.782  14.644 137.265  1.00 68.60 LIG-0.29  OA
ENDBRANCH 42 50
ENDBRANCH 40 42
ENDBRANCH 37 38
BRANCH 37 52
ATOM     52  CB  LYS D   4       8.854  14.409 143.202  1.00 33.42 LIG 0.04  C 
BRANCH 52 53
ATOM     53  CG  LYS D   4       8.149  13.251 143.735  1.00 40.53 LIG 0.00  C 
BRANCH 53 54
ATOM     54  CD  LYS D   4       8.424  13.116 145.137  1.00 50.17 LIG 0.03  C 
BRANCH 54 55
ATOM     55  CE  LYS D   4       9.797  12.555 145.379  1.00 57.03 LIG 0.23  C 
BRANCH 55 56
ATOM     56  NZ  LYS D   4       9.726  11.105 145.201  1.00 52.11 LIG-0.08  N 
ATOM     57 HZ3  LYS D   4       9.631  10.713 145.995  1.00 52.11 LIG 0.27  HD
ATOM     58 HZ2  LYS D   4      10.474  10.816 144.816  1.00 52.11 LIG 0.27  HD
ATOM     59 HZ1  LYS D   4       9.029  10.903 144.686  1.00 52.11 LIG 0.27  HD
ENDBRANCH 55 56
ENDBRANCH 54 55
ENDBRANCH 53 54
ENDBRANCH 52 53
ENDBRANCH 37 52
ENDBRANCH 35 37
ENDBRANCH 1 33
TORSDOF 24
ENDMDL
MODEL 19
USER: ADFR SOLUTION from run 169
USER: SCORE 18.946782 LL:  -3.043 LR: -17.626 RR:   0.000 FEB: -10.467
USER: RMSD 5.800168
USER: SEED 168
USER: STATUS no improvement in best in 14 clusters for 5 generations
USER: GENES 26
USER: genes 0 Translation |==|  0.54008 0.46161 0.50070
USER: genes 1 Rotation |==|  0.50999 0.57455 0.53892 0.99278
USER: genes 2 Torsion [CB]-CA--N-[C] |==|  0.28059
USER: genes 3 Torsion [N]-C--CA-[N] |==|  0.50503
USER: genes 4 Torsion [C]-CA--CB-[CG] |==|  0.63205
USER: genes 5 Torsion [CA]-CB--CG-[CD] |==|  0.54543
USER: genes 6 Torsion [CB]-CG--CD-[NE] |==|  0.62944
USER: genes 7 Torsion [CG]-CD--NE-[HE] |==|  0.30468
USER: genes 8 Torsion [C]-CA--N-[C] |==|  0.75803
USER: genes 9 Torsion [N]-C--CA-[N] |==|  0.22071
USER: genes 10 Torsion [C]-CA--N-[H1] |==|  0.51356
USER: genes 11 Torsion [N]-CA--CB-[CG2] |==|  0.24790
USER: genes 12 Torsion [CA]-CB--OG1-[HG1] |==|  0.69795
USER: genes 13 Torsion [N]-CA--C-[N] |==|  0.44734
USER: genes 14 Torsion [C]-N--CA-[CB] |==|  0.85227
USER: genes 15 Torsion [N]-CA--C-[N] |==|  0.32880
USER: genes 16 Torsion [C]-N--CA-[CB] |==|  0.35020
USER: genes 17 Torsion [N]-CA--CB-[CG] |==|  0.61909
USER: genes 18 Torsion [CA]-CB--CG-[CD] |==|  0.44611
USER: genes 19 Torsion [CB]-CG--CD-[OE1] |==|  0.10042
USER: genes 20 Torsion [N]-CA--C-[O] |==|  0.14498
USER: genes 21 Torsion [N]-CA--CB-[CG] |==|  0.38608
USER: genes 22 Torsion [CA]-CB--CG-[CD] |==|  0.61924
USER: genes 23 Torsion [CB]-CG--CD-[CE] |==|  0.36054
USER: genes 24 Torsion [CG]-CD--CE-[NZ] |==|  0.89900
USER: genes 25 Torsion [CD]-CE--NZ-[HZ2] |==|  0.20761
ROOT
ATOM      1  CA  THR D   3      15.941  15.860 148.525  1.00 39.79 LIG 0.20  C 
ENDROOT
BRANCH 1 2
ATOM      2  N   THR D   3      14.562  15.451 148.267  1.00 34.46 LIG-0.34  N 
ATOM      3  C   ARG D   2      14.275  14.345 147.580  1.00 39.53 LIG 0.24  C 
ATOM      4 O    ARG D   2      15.139  13.669 147.016  1.00 39.08 LIG-0.27  OA
ATOM      5 H    THR D   3      13.968  15.980 148.593  1.00 34.46 LIG 0.16  HD
BRANCH 3 6
ATOM      6  CA  ARG D   2      12.797  13.942 147.492  1.00 42.24 LIG 0.18  C 
BRANCH 6 7
ATOM      7  CB  ARG D   2      12.213  13.734 148.891  1.00 49.82 LIG 0.04  C 
BRANCH 7 8
ATOM      8  CG  ARG D   2      11.405  12.462 149.106  1.00 55.24 LIG 0.02  C 
BRANCH 8 9
ATOM      9  CD  ARG D   2      10.562  12.582 150.385  1.00 55.63 LIG 0.14  C 
BRANCH 9 10
ATOM     10  NE  ARG D   2      10.650  11.396 151.239  1.00 65.78 LIG-0.23  N 
ATOM     11 HE   ARG D   2      11.075  11.470 151.982  1.00 65.78 LIG 0.18  HD
ATOM     12  CZ  ARG D   2      10.120  10.209 150.948  1.00 70.57 LIG 0.67  C 
ATOM     13  NH1 ARG D   2       9.459  10.028 149.814  1.00 66.11 LIG-0.23  N 
ATOM     14  NH2 ARG D   2      10.257   9.195 151.794  1.00 74.94 LIG-0.23  N 
ATOM     15 1HH1 ARG D   2       9.370  10.679 149.260  1.00 66.11 LIG 0.17  HD
ATOM     16 2HH1 ARG D   2       9.119   9.259 149.632  1.00 66.11 LIG 0.17  HD
ATOM     17 2HH2 ARG D   2       9.914   8.429 151.604  1.00 74.94 LIG 0.17  HD
ATOM     18 1HH2 ARG D   2      10.688   9.303 152.530  1.00 74.94 LIG 0.17  HD
ENDBRANCH 9 10
ENDBRANCH 8 9
ENDBRANCH 7 8
ENDBRANCH 6 7
BRANCH 6 19
ATOM     19  N   ARG D   2      12.665  12.694 146.746  1.00 42.84 LIG-0.35  N 
ATOM     20  C   ALA D   1      12.555  12.667 145.427  1.00 44.74 LIG 0.25  C 
ATOM     21 O    ALA D   1      12.479  13.685 144.745  1.00 48.31 LIG-0.27  OA
ATOM     22 H    ARG D   2      12.665  11.989 147.237  1.00 42.84 LIG 0.16  HD
BRANCH 20 23
ATOM     23  CA  ALA D   1      12.514  11.278 144.788  1.00 45.19 LIG 0.27  C 
ATOM     24  CB  ALA D   1      12.918  11.357 143.332  1.00 43.32 LIG 0.05  C 
BRANCH 23 25
ATOM     25  N   ALA D   1      11.189  10.695 144.908  1.00 39.75 LIG-0.07  N 
ATOM     26 H1   ALA D   1      11.201   9.862 144.595  1.00 39.75 LIG 0.28  HD
ATOM     27 H2   ALA D   1      10.946  10.686 145.764  1.00 39.75 LIG 0.28  HD
ATOM     28 H3   ALA D   1      10.607  11.179 144.440  1.00 39.75 LIG 0.28  HD
ENDBRANCH 23 25
ENDBRANCH 20 23
ENDBRANCH 6 19
ENDBRANCH 3 6
ENDBRANCH 1 2
BRANCH 1 29
ATOM     29  CB  THR D   3      16.404  16.984 147.570  1.00 46.90 LIG 0.15  C 
ATOM     30  CG2 THR D   3      16.087  18.351 148.148  1.00 44.81 LIG 0.04  C 
BRANCH 29 31
ATOM     31 OG1  THR D   3      17.818  16.883 147.358  1.00 48.09 LIG-0.39  OA
ATOM     32 HG1  THR D   3      18.207  17.517 147.750  1.00 48.09 LIG 0.21  HD
ENDBRANCH 29 31
ENDBRANCH 1 29
BRANCH 1 33
ATOM     33  C   THR D   3      16.092  16.357 149.963  1.00 42.40 LIG 0.24  C 
ATOM     34 O    THR D   3      15.113  16.753 150.603  1.00 40.34 LIG-0.27  OA
ATOM     35  N   LYS D   4      17.291  16.403 150.476  1.00 38.45 LIG-0.35  N 
ATOM     36 H    LYS D   4      18.001  16.108 150.091  1.00 38.45 LIG 0.16  HD
BRANCH 35 37
ATOM     37  CA  LYS D   4      17.498  16.979 151.782  1.00 37.56 LIG 0.18  C 
BRANCH 37 38
ATOM     38  C   LYS D   4      16.947  16.064 152.866  1.00 44.28 LIG 0.24  C 
ATOM     39 O    LYS D   4      15.804  15.800 152.861  1.00 49.08 LIG-0.27  OA
ATOM     40  N   GLN D   5      17.819  15.599 153.743  1.00 53.59 LIG-0.35  N 
ATOM     41 H    GLN D   5      18.652  15.603 153.527  1.00 53.59 LIG 0.16  HD
BRANCH 40 42
ATOM     42  CA  GLN D   5      17.675  15.031 155.115  1.00 61.39 LIG 0.16  C 
BRANCH 42 43
ATOM     43  CB  GLN D   5      18.310  13.650 155.335  1.00 20.00 LIG 0.04  C 
BRANCH 43 44
ATOM     44  CG  GLN D   5      17.414  12.688 156.152  1.00 20.00 LIG 0.10  C 
BRANCH 44 45
ATOM     45  CD  GLN D   5      17.734  11.198 156.033  1.00 20.00 LIG 0.21  C 
ATOM     46  NE2 GLN D   5      16.690  10.378 156.015  1.00 20.00 LIG-0.37  N 
ATOM     47 21HE GLN D   5      15.894  10.694 156.089  1.00 20.00 LIG 0.16  HD
ATOM     48 22HE GLN D   5      16.810   9.531 155.929  1.00 20.00 LIG 0.16  HD
ATOM     49 OE1  GLN D   5      18.894  10.794 155.931  1.00 20.00 LIG-0.27  OA
ENDBRANCH 44 45
ENDBRANCH 43 44
ENDBRANCH 42 43
BRANCH 42 50
ATOM     50  C   GLN D   5      17.793  15.859 156.372  1.00 64.61 LIG 0.22  C 
ATOM     51 O    GLN D   5      17.149  16.857 156.515  1.00 68.60 LIG-0.29  OA
ENDBRANCH 42 50
ENDBRANCH 40 42
ENDBRANCH 37 38
BRANCH 37 52
ATOM     52  CB  LYS D   4      16.904  18.369 151.838  1.00 33.42 LIG 0.04  C 
BRANCH 52 53
ATOM     53  CG  LYS D   4      16.206  18.678 153.080  1.00 40.53 LIG 0.00  C 
BRANCH 53 54
ATOM     54  CD  LYS D   4      14.978  19.364 152.791  1.00 50.17 LIG 0.03  C 
BRANCH 54 55
ATOM     55  CE  LYS D   4      13.814  18.733 153.501  1.00 57.03 LIG 0.23  C 
BRANCH 55 56
ATOM     56  NZ  LYS D   4      14.029  17.287 153.517  1.00 52.11 LIG-0.08  N 
ATOM     57 HZ3  LYS D   4      13.270  16.876 153.734  1.00 52.11 LIG 0.27  HD
ATOM     58 HZ2  LYS D   4      14.656  17.086 154.115  1.00 52.11 LIG 0.27  HD
ATOM     59 HZ1  LYS D   4      14.291  17.017 152.710  1.00 52.11 LIG 0.27  HD
ENDBRANCH 55 56
ENDBRANCH 54 55
ENDBRANCH 53 54
ENDBRANCH 52 53
ENDBRANCH 37 52
ENDBRANCH 35 37
ENDBRANCH 1 33
TORSDOF 24
ENDMDL
MODEL 20
USER: ADFR SOLUTION from run 164
USER: SCORE 17.882592 LL:  -2.531 LR: -17.618 RR:   0.000 FEB: -10.459
USER: RMSD 7.026557
USER: SEED 163
USER: STATUS no improvement in best in 15 clusters for 5 generations
USER: GENES 26
USER: genes 0 Translation |==|  0.43426 0.29001 0.33105
USER: genes 1 Rotation |==|  0.27012 0.73106 0.48940 0.87902
USER: genes 2 Torsion [CB]-CA--N-[C] |==|  0.53653
USER: genes 3 Torsion [N]-C--CA-[N] |==|  0.99780
USER: genes 4 Torsion [C]-CA--CB-[CG] |==|  0.52783
USER: genes 5 Torsion [CA]-CB--CG-[CD] |==|  0.43198
USER: genes 6 Torsion [CB]-CG--CD-[NE] |==|  0.64470
USER: genes 7 Torsion [CG]-CD--NE-[HE] |==|  0.09721
USER: genes 8 Torsion [C]-CA--N-[C] |==|  0.77721
USER: genes 9 Torsion [N]-C--CA-[N] |==|  0.92822
USER: genes 10 Torsion [C]-CA--N-[H1] |==|  0.24110
USER: genes 11 Torsion [N]-CA--CB-[CG2] |==|  0.55491
USER: genes 12 Torsion [CA]-CB--OG1-[HG1] |==|  0.19277
USER: genes 13 Torsion [N]-CA--C-[N] |==|  0.78658
USER: genes 14 Torsion [C]-N--CA-[CB] |==|  0.47818
USER: genes 15 Torsion [N]-CA--C-[N] |==|  0.27423
USER: genes 16 Torsion [C]-N--CA-[CB] |==|  0.28795
USER: genes 17 Torsion [N]-CA--CB-[CG] |==|  0.54437
USER: genes 18 Torsion [CA]-CB--CG-[CD] |==|  0.56086
USER: genes 19 Torsion [CB]-CG--CD-[OE1] |==|  0.70254
USER: genes 20 Torsion [N]-CA--C-[O] |==|  0.17633
USER: genes 21 Torsion [N]-CA--CB-[CG] |==|  0.86556
USER: genes 22 Torsion [CA]-CB--CG-[CD] |==|  0.32875
USER: genes 23 Torsion [CB]-CG--CD-[CE] |==|  0.71004
USER: genes 24 Torsion [CG]-CD--CE-[NZ] |==|  0.87779
USER: genes 25 Torsion [CD]-CE--NZ-[HZ2] |==|  0.79668
ROOT
ATOM      1  CA  THR D   3      13.957  12.128 144.581  1.00 39.79 LIG 0.20  C 
ENDROOT
BRANCH 1 2
ATOM      2  N   THR D   3      12.836  12.152 145.518  1.00 34.46 LIG-0.34  N 
ATOM      3  C   ARG D   2      12.945  12.698 146.729  1.00 39.53 LIG 0.24  C 
ATOM      4 O    ARG D   2      14.018  13.102 147.183  1.00 39.08 LIG-0.27  OA
ATOM      5 H    THR D   3      12.116  11.789 145.219  1.00 34.46 LIG 0.16  HD
BRANCH 3 6
ATOM      6  CA  ARG D   2      11.665  12.791 147.570  1.00 42.24 LIG 0.18  C 
BRANCH 6 7
ATOM      7  CB  ARG D   2      11.813  11.991 148.866  1.00 49.82 LIG 0.04  C 
BRANCH 7 8
ATOM      8  CG  ARG D   2      10.549  11.794 149.691  1.00 55.24 LIG 0.02  C 
BRANCH 8 9
ATOM      9  CD  ARG D   2      10.681  10.537 150.566  1.00 55.63 LIG 0.14  C 
BRANCH 9 10
ATOM     10  NE  ARG D   2       9.552   9.617 150.413  1.00 65.78 LIG-0.23  N 
ATOM     11 HE   ARG D   2       9.194   9.551 149.635  1.00 65.78 LIG 0.18  HD
ATOM     12  CZ  ARG D   2       9.038   8.876 151.392  1.00 70.57 LIG 0.67  C 
ATOM     13  NH1 ARG D   2       9.540   8.938 152.617  1.00 66.11 LIG-0.23  N 
ATOM     14  NH2 ARG D   2       8.012   8.070 151.148  1.00 74.94 LIG-0.23  N 
ATOM     15 1HH1 ARG D   2      10.202   9.460 152.784  1.00 66.11 LIG 0.17  HD
ATOM     16 2HH1 ARG D   2       9.204   8.456 153.245  1.00 66.11 LIG 0.17  HD
ATOM     17 2HH2 ARG D   2       7.680   7.592 151.781  1.00 74.94 LIG 0.17  HD
ATOM     18 1HH2 ARG D   2       7.678   8.027 150.357  1.00 74.94 LIG 0.17  HD
ENDBRANCH 9 10
ENDBRANCH 8 9
ENDBRANCH 7 8
ENDBRANCH 6 7
BRANCH 6 19
ATOM     19  N   ARG D   2      10.535  12.250 146.820  1.00 42.84 LIG-0.35  N 
ATOM     20  C   ALA D   1       9.902  12.949 145.892  1.00 44.74 LIG 0.25  C 
ATOM     21 O    ALA D   1      10.166  14.124 145.650  1.00 48.31 LIG-0.27  OA
ATOM     22 H    ARG D   2      10.324  11.445 147.035  1.00 42.84 LIG 0.16  HD
BRANCH 20 23
ATOM     23  CA  ALA D   1       8.798  12.211 145.134  1.00 45.19 LIG 0.27  C 
ATOM     24  CB  ALA D   1       7.448  12.508 145.749  1.00 43.32 LIG 0.05  C 
BRANCH 23 25
ATOM     25  N   ALA D   1       9.043  10.779 145.134  1.00 39.75 LIG-0.07  N 
ATOM     26 H1   ALA D   1       8.695  10.418 145.869  1.00 39.75 LIG 0.28  HD
ATOM     27 H2   ALA D   1       8.664  10.413 144.417  1.00 39.75 LIG 0.28  HD
ATOM     28 H3   ALA D   1       9.920  10.627 145.116  1.00 39.75 LIG 0.28  HD
ENDBRANCH 23 25
ENDBRANCH 20 23
ENDBRANCH 6 19
ENDBRANCH 3 6
ENDBRANCH 1 2
BRANCH 1 29
ATOM     29  CB  THR D   3      13.512  11.748 143.151  1.00 46.90 LIG 0.15  C 
ATOM     30  CG2 THR D   3      14.690  11.260 142.328  1.00 44.81 LIG 0.04  C 
BRANCH 29 31
ATOM     31 OG1  THR D   3      12.526  10.709 143.214  1.00 48.09 LIG-0.39  OA
ATOM     32 HG1  THR D   3      11.813  11.017 143.535  1.00 48.09 LIG 0.21  HD
ENDBRANCH 29 31
ENDBRANCH 1 29
BRANCH 1 33
ATOM     33  C   THR D   3      14.640  13.494 144.527  1.00 42.40 LIG 0.24  C 
ATOM     34 O    THR D   3      15.686  13.706 145.148  1.00 40.34 LIG-0.27  OA
ATOM     35  N   LYS D   4      14.058  14.447 143.852  1.00 38.45 LIG-0.35  N 
ATOM     36 H    LYS D   4      13.350  14.347 143.373  1.00 38.45 LIG 0.16  HD
BRANCH 35 37
ATOM     37  CA  LYS D   4      14.598  15.784 143.873  1.00 37.56 LIG 0.18  C 
BRANCH 37 38
ATOM     38  C   LYS D   4      14.560  16.355 145.283  1.00 44.28 LIG 0.24  C 
ATOM     39 O    LYS D   4      13.552  16.793 145.692  1.00 49.08 LIG-0.27  OA
ATOM     40  N   GLN D   5      15.685  16.294 145.973  1.00 53.59 LIG-0.35  N 
ATOM     41 H    GLN D   5      16.282  15.726 145.726  1.00 53.59 LIG 0.16  HD
BRANCH 40 42
ATOM     42  CA  GLN D   5      16.187  17.038 147.165  1.00 61.39 LIG 0.16  C 
BRANCH 42 43
ATOM     43  CB  GLN D   5      16.143  16.274 148.496  1.00 20.00 LIG 0.04  C 
BRANCH 43 44
ATOM     44  CG  GLN D   5      16.295  17.191 149.733  1.00 20.00 LIG 0.10  C 
BRANCH 44 45
ATOM     45  CD  GLN D   5      16.775  16.520 151.020  1.00 20.00 LIG 0.21  C 
ATOM     46  NE2 GLN D   5      18.063  16.201 151.065  1.00 20.00 LIG-0.37  N 
ATOM     47 21HE GLN D   5      18.568  16.355 150.387  1.00 20.00 LIG 0.16  HD
ATOM     48 22HE GLN D   5      18.392  15.840 151.772  1.00 20.00 LIG 0.16  HD
ATOM     49 OE1  GLN D   5      16.011  16.318 151.967  1.00 20.00 LIG-0.27  OA
ENDBRANCH 44 45
ENDBRANCH 43 44
ENDBRANCH 42 43
BRANCH 42 50
ATOM     50  C   GLN D   5      17.395  17.943 147.129  1.00 64.61 LIG 0.22  C 
ATOM     51 O    GLN D   5      17.407  18.930 146.453  1.00 68.60 LIG-0.29  OA
ENDBRANCH 42 50
ENDBRANCH 40 42
ENDBRANCH 37 38
BRANCH 37 52
ATOM     52  CB  LYS D   4      13.872  16.656 142.873  1.00 33.42 LIG 0.04  C 
BRANCH 52 53
ATOM     53  CG  LYS D   4      13.732  16.066 141.547  1.00 40.53 LIG 0.00  C 
BRANCH 53 54
ATOM     54  CD  LYS D   4      12.341  15.906 141.230  1.00 50.17 LIG 0.03  C 
BRANCH 54 55
ATOM     55  CE  LYS D   4      11.910  14.471 141.349  1.00 57.03 LIG 0.23  C 
BRANCH 55 56
ATOM     56  NZ  LYS D   4      12.940  13.641 140.725  1.00 52.11 LIG-0.08  N 
ATOM     57 HZ3  LYS D   4      13.743  13.900 141.009  1.00 52.11 LIG 0.27  HD
ATOM     58 HZ2  LYS D   4      12.896  13.727 139.841  1.00 52.11 LIG 0.27  HD
ATOM     59 HZ1  LYS D   4      12.809  12.789 140.947  1.00 52.11 LIG 0.27  HD
ENDBRANCH 55 56
ENDBRANCH 54 55
ENDBRANCH 53 54
ENDBRANCH 52 53
ENDBRANCH 37 52
ENDBRANCH 35 37
ENDBRANCH 1 33
TORSDOF 24
ENDMDL
MODEL 21
USER: ADFR SOLUTION from run 200
USER: SCORE 17.841311 LL:  -1.612 LR: -17.582 RR:   0.000 FEB: -10.423
USER: RMSD 7.576415
USER: SEED 199
USER: STATUS 1 or 2 clusters left
USER: GENES 26
USER: genes 0 Translation |==|  0.25169 0.29216 0.44720
USER: genes 1 Rotation |==|  0.47060 0.89857 0.56166 0.79407
USER: genes 2 Torsion [CB]-CA--N-[C] |==|  0.78785
USER: genes 3 Torsion [N]-C--CA-[N] |==|  0.40390
USER: genes 4 Torsion [C]-CA--CB-[CG] |==|  0.37179
USER: genes 5 Torsion [CA]-CB--CG-[CD] |==|  0.94698
USER: genes 6 Torsion [CB]-CG--CD-[NE] |==|  0.45266
USER: genes 7 Torsion [CG]-CD--NE-[HE] |==|  0.06438
USER: genes 8 Torsion [C]-CA--N-[C] |==|  0.21796
USER: genes 9 Torsion [N]-C--CA-[N] |==|  0.91727
USER: genes 10 Torsion [C]-CA--N-[H1] |==|  0.44168
USER: genes 11 Torsion [N]-CA--CB-[CG2] |==|  0.51470
USER: genes 12 Torsion [CA]-CB--OG1-[HG1] |==|  0.94528
USER: genes 13 Torsion [N]-CA--C-[N] |==|  0.18889
USER: genes 14 Torsion [C]-N--CA-[CB] |==|  0.83080
USER: genes 15 Torsion [N]-CA--C-[N] |==|  0.41765
USER: genes 16 Torsion [C]-N--CA-[CB] |==|  0.75704
USER: genes 17 Torsion [N]-CA--CB-[CG] |==|  0.79667
USER: genes 18 Torsion [CA]-CB--CG-[CD] |==|  0.23979
USER: genes 19 Torsion [CB]-CG--CD-[OE1] |==|  0.83249
USER: genes 20 Torsion [N]-CA--C-[O] |==|  0.30193
USER: genes 21 Torsion [N]-CA--CB-[CG] |==|  0.94803
USER: genes 22 Torsion [CA]-CB--CG-[CD] |==|  0.80564
USER: genes 23 Torsion [CB]-CG--CD-[CE] |==|  0.29318
USER: genes 24 Torsion [CG]-CD--CE-[NZ] |==|  0.17337
USER: genes 25 Torsion [CD]-CE--NZ-[HZ2] |==|  0.62235
ROOT
ATOM      1  CA  THR D   3      10.534  12.175 147.281  1.00 39.79 LIG 0.20  C 
ENDROOT
BRANCH 1 2
ATOM      2  N   THR D   3      10.375  11.727 148.663  1.00 34.46 LIG-0.34  N 
ATOM      3  C   ARG D   2      10.504  12.564 149.692  1.00 39.53 LIG 0.24  C 
ATOM      4 O    ARG D   2      10.884  13.729 149.558  1.00 39.08 LIG-0.27  OA
ATOM      5 H    THR D   3      10.194  10.890 148.746  1.00 34.46 LIG 0.16  HD
BRANCH 3 6
ATOM      6  CA  ARG D   2      10.177  12.012 151.087  1.00 42.24 LIG 0.18  C 
BRANCH 6 7
ATOM      7  CB  ARG D   2       8.729  12.333 151.465  1.00 49.82 LIG 0.04  C 
BRANCH 7 8
ATOM      8  CG  ARG D   2       7.914  11.192 152.057  1.00 55.24 LIG 0.02  C 
BRANCH 8 9
ATOM      9  CD  ARG D   2       8.569   9.844 151.717  1.00 55.63 LIG 0.14  C 
BRANCH 9 10
ATOM     10  NE  ARG D   2       8.089   8.749 152.562  1.00 65.78 LIG-0.23  N 
ATOM     11 HE   ARG D   2       7.320   8.840 152.933  1.00 65.78 LIG 0.18  HD
ATOM     12  CZ  ARG D   2       8.757   7.622 152.798  1.00 70.57 LIG 0.67  C 
ATOM     13  NH1 ARG D   2       9.953   7.424 152.260  1.00 66.11 LIG-0.23  N 
ATOM     14  NH2 ARG D   2       8.231   6.688 153.581  1.00 74.94 LIG-0.23  N 
ATOM     15 1HH1 ARG D   2      10.302   8.025 151.755  1.00 66.11 LIG 0.17  HD
ATOM     16 2HH1 ARG D   2      10.379   6.694 152.417  1.00 66.11 LIG 0.17  HD
ATOM     17 2HH2 ARG D   2       8.664   5.960 153.733  1.00 74.94 LIG 0.17  HD
ATOM     18 1HH2 ARG D   2       7.458   6.810 153.936  1.00 74.94 LIG 0.17  HD
ENDBRANCH 9 10
ENDBRANCH 8 9
ENDBRANCH 7 8
ENDBRANCH 6 7
BRANCH 6 19
ATOM     19  N   ARG D   2      11.059  12.617 152.081  1.00 42.84 LIG-0.35  N 
ATOM     20  C   ALA D   1      10.862  13.837 152.552  1.00 44.74 LIG 0.25  C 
ATOM     21 O    ALA D   1       9.975  14.576 152.134  1.00 48.31 LIG-0.27  OA
ATOM     22 H    ARG D   2      11.708  12.111 152.328  1.00 42.84 LIG 0.16  HD
BRANCH 20 23
ATOM     23  CA  ALA D   1      11.821  14.293 153.653  1.00 45.19 LIG 0.27  C 
ATOM     24  CB  ALA D   1      13.002  15.023 153.053  1.00 43.32 LIG 0.05  C 
BRANCH 23 25
ATOM     25  N   ALA D   1      12.279  13.159 154.437  1.00 39.75 LIG-0.07  N 
ATOM     26 H1   ALA D   1      13.037  13.372 154.853  1.00 39.75 LIG 0.28  HD
ATOM     27 H2   ALA D   1      11.661  12.946 155.040  1.00 39.75 LIG 0.28  HD
ATOM     28 H3   ALA D   1      12.422  12.464 153.900  1.00 39.75 LIG 0.28  HD
ENDBRANCH 23 25
ENDBRANCH 20 23
ENDBRANCH 6 19
ENDBRANCH 3 6
ENDBRANCH 1 2
BRANCH 1 29
ATOM     29  CB  THR D   3       9.299  12.954 146.776  1.00 46.90 LIG 0.15  C 
ATOM     30  CG2 THR D   3       9.437  13.293 145.304  1.00 44.81 LIG 0.04  C 
BRANCH 29 31
ATOM     31 OG1  THR D   3       8.120  12.161 146.963  1.00 48.09 LIG-0.39  OA
ATOM     32 HG1  THR D   3       8.335  11.353 147.050  1.00 48.09 LIG 0.21  HD
ENDBRANCH 29 31
ENDBRANCH 1 29
BRANCH 1 33
ATOM     33  C   THR D   3      11.761  13.076 147.149  1.00 42.40 LIG 0.24  C 
ATOM     34 O    THR D   3      11.644  14.268 146.846  1.00 40.34 LIG-0.27  OA
ATOM     35  N   LYS D   4      12.940  12.539 147.309  1.00 38.45 LIG-0.35  N 
ATOM     36 H    LYS D   4      13.079  11.727 147.555  1.00 38.45 LIG 0.16  HD
BRANCH 35 37
ATOM     37  CA  LYS D   4      14.129  13.320 147.073  1.00 37.56 LIG 0.18  C 
BRANCH 37 38
ATOM     38  C   LYS D   4      14.222  14.470 148.065  1.00 44.28 LIG 0.24  C 
ATOM     39 O    LYS D   4      13.235  14.920 148.509  1.00 49.08 LIG-0.27  OA
ATOM     40  N   GLN D   5      15.440  14.874 148.384  1.00 53.59 LIG-0.35  N 
ATOM     41 H    GLN D   5      16.095  14.334 148.247  1.00 53.59 LIG 0.16  HD
BRANCH 40 42
ATOM     42  CA  GLN D   5      15.968  16.141 148.969  1.00 61.39 LIG 0.16  C 
BRANCH 42 43
ATOM     43  CB  GLN D   5      16.309  17.249 147.962  1.00 20.00 LIG 0.04  C 
BRANCH 43 44
ATOM     44  CG  GLN D   5      17.596  16.963 147.150  1.00 20.00 LIG 0.10  C 
BRANCH 44 45
ATOM     45  CD  GLN D   5      17.427  16.124 145.883  1.00 20.00 LIG 0.21  C 
ATOM     46  NE2 GLN D   5      17.817  16.695 144.750  1.00 20.00 LIG-0.37  N 
ATOM     47 21HE GLN D   5      18.122  17.499 144.756  1.00 20.00 LIG 0.16  HD
ATOM     48 22HE GLN D   5      17.763  16.261 144.010  1.00 20.00 LIG 0.16  HD
ATOM     49 OE1  GLN D   5      16.982  14.975 145.926  1.00 20.00 LIG-0.27  OA
ENDBRANCH 44 45
ENDBRANCH 43 44
ENDBRANCH 42 43
BRANCH 42 50
ATOM     50  C   GLN D   5      15.440  16.749 150.245  1.00 64.61 LIG 0.22  C 
ATOM     51 O    GLN D   5      16.090  16.736 151.250  1.00 68.60 LIG-0.29  OA
ENDBRANCH 42 50
ENDBRANCH 40 42
ENDBRANCH 37 38
BRANCH 37 52
ATOM     52  CB  LYS D   4      14.167  13.789 145.635  1.00 33.42 LIG 0.04  C 
BRANCH 52 53
ATOM     53  CG  LYS D   4      13.300  13.041 144.733  1.00 40.53 LIG 0.00  C 
BRANCH 53 54
ATOM     54  CD  LYS D   4      13.820  11.716 144.546  1.00 50.17 LIG 0.03  C 
BRANCH 54 55
ATOM     55  CE  LYS D   4      13.012  10.695 145.297  1.00 57.03 LIG 0.23  C 
BRANCH 55 56
ATOM     56  NZ  LYS D   4      11.654  10.711 144.754  1.00 52.11 LIG-0.08  N 
ATOM     57 HZ3  LYS D   4      11.533  11.453 144.278  1.00 52.11 LIG 0.27  HD
ATOM     58 HZ2  LYS D   4      11.067  10.688 145.423  1.00 52.11 LIG 0.27  HD
ATOM     59 HZ1  LYS D   4      11.535  10.001 144.231  1.00 52.11 LIG 0.27  HD
ENDBRANCH 55 56
ENDBRANCH 54 55
ENDBRANCH 53 54
ENDBRANCH 52 53
ENDBRANCH 37 52
ENDBRANCH 35 37
ENDBRANCH 1 33
TORSDOF 24
ENDMDL
MODEL 22
USER: ADFR SOLUTION from run 134
USER: SCORE 18.706221 LL:  -3.401 LR: -17.570 RR:   0.000 FEB: -10.411
USER: RMSD 6.749987
USER: SEED 133
USER: STATUS searching
USER: GENES 26
USER: genes 0 Translation |==|  0.42975 0.29262 0.34382
USER: genes 1 Rotation |==|  0.26724 0.71011 0.49495 0.88942
USER: genes 2 Torsion [CB]-CA--N-[C] |==|  0.52292
USER: genes 3 Torsion [N]-C--CA-[N] |==|  1.00000
USER: genes 4 Torsion [C]-CA--CB-[CG] |==|  0.40729
USER: genes 5 Torsion [CA]-CB--CG-[CD] |==|  0.32384
USER: genes 6 Torsion [CB]-CG--CD-[NE] |==|  0.23204
USER: genes 7 Torsion [CG]-CD--NE-[HE] |==|  0.04124
USER: genes 8 Torsion [C]-CA--N-[C] |==|  0.76107
USER: genes 9 Torsion [N]-C--CA-[N] |==|  0.95827
USER: genes 10 Torsion [C]-CA--N-[H1] |==|  0.21451
USER: genes 11 Torsion [N]-CA--CB-[CG2] |==|  0.56551
USER: genes 12 Torsion [CA]-CB--OG1-[HG1] |==|  0.24182
USER: genes 13 Torsion [N]-CA--C-[N] |==|  0.92481
USER: genes 14 Torsion [C]-N--CA-[CB] |==|  0.83222
USER: genes 15 Torsion [N]-CA--C-[N] |==|  0.07286
USER: genes 16 Torsion [C]-N--CA-[CB] |==|  0.61357
USER: genes 17 Torsion [N]-CA--CB-[CG] |==|  0.86231
USER: genes 18 Torsion [CA]-CB--CG-[CD] |==|  0.23465
USER: genes 19 Torsion [CB]-CG--CD-[OE1] |==|  0.00799
USER: genes 20 Torsion [N]-CA--C-[O] |==|  0.41491
USER: genes 21 Torsion [N]-CA--CB-[CG] |==|  0.79102
USER: genes 22 Torsion [CA]-CB--CG-[CD] |==|  0.61961
USER: genes 23 Torsion [CB]-CG--CD-[CE] |==|  0.70408
USER: genes 24 Torsion [CG]-CD--CE-[NZ] |==|  0.33501
USER: genes 25 Torsion [CD]-CE--NZ-[HZ2] |==|  0.00839
ROOT
ATOM      1  CA  THR D   3      13.873  12.185 144.878  1.00 39.79 LIG 0.20  C 
ENDROOT
BRANCH 1 2
ATOM      2  N   THR D   3      12.688  12.121 145.731  1.00 34.46 LIG-0.34  N 
ATOM      3  C   ARG D   2      12.704  12.561 146.989  1.00 39.53 LIG 0.24  C 
ATOM      4 O    ARG D   2      13.737  12.930 147.552  1.00 39.08 LIG-0.27  OA
ATOM      5 H    THR D   3      11.995  11.781 145.351  1.00 34.46 LIG 0.16  HD
BRANCH 3 6
ATOM      6  CA  ARG D   2      11.367  12.573 147.742  1.00 42.24 LIG 0.18  C 
BRANCH 6 7
ATOM      7  CB  ARG D   2      11.440  11.679 148.982  1.00 49.82 LIG 0.04  C 
BRANCH 7 8
ATOM      8  CG  ARG D   2      10.627  12.126 150.189  1.00 55.24 LIG 0.02  C 
BRANCH 8 9
ATOM      9  CD  ARG D   2       9.540  11.087 150.507  1.00 55.63 LIG 0.14  C 
BRANCH 9 10
ATOM     10  NE  ARG D   2      10.037   9.975 151.320  1.00 65.78 LIG-0.23  N 
ATOM     11 HE   ARG D   2      10.796  10.076 151.710  1.00 65.78 LIG 0.18  HD
ATOM     12  CZ  ARG D   2       9.400   8.820 151.499  1.00 70.57 LIG 0.67  C 
ATOM     13  NH1 ARG D   2       8.229   8.602 150.918  1.00 66.11 LIG-0.23  N 
ATOM     14  NH2 ARG D   2       9.938   7.874 152.259  1.00 74.94 LIG-0.23  N 
ATOM     15 1HH1 ARG D   2       7.875   9.208 150.422  1.00 66.11 LIG 0.17  HD
ATOM     16 2HH1 ARG D   2       7.822   7.854 151.038  1.00 66.11 LIG 0.17  HD
ATOM     17 2HH2 ARG D   2       9.526   7.128 152.373  1.00 74.94 LIG 0.17  HD
ATOM     18 1HH2 ARG D   2      10.700   8.007 152.636  1.00 74.94 LIG 0.17  HD
ENDBRANCH 9 10
ENDBRANCH 8 9
ENDBRANCH 7 8
ENDBRANCH 6 7
BRANCH 6 19
ATOM     19  N   ARG D   2      10.303  12.074 146.875  1.00 42.84 LIG-0.35  N 
ATOM     20  C   ALA D   1       9.646  12.860 146.037  1.00 44.74 LIG 0.25  C 
ATOM     21 O    ALA D   1       9.828  14.074 145.983  1.00 48.31 LIG-0.27  OA
ATOM     22 H    ARG D   2      10.147  11.233 146.959  1.00 42.84 LIG 0.16  HD
BRANCH 20 23
ATOM     23  CA  ALA D   1       8.623  12.170 145.134  1.00 45.19 LIG 0.27  C 
ATOM     24  CB  ALA D   1       7.217  12.498 145.585  1.00 43.32 LIG 0.05  C 
BRANCH 23 25
ATOM     25  N   ALA D   1       8.825  10.731 145.134  1.00 39.75 LIG-0.07  N 
ATOM     26 H1   ALA D   1       8.497  10.385 145.886  1.00 39.75 LIG 0.28  HD
ATOM     27 H2   ALA D   1       8.405  10.373 144.436  1.00 39.75 LIG 0.28  HD
ATOM     28 H3   ALA D   1       9.695  10.553 145.080  1.00 39.75 LIG 0.28  HD
ENDBRANCH 23 25
ENDBRANCH 20 23
ENDBRANCH 6 19
ENDBRANCH 3 6
ENDBRANCH 1 2
BRANCH 1 29
ATOM     29  CB  THR D   3      13.555  11.808 143.413  1.00 46.90 LIG 0.15  C 
ATOM     30  CG2 THR D   3      14.801  11.322 142.696  1.00 44.81 LIG 0.04  C 
BRANCH 29 31
ATOM     31 OG1  THR D   3      12.567  10.771 143.386  1.00 48.09 LIG-0.39  OA
ATOM     32 HG1  THR D   3      11.800  11.113 143.405  1.00 48.09 LIG 0.21  HD
ENDBRANCH 29 31
ENDBRANCH 1 29
BRANCH 1 33
ATOM     33  C   THR D   3      14.471  13.590 144.896  1.00 42.40 LIG 0.24  C 
ATOM     34 O    THR D   3      15.684  13.767 144.738  1.00 40.34 LIG-0.27  OA
ATOM     35  N   LYS D   4      13.675  14.596 145.140  1.00 38.45 LIG-0.35  N 
ATOM     36 H    LYS D   4      12.822  14.536 145.222  1.00 38.45 LIG 0.16  HD
BRANCH 35 37
ATOM     37  CA  LYS D   4      14.213  15.925 145.290  1.00 37.56 LIG 0.18  C 
BRANCH 37 38
ATOM     38  C   LYS D   4      14.837  16.402 143.987  1.00 44.28 LIG 0.24  C 
ATOM     39 O    LYS D   4      15.708  17.186 144.026  1.00 49.08 LIG-0.27  OA
ATOM     40  N   GLN D   5      14.359  15.869 142.875  1.00 53.59 LIG-0.35  N 
ATOM     41 H    GLN D   5      13.937  15.122 142.934  1.00 53.59 LIG 0.16  HD
BRANCH 40 42
ATOM     42  CA  GLN D   5      14.390  16.299 141.447  1.00 61.39 LIG 0.16  C 
BRANCH 42 43
ATOM     43  CB  GLN D   5      13.092  16.083 140.658  1.00 20.00 LIG 0.04  C 
BRANCH 43 44
ATOM     44  CG  GLN D   5      12.516  14.654 140.805  1.00 20.00 LIG 0.10  C 
BRANCH 44 45
ATOM     45  CD  GLN D   5      11.639  14.399 142.030  1.00 20.00 LIG 0.21  C 
ATOM     46  NE2 GLN D   5      11.223  13.150 142.199  1.00 20.00 LIG-0.37  N 
ATOM     47 21HE GLN D   5      11.433  12.545 141.625  1.00 20.00 LIG 0.16  HD
ATOM     48 22HE GLN D   5      10.744  12.945 142.883  1.00 20.00 LIG 0.16  HD
ATOM     49 OE1  GLN D   5      11.364  15.300 142.826  1.00 20.00 LIG-0.27  OA
ENDBRANCH 44 45
ENDBRANCH 43 44
ENDBRANCH 42 43
BRANCH 42 50
ATOM     50  C   GLN D   5      15.079  17.556 140.975  1.00 64.61 LIG 0.22  C 
ATOM     51 O    GLN D   5      15.560  17.622 139.882  1.00 68.60 LIG-0.29  OA
ENDBRANCH 42 50
ENDBRANCH 40 42
ENDBRANCH 37 38
BRANCH 37 52
ATOM     52  CB  LYS D   4      15.185  15.966 146.448  1.00 33.42 LIG 0.04  C 
BRANCH 52 53
ATOM     53  CG  LYS D   4      14.557  15.953 147.764  1.00 40.53 LIG 0.00  C 
BRANCH 53 54
ATOM     54  CD  LYS D   4      15.205  16.904 148.622  1.00 50.17 LIG 0.03  C 
BRANCH 54 55
ATOM     55  CE  LYS D   4      16.066  16.223 149.648  1.00 57.03 LIG 0.23  C 
BRANCH 55 56
ATOM     56  NZ  LYS D   4      17.438  16.695 149.467  1.00 52.11 LIG-0.08  N 
ATOM     57 HZ3  LYS D   4      17.732  17.052 150.228  1.00 52.11 LIG 0.27  HD
ATOM     58 HZ2  LYS D   4      17.458  17.310 148.824  1.00 52.11 LIG 0.27  HD
ATOM     59 HZ1  LYS D   4      17.960  16.011 149.239  1.00 52.11 LIG 0.27  HD
ENDBRANCH 55 56
ENDBRANCH 54 55
ENDBRANCH 53 54
ENDBRANCH 52 53
ENDBRANCH 37 52
ENDBRANCH 35 37
ENDBRANCH 1 33
TORSDOF 24
ENDMDL
MODEL 23
USER: ADFR SOLUTION from run 107
USER: SCORE 17.632611 LL:  -2.083 LR: -17.510 RR:   0.000 FEB: -10.351
USER: RMSD 5.530372
USER: SEED 106
USER: STATUS no improvement in best in 2 clusters for 5 generations
USER: GENES 26
USER: genes 0 Translation |==|  0.48783 0.46172 0.51421
USER: genes 1 Rotation |==|  0.44636 0.54135 0.56799 0.99070
USER: genes 2 Torsion [CB]-CA--N-[C] |==|  0.24563
USER: genes 3 Torsion [N]-C--CA-[N] |==|  0.47685
USER: genes 4 Torsion [C]-CA--CB-[CG] |==|  0.36667
USER: genes 5 Torsion [CA]-CB--CG-[CD] |==|  0.45897
USER: genes 6 Torsion [CB]-CG--CD-[NE] |==|  0.71881
USER: genes 7 Torsion [CG]-CD--NE-[HE] |==|  0.86398
USER: genes 8 Torsion [C]-CA--N-[C] |==|  0.77413
USER: genes 9 Torsion [N]-C--CA-[N] |==|  0.22325
USER: genes 10 Torsion [C]-CA--N-[H1] |==|  0.04294
USER: genes 11 Torsion [N]-CA--CB-[CG2] |==|  0.57817
USER: genes 12 Torsion [CA]-CB--OG1-[HG1] |==|  0.50730
USER: genes 13 Torsion [N]-CA--C-[N] |==|  0.33386
USER: genes 14 Torsion [C]-N--CA-[CB] |==|  0.22687
USER: genes 15 Torsion [N]-CA--C-[N] |==|  0.80931
USER: genes 16 Torsion [C]-N--CA-[CB] |==|  0.07963
USER: genes 17 Torsion [N]-CA--CB-[CG] |==|  0.30734
USER: genes 18 Torsion [CA]-CB--CG-[CD] |==|  0.33645
USER: genes 19 Torsion [CB]-CG--CD-[OE1] |==|  0.41559
USER: genes 20 Torsion [N]-CA--C-[O] |==|  0.93319
USER: genes 21 Torsion [N]-CA--CB-[CG] |==|  0.13727
USER: genes 22 Torsion [CA]-CB--CG-[CD] |==|  0.63564
USER: genes 23 Torsion [CB]-CG--CD-[CE] |==|  0.67053
USER: genes 24 Torsion [CG]-CD--CE-[NZ] |==|  0.66235
USER: genes 25 Torsion [CD]-CE--NZ-[HZ2] |==|  0.52453
ROOT
ATOM      1  CA  THR D   3      14.962  15.862 148.839  1.00 39.79 LIG 0.20  C 
ENDROOT
BRANCH 1 2
ATOM      2  N   THR D   3      13.712  15.185 148.501  1.00 34.46 LIG-0.34  N 
ATOM      3  C   ARG D   2      13.696  14.033 147.832  1.00 39.53 LIG 0.24  C 
ATOM      4 O    ARG D   2      14.713  13.529 147.349  1.00 39.08 LIG-0.27  OA
ATOM      5 H    THR D   3      13.003  15.593 148.770  1.00 34.46 LIG 0.16  HD
BRANCH 3 6
ATOM      6  CA  ARG D   2      12.335  13.346 147.657  1.00 42.24 LIG 0.18  C 
BRANCH 6 7
ATOM      7  CB  ARG D   2      11.818  12.827 149.001  1.00 49.82 LIG 0.04  C 
BRANCH 7 8
ATOM      8  CG  ARG D   2      10.374  13.160 149.348  1.00 55.24 LIG 0.02  C 
BRANCH 8 9
ATOM      9  CD  ARG D   2       9.896  12.284 150.516  1.00 55.63 LIG 0.14  C 
BRANCH 9 10
ATOM     10  NE  ARG D   2       9.066  11.159 150.082  1.00 65.78 LIG-0.23  N 
ATOM     11 HE   ARG D   2       8.419  11.327 149.540  1.00 65.78 LIG 0.18  HD
ATOM     12  CZ  ARG D   2       9.237   9.896 150.463  1.00 70.57 LIG 0.67  C 
ATOM     13  NH1 ARG D   2      10.211   9.573 151.302  1.00 66.11 LIG-0.23  N 
ATOM     14  NH2 ARG D   2       8.427   8.948 150.009  1.00 74.94 LIG-0.23  N 
ATOM     15 1HH1 ARG D   2      10.738  10.182 151.604  1.00 66.11 LIG 0.17  HD
ATOM     16 2HH1 ARG D   2      10.317   8.755 151.545  1.00 66.11 LIG 0.17  HD
ATOM     17 2HH2 ARG D   2       8.539   8.132 150.256  1.00 74.94 LIG 0.17  HD
ATOM     18 1HH2 ARG D   2       7.790   9.149 149.467  1.00 74.94 LIG 0.17  HD
ENDBRANCH 9 10
ENDBRANCH 8 9
ENDBRANCH 7 8
ENDBRANCH 6 7
BRANCH 6 19
ATOM     19  N   ARG D   2      12.462  12.214 146.744  1.00 42.84 LIG-0.35  N 
ATOM     20  C   ALA D   1      12.462  12.363 145.429  1.00 44.74 LIG 0.25  C 
ATOM     21 O    ALA D   1      12.279  13.448 144.883  1.00 48.31 LIG-0.27  OA
ATOM     22 H    ARG D   2      12.536  11.453 147.136  1.00 42.84 LIG 0.16  HD
BRANCH 20 23
ATOM     23  CA  ALA D   1      12.693  11.092 144.611  1.00 45.19 LIG 0.27  C 
ATOM     24  CB  ALA D   1      13.214  11.439 143.234  1.00 43.32 LIG 0.05  C 
BRANCH 23 25
ATOM     25  N   ALA D   1      11.467  10.320 144.502  1.00 39.75 LIG-0.07  N 
ATOM     26 H1   ALA D   1      10.774  10.829 144.732  1.00 39.75 LIG 0.28  HD
ATOM     27 H2   ALA D   1      11.364  10.043 143.663  1.00 39.75 LIG 0.28  HD
ATOM     28 H3   ALA D   1      11.510   9.615 145.044  1.00 39.75 LIG 0.28  HD
ENDBRANCH 23 25
ENDBRANCH 20 23
ENDBRANCH 6 19
ENDBRANCH 3 6
ENDBRANCH 1 2
BRANCH 1 29
ATOM     29  CB  THR D   3      15.425  16.822 147.720  1.00 46.90 LIG 0.15  C 
ATOM     30  CG2 THR D   3      16.935  16.971 147.724  1.00 44.81 LIG 0.04  C 
BRANCH 29 31
ATOM     31 OG1  THR D   3      15.010  16.312 146.446  1.00 48.09 LIG-0.39  OA
ATOM     32 HG1  THR D   3      15.293  16.815 145.836  1.00 48.09 LIG 0.21  HD
ENDBRANCH 29 31
ENDBRANCH 1 29
BRANCH 1 33
ATOM     33  C   THR D   3      14.804  16.666 150.129  1.00 42.40 LIG 0.24  C 
ATOM     34 O    THR D   3      14.003  17.605 150.199  1.00 40.34 LIG-0.27  OA
ATOM     35  N   LYS D   4      15.577  16.370 151.138  1.00 38.45 LIG-0.35  N 
ATOM     36 H    LYS D   4      16.125  15.708 151.158  1.00 38.45 LIG 0.16  HD
BRANCH 35 37
ATOM     37  CA  LYS D   4      15.551  17.179 152.332  1.00 37.56 LIG 0.18  C 
BRANCH 37 38
ATOM     38  C   LYS D   4      16.887  17.107 153.058  1.00 44.28 LIG 0.24  C 
ATOM     39 O    LYS D   4      17.558  18.067 153.110  1.00 49.08 LIG-0.27  OA
ATOM     40  N   GLN D   5      17.193  15.948 153.614  1.00 53.59 LIG-0.35  N 
ATOM     41 H    GLN D   5      16.554  15.395 153.775  1.00 53.59 LIG 0.16  HD
BRANCH 40 42
ATOM     42  CA  GLN D   5      18.483  15.342 154.054  1.00 61.39 LIG 0.16  C 
BRANCH 42 43
ATOM     43  CB  GLN D   5      19.572  16.334 154.488  1.00 20.00 LIG 0.04  C 
BRANCH 43 44
ATOM     44  CG  GLN D   5      19.864  16.294 156.008  1.00 20.00 LIG 0.10  C 
BRANCH 44 45
ATOM     45  CD  GLN D   5      21.300  15.962 156.414  1.00 20.00 LIG 0.21  C 
ATOM     46  NE2 GLN D   5      21.981  15.194 155.573  1.00 20.00 LIG-0.37  N 
ATOM     47 21HE GLN D   5      21.603  14.897 154.860  1.00 20.00 LIG 0.16  HD
ATOM     48 22HE GLN D   5      22.799  14.993 155.741  1.00 20.00 LIG 0.16  HD
ATOM     49 OE1  GLN D   5      21.798  16.411 157.449  1.00 20.00 LIG-0.27  OA
ENDBRANCH 44 45
ENDBRANCH 43 44
ENDBRANCH 42 43
BRANCH 42 50
ATOM     50  C   GLN D   5      18.568  14.086 154.886  1.00 64.61 LIG 0.22  C 
ATOM     51 O    GLN D   5      17.658  13.745 155.584  1.00 68.60 LIG-0.29  OA
ENDBRANCH 42 50
ENDBRANCH 40 42
ENDBRANCH 37 38
BRANCH 37 52
ATOM     52  CB  LYS D   4      14.389  16.772 153.212  1.00 33.42 LIG 0.04  C 
BRANCH 52 53
ATOM     53  CG  LYS D   4      14.288  15.339 153.453  1.00 40.53 LIG 0.00  C 
BRANCH 53 54
ATOM     54  CD  LYS D   4      12.943  14.899 153.212  1.00 50.17 LIG 0.03  C 
BRANCH 54 55
ATOM     55  CE  LYS D   4      12.321  14.322 154.452  1.00 57.03 LIG 0.23  C 
BRANCH 55 56
ATOM     56  NZ  LYS D   4      11.926  12.945 154.156  1.00 52.11 LIG-0.08  N 
ATOM     57 HZ3  LYS D   4      11.441  12.929 153.410  1.00 52.11 LIG 0.27  HD
ATOM     58 HZ2  LYS D   4      11.441  12.624 154.830  1.00 52.11 LIG 0.27  HD
ATOM     59 HZ1  LYS D   4      12.653  12.444 154.049  1.00 52.11 LIG 0.27  HD
ENDBRANCH 55 56
ENDBRANCH 54 55
ENDBRANCH 53 54
ENDBRANCH 52 53
ENDBRANCH 37 52
ENDBRANCH 35 37
ENDBRANCH 1 33
TORSDOF 24
ENDMDL
MODEL 24
USER: ADFR SOLUTION from run 179
USER: SCORE 17.642416 LL:  -2.466 LR: -17.474 RR:   0.000 FEB: -10.315
USER: RMSD 5.382178
USER: SEED 178
USER: STATUS searching
USER: GENES 26
USER: genes 0 Translation |==|  0.53044 0.42799 0.46454
USER: genes 1 Rotation |==|  0.39313 0.60740 0.54381 0.97447
USER: genes 2 Torsion [CB]-CA--N-[C] |==|  0.84435
USER: genes 3 Torsion [N]-C--CA-[N] |==|  0.82062
USER: genes 4 Torsion [C]-CA--CB-[CG] |==|  0.36787
USER: genes 5 Torsion [CA]-CB--CG-[CD] |==|  0.25533
USER: genes 6 Torsion [CB]-CG--CD-[NE] |==|  0.17448
USER: genes 7 Torsion [CG]-CD--NE-[HE] |==|  0.64453
USER: genes 8 Torsion [C]-CA--N-[C] |==|  0.19406
USER: genes 9 Torsion [N]-C--CA-[N] |==|  0.83528
USER: genes 10 Torsion [C]-CA--N-[H1] |==|  0.93884
USER: genes 11 Torsion [N]-CA--CB-[CG2] |==|  0.53338
USER: genes 12 Torsion [CA]-CB--OG1-[HG1] |==|  0.62675
USER: genes 13 Torsion [N]-CA--C-[N] |==|  0.28333
USER: genes 14 Torsion [C]-N--CA-[CB] |==|  0.16607
USER: genes 15 Torsion [N]-CA--C-[N] |==|  0.49857
USER: genes 16 Torsion [C]-N--CA-[CB] |==|  0.09132
USER: genes 17 Torsion [N]-CA--CB-[CG] |==|  0.53542
USER: genes 18 Torsion [CA]-CB--CG-[CD] |==|  0.69778
USER: genes 19 Torsion [CB]-CG--CD-[OE1] |==|  0.98424
USER: genes 20 Torsion [N]-CA--C-[O] |==|  0.75936
USER: genes 21 Torsion [N]-CA--CB-[CG] |==|  0.66312
USER: genes 22 Torsion [CA]-CB--CG-[CD] |==|  0.95894
USER: genes 23 Torsion [CB]-CG--CD-[CE] |==|  0.31090
USER: genes 24 Torsion [CG]-CD--CE-[NZ] |==|  0.73304
USER: genes 25 Torsion [CD]-CE--NZ-[HZ2] |==|  0.03402
ROOT
ATOM      1  CA  THR D   3      15.761  15.129 147.684  1.00 39.79 LIG 0.20  C 
ENDROOT
BRANCH 1 2
ATOM      2  N   THR D   3      14.424  14.551 147.808  1.00 34.46 LIG-0.34  N 
ATOM      3  C   ARG D   2      13.325  15.262 147.558  1.00 39.53 LIG 0.24  C 
ATOM      4 O    ARG D   2      13.354  16.474 147.330  1.00 39.08 LIG-0.27  OA
ATOM      5 H    THR D   3      14.416  13.726 148.053  1.00 34.46 LIG 0.16  HD
BRANCH 3 6
ATOM      6  CA  ARG D   2      11.987  14.512 147.585  1.00 42.24 LIG 0.18  C 
BRANCH 6 7
ATOM      7  CB  ARG D   2      11.802  13.788 148.920  1.00 49.82 LIG 0.04  C 
BRANCH 7 8
ATOM      8  CG  ARG D   2      10.456  13.966 149.608  1.00 55.24 LIG 0.02  C 
BRANCH 8 9
ATOM      9  CD  ARG D   2       9.496  12.843 149.186  1.00 55.63 LIG 0.14  C 
BRANCH 9 10
ATOM     10  NE  ARG D   2       9.961  11.514 149.590  1.00 65.78 LIG-0.23  N 
ATOM     11 HE   ARG D   2      10.000  10.905 148.985  1.00 65.78 LIG 0.18  HD
ATOM     12  CZ  ARG D   2      10.325  11.180 150.826  1.00 70.57 LIG 0.67  C 
ATOM     13  NH1 ARG D   2      10.280  12.072 151.805  1.00 66.11 LIG-0.23  N 
ATOM     14  NH2 ARG D   2      10.734   9.944 151.088  1.00 74.94 LIG-0.23  N 
ATOM     15 1HH1 ARG D   2      10.013  12.873 151.644  1.00 66.11 LIG 0.17  HD
ATOM     16 2HH1 ARG D   2      10.517  11.850 152.601  1.00 66.11 LIG 0.17  HD
ATOM     17 2HH2 ARG D   2      10.969   9.729 151.886  1.00 74.94 LIG 0.17  HD
ATOM     18 1HH2 ARG D   2      10.762   9.358 150.459  1.00 74.94 LIG 0.17  HD
ENDBRANCH 9 10
ENDBRANCH 8 9
ENDBRANCH 7 8
ENDBRANCH 6 7
BRANCH 6 19
ATOM     19  N   ARG D   2      11.951  13.520 146.513  1.00 42.84 LIG-0.35  N 
ATOM     20  C   ALA D   1      12.700  12.430 146.533  1.00 44.74 LIG 0.25  C 
ATOM     21 O    ALA D   1      13.533  12.212 147.409  1.00 48.31 LIG-0.27  OA
ATOM     22 H    ARG D   2      11.403  13.709 145.878  1.00 42.84 LIG 0.16  HD
BRANCH 20 23
ATOM     23  CA  ALA D   1      12.482  11.447 145.382  1.00 45.19 LIG 0.27  C 
ATOM     24  CB  ALA D   1      12.839  12.093 144.062  1.00 43.32 LIG 0.05  C 
BRANCH 23 25
ATOM     25  N   ALA D   1      11.106  10.983 145.356  1.00 39.75 LIG-0.07  N 
ATOM     26 H1   ALA D   1      10.741  11.090 146.160  1.00 39.75 LIG 0.28  HD
ATOM     27 H2   ALA D   1      10.645  11.454 144.757  1.00 39.75 LIG 0.28  HD
ATOM     28 H3   ALA D   1      11.086  10.122 145.134  1.00 39.75 LIG 0.28  HD
ENDBRANCH 23 25
ENDBRANCH 20 23
ENDBRANCH 6 19
ENDBRANCH 3 6
ENDBRANCH 1 2
BRANCH 1 29
ATOM     29  CB  THR D   3      16.011  15.720 146.279  1.00 46.90 LIG 0.15  C 
ATOM     30  CG2 THR D   3      17.480  16.043 146.080  1.00 44.81 LIG 0.04  C 
BRANCH 29 31
ATOM     31 OG1  THR D   3      15.602  14.776 145.280  1.00 48.09 LIG-0.39  OA
ATOM     32 HG1  THR D   3      16.194  14.723 144.685  1.00 48.09 LIG 0.21  HD
ENDBRANCH 29 31
ENDBRANCH 1 29
BRANCH 1 33
ATOM     33  C   THR D   3      15.962  16.237 148.717  1.00 42.40 LIG 0.24  C 
ATOM     34 O    THR D   3      15.523  17.375 148.522  1.00 40.34 LIG-0.27  OA
ATOM     35  N   LYS D   4      16.661  15.964 149.786  1.00 38.45 LIG-0.35  N 
ATOM     36 H    LYS D   4      16.960  15.184 149.989  1.00 38.45 LIG 0.16  HD
BRANCH 35 37
ATOM     37  CA  LYS D   4      16.982  17.008 150.727  1.00 37.56 LIG 0.18  C 
BRANCH 37 38
ATOM     38  C   LYS D   4      17.899  16.480 151.821  1.00 44.28 LIG 0.24  C 
ATOM     39 O    LYS D   4      18.241  15.360 151.786  1.00 49.08 LIG-0.27  OA
ATOM     40  N   GLN D   5      18.275  17.349 152.743  1.00 53.59 LIG-0.35  N 
ATOM     41 H    GLN D   5      18.221  18.187 152.556  1.00 53.59 LIG 0.16  HD
BRANCH 40 42
ATOM     42  CA  GLN D   5      18.809  17.194 154.127  1.00 61.39 LIG 0.16  C 
BRANCH 42 43
ATOM     43  CB  GLN D   5      19.682  15.955 154.370  1.00 20.00 LIG 0.04  C 
BRANCH 43 44
ATOM     44  CG  GLN D   5      19.945  15.676 155.870  1.00 20.00 LIG 0.10  C 
BRANCH 44 45
ATOM     45  CD  GLN D   5      21.365  15.939 156.370  1.00 20.00 LIG 0.21  C 
ATOM     46  NE2 GLN D   5      21.563  15.780 157.673  1.00 20.00 LIG-0.37  N 
ATOM     47 21HE GLN D   5      20.907  15.561 158.184  1.00 20.00 LIG 0.16  HD
ATOM     48 22HE GLN D   5      22.347  15.895 158.005  1.00 20.00 LIG 0.16  HD
ATOM     49 OE1  GLN D   5      22.273  16.252 155.597  1.00 20.00 LIG-0.27  OA
ENDBRANCH 44 45
ENDBRANCH 43 44
ENDBRANCH 42 43
BRANCH 42 50
ATOM     50  C   GLN D   5      19.313  18.350 154.956  1.00 64.61 LIG 0.22  C 
ATOM     51 O    GLN D   5      20.447  18.722 154.872  1.00 68.60 LIG-0.29  OA
ENDBRANCH 42 50
ENDBRANCH 40 42
ENDBRANCH 37 38
BRANCH 37 52
ATOM     52  CB  LYS D   4      15.714  17.622 151.277  1.00 33.42 LIG 0.04  C 
BRANCH 52 53
ATOM     53  CG  LYS D   4      15.586  19.055 151.041  1.00 40.53 LIG 0.00  C 
BRANCH 53 54
ATOM     54  CD  LYS D   4      16.853  19.598 150.642  1.00 50.17 LIG 0.03  C 
BRANCH 54 55
ATOM     55  CE  LYS D   4      16.833  20.050 149.210  1.00 57.03 LIG 0.23  C 
BRANCH 55 56
ATOM     56  NZ  LYS D   4      17.382  18.969 148.391  1.00 52.11 LIG-0.08  N 
ATOM     57 HZ3  LYS D   4      16.847  18.825 147.694  1.00 52.11 LIG 0.27  HD
ATOM     58 HZ2  LYS D   4      17.440  18.228 148.879  1.00 52.11 LIG 0.27  HD
ATOM     59 HZ1  LYS D   4      18.191  19.198 148.101  1.00 52.11 LIG 0.27  HD
ENDBRANCH 55 56
ENDBRANCH 54 55
ENDBRANCH 53 54
ENDBRANCH 52 53
ENDBRANCH 37 52
ENDBRANCH 35 37
ENDBRANCH 1 33
TORSDOF 24
ENDMDL
MODEL 25
USER: ADFR SOLUTION from run 121
USER: SCORE 18.623606 LL:  -2.782 LR: -17.457 RR:   0.000 FEB: -10.297
USER: RMSD 5.271265
USER: SEED 120
USER: STATUS searching
USER: GENES 26
USER: genes 0 Translation |==|  0.54002 0.46086 0.50137
USER: genes 1 Rotation |==|  0.48831 0.58500 0.51077 0.99247
USER: genes 2 Torsion [CB]-CA--N-[C] |==|  0.27141
USER: genes 3 Torsion [N]-C--CA-[N] |==|  0.50506
USER: genes 4 Torsion [C]-CA--CB-[CG] |==|  0.55120
USER: genes 5 Torsion [CA]-CB--CG-[CD] |==|  0.47882
USER: genes 6 Torsion [CB]-CG--CD-[NE] |==|  0.72276
USER: genes 7 Torsion [CG]-CD--NE-[HE] |==|  0.36209
USER: genes 8 Torsion [C]-CA--N-[C] |==|  0.78179
USER: genes 9 Torsion [N]-C--CA-[N] |==|  0.23553
USER: genes 10 Torsion [C]-CA--N-[H1] |==|  0.81000
USER: genes 11 Torsion [N]-CA--CB-[CG2] |==|  0.22924
USER: genes 12 Torsion [CA]-CB--OG1-[HG1] |==|  0.73912
USER: genes 13 Torsion [N]-CA--C-[N] |==|  0.47020
USER: genes 14 Torsion [C]-N--CA-[CB] |==|  0.86667
USER: genes 15 Torsion [N]-CA--C-[N] |==|  0.34938
USER: genes 16 Torsion [C]-N--CA-[CB] |==|  0.66949
USER: genes 17 Torsion [N]-CA--CB-[CG] |==|  0.67701
USER: genes 18 Torsion [CA]-CB--CG-[CD] |==|  0.22927
USER: genes 19 Torsion [CB]-CG--CD-[OE1] |==|  0.66261
USER: genes 20 Torsion [N]-CA--C-[O] |==|  0.80142
USER: genes 21 Torsion [N]-CA--CB-[CG] |==|  0.40906
USER: genes 22 Torsion [CA]-CB--CG-[CD] |==|  0.57744
USER: genes 23 Torsion [CB]-CG--CD-[CE] |==|  0.16920
USER: genes 24 Torsion [CG]-CD--CE-[NZ] |==|  0.12480
USER: genes 25 Torsion [CD]-CE--NZ-[HZ2] |==|  0.12021
ROOT
ATOM      1  CA  THR D   3      15.940  15.844 148.541  1.00 39.79 LIG 0.20  C 
ENDROOT
BRANCH 1 2
ATOM      2  N   THR D   3      14.519  15.548 148.371  1.00 34.46 LIG-0.34  N 
ATOM      3  C   ARG D   2      14.101  14.441 147.758  1.00 39.53 LIG 0.24  C 
ATOM      4 O    ARG D   2      14.870  13.664 147.189  1.00 39.08 LIG-0.27  OA
ATOM      5 H    THR D   3      13.992  16.144 148.698  1.00 34.46 LIG 0.16  HD
BRANCH 3 6
ATOM      6  CA  ARG D   2      12.590  14.169 147.763  1.00 42.24 LIG 0.18  C 
BRANCH 6 7
ATOM      7  CB  ARG D   2      12.065  14.082 149.198  1.00 49.82 LIG 0.04  C 
BRANCH 7 8
ATOM      8  CG  ARG D   2      10.716  13.402 149.386  1.00 55.24 LIG 0.02  C 
BRANCH 8 9
ATOM      9  CD  ARG D   2      10.419  13.224 150.883  1.00 55.63 LIG 0.14  C 
BRANCH 9 10
ATOM     10  NE  ARG D   2      10.705  11.871 151.364  1.00 65.78 LIG-0.23  N 
ATOM     11 HE   ARG D   2      11.182  11.793 152.075  1.00 65.78 LIG 0.18  HD
ATOM     12  CZ  ARG D   2      10.280  10.752 150.781  1.00 70.57 LIG 0.67  C 
ATOM     13  NH1 ARG D   2       9.547  10.805 149.678  1.00 66.11 LIG-0.23  N 
ATOM     14  NH2 ARG D   2      10.595   9.571 151.300  1.00 74.94 LIG-0.23  N 
ATOM     15 1HH1 ARG D   2       9.342  11.565 149.334  1.00 66.11 LIG 0.17  HD
ATOM     16 2HH1 ARG D   2       9.276  10.078 149.306  1.00 66.11 LIG 0.17  HD
ATOM     17 2HH2 ARG D   2      10.321   8.849 150.922  1.00 74.94 LIG 0.17  HD
ATOM     18 1HH2 ARG D   2      11.074   9.528 152.013  1.00 74.94 LIG 0.17  HD
ENDBRANCH 9 10
ENDBRANCH 8 9
ENDBRANCH 7 8
ENDBRANCH 6 7
BRANCH 6 19
ATOM     19  N   ARG D   2      12.310  12.904 147.091  1.00 42.84 LIG-0.35  N 
ATOM     20  C   ALA D   1      12.292  12.792 145.773  1.00 44.74 LIG 0.25  C 
ATOM     21 O    ALA D   1      12.433  13.754 145.022  1.00 48.31 LIG-0.27  OA
ATOM     22 H    ARG D   2      12.160  12.248 147.625  1.00 42.84 LIG 0.16  HD
BRANCH 20 23
ATOM     23  CA  ALA D   1      12.072  11.382 145.223  1.00 45.19 LIG 0.27  C 
ATOM     24  CB  ALA D   1      12.702  11.245 143.855  1.00 43.32 LIG 0.05  C 
BRANCH 23 25
ATOM     25  N   ALA D   1      10.654  11.073 145.153  1.00 39.75 LIG-0.07  N 
ATOM     26 H1   ALA D   1      10.324  11.003 145.977  1.00 39.75 LIG 0.28  HD
ATOM     27 H2   ALA D   1      10.229  11.724 144.719  1.00 39.75 LIG 0.28  HD
ATOM     28 H3   ALA D   1      10.537  10.304 144.721  1.00 39.75 LIG 0.28  HD
ENDBRANCH 23 25
ENDBRANCH 20 23
ENDBRANCH 6 19
ENDBRANCH 3 6
ENDBRANCH 1 2
BRANCH 1 29
ATOM     29  CB  THR D   3      16.467  16.811 147.457  1.00 46.90 LIG 0.15  C 
ATOM     30  CG2 THR D   3      16.158  18.252 147.820  1.00 44.81 LIG 0.04  C 
BRANCH 29 31
ATOM     31 OG1  THR D   3      17.886  16.658 147.323  1.00 48.09 LIG-0.39  OA
ATOM     32 HG1  THR D   3      18.276  17.222 147.809  1.00 48.09 LIG 0.21  HD
ENDBRANCH 29 31
ENDBRANCH 1 29
BRANCH 1 33
ATOM     33  C   THR D   3      16.197  16.469 149.911  1.00 42.40 LIG 0.24  C 
ATOM     34 O    THR D   3      15.264  16.890 150.603  1.00 40.34 LIG-0.27  OA
ATOM     35  N   LYS D   4      17.434  16.597 150.308  1.00 38.45 LIG-0.35  N 
ATOM     36 H    LYS D   4      18.118  16.292 149.886  1.00 38.45 LIG 0.16  HD
BRANCH 35 37
ATOM     37  CA  LYS D   4      17.733  17.292 151.536  1.00 37.56 LIG 0.18  C 
BRANCH 37 38
ATOM     38  C   LYS D   4      17.434  16.409 152.738  1.00 44.28 LIG 0.24  C 
ATOM     39 O    LYS D   4      16.375  15.914 152.832  1.00 49.08 LIG-0.27  OA
ATOM     40  N   GLN D   5      18.420  16.235 153.601  1.00 53.59 LIG-0.35  N 
ATOM     41 H    GLN D   5      19.223  16.388 153.333  1.00 53.59 LIG 0.16  HD
BRANCH 40 42
ATOM     42  CA  GLN D   5      18.457  15.806 155.029  1.00 61.39 LIG 0.16  C 
BRANCH 42 43
ATOM     43  CB  GLN D   5      19.037  16.826 156.018  1.00 20.00 LIG 0.04  C 
BRANCH 43 44
ATOM     44  CG  GLN D   5      20.335  16.340 156.708  1.00 20.00 LIG 0.10  C 
BRANCH 44 45
ATOM     45  CD  GLN D   5      21.632  16.522 155.921  1.00 20.00 LIG 0.21  C 
ATOM     46  NE2 GLN D   5      21.946  17.771 155.596  1.00 20.00 LIG-0.37  N 
ATOM     47 21HE GLN D   5      21.420  18.416 155.811  1.00 20.00 LIG 0.16  HD
ATOM     48 22HE GLN D   5      22.675  17.934 155.171  1.00 20.00 LIG 0.16  HD
ATOM     49 OE1  GLN D   5      22.353  15.564 155.634  1.00 20.00 LIG-0.27  OA
ENDBRANCH 44 45
ENDBRANCH 43 44
ENDBRANCH 42 43
BRANCH 42 50
ATOM     50  C   GLN D   5      17.347  15.023 155.688  1.00 64.61 LIG 0.22  C 
ATOM     51 O    GLN D   5      16.295  15.536 155.939  1.00 68.60 LIG-0.29  OA
ENDBRANCH 42 50
ENDBRANCH 40 42
ENDBRANCH 37 38
BRANCH 37 52
ATOM     52  CB  LYS D   4      16.990  18.609 151.583  1.00 33.42 LIG 0.04  C 
BRANCH 52 53
ATOM     53  CG  LYS D   4      16.585  19.026 152.920  1.00 40.53 LIG 0.00  C 
BRANCH 53 54
ATOM     54  CD  LYS D   4      15.409  19.845 152.839  1.00 50.17 LIG 0.03  C 
BRANCH 54 55
ATOM     55  CE  LYS D   4      14.257  19.097 152.231  1.00 57.03 LIG 0.23  C 
BRANCH 55 56
ATOM     56  NZ  LYS D   4      14.209  17.771 152.845  1.00 52.11 LIG-0.08  N 
ATOM     57 HZ3  LYS D   4      13.414  17.401 152.692  1.00 52.11 LIG 0.27  HD
ATOM     58 HZ2  LYS D   4      14.337  17.845 153.723  1.00 52.11 LIG 0.27  HD
ATOM     59 HZ1  LYS D   4      14.847  17.258 152.495  1.00 52.11 LIG 0.27  HD
ENDBRANCH 55 56
ENDBRANCH 54 55
ENDBRANCH 53 54
ENDBRANCH 52 53
ENDBRANCH 37 52
ENDBRANCH 35 37
ENDBRANCH 1 33
TORSDOF 24
ENDMDL
MODEL 26
USER: ADFR SOLUTION from run 7
USER: SCORE 18.194982 LL:  -2.400 LR: -17.444 RR:   0.000 FEB: -10.285
USER: RMSD 6.266452
USER: SEED 845988
USER: STATUS searching
USER: GENES 26
USER: genes 0 Translation |==|  0.59452 0.47067 0.42497
USER: genes 1 Rotation |==|  0.42413 0.50115 0.73984 0.93211
USER: genes 2 Torsion [CB]-CA--N-[C] |==|  0.87737
USER: genes 3 Torsion [N]-C--CA-[N] |==|  0.38621
USER: genes 4 Torsion [C]-CA--CB-[CG] |==|  0.51931
USER: genes 5 Torsion [CA]-CB--CG-[CD] |==|  0.28047
USER: genes 6 Torsion [CB]-CG--CD-[NE] |==|  0.12831
USER: genes 7 Torsion [CG]-CD--NE-[HE] |==|  0.10577
USER: genes 8 Torsion [C]-CA--N-[C] |==|  0.84375
USER: genes 9 Torsion [N]-C--CA-[N] |==|  0.24406
USER: genes 10 Torsion [C]-CA--N-[H1] |==|  0.68558
USER: genes 11 Torsion [N]-CA--CB-[CG2] |==|  0.46215
USER: genes 12 Torsion [CA]-CB--OG1-[HG1] |==|  0.72653
USER: genes 13 Torsion [N]-CA--C-[N] |==|  0.29692
USER: genes 14 Torsion [C]-N--CA-[CB] |==|  0.16826
USER: genes 15 Torsion [N]-CA--C-[N] |==|  0.73324
USER: genes 16 Torsion [C]-N--CA-[CB] |==|  0.00755
USER: genes 17 Torsion [N]-CA--CB-[CG] |==|  0.36179
USER: genes 18 Torsion [CA]-CB--CG-[CD] |==|  0.29792
USER: genes 19 Torsion [CB]-CG--CD-[OE1] |==|  0.21278
USER: genes 20 Torsion [N]-CA--C-[O] |==|  0.05277
USER: genes 21 Torsion [N]-CA--CB-[CG] |==|  0.62383
USER: genes 22 Torsion [CA]-CB--CG-[CD] |==|  0.55573
USER: genes 23 Torsion [CB]-CG--CD-[CE] |==|  0.11674
USER: genes 24 Torsion [CG]-CD--CE-[NZ] |==|  0.54390
USER: genes 25 Torsion [CD]-CE--NZ-[HZ2] |==|  0.54947
ROOT
ATOM      1  CA  THR D   3      16.962  16.057 146.765  1.00 39.79 LIG 0.20  C 
ENDROOT
BRANCH 1 2
ATOM      2  N   THR D   3      16.537  14.709 146.394  1.00 34.46 LIG-0.34  N 
ATOM      3  C   ARG D   2      15.389  14.485 145.756  1.00 39.53 LIG 0.24  C 
ATOM      4 O    ARG D   2      14.559  15.372 145.549  1.00 39.08 LIG-0.27  OA
ATOM      5 H    THR D   3      17.088  14.088 146.622  1.00 34.46 LIG 0.16  HD
BRANCH 3 6
ATOM      6  CA  ARG D   2      15.115  13.046 145.295  1.00 42.24 LIG 0.18  C 
BRANCH 6 7
ATOM      7  CB  ARG D   2      15.402  12.898 143.799  1.00 49.82 LIG 0.04  C 
BRANCH 7 8
ATOM      8  CG  ARG D   2      15.020  11.569 143.164  1.00 55.24 LIG 0.02  C 
BRANCH 8 9
ATOM      9  CD  ARG D   2      13.692  11.709 142.404  1.00 55.63 LIG 0.14  C 
BRANCH 9 10
ATOM     10  NE  ARG D   2      13.642  12.906 141.562  1.00 65.78 LIG-0.23  N 
ATOM     11 HE   ARG D   2      14.362  13.134 141.151  1.00 65.78 LIG 0.18  HD
ATOM     12  CZ  ARG D   2      12.565  13.667 141.386  1.00 70.57 LIG 0.67  C 
ATOM     13  NH1 ARG D   2      11.426  13.373 141.999  1.00 66.11 LIG-0.23  N 
ATOM     14  NH2 ARG D   2      12.625  14.734 140.599  1.00 74.94 LIG-0.23  N 
ATOM     15 1HH1 ARG D   2      11.380  12.686 142.513  1.00 66.11 LIG 0.17  HD
ATOM     16 2HH1 ARG D   2      10.734  13.869 141.881  1.00 66.11 LIG 0.17  HD
ATOM     17 2HH2 ARG D   2      11.928  15.225 140.486  1.00 74.94 LIG 0.17  HD
ATOM     18 1HH2 ARG D   2      13.360  14.934 140.201  1.00 74.94 LIG 0.17  HD
ENDBRANCH 9 10
ENDBRANCH 8 9
ENDBRANCH 7 8
ENDBRANCH 6 7
BRANCH 6 19
ATOM     19  N   ARG D   2      13.716  12.705 145.533  1.00 42.84 LIG-0.35  N 
ATOM     20  C   ALA D   1      13.161  12.792 146.731  1.00 44.74 LIG 0.25  C 
ATOM     21 O    ALA D   1      13.797  13.091 147.738  1.00 48.31 LIG-0.27  OA
ATOM     22 H    ARG D   2      13.293  12.445 144.831  1.00 42.84 LIG 0.16  HD
BRANCH 20 23
ATOM     23  CA  ALA D   1      11.664  12.484 146.800  1.00 45.19 LIG 0.27  C 
ATOM     24  CB  ALA D   1      11.015  13.274 147.914  1.00 43.32 LIG 0.05  C 
BRANCH 23 25
ATOM     25  N   ALA D   1      11.440  11.062 146.998  1.00 39.75 LIG-0.07  N 
ATOM     26 H1   ALA D   1      11.054  10.719 146.273  1.00 39.75 LIG 0.28  HD
ATOM     27 H2   ALA D   1      12.219  10.656 147.139  1.00 39.75 LIG 0.28  HD
ATOM     28 H3   ALA D   1      10.910  10.940 147.702  1.00 39.75 LIG 0.28  HD
ENDBRANCH 23 25
ENDBRANCH 20 23
ENDBRANCH 6 19
ENDBRANCH 3 6
ENDBRANCH 1 2
BRANCH 1 29
ATOM     29  CB  THR D   3      16.743  17.071 145.619  1.00 46.90 LIG 0.15  C 
ATOM     30  CG2 THR D   3      16.871  18.496 146.125  1.00 44.81 LIG 0.04  C 
BRANCH 29 31
ATOM     31 OG1  THR D   3      17.716  16.853 144.590  1.00 48.09 LIG-0.39  OA
ATOM     32 HG1  THR D   3      18.347  17.401 144.679  1.00 48.09 LIG 0.21  HD
ENDBRANCH 29 31
ENDBRANCH 1 29
BRANCH 1 33
ATOM     33  C   THR D   3      16.193  16.542 147.993  1.00 42.40 LIG 0.24  C 
ATOM     34 O    THR D   3      15.020  16.917 147.901  1.00 40.34 LIG-0.27  OA
ATOM     35  N   LYS D   4      16.828  16.603 149.132  1.00 38.45 LIG-0.35  N 
ATOM     36 H    LYS D   4      17.630  16.323 149.262  1.00 38.45 LIG 0.16  HD
BRANCH 35 37
ATOM     37  CA  LYS D   4      16.182  17.169 150.291  1.00 37.56 LIG 0.18  C 
BRANCH 37 38
ATOM     38  C   LYS D   4      17.156  17.261 151.456  1.00 44.28 LIG 0.24  C 
ATOM     39 O    LYS D   4      17.857  18.197 151.540  1.00 49.08 LIG-0.27  OA
ATOM     40  N   GLN D   5      17.125  16.268 152.328  1.00 53.59 LIG-0.35  N 
ATOM     41 H    GLN D   5      16.419  15.778 152.359  1.00 53.59 LIG 0.16  HD
BRANCH 40 42
ATOM     42  CA  GLN D   5      18.105  15.772 153.338  1.00 61.39 LIG 0.16  C 
BRANCH 42 43
ATOM     43  CB  GLN D   5      19.405  16.581 153.459  1.00 20.00 LIG 0.04  C 
BRANCH 43 44
ATOM     44  CG  GLN D   5      19.756  16.959 154.918  1.00 20.00 LIG 0.10  C 
BRANCH 44 45
ATOM     45  CD  GLN D   5      20.925  16.204 155.552  1.00 20.00 LIG 0.21  C 
ATOM     46  NE2 GLN D   5      20.602  15.227 156.390  1.00 20.00 LIG-0.37  N 
ATOM     47 21HE GLN D   5      19.776  15.065 156.564  1.00 20.00 LIG 0.16  HD
ATOM     48 22HE GLN D   5      21.219  14.756 156.759  1.00 20.00 LIG 0.16  HD
ATOM     49 OE1  GLN D   5      22.095  16.475 155.272  1.00 20.00 LIG-0.27  OA
ENDBRANCH 44 45
ENDBRANCH 43 44
ENDBRANCH 42 43
BRANCH 42 50
ATOM     50  C   GLN D   5      17.703  15.237 154.691  1.00 64.61 LIG 0.22  C 
ATOM     51 O    GLN D   5      16.584  14.870 154.901  1.00 68.60 LIG-0.29  OA
ENDBRANCH 42 50
ENDBRANCH 40 42
ENDBRANCH 37 38
BRANCH 37 52
ATOM     52  CB  LYS D   4      14.939  16.379 150.633  1.00 33.42 LIG 0.04  C 
BRANCH 52 53
ATOM     53  CG  LYS D   4      13.773  17.195 150.948  1.00 40.53 LIG 0.00  C 
BRANCH 53 54
ATOM     54  CD  LYS D   4      12.821  16.418 151.691  1.00 50.17 LIG 0.03  C 
BRANCH 54 55
ATOM     55  CE  LYS D   4      13.494  15.569 152.731  1.00 57.03 LIG 0.23  C 
BRANCH 55 56
ATOM     56  NZ  LYS D   4      12.538  14.554 153.170  1.00 52.11 LIG-0.08  N 
ATOM     57 HZ3  LYS D   4      11.735  14.926 153.270  1.00 52.11 LIG 0.27  HD
ATOM     58 HZ2  LYS D   4      12.804  14.211 153.946  1.00 52.11 LIG 0.27  HD
ATOM     59 HZ1  LYS D   4      12.491  13.907 152.560  1.00 52.11 LIG 0.27  HD
ENDBRANCH 55 56
ENDBRANCH 54 55
ENDBRANCH 53 54
ENDBRANCH 52 53
ENDBRANCH 37 52
ENDBRANCH 35 37
ENDBRANCH 1 33
TORSDOF 24
ENDMDL
MODEL 27
USER: ADFR SOLUTION from run 121
USER: SCORE 18.002459 LL:  -2.590 LR: -17.357 RR:   0.000 FEB: -10.198
USER: RMSD 4.544026
USER: SEED 120
USER: STATUS searching
USER: GENES 26
USER: genes 0 Translation |==|  0.55050 0.49346 0.47769
USER: genes 1 Rotation |==|  0.55254 0.58539 0.57782 0.98362
USER: genes 2 Torsion [CB]-CA--N-[C] |==|  0.38209
USER: genes 3 Torsion [N]-C--CA-[N] |==|  0.44970
USER: genes 4 Torsion [C]-CA--CB-[CG] |==|  0.60276
USER: genes 5 Torsion [CA]-CB--CG-[CD] |==|  0.51631
USER: genes 6 Torsion [CB]-CG--CD-[NE] |==|  0.64618
USER: genes 7 Torsion [CG]-CD--NE-[HE] |==|  0.31809
USER: genes 8 Torsion [C]-CA--N-[C] |==|  0.67171
USER: genes 9 Torsion [N]-C--CA-[N] |==|  0.33080
USER: genes 10 Torsion [C]-CA--N-[H1] |==|  0.07297
USER: genes 11 Torsion [N]-CA--CB-[CG2] |==|  0.14054
USER: genes 12 Torsion [CA]-CB--OG1-[HG1] |==|  0.90935
USER: genes 13 Torsion [N]-CA--C-[N] |==|  0.22949
USER: genes 14 Torsion [C]-N--CA-[CB] |==|  0.84705
USER: genes 15 Torsion [N]-CA--C-[N] |==|  0.40808
USER: genes 16 Torsion [C]-N--CA-[CB] |==|  0.31966
USER: genes 17 Torsion [N]-CA--CB-[CG] |==|  0.74474
USER: genes 18 Torsion [CA]-CB--CG-[CD] |==|  0.28419
USER: genes 19 Torsion [CB]-CG--CD-[OE1] |==|  0.71248
USER: genes 20 Torsion [N]-CA--C-[O] |==|  0.84358
USER: genes 21 Torsion [N]-CA--CB-[CG] |==|  0.49018
USER: genes 22 Torsion [CA]-CB--CG-[CD] |==|  0.25657
USER: genes 23 Torsion [CB]-CG--CD-[CE] |==|  0.64348
USER: genes 24 Torsion [CG]-CD--CE-[NZ] |==|  0.44863
USER: genes 25 Torsion [CD]-CE--NZ-[HZ2] |==|  0.12611
ROOT
ATOM      1  CA  THR D   3      16.137  16.553 147.990  1.00 39.79 LIG 0.20  C 
ENDROOT
BRANCH 1 2
ATOM      2  N   THR D   3      14.805  16.014 147.721  1.00 34.46 LIG-0.34  N 
ATOM      3  C   ARG D   2      14.607  14.716 147.490  1.00 39.53 LIG 0.24  C 
ATOM      4 O    ARG D   2      15.533  13.913 147.364  1.00 39.08 LIG-0.27  OA
ATOM      5 H    THR D   3      14.177  16.601 147.727  1.00 34.46 LIG 0.16  HD
BRANCH 3 6
ATOM      6  CA  ARG D   2      13.152  14.245 147.360  1.00 42.24 LIG 0.18  C 
BRANCH 6 7
ATOM      7  CB  ARG D   2      12.505  14.110 148.740  1.00 49.82 LIG 0.04  C 
BRANCH 7 8
ATOM      8  CG  ARG D   2      11.538  12.950 148.925  1.00 55.24 LIG 0.02  C 
BRANCH 8 9
ATOM      9  CD  ARG D   2      10.867  13.037 150.305  1.00 55.63 LIG 0.14  C 
BRANCH 9 10
ATOM     10  NE  ARG D   2      10.985  11.797 151.075  1.00 65.78 LIG-0.23  N 
ATOM     11 HE   ARG D   2      11.451  11.820 151.797  1.00 65.78 LIG 0.18  HD
ATOM     12  CZ  ARG D   2      10.424  10.638 150.739  1.00 70.57 LIG 0.67  C 
ATOM     13  NH1 ARG D   2       9.699  10.537 149.634  1.00 66.11 LIG-0.23  N 
ATOM     14  NH2 ARG D   2      10.592   9.570 151.509  1.00 74.94 LIG-0.23  N 
ATOM     15 1HH1 ARG D   2       9.589  11.223 149.128  1.00 66.11 LIG 0.17  HD
ATOM     16 2HH1 ARG D   2       9.340   9.785 149.422  1.00 66.11 LIG 0.17  HD
ATOM     17 2HH2 ARG D   2      10.229   8.821 151.291  1.00 74.94 LIG 0.17  HD
ATOM     18 1HH2 ARG D   2      11.064   9.626 152.226  1.00 74.94 LIG 0.17  HD
ENDBRANCH 9 10
ENDBRANCH 8 9
ENDBRANCH 7 8
ENDBRANCH 6 7
BRANCH 6 19
ATOM     19  N   ARG D   2      13.107  12.944 146.699  1.00 42.84 LIG-0.35  N 
ATOM     20  C   ALA D   1      12.492  12.758 145.543  1.00 44.74 LIG 0.25  C 
ATOM     21 O    ALA D   1      11.853  13.643 144.980  1.00 48.31 LIG-0.27  OA
ATOM     22 H    ARG D   2      13.512  12.318 147.128  1.00 42.84 LIG 0.16  HD
BRANCH 20 23
ATOM     23  CA  ALA D   1      12.611  11.358 144.938  1.00 45.19 LIG 0.27  C 
ATOM     24  CB  ALA D   1      13.305  11.422 143.596  1.00 43.32 LIG 0.05  C 
BRANCH 23 25
ATOM     25  N   ALA D   1      11.301  10.747 144.795  1.00 39.75 LIG-0.07  N 
ATOM     26 H1   ALA D   1      10.683  11.383 144.716  1.00 39.75 LIG 0.28  HD
ATOM     27 H2   ALA D   1      11.291  10.232 144.069  1.00 39.75 LIG 0.28  HD
ATOM     28 H3   ALA D   1      11.124  10.251 145.513  1.00 39.75 LIG 0.28  HD
ENDBRANCH 23 25
ENDBRANCH 20 23
ENDBRANCH 6 19
ENDBRANCH 3 6
ENDBRANCH 1 2
BRANCH 1 29
ATOM     29  CB  THR D   3      16.386  17.884 147.247  1.00 46.90 LIG 0.15  C 
ATOM     30  CG2 THR D   3      15.251  18.861 147.489  1.00 44.81 LIG 0.04  C 
BRANCH 29 31
ATOM     31 OG1  THR D   3      17.611  18.470 147.707  1.00 48.09 LIG-0.39  OA
ATOM     32 HG1  THR D   3      17.726  18.282 148.517  1.00 48.09 LIG 0.21  HD
ENDBRANCH 29 31
ENDBRANCH 1 29
BRANCH 1 33
ATOM     33  C   THR D   3      16.324  16.793 149.488  1.00 42.40 LIG 0.24  C 
ATOM     34 O    THR D   3      16.206  17.925 149.969  1.00 40.34 LIG-0.27  OA
ATOM     35  N   LYS D   4      16.668  15.781 150.236  1.00 38.45 LIG-0.35  N 
ATOM     36 H    LYS D   4      16.730  14.968 149.962  1.00 38.45 LIG 0.16  HD
BRANCH 35 37
ATOM     37  CA  LYS D   4      16.977  15.982 151.630  1.00 37.56 LIG 0.18  C 
BRANCH 37 38
ATOM     38  C   LYS D   4      15.719  16.329 152.413  1.00 44.28 LIG 0.24  C 
ATOM     39 O    LYS D   4      14.864  16.927 151.881  1.00 49.08 LIG-0.27  OA
ATOM     40  N   GLN D   5      15.667  15.898 153.662  1.00 53.59 LIG-0.35  N 
ATOM     41 H    GLN D   5      16.182  15.248 153.888  1.00 53.59 LIG 0.16  HD
BRANCH 40 42
ATOM     42  CA  GLN D   5      14.860  16.313 154.846  1.00 61.39 LIG 0.16  C 
BRANCH 42 43
ATOM     43  CB  GLN D   5      13.870  15.268 155.379  1.00 20.00 LIG 0.04  C 
BRANCH 43 44
ATOM     44  CG  GLN D   5      12.457  15.393 154.761  1.00 20.00 LIG 0.10  C 
BRANCH 44 45
ATOM     45  CD  GLN D   5      12.102  14.384 153.669  1.00 20.00 LIG 0.21  C 
ATOM     46  NE2 GLN D   5      11.772  13.167 154.084  1.00 20.00 LIG-0.37  N 
ATOM     47 21HE GLN D   5      11.787  12.981 154.923  1.00 20.00 LIG 0.16  HD
ATOM     48 22HE GLN D   5      11.544  12.566 153.514  1.00 20.00 LIG 0.16  HD
ATOM     49 OE1  GLN D   5      12.097  14.700 152.476  1.00 20.00 LIG-0.27  OA
ENDBRANCH 44 45
ENDBRANCH 43 44
ENDBRANCH 42 43
BRANCH 42 50
ATOM     50  C   GLN D   5      15.423  17.121 155.991  1.00 64.61 LIG 0.22  C 
ATOM     51 O    GLN D   5      16.379  16.741 156.603  1.00 68.60 LIG-0.29  OA
ENDBRANCH 42 50
ENDBRANCH 40 42
ENDBRANCH 37 38
BRANCH 37 52
ATOM     52  CB  LYS D   4      18.060  17.029 151.778  1.00 33.42 LIG 0.04  C 
BRANCH 52 53
ATOM     53  CG  LYS D   4      18.389  17.366 153.157  1.00 40.53 LIG 0.00  C 
BRANCH 53 54
ATOM     54  CD  LYS D   4      19.474  16.544 153.614  1.00 50.17 LIG 0.03  C 
BRANCH 54 55
ATOM     55  CE  LYS D   4      19.145  15.871 154.916  1.00 57.03 LIG 0.23  C 
BRANCH 55 56
ATOM     56  NZ  LYS D   4      20.064  14.747 155.085  1.00 52.11 LIG-0.08  N 
ATOM     57 HZ3  LYS D   4      20.036  14.465 155.929  1.00 52.11 LIG 0.27  HD
ATOM     58 HZ2  LYS D   4      20.892  15.008 154.887  1.00 52.11 LIG 0.27  HD
ATOM     59 HZ1  LYS D   4      19.825  14.083 154.543  1.00 52.11 LIG 0.27  HD
ENDBRANCH 55 56
ENDBRANCH 54 55
ENDBRANCH 53 54
ENDBRANCH 52 53
ENDBRANCH 37 52
ENDBRANCH 35 37
ENDBRANCH 1 33
TORSDOF 24
ENDMDL
MODEL 28
USER: ADFR SOLUTION from run 2
USER: SCORE 17.804404 LL:  -2.671 LR: -17.343 RR:   0.000 FEB: -10.183
USER: RMSD 7.688504
USER: SEED 313995
USER: STATUS 1 or 2 clusters left
USER: GENES 26
USER: genes 0 Translation |==|  0.44949 0.41915 0.39365
USER: genes 1 Rotation |==|  0.98321 0.59766 0.41674 0.50582
USER: genes 2 Torsion [CB]-CA--N-[C] |==|  0.48010
USER: genes 3 Torsion [N]-C--CA-[N] |==|  0.66829
USER: genes 4 Torsion [C]-CA--CB-[CG] |==|  0.55899
USER: genes 5 Torsion [CA]-CB--CG-[CD] |==|  0.33003
USER: genes 6 Torsion [CB]-CG--CD-[NE] |==|  0.40722
USER: genes 7 Torsion [CG]-CD--NE-[HE] |==|  0.80260
USER: genes 8 Torsion [C]-CA--N-[C] |==|  0.15718
USER: genes 9 Torsion [N]-C--CA-[N] |==|  0.51063
USER: genes 10 Torsion [C]-CA--N-[H1] |==|  0.07170
USER: genes 11 Torsion [N]-CA--CB-[CG2] |==|  0.64209
USER: genes 12 Torsion [CA]-CB--OG1-[HG1] |==|  0.62712
USER: genes 13 Torsion [N]-CA--C-[N] |==|  0.54619
USER: genes 14 Torsion [C]-N--CA-[CB] |==|  0.78658
USER: genes 15 Torsion [N]-CA--C-[N] |==|  0.15202
USER: genes 16 Torsion [C]-N--CA-[CB] |==|  0.74966
USER: genes 17 Torsion [N]-CA--CB-[CG] |==|  0.75842
USER: genes 18 Torsion [CA]-CB--CG-[CD] |==|  0.11454
USER: genes 19 Torsion [CB]-CG--CD-[OE1] |==|  0.18222
USER: genes 20 Torsion [N]-CA--C-[O] |==|  0.02134
USER: genes 21 Torsion [N]-CA--CB-[CG] |==|  0.91579
USER: genes 22 Torsion [CA]-CB--CG-[CD] |==|  0.29264
USER: genes 23 Torsion [CB]-CG--CD-[CE] |==|  0.03808
USER: genes 24 Torsion [CG]-CD--CE-[NZ] |==|  0.44483
USER: genes 25 Torsion [CD]-CE--NZ-[HZ2] |==|  0.53164
ROOT
ATOM      1  CA  THR D   3      14.243  14.937 146.036  1.00 39.79 LIG 0.20  C 
ENDROOT
BRANCH 1 2
ATOM      2  N   THR D   3      13.246  14.711 147.081  1.00 34.46 LIG-0.34  N 
ATOM      3  C   ARG D   2      12.007  15.195 146.985  1.00 39.53 LIG 0.24  C 
ATOM      4 O    ARG D   2      11.659  15.960 146.083  1.00 39.08 LIG-0.27  OA
ATOM      5 H    THR D   3      13.529  14.247 147.748  1.00 34.46 LIG 0.16  HD
BRANCH 3 6
ATOM      6  CA  ARG D   2      11.009  14.777 148.073  1.00 42.24 LIG 0.18  C 
BRANCH 6 7
ATOM      7  CB  ARG D   2      11.680  13.853 149.092  1.00 49.82 LIG 0.04  C 
BRANCH 7 8
ATOM      8  CG  ARG D   2      10.756  12.970 149.918  1.00 55.24 LIG 0.02  C 
BRANCH 8 9
ATOM      9  CD  ARG D   2      11.069  11.488 149.656  1.00 55.63 LIG 0.14  C 
BRANCH 9 10
ATOM     10  NE  ARG D   2      10.865  10.646 150.837  1.00 65.78 LIG-0.23  N 
ATOM     11 HE   ARG D   2      11.425  10.726 151.484  1.00 65.78 LIG 0.18  HD
ATOM     12  CZ  ARG D   2       9.878   9.765 150.981  1.00 70.57 LIG 0.67  C 
ATOM     13  NH1 ARG D   2       8.987   9.590 150.015  1.00 66.11 LIG-0.23  N 
ATOM     14  NH2 ARG D   2       9.781   9.050 152.095  1.00 74.94 LIG-0.23  N 
ATOM     15 1HH1 ARG D   2       9.045  10.047 149.289  1.00 66.11 LIG 0.17  HD
ATOM     16 2HH1 ARG D   2       8.351   9.019 150.114  1.00 66.11 LIG 0.17  HD
ATOM     17 2HH2 ARG D   2       9.143   8.481 152.186  1.00 74.94 LIG 0.17  HD
ATOM     18 1HH2 ARG D   2      10.358   9.155 152.724  1.00 74.94 LIG 0.17  HD
ENDBRANCH 9 10
ENDBRANCH 8 9
ENDBRANCH 7 8
ENDBRANCH 6 7
BRANCH 6 19
ATOM     19  N   ARG D   2       9.886  14.063 147.471  1.00 42.84 LIG-0.35  N 
ATOM     20  C   ALA D   1      10.053  12.979 146.731  1.00 44.74 LIG 0.25  C 
ATOM     21 O    ALA D   1      11.161  12.541 146.434  1.00 48.31 LIG-0.27  OA
ATOM     22 H    ARG D   2       9.118  14.409 147.641  1.00 42.84 LIG 0.16  HD
BRANCH 20 23
ATOM     23  CA  ALA D   1       8.773  12.296 146.246  1.00 45.19 LIG 0.27  C 
ATOM     24  CB  ALA D   1       7.863  11.992 147.415  1.00 43.32 LIG 0.05  C 
BRANCH 23 25
ATOM     25  N   ALA D   1       9.085  11.074 145.523  1.00 39.75 LIG-0.07  N 
ATOM     26 H1   ALA D   1       9.868  10.756 145.801  1.00 39.75 LIG 0.28  HD
ATOM     27 H2   ALA D   1       8.449  10.470 145.674  1.00 39.75 LIG 0.28  HD
ATOM     28 H3   ALA D   1       9.128  11.247 144.651  1.00 39.75 LIG 0.28  HD
ENDBRANCH 23 25
ENDBRANCH 20 23
ENDBRANCH 6 19
ENDBRANCH 3 6
ENDBRANCH 1 2
BRANCH 1 29
ATOM     29  CB  THR D   3      15.644  14.434 146.452  1.00 46.90 LIG 0.15  C 
ATOM     30  CG2 THR D   3      16.690  15.513 146.246  1.00 44.81 LIG 0.04  C 
BRANCH 29 31
ATOM     31 OG1  THR D   3      15.630  14.057 147.835  1.00 48.09 LIG-0.39  OA
ATOM     32 HG1  THR D   3      16.307  14.373 148.219  1.00 48.09 LIG 0.21  HD
ENDBRANCH 29 31
ENDBRANCH 1 29
BRANCH 1 33
ATOM     33  C   THR D   3      13.838  14.224 144.747  1.00 42.40 LIG 0.24  C 
ATOM     34 O    THR D   3      12.693  13.786 144.596  1.00 40.34 LIG-0.27  OA
ATOM     35  N   LYS D   4      14.750  14.042 143.831  1.00 38.45 LIG-0.35  N 
ATOM     36 H    LYS D   4      15.550  14.355 143.867  1.00 38.45 LIG 0.16  HD
BRANCH 35 37
ATOM     37  CA  LYS D   4      14.448  13.268 142.653  1.00 37.56 LIG 0.18  C 
BRANCH 37 38
ATOM     38  C   LYS D   4      13.133  13.721 142.035  1.00 44.28 LIG 0.24  C 
ATOM     39 O    LYS D   4      12.281  12.932 141.870  1.00 49.08 LIG-0.27  OA
ATOM     40  N   GLN D   5      13.030  15.006 141.746  1.00 53.59 LIG-0.35  N 
ATOM     41 H    GLN D   5      13.563  15.554 142.141  1.00 53.59 LIG 0.16  HD
BRANCH 40 42
ATOM     42  CA  GLN D   5      12.139  15.772 140.827  1.00 61.39 LIG 0.16  C 
BRANCH 42 43
ATOM     43  CB  GLN D   5      12.661  15.960 139.395  1.00 20.00 LIG 0.04  C 
BRANCH 43 44
ATOM     44  CG  GLN D   5      13.567  17.205 139.233  1.00 20.00 LIG 0.10  C 
BRANCH 44 45
ATOM     45  CD  GLN D   5      14.566  17.468 140.359  1.00 20.00 LIG 0.21  C 
ATOM     46  NE2 GLN D   5      14.351  18.557 141.086  1.00 20.00 LIG-0.37  N 
ATOM     47 21HE GLN D   5      13.693  19.077 140.898  1.00 20.00 LIG 0.16  HD
ATOM     48 22HE GLN D   5      14.870  18.743 141.745  1.00 20.00 LIG 0.16  HD
ATOM     49 OE1  GLN D   5      15.497  16.693 140.589  1.00 20.00 LIG-0.27  OA
ENDBRANCH 44 45
ENDBRANCH 43 44
ENDBRANCH 42 43
BRANCH 42 50
ATOM     50  C   GLN D   5      10.637  15.623 140.813  1.00 64.61 LIG 0.22  C 
ATOM     51 O    GLN D   5      10.074  14.971 141.644  1.00 68.60 LIG-0.29  OA
ENDBRANCH 42 50
ENDBRANCH 40 42
ENDBRANCH 37 38
BRANCH 37 52
ATOM     52  CB  LYS D   4      14.457  11.791 142.982  1.00 33.42 LIG 0.04  C 
BRANCH 52 53
ATOM     53  CG  LYS D   4      15.371  11.418 144.054  1.00 40.53 LIG 0.00  C 
BRANCH 53 54
ATOM     54  CD  LYS D   4      14.630  11.141 145.252  1.00 50.17 LIG 0.03  C 
BRANCH 54 55
ATOM     55  CE  LYS D   4      13.162  10.991 144.969  1.00 57.03 LIG 0.23  C 
BRANCH 55 56
ATOM     56  NZ  LYS D   4      12.562  10.262 146.086  1.00 52.11 LIG-0.08  N 
ATOM     57 HZ3  LYS D   4      13.049   9.539 146.264  1.00 52.11 LIG 0.27  HD
ATOM     58 HZ2  LYS D   4      11.735  10.017 145.871  1.00 52.11 LIG 0.27  HD
ATOM     59 HZ1  LYS D   4      12.539  10.787 146.805  1.00 52.11 LIG 0.27  HD
ENDBRANCH 55 56
ENDBRANCH 54 55
ENDBRANCH 53 54
ENDBRANCH 52 53
ENDBRANCH 37 52
ENDBRANCH 35 37
ENDBRANCH 1 33
TORSDOF 24
ENDMDL
MODEL 29
USER: ADFR SOLUTION from run 54
USER: SCORE 17.825952 LL:  -2.714 LR: -17.289 RR:   0.000 FEB: -10.130
USER: RMSD 5.809178
USER: SEED 53
USER: STATUS searching
USER: GENES 26
USER: genes 0 Translation |==|  0.42285 0.27798 0.38261
USER: genes 1 Rotation |==|  0.32582 0.74491 0.46148 0.89774
USER: genes 2 Torsion [CB]-CA--N-[C] |==|  0.84985
USER: genes 3 Torsion [N]-C--CA-[N] |==|  0.76773
USER: genes 4 Torsion [C]-CA--CB-[CG] |==|  0.34184
USER: genes 5 Torsion [CA]-CB--CG-[CD] |==|  0.31788
USER: genes 6 Torsion [CB]-CG--CD-[NE] |==|  0.18756
USER: genes 7 Torsion [CG]-CD--NE-[HE] |==|  0.24529
USER: genes 8 Torsion [C]-CA--N-[C] |==|  0.75247
USER: genes 9 Torsion [N]-C--CA-[N] |==|  0.85631
USER: genes 10 Torsion [C]-CA--N-[H1] |==|  0.37738
USER: genes 11 Torsion [N]-CA--CB-[CG2] |==|  0.52447
USER: genes 12 Torsion [CA]-CB--OG1-[HG1] |==|  0.27242
USER: genes 13 Torsion [N]-CA--C-[N] |==|  0.96111
USER: genes 14 Torsion [C]-N--CA-[CB] |==|  0.26663
USER: genes 15 Torsion [N]-CA--C-[N] |==|  0.39199
USER: genes 16 Torsion [C]-N--CA-[CB] |==|  0.02770
USER: genes 17 Torsion [N]-CA--CB-[CG] |==|  0.23823
USER: genes 18 Torsion [CA]-CB--CG-[CD] |==|  0.65249
USER: genes 19 Torsion [CB]-CG--CD-[OE1] |==|  0.96657
USER: genes 20 Torsion [N]-CA--C-[O] |==|  0.93414
USER: genes 21 Torsion [N]-CA--CB-[CG] |==|  0.74010
USER: genes 22 Torsion [CA]-CB--CG-[CD] |==|  0.82672
USER: genes 23 Torsion [CB]-CG--CD-[CE] |==|  0.87132
USER: genes 24 Torsion [CG]-CD--CE-[NZ] |==|  0.36157
USER: genes 25 Torsion [CD]-CE--NZ-[HZ2] |==|  0.92009
ROOT
ATOM      1  CA  THR D   3      13.743  11.866 145.780  1.00 39.79 LIG 0.20  C 
ENDROOT
BRANCH 1 2
ATOM      2  N   THR D   3      12.593  11.992 146.673  1.00 34.46 LIG-0.34  N 
ATOM      3  C   ARG D   2      11.690  12.960 146.522  1.00 39.53 LIG 0.24  C 
ATOM      4 O    ARG D   2      11.827  13.877 145.709  1.00 39.08 LIG-0.27  OA
ATOM      5 H    THR D   3      12.557  11.394 147.291  1.00 34.46 LIG 0.16  HD
BRANCH 3 6
ATOM      6  CA  ARG D   2      10.453  12.909 147.430  1.00 42.24 LIG 0.18  C 
BRANCH 6 7
ATOM      7  CB  ARG D   2      10.829  12.392 148.821  1.00 49.82 LIG 0.04  C 
BRANCH 7 8
ATOM      8  CG  ARG D   2      10.493  13.300 149.995  1.00 55.24 LIG 0.02  C 
BRANCH 8 9
ATOM      9  CD  ARG D   2       9.428  12.641 150.884  1.00 55.63 LIG 0.14  C 
BRANCH 9 10
ATOM     10  NE  ARG D   2       9.921  11.448 151.574  1.00 65.78 LIG-0.23  N 
ATOM     11 HE   ARG D   2      10.298  11.557 152.339  1.00 65.78 LIG 0.18  HD
ATOM     12  CZ  ARG D   2       9.829  10.205 151.105  1.00 70.57 LIG 0.67  C 
ATOM     13  NH1 ARG D   2       9.265   9.971 149.928  1.00 66.11 LIG-0.23  N 
ATOM     14  NH2 ARG D   2      10.309   9.190 151.812  1.00 74.94 LIG-0.23  N 
ATOM     15 1HH1 ARG D   2       8.955  10.624 149.463  1.00 66.11 LIG 0.17  HD
ATOM     16 2HH1 ARG D   2       9.209   9.167 149.631  1.00 66.11 LIG 0.17  HD
ATOM     17 2HH2 ARG D   2      10.249   8.388 151.507  1.00 74.94 LIG 0.17  HD
ATOM     18 1HH2 ARG D   2      10.680   9.334 152.574  1.00 74.94 LIG 0.17  HD
ENDBRANCH 9 10
ENDBRANCH 8 9
ENDBRANCH 7 8
ENDBRANCH 6 7
BRANCH 6 19
ATOM     19  N   ARG D   2       9.453  12.011 146.858  1.00 42.84 LIG-0.35  N 
ATOM     20  C   ALA D   1       8.532  12.430 146.007  1.00 44.74 LIG 0.25  C 
ATOM     21 O    ALA D   1       8.402  13.611 145.696  1.00 48.31 LIG-0.27  OA
ATOM     22 H    ARG D   2       9.520  11.197 147.124  1.00 42.84 LIG 0.16  HD
BRANCH 20 23
ATOM     23  CA  ALA D   1       7.613  11.352 145.430  1.00 45.19 LIG 0.27  C 
ATOM     24  CB  ALA D   1       6.673  10.835 146.496  1.00 43.32 LIG 0.05  C 
BRANCH 23 25
ATOM     25  N   ALA D   1       8.391  10.257 144.875  1.00 39.75 LIG-0.07  N 
ATOM     26 H1   ALA D   1       8.032   9.481 145.125  1.00 39.75 LIG 0.28  HD
ATOM     27 H2   ALA D   1       8.389  10.312 143.987  1.00 39.75 LIG 0.28  HD
ATOM     28 H3   ALA D   1       9.228  10.305 145.174  1.00 39.75 LIG 0.28  HD
ENDBRANCH 23 25
ENDBRANCH 20 23
ENDBRANCH 6 19
ENDBRANCH 3 6
ENDBRANCH 1 2
BRANCH 1 29
ATOM     29  CB  THR D   3      13.322  11.803 144.294  1.00 46.90 LIG 0.15  C 
ATOM     30  CG2 THR D   3      14.506  11.458 143.409  1.00 44.81 LIG 0.04  C 
BRANCH 29 31
ATOM     31 OG1  THR D   3      12.306  10.807 144.123  1.00 48.09 LIG-0.39  OA
ATOM     32 HG1  THR D   3      11.551  11.174 144.115  1.00 48.09 LIG 0.21  HD
ENDBRANCH 29 31
ENDBRANCH 1 29
BRANCH 1 33
ATOM     33  C   THR D   3      14.695  13.048 145.962  1.00 42.40 LIG 0.24  C 
ATOM     34 O    THR D   3      15.858  12.997 145.548  1.00 40.34 LIG-0.27  OA
ATOM     35  N   LYS D   4      14.263  14.091 146.617  1.00 38.45 LIG-0.35  N 
ATOM     36 H    LYS D   4      13.456  14.195 146.896  1.00 38.45 LIG 0.16  HD
BRANCH 35 37
ATOM     37  CA  LYS D   4      15.161  15.177 146.922  1.00 37.56 LIG 0.18  C 
BRANCH 37 38
ATOM     38  C   LYS D   4      14.923  15.690 148.335  1.00 44.28 LIG 0.24  C 
ATOM     39 O    LYS D   4      13.826  15.739 148.746  1.00 49.08 LIG-0.27  OA
ATOM     40  N   GLN D   5      15.998  16.028 149.027  1.00 53.59 LIG-0.35  N 
ATOM     41 H    GLN D   5      16.757  15.710 148.777  1.00 53.59 LIG 0.16  HD
BRANCH 40 42
ATOM     42  CA  GLN D   5      16.204  16.894 150.223  1.00 61.39 LIG 0.16  C 
BRANCH 42 43
ATOM     43  CB  GLN D   5      14.928  17.352 150.943  1.00 20.00 LIG 0.04  C 
BRANCH 43 44
ATOM     44  CG  GLN D   5      14.413  16.330 151.985  1.00 20.00 LIG 0.10  C 
BRANCH 44 45
ATOM     45  CD  GLN D   5      12.964  15.869 151.825  1.00 20.00 LIG 0.21  C 
ATOM     46  NE2 GLN D   5      12.593  14.842 152.579  1.00 20.00 LIG-0.37  N 
ATOM     47 21HE GLN D   5      13.162  14.464 153.102  1.00 20.00 LIG 0.16  HD
ATOM     48 22HE GLN D   5      11.784  14.554 152.545  1.00 20.00 LIG 0.16  HD
ATOM     49 OE1  GLN D   5      12.185  16.443 151.060  1.00 20.00 LIG-0.27  OA
ENDBRANCH 44 45
ENDBRANCH 43 44
ENDBRANCH 42 43
BRANCH 42 50
ATOM     50  C   GLN D   5      17.311  16.674 151.226  1.00 64.61 LIG 0.22  C 
ATOM     51 O    GLN D   5      17.812  15.596 151.364  1.00 68.60 LIG-0.29  OA
ENDBRANCH 42 50
ENDBRANCH 40 42
ENDBRANCH 37 38
BRANCH 37 52
ATOM     52  CB  LYS D   4      15.033  16.267 145.880  1.00 33.42 LIG 0.04  C 
BRANCH 52 53
ATOM     53  CG  LYS D   4      15.986  16.166 144.781  1.00 40.53 LIG 0.00  C 
BRANCH 53 54
ATOM     54  CD  LYS D   4      17.324  16.293 145.285  1.00 50.17 LIG 0.03  C 
BRANCH 54 55
ATOM     55  CE  LYS D   4      17.447  17.445 146.242  1.00 57.03 LIG 0.23  C 
BRANCH 55 56
ATOM     56  NZ  LYS D   4      18.111  16.956 147.449  1.00 52.11 LIG-0.08  N 
ATOM     57 HZ3  LYS D   4      18.991  17.069 147.370  1.00 52.11 LIG 0.27  HD
ATOM     58 HZ2  LYS D   4      17.932  16.091 147.557  1.00 52.11 LIG 0.27  HD
ATOM     59 HZ1  LYS D   4      17.816  17.410 148.155  1.00 52.11 LIG 0.27  HD
ENDBRANCH 55 56
ENDBRANCH 54 55
ENDBRANCH 53 54
ENDBRANCH 52 53
ENDBRANCH 37 52
ENDBRANCH 35 37
ENDBRANCH 1 33
TORSDOF 24
ENDMDL
MODEL 30
USER: ADFR SOLUTION from run 59
USER: SCORE 19.462438 LL:  -2.545 LR: -17.284 RR:   0.000 FEB: -10.124
USER: RMSD 6.333399
USER: SEED 58
USER: STATUS no improvement in best in 4 clusters for 5 generations
USER: GENES 26
USER: genes 0 Translation |==|  0.39713 0.29314 0.43558
USER: genes 1 Rotation |==|  0.19192 0.62677 0.43455 0.86706
USER: genes 2 Torsion [CB]-CA--N-[C] |==|  0.53369
USER: genes 3 Torsion [N]-C--CA-[N] |==|  0.97712
USER: genes 4 Torsion [C]-CA--CB-[CG] |==|  0.97950
USER: genes 5 Torsion [CA]-CB--CG-[CD] |==|  0.76908
USER: genes 6 Torsion [CB]-CG--CD-[NE] |==|  0.72344
USER: genes 7 Torsion [CG]-CD--NE-[HE] |==|  0.79113
USER: genes 8 Torsion [C]-CA--N-[C] |==|  0.74050
USER: genes 9 Torsion [N]-C--CA-[N] |==|  0.83220
USER: genes 10 Torsion [C]-CA--N-[H1] |==|  0.41337
USER: genes 11 Torsion [N]-CA--CB-[CG2] |==|  0.55909
USER: genes 12 Torsion [CA]-CB--OG1-[HG1] |==|  0.80717
USER: genes 13 Torsion [N]-CA--C-[N] |==|  0.43333
USER: genes 14 Torsion [C]-N--CA-[CB] |==|  0.84771
USER: genes 15 Torsion [N]-CA--C-[N] |==|  0.39887
USER: genes 16 Torsion [C]-N--CA-[CB] |==|  0.18318
USER: genes 17 Torsion [N]-CA--CB-[CG] |==|  0.19368
USER: genes 18 Torsion [CA]-CB--CG-[CD] |==|  0.78268
USER: genes 19 Torsion [CB]-CG--CD-[OE1] |==|  0.87043
USER: genes 20 Torsion [N]-CA--C-[O] |==|  0.15450
USER: genes 21 Torsion [N]-CA--CB-[CG] |==|  0.88760
USER: genes 22 Torsion [CA]-CB--CG-[CD] |==|  0.35310
USER: genes 23 Torsion [CB]-CG--CD-[CE] |==|  0.53778
USER: genes 24 Torsion [CG]-CD--CE-[NZ] |==|  0.62877
USER: genes 25 Torsion [CD]-CE--NZ-[HZ2] |==|  0.42668
ROOT
ATOM      1  CA  THR D   3      13.261  12.196 147.011  1.00 39.79 LIG 0.20  C 
ENDROOT
BRANCH 1 2
ATOM      2  N   THR D   3      11.860  12.258 147.421  1.00 34.46 LIG-0.34  N 
ATOM      3  C   ARG D   2      11.424  13.161 148.299  1.00 39.53 LIG 0.24  C 
ATOM      4 O    ARG D   2      12.184  13.914 148.912  1.00 39.08 LIG-0.27  OA
ATOM      5 H    THR D   3      11.355  11.668 147.050  1.00 34.46 LIG 0.16  HD
BRANCH 3 6
ATOM      6  CA  ARG D   2       9.911  13.221 148.546  1.00 42.24 LIG 0.18  C 
BRANCH 6 7
ATOM      7  CB  ARG D   2       9.577  12.736 149.959  1.00 49.82 LIG 0.04  C 
BRANCH 7 8
ATOM      8  CG  ARG D   2      10.725  12.141 150.761  1.00 55.24 LIG 0.02  C 
BRANCH 8 9
ATOM      9  CD  ARG D   2      10.919  10.663 150.387  1.00 55.63 LIG 0.14  C 
BRANCH 9 10
ATOM     10  NE  ARG D   2      10.309   9.747 151.352  1.00 65.78 LIG-0.23  N 
ATOM     11 HE   ARG D   2      10.710   9.635 152.104  1.00 65.78 LIG 0.18  HD
ATOM     12  CZ  ARG D   2       9.178   9.074 151.152  1.00 70.57 LIG 0.67  C 
ATOM     13  NH1 ARG D   2       8.516   9.197 150.010  1.00 66.11 LIG-0.23  N 
ATOM     14  NH2 ARG D   2       8.708   8.266 152.095  1.00 74.94 LIG-0.23  N 
ATOM     15 1HH1 ARG D   2       8.816   9.715 149.393  1.00 66.11 LIG 0.17  HD
ATOM     16 2HH1 ARG D   2       7.786   8.759 149.886  1.00 66.11 LIG 0.17  HD
ATOM     17 2HH2 ARG D   2       7.978   7.832 151.963  1.00 74.94 LIG 0.17  HD
ATOM     18 1HH2 ARG D   2       9.134   8.178 152.836  1.00 74.94 LIG 0.17  HD
ENDBRANCH 9 10
ENDBRANCH 8 9
ENDBRANCH 7 8
ENDBRANCH 6 7
BRANCH 6 19
ATOM     19  N   ARG D   2       9.216  12.365 147.589  1.00 42.84 LIG-0.35  N 
ATOM     20  C   ALA D   1       8.739  12.827 146.444  1.00 44.74 LIG 0.25  C 
ATOM     21 O    ALA D   1       8.777  14.016 146.139  1.00 48.31 LIG-0.27  OA
ATOM     22 H    ARG D   2       9.147  11.545 147.836  1.00 42.84 LIG 0.16  HD
BRANCH 20 23
ATOM     23  CA  ALA D   1       8.116  11.788 145.510  1.00 45.19 LIG 0.27  C 
ATOM     24  CB  ALA D   1       6.924  11.133 146.172  1.00 43.32 LIG 0.05  C 
BRANCH 23 25
ATOM     25  N   ALA D   1       9.095  10.783 145.134  1.00 39.75 LIG-0.07  N 
ATOM     26 H1   ALA D   1       8.685  10.004 145.002  1.00 39.75 LIG 0.28  HD
ATOM     27 H2   ALA D   1       9.503  11.032 144.384  1.00 39.75 LIG 0.28  HD
ATOM     28 H3   ALA D   1       9.696  10.695 145.784  1.00 39.75 LIG 0.28  HD
ENDBRANCH 23 25
ENDBRANCH 20 23
ENDBRANCH 6 19
ENDBRANCH 3 6
ENDBRANCH 1 2
BRANCH 1 29
ATOM     29  CB  THR D   3      13.468  11.283 145.781  1.00 46.90 LIG 0.15  C 
ATOM     30  CG2 THR D   3      14.909  10.817 145.688  1.00 44.81 LIG 0.04  C 
BRANCH 29 31
ATOM     31 OG1  THR D   3      12.613  10.137 145.884  1.00 48.09 LIG-0.39  OA
ATOM     32 HG1  THR D   3      12.881   9.641 146.507  1.00 48.09 LIG 0.21  HD
ENDBRANCH 29 31
ENDBRANCH 1 29
BRANCH 1 33
ATOM     33  C   THR D   3      13.781  13.592 146.669  1.00 42.40 LIG 0.24  C 
ATOM     34 O    THR D   3      13.014  14.476 146.276  1.00 40.34 LIG-0.27  OA
ATOM     35  N   LYS D   4      15.066  13.807 146.749  1.00 38.45 LIG-0.35  N 
ATOM     36 H    LYS D   4      15.640  13.241 147.049  1.00 38.45 LIG 0.16  HD
BRANCH 35 37
ATOM     37  CA  LYS D   4      15.617  15.068 146.318  1.00 37.56 LIG 0.18  C 
BRANCH 37 38
ATOM     38  C   LYS D   4      15.222  16.181 147.277  1.00 44.28 LIG 0.24  C 
ATOM     39 O    LYS D   4      14.166  16.149 147.784  1.00 49.08 LIG-0.27  OA
ATOM     40  N   GLN D   5      16.130  17.117 147.498  1.00 53.59 LIG-0.35  N 
ATOM     41 H    GLN D   5      16.951  16.933 147.323  1.00 53.59 LIG 0.16  HD
BRANCH 40 42
ATOM     42  CA  GLN D   5      16.043  18.513 148.016  1.00 61.39 LIG 0.16  C 
BRANCH 42 43
ATOM     43  CB  GLN D   5      15.601  18.655 149.480  1.00 20.00 LIG 0.04  C 
BRANCH 43 44
ATOM     44  CG  GLN D   5      16.662  18.155 150.490  1.00 20.00 LIG 0.10  C 
BRANCH 44 45
ATOM     45  CD  GLN D   5      16.759  16.641 150.679  1.00 20.00 LIG 0.21  C 
ATOM     46  NE2 GLN D   5      17.985  16.133 150.693  1.00 20.00 LIG-0.37  N 
ATOM     47 21HE GLN D   5      18.665  16.647 150.579  1.00 20.00 LIG 0.16  HD
ATOM     48 22HE GLN D   5      18.099  15.290 150.816  1.00 20.00 LIG 0.16  HD
ATOM     49 OE1  GLN D   5      15.753  15.945 150.838  1.00 20.00 LIG-0.27  OA
ENDBRANCH 44 45
ENDBRANCH 43 44
ENDBRANCH 42 43
BRANCH 42 50
ATOM     50  C   GLN D   5      17.046  19.588 147.674  1.00 64.61 LIG 0.22  C 
ATOM     51 O    GLN D   5      17.283  19.871 146.536  1.00 68.60 LIG-0.29  OA
ENDBRANCH 42 50
ENDBRANCH 40 42
ENDBRANCH 37 38
BRANCH 37 52
ATOM     52  CB  LYS D   4      15.204  15.357 144.892  1.00 33.42 LIG 0.04  C 
BRANCH 52 53
ATOM     53  CG  LYS D   4      15.231  14.198 144.009  1.00 40.53 LIG 0.00  C 
BRANCH 53 54
ATOM     54  CD  LYS D   4      13.965  14.059 143.347  1.00 50.17 LIG 0.03  C 
BRANCH 54 55
ATOM     55  CE  LYS D   4      13.831  12.715 142.689  1.00 57.03 LIG 0.23  C 
BRANCH 55 56
ATOM     56  NZ  LYS D   4      13.315  12.926 141.338  1.00 52.11 LIG-0.08  N 
ATOM     57 HZ3  LYS D   4      12.426  12.958 141.361  1.00 52.11 LIG 0.27  HD
ATOM     58 HZ2  LYS D   4      13.574  12.256 140.813  1.00 52.11 LIG 0.27  HD
ATOM     59 HZ1  LYS D   4      13.631  13.694 141.016  1.00 52.11 LIG 0.27  HD
ENDBRANCH 55 56
ENDBRANCH 54 55
ENDBRANCH 53 54
ENDBRANCH 52 53
ENDBRANCH 37 52
ENDBRANCH 35 37
ENDBRANCH 1 33
TORSDOF 24
ENDMDL
MODEL 31
USER: ADFR SOLUTION from run 196
USER: SCORE 18.498211 LL:  -2.102 LR: -17.275 RR:   0.000 FEB: -10.116
USER: RMSD 8.196141
USER: SEED 195
USER: STATUS no improvement in best in 8 clusters for 5 generations
USER: GENES 26
USER: genes 0 Translation |==|  0.37925 0.40341 0.39179
USER: genes 1 Rotation |==|  0.04550 0.29314 0.51329 0.52146
USER: genes 2 Torsion [CB]-CA--N-[C] |==|  0.17571
USER: genes 3 Torsion [N]-C--CA-[N] |==|  0.94842
USER: genes 4 Torsion [C]-CA--CB-[CG] |==|  0.36147
USER: genes 5 Torsion [CA]-CB--CG-[CD] |==|  0.83821
USER: genes 6 Torsion [CB]-CG--CD-[NE] |==|  0.63115
USER: genes 7 Torsion [CG]-CD--NE-[HE] |==|  0.87867
USER: genes 8 Torsion [C]-CA--N-[C] |==|  0.82344
USER: genes 9 Torsion [N]-C--CA-[N] |==|  0.92461
USER: genes 10 Torsion [C]-CA--N-[H1] |==|  0.45965
USER: genes 11 Torsion [N]-CA--CB-[CG2] |==|  0.71765
USER: genes 12 Torsion [CA]-CB--OG1-[HG1] |==|  0.71708
USER: genes 13 Torsion [N]-CA--C-[N] |==|  0.62222
USER: genes 14 Torsion [C]-N--CA-[CB] |==|  0.77191
USER: genes 15 Torsion [N]-CA--C-[N] |==|  0.20487
USER: genes 16 Torsion [C]-N--CA-[CB] |==|  0.28487
USER: genes 17 Torsion [N]-CA--CB-[CG] |==|  0.87886
USER: genes 18 Torsion [CA]-CB--CG-[CD] |==|  0.83886
USER: genes 19 Torsion [CB]-CG--CD-[OE1] |==|  0.43618
USER: genes 20 Torsion [N]-CA--C-[O] |==|  0.39719
USER: genes 21 Torsion [N]-CA--CB-[CG] |==|  0.16361
USER: genes 22 Torsion [CA]-CB--CG-[CD] |==|  0.72245
USER: genes 23 Torsion [CB]-CG--CD-[CE] |==|  0.46644
USER: genes 24 Torsion [CG]-CD--CE-[NZ] |==|  0.39741
USER: genes 25 Torsion [CD]-CE--NZ-[HZ2] |==|  0.02936
ROOT
ATOM      1  CA  THR D   3      12.926  14.594 145.993  1.00 39.79 LIG 0.20  C 
ENDROOT
BRANCH 1 2
ATOM      2  N   THR D   3      11.971  13.726 146.678  1.00 34.46 LIG-0.34  N 
ATOM      3  C   ARG D   2      11.589  13.954 147.934  1.00 39.53 LIG 0.24  C 
ATOM      4 O    ARG D   2      12.102  14.828 148.637  1.00 39.08 LIG-0.27  OA
ATOM      5 H    THR D   3      11.685  13.068 146.202  1.00 34.46 LIG 0.16  HD
BRANCH 3 6
ATOM      6  CA  ARG D   2      10.478  13.060 148.500  1.00 42.24 LIG 0.18  C 
BRANCH 6 7
ATOM      7  CB  ARG D   2      11.069  11.971 149.399  1.00 49.82 LIG 0.04  C 
BRANCH 7 8
ATOM      8  CG  ARG D   2      10.436  11.808 150.773  1.00 55.24 LIG 0.02  C 
BRANCH 8 9
ATOM      9  CD  ARG D   2      10.526  13.127 151.555  1.00 55.63 LIG 0.14  C 
BRANCH 9 10
ATOM     10  NE  ARG D   2      11.008  12.945 152.925  1.00 65.78 LIG-0.23  N 
ATOM     11 HE   ARG D   2      10.686  12.288 153.377  1.00 65.78 LIG 0.18  HD
ATOM     12  CZ  ARG D   2      11.908  13.721 153.524  1.00 70.57 LIG 0.67  C 
ATOM     13  NH1 ARG D   2      12.437  14.755 152.884  1.00 66.11 LIG-0.23  N 
ATOM     14  NH2 ARG D   2      12.280  13.469 154.773  1.00 74.94 LIG-0.23  N 
ATOM     15 1HH1 ARG D   2      12.199  14.927 152.076  1.00 66.11 LIG 0.17  HD
ATOM     16 2HH1 ARG D   2      13.018  15.252 153.276  1.00 66.11 LIG 0.17  HD
ATOM     17 2HH2 ARG D   2      12.861  13.971 155.159  1.00 74.94 LIG 0.17  HD
ATOM     18 1HH2 ARG D   2      11.938  12.802 155.197  1.00 74.94 LIG 0.17  HD
ENDBRANCH 9 10
ENDBRANCH 8 9
ENDBRANCH 7 8
ENDBRANCH 6 7
BRANCH 6 19
ATOM     19  N   ARG D   2       9.753  12.415 147.409  1.00 42.84 LIG-0.35  N 
ATOM     20  C   ALA D   1       9.059  13.103 146.517  1.00 44.74 LIG 0.25  C 
ATOM     21 O    ALA D   1       8.910  14.320 146.586  1.00 48.31 LIG-0.27  OA
ATOM     22 H    ARG D   2       9.820  11.558 147.401  1.00 42.84 LIG 0.16  HD
BRANCH 20 23
ATOM     23  CA  ALA D   1       8.431  12.289 145.385  1.00 45.19 LIG 0.27  C 
ATOM     24  CB  ALA D   1       6.998  11.939 145.720  1.00 43.32 LIG 0.05  C 
BRANCH 23 25
ATOM     25  N   ALA D   1       9.196  11.080 145.134  1.00 39.75 LIG-0.07  N 
ATOM     26 H1   ALA D   1       8.716  10.523 144.633  1.00 39.75 LIG 0.28  HD
ATOM     27 H2   ALA D   1       9.949  11.288 144.708  1.00 39.75 LIG 0.28  HD
ATOM     28 H3   ALA D   1       9.394  10.687 145.908  1.00 39.75 LIG 0.28  HD
ENDBRANCH 23 25
ENDBRANCH 20 23
ENDBRANCH 6 19
ENDBRANCH 3 6
ENDBRANCH 1 2
BRANCH 1 29
ATOM     29  CB  THR D   3      14.314  14.582 146.673  1.00 46.90 LIG 0.15  C 
ATOM     30  CG2 THR D   3      14.513  15.823 147.522  1.00 44.81 LIG 0.04  C 
BRANCH 29 31
ATOM     31 OG1  THR D   3      14.431  13.422 147.507  1.00 48.09 LIG-0.39  OA
ATOM     32 HG1  THR D   3      14.316  13.641 148.310  1.00 48.09 LIG 0.21  HD
ENDBRANCH 29 31
ENDBRANCH 1 29
BRANCH 1 33
ATOM     33  C   THR D   3      13.097  14.160 144.538  1.00 42.40 LIG 0.24  C 
ATOM     34 O    THR D   3      12.124  13.813 143.860  1.00 40.34 LIG-0.27  OA
ATOM     35  N   LYS D   4      14.306  14.111 144.048  1.00 38.45 LIG-0.35  N 
ATOM     36 H    LYS D   4      15.013  14.373 144.461  1.00 38.45 LIG 0.16  HD
BRANCH 35 37
ATOM     37  CA  LYS D   4      14.529  13.590 142.722  1.00 37.56 LIG 0.18  C 
BRANCH 37 38
ATOM     38  C   LYS D   4      13.477  14.113 141.756  1.00 44.28 LIG 0.24  C 
ATOM     39 O    LYS D   4      12.618  13.396 141.406  1.00 49.08 LIG-0.27  OA
ATOM     40  N   GLN D   5      13.591  15.378 141.389  1.00 53.59 LIG-0.35  N 
ATOM     41 H    GLN D   5      14.058  15.903 141.886  1.00 53.59 LIG 0.16  HD
BRANCH 40 42
ATOM     42  CA  GLN D   5      13.058  16.152 140.230  1.00 61.39 LIG 0.16  C 
BRANCH 42 43
ATOM     43  CB  GLN D   5      11.851  17.052 140.529  1.00 20.00 LIG 0.04  C 
BRANCH 43 44
ATOM     44  CG  GLN D   5      10.782  16.369 141.416  1.00 20.00 LIG 0.10  C 
BRANCH 44 45
ATOM     45  CD  GLN D   5      10.185  15.068 140.879  1.00 20.00 LIG 0.21  C 
ATOM     46  NE2 GLN D   5      10.287  14.877 139.570  1.00 20.00 LIG-0.37  N 
ATOM     47 21HE GLN D   5      10.652  15.478 139.074  1.00 20.00 LIG 0.16  HD
ATOM     48 22HE GLN D   5       9.986  14.153 139.217  1.00 20.00 LIG 0.16  HD
ATOM     49 OE1  GLN D   5       9.669  14.237 141.630  1.00 20.00 LIG-0.27  OA
ENDBRANCH 44 45
ENDBRANCH 43 44
ENDBRANCH 42 43
BRANCH 42 50
ATOM     50  C   GLN D   5      13.939  16.799 139.189  1.00 64.61 LIG 0.22  C 
ATOM     51 O    GLN D   5      13.616  16.824 138.037  1.00 68.60 LIG-0.29  OA
ENDBRANCH 42 50
ENDBRANCH 40 42
ENDBRANCH 37 38
BRANCH 37 52
ATOM     52  CB  LYS D   4      14.584  12.079 142.759  1.00 33.42 LIG 0.04  C 
BRANCH 52 53
ATOM     53  CG  LYS D   4      13.380  11.443 143.279  1.00 40.53 LIG 0.00  C 
BRANCH 53 54
ATOM     54  CD  LYS D   4      13.580  11.070 144.651  1.00 50.17 LIG 0.03  C 
BRANCH 54 55
ATOM     55  CE  LYS D   4      12.288  10.683 145.311  1.00 57.03 LIG 0.23  C 
BRANCH 55 56
ATOM     56  NZ  LYS D   4      12.565   9.575 146.224  1.00 52.11 LIG-0.08  N 
ATOM     57 HZ3  LYS D   4      12.210   9.751 147.021  1.00 52.11 LIG 0.27  HD
ATOM     58 HZ2  LYS D   4      13.445   9.472 146.308  1.00 52.11 LIG 0.27  HD
ATOM     59 HZ1  LYS D   4      12.209   8.826 145.900  1.00 52.11 LIG 0.27  HD
ENDBRANCH 55 56
ENDBRANCH 54 55
ENDBRANCH 53 54
ENDBRANCH 52 53
ENDBRANCH 37 52
ENDBRANCH 35 37
ENDBRANCH 1 33
TORSDOF 24
ENDMDL
MODEL 32
USER: ADFR SOLUTION from run 164
USER: SCORE 18.186663 LL:  -2.713 LR: -17.240 RR:   0.000 FEB: -10.081
USER: RMSD 6.722804
USER: SEED 163
USER: STATUS no improvement in best in 15 clusters for 5 generations
USER: GENES 26
USER: genes 0 Translation |==|  0.43510 0.28208 0.33237
USER: genes 1 Rotation |==|  0.29040 0.73666 0.47322 0.88645
USER: genes 2 Torsion [CB]-CA--N-[C] |==|  0.54457
USER: genes 3 Torsion [N]-C--CA-[N] |==|  0.00782
USER: genes 4 Torsion [C]-CA--CB-[CG] |==|  0.53170
USER: genes 5 Torsion [CA]-CB--CG-[CD] |==|  0.43641
USER: genes 6 Torsion [CB]-CG--CD-[NE] |==|  0.65450
USER: genes 7 Torsion [CG]-CD--NE-[HE] |==|  0.08632
USER: genes 8 Torsion [C]-CA--N-[C] |==|  0.76509
USER: genes 9 Torsion [N]-C--CA-[N] |==|  0.93257
USER: genes 10 Torsion [C]-CA--N-[H1] |==|  0.25472
USER: genes 11 Torsion [N]-CA--CB-[CG2] |==|  0.54687
USER: genes 12 Torsion [CA]-CB--OG1-[HG1] |==|  0.21546
USER: genes 13 Torsion [N]-CA--C-[N] |==|  0.77047
USER: genes 14 Torsion [C]-N--CA-[CB] |==|  0.51141
USER: genes 15 Torsion [N]-CA--C-[N] |==|  0.34540
USER: genes 16 Torsion [C]-N--CA-[CB] |==|  0.76065
USER: genes 17 Torsion [N]-CA--CB-[CG] |==|  0.07454
USER: genes 18 Torsion [CA]-CB--CG-[CD] |==|  0.73565
USER: genes 19 Torsion [CB]-CG--CD-[OE1] |==|  0.42472
USER: genes 20 Torsion [N]-CA--C-[O] |==|  0.01755
USER: genes 21 Torsion [N]-CA--CB-[CG] |==|  0.87827
USER: genes 22 Torsion [CA]-CB--CG-[CD] |==|  0.31828
USER: genes 23 Torsion [CB]-CG--CD-[CE] |==|  0.68697
USER: genes 24 Torsion [CG]-CD--CE-[NZ] |==|  0.89130
USER: genes 25 Torsion [CD]-CE--NZ-[HZ2] |==|  0.48073
ROOT
ATOM      1  CA  THR D   3      13.973  11.955 144.612  1.00 39.79 LIG 0.20  C 
ENDROOT
BRANCH 1 2
ATOM      2  N   THR D   3      12.831  12.047 145.519  1.00 34.46 LIG-0.34  N 
ATOM      3  C   ARG D   2      12.943  12.577 146.737  1.00 39.53 LIG 0.24  C 
ATOM      4 O    ARG D   2      14.027  12.909 147.222  1.00 39.08 LIG-0.27  OA
ATOM      5 H    THR D   3      12.098  11.732 145.199  1.00 34.46 LIG 0.16  HD
BRANCH 3 6
ATOM      6  CA  ARG D   2      11.650  12.748 147.545  1.00 42.24 LIG 0.18  C 
BRANCH 6 7
ATOM      7  CB  ARG D   2      11.747  12.004 148.879  1.00 49.82 LIG 0.04  C 
BRANCH 7 8
ATOM      8  CG  ARG D   2      10.455  11.855 149.669  1.00 55.24 LIG 0.02  C 
BRANCH 8 9
ATOM      9  CD  ARG D   2      10.559  10.662 150.631  1.00 55.63 LIG 0.14  C 
BRANCH 9 10
ATOM     10  NE  ARG D   2       9.485   9.685 150.444  1.00 65.78 LIG-0.23  N 
ATOM     11 HE   ARG D   2       9.163   9.593 149.653  1.00 65.78 LIG 0.18  HD
ATOM     12  CZ  ARG D   2       8.968   8.928 151.410  1.00 70.57 LIG 0.67  C 
ATOM     13  NH1 ARG D   2       9.416   9.028 152.654  1.00 66.11 LIG-0.23  N 
ATOM     14  NH2 ARG D   2       7.994   8.070 151.134  1.00 74.94 LIG-0.23  N 
ATOM     15 1HH1 ARG D   2      10.044   9.584 152.842  1.00 66.11 LIG 0.17  HD
ATOM     16 2HH1 ARG D   2       9.078   8.537 153.274  1.00 66.11 LIG 0.17  HD
ATOM     17 2HH2 ARG D   2       7.661   7.582 151.760  1.00 74.94 LIG 0.17  HD
ATOM     18 1HH2 ARG D   2       7.695   8.002 150.331  1.00 74.94 LIG 0.17  HD
ENDBRANCH 9 10
ENDBRANCH 8 9
ENDBRANCH 7 8
ENDBRANCH 6 7
BRANCH 6 19
ATOM     19  N   ARG D   2      10.519  12.206 146.796  1.00 42.84 LIG-0.35  N 
ATOM     20  C   ALA D   1       9.873  12.912 145.882  1.00 44.74 LIG 0.25  C 
ATOM     21 O    ALA D   1      10.125  14.092 145.653  1.00 48.31 LIG-0.27  OA
ATOM     22 H    ARG D   2      10.317  11.397 147.002  1.00 42.84 LIG 0.16  HD
BRANCH 20 23
ATOM     23  CA  ALA D   1       8.770  12.174 145.123  1.00 45.19 LIG 0.27  C 
ATOM     24  CB  ALA D   1       7.418  12.482 145.727  1.00 43.32 LIG 0.05  C 
BRANCH 23 25
ATOM     25  N   ALA D   1       9.008  10.741 145.134  1.00 39.75 LIG-0.07  N 
ATOM     26 H1   ALA D   1       8.593  10.376 145.832  1.00 39.75 LIG 0.28  HD
ATOM     27 H2   ALA D   1       8.694  10.382 144.383  1.00 39.75 LIG 0.28  HD
ATOM     28 H3   ALA D   1       9.882  10.585 145.194  1.00 39.75 LIG 0.28  HD
ENDBRANCH 23 25
ENDBRANCH 20 23
ENDBRANCH 6 19
ENDBRANCH 3 6
ENDBRANCH 1 2
BRANCH 1 29
ATOM     29  CB  THR D   3      13.537  11.684 143.154  1.00 46.90 LIG 0.15  C 
ATOM     30  CG2 THR D   3      14.705  11.189 142.322  1.00 44.81 LIG 0.04  C 
BRANCH 29 31
ATOM     31 OG1  THR D   3      12.501  10.693 143.138  1.00 48.09 LIG-0.39  OA
ATOM     32 HG1  THR D   3      11.771  11.046 143.361  1.00 48.09 LIG 0.21  HD
ENDBRANCH 29 31
ENDBRANCH 1 29
BRANCH 1 33
ATOM     33  C   THR D   3      14.785  13.250 144.640  1.00 42.40 LIG 0.24  C 
ATOM     34 O    THR D   3      15.767  13.368 145.379  1.00 40.34 LIG-0.27  OA
ATOM     35  N   LYS D   4      14.378  14.248 143.903  1.00 38.45 LIG-0.35  N 
ATOM     36 H    LYS D   4      13.724  14.211 143.345  1.00 38.45 LIG 0.16  HD
BRANCH 35 37
ATOM     37  CA  LYS D   4      15.037  15.527 143.989  1.00 37.56 LIG 0.18  C 
BRANCH 37 38
ATOM     38  C   LYS D   4      15.148  15.977 145.439  1.00 44.28 LIG 0.24  C 
ATOM     39 O    LYS D   4      14.178  16.029 146.095  1.00 49.08 LIG-0.27  OA
ATOM     40  N   GLN D   5      16.363  16.259 145.876  1.00 53.59 LIG-0.35  N 
ATOM     41 H    GLN D   5      17.034  15.938 145.443  1.00 53.59 LIG 0.16  HD
BRANCH 40 42
ATOM     42  CA  GLN D   5      16.867  17.064 147.027  1.00 61.39 LIG 0.16  C 
BRANCH 42 43
ATOM     43  CB  GLN D   5      17.030  18.568 146.768  1.00 20.00 LIG 0.04  C 
BRANCH 43 44
ATOM     44  CG  GLN D   5      16.081  19.107 145.671  1.00 20.00 LIG 0.10  C 
BRANCH 44 45
ATOM     45  CD  GLN D   5      16.657  19.191 144.257  1.00 20.00 LIG 0.21  C 
ATOM     46  NE2 GLN D   5      17.976  19.313 144.172  1.00 20.00 LIG-0.37  N 
ATOM     47 21HE GLN D   5      18.451  19.361 144.887  1.00 20.00 LIG 0.16  HD
ATOM     48 22HE GLN D   5      18.355  19.344 143.401  1.00 20.00 LIG 0.16  HD
ATOM     49 OE1  GLN D   5      15.934  19.119 143.261  1.00 20.00 LIG-0.27  OA
ENDBRANCH 44 45
ENDBRANCH 43 44
ENDBRANCH 42 43
BRANCH 42 50
ATOM     50  C   GLN D   5      16.435  16.829 148.454  1.00 64.61 LIG 0.22  C 
ATOM     51 O    GLN D   5      15.741  15.899 148.744  1.00 68.60 LIG-0.29  OA
ENDBRANCH 42 50
ENDBRANCH 40 42
ENDBRANCH 37 38
BRANCH 37 52
ATOM     52  CB  LYS D   4      14.324  16.540 143.120  1.00 33.42 LIG 0.04  C 
BRANCH 52 53
ATOM     53  CG  LYS D   4      13.947  16.045 141.802  1.00 40.53 LIG 0.00  C 
BRANCH 53 54
ATOM     54  CD  LYS D   4      12.517  16.006 141.688  1.00 50.17 LIG 0.03  C 
BRANCH 54 55
ATOM     55  CE  LYS D   4      12.009  14.595 141.595  1.00 57.03 LIG 0.23  C 
BRANCH 55 56
ATOM     56  NZ  LYS D   4      12.940  13.838 140.758  1.00 52.11 LIG-0.08  N 
ATOM     57 HZ3  LYS D   4      12.903  14.143 139.923  1.00 52.11 LIG 0.27  HD
ATOM     58 HZ2  LYS D   4      12.717  12.977 140.770  1.00 52.11 LIG 0.27  HD
ATOM     59 HZ1  LYS D   4      13.767  13.935 141.072  1.00 52.11 LIG 0.27  HD
ENDBRANCH 55 56
ENDBRANCH 54 55
ENDBRANCH 53 54
ENDBRANCH 52 53
ENDBRANCH 37 52
ENDBRANCH 35 37
ENDBRANCH 1 33
TORSDOF 24
ENDMDL
MODEL 33
USER: ADFR SOLUTION from run 183
USER: SCORE 19.017421 LL:  -2.805 LR: -17.214 RR:   0.000 FEB: -10.055
USER: RMSD 5.984942
USER: SEED 182
USER: STATUS searching
USER: GENES 26
USER: genes 0 Translation |==|  0.55484 0.52328 0.53896
USER: genes 1 Rotation |==|  0.42709 0.39505 0.74105 0.91900
USER: genes 2 Torsion [CB]-CA--N-[C] |==|  0.78889
USER: genes 3 Torsion [N]-C--CA-[N] |==|  0.45714
USER: genes 4 Torsion [C]-CA--CB-[CG] |==|  0.71186
USER: genes 5 Torsion [CA]-CB--CG-[CD] |==|  0.68152
USER: genes 6 Torsion [CB]-CG--CD-[NE] |==|  0.31031
USER: genes 7 Torsion [CG]-CD--NE-[HE] |==|  0.91115
USER: genes 8 Torsion [C]-CA--N-[C] |==|  0.56316
USER: genes 9 Torsion [N]-C--CA-[N] |==|  0.54717
USER: genes 10 Torsion [C]-CA--N-[H1] |==|  0.00723
USER: genes 11 Torsion [N]-CA--CB-[CG2] |==|  0.50803
USER: genes 12 Torsion [CA]-CB--OG1-[HG1] |==|  0.93733
USER: genes 13 Torsion [N]-CA--C-[N] |==|  0.19971
USER: genes 14 Torsion [C]-N--CA-[CB] |==|  0.23271
USER: genes 15 Torsion [N]-CA--C-[N] |==|  0.98468
USER: genes 16 Torsion [C]-N--CA-[CB] |==|  0.70148
USER: genes 17 Torsion [N]-CA--CB-[CG] |==|  0.76559
USER: genes 18 Torsion [CA]-CB--CG-[CD] |==|  0.19123
USER: genes 19 Torsion [CB]-CG--CD-[OE1] |==|  0.68074
USER: genes 20 Torsion [N]-CA--C-[O] |==|  0.69132
USER: genes 21 Torsion [N]-CA--CB-[CG] |==|  0.25753
USER: genes 22 Torsion [CA]-CB--CG-[CD] |==|  0.42048
USER: genes 23 Torsion [CB]-CG--CD-[CE] |==|  0.68437
USER: genes 24 Torsion [CG]-CD--CE-[NZ] |==|  0.78981
USER: genes 25 Torsion [CD]-CE--NZ-[HZ2] |==|  0.61169
ROOT
ATOM      1  CA  THR D   3      16.218  17.201 149.415  1.00 39.79 LIG 0.20  C 
ENDROOT
BRANCH 1 2
ATOM      2  N   THR D   3      16.123  15.945 148.674  1.00 34.46 LIG-0.34  N 
ATOM      3  C   ARG D   2      14.985  15.549 148.105  1.00 39.53 LIG 0.24  C 
ATOM      4 O    ARG D   2      13.917  16.145 148.268  1.00 39.08 LIG-0.27  OA
ATOM      5 H    THR D   3      16.857  15.496 148.641  1.00 34.46 LIG 0.16  HD
BRANCH 3 6
ATOM      6  CA  ARG D   2      15.040  14.285 147.237  1.00 42.24 LIG 0.18  C 
BRANCH 6 7
ATOM      7  CB  ARG D   2      15.691  14.590 145.886  1.00 49.82 LIG 0.04  C 
BRANCH 7 8
ATOM      8  CG  ARG D   2      14.754  14.711 144.693  1.00 55.24 LIG 0.02  C 
BRANCH 8 9
ATOM      9  CD  ARG D   2      15.025  13.577 143.692  1.00 55.63 LIG 0.14  C 
BRANCH 9 10
ATOM     10  NE  ARG D   2      13.925  12.614 143.611  1.00 65.78 LIG-0.23  N 
ATOM     11 HE   ARG D   2      13.468  12.471 144.324  1.00 65.78 LIG 0.18  HD
ATOM     12  CZ  ARG D   2      13.582  11.942 142.514  1.00 70.57 LIG 0.67  C 
ATOM     13  NH1 ARG D   2      14.253  12.112 141.384  1.00 66.11 LIG-0.23  N 
ATOM     14  NH2 ARG D   2      12.565  11.089 142.547  1.00 74.94 LIG-0.23  N 
ATOM     15 1HH1 ARG D   2      14.915  12.660 141.355  1.00 66.11 LIG 0.17  HD
ATOM     16 2HH1 ARG D   2      14.026  11.675 140.679  1.00 66.11 LIG 0.17  HD
ATOM     17 2HH2 ARG D   2      12.344  10.656 141.838  1.00 74.94 LIG 0.17  HD
ATOM     18 1HH2 ARG D   2      12.127  10.970 143.278  1.00 74.94 LIG 0.17  HD
ENDBRANCH 9 10
ENDBRANCH 8 9
ENDBRANCH 7 8
ENDBRANCH 6 7
BRANCH 6 19
ATOM     19  N   ARG D   2      13.689  13.786 146.997  1.00 42.84 LIG-0.35  N 
ATOM     20  C   ALA D   1      13.448  12.525 146.677  1.00 44.74 LIG 0.25  C 
ATOM     21 O    ALA D   1      14.342  11.705 146.485  1.00 48.31 LIG-0.27  OA
ATOM     22 H    ARG D   2      13.075  14.381 147.082  1.00 42.84 LIG 0.16  HD
BRANCH 20 23
ATOM     23  CA  ALA D   1      11.974  12.138 146.546  1.00 45.19 LIG 0.27  C 
ATOM     24  CB  ALA D   1      11.159  12.787 147.642  1.00 43.32 LIG 0.05  C 
BRANCH 23 25
ATOM     25  N   ALA D   1      11.815  10.695 146.592  1.00 39.75 LIG-0.07  N 
ATOM     26 H1   ALA D   1      12.608  10.313 146.726  1.00 39.75 LIG 0.28  HD
ATOM     27 H2   ALA D   1      11.265  10.478 147.257  1.00 39.75 LIG 0.28  HD
ATOM     28 H3   ALA D   1      11.475  10.408 145.821  1.00 39.75 LIG 0.28  HD
ENDBRANCH 23 25
ENDBRANCH 20 23
ENDBRANCH 6 19
ENDBRANCH 3 6
ENDBRANCH 1 2
BRANCH 1 29
ATOM     29  CB  THR D   3      16.275  18.428 148.476  1.00 46.90 LIG 0.15  C 
ATOM     30  CG2 THR D   3      16.445  19.710 149.269  1.00 44.81 LIG 0.04  C 
BRANCH 29 31
ATOM     31 OG1  THR D   3      17.379  18.290 147.571  1.00 48.09 LIG-0.39  OA
ATOM     32 HG1  THR D   3      17.947  17.765 147.899  1.00 48.09 LIG 0.21  HD
ENDBRANCH 29 31
ENDBRANCH 1 29
BRANCH 1 33
ATOM     33  C   THR D   3      15.020  17.364 150.349  1.00 42.40 LIG 0.24  C 
ATOM     34 O    THR D   3      14.161  18.226 150.136  1.00 40.34 LIG-0.27  OA
ATOM     35  N   LYS D   4      14.957  16.605 151.409  1.00 38.45 LIG-0.35  N 
ATOM     36 H    LYS D   4      15.506  15.968 151.588  1.00 38.45 LIG 0.16  HD
BRANCH 35 37
ATOM     37  CA  LYS D   4      13.913  16.806 152.383  1.00 37.56 LIG 0.18  C 
BRANCH 37 38
ATOM     38  C   LYS D   4      14.382  16.385 153.767  1.00 44.28 LIG 0.24  C 
ATOM     39 O    LYS D   4      13.673  16.556 154.685  1.00 49.08 LIG-0.27  OA
ATOM     40  N   GLN D   5      15.574  15.818 153.838  1.00 53.59 LIG-0.35  N 
ATOM     41 H    GLN D   5      15.904  15.478 153.120  1.00 53.59 LIG 0.16  HD
BRANCH 40 42
ATOM     42  CA  GLN D   5      16.541  15.622 154.957  1.00 61.39 LIG 0.16  C 
BRANCH 42 43
ATOM     43  CB  GLN D   5      17.801  16.497 154.911  1.00 20.00 LIG 0.04  C 
BRANCH 43 44
ATOM     44  CG  GLN D   5      18.924  15.907 154.025  1.00 20.00 LIG 0.10  C 
BRANCH 44 45
ATOM     45  CD  GLN D   5      18.659  15.884 152.519  1.00 20.00 LIG 0.21  C 
ATOM     46  NE2 GLN D   5      18.583  17.067 151.923  1.00 20.00 LIG-0.37  N 
ATOM     47 21HE GLN D   5      18.660  17.788 152.385  1.00 20.00 LIG 0.16  HD
ATOM     48 22HE GLN D   5      18.455  17.113 151.074  1.00 20.00 LIG 0.16  HD
ATOM     49 OE1  GLN D   5      18.555  14.823 151.899  1.00 20.00 LIG-0.27  OA
ENDBRANCH 44 45
ENDBRANCH 43 44
ENDBRANCH 42 43
BRANCH 42 50
ATOM     50  C   GLN D   5      16.118  15.401 156.389  1.00 64.61 LIG 0.22  C 
ATOM     51 O    GLN D   5      16.317  16.233 157.226  1.00 68.60 LIG-0.29  OA
ENDBRANCH 42 50
ENDBRANCH 40 42
ENDBRANCH 37 38
BRANCH 37 52
ATOM     52  CB  LYS D   4      12.654  16.087 151.952  1.00 33.42 LIG 0.04  C 
BRANCH 52 53
ATOM     53  CG  LYS D   4      12.519  14.736 152.482  1.00 40.53 LIG 0.00  C 
BRANCH 53 54
ATOM     54  CD  LYS D   4      11.129  14.400 152.610  1.00 50.17 LIG 0.03  C 
BRANCH 54 55
ATOM     55  CE  LYS D   4      10.733  14.233 154.049  1.00 57.03 LIG 0.23  C 
BRANCH 55 56
ATOM     56  NZ  LYS D   4      11.248  12.945 154.510  1.00 52.11 LIG-0.08  N 
ATOM     57 HZ3  LYS D   4      11.420  12.425 153.808  1.00 52.11 LIG 0.27  HD
ATOM     58 HZ2  LYS D   4      10.642  12.551 155.029  1.00 52.11 LIG 0.27  HD
ATOM     59 HZ1  LYS D   4      11.997  13.074 154.974  1.00 52.11 LIG 0.27  HD
ENDBRANCH 55 56
ENDBRANCH 54 55
ENDBRANCH 53 54
ENDBRANCH 52 53
ENDBRANCH 37 52
ENDBRANCH 35 37
ENDBRANCH 1 33
TORSDOF 24
ENDMDL
MODEL 34
USER: ADFR SOLUTION from run 86
USER: SCORE 17.614165 LL:  -2.493 LR: -17.152 RR:   0.000 FEB:  -9.993
USER: RMSD 8.097976
USER: SEED 85
USER: STATUS no improvement in best in 8 clusters for 5 generations
USER: GENES 26
USER: genes 0 Translation |==|  0.46217 0.45870 0.40519
USER: genes 1 Rotation |==|  0.04740 0.37603 0.55083 0.66492
USER: genes 2 Torsion [CB]-CA--N-[C] |==|  0.49716
USER: genes 3 Torsion [N]-C--CA-[N] |==|  0.82117
USER: genes 4 Torsion [C]-CA--CB-[CG] |==|  0.25646
USER: genes 5 Torsion [CA]-CB--CG-[CD] |==|  0.28283
USER: genes 6 Torsion [CB]-CG--CD-[NE] |==|  0.16403
USER: genes 7 Torsion [CG]-CD--NE-[HE] |==|  0.21690
USER: genes 8 Torsion [C]-CA--N-[C] |==|  0.19644
USER: genes 9 Torsion [N]-C--CA-[N] |==|  0.98726
USER: genes 10 Torsion [C]-CA--N-[H1] |==|  0.85206
USER: genes 11 Torsion [N]-CA--CB-[CG2] |==|  0.62009
USER: genes 12 Torsion [CA]-CB--OG1-[HG1] |==|  0.73339
USER: genes 13 Torsion [N]-CA--C-[N] |==|  0.78061
USER: genes 14 Torsion [C]-N--CA-[CB] |==|  0.84434
USER: genes 15 Torsion [N]-CA--C-[N] |==|  0.41625
USER: genes 16 Torsion [C]-N--CA-[CB] |==|  0.08389
USER: genes 17 Torsion [N]-CA--CB-[CG] |==|  0.21278
USER: genes 18 Torsion [CA]-CB--CG-[CD] |==|  0.24967
USER: genes 19 Torsion [CB]-CG--CD-[OE1] |==|  0.16182
USER: genes 20 Torsion [N]-CA--C-[O] |==|  0.93385
USER: genes 21 Torsion [N]-CA--CB-[CG] |==|  0.77816
USER: genes 22 Torsion [CA]-CB--CG-[CD] |==|  0.73893
USER: genes 23 Torsion [CB]-CG--CD-[CE] |==|  0.86957
USER: genes 24 Torsion [CG]-CD--CE-[NZ] |==|  0.53615
USER: genes 25 Torsion [CD]-CE--NZ-[HZ2] |==|  0.27149
ROOT
ATOM      1  CA  THR D   3      14.481  15.797 146.305  1.00 39.79 LIG 0.20  C 
ENDROOT
BRANCH 1 2
ATOM      2  N   THR D   3      13.518  14.918 146.967  1.00 34.46 LIG-0.34  N 
ATOM      3  C   ARG D   2      12.244  15.272 147.133  1.00 39.53 LIG 0.24  C 
ATOM      4 O    ARG D   2      11.824  16.398 146.857  1.00 39.08 LIG-0.27  OA
ATOM      5 H    THR D   3      13.847  14.169 147.232  1.00 34.46 LIG 0.16  HD
BRANCH 3 6
ATOM      6  CA  ARG D   2      11.296  14.213 147.714  1.00 42.24 LIG 0.18  C 
BRANCH 6 7
ATOM      7  CB  ARG D   2      11.829  13.690 149.050  1.00 49.82 LIG 0.04  C 
BRANCH 7 8
ATOM      8  CG  ARG D   2      11.335  14.399 150.302  1.00 55.24 LIG 0.02  C 
BRANCH 8 9
ATOM      9  CD  ARG D   2      10.240  13.564 150.985  1.00 55.63 LIG 0.14  C 
BRANCH 9 10
ATOM     10  NE  ARG D   2      10.700  12.228 151.368  1.00 65.78 LIG-0.23  N 
ATOM     11 HE   ARG D   2      11.179  12.161 152.078  1.00 65.78 LIG 0.18  HD
ATOM     12  CZ  ARG D   2      10.430  11.110 150.699  1.00 70.57 LIG 0.67  C 
ATOM     13  NH1 ARG D   2       9.701  11.148 149.592  1.00 66.11 LIG-0.23  N 
ATOM     14  NH2 ARG D   2      10.895   9.945 151.134  1.00 74.94 LIG-0.23  N 
ATOM     15 1HH1 ARG D   2       9.399  11.899 149.302  1.00 66.11 LIG 0.17  HD
ATOM     16 2HH1 ARG D   2       9.530  10.422 149.164  1.00 66.11 LIG 0.17  HD
ATOM     17 2HH2 ARG D   2      10.720   9.223 150.700  1.00 74.94 LIG 0.17  HD
ATOM     18 1HH2 ARG D   2      11.372   9.912 151.849  1.00 74.94 LIG 0.17  HD
ENDBRANCH 9 10
ENDBRANCH 8 9
ENDBRANCH 7 8
ENDBRANCH 6 7
BRANCH 6 19
ATOM     19  N   ARG D   2      11.180  13.089 146.791  1.00 42.84 LIG-0.35  N 
ATOM     20  C   ALA D   1      12.172  12.239 146.582  1.00 44.74 LIG 0.25  C 
ATOM     21 O    ALA D   1      13.283  12.377 147.088  1.00 48.31 LIG-0.27  OA
ATOM     22 H    ARG D   2      10.416  13.032 146.401  1.00 42.84 LIG 0.16  HD
BRANCH 20 23
ATOM     23  CA  ALA D   1      11.864  11.064 145.653  1.00 45.19 LIG 0.27  C 
ATOM     24  CB  ALA D   1      12.747  11.116 144.426  1.00 43.32 LIG 0.05  C 
BRANCH 23 25
ATOM     25  N   ALA D   1      10.464  11.070 145.263  1.00 39.75 LIG-0.07  N 
ATOM     26 H1   ALA D   1       9.953  11.103 145.991  1.00 39.75 LIG 0.28  HD
ATOM     27 H2   ALA D   1      10.301  11.782 144.755  1.00 39.75 LIG 0.28  HD
ATOM     28 H3   ALA D   1      10.280  10.330 144.805  1.00 39.75 LIG 0.28  HD
ENDBRANCH 23 25
ENDBRANCH 20 23
ENDBRANCH 6 19
ENDBRANCH 3 6
ENDBRANCH 1 2
BRANCH 1 29
ATOM     29  CB  THR D   3      15.896  15.177 146.255  1.00 46.90 LIG 0.15  C 
ATOM     30  CG2 THR D   3      16.952  16.210 146.599  1.00 44.81 LIG 0.04  C 
BRANCH 29 31
ATOM     31 OG1  THR D   3      15.980  14.094 147.191  1.00 48.09 LIG-0.39  OA
ATOM     32 HG1  THR D   3      16.314  14.371 147.911  1.00 48.09 LIG 0.21  HD
ENDBRANCH 29 31
ENDBRANCH 1 29
BRANCH 1 33
ATOM     33  C   THR D   3      14.035  16.097 144.874  1.00 42.40 LIG 0.24  C 
ATOM     34 O    THR D   3      13.443  17.146 144.600  1.00 40.34 LIG-0.27  OA
ATOM     35  N   LYS D   4      14.248  15.191 143.959  1.00 38.45 LIG-0.35  N 
ATOM     36 H    LYS D   4      14.685  14.461 144.085  1.00 38.45 LIG 0.16  HD
BRANCH 35 37
ATOM     37  CA  LYS D   4      13.736  15.376 142.624  1.00 37.56 LIG 0.18  C 
BRANCH 37 38
ATOM     38  C   LYS D   4      14.473  16.505 141.919  1.00 44.28 LIG 0.24  C 
ATOM     39 O    LYS D   4      14.920  17.380 142.558  1.00 49.08 LIG-0.27  OA
ATOM     40  N   GLN D   5      14.581  16.407 140.605  1.00 53.59 LIG-0.35  N 
ATOM     41 H    GLN D   5      14.484  15.631 140.248  1.00 53.59 LIG 0.16  HD
BRANCH 40 42
ATOM     42  CA  GLN D   5      14.853  17.406 139.531  1.00 61.39 LIG 0.16  C 
BRANCH 42 43
ATOM     43  CB  GLN D   5      15.725  18.602 139.938  1.00 20.00 LIG 0.04  C 
BRANCH 43 44
ATOM     44  CG  GLN D   5      17.230  18.256 140.039  1.00 20.00 LIG 0.10  C 
BRANCH 44 45
ATOM     45  CD  GLN D   5      18.054  18.430 138.763  1.00 20.00 LIG 0.21  C 
ATOM     46  NE2 GLN D   5      18.652  17.338 138.302  1.00 20.00 LIG-0.37  N 
ATOM     47 21HE GLN D   5      18.581  16.596 138.729  1.00 20.00 LIG 0.16  HD
ATOM     48 22HE GLN D   5      19.112  17.374 137.577  1.00 20.00 LIG 0.16  HD
ATOM     49 OE1  GLN D   5      18.128  19.517 138.186  1.00 20.00 LIG-0.27  OA
ENDBRANCH 44 45
ENDBRANCH 43 44
ENDBRANCH 42 43
BRANCH 42 50
ATOM     50  C   GLN D   5      15.135  17.026 138.097  1.00 64.61 LIG 0.22  C 
ATOM     51 O    GLN D   5      15.565  15.945 137.819  1.00 68.60 LIG-0.29  OA
ENDBRANCH 42 50
ENDBRANCH 40 42
ENDBRANCH 37 38
BRANCH 37 52
ATOM     52  CB  LYS D   4      12.240  15.595 142.665  1.00 33.42 LIG 0.04  C 
BRANCH 52 53
ATOM     53  CG  LYS D   4      11.455  14.375 142.809  1.00 40.53 LIG 0.00  C 
BRANCH 53 54
ATOM     54  CD  LYS D   4      11.059  13.895 141.515  1.00 50.17 LIG 0.03  C 
BRANCH 54 55
ATOM     55  CE  LYS D   4      10.503  15.000 140.664  1.00 57.03 LIG 0.23  C 
BRANCH 55 56
ATOM     56  NZ  LYS D   4       9.846  14.390 139.509  1.00 52.11 LIG-0.08  N 
ATOM     57 HZ3  LYS D   4       9.992  14.888 138.786  1.00 52.11 LIG 0.27  HD
ATOM     58 HZ2  LYS D   4       8.971  14.336 139.660  1.00 52.11 LIG 0.27  HD
ATOM     59 HZ1  LYS D   4      10.175  13.573 139.377  1.00 52.11 LIG 0.27  HD
ENDBRANCH 55 56
ENDBRANCH 54 55
ENDBRANCH 53 54
ENDBRANCH 52 53
ENDBRANCH 37 52
ENDBRANCH 35 37
ENDBRANCH 1 33
TORSDOF 24
ENDMDL
MODEL 35
USER: ADFR SOLUTION from run 86
USER: SCORE 17.492146 LL:  -3.562 LR: -17.123 RR:   0.000 FEB:  -9.964
USER: RMSD 8.090879
USER: SEED 85
USER: STATUS no improvement in best in 8 clusters for 5 generations
USER: GENES 26
USER: genes 0 Translation |==|  0.46239 0.45325 0.40905
USER: genes 1 Rotation |==|  0.03958 0.34002 0.53146 0.60691
USER: genes 2 Torsion [CB]-CA--N-[C] |==|  0.42335
USER: genes 3 Torsion [N]-C--CA-[N] |==|  0.84982
USER: genes 4 Torsion [C]-CA--CB-[CG] |==|  0.30397
USER: genes 5 Torsion [CA]-CB--CG-[CD] |==|  0.23993
USER: genes 6 Torsion [CB]-CG--CD-[NE] |==|  0.21985
USER: genes 7 Torsion [CG]-CD--NE-[HE] |==|  0.16350
USER: genes 8 Torsion [C]-CA--N-[C] |==|  0.20045
USER: genes 9 Torsion [N]-C--CA-[N] |==|  0.98573
USER: genes 10 Torsion [C]-CA--N-[H1] |==|  0.85896
USER: genes 11 Torsion [N]-CA--CB-[CG2] |==|  0.66112
USER: genes 12 Torsion [CA]-CB--OG1-[HG1] |==|  0.56199
USER: genes 13 Torsion [N]-CA--C-[N] |==|  0.86614
USER: genes 14 Torsion [C]-N--CA-[CB] |==|  0.48426
USER: genes 15 Torsion [N]-CA--C-[N] |==|  0.85556
USER: genes 16 Torsion [C]-N--CA-[CB] |==|  0.12203
USER: genes 17 Torsion [N]-CA--CB-[CG] |==|  0.19886
USER: genes 18 Torsion [CA]-CB--CG-[CD] |==|  0.74251
USER: genes 19 Torsion [CB]-CG--CD-[OE1] |==|  0.16556
USER: genes 20 Torsion [N]-CA--C-[O] |==|  0.97207
USER: genes 21 Torsion [N]-CA--CB-[CG] |==|  0.85886
USER: genes 22 Torsion [CA]-CB--CG-[CD] |==|  0.51708
USER: genes 23 Torsion [CB]-CG--CD-[CE] |==|  0.93993
USER: genes 24 Torsion [CG]-CD--CE-[NZ] |==|  0.43648
USER: genes 25 Torsion [CD]-CE--NZ-[HZ2] |==|  0.71674
ROOT
ATOM      1  CA  THR D   3      14.485  15.678 146.394  1.00 39.79 LIG 0.20  C 
ENDROOT
BRANCH 1 2
ATOM      2  N   THR D   3      13.511  14.806 147.047  1.00 34.46 LIG-0.34  N 
ATOM      3  C   ARG D   2      12.296  15.238 147.384  1.00 39.53 LIG 0.24  C 
ATOM      4 O    ARG D   2      11.958  16.420 147.284  1.00 39.08 LIG-0.27  OA
ATOM      5 H    THR D   3      13.791  14.005 147.189  1.00 34.46 LIG 0.16  HD
BRANCH 3 6
ATOM      6  CA  ARG D   2      11.312  14.196 147.934  1.00 42.24 LIG 0.18  C 
BRANCH 6 7
ATOM      7  CB  ARG D   2      11.801  13.652 149.279  1.00 49.82 LIG 0.04  C 
BRANCH 7 8
ATOM      8  CG  ARG D   2      11.010  14.073 150.509  1.00 55.24 LIG 0.02  C 
BRANCH 8 9
ATOM      9  CD  ARG D   2       9.826  13.117 150.727  1.00 55.63 LIG 0.14  C 
BRANCH 9 10
ATOM     10  NE  ARG D   2      10.221  11.857 151.359  1.00 65.78 LIG-0.23  N 
ATOM     11 HE   ARG D   2      10.600  11.900 152.130  1.00 65.78 LIG 0.18  HD
ATOM     12  CZ  ARG D   2      10.039  10.650 150.828  1.00 70.57 LIG 0.67  C 
ATOM     13  NH1 ARG D   2       9.468  10.518 149.639  1.00 66.11 LIG-0.23  N 
ATOM     14  NH2 ARG D   2      10.434   9.567 151.486  1.00 74.94 LIG-0.23  N 
ATOM     15 1HH1 ARG D   2       9.213  11.215 149.205  1.00 66.11 LIG 0.17  HD
ATOM     16 2HH1 ARG D   2       9.353   9.736 149.302  1.00 66.11 LIG 0.17  HD
ATOM     17 2HH2 ARG D   2      10.316   8.788 151.142  1.00 74.94 LIG 0.17  HD
ATOM     18 1HH2 ARG D   2      10.809   9.645 152.256  1.00 74.94 LIG 0.17  HD
ENDBRANCH 9 10
ENDBRANCH 8 9
ENDBRANCH 7 8
ENDBRANCH 6 7
BRANCH 6 19
ATOM     19  N   ARG D   2      11.194  13.080 147.000  1.00 42.84 LIG-0.35  N 
ATOM     20  C   ALA D   1      12.163  12.195 146.830  1.00 44.74 LIG 0.25  C 
ATOM     21 O    ALA D   1      13.255  12.290 147.384  1.00 48.31 LIG-0.27  OA
ATOM     22 H    ARG D   2      10.447  13.054 146.577  1.00 42.84 LIG 0.16  HD
BRANCH 20 23
ATOM     23  CA  ALA D   1      11.852  11.036 145.882  1.00 45.19 LIG 0.27  C 
ATOM     24  CB  ALA D   1      12.780  11.068 144.688  1.00 43.32 LIG 0.05  C 
BRANCH 23 25
ATOM     25  N   ALA D   1      10.468  11.089 145.442  1.00 39.75 LIG-0.07  N 
ATOM     26 H1   ALA D   1       9.934  11.170 146.149  1.00 39.75 LIG 0.28  HD
ATOM     27 H2   ALA D   1      10.355  11.788 144.904  1.00 39.75 LIG 0.28  HD
ATOM     28 H3   ALA D   1      10.267  10.341 145.002  1.00 39.75 LIG 0.28  HD
ENDBRANCH 23 25
ENDBRANCH 20 23
ENDBRANCH 6 19
ENDBRANCH 3 6
ENDBRANCH 1 2
BRANCH 1 29
ATOM     29  CB  THR D   3      15.940  15.258 146.701  1.00 46.90 LIG 0.15  C 
ATOM     30  CG2 THR D   3      16.707  16.394 147.351  1.00 44.81 LIG 0.04  C 
BRANCH 29 31
ATOM     31 OG1  THR D   3      15.939  14.130 147.587  1.00 48.09 LIG-0.39  OA
ATOM     32 HG1  THR D   3      16.675  14.089 147.990  1.00 48.09 LIG 0.21  HD
ENDBRANCH 29 31
ENDBRANCH 1 29
BRANCH 1 33
ATOM     33  C   THR D   3      14.287  15.662 144.879  1.00 42.40 LIG 0.24  C 
ATOM     34 O    THR D   3      14.188  16.715 144.240  1.00 40.34 LIG-0.27  OA
ATOM     35  N   LYS D   4      14.171  14.506 144.285  1.00 38.45 LIG-0.35  N 
ATOM     36 H    LYS D   4      14.267  13.744 144.672  1.00 38.45 LIG 0.16  HD
BRANCH 35 37
ATOM     37  CA  LYS D   4      13.861  14.442 142.879  1.00 37.56 LIG 0.18  C 
BRANCH 37 38
ATOM     38  C   LYS D   4      12.519  15.102 142.595  1.00 44.28 LIG 0.24  C 
ATOM     39 O    LYS D   4      12.450  15.907 141.745  1.00 49.08 LIG-0.27  OA
ATOM     40  N   GLN D   5      11.496  14.694 143.325  1.00 53.59 LIG-0.35  N 
ATOM     41 H    GLN D   5      11.557  13.930 143.716  1.00 53.59 LIG 0.16  HD
BRANCH 40 42
ATOM     42  CA  GLN D   5      10.172  15.300 143.646  1.00 61.39 LIG 0.16  C 
BRANCH 42 43
ATOM     43  CB  GLN D   5       9.429  15.943 142.466  1.00 20.00 LIG 0.04  C 
BRANCH 43 44
ATOM     44  CG  GLN D   5       8.868  14.909 141.460  1.00 20.00 LIG 0.10  C 
BRANCH 44 45
ATOM     45  CD  GLN D   5       9.768  14.557 140.276  1.00 20.00 LIG 0.21  C 
ATOM     46  NE2 GLN D   5       9.282  14.834 139.072  1.00 20.00 LIG-0.37  N 
ATOM     47 21HE GLN D   5       8.495  15.171 138.993  1.00 20.00 LIG 0.16  HD
ATOM     48 22HE GLN D   5       9.754  14.676 138.371  1.00 20.00 LIG 0.16  HD
ATOM     49 OE1  GLN D   5      10.890  14.073 140.440  1.00 20.00 LIG-0.27  OA
ENDBRANCH 44 45
ENDBRANCH 43 44
ENDBRANCH 42 43
BRANCH 42 50
ATOM     50  C   GLN D   5       9.182  14.674 144.599  1.00 64.61 LIG 0.22  C 
ATOM     51 O    GLN D   5       9.341  13.563 145.012  1.00 68.60 LIG-0.29  OA
ENDBRANCH 42 50
ENDBRANCH 40 42
ENDBRANCH 37 38
BRANCH 37 52
ATOM     52  CB  LYS D   4      13.916  13.009 142.397  1.00 33.42 LIG 0.04  C 
BRANCH 52 53
ATOM     53  CG  LYS D   4      15.139  12.300 142.752  1.00 40.53 LIG 0.00  C 
BRANCH 53 54
ATOM     54  CD  LYS D   4      15.151  11.007 142.129  1.00 50.17 LIG 0.03  C 
BRANCH 54 55
ATOM     55  CE  LYS D   4      13.765  10.559 141.761  1.00 57.03 LIG 0.23  C 
BRANCH 55 56
ATOM     56  NZ  LYS D   4      13.883   9.569 140.691  1.00 52.11 LIG-0.08  N 
ATOM     57 HZ3  LYS D   4      14.715   9.254 140.669  1.00 52.11 LIG 0.27  HD
ATOM     58 HZ2  LYS D   4      13.689   9.950 139.911  1.00 52.11 LIG 0.27  HD
ATOM     59 HZ1  LYS D   4      13.316   8.899 140.843  1.00 52.11 LIG 0.27  HD
ENDBRANCH 55 56
ENDBRANCH 54 55
ENDBRANCH 53 54
ENDBRANCH 52 53
ENDBRANCH 37 52
ENDBRANCH 35 37
ENDBRANCH 1 33
TORSDOF 24
ENDMDL
MODEL 36
USER: ADFR SOLUTION from run 20
USER: SCORE 16.732139 LL:  -2.772 LR: -17.100 RR:   0.000 FEB:  -9.940
USER: RMSD 4.319775
USER: SEED 19
USER: STATUS no improvement in best in 12 clusters for 5 generations
USER: GENES 26
USER: genes 0 Translation |==|  0.53972 0.47102 0.45741
USER: genes 1 Rotation |==|  0.55495 0.57144 0.75477 0.92068
USER: genes 2 Torsion [CB]-CA--N-[C] |==|  0.23439
USER: genes 3 Torsion [N]-C--CA-[N] |==|  0.13591
USER: genes 4 Torsion [C]-CA--CB-[CG] |==|  0.46442
USER: genes 5 Torsion [CA]-CB--CG-[CD] |==|  0.35603
USER: genes 6 Torsion [CB]-CG--CD-[NE] |==|  0.04438
USER: genes 7 Torsion [CG]-CD--NE-[HE] |==|  0.19370
USER: genes 8 Torsion [C]-CA--N-[C] |==|  0.56373
USER: genes 9 Torsion [N]-C--CA-[N] |==|  0.39210
USER: genes 10 Torsion [C]-CA--N-[H1] |==|  0.41026
USER: genes 11 Torsion [N]-CA--CB-[CG2] |==|  0.52585
USER: genes 12 Torsion [CA]-CB--OG1-[HG1] |==|  0.98140
USER: genes 13 Torsion [N]-CA--C-[N] |==|  0.35775
USER: genes 14 Torsion [C]-N--CA-[CB] |==|  0.43169
USER: genes 15 Torsion [N]-CA--C-[N] |==|  0.83441
USER: genes 16 Torsion [C]-N--CA-[CB] |==|  0.41604
USER: genes 17 Torsion [N]-CA--CB-[CG] |==|  0.27226
USER: genes 18 Torsion [CA]-CB--CG-[CD] |==|  0.46596
USER: genes 19 Torsion [CB]-CG--CD-[OE1] |==|  0.83394
USER: genes 20 Torsion [N]-CA--C-[O] |==|  0.11208
USER: genes 21 Torsion [N]-CA--CB-[CG] |==|  0.50903
USER: genes 22 Torsion [CA]-CB--CG-[CD] |==|  0.31005
USER: genes 23 Torsion [CB]-CG--CD-[CE] |==|  0.46615
USER: genes 24 Torsion [CG]-CD--CE-[NZ] |==|  0.69621
USER: genes 25 Torsion [CD]-CE--NZ-[HZ2] |==|  0.18498
ROOT
ATOM      1  CA  THR D   3      15.935  16.065 147.519  1.00 39.79 LIG 0.20  C 
ENDROOT
BRANCH 1 2
ATOM      2  N   THR D   3      15.317  14.844 147.005  1.00 34.46 LIG-0.34  N 
ATOM      3  C   ARG D   2      15.649  14.334 145.819  1.00 39.53 LIG 0.24  C 
ATOM      4 O    ARG D   2      16.398  14.916 145.031  1.00 39.08 LIG-0.27  OA
ATOM      5 H    THR D   3      14.732  14.494 147.530  1.00 34.46 LIG 0.16  HD
BRANCH 3 6
ATOM      6  CA  ARG D   2      15.039  12.975 145.448  1.00 42.24 LIG 0.18  C 
BRANCH 6 7
ATOM      7  CB  ARG D   2      15.283  12.662 143.970  1.00 49.82 LIG 0.04  C 
BRANCH 7 8
ATOM      8  CG  ARG D   2      15.008  11.234 143.525  1.00 55.24 LIG 0.02  C 
BRANCH 8 9
ATOM      9  CD  ARG D   2      14.078  11.232 142.301  1.00 55.63 LIG 0.14  C 
BRANCH 9 10
ATOM     10  NE  ARG D   2      13.992  12.541 141.650  1.00 65.78 LIG-0.23  N 
ATOM     11 HE   ARG D   2      14.688  12.824 141.232  1.00 65.78 LIG 0.18  HD
ATOM     12  CZ  ARG D   2      12.916  13.325 141.658  1.00 70.57 LIG 0.67  C 
ATOM     13  NH1 ARG D   2      11.815  12.949 142.291  1.00 66.11 LIG-0.23  N 
ATOM     14  NH2 ARG D   2      12.942  14.496 141.034  1.00 74.94 LIG-0.23  N 
ATOM     15 1HH1 ARG D   2      11.791  12.193 142.701  1.00 66.11 LIG 0.17  HD
ATOM     16 2HH1 ARG D   2      11.123  13.460 142.293  1.00 66.11 LIG 0.17  HD
ATOM     17 2HH2 ARG D   2      12.247  15.002 141.040  1.00 74.94 LIG 0.17  HD
ATOM     18 1HH2 ARG D   2      13.655  14.750 140.623  1.00 74.94 LIG 0.17  HD
ENDBRANCH 9 10
ENDBRANCH 8 9
ENDBRANCH 7 8
ENDBRANCH 6 7
BRANCH 6 19
ATOM     19  N   ARG D   2      13.598  12.996 145.684  1.00 42.84 LIG-0.35  N 
ATOM     20  C   ALA D   1      12.898  11.890 145.880  1.00 44.74 LIG 0.25  C 
ATOM     21 O    ALA D   1      13.392  10.768 145.802  1.00 48.31 LIG-0.27  OA
ATOM     22 H    ARG D   2      13.253  13.783 145.683  1.00 42.84 LIG 0.16  HD
BRANCH 20 23
ATOM     23  CA  ALA D   1      11.416  12.085 146.202  1.00 45.19 LIG 0.27  C 
ATOM     24  CB  ALA D   1      11.191  12.041 147.697  1.00 43.32 LIG 0.05  C 
BRANCH 23 25
ATOM     25  N   ALA D   1      10.609  11.070 145.545  1.00 39.75 LIG-0.07  N 
ATOM     26 H1   ALA D   1       9.901  10.880 146.050  1.00 39.75 LIG 0.28  HD
ATOM     27 H2   ALA D   1      10.336  11.374 144.754  1.00 39.75 LIG 0.28  HD
ATOM     28 H3   ALA D   1      11.095  10.334 145.427  1.00 39.75 LIG 0.28  HD
ENDBRANCH 23 25
ENDBRANCH 20 23
ENDBRANCH 6 19
ENDBRANCH 3 6
ENDBRANCH 1 2
BRANCH 1 29
ATOM     29  CB  THR D   3      15.238  17.337 146.987  1.00 46.90 LIG 0.15  C 
ATOM     30  CG2 THR D   3      16.031  18.580 147.347  1.00 44.81 LIG 0.04  C 
BRANCH 29 31
ATOM     31 OG1  THR D   3      15.116  17.259 145.561  1.00 48.09 LIG-0.39  OA
ATOM     32 HG1  THR D   3      15.528  16.582 145.280  1.00 48.09 LIG 0.21  HD
ENDBRANCH 29 31
ENDBRANCH 1 29
BRANCH 1 33
ATOM     33  C   THR D   3      15.884  16.089 149.046  1.00 42.40 LIG 0.24  C 
ATOM     34 O    THR D   3      14.815  15.945 149.648  1.00 40.34 LIG-0.27  OA
ATOM     35  N   LYS D   4      16.992  16.322 149.696  1.00 38.45 LIG-0.35  N 
ATOM     36 H    LYS D   4      17.767  16.394 149.332  1.00 38.45 LIG 0.16  HD
BRANCH 35 37
ATOM     37  CA  LYS D   4      16.971  16.477 151.129  1.00 37.56 LIG 0.18  C 
BRANCH 37 38
ATOM     38  C   LYS D   4      16.506  17.874 151.511  1.00 44.28 LIG 0.24  C 
ATOM     39 O    LYS D   4      15.560  17.992 152.193  1.00 49.08 LIG-0.27  OA
ATOM     40  N   GLN D   5      17.232  18.881 151.057  1.00 53.59 LIG-0.35  N 
ATOM     41 H    GLN D   5      18.041  18.719 150.813  1.00 53.59 LIG 0.16  HD
BRANCH 40 42
ATOM     42  CA  GLN D   5      16.947  20.332 150.862  1.00 61.39 LIG 0.16  C 
BRANCH 42 43
ATOM     43  CB  GLN D   5      18.150  21.274 151.007  1.00 20.00 LIG 0.04  C 
BRANCH 43 44
ATOM     44  CG  GLN D   5      18.783  21.673 149.652  1.00 20.00 LIG 0.10  C 
BRANCH 44 45
ATOM     45  CD  GLN D   5      19.789  22.823 149.685  1.00 20.00 LIG 0.21  C 
ATOM     46  NE2 GLN D   5      21.006  22.546 149.233  1.00 20.00 LIG-0.37  N 
ATOM     47 21HE GLN D   5      21.194  21.751 148.964  1.00 20.00 LIG 0.16  HD
ATOM     48 22HE GLN D   5      21.606  23.161 149.209  1.00 20.00 LIG 0.16  HD
ATOM     49 OE1  GLN D   5      19.472  23.947 150.081  1.00 20.00 LIG-0.27  OA
ENDBRANCH 44 45
ENDBRANCH 43 44
ENDBRANCH 42 43
BRANCH 42 50
ATOM     50  C   GLN D   5      16.006  20.857 149.805  1.00 64.61 LIG 0.22  C 
ATOM     51 O    GLN D   5      14.975  20.299 149.564  1.00 68.60 LIG-0.29  OA
ENDBRANCH 42 50
ENDBRANCH 40 42
ENDBRANCH 37 38
BRANCH 37 52
ATOM     52  CB  LYS D   4      18.327  16.137 151.709  1.00 33.42 LIG 0.04  C 
BRANCH 52 53
ATOM     53  CG  LYS D   4      18.391  16.191 153.164  1.00 40.53 LIG 0.00  C 
BRANCH 53 54
ATOM     54  CD  LYS D   4      18.563  14.868 153.693  1.00 50.17 LIG 0.03  C 
BRANCH 54 55
ATOM     55  CE  LYS D   4      18.927  14.900 155.151  1.00 57.03 LIG 0.23  C 
BRANCH 55 56
ATOM     56  NZ  LYS D   4      20.325  14.486 155.273  1.00 52.11 LIG-0.08  N 
ATOM     57 HZ3  LYS D   4      20.536  14.405 156.134  1.00 52.11 LIG 0.27  HD
ATOM     58 HZ2  LYS D   4      20.849  15.098 154.896  1.00 52.11 LIG 0.27  HD
ATOM     59 HZ1  LYS D   4      20.440  13.704 154.865  1.00 52.11 LIG 0.27  HD
ENDBRANCH 55 56
ENDBRANCH 54 55
ENDBRANCH 53 54
ENDBRANCH 52 53
ENDBRANCH 37 52
ENDBRANCH 35 37
ENDBRANCH 1 33
TORSDOF 24
ENDMDL
MODEL 37
USER: ADFR SOLUTION from run 121
USER: SCORE 18.020531 LL:  -2.925 LR: -17.088 RR:   0.000 FEB:  -9.929
USER: RMSD 3.178274
USER: SEED 120
USER: STATUS searching
USER: GENES 26
USER: genes 0 Translation |==|  0.53923 0.45841 0.49472
USER: genes 1 Rotation |==|  0.47732 0.56809 0.52804 0.99403
USER: genes 2 Torsion [CB]-CA--N-[C] |==|  0.26932
USER: genes 3 Torsion [N]-C--CA-[N] |==|  0.48804
USER: genes 4 Torsion [C]-CA--CB-[CG] |==|  0.59172
USER: genes 5 Torsion [CA]-CB--CG-[CD] |==|  0.53782
USER: genes 6 Torsion [CB]-CG--CD-[NE] |==|  0.67542
USER: genes 7 Torsion [CG]-CD--NE-[HE] |==|  0.30907
USER: genes 8 Torsion [C]-CA--N-[C] |==|  0.78723
USER: genes 9 Torsion [N]-C--CA-[N] |==|  0.19062
USER: genes 10 Torsion [C]-CA--N-[H1] |==|  0.13375
USER: genes 11 Torsion [N]-CA--CB-[CG2] |==|  0.18283
USER: genes 12 Torsion [CA]-CB--OG1-[HG1] |==|  0.83522
USER: genes 13 Torsion [N]-CA--C-[N] |==|  0.41125
USER: genes 14 Torsion [C]-N--CA-[CB] |==|  0.48532
USER: genes 15 Torsion [N]-CA--C-[N] |==|  0.43942
USER: genes 16 Torsion [C]-N--CA-[CB] |==|  0.31408
USER: genes 17 Torsion [N]-CA--CB-[CG] |==|  0.07902
USER: genes 18 Torsion [CA]-CB--CG-[CD] |==|  0.17478
USER: genes 19 Torsion [CB]-CG--CD-[OE1] |==|  0.81320
USER: genes 20 Torsion [N]-CA--C-[O] |==|  0.96780
USER: genes 21 Torsion [N]-CA--CB-[CG] |==|  0.54447
USER: genes 22 Torsion [CA]-CB--CG-[CD] |==|  0.47591
USER: genes 23 Torsion [CB]-CG--CD-[CE] |==|  0.66626
USER: genes 24 Torsion [CG]-CD--CE-[NZ] |==|  0.37790
USER: genes 25 Torsion [CD]-CE--NZ-[HZ2] |==|  0.13971
ROOT
ATOM      1  CA  THR D   3      15.926  15.790 148.386  1.00 39.79 LIG 0.20  C 
ENDROOT
BRANCH 1 2
ATOM      2  N   THR D   3      14.546  15.380 148.133  1.00 34.46 LIG-0.34  N 
ATOM      3  C   ARG D   2      14.255  14.235 147.517  1.00 39.53 LIG 0.24  C 
ATOM      4 O    ARG D   2      15.119  13.513 147.013  1.00 39.08 LIG-0.27  OA
ATOM      5 H    THR D   3      13.953  15.937 148.414  1.00 34.46 LIG 0.16  HD
BRANCH 3 6
ATOM      6  CA  ARG D   2      12.774  13.844 147.432  1.00 42.24 LIG 0.18  C 
BRANCH 6 7
ATOM      7  CB  ARG D   2      12.205  13.588 148.830  1.00 49.82 LIG 0.04  C 
BRANCH 7 8
ATOM      8  CG  ARG D   2      11.126  12.520 148.938  1.00 55.24 LIG 0.02  C 
BRANCH 8 9
ATOM      9  CD  ARG D   2      10.425  12.614 150.303  1.00 55.63 LIG 0.14  C 
BRANCH 9 10
ATOM     10  NE  ARG D   2      10.612  11.415 151.122  1.00 65.78 LIG-0.23  N 
ATOM     11 HE   ARG D   2      11.097  11.486 151.827  1.00 65.78 LIG 0.18  HD
ATOM     12  CZ  ARG D   2      10.085  10.222 150.854  1.00 70.57 LIG 0.67  C 
ATOM     13  NH1 ARG D   2       9.333  10.046 149.778  1.00 66.11 LIG-0.23  N 
ATOM     14  NH2 ARG D   2      10.315   9.196 151.665  1.00 74.94 LIG-0.23  N 
ATOM     15 1HH1 ARG D   2       9.182  10.704 149.246  1.00 66.11 LIG 0.17  HD
ATOM     16 2HH1 ARG D   2       8.995   9.273 149.610  1.00 66.11 LIG 0.17  HD
ATOM     17 2HH2 ARG D   2       9.974   8.426 151.490  1.00 74.94 LIG 0.17  HD
ATOM     18 1HH2 ARG D   2      10.805   9.301 152.363  1.00 74.94 LIG 0.17  HD
ENDBRANCH 9 10
ENDBRANCH 8 9
ENDBRANCH 7 8
ENDBRANCH 6 7
BRANCH 6 19
ATOM     19  N   ARG D   2      12.625  12.624 146.643  1.00 42.84 LIG-0.35  N 
ATOM     20  C   ALA D   1      12.703  12.623 145.322  1.00 44.74 LIG 0.25  C 
ATOM     21 O    ALA D   1      12.829  13.651 144.663  1.00 48.31 LIG-0.27  OA
ATOM     22 H    ARG D   2      12.484  11.918 147.112  1.00 42.84 LIG 0.16  HD
BRANCH 20 23
ATOM     23  CA  ALA D   1      12.615  11.253 144.648  1.00 45.19 LIG 0.27  C 
ATOM     24  CB  ALA D   1      12.981  11.363 143.184  1.00 43.32 LIG 0.05  C 
BRANCH 23 25
ATOM     25  N   ALA D   1      11.281  10.695 144.790  1.00 39.75 LIG-0.07  N 
ATOM     26 H1   ALA D   1      10.677  11.310 144.569  1.00 39.75 LIG 0.28  HD
ATOM     27 H2   ALA D   1      11.196   9.990 144.253  1.00 39.75 LIG 0.28  HD
ATOM     28 H3   ALA D   1      11.153  10.443 145.633  1.00 39.75 LIG 0.28  HD
ENDBRANCH 23 25
ENDBRANCH 20 23
ENDBRANCH 6 19
ENDBRANCH 3 6
ENDBRANCH 1 2
BRANCH 1 29
ATOM     29  CB  THR D   3      16.450  16.766 147.308  1.00 46.90 LIG 0.15  C 
ATOM     30  CG2 THR D   3      15.696  18.082 147.356  1.00 44.81 LIG 0.04  C 
BRANCH 29 31
ATOM     31 OG1  THR D   3      17.844  17.019 147.525  1.00 48.09 LIG-0.39  OA
ATOM     32 HG1  THR D   3      17.954  17.351 148.289  1.00 48.09 LIG 0.21  HD
ENDBRANCH 29 31
ENDBRANCH 1 29
BRANCH 1 33
ATOM     33  C   THR D   3      16.040  16.471 149.750  1.00 42.40 LIG 0.24  C 
ATOM     34 O    THR D   3      15.124  17.173 150.188  1.00 40.34 LIG-0.27  OA
ATOM     35  N   LYS D   4      17.156  16.336 150.414  1.00 38.45 LIG-0.35  N 
ATOM     36 H    LYS D   4      17.811  15.833 150.174  1.00 38.45 LIG 0.16  HD
BRANCH 35 37
ATOM     37  CA  LYS D   4      17.358  17.059 151.645  1.00 37.56 LIG 0.18  C 
BRANCH 37 38
ATOM     38  C   LYS D   4      17.281  18.559 151.405  1.00 44.28 LIG 0.24  C 
ATOM     39 O    LYS D   4      17.444  18.971 150.319  1.00 49.08 LIG-0.27  OA
ATOM     40  N   GLN D   5      17.004  19.310 152.457  1.00 53.59 LIG-0.35  N 
ATOM     41 H    GLN D   5      16.630  18.935 153.134  1.00 53.59 LIG 0.16  HD
BRANCH 40 42
ATOM     42  CA  GLN D   5      17.207  20.758 152.753  1.00 61.39 LIG 0.16  C 
BRANCH 42 43
ATOM     43  CB  GLN D   5      15.928  21.597 152.886  1.00 20.00 LIG 0.04  C 
BRANCH 43 44
ATOM     44  CG  GLN D   5      14.709  20.781 153.380  1.00 20.00 LIG 0.10  C 
BRANCH 44 45
ATOM     45  CD  GLN D   5      14.821  20.173 154.778  1.00 20.00 LIG 0.21  C 
ATOM     46  NE2 GLN D   5      13.983  20.650 155.690  1.00 20.00 LIG-0.37  N 
ATOM     47 21HE GLN D   5      13.436  21.280 155.483  1.00 20.00 LIG 0.16  HD
ATOM     48 22HE GLN D   5      13.988  20.330 156.487  1.00 20.00 LIG 0.16  HD
ATOM     49 OE1  GLN D   5      15.624  19.271 155.026  1.00 20.00 LIG-0.27  OA
ENDBRANCH 44 45
ENDBRANCH 43 44
ENDBRANCH 42 43
BRANCH 42 50
ATOM     50  C   GLN D   5      18.261  21.270 153.705  1.00 64.61 LIG 0.22  C 
ATOM     51 O    GLN D   5      18.855  20.523 154.427  1.00 68.60 LIG-0.29  OA
ENDBRANCH 42 50
ENDBRANCH 40 42
ENDBRANCH 37 38
BRANCH 37 52
ATOM     52  CB  LYS D   4      18.662  16.640 152.287  1.00 33.42 LIG 0.04  C 
BRANCH 52 53
ATOM     53  CG  LYS D   4      18.794  17.020 153.688  1.00 40.53 LIG 0.00  C 
BRANCH 53 54
ATOM     54  CD  LYS D   4      19.963  16.405 154.252  1.00 50.17 LIG 0.03  C 
BRANCH 54 55
ATOM     55  CE  LYS D   4      19.613  15.512 155.408  1.00 57.03 LIG 0.23  C 
BRANCH 55 56
ATOM     56  NZ  LYS D   4      20.378  14.274 155.266  1.00 52.11 LIG-0.08  N 
ATOM     57 HZ3  LYS D   4      20.297  13.788 156.007  1.00 52.11 LIG 0.27  HD
ATOM     58 HZ2  LYS D   4      21.236  14.469 155.131  1.00 52.11 LIG 0.27  HD
ATOM     59 HZ1  LYS D   4      20.066  13.811 154.573  1.00 52.11 LIG 0.27  HD
ENDBRANCH 55 56
ENDBRANCH 54 55
ENDBRANCH 53 54
ENDBRANCH 52 53
ENDBRANCH 37 52
ENDBRANCH 35 37
ENDBRANCH 1 33
TORSDOF 24
ENDMDL
MODEL 38
USER: ADFR SOLUTION from run 168
USER: SCORE 18.057831 LL:  -2.596 LR: -17.086 RR:   0.000 FEB:  -9.927
USER: RMSD 5.945257
USER: SEED 167
USER: STATUS no improvement in best in 18 clusters for 5 generations
USER: GENES 26
USER: genes 0 Translation |==|  0.42739 0.31419 0.33218
USER: genes 1 Rotation |==|  0.31339 0.72294 0.47952 0.90627
USER: genes 2 Torsion [CB]-CA--N-[C] |==|  0.52354
USER: genes 3 Torsion [N]-C--CA-[N] |==|  0.05818
USER: genes 4 Torsion [C]-CA--CB-[CG] |==|  0.33888
USER: genes 5 Torsion [CA]-CB--CG-[CD] |==|  0.33233
USER: genes 6 Torsion [CB]-CG--CD-[NE] |==|  0.19817
USER: genes 7 Torsion [CG]-CD--NE-[HE] |==|  0.22951
USER: genes 8 Torsion [C]-CA--N-[C] |==|  0.72006
USER: genes 9 Torsion [N]-C--CA-[N] |==|  0.96617
USER: genes 10 Torsion [C]-CA--N-[H1] |==|  0.90954
USER: genes 11 Torsion [N]-CA--CB-[CG2] |==|  0.61038
USER: genes 12 Torsion [CA]-CB--OG1-[HG1] |==|  0.54749
USER: genes 13 Torsion [N]-CA--C-[N] |==|  0.97350
USER: genes 14 Torsion [C]-N--CA-[CB] |==|  0.88333
USER: genes 15 Torsion [N]-CA--C-[N] |==|  0.88248
USER: genes 16 Torsion [C]-N--CA-[CB] |==|  0.26500
USER: genes 17 Torsion [N]-CA--CB-[CG] |==|  0.79286
USER: genes 18 Torsion [CA]-CB--CG-[CD] |==|  0.25322
USER: genes 19 Torsion [CB]-CG--CD-[OE1] |==|  0.50787
USER: genes 20 Torsion [N]-CA--C-[O] |==|  0.89942
USER: genes 21 Torsion [N]-CA--CB-[CG] |==|  0.42867
USER: genes 22 Torsion [CA]-CB--CG-[CD] |==|  0.32220
USER: genes 23 Torsion [CB]-CG--CD-[CE] |==|  0.89919
USER: genes 24 Torsion [CG]-CD--CE-[NZ] |==|  0.38683
USER: genes 25 Torsion [CD]-CE--NZ-[HZ2] |==|  0.72018
ROOT
ATOM      1  CA  THR D   3      13.829  12.654 144.607  1.00 39.79 LIG 0.20  C 
ENDROOT
BRANCH 1 2
ATOM      2  N   THR D   3      12.622  12.643 145.432  1.00 34.46 LIG-0.34  N 
ATOM      3  C   ARG D   2      12.664  12.889 146.741  1.00 39.53 LIG 0.24  C 
ATOM      4 O    ARG D   2      13.723  13.018 147.360  1.00 39.08 LIG-0.27  OA
ATOM      5 H    THR D   3      11.899  12.467 145.001  1.00 34.46 LIG 0.16  HD
BRANCH 3 6
ATOM      6  CA  ARG D   2      11.321  12.990 147.477  1.00 42.24 LIG 0.18  C 
BRANCH 6 7
ATOM      7  CB  ARG D   2      11.410  12.325 148.852  1.00 49.82 LIG 0.04  C 
BRANCH 7 8
ATOM      8  CG  ARG D   2      11.088  13.204 150.052  1.00 55.24 LIG 0.02  C 
BRANCH 8 9
ATOM      9  CD  ARG D   2       9.891  12.626 150.823  1.00 55.63 LIG 0.14  C 
BRANCH 9 10
ATOM     10  NE  ARG D   2      10.219  11.396 151.546  1.00 65.78 LIG-0.23  N 
ATOM     11 HE   ARG D   2      10.593  11.474 152.315  1.00 65.78 LIG 0.18  HD
ATOM     12  CZ  ARG D   2       9.980  10.165 151.099  1.00 70.57 LIG 0.67  C 
ATOM     13  NH1 ARG D   2       9.412   9.977 149.917  1.00 66.11 LIG-0.23  N 
ATOM     14  NH2 ARG D   2      10.317   9.113 151.836  1.00 74.94 LIG-0.23  N 
ATOM     15 1HH1 ARG D   2       9.194  10.653 149.432  1.00 66.11 LIG 0.17  HD
ATOM     16 2HH1 ARG D   2       9.261   9.179 149.634  1.00 66.11 LIG 0.17  HD
ATOM     17 2HH2 ARG D   2      10.163   8.318 151.545  1.00 74.94 LIG 0.17  HD
ATOM     18 1HH2 ARG D   2      10.690   9.226 152.602  1.00 74.94 LIG 0.17  HD
ENDBRANCH 9 10
ENDBRANCH 8 9
ENDBRANCH 7 8
ENDBRANCH 6 7
BRANCH 6 19
ATOM     19  N   ARG D   2      10.280  12.317 146.705  1.00 42.84 LIG-0.35  N 
ATOM     20  C   ALA D   1       9.417  12.980 145.952  1.00 44.74 LIG 0.25  C 
ATOM     21 O    ALA D   1       9.380  14.207 145.908  1.00 48.31 LIG-0.27  OA
ATOM     22 H    ARG D   2      10.281  11.461 146.785  1.00 42.84 LIG 0.16  HD
BRANCH 20 23
ATOM     23  CA  ALA D   1       8.445  12.126 145.137  1.00 45.19 LIG 0.27  C 
ATOM     24  CB  ALA D   1       7.042  12.256 145.686  1.00 43.32 LIG 0.05  C 
BRANCH 23 25
ATOM     25  N   ALA D   1       8.856  10.733 145.141  1.00 39.75 LIG-0.07  N 
ATOM     26 H1   ALA D   1       9.745  10.685 145.175  1.00 39.75 LIG 0.28  HD
ATOM     27 H2   ALA D   1       8.511  10.323 145.851  1.00 39.75 LIG 0.28  HD
ATOM     28 H3   ALA D   1       8.567  10.335 144.400  1.00 39.75 LIG 0.28  HD
ENDBRANCH 23 25
ENDBRANCH 20 23
ENDBRANCH 6 19
ENDBRANCH 3 6
ENDBRANCH 1 2
BRANCH 1 29
ATOM     29  CB  THR D   3      13.503  12.549 143.100  1.00 46.90 LIG 0.15  C 
ATOM     30  CG2 THR D   3      14.498  11.648 142.392  1.00 44.81 LIG 0.04  C 
BRANCH 29 31
ATOM     31 OG1  THR D   3      12.185  12.014 142.928  1.00 48.09 LIG-0.39  OA
ATOM     32 HG1  THR D   3      12.093  11.741 142.138  1.00 48.09 LIG 0.21  HD
ENDBRANCH 29 31
ENDBRANCH 1 29
BRANCH 1 33
ATOM     33  C   THR D   3      14.626  13.936 144.841  1.00 42.40 LIG 0.24  C 
ATOM     34 O    THR D   3      15.782  14.050 144.422  1.00 40.34 LIG-0.27  OA
ATOM     35  N   LYS D   4      14.072  14.886 145.544  1.00 38.45 LIG-0.35  N 
ATOM     36 H    LYS D   4      13.261  14.876 145.829  1.00 38.45 LIG 0.16  HD
BRANCH 35 37
ATOM     37  CA  LYS D   4      14.829  16.062 145.896  1.00 37.56 LIG 0.18  C 
BRANCH 37 38
ATOM     38  C   LYS D   4      14.819  17.068 144.755  1.00 44.28 LIG 0.24  C 
ATOM     39 O    LYS D   4      14.695  18.208 145.002  1.00 49.08 LIG-0.27  OA
ATOM     40  N   GLN D   5      14.979  16.579 143.538  1.00 53.59 LIG-0.35  N 
ATOM     41 H    GLN D   5      15.336  15.801 143.458  1.00 53.59 LIG 0.16  HD
BRANCH 40 42
ATOM     42  CA  GLN D   5      14.660  17.110 142.180  1.00 61.39 LIG 0.16  C 
BRANCH 42 43
ATOM     43  CB  GLN D   5      15.813  17.816 141.452  1.00 20.00 LIG 0.04  C 
BRANCH 43 44
ATOM     44  CG  GLN D   5      16.119  19.226 142.013  1.00 20.00 LIG 0.10  C 
BRANCH 44 45
ATOM     45  CD  GLN D   5      17.166  19.301 143.125  1.00 20.00 LIG 0.21  C 
ATOM     46  NE2 GLN D   5      17.772  18.161 143.433  1.00 20.00 LIG-0.37  N 
ATOM     47 21HE GLN D   5      17.552  17.435 143.029  1.00 20.00 LIG 0.16  HD
ATOM     48 22HE GLN D   5      18.384  18.150 144.037  1.00 20.00 LIG 0.16  HD
ATOM     49 OE1  GLN D   5      17.445  20.368 143.676  1.00 20.00 LIG-0.27  OA
ENDBRANCH 44 45
ENDBRANCH 43 44
ENDBRANCH 42 43
BRANCH 42 50
ATOM     50  C   GLN D   5      13.795  16.375 141.185  1.00 64.61 LIG 0.22  C 
ATOM     51 O    GLN D   5      13.833  15.182 141.098  1.00 68.60 LIG-0.29  OA
ENDBRANCH 42 50
ENDBRANCH 40 42
ENDBRANCH 37 38
BRANCH 37 52
ATOM     52  CB  LYS D   4      16.230  15.673 146.316  1.00 33.42 LIG 0.04  C 
BRANCH 52 53
ATOM     53  CG  LYS D   4      17.228  16.718 146.127  1.00 40.53 LIG 0.00  C 
BRANCH 53 54
ATOM     54  CD  LYS D   4      17.758  17.120 147.399  1.00 50.17 LIG 0.03  C 
BRANCH 54 55
ATOM     55  CE  LYS D   4      16.701  17.105 148.467  1.00 57.03 LIG 0.23  C 
BRANCH 55 56
ATOM     56  NZ  LYS D   4      17.300  16.558 149.683  1.00 52.11 LIG-0.08  N 
ATOM     57 HZ3  LYS D   4      18.187  16.614 149.629  1.00 52.11 LIG 0.27  HD
ATOM     58 HZ2  LYS D   4      17.062  15.705 149.773  1.00 52.11 LIG 0.27  HD
ATOM     59 HZ1  LYS D   4      17.016  17.021 150.388  1.00 52.11 LIG 0.27  HD
ENDBRANCH 55 56
ENDBRANCH 54 55
ENDBRANCH 53 54
ENDBRANCH 52 53
ENDBRANCH 37 52
ENDBRANCH 35 37
ENDBRANCH 1 33
TORSDOF 24
ENDMDL
MODEL 39
USER: ADFR SOLUTION from run 145
USER: SCORE 19.120455 LL:  -2.327 LR: -17.085 RR:   0.000 FEB:  -9.926
USER: RMSD 6.252112
USER: SEED 144
USER: STATUS searching
USER: GENES 26
USER: genes 0 Translation |==|  0.38258 0.28351 0.43129
USER: genes 1 Rotation |==|  0.21065 0.64726 0.44041 0.87556
USER: genes 2 Torsion [CB]-CA--N-[C] |==|  0.53896
USER: genes 3 Torsion [N]-C--CA-[N] |==|  0.98323
USER: genes 4 Torsion [C]-CA--CB-[CG] |==|  0.99710
USER: genes 5 Torsion [CA]-CB--CG-[CD] |==|  0.76713
USER: genes 6 Torsion [CB]-CG--CD-[NE] |==|  0.74672
USER: genes 7 Torsion [CG]-CD--NE-[HE] |==|  0.76595
USER: genes 8 Torsion [C]-CA--N-[C] |==|  0.76567
USER: genes 9 Torsion [N]-C--CA-[N] |==|  0.79382
USER: genes 10 Torsion [C]-CA--N-[H1] |==|  0.09202
USER: genes 11 Torsion [N]-CA--CB-[CG2] |==|  0.50554
USER: genes 12 Torsion [CA]-CB--OG1-[HG1] |==|  0.30913
USER: genes 13 Torsion [N]-CA--C-[N] |==|  0.44580
USER: genes 14 Torsion [C]-N--CA-[CB] |==|  0.85330
USER: genes 15 Torsion [N]-CA--C-[N] |==|  0.34455
USER: genes 16 Torsion [C]-N--CA-[CB] |==|  0.84961
USER: genes 17 Torsion [N]-CA--CB-[CG] |==|  0.94480
USER: genes 18 Torsion [CA]-CB--CG-[CD] |==|  0.80866
USER: genes 19 Torsion [CB]-CG--CD-[OE1] |==|  0.32355
USER: genes 20 Torsion [N]-CA--C-[O] |==|  0.12192
USER: genes 21 Torsion [N]-CA--CB-[CG] |==|  0.86306
USER: genes 22 Torsion [CA]-CB--CG-[CD] |==|  0.31827
USER: genes 23 Torsion [CB]-CG--CD-[CE] |==|  0.31735
USER: genes 24 Torsion [CG]-CD--CE-[NZ] |==|  0.26421
USER: genes 25 Torsion [CD]-CE--NZ-[HZ2] |==|  0.18914
ROOT
ATOM      1  CA  THR D   3      12.988  11.986 146.911  1.00 39.79 LIG 0.20  C 
ENDROOT
BRANCH 1 2
ATOM      2  N   THR D   3      11.616  12.073 147.407  1.00 34.46 LIG-0.34  N 
ATOM      3  C   ARG D   2      11.267  12.934 148.361  1.00 39.53 LIG 0.24  C 
ATOM      4 O    ARG D   2      12.089  13.621 148.972  1.00 39.08 LIG-0.27  OA
ATOM      5 H    THR D   3      11.068  11.526 147.030  1.00 34.46 LIG 0.16  HD
BRANCH 3 6
ATOM      6  CA  ARG D   2       9.773  13.033 148.700  1.00 42.24 LIG 0.18  C 
BRANCH 6 7
ATOM      7  CB  ARG D   2       9.509  12.524 150.119  1.00 49.82 LIG 0.04  C 
BRANCH 7 8
ATOM      8  CG  ARG D   2      10.716  12.012 150.892  1.00 55.24 LIG 0.02  C 
BRANCH 8 9
ATOM      9  CD  ARG D   2      10.997  10.547 150.522  1.00 55.63 LIG 0.14  C 
BRANCH 9 10
ATOM     10  NE  ARG D   2      10.311   9.597 151.401  1.00 65.78 LIG-0.23  N 
ATOM     11 HE   ARG D   2      10.694   9.395 152.143  1.00 65.78 LIG 0.18  HD
ATOM     12  CZ  ARG D   2       9.140   9.024 151.135  1.00 70.57 LIG 0.67  C 
ATOM     13  NH1 ARG D   2       8.504   9.289 150.003  1.00 66.11 LIG-0.23  N 
ATOM     14  NH2 ARG D   2       8.602   8.174 152.001  1.00 74.94 LIG-0.23  N 
ATOM     15 1HH1 ARG D   2       8.847   9.835 149.434  1.00 66.11 LIG 0.17  HD
ATOM     16 2HH1 ARG D   2       7.747   8.916 149.836  1.00 66.11 LIG 0.17  HD
ATOM     17 2HH2 ARG D   2       7.846   7.804 151.828  1.00 74.94 LIG 0.17  HD
ATOM     18 1HH2 ARG D   2       9.011   7.994 152.736  1.00 74.94 LIG 0.17  HD
ENDBRANCH 9 10
ENDBRANCH 8 9
ENDBRANCH 7 8
ENDBRANCH 6 7
BRANCH 6 19
ATOM     19  N   ARG D   2       8.996  12.222 147.767  1.00 42.84 LIG-0.35  N 
ATOM     20  C   ALA D   1       8.616  12.675 146.584  1.00 44.74 LIG 0.25  C 
ATOM     21 O    ALA D   1       8.820  13.830 146.217  1.00 48.31 LIG-0.27  OA
ATOM     22 H    ARG D   2       8.812  11.434 148.056  1.00 42.84 LIG 0.16  HD
BRANCH 20 23
ATOM     23  CA  ALA D   1       7.885  11.675 145.686  1.00 45.19 LIG 0.27  C 
ATOM     24  CB  ALA D   1       6.795  10.970 146.463  1.00 43.32 LIG 0.05  C 
BRANCH 23 25
ATOM     25  N   ALA D   1       8.815  10.704 145.135  1.00 39.75 LIG-0.07  N 
ATOM     26 H1   ALA D   1       9.464  10.546 145.724  1.00 39.75 LIG 0.28  HD
ATOM     27 H2   ALA D   1       8.383   9.946 144.961  1.00 39.75 LIG 0.28  HD
ATOM     28 H3   ALA D   1       9.168  11.024 144.384  1.00 39.75 LIG 0.28  HD
ENDBRANCH 23 25
ENDBRANCH 20 23
ENDBRANCH 6 19
ENDBRANCH 3 6
ENDBRANCH 1 2
BRANCH 1 29
ATOM     29  CB  THR D   3      13.082  11.185 145.594  1.00 46.90 LIG 0.15  C 
ATOM     30  CG2 THR D   3      14.522  11.070 145.130  1.00 44.81 LIG 0.04  C 
BRANCH 29 31
ATOM     31 OG1  THR D   3      12.551   9.868 145.792  1.00 48.09 LIG-0.39  OA
ATOM     32 HG1  THR D   3      11.833   9.787 145.362  1.00 48.09 LIG 0.21  HD
ENDBRANCH 29 31
ENDBRANCH 1 29
BRANCH 1 33
ATOM     33  C   THR D   3      13.559  13.383 146.668  1.00 42.40 LIG 0.24  C 
ATOM     34 O    THR D   3      12.813  14.351 146.485  1.00 40.34 LIG-0.27  OA
ATOM     35  N   LYS D   4      14.856  13.516 146.604  1.00 38.45 LIG-0.35  N 
ATOM     36 H    LYS D   4      15.421  12.887 146.758  1.00 38.45 LIG 0.16  HD
BRANCH 35 37
ATOM     37  CA  LYS D   4      15.436  14.789 146.253  1.00 37.56 LIG 0.18  C 
BRANCH 37 38
ATOM     38  C   LYS D   4      15.286  15.780 147.398  1.00 44.28 LIG 0.24  C 
ATOM     39 O    LYS D   4      14.218  15.987 147.836  1.00 49.08 LIG-0.27  OA
ATOM     40  N   GLN D   5      16.399  16.334 147.847  1.00 53.59 LIG-0.35  N 
ATOM     41 H    GLN D   5      17.144  15.939 147.679  1.00 53.59 LIG 0.16  HD
BRANCH 40 42
ATOM     42  CA  GLN D   5      16.672  17.572 148.633  1.00 61.39 LIG 0.16  C 
BRANCH 42 43
ATOM     43  CB  GLN D   5      16.095  18.871 148.052  1.00 20.00 LIG 0.04  C 
BRANCH 43 44
ATOM     44  CG  GLN D   5      15.758  18.771 146.545  1.00 20.00 LIG 0.10  C 
BRANCH 44 45
ATOM     45  CD  GLN D   5      16.946  18.654 145.590  1.00 20.00 LIG 0.21  C 
ATOM     46  NE2 GLN D   5      17.792  19.677 145.584  1.00 20.00 LIG-0.37  N 
ATOM     47 21HE GLN D   5      17.642  20.362 146.082  1.00 20.00 LIG 0.16  HD
ATOM     48 22HE GLN D   5      18.489  19.655 145.081  1.00 20.00 LIG 0.16  HD
ATOM     49 OE1  GLN D   5      17.118  17.651 144.893  1.00 20.00 LIG-0.27  OA
ENDBRANCH 44 45
ENDBRANCH 43 44
ENDBRANCH 42 43
BRANCH 42 50
ATOM     50  C   GLN D   5      16.638  17.622 150.141  1.00 64.61 LIG 0.22  C 
ATOM     51 O    GLN D   5      17.143  16.759 150.798  1.00 68.60 LIG-0.29  OA
ENDBRANCH 42 50
ENDBRANCH 40 42
ENDBRANCH 37 38
BRANCH 37 52
ATOM     52  CB  LYS D   4      14.835  15.298 144.961  1.00 33.42 LIG 0.04  C 
BRANCH 52 53
ATOM     53  CG  LYS D   4      14.819  14.323 143.878  1.00 40.53 LIG 0.00  C 
BRANCH 53 54
ATOM     54  CD  LYS D   4      13.463  13.991 143.543  1.00 50.17 LIG 0.03  C 
BRANCH 54 55
ATOM     55  CE  LYS D   4      13.110  14.450 142.156  1.00 57.03 LIG 0.23  C 
BRANCH 55 56
ATOM     56  NZ  LYS D   4      13.315  13.325 141.245  1.00 52.11 LIG-0.08  N 
ATOM     57 HZ3  LYS D   4      13.226  13.603 140.405  1.00 52.11 LIG 0.27  HD
ATOM     58 HZ2  LYS D   4      12.712  12.693 141.414  1.00 52.11 LIG 0.27  HD
ATOM     59 HZ1  LYS D   4      14.133  12.993 141.362  1.00 52.11 LIG 0.27  HD
ENDBRANCH 55 56
ENDBRANCH 54 55
ENDBRANCH 53 54
ENDBRANCH 52 53
ENDBRANCH 37 52
ENDBRANCH 35 37
ENDBRANCH 1 33
TORSDOF 24
ENDMDL
MODEL 40
USER: ADFR SOLUTION from run 23
USER: SCORE 17.978635 LL:  -2.474 LR: -17.053 RR:   0.000 FEB:  -9.894
USER: RMSD 4.879286
USER: SEED 22
USER: STATUS no improvement in best in 10 clusters for 5 generations
USER: GENES 26
USER: genes 0 Translation |==|  0.55284 0.42295 0.40731
USER: genes 1 Rotation |==|  0.44090 0.51357 0.53289 0.99522
USER: genes 2 Torsion [CB]-CA--N-[C] |==|  0.50578
USER: genes 3 Torsion [N]-C--CA-[N] |==|  0.13630
USER: genes 4 Torsion [C]-CA--CB-[CG] |==|  0.38913
USER: genes 5 Torsion [CA]-CB--CG-[CD] |==|  0.66306
USER: genes 6 Torsion [CB]-CG--CD-[NE] |==|  0.78462
USER: genes 7 Torsion [CG]-CD--NE-[HE] |==|  0.91019
USER: genes 8 Torsion [C]-CA--N-[C] |==|  0.14756
USER: genes 9 Torsion [N]-C--CA-[N] |==|  0.92558
USER: genes 10 Torsion [C]-CA--N-[H1] |==|  0.30260
USER: genes 11 Torsion [N]-CA--CB-[CG2] |==|  0.22423
USER: genes 12 Torsion [CA]-CB--OG1-[HG1] |==|  0.57162
USER: genes 13 Torsion [N]-CA--C-[N] |==|  0.52029
USER: genes 14 Torsion [C]-N--CA-[CB] |==|  0.87173
USER: genes 15 Torsion [N]-CA--C-[N] |==|  0.28333
USER: genes 16 Torsion [C]-N--CA-[CB] |==|  0.56941
USER: genes 17 Torsion [N]-CA--CB-[CG] |==|  0.56730
USER: genes 18 Torsion [CA]-CB--CG-[CD] |==|  0.46542
USER: genes 19 Torsion [CB]-CG--CD-[OE1] |==|  0.58345
USER: genes 20 Torsion [N]-CA--C-[O] |==|  0.04436
USER: genes 21 Torsion [N]-CA--CB-[CG] |==|  0.44598
USER: genes 22 Torsion [CA]-CB--CG-[CD] |==|  0.70737
USER: genes 23 Torsion [CB]-CG--CD-[CE] |==|  0.48901
USER: genes 24 Torsion [CG]-CD--CE-[NZ] |==|  0.70925
USER: genes 25 Torsion [CD]-CE--NZ-[HZ2] |==|  0.39609
ROOT
ATOM      1  CA  THR D   3      16.181  15.019 146.354  1.00 39.79 LIG 0.20  C 
ENDROOT
BRANCH 1 2
ATOM      2  N   THR D   3      14.908  14.496 145.863  1.00 34.46 LIG-0.34  N 
ATOM      3  C   ARG D   2      14.109  13.757 146.632  1.00 39.53 LIG 0.24  C 
ATOM      4 O    ARG D   2      14.440  13.364 147.753  1.00 39.08 LIG-0.27  OA
ATOM      5 H    THR D   3      14.729  14.706 145.048  1.00 34.46 LIG 0.16  HD
BRANCH 3 6
ATOM      6  CA  ARG D   2      12.736  13.382 146.055  1.00 42.24 LIG 0.18  C 
BRANCH 6 7
ATOM      7  CB  ARG D   2      12.060  12.319 146.924  1.00 49.82 LIG 0.04  C 
BRANCH 7 8
ATOM      8  CG  ARG D   2      10.563  12.476 147.147  1.00 55.24 LIG 0.02  C 
BRANCH 8 9
ATOM      9  CD  ARG D   2      10.262  12.591 148.649  1.00 55.63 LIG 0.14  C 
BRANCH 9 10
ATOM     10  NE  ARG D   2      10.308  11.300 149.339  1.00 65.78 LIG-0.23  N 
ATOM     11 HE   ARG D   2      10.070  10.603 148.896  1.00 65.78 LIG 0.18  HD
ATOM     12  CZ  ARG D   2      10.692  11.126 150.602  1.00 70.57 LIG 0.67  C 
ATOM     13  NH1 ARG D   2      11.065  12.162 151.340  1.00 66.11 LIG-0.23  N 
ATOM     14  NH2 ARG D   2      10.698   9.910 151.134  1.00 74.94 LIG-0.23  N 
ATOM     15 1HH1 ARG D   2      11.060  12.953 151.004  1.00 66.11 LIG 0.17  HD
ATOM     16 2HH1 ARG D   2      11.311  12.043 152.155  1.00 66.11 LIG 0.17  HD
ATOM     17 2HH2 ARG D   2      10.946   9.799 151.950  1.00 74.94 LIG 0.17  HD
ATOM     18 1HH2 ARG D   2      10.454   9.233 150.663  1.00 74.94 LIG 0.17  HD
ENDBRANCH 9 10
ENDBRANCH 8 9
ENDBRANCH 7 8
ENDBRANCH 6 7
BRANCH 6 19
ATOM     19  N   ARG D   2      12.893  12.845 144.706  1.00 42.84 LIG-0.35  N 
ATOM     20  C   ALA D   1      13.716  11.846 144.434  1.00 44.74 LIG 0.25  C 
ATOM     21 O    ALA D   1      14.461  11.351 145.275  1.00 48.31 LIG-0.27  OA
ATOM     22 H    ARG D   2      12.406  13.235 144.115  1.00 42.84 LIG 0.16  HD
BRANCH 20 23
ATOM     23  CA  ALA D   1      13.700  11.340 142.991  1.00 45.19 LIG 0.27  C 
ATOM     24  CB  ALA D   1      14.800  11.999 142.189  1.00 43.32 LIG 0.05  C 
BRANCH 23 25
ATOM     25  N   ALA D   1      12.410  11.592 142.372  1.00 39.75 LIG-0.07  N 
ATOM     26 H1   ALA D   1      12.493  12.236 141.763  1.00 39.75 LIG 0.28  HD
ATOM     27 H2   ALA D   1      12.120  10.848 141.978  1.00 39.75 LIG 0.28  HD
ATOM     28 H3   ALA D   1      11.826  11.845 142.993  1.00 39.75 LIG 0.28  HD
ENDBRANCH 23 25
ENDBRANCH 20 23
ENDBRANCH 6 19
ENDBRANCH 3 6
ENDBRANCH 1 2
BRANCH 1 29
ATOM     29  CB  THR D   3      16.900  15.886 145.296  1.00 46.90 LIG 0.15  C 
ATOM     30  CG2 THR D   3      16.326  17.291 145.265  1.00 44.81 LIG 0.04  C 
BRANCH 29 31
ATOM     31 OG1  THR D   3      18.298  15.961 145.605  1.00 48.09 LIG-0.39  OA
ATOM     32 HG1  THR D   3      18.619  16.668 145.284  1.00 48.09 LIG 0.21  HD
ENDBRANCH 29 31
ENDBRANCH 1 29
BRANCH 1 33
ATOM     33  C   THR D   3      15.963  15.867 147.607  1.00 42.40 LIG 0.24  C 
ATOM     34 O    THR D   3      14.844  15.968 148.119  1.00 40.34 LIG-0.27  OA
ATOM     35  N   LYS D   4      16.981  16.528 148.088  1.00 38.45 LIG-0.35  N 
ATOM     36 H    LYS D   4      17.787  16.468 147.794  1.00 38.45 LIG 0.16  HD
BRANCH 35 37
ATOM     37  CA  LYS D   4      16.798  17.437 149.192  1.00 37.56 LIG 0.18  C 
BRANCH 37 38
ATOM     38  C   LYS D   4      16.714  16.675 150.506  1.00 44.28 LIG 0.24  C 
ATOM     39 O    LYS D   4      15.721  16.114 150.777  1.00 49.08 LIG-0.27  OA
ATOM     40  N   GLN D   5      17.802  16.676 151.257  1.00 53.59 LIG-0.35  N 
ATOM     41 H    GLN D   5      18.553  16.858 150.882  1.00 53.59 LIG 0.16  HD
BRANCH 40 42
ATOM     42  CA  GLN D   5      18.034  16.414 152.708  1.00 61.39 LIG 0.16  C 
BRANCH 42 43
ATOM     43  CB  GLN D   5      19.284  17.070 153.311  1.00 20.00 LIG 0.04  C 
BRANCH 43 44
ATOM     44  CG  GLN D   5      19.812  16.339 154.570  1.00 20.00 LIG 0.10  C 
BRANCH 44 45
ATOM     45  CD  GLN D   5      21.204  16.743 155.056  1.00 20.00 LIG 0.21  C 
ATOM     46  NE2 GLN D   5      21.551  18.006 154.842  1.00 20.00 LIG-0.37  N 
ATOM     47 21HE GLN D   5      21.013  18.537 154.433  1.00 20.00 LIG 0.16  HD
ATOM     48 22HE GLN D   5      22.315  18.293 155.113  1.00 20.00 LIG 0.16  HD
ATOM     49 OE1  GLN D   5      21.941  15.944 155.637  1.00 20.00 LIG-0.27  OA
ENDBRANCH 44 45
ENDBRANCH 43 44
ENDBRANCH 42 43
BRANCH 42 50
ATOM     50  C   GLN D   5      16.926  16.376 153.732  1.00 64.61 LIG 0.22  C 
ATOM     51 O    GLN D   5      15.781  16.275 153.398  1.00 68.60 LIG-0.29  OA
ENDBRANCH 42 50
ENDBRANCH 40 42
ENDBRANCH 37 38
BRANCH 37 52
ATOM     52  CB  LYS D   4      15.588  18.313 148.950  1.00 33.42 LIG 0.04  C 
BRANCH 52 53
ATOM     53  CG  LYS D   4      15.048  18.939 150.150  1.00 40.53 LIG 0.00  C 
BRANCH 53 54
ATOM     54  CD  LYS D   4      13.833  18.280 150.538  1.00 50.17 LIG 0.03  C 
BRANCH 54 55
ATOM     55  CE  LYS D   4      13.293  18.833 151.826  1.00 57.03 LIG 0.23  C 
BRANCH 55 56
ATOM     56  NZ  LYS D   4      13.575  17.864 152.884  1.00 52.11 LIG-0.08  N 
ATOM     57 HZ3  LYS D   4      12.855  17.360 153.025  1.00 52.11 LIG 0.27  HD
ATOM     58 HZ2  LYS D   4      13.786  18.295 153.633  1.00 52.11 LIG 0.27  HD
ATOM     59 HZ1  LYS D   4      14.256  17.346 152.638  1.00 52.11 LIG 0.27  HD
ENDBRANCH 55 56
ENDBRANCH 54 55
ENDBRANCH 53 54
ENDBRANCH 52 53
ENDBRANCH 37 52
ENDBRANCH 35 37
ENDBRANCH 1 33
TORSDOF 24
ENDMDL
MODEL 41
USER: ADFR SOLUTION from run 86
USER: SCORE 17.995194 LL:  -3.752 LR: -17.037 RR:   0.000 FEB:  -9.878
USER: RMSD 7.955344
USER: SEED 85
USER: STATUS no improvement in best in 8 clusters for 5 generations
USER: GENES 26
USER: genes 0 Translation |==|  0.47136 0.47704 0.43616
USER: genes 1 Rotation |==|  0.03070 0.32922 0.50007 0.52426
USER: genes 2 Torsion [CB]-CA--N-[C] |==|  0.52932
USER: genes 3 Torsion [N]-C--CA-[N] |==|  0.71110
USER: genes 4 Torsion [C]-CA--CB-[CG] |==|  0.47730
USER: genes 5 Torsion [CA]-CB--CG-[CD] |==|  0.28718
USER: genes 6 Torsion [CB]-CG--CD-[NE] |==|  0.65192
USER: genes 7 Torsion [CG]-CD--NE-[HE] |==|  0.11446
USER: genes 8 Torsion [C]-CA--N-[C] |==|  0.17095
USER: genes 9 Torsion [N]-C--CA-[N] |==|  0.03492
USER: genes 10 Torsion [C]-CA--N-[H1] |==|  0.84047
USER: genes 11 Torsion [N]-CA--CB-[CG2] |==|  0.64662
USER: genes 12 Torsion [CA]-CB--OG1-[HG1] |==|  0.41049
USER: genes 13 Torsion [N]-CA--C-[N] |==|  0.86301
USER: genes 14 Torsion [C]-N--CA-[CB] |==|  0.46891
USER: genes 15 Torsion [N]-CA--C-[N] |==|  0.43639
USER: genes 16 Torsion [C]-N--CA-[CB] |==|  0.94268
USER: genes 17 Torsion [N]-CA--CB-[CG] |==|  0.22700
USER: genes 18 Torsion [CA]-CB--CG-[CD] |==|  0.62500
USER: genes 19 Torsion [CB]-CG--CD-[OE1] |==|  0.11143
USER: genes 20 Torsion [N]-CA--C-[O] |==|  0.97897
USER: genes 21 Torsion [N]-CA--CB-[CG] |==|  0.51440
USER: genes 22 Torsion [CA]-CB--CG-[CD] |==|  0.71340
USER: genes 23 Torsion [CB]-CG--CD-[CE] |==|  0.61219
USER: genes 24 Torsion [CG]-CD--CE-[NZ] |==|  0.54056
USER: genes 25 Torsion [CD]-CE--NZ-[HZ2] |==|  0.29457
ROOT
ATOM      1  CA  THR D   3      14.653  16.196 147.025  1.00 39.79 LIG 0.20  C 
ENDROOT
BRANCH 1 2
ATOM      2  N   THR D   3      13.546  15.474 147.649  1.00 34.46 LIG-0.34  N 
ATOM      3  C   ARG D   2      12.351  15.380 147.066  1.00 39.53 LIG 0.24  C 
ATOM      4 O    ARG D   2      12.064  15.991 146.034  1.00 39.08 LIG-0.27  OA
ATOM      5 H    THR D   3      13.736  15.124 148.412  1.00 34.46 LIG 0.16  HD
BRANCH 3 6
ATOM      6  CA  ARG D   2      11.311  14.481 147.747  1.00 42.24 LIG 0.18  C 
BRANCH 6 7
ATOM      7  CB  ARG D   2      11.731  14.165 149.184  1.00 49.82 LIG 0.04  C 
BRANCH 7 8
ATOM      8  CG  ARG D   2      10.707  13.443 150.048  1.00 55.24 LIG 0.02  C 
BRANCH 8 9
ATOM      9  CD  ARG D   2      11.082  11.959 150.181  1.00 55.63 LIG 0.14  C 
BRANCH 9 10
ATOM     10  NE  ARG D   2       9.999  11.060 149.779  1.00 65.78 LIG-0.23  N 
ATOM     11 HE   ARG D   2       9.547  11.269 149.078  1.00 65.78 LIG 0.18  HD
ATOM     12  CZ  ARG D   2       9.661   9.942 150.418  1.00 70.57 LIG 0.67  C 
ATOM     13  NH1 ARG D   2      10.315   9.568 151.509  1.00 66.11 LIG-0.23  N 
ATOM     14  NH2 ARG D   2       8.660   9.195 149.969  1.00 74.94 LIG-0.23  N 
ATOM     15 1HH1 ARG D   2      10.962  10.049 151.809  1.00 66.11 LIG 0.17  HD
ATOM     16 2HH1 ARG D   2      10.092   8.845 151.918  1.00 66.11 LIG 0.17  HD
ATOM     17 2HH2 ARG D   2       8.443   8.473 150.383  1.00 74.94 LIG 0.17  HD
ATOM     18 1HH2 ARG D   2       8.229   9.432 149.264  1.00 74.94 LIG 0.17  HD
ENDBRANCH 9 10
ENDBRANCH 8 9
ENDBRANCH 7 8
ENDBRANCH 6 7
BRANCH 6 19
ATOM     19  N   ARG D   2      11.184  13.223 147.016  1.00 42.84 LIG-0.35  N 
ATOM     20  C   ALA D   1      12.197  12.385 146.871  1.00 44.74 LIG 0.25  C 
ATOM     21 O    ALA D   1      13.330  12.636 147.272  1.00 48.31 LIG-0.27  OA
ATOM     22 H    ARG D   2      10.400  13.082 146.693  1.00 42.84 LIG 0.16  HD
BRANCH 20 23
ATOM     23  CA  ALA D   1      11.881  11.070 146.156  1.00 45.19 LIG 0.27  C 
ATOM     24  CB  ALA D   1      12.950  10.757 145.133  1.00 43.32 LIG 0.05  C 
BRANCH 23 25
ATOM     25  N   ALA D   1      10.578  11.133 145.516  1.00 39.75 LIG-0.07  N 
ATOM     26 H1   ALA D   1       9.957  11.321 146.125  1.00 39.75 LIG 0.28  HD
ATOM     27 H2   ALA D   1      10.584  11.769 144.893  1.00 39.75 LIG 0.28  HD
ATOM     28 H3   ALA D   1      10.395  10.349 145.137  1.00 39.75 LIG 0.28  HD
ENDBRANCH 23 25
ENDBRANCH 20 23
ENDBRANCH 6 19
ENDBRANCH 3 6
ENDBRANCH 1 2
BRANCH 1 29
ATOM     29  CB  THR D   3      15.993  15.949 147.754  1.00 46.90 LIG 0.15  C 
ATOM     30  CG2 THR D   3      16.661  17.261 148.119  1.00 44.81 LIG 0.04  C 
BRANCH 29 31
ATOM     31 OG1  THR D   3      15.758  15.196 148.951  1.00 48.09 LIG-0.39  OA
ATOM     32 HG1  THR D   3      16.419  14.701 149.106  1.00 48.09 LIG 0.21  HD
ENDBRANCH 29 31
ENDBRANCH 1 29
BRANCH 1 33
ATOM     33  C   THR D   3      14.813  15.772 145.565  1.00 42.40 LIG 0.24  C 
ATOM     34 O    THR D   3      14.853  16.613 144.661  1.00 40.34 LIG-0.27  OA
ATOM     35  N   LYS D   4      14.849  14.496 145.294  1.00 38.45 LIG-0.35  N 
ATOM     36 H    LYS D   4      14.861  13.870 145.884  1.00 38.45 LIG 0.16  HD
BRANCH 35 37
ATOM     37  CA  LYS D   4      14.874  14.047 143.924  1.00 37.56 LIG 0.18  C 
BRANCH 37 38
ATOM     38  C   LYS D   4      13.570  14.394 143.222  1.00 44.28 LIG 0.24  C 
ATOM     39 O    LYS D   4      12.611  14.591 143.867  1.00 49.08 LIG-0.27  OA
ATOM     40  N   GLN D   5      13.615  14.476 141.904  1.00 53.59 LIG-0.35  N 
ATOM     41 H    GLN D   5      14.381  14.597 141.532  1.00 53.59 LIG 0.16  HD
BRANCH 40 42
ATOM     42  CA  GLN D   5      12.566  14.403 140.845  1.00 61.39 LIG 0.16  C 
BRANCH 42 43
ATOM     43  CB  GLN D   5      11.254  13.719 141.253  1.00 20.00 LIG 0.04  C 
BRANCH 43 44
ATOM     44  CG  GLN D   5      10.292  14.652 142.027  1.00 20.00 LIG 0.10  C 
BRANCH 44 45
ATOM     45  CD  GLN D   5       9.631  14.063 143.273  1.00 20.00 LIG 0.21  C 
ATOM     46  NE2 GLN D   5       8.346  14.350 143.443  1.00 20.00 LIG-0.37  N 
ATOM     47 21HE GLN D   5       7.941  14.858 142.880  1.00 20.00 LIG 0.16  HD
ATOM     48 22HE GLN D   5       7.920  14.028 144.116  1.00 20.00 LIG 0.16  HD
ATOM     49 OE1  GLN D   5      10.255  13.340 144.053  1.00 20.00 LIG-0.27  OA
ENDBRANCH 44 45
ENDBRANCH 43 44
ENDBRANCH 42 43
BRANCH 42 50
ATOM     50  C   GLN D   5      12.283  15.528 139.879  1.00 64.61 LIG 0.22  C 
ATOM     51 O    GLN D   5      12.806  16.597 140.007  1.00 68.60 LIG-0.29  OA
ENDBRANCH 42 50
ENDBRANCH 40 42
ENDBRANCH 37 38
BRANCH 37 52
ATOM     52  CB  LYS D   4      15.190  12.568 143.866  1.00 33.42 LIG 0.04  C 
BRANCH 52 53
ATOM     53  CG  LYS D   4      15.356  12.039 142.518  1.00 40.53 LIG 0.00  C 
BRANCH 53 54
ATOM     54  CD  LYS D   4      14.180  11.310 142.133  1.00 50.17 LIG 0.03  C 
BRANCH 54 55
ATOM     55  CE  LYS D   4      14.531  10.057 141.383  1.00 57.03 LIG 0.23  C 
BRANCH 55 56
ATOM     56  NZ  LYS D   4      13.315   9.568 140.734  1.00 52.11 LIG-0.08  N 
ATOM     57 HZ3  LYS D   4      13.237   8.692 140.870  1.00 52.11 LIG 0.27  HD
ATOM     58 HZ2  LYS D   4      13.360   9.730 139.860  1.00 52.11 LIG 0.27  HD
ATOM     59 HZ1  LYS D   4      12.607   9.985 141.076  1.00 52.11 LIG 0.27  HD
ENDBRANCH 55 56
ENDBRANCH 54 55
ENDBRANCH 53 54
ENDBRANCH 52 53
ENDBRANCH 37 52
ENDBRANCH 35 37
ENDBRANCH 1 33
TORSDOF 24
ENDMDL
MODEL 42
USER: ADFR SOLUTION from run 7
USER: SCORE 18.583535 LL:  -2.609 LR: -16.987 RR:   0.000 FEB:  -9.828
USER: RMSD 5.614806
USER: SEED 845988
USER: STATUS searching
USER: GENES 26
USER: genes 0 Translation |==|  0.54182 0.44907 0.48339
USER: genes 1 Rotation |==|  0.41885 0.42312 0.70746 0.94098
USER: genes 2 Torsion [CB]-CA--N-[C] |==|  0.86013
USER: genes 3 Torsion [N]-C--CA-[N] |==|  0.40750
USER: genes 4 Torsion [C]-CA--CB-[CG] |==|  0.46263
USER: genes 5 Torsion [CA]-CB--CG-[CD] |==|  0.27621
USER: genes 6 Torsion [CB]-CG--CD-[NE] |==|  0.12298
USER: genes 7 Torsion [CG]-CD--NE-[HE] |==|  0.15187
USER: genes 8 Torsion [C]-CA--N-[C] |==|  0.79993
USER: genes 9 Torsion [N]-C--CA-[N] |==|  0.22890
USER: genes 10 Torsion [C]-CA--N-[H1] |==|  0.68814
USER: genes 11 Torsion [N]-CA--CB-[CG2] |==|  0.35035
USER: genes 12 Torsion [CA]-CB--OG1-[HG1] |==|  0.84634
USER: genes 13 Torsion [N]-CA--C-[N] |==|  0.37670
USER: genes 14 Torsion [C]-N--CA-[CB] |==|  0.22683
USER: genes 15 Torsion [N]-CA--C-[N] |==|  0.79384
USER: genes 16 Torsion [C]-N--CA-[CB] |==|  0.79453
USER: genes 17 Torsion [N]-CA--CB-[CG] |==|  0.76663
USER: genes 18 Torsion [CA]-CB--CG-[CD] |==|  0.18960
USER: genes 19 Torsion [CB]-CG--CD-[OE1] |==|  0.64820
USER: genes 20 Torsion [N]-CA--C-[O] |==|  0.87742
USER: genes 21 Torsion [N]-CA--CB-[CG] |==|  0.68494
USER: genes 22 Torsion [CA]-CB--CG-[CD] |==|  0.46451
USER: genes 23 Torsion [CB]-CG--CD-[CE] |==|  0.20292
USER: genes 24 Torsion [CG]-CD--CE-[NZ] |==|  0.54322
USER: genes 25 Torsion [CD]-CE--NZ-[HZ2] |==|  0.54886
ROOT
ATOM      1  CA  THR D   3      15.974  15.587 148.123  1.00 39.79 LIG 0.20  C 
ENDROOT
BRANCH 1 2
ATOM      2  N   THR D   3      15.600  14.344 147.451  1.00 34.46 LIG-0.34  N 
ATOM      3  C   ARG D   2      14.602  14.295 146.570  1.00 39.53 LIG 0.24  C 
ATOM      4 O    ARG D   2      13.855  15.252 146.356  1.00 39.08 LIG-0.27  OA
ATOM      5 H    THR D   3      16.077  13.663 147.675  1.00 34.46 LIG 0.16  HD
BRANCH 3 6
ATOM      6  CA  ARG D   2      14.393  12.969 145.826  1.00 42.24 LIG 0.18  C 
BRANCH 6 7
ATOM      7  CB  ARG D   2      15.139  12.979 144.489  1.00 49.82 LIG 0.04  C 
BRANCH 7 8
ATOM      8  CG  ARG D   2      15.291  11.637 143.788  1.00 55.24 LIG 0.02  C 
BRANCH 8 9
ATOM      9  CD  ARG D   2      14.232  11.496 142.683  1.00 55.63 LIG 0.14  C 
BRANCH 9 10
ATOM     10  NE  ARG D   2      14.086  12.709 141.876  1.00 65.78 LIG-0.23  N 
ATOM     11 HE   ARG D   2      14.793  13.029 141.506  1.00 65.78 LIG 0.18  HD
ATOM     12  CZ  ARG D   2      12.940  13.355 141.673  1.00 70.57 LIG 0.67  C 
ATOM     13  NH1 ARG D   2      11.816  12.917 142.222  1.00 66.11 LIG-0.23  N 
ATOM     14  NH2 ARG D   2      12.916  14.449 140.921  1.00 74.94 LIG-0.23  N 
ATOM     15 1HH1 ARG D   2      11.823  12.211 142.713  1.00 66.11 LIG 0.17  HD
ATOM     16 2HH1 ARG D   2      11.078  13.338 142.087  1.00 66.11 LIG 0.17  HD
ATOM     17 2HH2 ARG D   2      12.175  14.865 140.791  1.00 74.94 LIG 0.17  HD
ATOM     18 1HH2 ARG D   2      13.642  14.741 140.565  1.00 74.94 LIG 0.17  HD
ENDBRANCH 9 10
ENDBRANCH 8 9
ENDBRANCH 7 8
ENDBRANCH 6 7
BRANCH 6 19
ATOM     19  N   ARG D   2      12.972  12.766 145.559  1.00 42.84 LIG-0.35  N 
ATOM     20  C   ALA D   1      12.109  12.462 146.516  1.00 44.74 LIG 0.25  C 
ATOM     21 O    ALA D   1      12.451  12.253 147.677  1.00 48.31 LIG-0.27  OA
ATOM     22 H    ARG D   2      12.752  12.862 144.734  1.00 42.84 LIG 0.16  HD
BRANCH 20 23
ATOM     23  CA  ALA D   1      10.643  12.370 146.091  1.00 45.19 LIG 0.27  C 
ATOM     24  CB  ALA D   1       9.735  12.620 147.274  1.00 43.32 LIG 0.05  C 
BRANCH 23 25
ATOM     25  N   ALA D   1      10.357  11.070 145.508  1.00 39.75 LIG-0.07  N 
ATOM     26 H1   ALA D   1      10.183  11.165 144.640  1.00 39.75 LIG 0.28  HD
ATOM     27 H2   ALA D   1      11.063  10.537 145.611  1.00 39.75 LIG 0.28  HD
ATOM     28 H3   ALA D   1       9.652  10.710 145.914  1.00 39.75 LIG 0.28  HD
ENDBRANCH 23 25
ENDBRANCH 20 23
ENDBRANCH 6 19
ENDBRANCH 3 6
ENDBRANCH 1 2
BRANCH 1 29
ATOM     29  CB  THR D   3      16.170  16.751 147.125  1.00 46.90 LIG 0.15  C 
ATOM     30  CG2 THR D   3      15.320  17.947 147.513  1.00 44.81 LIG 0.04  C 
BRANCH 29 31
ATOM     31 OG1  THR D   3      17.549  17.145 147.109  1.00 48.09 LIG-0.39  OA
ATOM     32 HG1  THR D   3      17.796  17.334 147.890  1.00 48.09 LIG 0.21  HD
ENDBRANCH 29 31
ENDBRANCH 1 29
BRANCH 1 33
ATOM     33  C   THR D   3      14.902  15.993 149.133  1.00 42.40 LIG 0.24  C 
ATOM     34 O    THR D   3      13.705  15.988 148.826  1.00 40.34 LIG-0.27  OA
ATOM     35  N   LYS D   4      15.288  16.400 150.312  1.00 38.45 LIG-0.35  N 
ATOM     36 H    LYS D   4      16.102  16.391 150.591  1.00 38.45 LIG 0.16  HD
BRANCH 35 37
ATOM     37  CA  LYS D   4      14.324  16.910 151.254  1.00 37.56 LIG 0.18  C 
BRANCH 37 38
ATOM     38  C   LYS D   4      14.979  17.888 152.217  1.00 44.28 LIG 0.24  C 
ATOM     39 O    LYS D   4      14.754  19.034 152.106  1.00 49.08 LIG-0.27  OA
ATOM     40  N   GLN D   5      15.754  17.365 153.151  1.00 53.59 LIG-0.35  N 
ATOM     41 H    GLN D   5      15.651  16.533 153.344  1.00 53.59 LIG 0.16  HD
BRANCH 40 42
ATOM     42  CA  GLN D   5      16.841  17.930 154.003  1.00 61.39 LIG 0.16  C 
BRANCH 42 43
ATOM     43  CB  GLN D   5      18.175  18.198 153.292  1.00 20.00 LIG 0.04  C 
BRANCH 43 44
ATOM     44  CG  GLN D   5      19.081  16.946 153.199  1.00 20.00 LIG 0.10  C 
BRANCH 44 45
ATOM     45  CD  GLN D   5      18.592  15.822 152.286  1.00 20.00 LIG 0.21  C 
ATOM     46  NE2 GLN D   5      18.328  16.163 151.031  1.00 20.00 LIG-0.37  N 
ATOM     47 21HE GLN D   5      18.414  16.981 150.780  1.00 20.00 LIG 0.16  HD
ATOM     48 22HE GLN D   5      18.069  15.567 150.469  1.00 20.00 LIG 0.16  HD
ATOM     49 OE1  GLN D   5      18.482  14.662 152.692  1.00 20.00 LIG-0.27  OA
ENDBRANCH 44 45
ENDBRANCH 43 44
ENDBRANCH 42 43
BRANCH 42 50
ATOM     50  C   GLN D   5      16.603  18.977 155.064  1.00 64.61 LIG 0.22  C 
ATOM     51 O    GLN D   5      15.899  19.921 154.853  1.00 68.60 LIG-0.29  OA
ENDBRANCH 42 50
ENDBRANCH 40 42
ENDBRANCH 37 38
BRANCH 37 52
ATOM     52  CB  LYS D   4      13.636  15.765 151.967  1.00 33.42 LIG 0.04  C 
BRANCH 52 53
ATOM     53  CG  LYS D   4      12.217  15.630 151.662  1.00 40.53 LIG 0.00  C 
BRANCH 53 54
ATOM     54  CD  LYS D   4      11.735  14.365 152.139  1.00 50.17 LIG 0.03  C 
BRANCH 54 55
ATOM     55  CE  LYS D   4      11.617  14.349 153.637  1.00 57.03 LIG 0.23  C 
BRANCH 55 56
ATOM     56  NZ  LYS D   4      11.491  12.956 154.062  1.00 52.11 LIG-0.08  N 
ATOM     57 HZ3  LYS D   4      10.936  12.527 153.514  1.00 52.11 LIG 0.27  HD
ATOM     58 HZ2  LYS D   4      11.169  12.927 154.891  1.00 52.11 LIG 0.27  HD
ATOM     59 HZ1  LYS D   4      12.290  12.565 154.040  1.00 52.11 LIG 0.27  HD
ENDBRANCH 55 56
ENDBRANCH 54 55
ENDBRANCH 53 54
ENDBRANCH 52 53
ENDBRANCH 37 52
ENDBRANCH 35 37
ENDBRANCH 1 33
TORSDOF 24
ENDMDL
MODEL 43
USER: ADFR SOLUTION from run 10
USER: SCORE 19.337345 LL:  -3.127 LR: -16.969 RR:   0.000 FEB:  -9.810
USER: RMSD 5.650611
USER: SEED 981969
USER: STATUS no improvement in best in 8 clusters for 5 generations
USER: GENES 26
USER: genes 0 Translation |==|  0.43764 0.30706 0.42026
USER: genes 1 Rotation |==|  0.21419 0.66592 0.45409 0.87239
USER: genes 2 Torsion [CB]-CA--N-[C] |==|  0.56378
USER: genes 3 Torsion [N]-C--CA-[N] |==|  0.96707
USER: genes 4 Torsion [C]-CA--CB-[CG] |==|  0.43144
USER: genes 5 Torsion [CA]-CB--CG-[CD] |==|  0.32503
USER: genes 6 Torsion [CB]-CG--CD-[NE] |==|  0.13011
USER: genes 7 Torsion [CG]-CD--NE-[HE] |==|  0.19721
USER: genes 8 Torsion [C]-CA--N-[C] |==|  0.76728
USER: genes 9 Torsion [N]-C--CA-[N] |==|  0.81504
USER: genes 10 Torsion [C]-CA--N-[H1] |==|  0.46931
USER: genes 11 Torsion [N]-CA--CB-[CG2] |==|  0.53162
USER: genes 12 Torsion [CA]-CB--OG1-[HG1] |==|  0.91194
USER: genes 13 Torsion [N]-CA--C-[N] |==|  0.34597
USER: genes 14 Torsion [C]-N--CA-[CB] |==|  0.87661
USER: genes 15 Torsion [N]-CA--C-[N] |==|  0.38740
USER: genes 16 Torsion [C]-N--CA-[CB] |==|  0.34685
USER: genes 17 Torsion [N]-CA--CB-[CG] |==|  0.81749
USER: genes 18 Torsion [CA]-CB--CG-[CD] |==|  0.18282
USER: genes 19 Torsion [CB]-CG--CD-[OE1] |==|  0.58194
USER: genes 20 Torsion [N]-CA--C-[O] |==|  0.95025
USER: genes 21 Torsion [N]-CA--CB-[CG] |==|  0.32346
USER: genes 22 Torsion [CA]-CB--CG-[CD] |==|  0.41976
USER: genes 23 Torsion [CB]-CG--CD-[CE] |==|  0.68026
USER: genes 24 Torsion [CG]-CD--CE-[NZ] |==|  0.20790
USER: genes 25 Torsion [CD]-CE--NZ-[HZ2] |==|  0.72720
ROOT
ATOM      1  CA  THR D   3      14.021  12.498 146.655  1.00 39.79 LIG 0.20  C 
ENDROOT
BRANCH 1 2
ATOM      2  N   THR D   3      12.699  12.579 147.274  1.00 34.46 LIG-0.34  N 
ATOM      3  C   ARG D   2      12.394  13.531 148.156  1.00 39.53 LIG 0.24  C 
ATOM      4 O    ARG D   2      13.230  14.321 148.599  1.00 39.08 LIG-0.27  OA
ATOM      5 H    THR D   3      12.150  11.968 147.019  1.00 34.46 LIG 0.16  HD
BRANCH 3 6
ATOM      6  CA  ARG D   2      10.936  13.600 148.631  1.00 42.24 LIG 0.18  C 
BRANCH 6 7
ATOM      7  CB  ARG D   2      10.818  13.112 150.077  1.00 49.82 LIG 0.04  C 
BRANCH 7 8
ATOM      8  CG  ARG D   2       9.632  13.634 150.874  1.00 55.24 LIG 0.02  C 
BRANCH 8 9
ATOM      9  CD  ARG D   2       8.712  12.470 151.276  1.00 55.63 LIG 0.14  C 
BRANCH 9 10
ATOM     10  NE  ARG D   2       9.446  11.331 151.832  1.00 65.78 LIG-0.23  N 
ATOM     11 HE   ARG D   2       9.793  11.425 152.613  1.00 65.78 LIG 0.18  HD
ATOM     12  CZ  ARG D   2       9.616  10.163 151.218  1.00 70.57 LIG 0.67  C 
ATOM     13  NH1 ARG D   2       9.112   9.959 150.009  1.00 66.11 LIG-0.23  N 
ATOM     14  NH2 ARG D   2      10.299   9.192 151.812  1.00 74.94 LIG-0.23  N 
ATOM     15 1HH1 ARG D   2       8.671  10.584 149.616  1.00 66.11 LIG 0.17  HD
ATOM     16 2HH1 ARG D   2       9.225   9.202 149.617  1.00 66.11 LIG 0.17  HD
ATOM     17 2HH2 ARG D   2      10.409   8.438 151.413  1.00 74.94 LIG 0.17  HD
ATOM     18 1HH2 ARG D   2      10.633   9.318 152.594  1.00 74.94 LIG 0.17  HD
ENDBRANCH 9 10
ENDBRANCH 8 9
ENDBRANCH 7 8
ENDBRANCH 6 7
BRANCH 6 19
ATOM     19  N   ARG D   2      10.097  12.753 147.788  1.00 42.84 LIG-0.35  N 
ATOM     20  C   ALA D   1       9.606  13.171 146.632  1.00 44.74 LIG 0.25  C 
ATOM     21 O    ALA D   1       9.755  14.319 146.223  1.00 48.31 LIG-0.27  OA
ATOM     22 H    ARG D   2       9.954  11.969 148.109  1.00 42.84 LIG 0.16  HD
BRANCH 20 23
ATOM     23  CA  ALA D   1       8.820  12.137 145.825  1.00 45.19 LIG 0.27  C 
ATOM     24  CB  ALA D   1       7.693  11.566 146.657  1.00 43.32 LIG 0.05  C 
BRANCH 23 25
ATOM     25  N   ALA D   1       9.693  11.070 145.367  1.00 39.75 LIG-0.07  N 
ATOM     26 H1   ALA D   1       9.202  10.403 145.042  1.00 39.75 LIG 0.28  HD
ATOM     27 H2   ALA D   1      10.230  11.380 144.729  1.00 39.75 LIG 0.28  HD
ATOM     28 H3   ALA D   1      10.183  10.773 146.048  1.00 39.75 LIG 0.28  HD
ENDBRANCH 23 25
ENDBRANCH 20 23
ENDBRANCH 6 19
ENDBRANCH 3 6
ENDBRANCH 1 2
BRANCH 1 29
ATOM     29  CB  THR D   3      13.989  11.734 145.312  1.00 46.90 LIG 0.15  C 
ATOM     30  CG2 THR D   3      15.394  11.422 144.832  1.00 44.81 LIG 0.04  C 
BRANCH 29 31
ATOM     31 OG1  THR D   3      13.268  10.505 145.475  1.00 48.09 LIG-0.39  OA
ATOM     32 HG1  THR D   3      13.375  10.218 146.257  1.00 48.09 LIG 0.21  HD
ENDBRANCH 29 31
ENDBRANCH 1 29
BRANCH 1 33
ATOM     33  C   THR D   3      14.580  13.898 146.400  1.00 42.40 LIG 0.24  C 
ATOM     34 O    THR D   3      13.968  14.707 145.696  1.00 40.34 LIG-0.27  OA
ATOM     35  N   LYS D   4      15.747  14.196 146.902  1.00 38.45 LIG-0.35  N 
ATOM     36 H    LYS D   4      16.199  13.686 147.427  1.00 38.45 LIG 0.16  HD
BRANCH 35 37
ATOM     37  CA  LYS D   4      16.370  15.457 146.587  1.00 37.56 LIG 0.18  C 
BRANCH 37 38
ATOM     38  C   LYS D   4      15.795  16.570 147.450  1.00 44.28 LIG 0.24  C 
ATOM     39 O    LYS D   4      14.645  16.576 147.679  1.00 49.08 LIG-0.27  OA
ATOM     40  N   GLN D   5      16.655  17.461 147.913  1.00 53.59 LIG-0.35  N 
ATOM     41 H    GLN D   5      17.487  17.243 147.941  1.00 53.59 LIG 0.16  HD
BRANCH 40 42
ATOM     42  CA  GLN D   5      16.498  18.850 148.432  1.00 61.39 LIG 0.16  C 
BRANCH 42 43
ATOM     43  CB  GLN D   5      17.065  19.106 149.836  1.00 20.00 LIG 0.04  C 
BRANCH 43 44
ATOM     44  CG  GLN D   5      16.322  18.326 150.947  1.00 20.00 LIG 0.10  C 
BRANCH 44 45
ATOM     45  CD  GLN D   5      16.444  16.803 150.905  1.00 20.00 LIG 0.21  C 
ATOM     46  NE2 GLN D   5      17.579  16.322 150.412  1.00 20.00 LIG-0.37  N 
ATOM     47 21HE GLN D   5      18.183  16.860 150.121  1.00 20.00 LIG 0.16  HD
ATOM     48 22HE GLN D   5      17.710  15.473 150.384  1.00 20.00 LIG 0.16  HD
ATOM     49 OE1  GLN D   5      15.548  16.072 151.333  1.00 20.00 LIG-0.27  OA
ENDBRANCH 44 45
ENDBRANCH 43 44
ENDBRANCH 42 43
BRANCH 42 50
ATOM     50  C   GLN D   5      16.670  20.080 147.575  1.00 64.61 LIG 0.22  C 
ATOM     51 O    GLN D   5      17.243  20.026 146.526  1.00 68.60 LIG-0.29  OA
ENDBRANCH 42 50
ENDBRANCH 40 42
ENDBRANCH 37 38
BRANCH 37 52
ATOM     52  CB  LYS D   4      16.245  15.745 145.107  1.00 33.42 LIG 0.04  C 
BRANCH 52 53
ATOM     53  CG  LYS D   4      15.454  16.927 144.787  1.00 40.53 LIG 0.00  C 
BRANCH 53 54
ATOM     54  CD  LYS D   4      15.913  17.500 143.553  1.00 50.17 LIG 0.03  C 
BRANCH 54 55
ATOM     55  CE  LYS D   4      16.498  18.867 143.764  1.00 57.03 LIG 0.23  C 
BRANCH 55 56
ATOM     56  NZ  LYS D   4      17.815  18.701 144.378  1.00 52.11 LIG-0.08  N 
ATOM     57 HZ3  LYS D   4      18.120  17.881 144.211  1.00 52.11 LIG 0.27  HD
ATOM     58 HZ2  LYS D   4      17.749  18.818 145.258  1.00 52.11 LIG 0.27  HD
ATOM     59 HZ1  LYS D   4      18.378  19.301 144.040  1.00 52.11 LIG 0.27  HD
ENDBRANCH 55 56
ENDBRANCH 54 55
ENDBRANCH 53 54
ENDBRANCH 52 53
ENDBRANCH 37 52
ENDBRANCH 35 37
ENDBRANCH 1 33
TORSDOF 24
ENDMDL
MODEL 44
USER: ADFR SOLUTION from run 191
USER: SCORE 18.192289 LL:  -2.465 LR: -16.970 RR:   0.000 FEB:  -9.811
USER: RMSD 4.250053
USER: SEED 190
USER: STATUS searching
USER: GENES 26
USER: genes 0 Translation |==|  0.59395 0.47031 0.41492
USER: genes 1 Rotation |==|  0.43523 0.52040 0.76047 0.92136
USER: genes 2 Torsion [CB]-CA--N-[C] |==|  0.87778
USER: genes 3 Torsion [N]-C--CA-[N] |==|  0.38838
USER: genes 4 Torsion [C]-CA--CB-[CG] |==|  0.52744
USER: genes 5 Torsion [CA]-CB--CG-[CD] |==|  0.30442
USER: genes 6 Torsion [CB]-CG--CD-[NE] |==|  0.11330
USER: genes 7 Torsion [CG]-CD--NE-[HE] |==|  0.12142
USER: genes 8 Torsion [C]-CA--N-[C] |==|  0.85953
USER: genes 9 Torsion [N]-C--CA-[N] |==|  0.20169
USER: genes 10 Torsion [C]-CA--N-[H1] |==|  0.27785
USER: genes 11 Torsion [N]-CA--CB-[CG2] |==|  0.37436
USER: genes 12 Torsion [CA]-CB--OG1-[HG1] |==|  0.74894
USER: genes 13 Torsion [N]-CA--C-[N] |==|  0.39288
USER: genes 14 Torsion [C]-N--CA-[CB] |==|  0.25277
USER: genes 15 Torsion [N]-CA--C-[N] |==|  0.03170
USER: genes 16 Torsion [C]-N--CA-[CB] |==|  0.70689
USER: genes 17 Torsion [N]-CA--CB-[CG] |==|  0.87646
USER: genes 18 Torsion [CA]-CB--CG-[CD] |==|  0.67552
USER: genes 19 Torsion [CB]-CG--CD-[OE1] |==|  0.87832
USER: genes 20 Torsion [N]-CA--C-[O] |==|  0.27491
USER: genes 21 Torsion [N]-CA--CB-[CG] |==|  0.22090
USER: genes 22 Torsion [CA]-CB--CG-[CD] |==|  0.56225
USER: genes 23 Torsion [CB]-CG--CD-[CE] |==|  0.62358
USER: genes 24 Torsion [CG]-CD--CE-[NZ] |==|  0.54894
USER: genes 25 Torsion [CD]-CE--NZ-[HZ2] |==|  0.36650
ROOT
ATOM      1  CA  THR D   3      16.952  16.049 146.531  1.00 39.79 LIG 0.20  C 
ENDROOT
BRANCH 1 2
ATOM      2  N   THR D   3      16.601  14.668 146.206  1.00 34.46 LIG-0.34  N 
ATOM      3  C   ARG D   2      15.418  14.348 145.684  1.00 39.53 LIG 0.24  C 
ATOM      4 O    ARG D   2      14.503  15.165 145.558  1.00 39.08 LIG-0.27  OA
ATOM      5 H    THR D   3      17.219  14.095 146.380  1.00 34.46 LIG 0.16  HD
BRANCH 3 6
ATOM      6  CA  ARG D   2      15.216  12.888 145.255  1.00 42.24 LIG 0.18  C 
BRANCH 6 7
ATOM      7  CB  ARG D   2      15.385  12.745 143.740  1.00 49.82 LIG 0.04  C 
BRANCH 7 8
ATOM      8  CG  ARG D   2      14.988  11.406 143.137  1.00 55.24 LIG 0.02  C 
BRANCH 8 9
ATOM      9  CD  ARG D   2      13.706  11.562 142.304  1.00 55.63 LIG 0.14  C 
BRANCH 9 10
ATOM     10  NE  ARG D   2      13.689  12.792 141.510  1.00 65.78 LIG-0.23  N 
ATOM     11 HE   ARG D   2      14.409  13.007 141.093  1.00 65.78 LIG 0.18  HD
ATOM     12  CZ  ARG D   2      12.642  13.604 141.387  1.00 70.57 LIG 0.67  C 
ATOM     13  NH1 ARG D   2      11.505  13.333 142.012  1.00 66.11 LIG-0.23  N 
ATOM     14  NH2 ARG D   2      12.731  14.698 140.641  1.00 74.94 LIG-0.23  N 
ATOM     15 1HH1 ARG D   2      11.440  12.629 142.501  1.00 66.11 LIG 0.17  HD
ATOM     16 2HH1 ARG D   2      10.831  13.862 141.929  1.00 66.11 LIG 0.17  HD
ATOM     17 2HH2 ARG D   2      12.053  15.222 140.563  1.00 74.94 LIG 0.17  HD
ATOM     18 1HH2 ARG D   2      13.466  14.883 140.235  1.00 74.94 LIG 0.17  HD
ENDBRANCH 9 10
ENDBRANCH 8 9
ENDBRANCH 7 8
ENDBRANCH 6 7
BRANCH 6 19
ATOM     19  N   ARG D   2      13.872  12.445 145.613  1.00 42.84 LIG-0.35  N 
ATOM     20  C   ALA D   1      13.375  12.604 146.829  1.00 44.74 LIG 0.25  C 
ATOM     21 O    ALA D   1      14.032  13.063 147.760  1.00 48.31 LIG-0.27  OA
ATOM     22 H    ARG D   2      13.440  12.076 144.968  1.00 42.84 LIG 0.16  HD
BRANCH 20 23
ATOM     23  CA  ALA D   1      11.922  12.167 147.022  1.00 45.19 LIG 0.27  C 
ATOM     24  CB  ALA D   1      11.372  12.724 148.316  1.00 43.32 LIG 0.05  C 
BRANCH 23 25
ATOM     25  N   ALA D   1      11.815  10.718 147.015  1.00 39.75 LIG-0.07  N 
ATOM     26 H1   ALA D   1      11.761  10.421 147.852  1.00 39.75 LIG 0.28  HD
ATOM     27 H2   ALA D   1      11.085  10.477 146.567  1.00 39.75 LIG 0.28  HD
ATOM     28 H3   ALA D   1      12.533  10.369 146.622  1.00 39.75 LIG 0.28  HD
ENDBRANCH 23 25
ENDBRANCH 20 23
ENDBRANCH 6 19
ENDBRANCH 3 6
ENDBRANCH 1 2
BRANCH 1 29
ATOM     29  CB  THR D   3      16.538  17.033 145.413  1.00 46.90 LIG 0.15  C 
ATOM     30  CG2 THR D   3      15.863  18.261 145.994  1.00 44.81 LIG 0.04  C 
BRANCH 29 31
ATOM     31 OG1  THR D   3      17.698  17.442 144.678  1.00 48.09 LIG-0.39  OA
ATOM     32 HG1  THR D   3      18.023  18.133 145.028  1.00 48.09 LIG 0.21  HD
ENDBRANCH 29 31
ENDBRANCH 1 29
BRANCH 1 33
ATOM     33  C   THR D   3      16.273  16.482 147.830  1.00 42.40 LIG 0.24  C 
ATOM     34 O    THR D   3      15.102  16.170 148.069  1.00 40.34 LIG-0.27  OA
ATOM     35  N   LYS D   4      16.946  17.238 148.654  1.00 38.45 LIG-0.35  N 
ATOM     36 H    LYS D   4      17.772  17.455 148.556  1.00 38.45 LIG 0.16  HD
BRANCH 35 37
ATOM     37  CA  LYS D   4      16.308  17.773 149.831  1.00 37.56 LIG 0.18  C 
BRANCH 37 38
ATOM     38  C   LYS D   4      16.820  19.174 150.130  1.00 44.28 LIG 0.24  C 
ATOM     39 O    LYS D   4      16.576  19.661 151.168  1.00 49.08 LIG-0.27  OA
ATOM     40  N   GLN D   5      17.545  19.750 149.186  1.00 53.59 LIG-0.35  N 
ATOM     41 H    GLN D   5      17.910  19.246 148.592  1.00 53.59 LIG 0.16  HD
BRANCH 40 42
ATOM     42  CA  GLN D   5      17.895  21.171 148.899  1.00 61.39 LIG 0.16  C 
BRANCH 42 43
ATOM     43  CB  GLN D   5      17.162  21.812 147.712  1.00 20.00 LIG 0.04  C 
BRANCH 43 44
ATOM     44  CG  GLN D   5      17.098  20.897 146.466  1.00 20.00 LIG 0.10  C 
BRANCH 44 45
ATOM     45  CD  GLN D   5      17.815  21.403 145.215  1.00 20.00 LIG 0.21  C 
ATOM     46  NE2 GLN D   5      18.514  20.499 144.538  1.00 20.00 LIG-0.37  N 
ATOM     47 21HE GLN D   5      18.560  19.689 144.823  1.00 20.00 LIG 0.16  HD
ATOM     48 22HE GLN D   5      18.921  20.724 143.815  1.00 20.00 LIG 0.16  HD
ATOM     49 OE1  GLN D   5      17.721  22.576 144.847  1.00 20.00 LIG-0.27  OA
ENDBRANCH 44 45
ENDBRANCH 43 44
ENDBRANCH 42 43
BRANCH 42 50
ATOM     50  C   GLN D   5      18.131  22.201 149.978  1.00 64.61 LIG 0.22  C 
ATOM     51 O    GLN D   5      19.239  22.492 150.321  1.00 68.60 LIG-0.29  OA
ENDBRANCH 42 50
ENDBRANCH 40 42
ENDBRANCH 37 38
BRANCH 37 52
ATOM     52  CB  LYS D   4      16.490  16.827 150.998  1.00 33.42 LIG 0.04  C 
BRANCH 52 53
ATOM     53  CG  LYS D   4      17.793  16.910 151.645  1.00 40.53 LIG 0.00  C 
BRANCH 53 54
ATOM     54  CD  LYS D   4      18.067  15.687 152.346  1.00 50.17 LIG 0.03  C 
BRANCH 54 55
ATOM     55  CE  LYS D   4      18.629  15.951 153.714  1.00 57.03 LIG 0.23  C 
BRANCH 55 56
ATOM     56  NZ  LYS D   4      19.263  14.720 154.184  1.00 52.11 LIG-0.08  N 
ATOM     57 HZ3  LYS D   4      18.768  14.359 154.829  1.00 52.11 LIG 0.27  HD
ATOM     58 HZ2  LYS D   4      20.074  14.906 154.501  1.00 52.11 LIG 0.27  HD
ATOM     59 HZ1  LYS D   4      19.333  14.146 153.508  1.00 52.11 LIG 0.27  HD
ENDBRANCH 55 56
ENDBRANCH 54 55
ENDBRANCH 53 54
ENDBRANCH 52 53
ENDBRANCH 37 52
ENDBRANCH 35 37
ENDBRANCH 1 33
TORSDOF 24
ENDMDL
MODEL 45
USER: ADFR SOLUTION from run 124
USER: SCORE 17.565962 LL:  -1.906 LR: -16.969 RR:   0.000 FEB:  -9.810
USER: RMSD 6.033436
USER: SEED 123
USER: STATUS no improvement in best in 7 clusters for 5 generations
USER: GENES 26
USER: genes 0 Translation |==|  0.59184 0.46542 0.42300
USER: genes 1 Rotation |==|  0.39413 0.48345 0.73283 0.92931
USER: genes 2 Torsion [CB]-CA--N-[C] |==|  0.76826
USER: genes 3 Torsion [N]-C--CA-[N] |==|  0.43923
USER: genes 4 Torsion [C]-CA--CB-[CG] |==|  0.45678
USER: genes 5 Torsion [CA]-CB--CG-[CD] |==|  0.39602
USER: genes 6 Torsion [CB]-CG--CD-[NE] |==|  0.08961
USER: genes 7 Torsion [CG]-CD--NE-[HE] |==|  0.19268
USER: genes 8 Torsion [C]-CA--N-[C] |==|  0.20580
USER: genes 9 Torsion [N]-C--CA-[N] |==|  0.73996
USER: genes 10 Torsion [C]-CA--N-[H1] |==|  0.51275
USER: genes 11 Torsion [N]-CA--CB-[CG2] |==|  0.16428
USER: genes 12 Torsion [CA]-CB--OG1-[HG1] |==|  0.36016
USER: genes 13 Torsion [N]-CA--C-[N] |==|  0.16111
USER: genes 14 Torsion [C]-N--CA-[CB] |==|  0.85815
USER: genes 15 Torsion [N]-CA--C-[N] |==|  0.36344
USER: genes 16 Torsion [C]-N--CA-[CB] |==|  0.65410
USER: genes 17 Torsion [N]-CA--CB-[CG] |==|  0.70330
USER: genes 18 Torsion [CA]-CB--CG-[CD] |==|  0.16676
USER: genes 19 Torsion [CB]-CG--CD-[OE1] |==|  0.98779
USER: genes 20 Torsion [N]-CA--C-[O] |==|  0.07008
USER: genes 21 Torsion [N]-CA--CB-[CG] |==|  0.68883
USER: genes 22 Torsion [CA]-CB--CG-[CD] |==|  0.99967
USER: genes 23 Torsion [CB]-CG--CD-[CE] |==|  0.29233
USER: genes 24 Torsion [CG]-CD--CE-[NZ] |==|  0.86022
USER: genes 25 Torsion [CD]-CE--NZ-[HZ2] |==|  0.10054
ROOT
ATOM      1  CA  THR D   3      16.912  15.943 146.719  1.00 39.79 LIG 0.20  C 
ENDROOT
BRANCH 1 2
ATOM      2  N   THR D   3      16.519  14.573 146.395  1.00 34.46 LIG-0.34  N 
ATOM      3  C   ARG D   2      15.241  14.198 146.361  1.00 39.53 LIG 0.24  C 
ATOM      4 O    ARG D   2      14.321  14.938 146.717  1.00 39.08 LIG-0.27  OA
ATOM      5 H    THR D   3      17.178  14.044 146.233  1.00 34.46 LIG 0.16  HD
BRANCH 3 6
ATOM      6  CA  ARG D   2      14.944  12.774 145.873  1.00 42.24 LIG 0.18  C 
BRANCH 6 7
ATOM      7  CB  ARG D   2      14.925  12.722 144.343  1.00 49.82 LIG 0.04  C 
BRANCH 7 8
ATOM      8  CG  ARG D   2      15.010  11.341 143.710  1.00 55.24 LIG 0.02  C 
BRANCH 8 9
ATOM      9  CD  ARG D   2      14.117  11.278 142.461  1.00 55.63 LIG 0.14  C 
BRANCH 9 10
ATOM     10  NE  ARG D   2      14.029  12.560 141.759  1.00 65.78 LIG-0.23  N 
ATOM     11 HE   ARG D   2      14.734  12.842 141.355  1.00 65.78 LIG 0.18  HD
ATOM     12  CZ  ARG D   2      12.939  13.322 141.700  1.00 70.57 LIG 0.67  C 
ATOM     13  NH1 ARG D   2      11.823  12.947 142.308  1.00 66.11 LIG-0.23  N 
ATOM     14  NH2 ARG D   2      12.965  14.470 141.034  1.00 74.94 LIG-0.23  N 
ATOM     15 1HH1 ARG D   2      11.799  12.207 142.745  1.00 66.11 LIG 0.17  HD
ATOM     16 2HH1 ARG D   2      11.122  13.443 142.267  1.00 66.11 LIG 0.17  HD
ATOM     17 2HH2 ARG D   2      12.260  14.961 140.997  1.00 74.94 LIG 0.17  HD
ATOM     18 1HH2 ARG D   2      13.687  14.722 140.639  1.00 74.94 LIG 0.17  HD
ENDBRANCH 9 10
ENDBRANCH 8 9
ENDBRANCH 7 8
ENDBRANCH 6 7
BRANCH 6 19
ATOM     19  N   ARG D   2      13.639  12.341 146.365  1.00 42.84 LIG-0.35  N 
ATOM     20  C   ALA D   1      12.505  12.801 145.862  1.00 44.74 LIG 0.25  C 
ATOM     21 O    ALA D   1      12.466  13.677 145.002  1.00 48.31 LIG-0.27  OA
ATOM     22 H    ARG D   2      13.677  11.767 147.004  1.00 42.84 LIG 0.16  HD
BRANCH 20 23
ATOM     23  CA  ALA D   1      11.223  12.184 146.424  1.00 45.19 LIG 0.27  C 
ATOM     24  CB  ALA D   1      11.441  11.724 147.848  1.00 43.32 LIG 0.05  C 
BRANCH 23 25
ATOM     25  N   ALA D   1      10.785  11.070 145.600  1.00 39.75 LIG-0.07  N 
ATOM     26 H1   ALA D   1      10.005  10.766 145.903  1.00 39.75 LIG 0.28  HD
ATOM     27 H2   ALA D   1      10.690  11.343 144.759  1.00 39.75 LIG 0.28  HD
ATOM     28 H3   ALA D   1      11.390  10.418 145.634  1.00 39.75 LIG 0.28  HD
ENDBRANCH 23 25
ENDBRANCH 20 23
ENDBRANCH 6 19
ENDBRANCH 3 6
ENDBRANCH 1 2
BRANCH 1 29
ATOM     29  CB  THR D   3      16.847  16.873 145.486  1.00 46.90 LIG 0.15  C 
ATOM     30  CG2 THR D   3      15.444  16.911 144.909  1.00 44.81 LIG 0.04  C 
BRANCH 29 31
ATOM     31 OG1  THR D   3      17.230  18.202 145.865  1.00 48.09 LIG-0.39  OA
ATOM     32 HG1  THR D   3      17.816  18.487 145.334  1.00 48.09 LIG 0.21  HD
ENDBRANCH 29 31
ENDBRANCH 1 29
BRANCH 1 33
ATOM     33  C   THR D   3      16.005  16.517 147.806  1.00 42.40 LIG 0.24  C 
ATOM     34 O    THR D   3      15.393  17.576 147.629  1.00 40.34 LIG-0.27  OA
ATOM     35  N   LYS D   4      15.937  15.888 148.948  1.00 38.45 LIG-0.35  N 
ATOM     36 H    LYS D   4      16.311  15.132 149.113  1.00 38.45 LIG 0.16  HD
BRANCH 35 37
ATOM     37  CA  LYS D   4      15.193  16.457 150.044  1.00 37.56 LIG 0.18  C 
BRANCH 37 38
ATOM     38  C   LYS D   4      13.696  16.324 149.804  1.00 44.28 LIG 0.24  C 
ATOM     39 O    LYS D   4      13.257  16.636 148.762  1.00 49.08 LIG-0.27  OA
ATOM     40  N   GLN D   5      12.981  15.830 150.800  1.00 53.59 LIG-0.35  N 
ATOM     41 H    GLN D   5      13.390  15.375 151.404  1.00 53.59 LIG 0.16  HD
BRANCH 40 42
ATOM     42  CA  GLN D   5      11.529  15.889 151.134  1.00 61.39 LIG 0.16  C 
BRANCH 42 43
ATOM     43  CB  GLN D   5      11.186  16.440 152.525  1.00 20.00 LIG 0.04  C 
BRANCH 43 44
ATOM     44  CG  GLN D   5      10.717  15.349 153.517  1.00 20.00 LIG 0.10  C 
BRANCH 44 45
ATOM     45  CD  GLN D   5      11.711  14.225 153.810  1.00 20.00 LIG 0.21  C 
ATOM     46  NE2 GLN D   5      11.325  13.324 154.705  1.00 20.00 LIG-0.37  N 
ATOM     47 21HE GLN D   5      10.565  13.406 155.097  1.00 20.00 LIG 0.16  HD
ATOM     48 22HE GLN D   5      11.836  12.659 154.893  1.00 20.00 LIG 0.16  HD
ATOM     49 OE1  GLN D   5      12.792  14.151 153.222  1.00 20.00 LIG-0.27  OA
ENDBRANCH 44 45
ENDBRANCH 43 44
ENDBRANCH 42 43
BRANCH 42 50
ATOM     50  C   GLN D   5      10.466  16.296 150.142  1.00 64.61 LIG 0.22  C 
ATOM     51 O    GLN D   5      10.637  16.165 148.966  1.00 68.60 LIG-0.29  OA
ENDBRANCH 42 50
ENDBRANCH 40 42
ENDBRANCH 37 38
BRANCH 37 52
ATOM     52  CB  LYS D   4      15.619  17.890 150.276  1.00 33.42 LIG 0.04  C 
BRANCH 52 53
ATOM     53  CG  LYS D   4      16.329  18.113 151.529  1.00 40.53 LIG 0.00  C 
BRANCH 53 54
ATOM     54  CD  LYS D   4      16.445  16.877 152.250  1.00 50.17 LIG 0.03  C 
BRANCH 54 55
ATOM     55  CE  LYS D   4      17.841  16.326 152.177  1.00 57.03 LIG 0.23  C 
BRANCH 55 56
ATOM     56  NZ  LYS D   4      18.245  16.313 150.772  1.00 52.11 LIG-0.08  N 
ATOM     57 HZ3  LYS D   4      19.133  16.329 150.719  1.00 52.11 LIG 0.27  HD
ATOM     58 HZ2  LYS D   4      17.910  17.027 150.360  1.00 52.11 LIG 0.27  HD
ATOM     59 HZ1  LYS D   4      17.938  15.574 150.381  1.00 52.11 LIG 0.27  HD
ENDBRANCH 55 56
ENDBRANCH 54 55
ENDBRANCH 53 54
ENDBRANCH 52 53
ENDBRANCH 37 52
ENDBRANCH 35 37
ENDBRANCH 1 33
TORSDOF 24
ENDMDL
MODEL 46
USER: ADFR SOLUTION from run 103
USER: SCORE 19.252391 LL:  -3.122 LR: -16.959 RR:   0.000 FEB:  -9.799
USER: RMSD 7.874995
USER: SEED 102
USER: STATUS searching
USER: GENES 26
USER: genes 0 Translation |==|  0.53436 0.48277 0.39536
USER: genes 1 Rotation |==|  0.17704 0.19214 0.39943 0.70201
USER: genes 2 Torsion [CB]-CA--N-[C] |==|  0.17663
USER: genes 3 Torsion [N]-C--CA-[N] |==|  0.65452
USER: genes 4 Torsion [C]-CA--CB-[CG] |==|  0.41222
USER: genes 5 Torsion [CA]-CB--CG-[CD] |==|  0.42185
USER: genes 6 Torsion [CB]-CG--CD-[NE] |==|  0.88299
USER: genes 7 Torsion [CG]-CD--NE-[HE] |==|  0.77636
USER: genes 8 Torsion [C]-CA--N-[C] |==|  0.19154
USER: genes 9 Torsion [N]-C--CA-[N] |==|  0.77960
USER: genes 10 Torsion [C]-CA--N-[H1] |==|  0.83845
USER: genes 11 Torsion [N]-CA--CB-[CG2] |==|  0.16688
USER: genes 12 Torsion [CA]-CB--OG1-[HG1] |==|  0.48576
USER: genes 13 Torsion [N]-CA--C-[N] |==|  0.09018
USER: genes 14 Torsion [C]-N--CA-[CB] |==|  0.84444
USER: genes 15 Torsion [N]-CA--C-[N] |==|  0.35997
USER: genes 16 Torsion [C]-N--CA-[CB] |==|  0.65328
USER: genes 17 Torsion [N]-CA--CB-[CG] |==|  0.77650
USER: genes 18 Torsion [CA]-CB--CG-[CD] |==|  0.07876
USER: genes 19 Torsion [CB]-CG--CD-[OE1] |==|  0.22050
USER: genes 20 Torsion [N]-CA--C-[O] |==|  0.25595
USER: genes 21 Torsion [N]-CA--CB-[CG] |==|  0.35719
USER: genes 22 Torsion [CA]-CB--CG-[CD] |==|  0.68037
USER: genes 23 Torsion [CB]-CG--CD-[CE] |==|  0.37445
USER: genes 24 Torsion [CG]-CD--CE-[NZ] |==|  0.73486
USER: genes 25 Torsion [CD]-CE--NZ-[HZ2] |==|  0.12685
ROOT
ATOM      1  CA  THR D   3      15.834  16.320 146.076  1.00 39.79 LIG 0.20  C 
ENDROOT
BRANCH 1 2
ATOM      2  N   THR D   3      15.573  14.985 145.543  1.00 34.46 LIG-0.34  N 
ATOM      3  C   ARG D   2      15.301  13.952 146.340  1.00 39.53 LIG 0.24  C 
ATOM      4 O    ARG D   2      15.372  14.022 147.569  1.00 39.08 LIG-0.27  OA
ATOM      5 H    THR D   3      15.612  14.932 144.685  1.00 34.46 LIG 0.16  HD
BRANCH 3 6
ATOM      6  CA  ARG D   2      14.906  12.632 145.662  1.00 42.24 LIG 0.18  C 
BRANCH 6 7
ATOM      7  CB  ARG D   2      14.796  12.818 144.147  1.00 49.82 LIG 0.04  C 
BRANCH 7 8
ATOM      8  CG  ARG D   2      15.149  11.613 143.288  1.00 55.24 LIG 0.02  C 
BRANCH 8 9
ATOM      9  CD  ARG D   2      14.373  11.664 141.962  1.00 55.63 LIG 0.14  C 
BRANCH 9 10
ATOM     10  NE  ARG D   2      12.978  12.072 142.134  1.00 65.78 LIG-0.23  N 
ATOM     11 HE   ARG D   2      12.417  11.474 142.393  1.00 65.78 LIG 0.18  HD
ATOM     12  CZ  ARG D   2      12.512  13.300 141.918  1.00 70.57 LIG 0.67  C 
ATOM     13  NH1 ARG D   2      13.324  14.264 141.509  1.00 66.11 LIG-0.23  N 
ATOM     14  NH2 ARG D   2      11.225  13.566 142.105  1.00 74.94 LIG-0.23  N 
ATOM     15 1HH1 ARG D   2      14.159  14.099 141.382  1.00 66.11 LIG 0.17  HD
ATOM     16 2HH1 ARG D   2      13.018  15.056 141.371  1.00 66.11 LIG 0.17  HD
ATOM     17 2HH2 ARG D   2      10.926  14.360 141.964  1.00 74.94 LIG 0.17  HD
ATOM     18 1HH2 ARG D   2      10.691  12.945 142.366  1.00 74.94 LIG 0.17  HD
ENDBRANCH 9 10
ENDBRANCH 8 9
ENDBRANCH 7 8
ENDBRANCH 6 7
BRANCH 6 19
ATOM     19  N   ARG D   2      13.612  12.181 146.167  1.00 42.84 LIG-0.35  N 
ATOM     20  C   ALA D   1      12.485  12.817 145.894  1.00 44.74 LIG 0.25  C 
ATOM     21 O    ALA D   1      12.452  13.871 145.264  1.00 48.31 LIG-0.27  OA
ATOM     22 H    ARG D   2      13.653  11.472 146.651  1.00 42.84 LIG 0.16  HD
BRANCH 20 23
ATOM     23  CA  ALA D   1      11.205  12.169 146.423  1.00 45.19 LIG 0.27  C 
ATOM     24  CB  ALA D   1      11.410  11.677 147.838  1.00 43.32 LIG 0.05  C 
BRANCH 23 25
ATOM     25  N   ALA D   1      10.793  11.070 145.566  1.00 39.75 LIG-0.07  N 
ATOM     26 H1   ALA D   1      10.668  11.370 144.737  1.00 39.75 LIG 0.28  HD
ATOM     27 H2   ALA D   1      11.426  10.444 145.561  1.00 39.75 LIG 0.28  HD
ATOM     28 H3   ALA D   1      10.034  10.722 145.873  1.00 39.75 LIG 0.28  HD
ENDBRANCH 23 25
ENDBRANCH 20 23
ENDBRANCH 6 19
ENDBRANCH 3 6
ENDBRANCH 1 2
BRANCH 1 29
ATOM     29  CB  THR D   3      17.106  16.358 146.953  1.00 46.90 LIG 0.15  C 
ATOM     30  CG2 THR D   3      18.328  15.945 146.154  1.00 44.81 LIG 0.04  C 
BRANCH 29 31
ATOM     31 OG1  THR D   3      17.305  17.686 147.456  1.00 48.09 LIG-0.39  OA
ATOM     32 HG1  THR D   3      17.955  17.691 147.988  1.00 48.09 LIG 0.21  HD
ENDBRANCH 29 31
ENDBRANCH 1 29
BRANCH 1 33
ATOM     33  C   THR D   3      16.002  17.327 144.939  1.00 42.40 LIG 0.24  C 
ATOM     34 O    THR D   3      16.725  18.320 145.071  1.00 40.34 LIG-0.27  OA
ATOM     35  N   LYS D   4      15.318  17.139 143.844  1.00 38.45 LIG-0.35  N 
ATOM     36 H    LYS D   4      14.829  16.450 143.683  1.00 38.45 LIG 0.16  HD
BRANCH 35 37
ATOM     37  CA  LYS D   4      15.347  18.126 142.793  1.00 37.56 LIG 0.18  C 
BRANCH 37 38
ATOM     38  C   LYS D   4      16.717  18.165 142.132  1.00 44.28 LIG 0.24  C 
ATOM     39 O    LYS D   4      17.674  18.231 142.807  1.00 49.08 LIG-0.27  OA
ATOM     40  N   GLN D   5      16.736  18.093 140.812  1.00 53.59 LIG-0.35  N 
ATOM     41 H    GLN D   5      16.045  17.772 140.414  1.00 53.59 LIG 0.16  HD
BRANCH 40 42
ATOM     42  CA  GLN D   5      17.754  18.470 139.789  1.00 61.39 LIG 0.16  C 
BRANCH 42 43
ATOM     43  CB  GLN D   5      17.276  19.436 138.696  1.00 20.00 LIG 0.04  C 
BRANCH 43 44
ATOM     44  CG  GLN D   5      16.479  18.738 137.568  1.00 20.00 LIG 0.10  C 
BRANCH 44 45
ATOM     45  CD  GLN D   5      15.720  17.470 137.958  1.00 20.00 LIG 0.21  C 
ATOM     46  NE2 GLN D   5      16.315  16.320 137.664  1.00 20.00 LIG-0.37  N 
ATOM     47 21HE GLN D   5      17.073  16.320 137.258  1.00 20.00 LIG 0.16  HD
ATOM     48 22HE GLN D   5      15.942  15.576 137.879  1.00 20.00 LIG 0.16  HD
ATOM     49 OE1  GLN D   5      14.633  17.522 138.538  1.00 20.00 LIG-0.27  OA
ENDBRANCH 44 45
ENDBRANCH 43 44
ENDBRANCH 42 43
BRANCH 42 50
ATOM     50  C   GLN D   5      19.201  18.743 140.121  1.00 64.61 LIG 0.22  C 
ATOM     51 O    GLN D   5      20.020  17.872 140.074  1.00 68.60 LIG-0.29  OA
ENDBRANCH 42 50
ENDBRANCH 40 42
ENDBRANCH 37 38
BRANCH 37 52
ATOM     52  CB  LYS D   4      14.925  19.475 143.332  1.00 33.42 LIG 0.04  C 
BRANCH 52 53
ATOM     53  CG  LYS D   4      15.846  20.562 143.029  1.00 40.53 LIG 0.00  C 
BRANCH 53 54
ATOM     54  CD  LYS D   4      16.421  21.067 144.244  1.00 50.17 LIG 0.03  C 
BRANCH 54 55
ATOM     55  CE  LYS D   4      17.904  21.265 144.111  1.00 57.03 LIG 0.23  C 
BRANCH 55 56
ATOM     56  NZ  LYS D   4      18.565  20.070 144.635  1.00 52.11 LIG-0.08  N 
ATOM     57 HZ3  LYS D   4      19.419  20.068 144.383  1.00 52.11 LIG 0.27  HD
ATOM     58 HZ2  LYS D   4      18.160  19.344 144.317  1.00 52.11 LIG 0.27  HD
ATOM     59 HZ1  LYS D   4      18.518  20.070 145.523  1.00 52.11 LIG 0.27  HD
ENDBRANCH 55 56
ENDBRANCH 54 55
ENDBRANCH 53 54
ENDBRANCH 52 53
ENDBRANCH 37 52
ENDBRANCH 35 37
ENDBRANCH 1 33
TORSDOF 24
ENDMDL
MODEL 47
USER: ADFR SOLUTION from run 48
USER: SCORE 18.299924 LL:  -3.041 LR: -16.935 RR:   0.000 FEB:  -9.776
USER: RMSD 7.043875
USER: SEED 47
USER: STATUS no improvement in best in 11 clusters for 5 generations
USER: GENES 26
USER: genes 0 Translation |==|  0.41654 0.29485 0.43557
USER: genes 1 Rotation |==|  0.16227 0.61655 0.47788 0.84909
USER: genes 2 Torsion [CB]-CA--N-[C] |==|  0.52883
USER: genes 3 Torsion [N]-C--CA-[N] |==|  0.91257
USER: genes 4 Torsion [C]-CA--CB-[CG] |==|  0.56306
USER: genes 5 Torsion [CA]-CB--CG-[CD] |==|  0.56299
USER: genes 6 Torsion [CB]-CG--CD-[NE] |==|  0.79567
USER: genes 7 Torsion [CG]-CD--NE-[HE] |==|  0.23724
USER: genes 8 Torsion [C]-CA--N-[C] |==|  0.79558
USER: genes 9 Torsion [N]-C--CA-[N] |==|  0.84087
USER: genes 10 Torsion [C]-CA--N-[H1] |==|  0.77396
USER: genes 11 Torsion [N]-CA--CB-[CG2] |==|  0.15409
USER: genes 12 Torsion [CA]-CB--OG1-[HG1] |==|  0.79898
USER: genes 13 Torsion [N]-CA--C-[N] |==|  0.43400
USER: genes 14 Torsion [C]-N--CA-[CB] |==|  0.49601
USER: genes 15 Torsion [N]-CA--C-[N] |==|  0.91667
USER: genes 16 Torsion [C]-N--CA-[CB] |==|  0.09883
USER: genes 17 Torsion [N]-CA--CB-[CG] |==|  0.53629
USER: genes 18 Torsion [CA]-CB--CG-[CD] |==|  0.19367
USER: genes 19 Torsion [CB]-CG--CD-[OE1] |==|  0.93667
USER: genes 20 Torsion [N]-CA--C-[O] |==|  0.96523
USER: genes 21 Torsion [N]-CA--CB-[CG] |==|  0.72443
USER: genes 22 Torsion [CA]-CB--CG-[CD] |==|  0.05090
USER: genes 23 Torsion [CB]-CG--CD-[CE] |==|  0.48244
USER: genes 24 Torsion [CG]-CD--CE-[NZ] |==|  0.76147
USER: genes 25 Torsion [CD]-CE--NZ-[HZ2] |==|  0.94942
ROOT
ATOM      1  CA  THR D   3      13.625  12.233 147.011  1.00 39.79 LIG 0.20  C 
ENDROOT
BRANCH 1 2
ATOM      2  N   THR D   3      12.284  12.101 147.577  1.00 34.46 LIG-0.34  N 
ATOM      3  C   ARG D   2      11.800  12.986 148.449  1.00 39.53 LIG 0.24  C 
ATOM      4 O    ARG D   2      12.485  13.893 148.927  1.00 39.08 LIG-0.27  OA
ATOM      5 H    THR D   3      11.848  11.414 147.299  1.00 34.46 LIG 0.16  HD
BRANCH 3 6
ATOM      6  CA  ARG D   2      10.332  12.823 148.866  1.00 42.24 LIG 0.18  C 
BRANCH 6 7
ATOM      7  CB  ARG D   2      10.216  11.882 150.068  1.00 49.82 LIG 0.04  C 
BRANCH 7 8
ATOM      8  CG  ARG D   2       8.869  11.203 150.270  1.00 55.24 LIG 0.02  C 
BRANCH 8 9
ATOM      9  CD  ARG D   2       8.709  10.775 151.737  1.00 55.63 LIG 0.14  C 
BRANCH 9 10
ATOM     10  NE  ARG D   2       9.531   9.615 152.085  1.00 65.78 LIG-0.23  N 
ATOM     11 HE   ARG D   2      10.345   9.760 152.320  1.00 65.78 LIG 0.18  HD
ATOM     12  CZ  ARG D   2       9.111   8.352 152.065  1.00 70.57 LIG 0.67  C 
ATOM     13  NH1 ARG D   2       7.869   8.062 151.705  1.00 66.11 LIG-0.23  N 
ATOM     14  NH2 ARG D   2       9.939   7.370 152.400  1.00 74.94 LIG-0.23  N 
ATOM     15 1HH1 ARG D   2       7.328   8.692 151.482  1.00 66.11 LIG 0.17  HD
ATOM     16 2HH1 ARG D   2       7.604   7.244 151.693  1.00 66.11 LIG 0.17  HD
ATOM     17 2HH2 ARG D   2       9.667   6.554 152.386  1.00 74.94 LIG 0.17  HD
ATOM     18 1HH2 ARG D   2      10.748   7.549 152.631  1.00 74.94 LIG 0.17  HD
ENDBRANCH 9 10
ENDBRANCH 8 9
ENDBRANCH 7 8
ENDBRANCH 6 7
BRANCH 6 19
ATOM     19  N   ARG D   2       9.560  12.258 147.762  1.00 42.84 LIG-0.35  N 
ATOM     20  C   ALA D   1       9.236  12.965 146.692  1.00 44.74 LIG 0.25  C 
ATOM     21 O    ALA D   1       9.492  14.162 146.583  1.00 48.31 LIG-0.27  OA
ATOM     22 H    ARG D   2       9.340  11.435 147.873  1.00 42.84 LIG 0.16  HD
BRANCH 20 23
ATOM     23  CA  ALA D   1       8.503  12.206 145.585  1.00 45.19 LIG 0.27  C 
ATOM     24  CB  ALA D   1       7.148  11.743 146.072  1.00 43.32 LIG 0.05  C 
BRANCH 23 25
ATOM     25  N   ALA D   1       9.288  11.070 145.134  1.00 39.75 LIG-0.07  N 
ATOM     26 H1   ALA D   1       9.904  11.346 144.554  1.00 39.75 LIG 0.28  HD
ATOM     27 H2   ALA D   1       9.688  10.690 145.832  1.00 39.75 LIG 0.28  HD
ATOM     28 H3   ALA D   1       8.754  10.478 144.739  1.00 39.75 LIG 0.28  HD
ENDBRANCH 23 25
ENDBRANCH 20 23
ENDBRANCH 6 19
ENDBRANCH 3 6
ENDBRANCH 1 2
BRANCH 1 29
ATOM     29  CB  THR D   3      13.864  11.247 145.845  1.00 46.90 LIG 0.15  C 
ATOM     30  CG2 THR D   3      12.805  11.412 144.770  1.00 44.81 LIG 0.04  C 
BRANCH 29 31
ATOM     31 OG1  THR D   3      15.154  11.486 145.269  1.00 48.09 LIG-0.39  OA
ATOM     32 HG1  THR D   3      15.138  12.205 144.833  1.00 48.09 LIG 0.21  HD
ENDBRANCH 29 31
ENDBRANCH 1 29
BRANCH 1 33
ATOM     33  C   THR D   3      13.852  13.654 146.496  1.00 42.40 LIG 0.24  C 
ATOM     34 O    THR D   3      12.904  14.355 146.129  1.00 40.34 LIG-0.27  OA
ATOM     35  N   LYS D   4      15.080  14.086 146.401  1.00 38.45 LIG-0.35  N 
ATOM     36 H    LYS D   4      15.773  13.656 146.674  1.00 38.45 LIG 0.16  HD
BRANCH 35 37
ATOM     37  CA  LYS D   4      15.351  15.371 145.806  1.00 37.56 LIG 0.18  C 
BRANCH 37 38
ATOM     38  C   LYS D   4      14.778  15.442 144.398  1.00 44.28 LIG 0.24  C 
ATOM     39 O    LYS D   4      14.448  16.482 143.969  1.00 49.08 LIG-0.27  OA
ATOM     40  N   GLN D   5      14.714  14.302 143.730  1.00 53.59 LIG-0.35  N 
ATOM     41 H    GLN D   5      15.216  13.654 143.988  1.00 53.59 LIG 0.16  HD
BRANCH 40 42
ATOM     42  CA  GLN D   5      13.913  13.859 142.553  1.00 61.39 LIG 0.16  C 
BRANCH 42 43
ATOM     43  CB  GLN D   5      13.651  14.930 141.484  1.00 20.00 LIG 0.04  C 
BRANCH 43 44
ATOM     44  CG  GLN D   5      12.565  14.519 140.460  1.00 20.00 LIG 0.10  C 
BRANCH 44 45
ATOM     45  CD  GLN D   5      11.130  14.451 140.984  1.00 20.00 LIG 0.21  C 
ATOM     46  NE2 GLN D   5      10.171  14.535 140.070  1.00 20.00 LIG-0.37  N 
ATOM     47 21HE GLN D   5      10.375  14.644 139.242  1.00 20.00 LIG 0.16  HD
ATOM     48 22HE GLN D   5       9.347  14.482 140.306  1.00 20.00 LIG 0.16  HD
ATOM     49 OE1  GLN D   5      10.888  14.295 142.183  1.00 20.00 LIG-0.27  OA
ENDBRANCH 44 45
ENDBRANCH 43 44
ENDBRANCH 42 43
BRANCH 42 50
ATOM     50  C   GLN D   5      14.076  12.508 141.900  1.00 64.61 LIG 0.22  C 
ATOM     51 O    GLN D   5      15.010  11.807 142.158  1.00 68.60 LIG-0.29  OA
ENDBRANCH 42 50
ENDBRANCH 40 42
ENDBRANCH 37 38
BRANCH 37 52
ATOM     52  CB  LYS D   4      16.836  15.660 145.844  1.00 33.42 LIG 0.04  C 
BRANCH 52 53
ATOM     53  CG  LYS D   4      17.253  16.534 146.933  1.00 40.53 LIG 0.00  C 
BRANCH 53 54
ATOM     54  CD  LYS D   4      16.237  16.567 147.947  1.00 50.17 LIG 0.03  C 
BRANCH 54 55
ATOM     55  CE  LYS D   4      16.690  17.334 149.156  1.00 57.03 LIG 0.23  C 
BRANCH 55 56
ATOM     56  NZ  LYS D   4      17.423  16.412 150.023  1.00 52.11 LIG-0.08  N 
ATOM     57 HZ3  LYS D   4      18.297  16.546 149.926  1.00 52.11 LIG 0.27  HD
ATOM     58 HZ2  LYS D   4      17.224  15.574 149.800  1.00 52.11 LIG 0.27  HD
ATOM     59 HZ1  LYS D   4      17.193  16.556 150.871  1.00 52.11 LIG 0.27  HD
ENDBRANCH 55 56
ENDBRANCH 54 55
ENDBRANCH 53 54
ENDBRANCH 52 53
ENDBRANCH 37 52
ENDBRANCH 35 37
ENDBRANCH 1 33
TORSDOF 24
ENDMDL
MODEL 48
USER: ADFR SOLUTION from run 65
USER: SCORE 19.132629 LL:  -3.231 LR: -16.916 RR:   0.000 FEB:  -9.757
USER: RMSD 8.045293
USER: SEED 64
USER: STATUS no improvement in best in 3 clusters for 5 generations
USER: GENES 26
USER: genes 0 Translation |==|  0.53842 0.50964 0.40444
USER: genes 1 Rotation |==|  0.16575 0.15315 0.40553 0.59512
USER: genes 2 Torsion [CB]-CA--N-[C] |==|  0.49477
USER: genes 3 Torsion [N]-C--CA-[N] |==|  0.31761
USER: genes 4 Torsion [C]-CA--CB-[CG] |==|  0.52350
USER: genes 5 Torsion [CA]-CB--CG-[CD] |==|  0.34674
USER: genes 6 Torsion [CB]-CG--CD-[NE] |==|  0.83806
USER: genes 7 Torsion [CG]-CD--NE-[HE] |==|  0.76966
USER: genes 8 Torsion [C]-CA--N-[C] |==|  0.80406
USER: genes 9 Torsion [N]-C--CA-[N] |==|  0.21383
USER: genes 10 Torsion [C]-CA--N-[H1] |==|  0.28345
USER: genes 11 Torsion [N]-CA--CB-[CG2] |==|  0.83292
USER: genes 12 Torsion [CA]-CB--OG1-[HG1] |==|  0.61299
USER: genes 13 Torsion [N]-CA--C-[N] |==|  0.40401
USER: genes 14 Torsion [C]-N--CA-[CB] |==|  0.85000
USER: genes 15 Torsion [N]-CA--C-[N] |==|  0.40776
USER: genes 16 Torsion [C]-N--CA-[CB] |==|  0.70338
USER: genes 17 Torsion [N]-CA--CB-[CG] |==|  0.10920
USER: genes 18 Torsion [CA]-CB--CG-[CD] |==|  0.28671
USER: genes 19 Torsion [CB]-CG--CD-[OE1] |==|  0.42395
USER: genes 20 Torsion [N]-CA--C-[O] |==|  0.68898
USER: genes 21 Torsion [N]-CA--CB-[CG] |==|  0.68195
USER: genes 22 Torsion [CA]-CB--CG-[CD] |==|  0.68921
USER: genes 23 Torsion [CB]-CG--CD-[CE] |==|  0.79533
USER: genes 24 Torsion [CG]-CD--CE-[NZ] |==|  0.82170
USER: genes 25 Torsion [CD]-CE--NZ-[HZ2] |==|  0.58196
ROOT
ATOM      1  CA  THR D   3      15.910  16.905 146.287  1.00 39.79 LIG 0.20  C 
ENDROOT
BRANCH 1 2
ATOM      2  N   THR D   3      15.745  15.457 146.175  1.00 34.46 LIG-0.34  N 
ATOM      3  C   ARG D   2      14.930  14.911 145.273  1.00 39.53 LIG 0.24  C 
ATOM      4 O    ARG D   2      14.176  15.582 144.564  1.00 39.08 LIG-0.27  OA
ATOM      5 H    THR D   3      16.213  15.002 146.736  1.00 34.46 LIG 0.16  HD
BRANCH 3 6
ATOM      6  CA  ARG D   2      14.944  13.381 145.155  1.00 42.24 LIG 0.18  C 
BRANCH 6 7
ATOM      7  CB  ARG D   2      15.206  12.956 143.708  1.00 49.82 LIG 0.04  C 
BRANCH 7 8
ATOM      8  CG  ARG D   2      15.051  11.474 143.398  1.00 55.24 LIG 0.02  C 
BRANCH 8 9
ATOM      9  CD  ARG D   2      14.053  11.277 142.246  1.00 55.63 LIG 0.14  C 
BRANCH 9 10
ATOM     10  NE  ARG D   2      12.732  11.837 142.535  1.00 65.78 LIG-0.23  N 
ATOM     11 HE   ARG D   2      12.189  11.357 142.997  1.00 65.78 LIG 0.18  HD
ATOM     12  CZ  ARG D   2      12.309  13.034 142.136  1.00 70.57 LIG 0.67  C 
ATOM     13  NH1 ARG D   2      13.098  13.819 141.415  1.00 66.11 LIG-0.23  N 
ATOM     14  NH2 ARG D   2      11.089  13.450 142.453  1.00 74.94 LIG-0.23  N 
ATOM     15 1HH1 ARG D   2      13.888  13.556 141.201  1.00 66.11 LIG 0.17  HD
ATOM     16 2HH1 ARG D   2      12.819  14.591 141.159  1.00 66.11 LIG 0.17  HD
ATOM     17 2HH2 ARG D   2      10.818  14.223 142.194  1.00 74.94 LIG 0.17  HD
ATOM     18 1HH2 ARG D   2      10.570  12.945 142.918  1.00 74.94 LIG 0.17  HD
ENDBRANCH 9 10
ENDBRANCH 8 9
ENDBRANCH 7 8
ENDBRANCH 6 7
BRANCH 6 19
ATOM     19  N   ARG D   2      13.654  12.838 145.569  1.00 42.84 LIG-0.35  N 
ATOM     20  C   ALA D   1      13.255  12.846 146.831  1.00 44.74 LIG 0.25  C 
ATOM     21 O    ALA D   1      13.969  13.238 147.751  1.00 48.31 LIG-0.27  OA
ATOM     22 H    ARG D   2      13.184  12.517 144.925  1.00 42.84 LIG 0.16  HD
BRANCH 20 23
ATOM     23  CA  ALA D   1      11.842  12.322 147.091  1.00 45.19 LIG 0.27  C 
ATOM     24  CB  ALA D   1      11.340  12.805 148.433  1.00 43.32 LIG 0.05  C 
BRANCH 23 25
ATOM     25  N   ALA D   1      11.815  10.870 147.039  1.00 39.75 LIG-0.07  N 
ATOM     26 H1   ALA D   1      11.797  10.543 147.867  1.00 39.75 LIG 0.28  HD
ATOM     27 H2   ALA D   1      11.089  10.602 146.600  1.00 39.75 LIG 0.28  HD
ATOM     28 H3   ALA D   1      12.541  10.573 146.619  1.00 39.75 LIG 0.28  HD
ENDBRANCH 23 25
ENDBRANCH 20 23
ENDBRANCH 6 19
ENDBRANCH 3 6
ENDBRANCH 1 2
BRANCH 1 29
ATOM     29  CB  THR D   3      16.870  17.293 147.435  1.00 46.90 LIG 0.15  C 
ATOM     30  CG2 THR D   3      16.347  16.796 148.770  1.00 44.81 LIG 0.04  C 
BRANCH 29 31
ATOM     31 OG1  THR D   3      18.162  16.720 147.198  1.00 48.09 LIG-0.39  OA
ATOM     32 HG1  THR D   3      18.478  16.430 147.921  1.00 48.09 LIG 0.21  HD
ENDBRANCH 29 31
ENDBRANCH 1 29
BRANCH 1 33
ATOM     33  C   THR D   3      16.459  17.483 144.983  1.00 42.40 LIG 0.24  C 
ATOM     34 O    THR D   3      17.298  16.867 144.319  1.00 40.34 LIG-0.27  OA
ATOM     35  N   LYS D   4      16.058  18.671 144.620  1.00 38.45 LIG-0.35  N 
ATOM     36 H    LYS D   4      15.452  19.129 145.024  1.00 38.45 LIG 0.16  HD
BRANCH 35 37
ATOM     37  CA  LYS D   4      16.639  19.310 143.466  1.00 37.56 LIG 0.18  C 
BRANCH 37 38
ATOM     38  C   LYS D   4      16.184  18.623 142.186  1.00 44.28 LIG 0.24  C 
ATOM     39 O    LYS D   4      15.965  17.472 142.205  1.00 49.08 LIG-0.27  OA
ATOM     40  N   GLN D   5      16.038  19.396 141.124  1.00 53.59 LIG-0.35  N 
ATOM     41 H    GLN D   5      15.943  20.241 141.248  1.00 53.59 LIG 0.16  HD
BRANCH 40 42
ATOM     42  CA  GLN D   5      15.998  19.112 139.660  1.00 61.39 LIG 0.16  C 
BRANCH 42 43
ATOM     43  CB  GLN D   5      17.242  19.531 138.865  1.00 20.00 LIG 0.04  C 
BRANCH 43 44
ATOM     44  CG  GLN D   5      18.568  19.265 139.619  1.00 20.00 LIG 0.10  C 
BRANCH 44 45
ATOM     45  CD  GLN D   5      19.374  18.048 139.166  1.00 20.00 LIG 0.21  C 
ATOM     46  NE2 GLN D   5      18.681  17.070 138.595  1.00 20.00 LIG-0.37  N 
ATOM     47 21HE GLN D   5      17.828  17.136 138.517  1.00 20.00 LIG 0.16  HD
ATOM     48 22HE GLN D   5      19.086  16.371 138.302  1.00 20.00 LIG 0.16  HD
ATOM     49 OE1  GLN D   5      20.599  17.999 139.300  1.00 20.00 LIG-0.27  OA
ENDBRANCH 44 45
ENDBRANCH 43 44
ENDBRANCH 42 43
BRANCH 42 50
ATOM     50  C   GLN D   5      15.414  17.848 139.076  1.00 64.61 LIG 0.22  C 
ATOM     51 O    GLN D   5      16.111  17.036 138.542  1.00 68.60 LIG-0.29  OA
ENDBRANCH 42 50
ENDBRANCH 40 42
ENDBRANCH 37 38
BRANCH 37 52
ATOM     52  CB  LYS D   4      18.146  19.352 143.597  1.00 33.42 LIG 0.04  C 
BRANCH 52 53
ATOM     53  CG  LYS D   4      18.704  20.693 143.715  1.00 40.53 LIG 0.00  C 
BRANCH 53 54
ATOM     54  CD  LYS D   4      19.461  21.011 142.537  1.00 50.17 LIG 0.03  C 
BRANCH 54 55
ATOM     55  CE  LYS D   4      20.768  20.272 142.505  1.00 57.03 LIG 0.23  C 
BRANCH 55 56
ATOM     56  NZ  LYS D   4      21.573  20.736 143.634  1.00 52.11 LIG-0.08  N 
ATOM     57 HZ3  LYS D   4      21.371  21.584 143.815  1.00 52.11 LIG 0.27  HD
ATOM     58 HZ2  LYS D   4      22.437  20.675 143.428  1.00 52.11 LIG 0.27  HD
ATOM     59 HZ1  LYS D   4      21.402  20.232 144.347  1.00 52.11 LIG 0.27  HD
ENDBRANCH 55 56
ENDBRANCH 54 55
ENDBRANCH 53 54
ENDBRANCH 52 53
ENDBRANCH 37 52
ENDBRANCH 35 37
ENDBRANCH 1 33
TORSDOF 24
ENDMDL
MODEL 49
USER: ADFR SOLUTION from run 153
USER: SCORE 18.137554 LL:  -2.917 LR: -16.902 RR:   0.000 FEB:  -9.743
USER: RMSD 6.976204
USER: SEED 152
USER: STATUS no improvement in best in 12 clusters for 5 generations
USER: GENES 26
USER: genes 0 Translation |==|  0.35324 0.25839 0.41511
USER: genes 1 Rotation |==|  0.41166 0.84518 0.43564 0.84483
USER: genes 2 Torsion [CB]-CA--N-[C] |==|  0.87679
USER: genes 3 Torsion [N]-C--CA-[N] |==|  0.98357
USER: genes 4 Torsion [C]-CA--CB-[CG] |==|  0.56065
USER: genes 5 Torsion [CA]-CB--CG-[CD] |==|  0.35329
USER: genes 6 Torsion [CB]-CG--CD-[NE] |==|  0.55833
USER: genes 7 Torsion [CG]-CD--NE-[HE] |==|  0.23497
USER: genes 8 Torsion [C]-CA--N-[C] |==|  0.67651
USER: genes 9 Torsion [N]-C--CA-[N] |==|  0.04192
USER: genes 10 Torsion [C]-CA--N-[H1] |==|  0.74055
USER: genes 11 Torsion [N]-CA--CB-[CG2] |==|  0.52335
USER: genes 12 Torsion [CA]-CB--OG1-[HG1] |==|  0.96818
USER: genes 13 Torsion [N]-CA--C-[N] |==|  0.85020
USER: genes 14 Torsion [C]-N--CA-[CB] |==|  0.22319
USER: genes 15 Torsion [N]-CA--C-[N] |==|  0.35757
USER: genes 16 Torsion [C]-N--CA-[CB] |==|  0.99468
USER: genes 17 Torsion [N]-CA--CB-[CG] |==|  0.75851
USER: genes 18 Torsion [CA]-CB--CG-[CD] |==|  0.10323
USER: genes 19 Torsion [CB]-CG--CD-[OE1] |==|  0.31173
USER: genes 20 Torsion [N]-CA--C-[O] |==|  0.22030
USER: genes 21 Torsion [N]-CA--CB-[CG] |==|  0.17356
USER: genes 22 Torsion [CA]-CB--CG-[CD] |==|  0.71406
USER: genes 23 Torsion [CB]-CG--CD-[CE] |==|  0.91791
USER: genes 24 Torsion [CG]-CD--CE-[NZ] |==|  0.58553
USER: genes 25 Torsion [CD]-CE--NZ-[HZ2] |==|  0.71853
ROOT
ATOM      1  CA  THR D   3      12.438  11.440 146.535  1.00 39.79 LIG 0.20  C 
ENDROOT
BRANCH 1 2
ATOM      2  N   THR D   3      11.787  11.745 147.808  1.00 34.46 LIG-0.34  N 
ATOM      3  C   ARG D   2      11.210  12.925 148.036  1.00 39.53 LIG 0.24  C 
ATOM      4 O    ARG D   2      11.294  13.870 147.249  1.00 39.08 LIG-0.27  OA
ATOM      5 H    THR D   3      11.811  11.104 148.381  1.00 34.46 LIG 0.16  HD
BRANCH 3 6
ATOM      6  CA  ARG D   2      10.436  13.080 149.352  1.00 42.24 LIG 0.18  C 
BRANCH 6 7
ATOM      7  CB  ARG D   2      11.125  14.098 150.264  1.00 49.82 LIG 0.04  C 
BRANCH 7 8
ATOM      8  CG  ARG D   2      10.812  13.999 151.750  1.00 55.24 LIG 0.02  C 
BRANCH 8 9
ATOM      9  CD  ARG D   2      12.116  13.919 152.559  1.00 55.63 LIG 0.14  C 
BRANCH 9 10
ATOM     10  NE  ARG D   2      11.924  13.344 153.892  1.00 65.78 LIG-0.23  N 
ATOM     11 HE   ARG D   2      11.934  12.488 153.961  1.00 65.78 LIG 0.18  HD
ATOM     12  CZ  ARG D   2      11.736  14.050 155.005  1.00 70.57 LIG 0.67  C 
ATOM     13  NH1 ARG D   2      11.704  15.374 154.964  1.00 66.11 LIG-0.23  N 
ATOM     14  NH2 ARG D   2      11.573  13.429 156.167  1.00 74.94 LIG-0.23  N 
ATOM     15 1HH1 ARG D   2      11.805  15.784 154.215  1.00 66.11 LIG 0.17  HD
ATOM     16 2HH1 ARG D   2      11.582  15.825 155.686  1.00 66.11 LIG 0.17  HD
ATOM     17 2HH2 ARG D   2      11.451  13.886 156.885  1.00 74.94 LIG 0.17  HD
ATOM     18 1HH2 ARG D   2      11.588  12.570 156.201  1.00 74.94 LIG 0.17  HD
ENDBRANCH 9 10
ENDBRANCH 8 9
ENDBRANCH 7 8
ENDBRANCH 6 7
BRANCH 6 19
ATOM     19  N   ARG D   2      10.379  11.799 150.051  1.00 42.84 LIG-0.35  N 
ATOM     20  C   ALA D   1       9.239  11.169 150.282  1.00 44.74 LIG 0.25  C 
ATOM     21 O    ALA D   1       8.145  11.649 149.997  1.00 48.31 LIG-0.27  OA
ATOM     22 H    ARG D   2      11.147  11.497 150.294  1.00 42.84 LIG 0.16  HD
BRANCH 20 23
ATOM     23  CA  ALA D   1       9.355   9.796 150.945  1.00 45.19 LIG 0.27  C 
ATOM     24  CB  ALA D   1       8.304   9.641 152.022  1.00 43.32 LIG 0.05  C 
BRANCH 23 25
ATOM     25  N   ALA D   1      10.681   9.607 151.509  1.00 39.75 LIG-0.07  N 
ATOM     26 H1   ALA D   1      11.200   9.195 150.915  1.00 39.75 LIG 0.28  HD
ATOM     27 H2   ALA D   1      11.032  10.399 151.711  1.00 39.75 LIG 0.28  HD
ATOM     28 H3   ALA D   1      10.623   9.112 152.246  1.00 39.75 LIG 0.28  HD
ENDBRANCH 23 25
ENDBRANCH 20 23
ENDBRANCH 6 19
ENDBRANCH 3 6
ENDBRANCH 1 2
BRANCH 1 29
ATOM     29  CB  THR D   3      11.594  11.899 145.325  1.00 46.90 LIG 0.15  C 
ATOM     30  CG2 THR D   3      12.190  11.390 144.025  1.00 44.81 LIG 0.04  C 
BRANCH 29 31
ATOM     31 OG1  THR D   3      10.257  11.397 145.452  1.00 48.09 LIG-0.39  OA
ATOM     32 HG1  THR D   3      10.229  10.827 146.069  1.00 48.09 LIG 0.21  HD
ENDBRANCH 29 31
ENDBRANCH 1 29
BRANCH 1 33
ATOM     33  C   THR D   3      13.804  12.121 146.457  1.00 42.40 LIG 0.24  C 
ATOM     34 O    THR D   3      14.831  11.463 146.260  1.00 40.34 LIG-0.27  OA
ATOM     35  N   LYS D   4      13.863  13.409 146.659  1.00 38.45 LIG-0.35  N 
ATOM     36 H    LYS D   4      13.180  13.920 146.765  1.00 38.45 LIG 0.16  HD
BRANCH 35 37
ATOM     37  CA  LYS D   4      15.141  14.075 146.718  1.00 37.56 LIG 0.18  C 
BRANCH 37 38
ATOM     38  C   LYS D   4      15.045  15.348 147.545  1.00 44.28 LIG 0.24  C 
ATOM     39 O    LYS D   4      14.187  16.114 147.313  1.00 49.08 LIG-0.27  OA
ATOM     40  N   GLN D   5      15.940  15.496 148.506  1.00 53.59 LIG-0.35  N 
ATOM     41 H    GLN D   5      16.344  14.793 148.793  1.00 53.59 LIG 0.16  HD
BRANCH 40 42
ATOM     42  CA  GLN D   5      16.440  16.685 149.254  1.00 61.39 LIG 0.16  C 
BRANCH 42 43
ATOM     43  CB  GLN D   5      15.850  18.037 148.830  1.00 20.00 LIG 0.04  C 
BRANCH 43 44
ATOM     44  CG  GLN D   5      16.616  18.699 147.659  1.00 20.00 LIG 0.10  C 
BRANCH 44 45
ATOM     45  CD  GLN D   5      17.148  17.758 146.578  1.00 20.00 LIG 0.21  C 
ATOM     46  NE2 GLN D   5      18.103  16.918 146.956  1.00 20.00 LIG-0.37  N 
ATOM     47 21HE GLN D   5      18.401  16.939 147.762  1.00 20.00 LIG 0.16  HD
ATOM     48 22HE GLN D   5      18.425  16.352 146.394  1.00 20.00 LIG 0.16  HD
ATOM     49 OE1  GLN D   5      16.690  17.766 145.433  1.00 20.00 LIG-0.27  OA
ENDBRANCH 44 45
ENDBRANCH 43 44
ENDBRANCH 42 43
BRANCH 42 50
ATOM     50  C   GLN D   5      16.700  16.680 150.741  1.00 64.61 LIG 0.22  C 
ATOM     51 O    GLN D   5      17.700  16.202 151.191  1.00 68.60 LIG-0.29  OA
ENDBRANCH 42 50
ENDBRANCH 40 42
ENDBRANCH 37 38
BRANCH 37 52
ATOM     52  CB  LYS D   4      15.662  14.327 145.320  1.00 33.42 LIG 0.04  C 
BRANCH 52 53
ATOM     53  CG  LYS D   4      14.825  15.207 144.514  1.00 40.53 LIG 0.00  C 
BRANCH 53 54
ATOM     54  CD  LYS D   4      14.066  14.432 143.575  1.00 50.17 LIG 0.03  C 
BRANCH 54 55
ATOM     55  CE  LYS D   4      14.792  13.177 143.181  1.00 57.03 LIG 0.23  C 
BRANCH 55 56
ATOM     56  NZ  LYS D   4      14.411  12.851 141.807  1.00 52.11 LIG-0.08  N 
ATOM     57 HZ3  LYS D   4      14.068  13.572 141.415  1.00 52.11 LIG 0.27  HD
ATOM     58 HZ2  LYS D   4      13.804  12.200 141.814  1.00 52.11 LIG 0.27  HD
ATOM     59 HZ1  LYS D   4      15.129  12.582 141.356  1.00 52.11 LIG 0.27  HD
ENDBRANCH 55 56
ENDBRANCH 54 55
ENDBRANCH 53 54
ENDBRANCH 52 53
ENDBRANCH 37 52
ENDBRANCH 35 37
ENDBRANCH 1 33
TORSDOF 24
ENDMDL
MODEL 50
USER: ADFR SOLUTION from run 169
USER: SCORE 17.844334 LL:  -2.307 LR: -16.866 RR:   0.000 FEB:  -9.707
USER: RMSD 5.065126
USER: SEED 168
USER: STATUS no improvement in best in 14 clusters for 5 generations
USER: GENES 26
USER: genes 0 Translation |==|  0.54033 0.47160 0.49326
USER: genes 1 Rotation |==|  0.39756 0.54471 0.50874 0.98727
USER: genes 2 Torsion [CB]-CA--N-[C] |==|  0.23263
USER: genes 3 Torsion [N]-C--CA-[N] |==|  0.47619
USER: genes 4 Torsion [C]-CA--CB-[CG] |==|  0.57823
USER: genes 5 Torsion [CA]-CB--CG-[CD] |==|  0.52631
USER: genes 6 Torsion [CB]-CG--CD-[NE] |==|  0.67741
USER: genes 7 Torsion [CG]-CD--NE-[HE] |==|  0.32326
USER: genes 8 Torsion [C]-CA--N-[C] |==|  0.76130
USER: genes 9 Torsion [N]-C--CA-[N] |==|  0.21202
USER: genes 10 Torsion [C]-CA--N-[H1] |==|  0.50274
USER: genes 11 Torsion [N]-CA--CB-[CG2] |==|  0.21358
USER: genes 12 Torsion [CA]-CB--OG1-[HG1] |==|  0.91416
USER: genes 13 Torsion [N]-CA--C-[N] |==|  0.44181
USER: genes 14 Torsion [C]-N--CA-[CB] |==|  0.86830
USER: genes 15 Torsion [N]-CA--C-[N] |==|  0.86808
USER: genes 16 Torsion [C]-N--CA-[CB] |==|  0.48345
USER: genes 17 Torsion [N]-CA--CB-[CG] |==|  0.36747
USER: genes 18 Torsion [CA]-CB--CG-[CD] |==|  0.25958
USER: genes 19 Torsion [CB]-CG--CD-[OE1] |==|  0.02157
USER: genes 20 Torsion [N]-CA--C-[O] |==|  0.09830
USER: genes 21 Torsion [N]-CA--CB-[CG] |==|  0.79711
USER: genes 22 Torsion [CA]-CB--CG-[CD] |==|  0.76013
USER: genes 23 Torsion [CB]-CG--CD-[CE] |==|  0.55649
USER: genes 24 Torsion [CG]-CD--CE-[NZ] |==|  0.60277
USER: genes 25 Torsion [CD]-CE--NZ-[HZ2] |==|  0.91946
ROOT
ATOM      1  CA  THR D   3      15.946  16.077 148.352  1.00 39.79 LIG 0.20  C 
ENDROOT
BRANCH 1 2
ATOM      2  N   THR D   3      14.583  15.620 148.087  1.00 34.46 LIG-0.34  N 
ATOM      3  C   ARG D   2      14.333  14.411 147.586  1.00 39.53 LIG 0.24  C 
ATOM      4 O    ARG D   2      15.226  13.653 147.199  1.00 39.08 LIG-0.27  OA
ATOM      5 H    THR D   3      13.973  16.194 148.283  1.00 34.46 LIG 0.16  HD
BRANCH 3 6
ATOM      6  CA  ARG D   2      12.861  13.989 147.482  1.00 42.24 LIG 0.18  C 
BRANCH 6 7
ATOM      7  CB  ARG D   2      12.265  13.772 148.875  1.00 49.82 LIG 0.04  C 
BRANCH 7 8
ATOM      8  CG  ARG D   2      11.124  12.770 148.975  1.00 55.24 LIG 0.02  C 
BRANCH 8 9
ATOM      9  CD  ARG D   2      10.484  12.838 150.371  1.00 55.63 LIG 0.14  C 
BRANCH 9 10
ATOM     10  NE  ARG D   2      10.638  11.595 151.129  1.00 65.78 LIG-0.23  N 
ATOM     11 HE   ARG D   2      11.099  11.625 151.853  1.00 65.78 LIG 0.18  HD
ATOM     12  CZ  ARG D   2      10.116  10.421 150.779  1.00 70.57 LIG 0.67  C 
ATOM     13  NH1 ARG D   2       9.400  10.308 149.669  1.00 66.11 LIG-0.23  N 
ATOM     14  NH2 ARG D   2      10.315   9.351 151.539  1.00 74.94 LIG-0.23  N 
ATOM     15 1HH1 ARG D   2       9.270  10.995 149.169  1.00 66.11 LIG 0.17  HD
ATOM     16 2HH1 ARG D   2       9.066   9.547 149.449  1.00 66.11 LIG 0.17  HD
ATOM     17 2HH2 ARG D   2       9.978   8.594 151.312  1.00 74.94 LIG 0.17  HD
ATOM     18 1HH2 ARG D   2      10.782   9.416 152.259  1.00 74.94 LIG 0.17  HD
ENDBRANCH 9 10
ENDBRANCH 8 9
ENDBRANCH 7 8
ENDBRANCH 6 7
BRANCH 6 19
ATOM     19  N   ARG D   2      12.753  12.741 146.733  1.00 42.84 LIG-0.35  N 
ATOM     20  C   ALA D   1      12.680  12.712 145.413  1.00 44.74 LIG 0.25  C 
ATOM     21 O    ALA D   1      12.621  13.729 144.728  1.00 48.31 LIG-0.27  OA
ATOM     22 H    ARG D   2      12.741  12.036 147.226  1.00 42.84 LIG 0.16  HD
BRANCH 20 23
ATOM     23  CA  ALA D   1      12.660  11.322 144.773  1.00 45.19 LIG 0.27  C 
ATOM     24  CB  ALA D   1      13.030  11.411 143.310  1.00 43.32 LIG 0.05  C 
BRANCH 23 25
ATOM     25  N   ALA D   1      11.353  10.706 144.922  1.00 39.75 LIG-0.07  N 
ATOM     26 H1   ALA D   1      11.364   9.895 144.558  1.00 39.75 LIG 0.28  HD
ATOM     27 H2   ALA D   1      11.153  10.640 145.787  1.00 39.75 LIG 0.28  HD
ATOM     28 H3   ALA D   1      10.740  11.206 144.514  1.00 39.75 LIG 0.28  HD
ENDBRANCH 23 25
ENDBRANCH 20 23
ENDBRANCH 6 19
ENDBRANCH 3 6
ENDBRANCH 1 2
BRANCH 1 29
ATOM     29  CB  THR D   3      16.623  16.654 147.088  1.00 46.90 LIG 0.15  C 
ATOM     30  CG2 THR D   3      16.111  18.051 146.789  1.00 44.81 LIG 0.04  C 
BRANCH 29 31
ATOM     31 OG1  THR D   3      18.042  16.709 147.283  1.00 48.09 LIG-0.39  OA
ATOM     32 HG1  THR D   3      18.208  16.835 148.097  1.00 48.09 LIG 0.21  HD
ENDBRANCH 29 31
ENDBRANCH 1 29
BRANCH 1 33
ATOM     33  C   THR D   3      15.949  17.156 149.435  1.00 42.40 LIG 0.24  C 
ATOM     34 O    THR D   3      14.942  17.837 149.655  1.00 40.34 LIG-0.27  OA
ATOM     35  N   LYS D   4      17.060  17.375 150.083  1.00 38.45 LIG-0.35  N 
ATOM     36 H    LYS D   4      17.778  16.910 149.997  1.00 38.45 LIG 0.16  HD
BRANCH 35 37
ATOM     37  CA  LYS D   4      17.146  18.463 151.025  1.00 37.56 LIG 0.18  C 
BRANCH 37 38
ATOM     38  C   LYS D   4      16.464  18.095 152.334  1.00 44.28 LIG 0.24  C 
ATOM     39 O    LYS D   4      17.012  18.322 153.346  1.00 49.08 LIG-0.27  OA
ATOM     40  N   GLN D   5      15.261  17.555 152.240  1.00 53.59 LIG-0.35  N 
ATOM     41 H    GLN D   5      14.819  17.676 151.512  1.00 53.59 LIG 0.16  HD
BRANCH 40 42
ATOM     42  CA  GLN D   5      14.442  16.729 153.174  1.00 61.39 LIG 0.16  C 
BRANCH 42 43
ATOM     43  CB  GLN D   5      13.011  16.420 152.712  1.00 20.00 LIG 0.04  C 
BRANCH 43 44
ATOM     44  CG  GLN D   5      12.630  14.927 152.858  1.00 20.00 LIG 0.10  C 
BRANCH 44 45
ATOM     45  CD  GLN D   5      11.927  14.530 154.156  1.00 20.00 LIG 0.21  C 
ATOM     46  NE2 GLN D   5      11.776  13.227 154.362  1.00 20.00 LIG-0.37  N 
ATOM     47 21HE GLN D   5      12.047  12.664 153.771  1.00 20.00 LIG 0.16  HD
ATOM     48 22HE GLN D   5      11.406  12.947 155.085  1.00 20.00 LIG 0.16  HD
ATOM     49 OE1  GLN D   5      11.554  15.375 154.973  1.00 20.00 LIG-0.27  OA
ENDBRANCH 44 45
ENDBRANCH 43 44
ENDBRANCH 42 43
BRANCH 42 50
ATOM     50  C   GLN D   5      14.998  15.559 153.950  1.00 64.61 LIG 0.22  C 
ATOM     51 O    GLN D   5      16.118  15.573 154.370  1.00 68.60 LIG-0.29  OA
ENDBRANCH 42 50
ENDBRANCH 40 42
ENDBRANCH 37 38
BRANCH 37 52
ATOM     52  CB  LYS D   4      16.584  19.728 150.413  1.00 33.42 LIG 0.04  C 
BRANCH 52 53
ATOM     53  CG  LYS D   4      17.433  20.335 149.396  1.00 40.53 LIG 0.00  C 
BRANCH 53 54
ATOM     54  CD  LYS D   4      18.389  21.208 150.018  1.00 50.17 LIG 0.03  C 
BRANCH 54 55
ATOM     55  CE  LYS D   4      18.941  22.207 149.040  1.00 57.03 LIG 0.23  C 
BRANCH 55 56
ATOM     56  NZ  LYS D   4      20.355  22.407 149.354  1.00 52.11 LIG-0.08  N 
ATOM     57 HZ3  LYS D   4      20.847  21.833 148.884  1.00 52.11 LIG 0.27  HD
ATOM     58 HZ2  LYS D   4      20.488  22.270 150.223  1.00 52.11 LIG 0.27  HD
ATOM     59 HZ1  LYS D   4      20.590  23.239 149.145  1.00 52.11 LIG 0.27  HD
ENDBRANCH 55 56
ENDBRANCH 54 55
ENDBRANCH 53 54
ENDBRANCH 52 53
ENDBRANCH 37 52
ENDBRANCH 35 37
ENDBRANCH 1 33
TORSDOF 24
ENDMDL
MODEL 51
USER: ADFR SOLUTION from run 168
USER: SCORE 18.660729 LL:  -4.133 LR: -16.858 RR:   0.000 FEB:  -9.699
USER: RMSD 6.306107
USER: SEED 167
USER: STATUS no improvement in best in 18 clusters for 5 generations
USER: GENES 26
USER: genes 0 Translation |==|  0.43109 0.30713 0.32602
USER: genes 1 Rotation |==|  0.28506 0.72128 0.47826 0.89289
USER: genes 2 Torsion [CB]-CA--N-[C] |==|  0.50695
USER: genes 3 Torsion [N]-C--CA-[N] |==|  0.05556
USER: genes 4 Torsion [C]-CA--CB-[CG] |==|  0.34050
USER: genes 5 Torsion [CA]-CB--CG-[CD] |==|  0.32562
USER: genes 6 Torsion [CB]-CG--CD-[NE] |==|  0.20278
USER: genes 7 Torsion [CG]-CD--NE-[HE] |==|  0.22591
USER: genes 8 Torsion [C]-CA--N-[C] |==|  0.72875
USER: genes 9 Torsion [N]-C--CA-[N] |==|  0.96445
USER: genes 10 Torsion [C]-CA--N-[H1] |==|  0.87221
USER: genes 11 Torsion [N]-CA--CB-[CG2] |==|  0.56710
USER: genes 12 Torsion [CA]-CB--OG1-[HG1] |==|  0.46284
USER: genes 13 Torsion [N]-CA--C-[N] |==|  0.79717
USER: genes 14 Torsion [C]-N--CA-[CB] |==|  0.47490
USER: genes 15 Torsion [N]-CA--C-[N] |==|  0.35729
USER: genes 16 Torsion [C]-N--CA-[CB] |==|  0.31423
USER: genes 17 Torsion [N]-CA--CB-[CG] |==|  0.78758
USER: genes 18 Torsion [CA]-CB--CG-[CD] |==|  0.16134
USER: genes 19 Torsion [CB]-CG--CD-[OE1] |==|  0.63318
USER: genes 20 Torsion [N]-CA--C-[O] |==|  0.94857
USER: genes 21 Torsion [N]-CA--CB-[CG] |==|  0.55503
USER: genes 22 Torsion [CA]-CB--CG-[CD] |==|  0.10797
USER: genes 23 Torsion [CB]-CG--CD-[CE] |==|  0.57491
USER: genes 24 Torsion [CG]-CD--CE-[NZ] |==|  0.37098
USER: genes 25 Torsion [CD]-CE--NZ-[HZ2] |==|  0.65788
ROOT
ATOM      1  CA  THR D   3      13.898  12.500 144.464  1.00 39.79 LIG 0.20  C 
ENDROOT
BRANCH 1 2
ATOM      2  N   THR D   3      12.709  12.529 145.313  1.00 34.46 LIG-0.34  N 
ATOM      3  C   ARG D   2      12.781  12.813 146.613  1.00 39.53 LIG 0.24  C 
ATOM      4 O    ARG D   2      13.854  12.945 147.207  1.00 39.08 LIG-0.27  OA
ATOM      5 H    THR D   3      11.975  12.350 144.902  1.00 34.46 LIG 0.16  HD
BRANCH 3 6
ATOM      6  CA  ARG D   2      11.455  12.952 147.373  1.00 42.24 LIG 0.18  C 
BRANCH 6 7
ATOM      7  CB  ARG D   2      11.557  12.306 148.756  1.00 49.82 LIG 0.04  C 
BRANCH 7 8
ATOM      8  CG  ARG D   2      11.263  13.206 149.948  1.00 55.24 LIG 0.02  C 
BRANCH 8 9
ATOM      9  CD  ARG D   2      10.034  12.687 150.710  1.00 55.63 LIG 0.14  C 
BRANCH 9 10
ATOM     10  NE  ARG D   2      10.309  11.469 151.474  1.00 65.78 LIG-0.23  N 
ATOM     11 HE   ARG D   2      10.687  11.557 152.242  1.00 65.78 LIG 0.18  HD
ATOM     12  CZ  ARG D   2      10.020  10.235 151.068  1.00 70.57 LIG 0.67  C 
ATOM     13  NH1 ARG D   2       9.445  10.032 149.892  1.00 66.11 LIG-0.23  N 
ATOM     14  NH2 ARG D   2      10.312   9.195 151.840  1.00 74.94 LIG-0.23  N 
ATOM     15 1HH1 ARG D   2       9.256  10.700 149.384  1.00 66.11 LIG 0.17  HD
ATOM     16 2HH1 ARG D   2       9.260   9.232 149.635  1.00 66.11 LIG 0.17  HD
ATOM     17 2HH2 ARG D   2      10.125   8.398 151.576  1.00 74.94 LIG 0.17  HD
ATOM     18 1HH2 ARG D   2      10.689   9.318 152.603  1.00 74.94 LIG 0.17  HD
ENDBRANCH 9 10
ENDBRANCH 8 9
ENDBRANCH 7 8
ENDBRANCH 6 7
BRANCH 6 19
ATOM     19  N   ARG D   2      10.385  12.291 146.631  1.00 42.84 LIG-0.35  N 
ATOM     20  C   ALA D   1       9.560  12.954 145.838  1.00 44.74 LIG 0.25  C 
ATOM     21 O    ALA D   1       9.583  14.176 145.727  1.00 48.31 LIG-0.27  OA
ATOM     22 H    ARG D   2      10.343  11.442 146.758  1.00 42.84 LIG 0.16  HD
BRANCH 20 23
ATOM     23  CA  ALA D   1       8.550  12.105 145.063  1.00 45.19 LIG 0.27  C 
ATOM     24  CB  ALA D   1       7.154  12.323 145.605  1.00 43.32 LIG 0.05  C 
BRANCH 23 25
ATOM     25  N   ALA D   1       8.900  10.697 145.133  1.00 39.75 LIG-0.07  N 
ATOM     26 H1   ALA D   1       9.770  10.599 144.975  1.00 39.75 LIG 0.28  HD
ATOM     27 H2   ALA D   1       8.710  10.384 145.944  1.00 39.75 LIG 0.28  HD
ATOM     28 H3   ALA D   1       8.435  10.244 144.525  1.00 39.75 LIG 0.28  HD
ENDBRANCH 23 25
ENDBRANCH 20 23
ENDBRANCH 6 19
ENDBRANCH 3 6
ENDBRANCH 1 2
BRANCH 1 29
ATOM     29  CB  THR D   3      13.550  12.209 142.986  1.00 46.90 LIG 0.15  C 
ATOM     30  CG2 THR D   3      14.739  11.609 142.258  1.00 44.81 LIG 0.04  C 
BRANCH 29 31
ATOM     31 OG1  THR D   3      12.452  11.289 142.922  1.00 48.09 LIG-0.39  OA
ATOM     32 HG1  THR D   3      12.146  11.272 142.140  1.00 48.09 LIG 0.21  HD
ENDBRANCH 29 31
ENDBRANCH 1 29
BRANCH 1 33
ATOM     33  C   THR D   3      14.637  13.836 144.531  1.00 42.40 LIG 0.24  C 
ATOM     34 O    THR D   3      15.679  13.953 145.185  1.00 40.34 LIG-0.27  OA
ATOM     35  N   LYS D   4      14.108  14.864 143.926  1.00 38.45 LIG-0.35  N 
ATOM     36 H    LYS D   4      13.407  14.833 143.429  1.00 38.45 LIG 0.16  HD
BRANCH 35 37
ATOM     37  CA  LYS D   4      14.702  16.170 144.064  1.00 37.56 LIG 0.18  C 
BRANCH 37 38
ATOM     38  C   LYS D   4      14.634  16.641 145.509  1.00 44.28 LIG 0.24  C 
ATOM     39 O    LYS D   4      13.609  16.590 146.077  1.00 49.08 LIG-0.27  OA
ATOM     40  N   GLN D   5      15.766  17.061 146.046  1.00 53.59 LIG-0.35  N 
ATOM     41 H    GLN D   5      16.504  16.813 145.680  1.00 53.59 LIG 0.16  HD
BRANCH 40 42
ATOM     42  CA  GLN D   5      16.073  17.926 147.222  1.00 61.39 LIG 0.16  C 
BRANCH 42 43
ATOM     43  CB  GLN D   5      16.768  17.227 148.400  1.00 20.00 LIG 0.04  C 
BRANCH 43 44
ATOM     44  CG  GLN D   5      15.809  16.357 149.247  1.00 20.00 LIG 0.10  C 
BRANCH 44 45
ATOM     45  CD  GLN D   5      15.070  15.243 148.506  1.00 20.00 LIG 0.21  C 
ATOM     46  NE2 GLN D   5      15.818  14.453 147.746  1.00 20.00 LIG-0.37  N 
ATOM     47 21HE GLN D   5      16.662  14.596 147.677  1.00 20.00 LIG 0.16  HD
ATOM     48 22HE GLN D   5      15.457  13.798 147.322  1.00 20.00 LIG 0.16  HD
ATOM     49 OE1  GLN D   5      13.855  15.078 148.637  1.00 20.00 LIG-0.27  OA
ENDBRANCH 44 45
ENDBRANCH 43 44
ENDBRANCH 42 43
BRANCH 42 50
ATOM     50  C   GLN D   5      16.568  19.346 147.100  1.00 64.61 LIG 0.22  C 
ATOM     51 O    GLN D   5      17.048  19.747 146.080  1.00 68.60 LIG-0.29  OA
ENDBRANCH 42 50
ENDBRANCH 40 42
ENDBRANCH 37 38
BRANCH 37 52
ATOM     52  CB  LYS D   4      14.052  17.143 143.105  1.00 33.42 LIG 0.04  C 
BRANCH 52 53
ATOM     53  CG  LYS D   4      14.842  18.336 142.827  1.00 40.53 LIG 0.00  C 
BRANCH 53 54
ATOM     54  CD  LYS D   4      16.231  17.987 142.723  1.00 50.17 LIG 0.03  C 
BRANCH 54 55
ATOM     55  CE  LYS D   4      17.119  19.143 143.085  1.00 57.03 LIG 0.23  C 
BRANCH 55 56
ATOM     56  NZ  LYS D   4      18.154  18.648 143.991  1.00 52.11 LIG-0.08  N 
ATOM     57 HZ3  LYS D   4      18.008  17.787 144.166  1.00 52.11 LIG 0.27  HD
ATOM     58 HZ2  LYS D   4      18.132  19.113 144.749  1.00 52.11 LIG 0.27  HD
ATOM     59 HZ1  LYS D   4      18.952  18.741 143.608  1.00 52.11 LIG 0.27  HD
ENDBRANCH 55 56
ENDBRANCH 54 55
ENDBRANCH 53 54
ENDBRANCH 52 53
ENDBRANCH 37 52
ENDBRANCH 35 37
ENDBRANCH 1 33
TORSDOF 24
ENDMDL
MODEL 52
USER: ADFR SOLUTION from run 162
USER: SCORE 17.647329 LL:  -2.560 LR: -16.861 RR:   0.000 FEB:  -9.702
USER: RMSD 7.556532
USER: SEED 161
USER: STATUS no improvement in best in 8 clusters for 5 generations
USER: GENES 26
USER: genes 0 Translation |==|  0.37634 0.27677 0.41963
USER: genes 1 Rotation |==|  0.32630 0.83339 0.49013 0.82952
USER: genes 2 Torsion [CB]-CA--N-[C] |==|  0.87158
USER: genes 3 Torsion [N]-C--CA-[N] |==|  0.90376
USER: genes 4 Torsion [C]-CA--CB-[CG] |==|  0.49173
USER: genes 5 Torsion [CA]-CB--CG-[CD] |==|  0.41793
USER: genes 6 Torsion [CB]-CG--CD-[NE] |==|  0.60231
USER: genes 7 Torsion [CG]-CD--NE-[HE] |==|  0.20392
USER: genes 8 Torsion [C]-CA--N-[C] |==|  0.65821
USER: genes 9 Torsion [N]-C--CA-[N] |==|  0.14878
USER: genes 10 Torsion [C]-CA--N-[H1] |==|  0.23878
USER: genes 11 Torsion [N]-CA--CB-[CG2] |==|  0.61238
USER: genes 12 Torsion [CA]-CB--OG1-[HG1] |==|  0.78063
USER: genes 13 Torsion [N]-CA--C-[N] |==|  0.85628
USER: genes 14 Torsion [C]-N--CA-[CB] |==|  0.83274
USER: genes 15 Torsion [N]-CA--C-[N] |==|  0.11268
USER: genes 16 Torsion [C]-N--CA-[CB] |==|  0.40576
USER: genes 17 Torsion [N]-CA--CB-[CG] |==|  0.96040
USER: genes 18 Torsion [CA]-CB--CG-[CD] |==|  0.77043
USER: genes 19 Torsion [CB]-CG--CD-[OE1] |==|  0.22711
USER: genes 20 Torsion [N]-CA--C-[O] |==|  0.91127
USER: genes 21 Torsion [N]-CA--CB-[CG] |==|  0.53534
USER: genes 22 Torsion [CA]-CB--CG-[CD] |==|  0.27587
USER: genes 23 Torsion [CB]-CG--CD-[CE] |==|  0.19723
USER: genes 24 Torsion [CG]-CD--CE-[NZ] |==|  0.16910
USER: genes 25 Torsion [CD]-CE--NZ-[HZ2] |==|  0.93842
ROOT
ATOM      1  CA  THR D   3      12.871  11.840 146.640  1.00 39.79 LIG 0.20  C 
ENDROOT
BRANCH 1 2
ATOM      2  N   THR D   3      12.244  12.026 147.947  1.00 34.46 LIG-0.34  N 
ATOM      3  C   ARG D   2      11.303  12.948 148.149  1.00 39.53 LIG 0.24  C 
ATOM      4 O    ARG D   2      10.990  13.779 147.293  1.00 39.08 LIG-0.27  OA
ATOM      5 H    THR D   3      12.534  11.496 148.559  1.00 34.46 LIG 0.16  HD
BRANCH 3 6
ATOM      6  CA  ARG D   2      10.618  12.958 149.523  1.00 42.24 LIG 0.18  C 
BRANCH 6 7
ATOM      7  CB  ARG D   2      11.439  13.770 150.527  1.00 49.82 LIG 0.04  C 
BRANCH 7 8
ATOM      8  CG  ARG D   2      10.845  13.926 151.919  1.00 55.24 LIG 0.02  C 
BRANCH 8 9
ATOM      9  CD  ARG D   2      11.968  14.067 152.959  1.00 55.63 LIG 0.14  C 
BRANCH 9 10
ATOM     10  NE  ARG D   2      11.659  13.399 154.225  1.00 65.78 LIG-0.23  N 
ATOM     11 HE   ARG D   2      11.691  12.540 154.239  1.00 65.78 LIG 0.18  HD
ATOM     12  CZ  ARG D   2      11.332  14.022 155.354  1.00 70.57 LIG 0.67  C 
ATOM     13  NH1 ARG D   2      11.258  15.345 155.395  1.00 66.11 LIG-0.23  N 
ATOM     14  NH2 ARG D   2      11.071  13.320 156.450  1.00 74.94 LIG-0.23  N 
ATOM     15 1HH1 ARG D   2      11.422  15.806 154.688  1.00 66.11 LIG 0.17  HD
ATOM     16 2HH1 ARG D   2      11.046  15.742 156.127  1.00 66.11 LIG 0.17  HD
ATOM     17 2HH2 ARG D   2      10.859  13.724 157.179  1.00 74.94 LIG 0.17  HD
ATOM     18 1HH2 ARG D   2      11.113  12.461 156.431  1.00 74.94 LIG 0.17  HD
ENDBRANCH 9 10
ENDBRANCH 8 9
ENDBRANCH 7 8
ENDBRANCH 6 7
BRANCH 6 19
ATOM     19  N   ARG D   2      10.493  11.593 150.026  1.00 42.84 LIG-0.35  N 
ATOM     20  C   ALA D   1       9.325  11.066 150.357  1.00 44.74 LIG 0.25  C 
ATOM     21 O    ALA D   1       8.278  11.707 150.340  1.00 48.31 LIG-0.27  OA
ATOM     22 H    ARG D   2      11.239  11.170 150.085  1.00 42.84 LIG 0.16  HD
BRANCH 20 23
ATOM     23  CA  ALA D   1       9.350   9.597 150.783  1.00 45.19 LIG 0.27  C 
ATOM     24  CB  ALA D   1       7.975   9.155 151.231  1.00 43.32 LIG 0.05  C 
BRANCH 23 25
ATOM     25  N   ALA D   1      10.315   9.386 151.848  1.00 39.75 LIG-0.07  N 
ATOM     26 H1   ALA D   1       9.932   9.555 152.634  1.00 39.75 LIG 0.28  HD
ATOM     27 H2   ALA D   1      10.596   8.542 151.832  1.00 39.75 LIG 0.28  HD
ATOM     28 H3   ALA D   1      11.009   9.932 151.734  1.00 39.75 LIG 0.28  HD
ENDBRANCH 23 25
ENDBRANCH 20 23
ENDBRANCH 6 19
ENDBRANCH 3 6
ENDBRANCH 1 2
BRANCH 1 29
ATOM     29  CB  THR D   3      11.833  11.804 145.496  1.00 46.90 LIG 0.15  C 
ATOM     30  CG2 THR D   3      12.189  10.741 144.474  1.00 44.81 LIG 0.04  C 
BRANCH 29 31
ATOM     31 OG1  THR D   3      10.535  11.517 146.033  1.00 48.09 LIG-0.39  OA
ATOM     32 HG1  THR D   3      10.469  10.693 146.184  1.00 48.09 LIG 0.21  HD
ENDBRANCH 29 31
ENDBRANCH 1 29
BRANCH 1 33
ATOM     33  C   THR D   3      13.863  12.967 146.357  1.00 42.40 LIG 0.24  C 
ATOM     34 O    THR D   3      15.038  12.721 146.063  1.00 40.34 LIG-0.27  OA
ATOM     35  N   LYS D   4      13.450  14.198 146.488  1.00 38.45 LIG-0.35  N 
ATOM     36 H    LYS D   4      12.639  14.428 146.654  1.00 38.45 LIG 0.16  HD
BRANCH 35 37
ATOM     37  CA  LYS D   4      14.380  15.292 146.352  1.00 37.56 LIG 0.18  C 
BRANCH 37 38
ATOM     38  C   LYS D   4      14.927  15.359 144.934  1.00 44.28 LIG 0.24  C 
ATOM     39 O    LYS D   4      16.068  15.575 144.773  1.00 49.08 LIG-0.27  OA
ATOM     40  N   GLN D   5      14.063  15.137 143.958  1.00 53.59 LIG-0.35  N 
ATOM     41 H    GLN D   5      13.335  14.720 144.149  1.00 53.59 LIG 0.16  HD
BRANCH 40 42
ATOM     42  CA  GLN D   5      14.065  15.470 142.504  1.00 61.39 LIG 0.16  C 
BRANCH 42 43
ATOM     43  CB  GLN D   5      13.386  14.446 141.585  1.00 20.00 LIG 0.04  C 
BRANCH 43 44
ATOM     44  CG  GLN D   5      13.124  13.084 142.273  1.00 20.00 LIG 0.10  C 
BRANCH 44 45
ATOM     45  CD  GLN D   5      14.299  12.107 142.314  1.00 20.00 LIG 0.21  C 
ATOM     46  NE2 GLN D   5      14.324  11.185 141.360  1.00 20.00 LIG-0.37  N 
ATOM     47 21HE GLN D   5      13.691  11.150 140.779  1.00 20.00 LIG 0.16  HD
ATOM     48 22HE GLN D   5      14.972  10.622 141.323  1.00 20.00 LIG 0.16  HD
ATOM     49 OE1  GLN D   5      15.183  12.197 143.169  1.00 20.00 LIG-0.27  OA
ENDBRANCH 44 45
ENDBRANCH 43 44
ENDBRANCH 42 43
BRANCH 42 50
ATOM     50  C   GLN D   5      13.845  16.866 141.973  1.00 64.61 LIG 0.22  C 
ATOM     51 O    GLN D   5      13.136  17.640 142.547  1.00 68.60 LIG-0.29  OA
ENDBRANCH 42 50
ENDBRANCH 40 42
ENDBRANCH 37 38
BRANCH 37 52
ATOM     52  CB  LYS D   4      15.473  15.179 147.392  1.00 33.42 LIG 0.04  C 
BRANCH 52 53
ATOM     53  CG  LYS D   4      16.295  16.373 147.536  1.00 40.53 LIG 0.00  C 
BRANCH 53 54
ATOM     54  CD  LYS D   4      15.852  17.136 148.669  1.00 50.17 LIG 0.03  C 
BRANCH 54 55
ATOM     55  CE  LYS D   4      16.193  16.451 149.962  1.00 57.03 LIG 0.23  C 
BRANCH 55 56
ATOM     56  NZ  LYS D   4      17.648  16.320 150.029  1.00 52.11 LIG-0.08  N 
ATOM     57 HZ3  LYS D   4      17.983  16.981 150.523  1.00 52.11 LIG 0.27  HD
ATOM     58 HZ2  LYS D   4      17.988  16.362 149.208  1.00 52.11 LIG 0.27  HD
ATOM     59 HZ1  LYS D   4      17.858  15.538 150.399  1.00 52.11 LIG 0.27  HD
ENDBRANCH 55 56
ENDBRANCH 54 55
ENDBRANCH 53 54
ENDBRANCH 52 53
ENDBRANCH 37 52
ENDBRANCH 35 37
ENDBRANCH 1 33
TORSDOF 24
ENDMDL
MODEL 53
USER: ADFR SOLUTION from run 140
USER: SCORE 18.608267 LL:  -3.726 LR: -16.857 RR:   0.000 FEB:  -9.698
USER: RMSD 1.867936
USER: SEED 139
USER: STATUS no improvement in best in 4 clusters for 5 generations
USER: GENES 26
USER: genes 0 Translation |==|  0.53901 0.43148 0.43362
USER: genes 1 Rotation |==|  0.45734 0.46979 0.55598 0.99410
USER: genes 2 Torsion [CB]-CA--N-[C] |==|  0.51138
USER: genes 3 Torsion [N]-C--CA-[N] |==|  0.19454
USER: genes 4 Torsion [C]-CA--CB-[CG] |==|  0.14767
USER: genes 5 Torsion [CA]-CB--CG-[CD] |==|  0.44542
USER: genes 6 Torsion [CB]-CG--CD-[NE] |==|  0.21434
USER: genes 7 Torsion [CG]-CD--NE-[HE] |==|  0.70657
USER: genes 8 Torsion [C]-CA--N-[C] |==|  0.75567
USER: genes 9 Torsion [N]-C--CA-[N] |==|  0.40803
USER: genes 10 Torsion [C]-CA--N-[H1] |==|  0.90368
USER: genes 11 Torsion [N]-CA--CB-[CG2] |==|  0.66807
USER: genes 12 Torsion [CA]-CB--OG1-[HG1] |==|  0.17353
USER: genes 13 Torsion [N]-CA--C-[N] |==|  0.42910
USER: genes 14 Torsion [C]-N--CA-[CB] |==|  0.41989
USER: genes 15 Torsion [N]-CA--C-[N] |==|  0.94858
USER: genes 16 Torsion [C]-N--CA-[CB] |==|  0.80220
USER: genes 17 Torsion [N]-CA--CB-[CG] |==|  0.77213
USER: genes 18 Torsion [CA]-CB--CG-[CD] |==|  0.81488
USER: genes 19 Torsion [CB]-CG--CD-[OE1] |==|  0.90913
USER: genes 20 Torsion [N]-CA--C-[O] |==|  0.05865
USER: genes 21 Torsion [N]-CA--CB-[CG] |==|  0.15118
USER: genes 22 Torsion [CA]-CB--CG-[CD] |==|  0.56245
USER: genes 23 Torsion [CB]-CG--CD-[CE] |==|  0.79097
USER: genes 24 Torsion [CG]-CD--CE-[NZ] |==|  0.58356
USER: genes 25 Torsion [CD]-CE--NZ-[HZ2] |==|  0.86913
ROOT
ATOM      1  CA  THR D   3      15.921  15.205 146.966  1.00 39.79 LIG 0.20  C 
ENDROOT
BRANCH 1 2
ATOM      2  N   THR D   3      14.808  14.596 146.240  1.00 34.46 LIG-0.34  N 
ATOM      3  C   ARG D   2      13.969  13.745 146.828  1.00 39.53 LIG 0.24  C 
ATOM      4 O    ARG D   2      14.144  13.320 147.972  1.00 39.08 LIG-0.27  OA
ATOM      5 H    THR D   3      14.749  14.836 145.416  1.00 34.46 LIG 0.16  HD
BRANCH 3 6
ATOM      6  CA  ARG D   2      12.757  13.280 146.007  1.00 42.24 LIG 0.18  C 
BRANCH 6 7
ATOM      7  CB  ARG D   2      11.774  12.508 146.890  1.00 49.82 LIG 0.04  C 
BRANCH 7 8
ATOM      8  CG  ARG D   2      11.313  13.206 148.161  1.00 55.24 LIG 0.02  C 
BRANCH 8 9
ATOM      9  CD  ARG D   2      10.010  12.568 148.670  1.00 55.63 LIG 0.14  C 
BRANCH 9 10
ATOM     10  NE  ARG D   2      10.230  11.289 149.349  1.00 65.78 LIG-0.23  N 
ATOM     11 HE   ARG D   2      10.011  10.572 148.928  1.00 65.78 LIG 0.18  HD
ATOM     12  CZ  ARG D   2      10.743  11.154 150.569  1.00 70.57 LIG 0.67  C 
ATOM     13  NH1 ARG D   2      11.094  12.221 151.273  1.00 66.11 LIG-0.23  N 
ATOM     14  NH2 ARG D   2      10.902   9.945 151.094  1.00 74.94 LIG-0.23  N 
ATOM     15 1HH1 ARG D   2      10.991  13.008 150.941  1.00 66.11 LIG 0.17  HD
ATOM     16 2HH1 ARG D   2      11.426  12.127 152.061  1.00 66.11 LIG 0.17  HD
ATOM     17 2HH2 ARG D   2      11.234   9.860 151.883  1.00 74.94 LIG 0.17  HD
ATOM     18 1HH2 ARG D   2      10.673   9.248 150.646  1.00 74.94 LIG 0.17  HD
ENDBRANCH 9 10
ENDBRANCH 8 9
ENDBRANCH 7 8
ENDBRANCH 6 7
BRANCH 6 19
ATOM     19  N   ARG D   2      13.196  12.401 144.926  1.00 42.84 LIG-0.35  N 
ATOM     20  C   ALA D   1      13.562  12.865 143.743  1.00 44.74 LIG 0.25  C 
ATOM     21 O    ALA D   1      13.487  14.054 143.442  1.00 48.31 LIG-0.27  OA
ATOM     22 H    ARG D   2      13.193  11.567 145.130  1.00 42.84 LIG 0.16  HD
BRANCH 20 23
ATOM     23  CA  ALA D   1      14.079  11.825 142.747  1.00 45.19 LIG 0.27  C 
ATOM     24  CB  ALA D   1      15.579  11.677 142.873  1.00 43.32 LIG 0.05  C 
BRANCH 23 25
ATOM     25  N   ALA D   1      13.725  12.195 141.387  1.00 39.75 LIG-0.07  N 
ATOM     26 H1   ALA D   1      12.931  12.596 141.385  1.00 39.75 LIG 0.28  HD
ATOM     27 H2   ALA D   1      14.339  12.752 141.062  1.00 39.75 LIG 0.28  HD
ATOM     28 H3   ALA D   1      13.690  11.465 140.880  1.00 39.75 LIG 0.28  HD
ENDBRANCH 23 25
ENDBRANCH 20 23
ENDBRANCH 6 19
ENDBRANCH 3 6
ENDBRANCH 1 2
BRANCH 1 29
ATOM     29  CB  THR D   3      16.688  16.231 146.101  1.00 46.90 LIG 0.15  C 
ATOM     30  CG2 THR D   3      18.139  15.820 145.932  1.00 44.81 LIG 0.04  C 
BRANCH 29 31
ATOM     31 OG1  THR D   3      16.077  16.323 144.808  1.00 48.09 LIG-0.39  OA
ATOM     32 HG1  THR D   3      15.289  16.604 144.889  1.00 48.09 LIG 0.21  HD
ENDBRANCH 29 31
ENDBRANCH 1 29
BRANCH 1 33
ATOM     33  C   THR D   3      15.418  15.913 148.223  1.00 42.40 LIG 0.24  C 
ATOM     34 O    THR D   3      14.275  16.380 148.274  1.00 40.34 LIG-0.27  OA
ATOM     35  N   LYS D   4      16.247  16.062 149.220  1.00 38.45 LIG-0.35  N 
ATOM     36 H    LYS D   4      17.039  15.728 149.253  1.00 38.45 LIG 0.16  HD
BRANCH 35 37
ATOM     37  CA  LYS D   4      15.858  16.831 150.376  1.00 37.56 LIG 0.18  C 
BRANCH 37 38
ATOM     38  C   LYS D   4      16.092  18.315 150.137  1.00 44.28 LIG 0.24  C 
ATOM     39 O    LYS D   4      15.559  19.095 150.832  1.00 49.08 LIG-0.27  OA
ATOM     40  N   GLN D   5      16.918  18.630 149.155  1.00 53.59 LIG-0.35  N 
ATOM     41 H    GLN D   5      17.472  18.030 148.883  1.00 53.59 LIG 0.16  HD
BRANCH 40 42
ATOM     42  CA  GLN D   5      17.121  19.875 148.358  1.00 61.39 LIG 0.16  C 
BRANCH 42 43
ATOM     43  CB  GLN D   5      16.008  20.216 147.358  1.00 20.00 LIG 0.04  C 
BRANCH 43 44
ATOM     44  CG  GLN D   5      16.129  19.446 146.021  1.00 20.00 LIG 0.10  C 
BRANCH 44 45
ATOM     45  CD  GLN D   5      17.336  19.790 145.147  1.00 20.00 LIG 0.21  C 
ATOM     46  NE2 GLN D   5      17.815  18.802 144.401  1.00 20.00 LIG-0.37  N 
ATOM     47 21HE GLN D   5      17.461  18.020 144.444  1.00 20.00 LIG 0.16  HD
ATOM     48 22HE GLN D   5      18.480  18.944 143.876  1.00 20.00 LIG 0.16  HD
ATOM     49 OE1  GLN D   5      17.810  20.928 145.121  1.00 20.00 LIG-0.27  OA
ENDBRANCH 44 45
ENDBRANCH 43 44
ENDBRANCH 42 43
BRANCH 42 50
ATOM     50  C   GLN D   5      17.702  21.143 148.935  1.00 64.61 LIG 0.22  C 
ATOM     51 O    GLN D   5      18.365  21.121 149.931  1.00 68.60 LIG-0.29  OA
ENDBRANCH 42 50
ENDBRANCH 40 42
ENDBRANCH 37 38
BRANCH 37 52
ATOM     52  CB  LYS D   4      16.576  16.321 151.606  1.00 33.42 LIG 0.04  C 
BRANCH 52 53
ATOM     53  CG  LYS D   4      18.027  16.272 151.482  1.00 40.53 LIG 0.00  C 
BRANCH 53 54
ATOM     54  CD  LYS D   4      18.565  15.330 152.423  1.00 50.17 LIG 0.03  C 
BRANCH 54 55
ATOM     55  CE  LYS D   4      18.555  15.880 153.821  1.00 57.03 LIG 0.23  C 
BRANCH 55 56
ATOM     56  NZ  LYS D   4      19.678  15.286 154.545  1.00 52.11 LIG-0.08  N 
ATOM     57 HZ3  LYS D   4      20.440  15.643 154.255  1.00 52.11 LIG 0.27  HD
ATOM     58 HZ2  LYS D   4      19.690  14.407 154.404  1.00 52.11 LIG 0.27  HD
ATOM     59 HZ1  LYS D   4      19.588  15.446 155.415  1.00 52.11 LIG 0.27  HD
ENDBRANCH 55 56
ENDBRANCH 54 55
ENDBRANCH 53 54
ENDBRANCH 52 53
ENDBRANCH 37 52
ENDBRANCH 35 37
ENDBRANCH 1 33
TORSDOF 24
ENDMDL
MODEL 54
USER: ADFR SOLUTION from run 161
USER: SCORE 18.223743 LL:  -3.073 LR: -16.845 RR:   0.000 FEB:  -9.686
USER: RMSD 5.683826
USER: SEED 160
USER: STATUS no improvement in best in 2 clusters for 5 generations
USER: GENES 26
USER: genes 0 Translation |==|  0.48191 0.36886 0.40384
USER: genes 1 Rotation |==|  0.40058 0.37791 0.54207 0.97269
USER: genes 2 Torsion [CB]-CA--N-[C] |==|  0.23597
USER: genes 3 Torsion [N]-C--CA-[N] |==|  0.92983
USER: genes 4 Torsion [C]-CA--CB-[CG] |==|  0.91943
USER: genes 5 Torsion [CA]-CB--CG-[CD] |==|  0.83447
USER: genes 6 Torsion [CB]-CG--CD-[NE] |==|  0.83884
USER: genes 7 Torsion [CG]-CD--NE-[HE] |==|  0.27874
USER: genes 8 Torsion [C]-CA--N-[C] |==|  0.84950
USER: genes 9 Torsion [N]-C--CA-[N] |==|  0.24608
USER: genes 10 Torsion [C]-CA--N-[H1] |==|  0.34169
USER: genes 11 Torsion [N]-CA--CB-[CG2] |==|  0.19412
USER: genes 12 Torsion [CA]-CB--OG1-[HG1] |==|  0.18045
USER: genes 13 Torsion [N]-CA--C-[N] |==|  0.40576
USER: genes 14 Torsion [C]-N--CA-[CB] |==|  0.25000
USER: genes 15 Torsion [N]-CA--C-[N] |==|  0.00484
USER: genes 16 Torsion [C]-N--CA-[CB] |==|  0.93373
USER: genes 17 Torsion [N]-CA--CB-[CG] |==|  0.77096
USER: genes 18 Torsion [CA]-CB--CG-[CD] |==|  0.08834
USER: genes 19 Torsion [CB]-CG--CD-[OE1] |==|  0.27081
USER: genes 20 Torsion [N]-CA--C-[O] |==|  0.52535
USER: genes 21 Torsion [N]-CA--CB-[CG] |==|  0.93200
USER: genes 22 Torsion [CA]-CB--CG-[CD] |==|  0.49289
USER: genes 23 Torsion [CB]-CG--CD-[CE] |==|  0.63803
USER: genes 24 Torsion [CG]-CD--CE-[NZ] |==|  0.30050
USER: genes 25 Torsion [CD]-CE--NZ-[HZ2] |==|  0.64875
ROOT
ATOM      1  CA  THR D   3      14.851  13.843 146.273  1.00 39.79 LIG 0.20  C 
ENDROOT
BRANCH 1 2
ATOM      2  N   THR D   3      14.067  13.098 145.290  1.00 34.46 LIG-0.34  N 
ATOM      3  C   ARG D   2      14.465  11.912 144.828  1.00 39.53 LIG 0.24  C 
ATOM      4 O    ARG D   2      15.565  11.427 145.100  1.00 39.08 LIG-0.27  OA
ATOM      5 H    THR D   3      13.342  13.489 145.044  1.00 34.46 LIG 0.16  HD
BRANCH 3 6
ATOM      6  CA  ARG D   2      13.493  11.161 143.907  1.00 42.24 LIG 0.18  C 
BRANCH 6 7
ATOM      7  CB  ARG D   2      13.810  11.453 142.439  1.00 49.82 LIG 0.04  C 
BRANCH 7 8
ATOM      8  CG  ARG D   2      14.436  12.807 142.136  1.00 55.24 LIG 0.02  C 
BRANCH 8 9
ATOM      9  CD  ARG D   2      13.499  13.935 142.596  1.00 55.63 LIG 0.14  C 
BRANCH 9 10
ATOM     10  NE  ARG D   2      12.178  13.871 141.967  1.00 65.78 LIG-0.23  N 
ATOM     11 HE   ARG D   2      11.535  13.532 142.426  1.00 65.78 LIG 0.18  HD
ATOM     12  CZ  ARG D   2      11.900  14.296 140.736  1.00 70.57 LIG 0.67  C 
ATOM     13  NH1 ARG D   2      12.851  14.820 139.976  1.00 66.11 LIG-0.23  N 
ATOM     14  NH2 ARG D   2      10.666  14.192 140.259  1.00 74.94 LIG-0.23  N 
ATOM     15 1HH1 ARG D   2      13.653  14.888 140.276  1.00 66.11 LIG 0.17  HD
ATOM     16 2HH1 ARG D   2      12.665  15.093 139.182  1.00 66.11 LIG 0.17  HD
ATOM     17 2HH2 ARG D   2      10.488  14.467 139.464  1.00 74.94 LIG 0.17  HD
ATOM     18 1HH2 ARG D   2      10.045  13.849 140.745  1.00 74.94 LIG 0.17  HD
ENDBRANCH 9 10
ENDBRANCH 8 9
ENDBRANCH 7 8
ENDBRANCH 6 7
BRANCH 6 19
ATOM     19  N   ARG D   2      12.122  11.585 144.178  1.00 42.84 LIG-0.35  N 
ATOM     20  C   ALA D   1      11.595  11.543 145.390  1.00 44.74 LIG 0.25  C 
ATOM     21 O    ALA D   1      12.190  11.077 146.358  1.00 48.31 LIG-0.27  OA
ATOM     22 H    ARG D   2      11.697  11.860 143.483  1.00 42.84 LIG 0.16  HD
BRANCH 20 23
ATOM     23  CA  ALA D   1      10.179  12.105 145.525  1.00 45.19 LIG 0.27  C 
ATOM     24  CB  ALA D   1       9.975  12.696 146.902  1.00 43.32 LIG 0.05  C 
BRANCH 23 25
ATOM     25  N   ALA D   1       9.190  11.071 145.273  1.00 39.75 LIG-0.07  N 
ATOM     26 H1   ALA D   1       8.652  10.996 145.978  1.00 39.75 LIG 0.28  HD
ATOM     27 H2   ALA D   1       8.710  11.288 144.556  1.00 39.75 LIG 0.28  HD
ATOM     28 H3   ALA D   1       9.601  10.295 145.130  1.00 39.75 LIG 0.28  HD
ENDBRANCH 23 25
ENDBRANCH 20 23
ENDBRANCH 6 19
ENDBRANCH 3 6
ENDBRANCH 1 2
BRANCH 1 29
ATOM     29  CB  THR D   3      15.957  14.696 145.611  1.00 46.90 LIG 0.15  C 
ATOM     30  CG2 THR D   3      15.357  15.857 144.841  1.00 44.81 LIG 0.04  C 
BRANCH 29 31
ATOM     31 OG1  THR D   3      16.837  15.210 146.619  1.00 48.09 LIG-0.39  OA
ATOM     32 HG1  THR D   3      17.241  14.573 146.990  1.00 48.09 LIG 0.21  HD
ENDBRANCH 29 31
ENDBRANCH 1 29
BRANCH 1 33
ATOM     33  C   THR D   3      13.948  14.770 147.086  1.00 42.40 LIG 0.24  C 
ATOM     34 O    THR D   3      12.992  15.348 146.559  1.00 40.34 LIG-0.27  OA
ATOM     35  N   LYS D   4      14.247  14.979 148.339  1.00 38.45 LIG-0.35  N 
ATOM     36 H    LYS D   4      14.877  14.578 148.766  1.00 38.45 LIG 0.16  HD
BRANCH 35 37
ATOM     37  CA  LYS D   4      13.500  15.940 149.112  1.00 37.56 LIG 0.18  C 
BRANCH 37 38
ATOM     38  C   LYS D   4      14.406  16.650 150.106  1.00 44.28 LIG 0.24  C 
ATOM     39 O    LYS D   4      13.937  17.427 150.849  1.00 49.08 LIG-0.27  OA
ATOM     40  N   GLN D   5      15.685  16.316 150.081  1.00 53.59 LIG-0.35  N 
ATOM     41 H    GLN D   5      15.900  15.565 149.722  1.00 53.59 LIG 0.16  HD
BRANCH 40 42
ATOM     42  CA  GLN D   5      16.921  16.994 150.567  1.00 61.39 LIG 0.16  C 
BRANCH 42 43
ATOM     43  CB  GLN D   5      16.835  18.521 150.705  1.00 20.00 LIG 0.04  C 
BRANCH 43 44
ATOM     44  CG  GLN D   5      17.066  19.270 149.370  1.00 20.00 LIG 0.10  C 
BRANCH 44 45
ATOM     45  CD  GLN D   5      16.606  18.553 148.101  1.00 20.00 LIG 0.21  C 
ATOM     46  NE2 GLN D   5      17.431  17.631 147.621  1.00 20.00 LIG-0.37  N 
ATOM     47 21HE GLN D   5      18.183  17.482 148.010  1.00 20.00 LIG 0.16  HD
ATOM     48 22HE GLN D   5      17.214  17.182 146.921  1.00 20.00 LIG 0.16  HD
ATOM     49 OE1  GLN D   5      15.518  18.803 147.578  1.00 20.00 LIG-0.27  OA
ENDBRANCH 44 45
ENDBRANCH 43 44
ENDBRANCH 42 43
BRANCH 42 50
ATOM     50  C   GLN D   5      17.806  16.428 151.651  1.00 64.61 LIG 0.22  C 
ATOM     51 O    GLN D   5      18.695  17.075 152.123  1.00 68.60 LIG-0.29  OA
ENDBRANCH 42 50
ENDBRANCH 40 42
ENDBRANCH 37 38
BRANCH 37 52
ATOM     52  CB  LYS D   4      12.320  15.268 149.778  1.00 33.42 LIG 0.04  C 
BRANCH 52 53
ATOM     53  CG  LYS D   4      11.859  14.057 149.111  1.00 40.53 LIG 0.00  C 
BRANCH 53 54
ATOM     54  CD  LYS D   4      10.780  13.471 149.856  1.00 50.17 LIG 0.03  C 
BRANCH 54 55
ATOM     55  CE  LYS D   4      11.007  12.005 150.093  1.00 57.03 LIG 0.23  C 
BRANCH 55 56
ATOM     56  NZ  LYS D   4      11.326  11.824 151.509  1.00 52.11 LIG-0.08  N 
ATOM     57 HZ3  LYS D   4      11.408  12.620 151.899  1.00 52.11 LIG 0.27  HD
ATOM     58 HZ2  LYS D   4      12.090  11.376 151.586  1.00 52.11 LIG 0.27  HD
ATOM     59 HZ1  LYS D   4      10.672  11.367 151.904  1.00 52.11 LIG 0.27  HD
ENDBRANCH 55 56
ENDBRANCH 54 55
ENDBRANCH 53 54
ENDBRANCH 52 53
ENDBRANCH 37 52
ENDBRANCH 35 37
ENDBRANCH 1 33
TORSDOF 24
ENDMDL
MODEL 55
USER: ADFR SOLUTION from run 169
USER: SCORE 17.789353 LL:  -2.622 LR: -16.853 RR:   0.000 FEB:  -9.694
USER: RMSD 4.775261
USER: SEED 168
USER: STATUS no improvement in best in 14 clusters for 5 generations
USER: GENES 26
USER: genes 0 Translation |==|  0.53936 0.47918 0.45122
USER: genes 1 Rotation |==|  0.32699 0.54997 0.50561 0.96641
USER: genes 2 Torsion [CB]-CA--N-[C] |==|  0.24063
USER: genes 3 Torsion [N]-C--CA-[N] |==|  0.42110
USER: genes 4 Torsion [C]-CA--CB-[CG] |==|  0.55361
USER: genes 5 Torsion [CA]-CB--CG-[CD] |==|  0.53191
USER: genes 6 Torsion [CB]-CG--CD-[NE] |==|  0.68769
USER: genes 7 Torsion [CG]-CD--NE-[HE] |==|  0.34649
USER: genes 8 Torsion [C]-CA--N-[C] |==|  0.78420
USER: genes 9 Torsion [N]-C--CA-[N] |==|  0.20194
USER: genes 10 Torsion [C]-CA--N-[H1] |==|  0.14744
USER: genes 11 Torsion [N]-CA--CB-[CG2] |==|  0.74524
USER: genes 12 Torsion [CA]-CB--OG1-[HG1] |==|  0.86055
USER: genes 13 Torsion [N]-CA--C-[N] |==|  0.51500
USER: genes 14 Torsion [C]-N--CA-[CB] |==|  0.80911
USER: genes 15 Torsion [N]-CA--C-[N] |==|  0.20493
USER: genes 16 Torsion [C]-N--CA-[CB] |==|  0.37937
USER: genes 17 Torsion [N]-CA--CB-[CG] |==|  0.90954
USER: genes 18 Torsion [CA]-CB--CG-[CD] |==|  0.24459
USER: genes 19 Torsion [CB]-CG--CD-[OE1] |==|  0.24565
USER: genes 20 Torsion [N]-CA--C-[O] |==|  0.03382
USER: genes 21 Torsion [N]-CA--CB-[CG] |==|  0.76905
USER: genes 22 Torsion [CA]-CB--CG-[CD] |==|  0.24410
USER: genes 23 Torsion [CB]-CG--CD-[CE] |==|  0.48888
USER: genes 24 Torsion [CG]-CD--CE-[NZ] |==|  0.38744
USER: genes 25 Torsion [CD]-CE--NZ-[HZ2] |==|  0.01111
ROOT
ATOM      1  CA  THR D   3      15.928  16.242 147.375  1.00 39.79 LIG 0.20  C 
ENDROOT
BRANCH 1 2
ATOM      2  N   THR D   3      14.566  15.718 147.284  1.00 34.46 LIG-0.34  N 
ATOM      3  C   ARG D   2      14.320  14.410 147.217  1.00 39.53 LIG 0.24  C 
ATOM      4 O    ARG D   2      15.215  13.570 147.103  1.00 39.08 LIG-0.27  OA
ATOM      5 H    THR D   3      13.954  16.322 147.278  1.00 34.46 LIG 0.16  HD
BRANCH 3 6
ATOM      6  CA  ARG D   2      12.850  13.973 147.267  1.00 42.24 LIG 0.18  C 
BRANCH 6 7
ATOM      7  CB  ARG D   2      12.400  13.764 148.714  1.00 49.82 LIG 0.04  C 
BRANCH 7 8
ATOM      8  CG  ARG D   2      11.154  12.915 148.921  1.00 55.24 LIG 0.02  C 
BRANCH 8 9
ATOM      9  CD  ARG D   2      10.670  13.034 150.375  1.00 55.63 LIG 0.14  C 
BRANCH 9 10
ATOM     10  NE  ARG D   2      10.816  11.786 151.127  1.00 65.78 LIG-0.23  N 
ATOM     11 HE   ARG D   2      11.264  11.813 151.860  1.00 65.78 LIG 0.18  HD
ATOM     12  CZ  ARG D   2      10.307  10.612 150.759  1.00 70.57 LIG 0.67  C 
ATOM     13  NH1 ARG D   2       9.613  10.503 149.635  1.00 66.11 LIG-0.23  N 
ATOM     14  NH2 ARG D   2      10.497   9.538 151.516  1.00 74.94 LIG-0.23  N 
ATOM     15 1HH1 ARG D   2       9.489  11.193 149.138  1.00 66.11 LIG 0.17  HD
ATOM     16 2HH1 ARG D   2       9.287   9.742 149.403  1.00 66.11 LIG 0.17  HD
ATOM     17 2HH2 ARG D   2      10.168   8.781 151.276  1.00 74.94 LIG 0.17  HD
ATOM     18 1HH2 ARG D   2      10.950   9.600 152.244  1.00 74.94 LIG 0.17  HD
ENDBRANCH 9 10
ENDBRANCH 8 9
ENDBRANCH 7 8
ENDBRANCH 6 7
BRANCH 6 19
ATOM     19  N   ARG D   2      12.680  12.716 146.544  1.00 42.84 LIG-0.35  N 
ATOM     20  C   ALA D   1      12.634  12.660 145.223  1.00 44.74 LIG 0.25  C 
ATOM     21 O    ALA D   1      12.654  13.663 144.514  1.00 48.31 LIG-0.27  OA
ATOM     22 H    ARG D   2      12.613  12.025 147.051  1.00 42.84 LIG 0.16  HD
BRANCH 20 23
ATOM     23  CA  ALA D   1      12.541  11.260 144.614  1.00 45.19 LIG 0.27  C 
ATOM     24  CB  ALA D   1      12.861  11.305 143.137  1.00 43.32 LIG 0.05  C 
BRANCH 23 25
ATOM     25  N   ALA D   1      11.218  10.696 144.822  1.00 39.75 LIG-0.07  N 
ATOM     26 H1   ALA D   1      10.602  11.265 144.526  1.00 39.75 LIG 0.28  HD
ATOM     27 H2   ALA D   1      11.150   9.928 144.378  1.00 39.75 LIG 0.28  HD
ATOM     28 H3   ALA D   1      11.091  10.547 145.691  1.00 39.75 LIG 0.28  HD
ENDBRANCH 23 25
ENDBRANCH 20 23
ENDBRANCH 6 19
ENDBRANCH 3 6
ENDBRANCH 1 2
BRANCH 1 29
ATOM     29  CB  THR D   3      16.573  16.431 145.983  1.00 46.90 LIG 0.15  C 
ATOM     30  CG2 THR D   3      17.339  15.189 145.568  1.00 44.81 LIG 0.04  C 
BRANCH 29 31
ATOM     31 OG1  THR D   3      15.552  16.695 145.011  1.00 48.09 LIG-0.39  OA
ATOM     32 HG1  THR D   3      14.945  16.118 145.077  1.00 48.09 LIG 0.21  HD
ENDBRANCH 29 31
ENDBRANCH 1 29
BRANCH 1 33
ATOM     33  C   THR D   3      15.936  17.589 148.098  1.00 42.40 LIG 0.24  C 
ATOM     34 O    THR D   3      14.895  18.070 148.556  1.00 40.34 LIG-0.27  OA
ATOM     35  N   LYS D   4      17.064  18.243 148.168  1.00 38.45 LIG-0.35  N 
ATOM     36 H    LYS D   4      17.823  17.942 147.898  1.00 38.45 LIG 0.16  HD
BRANCH 35 37
ATOM     37  CA  LYS D   4      17.096  19.571 148.729  1.00 37.56 LIG 0.18  C 
BRANCH 37 38
ATOM     38  C   LYS D   4      16.532  19.570 150.142  1.00 44.28 LIG 0.24  C 
ATOM     39 O    LYS D   4      15.459  20.004 150.327  1.00 49.08 LIG-0.27  OA
ATOM     40  N   GLN D   5      17.299  19.043 151.082  1.00 53.59 LIG-0.35  N 
ATOM     41 H    GLN D   5      17.926  18.507 150.839  1.00 53.59 LIG 0.16  HD
BRANCH 40 42
ATOM     42  CA  GLN D   5      17.322  19.178 152.567  1.00 61.39 LIG 0.16  C 
BRANCH 42 43
ATOM     43  CB  GLN D   5      17.515  17.873 153.352  1.00 20.00 LIG 0.04  C 
BRANCH 43 44
ATOM     44  CG  GLN D   5      16.884  16.642 152.657  1.00 20.00 LIG 0.10  C 
BRANCH 44 45
ATOM     45  CD  GLN D   5      17.768  15.903 151.653  1.00 20.00 LIG 0.21  C 
ATOM     46  NE2 GLN D   5      17.699  16.323 150.396  1.00 20.00 LIG-0.37  N 
ATOM     47 21HE GLN D   5      17.163  16.961 150.185  1.00 20.00 LIG 0.16  HD
ATOM     48 22HE GLN D   5      18.190  15.956 149.793  1.00 20.00 LIG 0.16  HD
ATOM     49 OE1  GLN D   5      18.521  14.991 152.005  1.00 20.00 LIG-0.27  OA
ENDBRANCH 44 45
ENDBRANCH 43 44
ENDBRANCH 42 43
BRANCH 42 50
ATOM     50  C   GLN D   5      18.004  20.317 153.285  1.00 64.61 LIG 0.22  C 
ATOM     51 O    GLN D   5      18.377  21.286 152.691  1.00 68.60 LIG-0.29  OA
ENDBRANCH 42 50
ENDBRANCH 40 42
ENDBRANCH 37 38
BRANCH 37 52
ATOM     52  CB  LYS D   4      16.377  20.540 147.817  1.00 33.42 LIG 0.04  C 
BRANCH 52 53
ATOM     53  CG  LYS D   4      17.187  21.049 146.718  1.00 40.53 LIG 0.00  C 
BRANCH 53 54
ATOM     54  CD  LYS D   4      17.093  20.164 145.592  1.00 50.17 LIG 0.03  C 
BRANCH 54 55
ATOM     55  CE  LYS D   4      17.837  20.702 144.403  1.00 57.03 LIG 0.23  C 
BRANCH 55 56
ATOM     56  NZ  LYS D   4      18.526  19.583 143.761  1.00 52.11 LIG-0.08  N 
ATOM     57 HZ3  LYS D   4      18.281  19.535 142.906  1.00 52.11 LIG 0.27  HD
ATOM     58 HZ2  LYS D   4      18.310  18.825 144.174  1.00 52.11 LIG 0.27  HD
ATOM     59 HZ1  LYS D   4      19.405  19.708 143.810  1.00 52.11 LIG 0.27  HD
ENDBRANCH 55 56
ENDBRANCH 54 55
ENDBRANCH 53 54
ENDBRANCH 52 53
ENDBRANCH 37 52
ENDBRANCH 35 37
ENDBRANCH 1 33
TORSDOF 24
ENDMDL
MODEL 56
USER: ADFR SOLUTION from run 147
USER: SCORE 17.867502 LL:  -2.448 LR: -16.847 RR:   0.000 FEB:  -9.687
USER: RMSD 6.370073
USER: SEED 146
USER: STATUS no improvement in best in 5 clusters for 5 generations
USER: GENES 26
USER: genes 0 Translation |==|  0.37102 0.28855 0.28822
USER: genes 1 Rotation |==|  0.54486 0.53131 0.30865 0.95869
USER: genes 2 Torsion [CB]-CA--N-[C] |==|  0.85556
USER: genes 3 Torsion [N]-C--CA-[N] |==|  0.65393
USER: genes 4 Torsion [C]-CA--CB-[CG] |==|  0.23493
USER: genes 5 Torsion [CA]-CB--CG-[CD] |==|  0.97114
USER: genes 6 Torsion [CB]-CG--CD-[NE] |==|  0.55020
USER: genes 7 Torsion [CG]-CD--NE-[HE] |==|  0.72777
USER: genes 8 Torsion [C]-CA--N-[C] |==|  0.14113
USER: genes 9 Torsion [N]-C--CA-[N] |==|  0.73830
USER: genes 10 Torsion [C]-CA--N-[H1] |==|  0.33212
USER: genes 11 Torsion [N]-CA--CB-[CG2] |==|  0.42577
USER: genes 12 Torsion [CA]-CB--OG1-[HG1] |==|  0.19527
USER: genes 13 Torsion [N]-CA--C-[N] |==|  0.97757
USER: genes 14 Torsion [C]-N--CA-[CB] |==|  0.86042
USER: genes 15 Torsion [N]-CA--C-[N] |==|  0.33964
USER: genes 16 Torsion [C]-N--CA-[CB] |==|  0.21621
USER: genes 17 Torsion [N]-CA--CB-[CG] |==|  0.99268
USER: genes 18 Torsion [CA]-CB--CG-[CD] |==|  0.57175
USER: genes 19 Torsion [CB]-CG--CD-[OE1] |==|  0.56730
USER: genes 20 Torsion [N]-CA--C-[O] |==|  0.72682
USER: genes 21 Torsion [N]-CA--CB-[CG] |==|  0.73064
USER: genes 22 Torsion [CA]-CB--CG-[CD] |==|  0.64142
USER: genes 23 Torsion [CB]-CG--CD-[CE] |==|  0.67096
USER: genes 24 Torsion [CG]-CD--CE-[NZ] |==|  0.46596
USER: genes 25 Torsion [CD]-CE--NZ-[HZ2] |==|  0.55941
ROOT
ATOM      1  CA  THR D   3      12.772  12.096 143.585  1.00 39.79 LIG 0.20  C 
ENDROOT
BRANCH 1 2
ATOM      2  N   THR D   3      11.684  12.976 143.162  1.00 34.46 LIG-0.34  N 
ATOM      3  C   ARG D   2      11.846  14.295 143.066  1.00 39.53 LIG 0.24  C 
ATOM      4 O    ARG D   2      12.870  14.870 143.441  1.00 39.08 LIG-0.27  OA
ATOM      5 H    THR D   3      10.947  12.569 142.986  1.00 34.46 LIG 0.16  HD
BRANCH 3 6
ATOM      6  CA  ARG D   2      10.679  15.101 142.478  1.00 42.24 LIG 0.18  C 
BRANCH 6 7
ATOM      7  CB  ARG D   2       9.568  14.164 141.997  1.00 49.82 LIG 0.04  C 
BRANCH 7 8
ATOM      8  CG  ARG D   2       8.567  13.704 143.047  1.00 55.24 LIG 0.02  C 
BRANCH 8 9
ATOM      9  CD  ARG D   2       9.056  14.095 144.450  1.00 55.63 LIG 0.14  C 
BRANCH 9 10
ATOM     10  NE  ARG D   2       8.392  13.342 145.516  1.00 65.78 LIG-0.23  N 
ATOM     11 HE   ARG D   2       7.732  13.719 145.917  1.00 65.78 LIG 0.18  HD
ATOM     12  CZ  ARG D   2       8.734  12.118 145.909  1.00 70.57 LIG 0.67  C 
ATOM     13  NH1 ARG D   2       9.748  11.486 145.334  1.00 66.11 LIG-0.23  N 
ATOM     14  NH2 ARG D   2       8.064  11.521 146.887  1.00 74.94 LIG-0.23  N 
ATOM     15 1HH1 ARG D   2      10.189  11.867 144.703  1.00 66.11 LIG 0.17  HD
ATOM     16 2HH1 ARG D   2       9.964  10.695 145.593  1.00 66.11 LIG 0.17  HD
ATOM     17 2HH2 ARG D   2       8.286  10.730 147.140  1.00 74.94 LIG 0.17  HD
ATOM     18 1HH2 ARG D   2       7.407  11.926 147.268  1.00 74.94 LIG 0.17  HD
ENDBRANCH 9 10
ENDBRANCH 8 9
ENDBRANCH 7 8
ENDBRANCH 6 7
BRANCH 6 19
ATOM     19  N   ARG D   2      11.142  15.890 141.341  1.00 42.84 LIG-0.35  N 
ATOM     20  C   ALA D   1      11.833  15.359 140.345  1.00 44.74 LIG 0.25  C 
ATOM     21 O    ALA D   1      12.200  14.187 140.342  1.00 48.31 LIG-0.27  OA
ATOM     22 H    ARG D   2      10.925  16.721 141.379  1.00 42.84 LIG 0.16  HD
BRANCH 20 23
ATOM     23  CA  ALA D   1      12.167  16.299 139.186  1.00 45.19 LIG 0.27  C 
ATOM     24  CB  ALA D   1      12.256  17.728 139.675  1.00 43.32 LIG 0.05  C 
BRANCH 23 25
ATOM     25  N   ALA D   1      11.172  16.191 138.133  1.00 39.75 LIG-0.07  N 
ATOM     26 H1   ALA D   1      10.781  16.982 138.012  1.00 39.75 LIG 0.28  HD
ATOM     27 H2   ALA D   1      11.566  15.937 137.377  1.00 39.75 LIG 0.28  HD
ATOM     28 H3   ALA D   1      10.558  15.590 138.365  1.00 39.75 LIG 0.28  HD
ENDBRANCH 23 25
ENDBRANCH 20 23
ENDBRANCH 6 19
ENDBRANCH 3 6
ENDBRANCH 1 2
BRANCH 1 29
ATOM     29  CB  THR D   3      14.059  12.325 142.762  1.00 46.90 LIG 0.15  C 
ATOM     30  CG2 THR D   3      15.290  11.945 143.563  1.00 44.81 LIG 0.04  C 
BRANCH 29 31
ATOM     31 OG1  THR D   3      14.016  11.531 141.569  1.00 48.09 LIG-0.39  OA
ATOM     32 HG1  THR D   3      13.437  11.842 141.045  1.00 48.09 LIG 0.21  HD
ENDBRANCH 29 31
ENDBRANCH 1 29
BRANCH 1 33
ATOM     33  C   THR D   3      13.097  12.318 145.062  1.00 42.40 LIG 0.24  C 
ATOM     34 O    THR D   3      13.843  11.544 145.671  1.00 40.34 LIG-0.27  OA
ATOM     35  N   LYS D   4      12.521  13.316 145.676  1.00 38.45 LIG-0.35  N 
ATOM     36 H    LYS D   4      12.024  13.904 145.295  1.00 38.45 LIG 0.16  HD
BRANCH 35 37
ATOM     37  CA  LYS D   4      12.700  13.492 147.096  1.00 37.56 LIG 0.18  C 
BRANCH 37 38
ATOM     38  C   LYS D   4      14.087  14.038 147.399  1.00 44.28 LIG 0.24  C 
ATOM     39 O    LYS D   4      15.027  13.448 147.019  1.00 49.08 LIG-0.27  OA
ATOM     40  N   GLN D   5      14.138  15.180 148.062  1.00 53.59 LIG-0.35  N 
ATOM     41 H    GLN D   5      13.440  15.682 148.058  1.00 53.59 LIG 0.16  HD
BRANCH 40 42
ATOM     42  CA  GLN D   5      15.206  15.839 148.869  1.00 61.39 LIG 0.16  C 
BRANCH 42 43
ATOM     43  CB  GLN D   5      16.315  16.534 148.066  1.00 20.00 LIG 0.04  C 
BRANCH 43 44
ATOM     44  CG  GLN D   5      16.158  16.369 146.535  1.00 20.00 LIG 0.10  C 
BRANCH 44 45
ATOM     45  CD  GLN D   5      17.440  16.462 145.708  1.00 20.00 LIG 0.21  C 
ATOM     46  NE2 GLN D   5      18.565  16.146 146.338  1.00 20.00 LIG-0.37  N 
ATOM     47 21HE GLN D   5      18.545  15.926 147.169  1.00 20.00 LIG 0.16  HD
ATOM     48 22HE GLN D   5      19.313  16.161 145.915  1.00 20.00 LIG 0.16  HD
ATOM     49 OE1  GLN D   5      17.418  16.784 144.518  1.00 20.00 LIG-0.27  OA
ENDBRANCH 44 45
ENDBRANCH 43 44
ENDBRANCH 42 43
BRANCH 42 50
ATOM     50  C   GLN D   5      14.931  16.606 150.139  1.00 64.61 LIG 0.22  C 
ATOM     51 O    GLN D   5      14.846  17.800 150.134  1.00 68.60 LIG-0.29  OA
ENDBRANCH 42 50
ENDBRANCH 40 42
ENDBRANCH 37 38
BRANCH 37 52
ATOM     52  CB  LYS D   4      12.415  12.195 147.821  1.00 33.42 LIG 0.04  C 
BRANCH 52 53
ATOM     53  CG  LYS D   4      11.068  12.093 148.368  1.00 40.53 LIG 0.00  C 
BRANCH 53 54
ATOM     54  CD  LYS D   4      11.131  11.713 149.751  1.00 50.17 LIG 0.03  C 
BRANCH 54 55
ATOM     55  CE  LYS D   4      10.449  10.397 149.993  1.00 57.03 LIG 0.23  C 
BRANCH 55 56
ATOM     56  NZ  LYS D   4      10.808   9.946 151.337  1.00 52.11 LIG-0.08  N 
ATOM     57 HZ3  LYS D   4      11.662  10.142 151.498  1.00 52.11 LIG 0.27  HD
ATOM     58 HZ2  LYS D   4      10.690   9.066 151.397  1.00 52.11 LIG 0.27  HD
ATOM     59 HZ1  LYS D   4      10.292  10.356 151.936  1.00 52.11 LIG 0.27  HD
ENDBRANCH 55 56
ENDBRANCH 54 55
ENDBRANCH 53 54
ENDBRANCH 52 53
ENDBRANCH 37 52
ENDBRANCH 35 37
ENDBRANCH 1 33
TORSDOF 24
ENDMDL
MODEL 57
USER: ADFR SOLUTION from run 156
USER: SCORE 17.241483 LL:  -2.937 LR: -16.841 RR:   0.000 FEB:  -9.682
USER: RMSD 2.387715
USER: SEED 155
USER: STATUS searching
USER: GENES 26
USER: genes 0 Translation |==|  0.53374 0.45279 0.45810
USER: genes 1 Rotation |==|  0.52884 0.50980 0.51598 0.99882
USER: genes 2 Torsion [CB]-CA--N-[C] |==|  0.45206
USER: genes 3 Torsion [N]-C--CA-[N] |==|  0.37369
USER: genes 4 Torsion [C]-CA--CB-[CG] |==|  0.88758
USER: genes 5 Torsion [CA]-CB--CG-[CD] |==|  0.84127
USER: genes 6 Torsion [CB]-CG--CD-[NE] |==|  0.73924
USER: genes 7 Torsion [CG]-CD--NE-[HE] |==|  0.22521
USER: genes 8 Torsion [C]-CA--N-[C] |==|  0.84362
USER: genes 9 Torsion [N]-C--CA-[N] |==|  0.04628
USER: genes 10 Torsion [C]-CA--N-[H1] |==|  0.10287
USER: genes 11 Torsion [N]-CA--CB-[CG2] |==|  0.19208
USER: genes 12 Torsion [CA]-CB--OG1-[HG1] |==|  0.80755
USER: genes 13 Torsion [N]-CA--C-[N] |==|  0.48198
USER: genes 14 Torsion [C]-N--CA-[CB] |==|  0.46111
USER: genes 15 Torsion [N]-CA--C-[N] |==|  0.80280
USER: genes 16 Torsion [C]-N--CA-[CB] |==|  0.24822
USER: genes 17 Torsion [N]-CA--CB-[CG] |==|  0.68658
USER: genes 18 Torsion [CA]-CB--CG-[CD] |==|  0.30739
USER: genes 19 Torsion [CB]-CG--CD-[OE1] |==|  0.32737
USER: genes 20 Torsion [N]-CA--C-[O] |==|  0.22982
USER: genes 21 Torsion [N]-CA--CB-[CG] |==|  0.65621
USER: genes 22 Torsion [CA]-CB--CG-[CD] |==|  0.56736
USER: genes 23 Torsion [CB]-CG--CD-[CE] |==|  0.53880
USER: genes 24 Torsion [CG]-CD--CE-[NZ] |==|  0.38236
USER: genes 25 Torsion [CD]-CE--NZ-[HZ2] |==|  0.04837
ROOT
ATOM      1  CA  THR D   3      15.823  15.668 147.535  1.00 39.79 LIG 0.20  C 
ENDROOT
BRANCH 1 2
ATOM      2  N   THR D   3      14.521  15.442 146.910  1.00 34.46 LIG-0.34  N 
ATOM      3  C   ARG D   2      13.823  14.327 147.125  1.00 39.53 LIG 0.24  C 
ATOM      4 O    ARG D   2      14.277  13.369 147.755  1.00 39.08 LIG-0.27  OA
ATOM      5 H    THR D   3      14.255  16.084 146.402  1.00 34.46 LIG 0.16  HD
BRANCH 3 6
ATOM      6  CA  ARG D   2      12.410  14.262 146.529  1.00 42.24 LIG 0.18  C 
BRANCH 6 7
ATOM      7  CB  ARG D   2      11.356  14.425 147.626  1.00 49.82 LIG 0.04  C 
BRANCH 7 8
ATOM      8  CG  ARG D   2      11.630  13.710 148.941  1.00 55.24 LIG 0.02  C 
BRANCH 8 9
ATOM      9  CD  ARG D   2      11.816  12.205 148.695  1.00 55.63 LIG 0.14  C 
BRANCH 9 10
ATOM     10  NE  ARG D   2      10.577  11.443 148.864  1.00 65.78 LIG-0.23  N 
ATOM     11 HE   ARG D   2      10.022  11.435 148.207  1.00 65.78 LIG 0.18  HD
ATOM     12  CZ  ARG D   2      10.246  10.762 149.959  1.00 70.57 LIG 0.67  C 
ATOM     13  NH1 ARG D   2      11.056  10.741 151.008  1.00 66.11 LIG-0.23  N 
ATOM     14  NH2 ARG D   2       9.096  10.101 150.009  1.00 74.94 LIG-0.23  N 
ATOM     15 1HH1 ARG D   2      11.801  11.170 150.984  1.00 66.11 LIG 0.17  HD
ATOM     16 2HH1 ARG D   2      10.837  10.300 151.712  1.00 66.11 LIG 0.17  HD
ATOM     17 2HH2 ARG D   2       8.884   9.662 150.718  1.00 74.94 LIG 0.17  HD
ATOM     18 1HH2 ARG D   2       8.563  10.113 149.334  1.00 74.94 LIG 0.17  HD
ENDBRANCH 9 10
ENDBRANCH 8 9
ENDBRANCH 7 8
ENDBRANCH 6 7
BRANCH 6 19
ATOM     19  N   ARG D   2      12.203  12.971 145.878  1.00 42.84 LIG-0.35  N 
ATOM     20  C   ALA D   1      13.000  12.526 144.920  1.00 44.74 LIG 0.25  C 
ATOM     21 O    ALA D   1      13.919  13.195 144.456  1.00 48.31 LIG-0.27  OA
ATOM     22 H    ARG D   2      11.525  12.534 146.173  1.00 42.84 LIG 0.16  HD
BRANCH 20 23
ATOM     23  CA  ALA D   1      12.703  11.118 144.402  1.00 45.19 LIG 0.27  C 
ATOM     24  CB  ALA D   1      12.843  11.070 142.897  1.00 43.32 LIG 0.05  C 
BRANCH 23 25
ATOM     25  N   ALA D   1      11.368  10.697 144.794  1.00 39.75 LIG-0.07  N 
ATOM     26 H1   ALA D   1      10.815  11.393 144.758  1.00 39.75 LIG 0.28  HD
ATOM     27 H2   ALA D   1      11.083  10.063 144.239  1.00 39.75 LIG 0.28  HD
ATOM     28 H3   ALA D   1      11.389  10.377 145.624  1.00 39.75 LIG 0.28  HD
ENDBRANCH 23 25
ENDBRANCH 20 23
ENDBRANCH 6 19
ENDBRANCH 3 6
ENDBRANCH 1 2
BRANCH 1 29
ATOM     29  CB  THR D   3      16.619  16.790 146.830  1.00 46.90 LIG 0.15  C 
ATOM     30  CG2 THR D   3      15.974  18.143 147.067  1.00 44.81 LIG 0.04  C 
BRANCH 29 31
ATOM     31 OG1  THR D   3      17.960  16.818 147.335  1.00 48.09 LIG-0.39  OA
ATOM     32 HG1  THR D   3      17.955  17.088 148.131  1.00 48.09 LIG 0.21  HD
ENDBRANCH 29 31
ENDBRANCH 1 29
BRANCH 1 33
ATOM     33  C   THR D   3      15.652  16.048 149.005  1.00 42.40 LIG 0.24  C 
ATOM     34 O    THR D   3      14.536  16.296 149.472  1.00 40.34 LIG-0.27  OA
ATOM     35  N   LYS D   4      16.725  16.158 149.741  1.00 38.45 LIG-0.35  N 
ATOM     36 H    LYS D   4      17.520  15.965 149.480  1.00 38.45 LIG 0.16  HD
BRANCH 35 37
ATOM     37  CA  LYS D   4      16.625  16.634 151.099  1.00 37.56 LIG 0.18  C 
BRANCH 37 38
ATOM     38  C   LYS D   4      16.243  18.106 151.125  1.00 44.28 LIG 0.24  C 
ATOM     39 O    LYS D   4      15.177  18.411 151.507  1.00 49.08 LIG-0.27  OA
ATOM     40  N   GLN D   5      17.170  18.962 150.731  1.00 53.59 LIG-0.35  N 
ATOM     41 H    GLN D   5      17.990  18.702 150.736  1.00 53.59 LIG 0.16  HD
BRANCH 40 42
ATOM     42  CA  GLN D   5      17.111  20.372 150.247  1.00 61.39 LIG 0.16  C 
BRANCH 42 43
ATOM     43  CB  GLN D   5      17.204  21.454 151.331  1.00 20.00 LIG 0.04  C 
BRANCH 43 44
ATOM     44  CG  GLN D   5      15.897  22.265 151.501  1.00 20.00 LIG 0.10  C 
BRANCH 44 45
ATOM     45  CD  GLN D   5      15.123  22.040 152.800  1.00 20.00 LIG 0.21  C 
ATOM     46  NE2 GLN D   5      14.699  20.801 153.019  1.00 20.00 LIG-0.37  N 
ATOM     47 21HE GLN D   5      14.847  20.187 152.436  1.00 20.00 LIG 0.16  HD
ATOM     48 22HE GLN D   5      14.276  20.613 153.743  1.00 20.00 LIG 0.16  HD
ATOM     49 OE1  GLN D   5      14.935  22.954 153.606  1.00 20.00 LIG-0.27  OA
ENDBRANCH 44 45
ENDBRANCH 43 44
ENDBRANCH 42 43
BRANCH 42 50
ATOM     50  C   GLN D   5      17.794  20.845 148.986  1.00 64.61 LIG 0.22  C 
ATOM     51 O    GLN D   5      17.281  20.699 147.915  1.00 68.60 LIG-0.29  OA
ENDBRANCH 42 50
ENDBRANCH 40 42
ENDBRANCH 37 38
BRANCH 37 52
ATOM     52  CB  LYS D   4      17.911  16.353 151.845  1.00 33.42 LIG 0.04  C 
BRANCH 52 53
ATOM     53  CG  LYS D   4      17.744  15.571 153.062  1.00 40.53 LIG 0.00  C 
BRANCH 53 54
ATOM     54  CD  LYS D   4      18.836  15.827 153.959  1.00 50.17 LIG 0.03  C 
BRANCH 54 55
ATOM     55  CE  LYS D   4      18.892  14.810 155.064  1.00 57.03 LIG 0.23  C 
BRANCH 55 56
ATOM     56  NZ  LYS D   4      20.292  14.438 155.261  1.00 52.11 LIG-0.08  N 
ATOM     57 HZ3  LYS D   4      20.467  14.391 156.132  1.00 52.11 LIG 0.27  HD
ATOM     58 HZ2  LYS D   4      20.817  15.051 154.886  1.00 52.11 LIG 0.27  HD
ATOM     59 HZ1  LYS D   4      20.445  13.646 154.885  1.00 52.11 LIG 0.27  HD
ENDBRANCH 55 56
ENDBRANCH 54 55
ENDBRANCH 53 54
ENDBRANCH 52 53
ENDBRANCH 37 52
ENDBRANCH 35 37
ENDBRANCH 1 33
TORSDOF 24
ENDMDL
