MODEL 1
USER: ADFR SOLUTION from run 151
USER: SCORE 19.468412 LL:  -4.200 LR: -16.845 RR:   0.000 FEB:  -9.984
USER: RMSD 8.522465
USER: SEED 150
USER: STATUS no improvement in best in 4 clusters for 5 generations
USER: GENES 25
USER: genes 0 Translation |==|  0.48886 0.60525 0.56571
USER: genes 1 Rotation |==|  0.52645 0.05569 0.27630 0.54302
USER: genes 2 Torsion [C]-N--CA-[C] |==|  0.59523
USER: genes 3 Torsion [N]-CA--C-[N] |==|  0.55211
USER: genes 4 Torsion [C]-N--CA-[C] |==|  0.66963
USER: genes 5 Torsion [N]-CA--C-[N] |==|  0.97101
USER: genes 6 Torsion [C]-N--CA-[C] |==|  0.77106
USER: genes 7 Torsion [N]-CA--CB-[CG] |==|  0.17932
USER: genes 8 Torsion [CA]-CB--CG-[CD] |==|  0.66244
USER: genes 9 Torsion [CB]-CG--CD-[OE1] |==|  0.17995
USER: genes 10 Torsion [N]-CA--C-[OXT] |==|  0.10848
USER: genes 11 Torsion [N]-CA--CB-[CG1] |==|  0.87929
USER: genes 12 Torsion [N]-CA--CB-[CG] |==|  0.08083
USER: genes 13 Torsion [CA]-CB--CG-[OD1] |==|  0.16797
USER: genes 14 Torsion [N]-C--CA-[N] |==|  0.17815
USER: genes 15 Torsion [C]-CA--N-[C] |==|  0.65798
USER: genes 16 Torsion [N]-C--CA-[N] |==|  0.99557
USER: genes 17 Torsion [C]-CA--N-[C] |==|  0.65850
USER: genes 18 Torsion [N]-C--CA-[N] |==|  0.11714
USER: genes 19 Torsion [C]-CA--N-[H3] |==|  0.99451
USER: genes 20 Torsion [C]-CA--CB-[CG] |==|  0.57418
USER: genes 21 Torsion [CA]-CB--CG-[CD] |==|  0.24070
USER: genes 22 Torsion [CB]-CG--CD-[OE2] |==|  0.63131
USER: genes 23 Torsion [C]-CA--CB-[CG] |==|  0.34362
USER: genes 24 Torsion [CA]-CB--CG-[OD1] |==|  0.38177
ROOT
ATOM      1  C   ASP D   3      28.056 -11.019  26.696  1.00 34.79 LIG 0.24  C 
ATOM      2 O    ASP D   3      27.536  -9.935  26.980  1.00 37.58 LIG-0.27  OA
ATOM      3  N   ASP D   4      27.351 -12.117  26.438  1.00 33.46 LIG-0.34  N 
ATOM      4 H    ASP D   4      27.701 -12.855  26.170  1.00 33.46 LIG 0.16  HD
ENDROOT
BRANCH 3 5
ATOM      5  CA  ASP D   4      25.912 -12.167  26.590  1.00 24.32 LIG 0.19  C 
BRANCH 5 6
ATOM      6  C   ASP D   4      25.581 -13.581  27.061  1.00 29.08 LIG 0.24  C 
ATOM      7  N   VAL D   5      24.328 -13.973  26.901  1.00 26.12 LIG-0.35  N 
ATOM      8 H    VAL D   5      23.701 -13.473  26.589  1.00 26.12 LIG 0.16  HD
ATOM      9 O    ASP D   4      26.448 -14.306  27.563  1.00 25.35 LIG-0.27  OA
BRANCH 7 10
ATOM     10  CA  VAL D   5      23.913 -15.324  27.252  1.00 27.68 LIG 0.18  C 
BRANCH 10 11
ATOM     11  C   VAL D   5      23.388 -16.030  25.997  1.00 28.81 LIG 0.24  C 
ATOM     12  N   GLU D   6      23.201 -15.269  24.925  1.00 27.30 LIG-0.34  N 
ATOM     13 H    GLU D   6      23.379 -14.428  24.899  1.00 27.30 LIG 0.16  HD
ATOM     14 O    VAL D   5      23.125 -17.236  26.016  1.00 31.14 LIG-0.27  OA
BRANCH 12 15
ATOM     15  CA  GLU D   6      22.667 -15.808  23.674  1.00 31.22 LIG 0.19  C 
BRANCH 15 16
ATOM     16  CB  GLU D   6      22.058 -14.697  22.821  1.00 26.83 LIG 0.05  C 
BRANCH 16 17
ATOM     17  CG  GLU D   6      23.040 -13.660  22.334  1.00 32.75 LIG 0.12  C 
BRANCH 17 18
ATOM     18  CD  GLU D   6      22.664 -12.263  22.797  1.00 37.41 LIG 0.17  C 
ATOM     19 OE1  GLU D   6      22.684 -12.011  24.019  1.00 40.07 LIG-0.65  OA
ATOM     20 OE2  GLU D   6      22.347 -11.413  21.942  1.00 32.49 LIG-0.65  OA
ENDBRANCH 17 18
ENDBRANCH 16 17
ENDBRANCH 15 16
BRANCH 15 21
ATOM     21  C   GLU D   6      23.772 -16.462  22.871  1.00 32.10 LIG 0.20  C 
ATOM     22 OXT  GLU D   6      24.645 -17.120  23.438  1.00 29.11 LIG-0.65  OA
ATOM     23 O    GLU D   6      23.790 -16.375  21.642  1.00 24.06 LIG-0.65  OA
ENDBRANCH 15 21
ENDBRANCH 12 15
ENDBRANCH 10 11
BRANCH 10 24
ATOM     24  CB  VAL D   5      22.868 -15.297  28.377  1.00 24.95 LIG 0.01  C 
ATOM     25  CG1 VAL D   5      23.290 -14.292  29.448  1.00 19.21 LIG 0.01  C 
ATOM     26  CG2 VAL D   5      21.492 -14.933  27.816  1.00 24.99 LIG 0.01  C 
ENDBRANCH 10 24
ENDBRANCH 7 10
ENDBRANCH 5 6
BRANCH 5 27
ATOM     27  CB  ASP D   4      25.228 -11.874  25.249  1.00 34.66 LIG 0.15  C 
BRANCH 27 28
ATOM     28  CG  ASP D   4      26.070 -12.297  24.037  1.00 38.29 LIG 0.17  C 
ATOM     29 OD2  ASP D   4      26.415 -11.413  23.223  1.00 38.65 LIG-0.65  OA
ATOM     30 OD1  ASP D   4      26.394 -13.495  23.890  1.00 35.40 LIG-0.65  OA
ENDBRANCH 27 28
ENDBRANCH 5 27
ENDBRANCH 3 5
BRANCH 1 31
ATOM     31  CA  ASP D   3      29.580 -11.182  26.625  1.00 30.73 LIG 0.19  C 
BRANCH 31 32
ATOM     32  N   ASP D   3      30.025 -11.518  25.273  1.00 30.00 LIG-0.35  N 
ATOM     33  C   GLU D   2      30.735 -12.624  25.052  1.00 37.22 LIG 0.24  C 
ATOM     34 O    GLU D   2      31.080 -13.387  25.954  1.00 35.26 LIG-0.27  OA
ATOM     35 H    ASP D   3      29.794 -10.956  24.664  1.00 30.00 LIG 0.16  HD
BRANCH 33 36
ATOM     36  CA  GLU D   2      31.099 -12.937  23.604  1.00 39.45 LIG 0.18  C 
BRANCH 36 37
ATOM     37  N   GLU D   2      30.559 -11.957  22.671  1.00 40.85 LIG-0.35  N 
ATOM     38  C   ALA D   1      29.764 -12.323  21.671  1.00 38.03 LIG 0.25  C 
ATOM     39 O    ALA D   1      29.416 -13.489  21.485  1.00 37.20 LIG-0.27  OA
ATOM     40 H    GLU D   2      30.798 -11.146  22.826  1.00 40.85 LIG 0.16  HD
BRANCH 38 41
ATOM     41  CA  ALA D   1      29.294 -11.205  20.744  1.00 41.40 LIG 0.27  C 
ATOM     42  CB  ALA D   1      28.703 -11.784  19.458  1.00 39.88 LIG 0.05  C 
BRANCH 41 43
ATOM     43  N   ALA D   1      30.390 -10.288  20.441  1.00 41.88 LIG-0.07  N 
ATOM     44 H2   ALA D   1      30.165  -9.464  20.691  1.00 41.88 LIG 0.28  HD
ATOM     45 H3   ALA D   1      31.120 -10.542  20.882  1.00 41.88 LIG 0.28  HD
ATOM     46 H1   ALA D   1      30.553 -10.298  19.567  1.00 41.88 LIG 0.28  HD
ENDBRANCH 41 43
ENDBRANCH 38 41
ENDBRANCH 36 37
BRANCH 36 47
ATOM     47  CB  GLU D   2      32.610 -13.071  23.431  1.00 37.20 LIG 0.04  C 
BRANCH 47 48
ATOM     48  CG  GLU D   2      33.060 -12.738  22.026  1.00 39.39 LIG 0.12  C 
BRANCH 48 49
ATOM     49  CD  GLU D   2      33.310 -11.256  21.855  1.00 42.36 LIG 0.17  C 
ATOM     50 OE2  GLU D   2      32.837 -10.660  20.857  1.00 45.25 LIG-0.65  OA
ATOM     51 OE1  GLU D   2      33.986 -10.685  22.728  1.00 37.51 LIG-0.65  OA
ENDBRANCH 48 49
ENDBRANCH 47 48
ENDBRANCH 36 47
ENDBRANCH 33 36
ENDBRANCH 31 32
BRANCH 31 52
ATOM     52  CB  ASP D   3      30.333  -9.968  27.200  1.00 35.86 LIG 0.15  C 
BRANCH 52 53
ATOM     53  CG  ASP D   3      31.298 -10.334  28.315  1.00 46.33 LIG 0.17  C 
ATOM     54 OD1  ASP D   3      32.433  -9.810  28.344  1.00 38.55 LIG-0.65  OA
ATOM     55 OD2  ASP D   3      30.915 -11.166  29.165  1.00 55.15 LIG-0.65  OA
ENDBRANCH 52 53
ENDBRANCH 31 52
ENDBRANCH 1 31
TORSDOF 23
ENDMDL
MODEL 2
USER: ADFR SOLUTION from run 41
USER: SCORE 19.025502 LL:  -3.424 LR: -16.761 RR:   0.000 FEB:  -9.900
USER: RMSD 8.712674
USER: SEED 40
USER: STATUS no improvement in best in 4 clusters for 5 generations
USER: GENES 25
USER: genes 0 Translation |==|  0.45485 0.59737 0.64498
USER: genes 1 Rotation |==|  0.34777 0.85261 0.78463 0.64654
USER: genes 2 Torsion [C]-N--CA-[C] |==|  0.82674
USER: genes 3 Torsion [N]-CA--C-[N] |==|  0.43218
USER: genes 4 Torsion [C]-N--CA-[C] |==|  0.73889
USER: genes 5 Torsion [N]-CA--C-[N] |==|  0.98006
USER: genes 6 Torsion [C]-N--CA-[C] |==|  0.57951
USER: genes 7 Torsion [N]-CA--CB-[CG] |==|  0.19587
USER: genes 8 Torsion [CA]-CB--CG-[CD] |==|  0.83142
USER: genes 9 Torsion [CB]-CG--CD-[OE1] |==|  0.23616
USER: genes 10 Torsion [N]-CA--C-[OXT] |==|  0.58507
USER: genes 11 Torsion [N]-CA--CB-[CG1] |==|  0.76912
USER: genes 12 Torsion [N]-CA--CB-[CG] |==|  0.66405
USER: genes 13 Torsion [CA]-CB--CG-[OD1] |==|  0.00260
USER: genes 14 Torsion [N]-C--CA-[N] |==|  0.55457
USER: genes 15 Torsion [C]-CA--N-[C] |==|  0.54954
USER: genes 16 Torsion [N]-C--CA-[N] |==|  0.83963
USER: genes 17 Torsion [C]-CA--N-[C] |==|  0.67204
USER: genes 18 Torsion [N]-C--CA-[N] |==|  0.03052
USER: genes 19 Torsion [C]-CA--N-[H3] |==|  0.13715
USER: genes 20 Torsion [C]-CA--CB-[CG] |==|  0.59558
USER: genes 21 Torsion [CA]-CB--CG-[CD] |==|  0.22069
USER: genes 22 Torsion [CB]-CG--CD-[OE2] |==|  0.66669
USER: genes 23 Torsion [C]-CA--CB-[CG] |==|  0.32212
USER: genes 24 Torsion [CA]-CB--CG-[OD1] |==|  0.28532
ROOT
ATOM      1  C   ASP D   3      27.342 -11.160  28.361  1.00 34.79 LIG 0.24  C 
ATOM      2 O    ASP D   3      26.495 -10.273  28.500  1.00 37.58 LIG-0.27  OA
ATOM      3  N   ASP D   4      27.404 -11.944  27.287  1.00 33.46 LIG-0.34  N 
ATOM      4 H    ASP D   4      28.032 -12.515  27.150  1.00 33.46 LIG 0.16  HD
ENDROOT
BRANCH 3 5
ATOM      5  CA  ASP D   4      26.403 -11.904  26.241  1.00 24.32 LIG 0.19  C 
BRANCH 5 6
ATOM      6  C   ASP D   4      25.085 -12.315  26.895  1.00 29.08 LIG 0.24  C 
ATOM      7  N   VAL D   5      23.982 -11.887  26.306  1.00 26.12 LIG-0.35  N 
ATOM      8 H    VAL D   5      23.970 -11.373  25.616  1.00 26.12 LIG 0.16  HD
ATOM      9 O    ASP D   4      25.070 -13.009  27.919  1.00 25.35 LIG-0.27  OA
BRANCH 7 10
ATOM     10  CA  VAL D   5      22.668 -12.272  26.802  1.00 27.68 LIG 0.18  C 
BRANCH 10 11
ATOM     11  C   VAL D   5      22.184 -13.509  26.036  1.00 28.81 LIG 0.24  C 
ATOM     12  N   GLU D   6      22.931 -13.898  25.009  1.00 27.30 LIG-0.34  N 
ATOM     13 H    GLU D   6      23.664 -13.511  24.778  1.00 27.30 LIG 0.16  HD
ATOM     14 O    VAL D   5      21.134 -14.074  26.352  1.00 31.14 LIG-0.27  OA
BRANCH 12 15
ATOM     15  CA  GLU D   6      22.563 -15.037  24.169  1.00 31.22 LIG 0.19  C 
BRANCH 15 16
ATOM     16  CB  GLU D   6      21.679 -14.590  23.007  1.00 26.83 LIG 0.05  C 
BRANCH 16 17
ATOM     17  CG  GLU D   6      22.384 -13.779  21.947  1.00 32.75 LIG 0.12  C 
BRANCH 17 18
ATOM     18  CD  GLU D   6      22.962 -12.492  22.511  1.00 37.41 LIG 0.17  C 
ATOM     19 OE1  GLU D   6      24.089 -12.525  23.044  1.00 40.07 LIG-0.65  OA
ATOM     20 OE2  GLU D   6      22.290 -11.445  22.425  1.00 32.49 LIG-0.65  OA
ENDBRANCH 17 18
ENDBRANCH 16 17
ENDBRANCH 15 16
BRANCH 15 21
ATOM     21  C   GLU D   6      23.805 -15.683  23.590  1.00 32.10 LIG 0.20  C 
ATOM     22 OXT  GLU D   6      23.761 -16.237  22.491  1.00 29.11 LIG-0.65  OA
ATOM     23 O    GLU D   6      24.878 -15.630  24.191  1.00 24.06 LIG-0.65  OA
ENDBRANCH 15 21
ENDBRANCH 12 15
ENDBRANCH 10 11
BRANCH 10 24
ATOM     24  CB  VAL D   5      21.679 -11.102  26.690  1.00 24.95 LIG 0.01  C 
ATOM     25  CG1 VAL D   5      21.839 -10.176  27.894  1.00 19.21 LIG 0.01  C 
ATOM     26  CG2 VAL D   5      21.912 -10.332  25.389  1.00 24.99 LIG 0.01  C 
ENDBRANCH 10 24
ENDBRANCH 7 10
ENDBRANCH 5 6
BRANCH 5 27
ATOM     27  CB  ASP D   4      26.772 -12.881  25.118  1.00 34.66 LIG 0.15  C 
BRANCH 27 28
ATOM     28  CG  ASP D   4      26.938 -12.197  23.754  1.00 38.29 LIG 0.17  C 
ATOM     29 OD2  ASP D   4      27.215 -12.913  22.767  1.00 38.65 LIG-0.65  OA
ATOM     30 OD1  ASP D   4      26.790 -10.960  23.654  1.00 35.40 LIG-0.65  OA
ENDBRANCH 27 28
ENDBRANCH 5 27
ENDBRANCH 3 5
BRANCH 1 31
ATOM     31  CA  ASP D   3      28.399 -11.434  29.437  1.00 30.73 LIG 0.19  C 
BRANCH 31 32
ATOM     32  N   ASP D   3      28.005 -10.885  30.735  1.00 30.00 LIG-0.35  N 
ATOM     33  C   GLU D   2      28.912 -10.702  31.694  1.00 37.22 LIG 0.24  C 
ATOM     34 O    GLU D   2      30.096 -11.012  31.561  1.00 35.26 LIG-0.27  OA
ATOM     35 H    ASP D   3      27.168 -10.701  30.813  1.00 30.00 LIG 0.16  HD
BRANCH 33 36
ATOM     36  CA  GLU D   2      28.430 -10.059  32.991  1.00 39.45 LIG 0.18  C 
BRANCH 36 37
ATOM     37  N   GLU D   2      27.828  -8.751  32.773  1.00 40.85 LIG-0.35  N 
ATOM     38  C   ALA D   1      28.348  -7.654  33.313  1.00 38.03 LIG 0.25  C 
ATOM     39 O    ALA D   1      29.369  -7.666  34.000  1.00 37.20 LIG-0.27  OA
ATOM     40 H    GLU D   2      27.125  -8.759  32.276  1.00 40.85 LIG 0.16  HD
BRANCH 38 41
ATOM     41  CA  ALA D   1      27.602  -6.351  33.037  1.00 41.40 LIG 0.27  C 
ATOM     42  CB  ALA D   1      27.445  -5.537  34.321  1.00 39.88 LIG 0.05  C 
BRANCH 41 43
ATOM     43  N   ALA D   1      26.300  -6.618  32.431  1.00 41.88 LIG-0.07  N 
ATOM     44 H2   ALA D   1      26.413  -6.911  31.599  1.00 41.88 LIG 0.28  HD
ATOM     45 H3   ALA D   1      25.872  -7.237  32.907  1.00 41.88 LIG 0.28  HD
ATOM     46 H1   ALA D   1      25.819  -5.870  32.419  1.00 41.88 LIG 0.28  HD
ENDBRANCH 41 43
ENDBRANCH 38 41
ENDBRANCH 36 37
BRANCH 36 47
ATOM     47  CB  GLU D   2      27.467 -10.978  33.738  1.00 37.20 LIG 0.04  C 
BRANCH 47 48
ATOM     48  CG  GLU D   2      26.387 -10.211  34.466  1.00 39.39 LIG 0.12  C 
BRANCH 48 49
ATOM     49  CD  GLU D   2      25.282  -9.774  33.529  1.00 42.36 LIG 0.17  C 
ATOM     50 OE2  GLU D   2      25.031  -8.552  33.396  1.00 45.25 LIG-0.65  OA
ATOM     51 OE1  GLU D   2      24.663 -10.664  32.921  1.00 37.51 LIG-0.65  OA
ENDBRANCH 48 49
ENDBRANCH 47 48
ENDBRANCH 36 47
ENDBRANCH 33 36
ENDBRANCH 31 32
BRANCH 31 52
ATOM     52  CB  ASP D   3      28.780 -12.923  29.529  1.00 35.86 LIG 0.15  C 
BRANCH 52 53
ATOM     53  CG  ASP D   3      30.231 -13.194  29.168  1.00 46.33 LIG 0.17  C 
ATOM     54 OD1  ASP D   3      31.063 -13.404  30.078  1.00 38.55 LIG-0.65  OA
ATOM     55 OD2  ASP D   3      30.540 -13.186  27.957  1.00 55.15 LIG-0.65  OA
ENDBRANCH 52 53
ENDBRANCH 31 52
ENDBRANCH 1 31
TORSDOF 23
ENDMDL
MODEL 3
USER: ADFR SOLUTION from run 106
USER: SCORE 20.015947 LL:  -4.107 LR: -16.600 RR:   0.000 FEB:  -9.740
USER: RMSD 8.553636
USER: SEED 105
USER: STATUS no improvement in best in 2 clusters for 5 generations
USER: GENES 25
USER: genes 0 Translation |==|  0.46593 0.58215 0.58557
USER: genes 1 Rotation |==|  0.46295 0.93929 0.73438 0.52685
USER: genes 2 Torsion [C]-N--CA-[C] |==|  0.62140
USER: genes 3 Torsion [N]-CA--C-[N] |==|  0.46590
USER: genes 4 Torsion [C]-N--CA-[C] |==|  0.73488
USER: genes 5 Torsion [N]-CA--C-[N] |==|  0.01373
USER: genes 6 Torsion [C]-N--CA-[C] |==|  0.68407
USER: genes 7 Torsion [N]-CA--CB-[CG] |==|  0.21982
USER: genes 8 Torsion [CA]-CB--CG-[CD] |==|  0.70500
USER: genes 9 Torsion [CB]-CG--CD-[OE1] |==|  0.08770
USER: genes 10 Torsion [N]-CA--C-[OXT] |==|  0.58926
USER: genes 11 Torsion [N]-CA--CB-[CG1] |==|  0.20445
USER: genes 12 Torsion [N]-CA--CB-[CG] |==|  0.00081
USER: genes 13 Torsion [CA]-CB--CG-[OD1] |==|  0.28099
USER: genes 14 Torsion [N]-C--CA-[N] |==|  0.24674
USER: genes 15 Torsion [C]-CA--N-[C] |==|  0.63552
USER: genes 16 Torsion [N]-C--CA-[N] |==|  0.87784
USER: genes 17 Torsion [C]-CA--N-[C] |==|  0.79444
USER: genes 18 Torsion [N]-C--CA-[N] |==|  0.87853
USER: genes 19 Torsion [C]-CA--N-[H3] |==|  0.71805
USER: genes 20 Torsion [C]-CA--CB-[CG] |==|  0.80761
USER: genes 21 Torsion [CA]-CB--CG-[CD] |==|  0.27703
USER: genes 22 Torsion [CB]-CG--CD-[OE2] |==|  0.59068
USER: genes 23 Torsion [C]-CA--CB-[CG] |==|  0.35076
USER: genes 24 Torsion [CA]-CB--CG-[OD1] |==|  0.11411
ROOT
ATOM      1  C   ASP D   3      27.574 -11.434  27.113  1.00 34.79 LIG 0.24  C 
ATOM      2 O    ASP D   3      27.087 -10.322  27.336  1.00 37.58 LIG-0.27  OA
ATOM      3  N   ASP D   4      26.877 -12.444  26.599  1.00 33.46 LIG-0.34  N 
ATOM      4 H    ASP D   4      27.224 -13.197  26.374  1.00 33.46 LIG 0.16  HD
ENDROOT
BRANCH 3 5
ATOM      5  CA  ASP D   4      25.450 -12.360  26.370  1.00 24.32 LIG 0.19  C 
BRANCH 5 6
ATOM      6  C   ASP D   4      24.861 -13.683  26.857  1.00 29.08 LIG 0.24  C 
ATOM      7  N   VAL D   5      23.545 -13.729  26.976  1.00 26.12 LIG-0.35  N 
ATOM      8 H    VAL D   5      23.022 -13.060  26.834  1.00 26.12 LIG 0.16  HD
ATOM      9 O    ASP D   4      25.590 -14.647  27.121  1.00 25.35 LIG-0.27  OA
BRANCH 7 10
ATOM     10  CA  VAL D   5      22.869 -14.959  27.367  1.00 27.68 LIG 0.18  C 
BRANCH 10 11
ATOM     11  C   VAL D   5      22.403 -15.698  26.108  1.00 28.81 LIG 0.24  C 
ATOM     12  N   GLU D   6      22.770 -15.174  24.944  1.00 27.30 LIG-0.34  N 
ATOM     13 H    GLU D   6      23.262 -14.473  24.871  1.00 27.30 LIG 0.16  HD
ATOM     14 O    VAL D   5      21.695 -16.705  26.195  1.00 31.14 LIG-0.27  OA
BRANCH 12 15
ATOM     15  CA  GLU D   6      22.360 -15.757  23.667  1.00 31.22 LIG 0.19  C 
BRANCH 15 16
ATOM     16  CB  GLU D   6      21.702 -14.705  22.777  1.00 26.83 LIG 0.05  C 
BRANCH 16 17
ATOM     17  CG  GLU D   6      22.663 -13.783  22.066  1.00 32.75 LIG 0.12  C 
BRANCH 17 18
ATOM     18  CD  GLU D   6      22.673 -12.393  22.681  1.00 37.41 LIG 0.17  C 
ATOM     19 OE1  GLU D   6      22.459 -12.277  23.903  1.00 40.07 LIG-0.65  OA
ATOM     20 OE2  GLU D   6      22.894 -11.413  21.941  1.00 32.49 LIG-0.65  OA
ENDBRANCH 17 18
ENDBRANCH 16 17
ENDBRANCH 15 16
BRANCH 15 21
ATOM     21  C   GLU D   6      23.566 -16.304  22.930  1.00 32.10 LIG 0.20  C 
ATOM     22 OXT  GLU D   6      23.600 -16.289  21.699  1.00 29.11 LIG-0.65  OA
ATOM     23 O    GLU D   6      24.540 -16.732  23.552  1.00 24.06 LIG-0.65  OA
ENDBRANCH 15 21
ENDBRANCH 12 15
ENDBRANCH 10 11
BRANCH 10 24
ATOM     24  CB  VAL D   5      21.704 -14.659  28.323  1.00 24.95 LIG 0.01  C 
ATOM     25  CG1 VAL D   5      20.547 -14.036  27.544  1.00 19.21 LIG 0.01  C 
ATOM     26  CG2 VAL D   5      21.248 -15.939  29.024  1.00 24.99 LIG 0.01  C 
ENDBRANCH 10 24
ENDBRANCH 7 10
ENDBRANCH 5 6
BRANCH 5 27
ATOM     27  CB  ASP D   4      25.163 -12.163  24.877  1.00 34.66 LIG 0.15  C 
BRANCH 27 28
ATOM     28  CG  ASP D   4      26.435 -12.113  24.019  1.00 38.29 LIG 0.17  C 
ATOM     29 OD2  ASP D   4      27.092 -11.049  24.004  1.00 38.65 LIG-0.65  OA
ATOM     30 OD1  ASP D   4      26.789 -13.119  23.369  1.00 35.40 LIG-0.65  OA
ENDBRANCH 27 28
ENDBRANCH 5 27
ENDBRANCH 3 5
BRANCH 1 31
ATOM     31  CA  ASP D   3      29.045 -11.742  27.425  1.00 30.73 LIG 0.19  C 
BRANCH 31 32
ATOM     32  N   ASP D   3      29.908 -11.480  26.273  1.00 30.00 LIG-0.35  N 
ATOM     33  C   GLU D   2      30.797 -12.390  25.875  1.00 37.22 LIG 0.24  C 
ATOM     34 O    GLU D   2      30.964 -13.459  26.461  1.00 35.26 LIG-0.27  OA
ATOM     35 H    ASP D   3      29.790 -10.715  25.897  1.00 30.00 LIG 0.16  HD
BRANCH 33 36
ATOM     36  CA  GLU D   2      31.608 -12.066  24.624  1.00 39.45 LIG 0.18  C 
BRANCH 36 37
ATOM     37  N   GLU D   2      30.787 -11.508  23.558  1.00 40.85 LIG-0.35  N 
ATOM     38  C   ALA D   1      29.957 -12.272  22.856  1.00 38.03 LIG 0.25  C 
ATOM     39 O    ALA D   1      29.811 -13.475  23.071  1.00 37.20 LIG-0.27  OA
ATOM     40 H    GLU D   2      30.888 -10.663  23.433  1.00 40.85 LIG 0.16  HD
BRANCH 38 41
ATOM     41  CA  ALA D   1      29.179 -11.573  21.743  1.00 41.40 LIG 0.27  C 
ATOM     42  CB  ALA D   1      30.056 -11.390  20.504  1.00 39.88 LIG 0.05  C 
BRANCH 41 43
ATOM     43  N   ALA D   1      28.660 -10.288  22.204  1.00 41.88 LIG-0.07  N 
ATOM     44 H2   ALA D   1      28.763  -9.679  21.563  1.00 41.88 LIG 0.28  HD
ATOM     45 H3   ALA D   1      27.795 -10.369  22.399  1.00 41.88 LIG 0.28  HD
ATOM     46 H1   ALA D   1      29.104 -10.031  22.931  1.00 41.88 LIG 0.28  HD
ENDBRANCH 41 43
ENDBRANCH 38 41
ENDBRANCH 36 37
BRANCH 36 47
ATOM     47  CB  GLU D   2      32.776 -11.138  24.948  1.00 37.20 LIG 0.04  C 
BRANCH 47 48
ATOM     48  CG  GLU D   2      32.318  -9.746  25.319  1.00 39.39 LIG 0.12  C 
BRANCH 48 49
ATOM     49  CD  GLU D   2      32.307  -9.542  26.819  1.00 42.36 LIG 0.17  C 
ATOM     50 OE2  GLU D   2      31.448  -8.787  27.334  1.00 45.25 LIG-0.65  OA
ATOM     51 OE1  GLU D   2      33.165 -10.146  27.485  1.00 37.51 LIG-0.65  OA
ENDBRANCH 48 49
ENDBRANCH 47 48
ENDBRANCH 36 47
ENDBRANCH 33 36
ENDBRANCH 31 32
BRANCH 31 52
ATOM     52  CB  ASP D   3      29.542 -11.031  28.697  1.00 35.86 LIG 0.15  C 
BRANCH 52 53
ATOM     53  CG  ASP D   3      30.166 -11.978  29.708  1.00 46.33 LIG 0.17  C 
ATOM     54 OD1  ASP D   3      30.915 -12.897  29.311  1.00 38.55 LIG-0.65  OA
ATOM     55 OD2  ASP D   3      29.892 -11.802  30.915  1.00 55.15 LIG-0.65  OA
ENDBRANCH 52 53
ENDBRANCH 31 52
ENDBRANCH 1 31
TORSDOF 23
ENDMDL
MODEL 4
USER: ADFR SOLUTION from run 187
USER: SCORE 17.414136 LL:  -2.395 LR: -16.405 RR:   0.000 FEB:  -9.544
USER: RMSD 8.883880
USER: SEED 186
USER: STATUS no improvement in best in 4 clusters for 5 generations
USER: GENES 25
USER: genes 0 Translation |==|  0.59143 0.51570 0.52635
USER: genes 1 Rotation |==|  0.27031 0.49653 0.06848 0.60497
USER: genes 2 Torsion [C]-N--CA-[C] |==|  0.61043
USER: genes 3 Torsion [N]-CA--C-[N] |==|  0.78584
USER: genes 4 Torsion [C]-N--CA-[C] |==|  0.80556
USER: genes 5 Torsion [N]-CA--C-[N] |==|  0.39739
USER: genes 6 Torsion [C]-N--CA-[C] |==|  0.82290
USER: genes 7 Torsion [N]-CA--CB-[CG] |==|  0.56610
USER: genes 8 Torsion [CA]-CB--CG-[CD] |==|  0.15200
USER: genes 9 Torsion [CB]-CG--CD-[OE1] |==|  0.07550
USER: genes 10 Torsion [N]-CA--C-[OXT] |==|  0.40777
USER: genes 11 Torsion [N]-CA--CB-[CG1] |==|  0.47637
USER: genes 12 Torsion [N]-CA--CB-[CG] |==|  0.78891
USER: genes 13 Torsion [CA]-CB--CG-[OD1] |==|  0.80250
USER: genes 14 Torsion [N]-C--CA-[N] |==|  0.56034
USER: genes 15 Torsion [C]-CA--N-[C] |==|  0.72508
USER: genes 16 Torsion [N]-C--CA-[N] |==|  0.13854
USER: genes 17 Torsion [C]-CA--N-[C] |==|  0.15839
USER: genes 18 Torsion [N]-C--CA-[N] |==|  0.80940
USER: genes 19 Torsion [C]-CA--N-[H3] |==|  0.34632
USER: genes 20 Torsion [C]-CA--CB-[CG] |==|  0.33034
USER: genes 21 Torsion [CA]-CB--CG-[CD] |==|  0.81644
USER: genes 22 Torsion [CB]-CG--CD-[OE2] |==|  0.71389
USER: genes 23 Torsion [C]-CA--CB-[CG] |==|  0.80580
USER: genes 24 Torsion [CA]-CB--CG-[OD1] |==|  0.33711
ROOT
ATOM      1  C   ASP D   3      30.210 -12.630  25.869  1.00 34.79 LIG 0.24  C 
ATOM      2 O    ASP D   3      30.985 -13.398  26.448  1.00 37.58 LIG-0.27  OA
ATOM      3  N   ASP D   4      29.029 -12.277  26.370  1.00 33.46 LIG-0.34  N 
ATOM      4 H    ASP D   4      28.516 -11.689  26.009  1.00 33.46 LIG 0.16  HD
ENDROOT
BRANCH 3 5
ATOM      5  CA  ASP D   4      28.497 -12.862  27.583  1.00 24.32 LIG 0.19  C 
BRANCH 5 6
ATOM      6  C   ASP D   4      27.002 -13.064  27.339  1.00 29.08 LIG 0.24  C 
ATOM      7  N   VAL D   5      26.245 -11.984  27.419  1.00 26.12 LIG-0.35  N 
ATOM      8 H    VAL D   5      26.536 -11.203  27.633  1.00 26.12 LIG 0.16  HD
ATOM      9 O    ASP D   4      26.544 -14.184  27.082  1.00 25.35 LIG-0.27  OA
BRANCH 7 10
ATOM     10  CA  VAL D   5      24.816 -12.046  27.139  1.00 27.68 LIG 0.18  C 
BRANCH 10 11
ATOM     11  C   VAL D   5      24.608 -12.284  25.640  1.00 28.81 LIG 0.24  C 
ATOM     12  N   GLU D   6      23.595 -13.074  25.301  1.00 27.30 LIG-0.34  N 
ATOM     13 H    GLU D   6      23.054 -13.426  25.869  1.00 27.30 LIG 0.16  HD
ATOM     14 O    VAL D   5      25.376 -11.788  24.811  1.00 31.14 LIG-0.27  OA
BRANCH 12 15
ATOM     15  CA  GLU D   6      23.309 -13.415  23.908  1.00 31.22 LIG 0.19  C 
BRANCH 15 16
ATOM     16  CB  GLU D   6      22.142 -14.396  23.819  1.00 26.83 LIG 0.05  C 
BRANCH 16 17
ATOM     17  CG  GLU D   6      22.112 -15.236  22.565  1.00 32.75 LIG 0.12  C 
BRANCH 17 18
ATOM     18  CD  GLU D   6      23.415 -15.989  22.356  1.00 37.41 LIG 0.17  C 
ATOM     19 OE1  GLU D   6      24.105 -16.281  23.353  1.00 40.07 LIG-0.65  OA
ATOM     20 OE2  GLU D   6      23.753 -16.288  21.193  1.00 32.49 LIG-0.65  OA
ENDBRANCH 17 18
ENDBRANCH 16 17
ENDBRANCH 15 16
BRANCH 15 21
ATOM     21  C   GLU D   6      22.934 -12.171  23.130  1.00 32.10 LIG 0.20  C 
ATOM     22 OXT  GLU D   6      23.237 -12.068  21.941  1.00 29.11 LIG-0.65  OA
ATOM     23 O    GLU D   6      22.290 -11.267  23.665  1.00 24.06 LIG-0.65  OA
ENDBRANCH 15 21
ENDBRANCH 12 15
ENDBRANCH 10 11
BRANCH 10 24
ATOM     24  CB  VAL D   5      24.111 -10.770  27.624  1.00 24.95 LIG 0.01  C 
ATOM     25  CG1 VAL D   5      22.664 -10.765  27.135  1.00 19.21 LIG 0.01  C 
ATOM     26  CG2 VAL D   5      24.160 -10.682  29.150  1.00 24.99 LIG 0.01  C 
ENDBRANCH 10 24
ENDBRANCH 7 10
ENDBRANCH 5 6
BRANCH 5 27
ATOM     27  CB  ASP D   4      28.723 -11.917  28.769  1.00 34.66 LIG 0.15  C 
BRANCH 27 28
ATOM     28  CG  ASP D   4      30.173 -11.916  29.272  1.00 38.29 LIG 0.17  C 
ATOM     29 OD2  ASP D   4      30.868 -10.899  29.060  1.00 38.65 LIG-0.65  OA
ATOM     30 OD1  ASP D   4      30.624 -12.911  29.879  1.00 35.40 LIG-0.65  OA
ENDBRANCH 27 28
ENDBRANCH 5 27
ENDBRANCH 3 5
BRANCH 1 31
ATOM     31  CA  ASP D   3      30.555 -12.023  24.504  1.00 30.73 LIG 0.19  C 
BRANCH 31 32
ATOM     32  N   ASP D   3      31.568 -12.810  23.802  1.00 30.00 LIG-0.35  N 
ATOM     33  C   GLU D   2      32.848 -12.437  23.824  1.00 37.22 LIG 0.24  C 
ATOM     34 O    GLU D   2      33.235 -11.414  24.389  1.00 35.26 LIG-0.27  OA
ATOM     35 H    ASP D   3      31.269 -13.505  23.392  1.00 30.00 LIG 0.16  HD
BRANCH 33 36
ATOM     36  CA  GLU D   2      33.849 -13.352  23.125  1.00 39.45 LIG 0.18  C 
BRANCH 36 37
ATOM     37  N   GLU D   2      33.433 -13.703  21.774  1.00 40.85 LIG-0.35  N 
ATOM     38  C   ALA D   1      33.183 -12.767  20.865  1.00 38.03 LIG 0.25  C 
ATOM     39 O    ALA D   1      33.310 -11.563  21.091  1.00 37.20 LIG-0.27  OA
ATOM     40 H    GLU D   2      33.367 -14.548  21.629  1.00 40.85 LIG 0.16  HD
BRANCH 38 41
ATOM     41  CA  ALA D   1      32.721 -13.265  19.498  1.00 41.40 LIG 0.27  C 
ATOM     42  CB  ALA D   1      31.499 -14.173  19.639  1.00 39.88 LIG 0.05  C 
BRANCH 41 43
ATOM     43  N   ALA D   1      33.804 -13.960  18.807  1.00 41.88 LIG-0.07  N 
ATOM     44 H2   ALA D   1      34.510 -14.020  19.345  1.00 41.88 LIG 0.28  HD
ATOM     45 H3   ALA D   1      33.535 -14.778  18.579  1.00 41.88 LIG 0.28  HD
ATOM     46 H1   ALA D   1      34.027 -13.507  18.074  1.00 41.88 LIG 0.28  HD
ENDBRANCH 41 43
ENDBRANCH 38 41
ENDBRANCH 36 37
BRANCH 36 47
ATOM     47  CB  GLU D   2      35.246 -12.736  23.116  1.00 37.20 LIG 0.04  C 
BRANCH 47 48
ATOM     48  CG  GLU D   2      36.255 -13.589  23.850  1.00 39.39 LIG 0.12  C 
BRANCH 48 49
ATOM     49  CD  GLU D   2      35.955 -13.663  25.331  1.00 42.36 LIG 0.17  C 
ATOM     50 OE2  GLU D   2      36.633 -12.979  26.135  1.00 45.25 LIG-0.65  OA
ATOM     51 OE1  GLU D   2      35.030 -14.412  25.690  1.00 37.51 LIG-0.65  OA
ENDBRANCH 48 49
ENDBRANCH 47 48
ENDBRANCH 36 47
ENDBRANCH 33 36
ENDBRANCH 31 32
BRANCH 31 52
ATOM     52  CB  ASP D   3      29.309 -11.772  23.634  1.00 35.86 LIG 0.15  C 
BRANCH 52 53
ATOM     53  CG  ASP D   3      28.657 -13.052  23.138  1.00 46.33 LIG 0.17  C 
ATOM     54 OD1  ASP D   3      27.464 -13.288  23.427  1.00 38.55 LIG-0.65  OA
ATOM     55 OD2  ASP D   3      29.356 -13.834  22.457  1.00 55.15 LIG-0.65  OA
ENDBRANCH 52 53
ENDBRANCH 31 52
ENDBRANCH 1 31
TORSDOF 23
ENDMDL
MODEL 5
USER: ADFR SOLUTION from run 103
USER: SCORE 18.682115 LL:  -2.790 LR: -16.107 RR:   0.000 FEB:  -9.246
USER: RMSD 8.282170
USER: SEED 102
USER: STATUS 1 or 2 clusters left
USER: GENES 25
USER: genes 0 Translation |==|  0.48872 0.43671 0.51799
USER: genes 1 Rotation |==|  0.22251 0.87071 0.34054 0.60071
USER: genes 2 Torsion [C]-N--CA-[C] |==|  0.84502
USER: genes 3 Torsion [N]-CA--C-[N] |==|  0.88342
USER: genes 4 Torsion [C]-N--CA-[C] |==|  0.78801
USER: genes 5 Torsion [N]-CA--C-[N] |==|  0.47548
USER: genes 6 Torsion [C]-N--CA-[C] |==|  0.76062
USER: genes 7 Torsion [N]-CA--CB-[CG] |==|  0.84337
USER: genes 8 Torsion [CA]-CB--CG-[CD] |==|  0.92326
USER: genes 9 Torsion [CB]-CG--CD-[OE1] |==|  0.24088
USER: genes 10 Torsion [N]-CA--C-[OXT] |==|  0.46831
USER: genes 11 Torsion [N]-CA--CB-[CG1] |==|  0.56546
USER: genes 12 Torsion [N]-CA--CB-[CG] |==|  0.79254
USER: genes 13 Torsion [CA]-CB--CG-[OD1] |==|  0.36286
USER: genes 14 Torsion [N]-C--CA-[N] |==|  0.36089
USER: genes 15 Torsion [C]-CA--N-[C] |==|  0.78812
USER: genes 16 Torsion [N]-C--CA-[N] |==|  0.93161
USER: genes 17 Torsion [C]-CA--N-[C] |==|  0.82021
USER: genes 18 Torsion [N]-C--CA-[N] |==|  0.99722
USER: genes 19 Torsion [C]-CA--N-[H3] |==|  0.72966
USER: genes 20 Torsion [C]-CA--CB-[CG] |==|  0.93558
USER: genes 21 Torsion [CA]-CB--CG-[CD] |==|  0.28126
USER: genes 22 Torsion [CB]-CG--CD-[OE2] |==|  0.68201
USER: genes 23 Torsion [C]-CA--CB-[CG] |==|  0.74468
USER: genes 24 Torsion [CA]-CB--CG-[OD1] |==|  0.15505
ROOT
ATOM      1  C   ASP D   3      28.053 -14.052  25.694  1.00 34.79 LIG 0.24  C 
ATOM      2 O    ASP D   3      27.849 -14.427  24.535  1.00 37.58 LIG-0.27  OA
ATOM      3  N   ASP D   4      28.011 -14.872  26.741  1.00 33.46 LIG-0.34  N 
ATOM      4 H    ASP D   4      28.222 -14.635  27.540  1.00 33.46 LIG 0.16  HD
ENDROOT
BRANCH 3 5
ATOM      5  CA  ASP D   4      27.601 -16.256  26.623  1.00 24.32 LIG 0.19  C 
BRANCH 5 6
ATOM      6  C   ASP D   4      26.212 -16.236  25.986  1.00 29.08 LIG 0.24  C 
ATOM      7  N   VAL D   5      25.378 -15.312  26.430  1.00 26.12 LIG-0.35  N 
ATOM      8 H    VAL D   5      25.559 -14.763  27.067  1.00 26.12 LIG 0.16  HD
ATOM      9 O    ASP D   4      25.903 -17.048  25.106  1.00 25.35 LIG-0.27  OA
BRANCH 7 10
ATOM     10  CA  VAL D   5      24.051 -15.156  25.849  1.00 27.68 LIG 0.18  C 
BRANCH 10 11
ATOM     11  C   VAL D   5      24.175 -14.445  24.497  1.00 28.81 LIG 0.24  C 
ATOM     12  N   GLU D   6      23.075 -14.388  23.756  1.00 27.30 LIG-0.34  N 
ATOM     13 H    GLU D   6      22.315 -14.703  24.005  1.00 27.30 LIG 0.16  HD
ATOM     14 O    VAL D   5      25.259 -13.990  24.123  1.00 31.14 LIG-0.27  OA
BRANCH 12 15
ATOM     15  CA  GLU D   6      23.065 -13.774  22.428  1.00 31.22 LIG 0.19  C 
BRANCH 15 16
ATOM     16  CB  GLU D   6      21.951 -14.364  21.566  1.00 26.83 LIG 0.05  C 
BRANCH 16 17
ATOM     17  CG  GLU D   6      21.999 -15.864  21.404  1.00 32.75 LIG 0.12  C 
BRANCH 17 18
ATOM     18  CD  GLU D   6      23.415 -16.401  21.527  1.00 37.41 LIG 0.17  C 
ATOM     19 OE1  GLU D   6      23.855 -16.676  22.660  1.00 40.07 LIG-0.65  OA
ATOM     20 OE2  GLU D   6      24.091 -16.549  20.489  1.00 32.49 LIG-0.65  OA
ENDBRANCH 17 18
ENDBRANCH 16 17
ENDBRANCH 15 16
BRANCH 15 21
ATOM     21  C   GLU D   6      22.826 -12.282  22.543  1.00 32.10 LIG 0.20  C 
ATOM     22 OXT  GLU D   6      22.989 -11.551  21.566  1.00 29.11 LIG-0.65  OA
ATOM     23 O    GLU D   6      22.431 -11.791  23.601  1.00 24.06 LIG-0.65  OA
ENDBRANCH 15 21
ENDBRANCH 12 15
ENDBRANCH 10 11
BRANCH 10 24
ATOM     24  CB  VAL D   5      23.120 -14.404  26.812  1.00 24.95 LIG 0.01  C 
ATOM     25  CG1 VAL D   5      21.666 -14.746  26.494  1.00 19.21 LIG 0.01  C 
ATOM     26  CG2 VAL D   5      23.449 -14.767  28.262  1.00 24.99 LIG 0.01  C 
ENDBRANCH 10 24
ENDBRANCH 7 10
ENDBRANCH 5 6
BRANCH 5 27
ATOM     27  CB  ASP D   4      27.546 -16.912  28.008  1.00 34.66 LIG 0.15  C 
BRANCH 27 28
ATOM     28  CG  ASP D   4      28.935 -17.225  28.583  1.00 38.29 LIG 0.17  C 
ATOM     29 OD2  ASP D   4      29.753 -17.823  27.851  1.00 38.65 LIG-0.65  OA
ATOM     30 OD1  ASP D   4      29.220 -16.876  29.748  1.00 35.40 LIG-0.65  OA
ENDBRANCH 27 28
ENDBRANCH 5 27
ENDBRANCH 3 5
BRANCH 1 31
ATOM     31  CA  ASP D   3      28.368 -12.586  26.018  1.00 30.73 LIG 0.19  C 
BRANCH 31 32
ATOM     32  N   ASP D   3      29.443 -12.064  25.174  1.00 30.00 LIG-0.35  N 
ATOM     33  C   GLU D   2      30.711 -12.394  25.415  1.00 37.22 LIG 0.24  C 
ATOM     34 O    GLU D   2      31.047 -13.108  26.361  1.00 35.26 LIG-0.27  OA
ATOM     35 H    ASP D   3      29.186 -11.547  24.536  1.00 30.00 LIG 0.16  HD
BRANCH 33 36
ATOM     36  CA  GLU D   2      31.763 -11.864  24.446  1.00 39.45 LIG 0.18  C 
BRANCH 36 37
ATOM     37  N   GLU D   2      31.209 -11.573  23.130  1.00 40.85 LIG-0.35  N 
ATOM     38  C   ALA D   1      30.717 -12.538  22.361  1.00 38.03 LIG 0.25  C 
ATOM     39 O    ALA D   1      30.673 -13.717  22.712  1.00 37.20 LIG-0.27  OA
ATOM     40 H    GLU D   2      31.231 -10.742  22.908  1.00 40.85 LIG 0.16  HD
BRANCH 38 41
ATOM     41  CA  ALA D   1      30.199 -12.107  20.991  1.00 41.40 LIG 0.27  C 
ATOM     42  CB  ALA D   1      30.927 -12.859  19.877  1.00 39.88 LIG 0.05  C 
BRANCH 41 43
ATOM     43  N   ALA D   1      30.337 -10.663  20.816  1.00 41.88 LIG-0.07  N 
ATOM     44 H2   ALA D   1      30.563 -10.486  19.974  1.00 41.88 LIG 0.28  HD
ATOM     45 H3   ALA D   1      29.564 -10.265  21.005  1.00 41.88 LIG 0.28  HD
ATOM     46 H1   ALA D   1      30.969 -10.357  21.363  1.00 41.88 LIG 0.28  HD
ENDBRANCH 41 43
ENDBRANCH 38 41
ENDBRANCH 36 37
BRANCH 36 47
ATOM     47  CB  GLU D   2      32.471 -10.637  25.016  1.00 37.20 LIG 0.04  C 
BRANCH 47 48
ATOM     48  CG  GLU D   2      31.642  -9.928  26.061  1.00 39.39 LIG 0.12  C 
BRANCH 48 49
ATOM     49  CD  GLU D   2      32.102 -10.264  27.463  1.00 42.36 LIG 0.17  C 
ATOM     50 OE2  GLU D   2      31.339 -10.901  28.228  1.00 45.25 LIG-0.65  OA
ATOM     51 OE1  GLU D   2      33.238  -9.887  27.799  1.00 37.51 LIG-0.65  OA
ENDBRANCH 48 49
ENDBRANCH 47 48
ENDBRANCH 36 47
ENDBRANCH 33 36
ENDBRANCH 31 32
BRANCH 31 52
ATOM     52  CB  ASP D   3      27.117 -11.690  25.985  1.00 35.86 LIG 0.15  C 
BRANCH 52 53
ATOM     53  CG  ASP D   3      26.873 -11.050  24.629  1.00 46.33 LIG 0.17  C 
ATOM     54 OD1  ASP D   3      26.772 -11.775  23.615  1.00 38.55 LIG-0.65  OA
ATOM     55 OD2  ASP D   3      26.792  -9.804  24.580  1.00 55.15 LIG-0.65  OA
ENDBRANCH 52 53
ENDBRANCH 31 52
ENDBRANCH 1 31
TORSDOF 23
ENDMDL
MODEL 6
USER: ADFR SOLUTION from run 45
USER: SCORE 19.986399 LL:  -4.765 LR: -16.020 RR:   0.000 FEB:  -9.160
USER: RMSD 6.026882
USER: SEED 44
USER: STATUS no improvement in best in 4 clusters for 5 generations
USER: GENES 25
USER: genes 0 Translation |==|  0.53926 0.52156 0.44993
USER: genes 1 Rotation |==|  0.78043 0.44667 0.51398 0.91027
USER: genes 2 Torsion [C]-N--CA-[C] |==|  0.80724
USER: genes 3 Torsion [N]-CA--C-[N] |==|  0.93573
USER: genes 4 Torsion [C]-N--CA-[C] |==|  0.84961
USER: genes 5 Torsion [N]-CA--C-[N] |==|  0.87778
USER: genes 6 Torsion [C]-N--CA-[C] |==|  0.75023
USER: genes 7 Torsion [N]-CA--CB-[CG] |==|  0.05642
USER: genes 8 Torsion [CA]-CB--CG-[CD] |==|  0.66779
USER: genes 9 Torsion [CB]-CG--CD-[OE1] |==|  0.44666
USER: genes 10 Torsion [N]-CA--C-[OXT] |==|  0.92583
USER: genes 11 Torsion [N]-CA--CB-[CG1] |==|  0.16557
USER: genes 12 Torsion [N]-CA--CB-[CG] |==|  0.39931
USER: genes 13 Torsion [CA]-CB--CG-[OD1] |==|  0.76232
USER: genes 14 Torsion [N]-C--CA-[N] |==|  0.48882
USER: genes 15 Torsion [C]-CA--N-[C] |==|  0.62058
USER: genes 16 Torsion [N]-C--CA-[N] |==|  0.21856
USER: genes 17 Torsion [C]-CA--N-[C] |==|  0.62613
USER: genes 18 Torsion [N]-C--CA-[N] |==|  0.99376
USER: genes 19 Torsion [C]-CA--N-[H3] |==|  0.56341
USER: genes 20 Torsion [C]-CA--CB-[CG] |==|  0.72966
USER: genes 21 Torsion [CA]-CB--CG-[CD] |==|  0.15991
USER: genes 22 Torsion [CB]-CG--CD-[OE2] |==|  0.74494
USER: genes 23 Torsion [C]-CA--CB-[CG] |==|  0.30608
USER: genes 24 Torsion [CA]-CB--CG-[OD1] |==|  0.66515
ROOT
ATOM      1  C   ASP D   3      29.114 -12.525  24.265  1.00 34.79 LIG 0.24  C 
ATOM      2 O    ASP D   3      29.201 -12.957  25.418  1.00 37.58 LIG-0.27  OA
ATOM      3  N   ASP D   4      30.167 -12.371  23.466  1.00 33.46 LIG-0.34  N 
ATOM      4 H    ASP D   4      30.108 -12.140  22.640  1.00 33.46 LIG 0.16  HD
ENDROOT
BRANCH 3 5
ATOM      5  CA  ASP D   4      31.524 -12.583  23.925  1.00 24.32 LIG 0.19  C 
BRANCH 5 6
ATOM      6  C   ASP D   4      31.829 -11.442  24.894  1.00 29.08 LIG 0.24  C 
ATOM      7  N   VAL D   5      31.105 -10.345  24.753  1.00 26.12 LIG-0.35  N 
ATOM      8 H    VAL D   5      30.516 -10.230  24.136  1.00 26.12 LIG 0.16  HD
ATOM      9 O    ASP D   4      32.708 -11.557  25.757  1.00 25.35 LIG-0.27  OA
BRANCH 7 10
ATOM     10  CA  VAL D   5      31.263  -9.219  25.663  1.00 27.68 LIG 0.18  C 
BRANCH 10 11
ATOM     11  C   VAL D   5      31.091  -9.711  27.105  1.00 28.81 LIG 0.24  C 
ATOM     12  N   GLU D   6      30.082 -10.546  27.328  1.00 27.30 LIG-0.34  N 
ATOM     13 H    GLU D   6      29.553 -10.831  26.714  1.00 27.30 LIG 0.16  HD
ATOM     14 O    VAL D   5      31.840  -9.311  28.000  1.00 31.14 LIG-0.27  OA
BRANCH 12 15
ATOM     15  CA  GLU D   6      29.782 -11.059  28.665  1.00 31.22 LIG 0.19  C 
BRANCH 15 16
ATOM     16  CB  GLU D   6      28.291 -11.354  28.809  1.00 26.83 LIG 0.05  C 
BRANCH 16 17
ATOM     17  CG  GLU D   6      27.549 -11.533  27.507  1.00 32.75 LIG 0.12  C 
BRANCH 17 18
ATOM     18  CD  GLU D   6      26.439 -10.509  27.342  1.00 37.41 LIG 0.17  C 
ATOM     19 OE1  GLU D   6      25.988 -10.293  26.200  1.00 40.07 LIG-0.65  OA
ATOM     20 OE2  GLU D   6      26.016  -9.916  28.354  1.00 32.49 LIG-0.65  OA
ENDBRANCH 17 18
ENDBRANCH 16 17
ENDBRANCH 15 16
BRANCH 15 21
ATOM     21  C   GLU D   6      30.539 -12.347  28.913  1.00 32.10 LIG 0.20  C 
ATOM     22 OXT  GLU D   6      30.866 -13.067  27.969  1.00 29.11 LIG-0.65  OA
ATOM     23 O    GLU D   6      30.870 -12.670  30.055  1.00 24.06 LIG-0.65  OA
ENDBRANCH 15 21
ENDBRANCH 12 15
ENDBRANCH 10 11
BRANCH 10 24
ATOM     24  CB  VAL D   5      30.275  -8.096  25.316  1.00 24.95 LIG 0.01  C 
ATOM     25  CG1 VAL D   5      28.844  -8.621  25.416  1.00 19.21 LIG 0.01  C 
ATOM     26  CG2 VAL D   5      30.473  -6.904  26.254  1.00 24.99 LIG 0.01  C 
ENDBRANCH 10 24
ENDBRANCH 7 10
ENDBRANCH 5 6
BRANCH 5 27
ATOM     27  CB  ASP D   4      32.495 -12.553  22.739  1.00 34.66 LIG 0.15  C 
BRANCH 27 28
ATOM     28  CG  ASP D   4      33.844 -11.904  23.078  1.00 38.29 LIG 0.17  C 
ATOM     29 OD2  ASP D   4      34.786 -12.651  23.422  1.00 38.65 LIG-0.65  OA
ATOM     30 OD1  ASP D   4      33.976 -10.664  23.000  1.00 35.40 LIG-0.65  OA
ENDBRANCH 27 28
ENDBRANCH 5 27
ENDBRANCH 3 5
BRANCH 1 31
ATOM     31  CA  ASP D   3      27.764 -12.120  23.660  1.00 30.73 LIG 0.19  C 
BRANCH 31 32
ATOM     32  N   ASP D   3      26.655 -12.409  24.569  1.00 30.00 LIG-0.35  N 
ATOM     33  C   GLU D   2      25.532 -12.959  24.109  1.00 37.22 LIG 0.24  C 
ATOM     34 O    GLU D   2      25.352 -13.213  22.918  1.00 35.26 LIG-0.27  OA
ATOM     35 H    ASP D   3      26.795 -12.199  25.391  1.00 30.00 LIG 0.16  HD
BRANCH 33 36
ATOM     36  CA  GLU D   2      24.453 -13.293  25.134  1.00 39.45 LIG 0.18  C 
BRANCH 36 37
ATOM     37  N   GLU D   2      23.692 -12.120  25.543  1.00 40.85 LIG-0.35  N 
ATOM     38  C   ALA D   1      23.421 -11.885  26.822  1.00 38.03 LIG 0.25  C 
ATOM     39 O    ALA D   1      23.810 -12.616  27.734  1.00 37.20 LIG-0.27  OA
ATOM     40 H    GLU D   2      23.443 -11.611  24.895  1.00 40.85 LIG 0.16  HD
BRANCH 38 41
ATOM     41  CA  ALA D   1      22.585 -10.641  27.115  1.00 41.40 LIG 0.27  C 
ATOM     42  CB  ALA D   1      21.295 -11.017  27.843  1.00 39.88 LIG 0.05  C 
BRANCH 41 43
ATOM     43  N   ALA D   1      22.290  -9.914  25.883  1.00 41.88 LIG-0.07  N 
ATOM     44 H2   ALA D   1      21.587 -10.283  25.481  1.00 41.88 LIG 0.28  HD
ATOM     45 H3   ALA D   1      22.109  -9.064  26.075  1.00 41.88 LIG 0.28  HD
ATOM     46 H1   ALA D   1      22.995  -9.951  25.340  1.00 41.88 LIG 0.28  HD
ENDBRANCH 41 43
ENDBRANCH 38 41
ENDBRANCH 36 37
BRANCH 36 47
ATOM     47  CB  GLU D   2      23.521 -14.388  24.620  1.00 37.20 LIG 0.04  C 
BRANCH 47 48
ATOM     48  CG  GLU D   2      22.251 -13.828  24.022  1.00 39.39 LIG 0.12  C 
BRANCH 48 49
ATOM     49  CD  GLU D   2      22.541 -12.867  22.890  1.00 42.36 LIG 0.17  C 
ATOM     50 OE2  GLU D   2      22.656 -11.642  23.132  1.00 45.25 LIG-0.65  OA
ATOM     51 OE1  GLU D   2      22.655 -13.346  21.748  1.00 37.51 LIG-0.65  OA
ENDBRANCH 48 49
ENDBRANCH 47 48
ENDBRANCH 36 47
ENDBRANCH 33 36
ENDBRANCH 31 32
BRANCH 31 52
ATOM     52  CB  ASP D   3      27.748 -10.660  23.171  1.00 35.86 LIG 0.15  C 
BRANCH 52 53
ATOM     53  CG  ASP D   3      27.696 -10.534  21.657  1.00 46.33 LIG 0.17  C 
ATOM     54 OD1  ASP D   3      28.613  -9.932  21.058  1.00 38.55 LIG-0.65  OA
ATOM     55 OD2  ASP D   3      26.717 -11.037  21.066  1.00 55.15 LIG-0.65  OA
ENDBRANCH 52 53
ENDBRANCH 31 52
ENDBRANCH 1 31
TORSDOF 23
ENDMDL
MODEL 7
USER: ADFR SOLUTION from run 164
USER: SCORE 17.521540 LL:  -1.858 LR: -15.910 RR:   0.000 FEB:  -9.049
USER: RMSD 5.578308
USER: SEED 163
USER: STATUS no improvement in best in 2 clusters for 5 generations
USER: GENES 25
USER: genes 0 Translation |==|  0.52399 0.57803 0.57650
USER: genes 1 Rotation |==|  0.08519 0.45694 0.72808 0.65510
USER: genes 2 Torsion [C]-N--CA-[C] |==|  0.81450
USER: genes 3 Torsion [N]-CA--C-[N] |==|  0.39084
USER: genes 4 Torsion [C]-N--CA-[C] |==|  0.78457
USER: genes 5 Torsion [N]-CA--C-[N] |==|  0.44149
USER: genes 6 Torsion [C]-N--CA-[C] |==|  0.71672
USER: genes 7 Torsion [N]-CA--CB-[CG] |==|  0.65916
USER: genes 8 Torsion [CA]-CB--CG-[CD] |==|  0.20677
USER: genes 9 Torsion [CB]-CG--CD-[OE1] |==|  0.57036
USER: genes 10 Torsion [N]-CA--C-[OXT] |==|  0.03395
USER: genes 11 Torsion [N]-CA--CB-[CG1] |==|  0.90094
USER: genes 12 Torsion [N]-CA--CB-[CG] |==|  0.12187
USER: genes 13 Torsion [CA]-CB--CG-[OD1] |==|  0.26225
USER: genes 14 Torsion [N]-C--CA-[N] |==|  0.38631
USER: genes 15 Torsion [C]-CA--N-[C] |==|  0.83200
USER: genes 16 Torsion [N]-C--CA-[N] |==|  0.40381
USER: genes 17 Torsion [C]-CA--N-[C] |==|  0.86108
USER: genes 18 Torsion [N]-C--CA-[N] |==|  0.70197
USER: genes 19 Torsion [C]-CA--N-[H3] |==|  0.54795
USER: genes 20 Torsion [C]-CA--CB-[CG] |==|  0.18824
USER: genes 21 Torsion [CA]-CB--CG-[CD] |==|  0.58862
USER: genes 22 Torsion [CB]-CG--CD-[OE2] |==|  0.27650
USER: genes 23 Torsion [C]-CA--CB-[CG] |==|  0.17501
USER: genes 24 Torsion [CA]-CB--CG-[OD1] |==|  0.64882
ROOT
ATOM      1  C   ASP D   3      28.794 -11.508  26.923  1.00 34.79 LIG 0.24  C 
ATOM      2 O    ASP D   3      28.232 -11.712  25.842  1.00 37.58 LIG-0.27  OA
ATOM      3  N   ASP D   4      29.860 -10.723  27.051  1.00 33.46 LIG-0.34  N 
ATOM      4 H    ASP D   4      30.213 -10.519  27.808  1.00 33.46 LIG 0.16  HD
ENDROOT
BRANCH 3 5
ATOM      5  CA  ASP D   4      30.529 -10.135  25.910  1.00 24.32 LIG 0.19  C 
BRANCH 5 6
ATOM      6  C   ASP D   4      31.151 -11.295  25.135  1.00 29.08 LIG 0.24  C 
ATOM      7  N   VAL D   5      31.093 -11.216  23.816  1.00 26.12 LIG-0.35  N 
ATOM      8 H    VAL D   5      30.700 -10.583  23.387  1.00 26.12 LIG 0.16  HD
ATOM      9 O    ASP D   4      31.677 -12.247  25.724  1.00 25.35 LIG-0.27  OA
BRANCH 7 10
ATOM     10  CA  VAL D   5      31.712 -12.231  22.975  1.00 27.68 LIG 0.18  C 
BRANCH 10 11
ATOM     11  C   VAL D   5      33.225 -11.992  22.931  1.00 28.81 LIG 0.24  C 
ATOM     12  N   GLU D   6      33.979 -13.031  22.588  1.00 27.30 LIG-0.34  N 
ATOM     13 H    GLU D   6      33.661 -13.801  22.373  1.00 27.30 LIG 0.16  HD
ATOM     14 O    VAL D   5      33.699 -10.895  23.238  1.00 31.14 LIG-0.27  OA
BRANCH 12 15
ATOM     15  CA  GLU D   6      35.438 -12.951  22.546  1.00 31.22 LIG 0.19  C 
BRANCH 15 16
ATOM     16  CB  GLU D   6      36.068 -14.215  23.127  1.00 26.83 LIG 0.05  C 
BRANCH 16 17
ATOM     17  CG  GLU D   6      37.007 -13.983  24.285  1.00 32.75 LIG 0.12  C 
BRANCH 17 18
ATOM     18  CD  GLU D   6      36.258 -13.642  25.562  1.00 37.41 LIG 0.17  C 
ATOM     19 OE1  GLU D   6      36.843 -12.979  26.441  1.00 40.07 LIG-0.65  OA
ATOM     20 OE2  GLU D   6      35.083 -14.039  25.691  1.00 32.49 LIG-0.65  OA
ENDBRANCH 17 18
ENDBRANCH 16 17
ENDBRANCH 15 16
BRANCH 15 21
ATOM     21  C   GLU D   6      35.914 -12.808  21.114  1.00 32.10 LIG 0.20  C 
ATOM     22 OXT  GLU D   6      35.111 -12.550  20.217  1.00 29.11 LIG-0.65  OA
ATOM     23 O    GLU D   6      37.110 -12.910  20.838  1.00 24.06 LIG-0.65  OA
ENDBRANCH 15 21
ENDBRANCH 12 15
ENDBRANCH 10 11
BRANCH 10 24
ATOM     24  CB  VAL D   5      31.088 -12.229  21.571  1.00 24.95 LIG 0.01  C 
ATOM     25  CG1 VAL D   5      29.596 -11.916  21.672  1.00 19.21 LIG 0.01  C 
ATOM     26  CG2 VAL D   5      31.790 -11.205  20.678  1.00 24.99 LIG 0.01  C 
ENDBRANCH 10 24
ENDBRANCH 7 10
ENDBRANCH 5 6
BRANCH 5 27
ATOM     27  CB  ASP D   4      31.615  -9.159  26.378  1.00 34.66 LIG 0.15  C 
BRANCH 27 28
ATOM     28  CG  ASP D   4      32.460  -9.705  27.537  1.00 38.29 LIG 0.17  C 
ATOM     29 OD2  ASP D   4      32.029  -9.552  28.701  1.00 38.65 LIG-0.65  OA
ATOM     30 OD1  ASP D   4      33.539 -10.288  27.302  1.00 35.40 LIG-0.65  OA
ENDBRANCH 27 28
ENDBRANCH 5 27
ENDBRANCH 3 5
BRANCH 1 31
ATOM     31  CA  ASP D   3      28.299 -12.164  28.218  1.00 30.73 LIG 0.19  C 
BRANCH 31 32
ATOM     32  N   ASP D   3      26.839 -12.159  28.303  1.00 30.00 LIG-0.35  N 
ATOM     33  C   GLU D   2      26.166 -11.008  28.301  1.00 37.22 LIG 0.24  C 
ATOM     34 O    GLU D   2      26.722  -9.911  28.266  1.00 35.26 LIG-0.27  OA
ATOM     35 H    ASP D   3      26.475 -12.937  28.353  1.00 30.00 LIG 0.16  HD
BRANCH 33 36
ATOM     36  CA  GLU D   2      24.643 -11.095  28.322  1.00 39.45 LIG 0.18  C 
BRANCH 36 37
ATOM     37  N   GLU D   2      24.035 -10.013  29.084  1.00 40.85 LIG-0.35  N 
ATOM     38  C   ALA D   1      24.448  -9.720  30.313  1.00 38.03 LIG 0.25  C 
ATOM     39 O    ALA D   1      25.371 -10.314  30.869  1.00 37.20 LIG-0.27  OA
ATOM     40 H    GLU D   2      23.404  -9.597  28.674  1.00 40.85 LIG 0.16  HD
BRANCH 38 41
ATOM     41  CA  ALA D   1      23.705  -8.588  31.018  1.00 41.40 LIG 0.27  C 
ATOM     42  CB  ALA D   1      22.384  -8.285  30.310  1.00 39.88 LIG 0.05  C 
BRANCH 41 43
ATOM     43  N   ALA D   1      24.538  -7.390  31.093  1.00 41.88 LIG-0.07  N 
ATOM     44 H2   ALA D   1      24.545  -6.983  30.302  1.00 41.88 LIG 0.28  HD
ATOM     45 H3   ALA D   1      24.209  -6.836  31.707  1.00 41.88 LIG 0.28  HD
ATOM     46 H1   ALA D   1      25.369  -7.619  31.316  1.00 41.88 LIG 0.28  HD
ENDBRANCH 41 43
ENDBRANCH 38 41
ENDBRANCH 36 37
BRANCH 36 47
ATOM     47  CB  GLU D   2      24.073 -11.143  26.906  1.00 37.20 LIG 0.04  C 
BRANCH 47 48
ATOM     48  CG  GLU D   2      24.422 -12.427  26.189  1.00 39.39 LIG 0.12  C 
BRANCH 48 49
ATOM     49  CD  GLU D   2      24.577 -12.212  24.699  1.00 42.36 LIG 0.17  C 
ATOM     50 OE2  GLU D   2      25.725 -12.093  24.207  1.00 45.25 LIG-0.65  OA
ATOM     51 OE1  GLU D   2      23.539 -12.163  24.017  1.00 37.51 LIG-0.65  OA
ENDBRANCH 48 49
ENDBRANCH 47 48
ENDBRANCH 36 47
ENDBRANCH 33 36
ENDBRANCH 31 32
BRANCH 31 52
ATOM     52  CB  ASP D   3      28.889 -13.569  28.434  1.00 35.86 LIG 0.15  C 
BRANCH 52 53
ATOM     53  CG  ASP D   3      30.400 -13.569  28.593  1.00 46.33 LIG 0.17  C 
ATOM     54 OD1  ASP D   3      31.096 -14.306  27.862  1.00 38.55 LIG-0.65  OA
ATOM     55 OD2  ASP D   3      30.891 -12.826  29.470  1.00 55.15 LIG-0.65  OA
ENDBRANCH 52 53
ENDBRANCH 31 52
ENDBRANCH 1 31
TORSDOF 23
ENDMDL
MODEL 8
USER: ADFR SOLUTION from run 187
USER: SCORE 18.853746 LL:  -4.000 LR: -15.873 RR:   0.000 FEB:  -9.012
USER: RMSD 8.000188
USER: SEED 186
USER: STATUS no improvement in best in 4 clusters for 5 generations
USER: GENES 25
USER: genes 0 Translation |==|  0.54508 0.51530 0.38849
USER: genes 1 Rotation |==|  0.86087 0.30230 0.76205 0.60962
USER: genes 2 Torsion [C]-N--CA-[C] |==|  0.85752
USER: genes 3 Torsion [N]-CA--C-[N] |==|  0.86827
USER: genes 4 Torsion [C]-N--CA-[C] |==|  0.67580
USER: genes 5 Torsion [N]-CA--C-[N] |==|  0.53712
USER: genes 6 Torsion [C]-N--CA-[C] |==|  0.75204
USER: genes 7 Torsion [N]-CA--CB-[CG] |==|  0.67854
USER: genes 8 Torsion [CA]-CB--CG-[CD] |==|  0.11588
USER: genes 9 Torsion [CB]-CG--CD-[OE1] |==|  0.11706
USER: genes 10 Torsion [N]-CA--C-[OXT] |==|  0.39325
USER: genes 11 Torsion [N]-CA--CB-[CG1] |==|  0.83728
USER: genes 12 Torsion [N]-CA--CB-[CG] |==|  0.51244
USER: genes 13 Torsion [CA]-CB--CG-[OD1] |==|  0.04225
USER: genes 14 Torsion [N]-C--CA-[N] |==|  0.42900
USER: genes 15 Torsion [C]-CA--N-[C] |==|  0.53600
USER: genes 16 Torsion [N]-C--CA-[N] |==|  0.97366
USER: genes 17 Torsion [C]-CA--N-[C] |==|  0.74444
USER: genes 18 Torsion [N]-C--CA-[N] |==|  0.09987
USER: genes 19 Torsion [C]-CA--N-[H3] |==|  0.55696
USER: genes 20 Torsion [C]-CA--CB-[CG] |==|  0.57706
USER: genes 21 Torsion [CA]-CB--CG-[CD] |==|  0.24928
USER: genes 22 Torsion [CB]-CG--CD-[OE2] |==|  0.23432
USER: genes 23 Torsion [C]-CA--CB-[CG] |==|  0.15752
USER: genes 24 Torsion [CA]-CB--CG-[OD1] |==|  0.22189
ROOT
ATOM      1  C   ASP D   3      29.237 -12.638  22.974  1.00 34.79 LIG 0.24  C 
ATOM      2 O    ASP D   3      29.040 -13.856  22.937  1.00 37.58 LIG-0.27  OA
ATOM      3  N   ASP D   4      29.699 -12.008  24.052  1.00 33.46 LIG-0.34  N 
ATOM      4 H    ASP D   4      29.906 -11.174  24.063  1.00 33.46 LIG 0.16  HD
ENDROOT
BRANCH 3 5
ATOM      5  CA  ASP D   4      29.897 -12.684  25.316  1.00 24.32 LIG 0.19  C 
BRANCH 5 6
ATOM      6  C   ASP D   4      28.587 -13.406  25.625  1.00 29.08 LIG 0.24  C 
ATOM      7  N   VAL D   5      27.481 -12.695  25.483  1.00 26.12 LIG-0.35  N 
ATOM      8 H    VAL D   5      27.465 -11.862  25.270  1.00 26.12 LIG 0.16  HD
ATOM      9 O    ASP D   4      28.579 -14.589  25.985  1.00 25.35 LIG-0.27  OA
BRANCH 7 10
ATOM     10  CA  VAL D   5      26.170 -13.298  25.684  1.00 27.68 LIG 0.18  C 
BRANCH 10 11
ATOM     11  C   VAL D   5      25.390 -13.256  24.366  1.00 28.81 LIG 0.24  C 
ATOM     12  N   GLU D   6      24.089 -13.512  24.440  1.00 27.30 LIG-0.34  N 
ATOM     13 H    GLU D   6      23.675 -13.671  25.176  1.00 27.30 LIG 0.16  HD
ATOM     14 O    VAL D   5      25.968 -13.031  23.299  1.00 31.14 LIG-0.27  OA
BRANCH 12 15
ATOM     15  CA  GLU D   6      23.236 -13.544  23.252  1.00 31.22 LIG 0.19  C 
BRANCH 15 16
ATOM     16  CB  GLU D   6      22.057 -14.492  23.457  1.00 26.83 LIG 0.05  C 
BRANCH 16 17
ATOM     17  CG  GLU D   6      22.038 -15.691  22.541  1.00 32.75 LIG 0.12  C 
BRANCH 17 18
ATOM     18  CD  GLU D   6      23.422 -16.296  22.371  1.00 37.41 LIG 0.17  C 
ATOM     19 OE1  GLU D   6      24.154 -16.407  23.374  1.00 40.07 LIG-0.65  OA
ATOM     20 OE2  GLU D   6      23.781 -16.658  21.233  1.00 32.49 LIG-0.65  OA
ENDBRANCH 17 18
ENDBRANCH 16 17
ENDBRANCH 15 16
BRANCH 15 21
ATOM     21  C   GLU D   6      22.680 -12.163  22.969  1.00 32.10 LIG 0.20  C 
ATOM     22 OXT  GLU D   6      22.572 -11.764  21.809  1.00 29.11 LIG-0.65  OA
ATOM     23 O    GLU D   6      22.296 -11.441  23.890  1.00 24.06 LIG-0.65  OA
ENDBRANCH 15 21
ENDBRANCH 12 15
ENDBRANCH 10 11
BRANCH 10 24
ATOM     24  CB  VAL D   5      25.416 -12.593  26.822  1.00 24.95 LIG 0.01  C 
ATOM     25  CG1 VAL D   5      26.231 -12.681  28.111  1.00 19.21 LIG 0.01  C 
ATOM     26  CG2 VAL D   5      25.148 -11.132  26.457  1.00 24.99 LIG 0.01  C 
ENDBRANCH 10 24
ENDBRANCH 7 10
ENDBRANCH 5 6
BRANCH 5 27
ATOM     27  CB  ASP D   4      30.221 -11.666  26.416  1.00 34.66 LIG 0.15  C 
BRANCH 27 28
ATOM     28  CG  ASP D   4      30.552 -12.319  27.766  1.00 38.29 LIG 0.17  C 
ATOM     29 OD2  ASP D   4      30.538 -11.597  28.786  1.00 38.65 LIG-0.65  OA
ATOM     30 OD1  ASP D   4      30.817 -13.538  27.820  1.00 35.40 LIG-0.65  OA
ENDBRANCH 27 28
ENDBRANCH 5 27
ENDBRANCH 3 5
BRANCH 1 31
ATOM     31  CA  ASP D   3      28.949 -11.743  21.762  1.00 30.73 LIG 0.19  C 
BRANCH 31 32
ATOM     32  N   ASP D   3      29.034 -12.489  20.507  1.00 30.00 LIG-0.35  N 
ATOM     33  C   GLU D   2      29.072 -11.845  19.340  1.00 37.22 LIG 0.24  C 
ATOM     34 O    GLU D   2      29.001 -10.620  19.252  1.00 35.26 LIG-0.27  OA
ATOM     35 H    ASP D   3      29.056 -13.345  20.593  1.00 30.00 LIG 0.16  HD
BRANCH 33 36
ATOM     36  CA  GLU D   2      29.232 -12.695  18.084  1.00 39.45 LIG 0.18  C 
BRANCH 36 37
ATOM     37  N   GLU D   2      29.539 -14.086  18.389  1.00 40.85 LIG-0.35  N 
ATOM     38  C   ALA D   1      30.795 -14.512  18.473  1.00 38.03 LIG 0.25  C 
ATOM     39 O    ALA D   1      31.765 -13.768  18.327  1.00 37.20 LIG-0.27  OA
ATOM     40 H    GLU D   2      28.850 -14.588  18.506  1.00 40.85 LIG 0.16  HD
BRANCH 38 41
ATOM     41  CA  ALA D   1      30.982 -15.999  18.763  1.00 41.40 LIG 0.27  C 
ATOM     42  CB  ALA D   1      32.375 -16.461  18.336  1.00 39.88 LIG 0.05  C 
BRANCH 41 43
ATOM     43  N   ALA D   1      29.949 -16.790  18.100  1.00 41.88 LIG-0.07  N 
ATOM     44 H2   ALA D   1      30.166 -16.905  17.245  1.00 41.88 LIG 0.28  HD
ATOM     45 H3   ALA D   1      29.881 -17.584  18.498  1.00 41.88 LIG 0.28  HD
ATOM     46 H1   ALA D   1      29.169 -16.365  18.153  1.00 41.88 LIG 0.28  HD
ENDBRANCH 41 43
ENDBRANCH 38 41
ENDBRANCH 36 37
BRANCH 36 47
ATOM     47  CB  GLU D   2      27.997 -12.599  17.191  1.00 37.20 LIG 0.04  C 
BRANCH 47 48
ATOM     48  CG  GLU D   2      27.796 -13.840  16.352  1.00 39.39 LIG 0.12  C 
BRANCH 48 49
ATOM     49  CD  GLU D   2      26.943 -14.867  17.067  1.00 42.36 LIG 0.17  C 
ATOM     50 OE2  GLU D   2      25.693 -14.781  17.008  1.00 45.25 LIG-0.65  OA
ATOM     51 OE1  GLU D   2      27.533 -15.766  17.691  1.00 37.51 LIG-0.65  OA
ENDBRANCH 48 49
ENDBRANCH 47 48
ENDBRANCH 36 47
ENDBRANCH 33 36
ENDBRANCH 31 32
BRANCH 31 52
ATOM     52  CB  ASP D   3      27.620 -10.976  21.893  1.00 35.86 LIG 0.15  C 
BRANCH 52 53
ATOM     53  CG  ASP D   3      27.542 -10.120  23.146  1.00 46.33 LIG 0.17  C 
ATOM     54 OD1  ASP D   3      28.108  -9.006  23.167  1.00 38.55 LIG-0.65  OA
ATOM     55 OD2  ASP D   3      26.912 -10.578  24.124  1.00 55.15 LIG-0.65  OA
ENDBRANCH 52 53
ENDBRANCH 31 52
ENDBRANCH 1 31
TORSDOF 23
ENDMDL
MODEL 9
USER: ADFR SOLUTION from run 197
USER: SCORE 18.810016 LL:  -4.357 LR: -15.844 RR:   0.000 FEB:  -8.983
USER: RMSD 7.903717
USER: SEED 196
USER: STATUS no improvement in best in 9 clusters for 5 generations
USER: GENES 25
USER: genes 0 Translation |==|  0.58132 0.64378 0.60739
USER: genes 1 Rotation |==|  0.45202 0.35897 0.04321 0.63839
USER: genes 2 Torsion [C]-N--CA-[C] |==|  0.74742
USER: genes 3 Torsion [N]-CA--C-[N] |==|  0.57431
USER: genes 4 Torsion [C]-N--CA-[C] |==|  0.72303
USER: genes 5 Torsion [N]-CA--C-[N] |==|  0.84446
USER: genes 6 Torsion [C]-N--CA-[C] |==|  0.74065
USER: genes 7 Torsion [N]-CA--CB-[CG] |==|  0.65440
USER: genes 8 Torsion [CA]-CB--CG-[CD] |==|  0.89363
USER: genes 9 Torsion [CB]-CG--CD-[OE1] |==|  0.21786
USER: genes 10 Torsion [N]-CA--C-[OXT] |==|  0.16281
USER: genes 11 Torsion [N]-CA--CB-[CG1] |==|  0.38176
USER: genes 12 Torsion [N]-CA--CB-[CG] |==|  0.18175
USER: genes 13 Torsion [CA]-CB--CG-[OD1] |==|  0.85904
USER: genes 14 Torsion [N]-C--CA-[N] |==|  0.86805
USER: genes 15 Torsion [C]-CA--N-[C] |==|  0.84902
USER: genes 16 Torsion [N]-C--CA-[N] |==|  0.90858
USER: genes 17 Torsion [C]-CA--N-[C] |==|  0.76200
USER: genes 18 Torsion [N]-C--CA-[N] |==|  0.81147
USER: genes 19 Torsion [C]-CA--N-[H3] |==|  0.66039
USER: genes 20 Torsion [C]-CA--CB-[CG] |==|  0.27339
USER: genes 21 Torsion [CA]-CB--CG-[CD] |==|  0.75602
USER: genes 22 Torsion [CB]-CG--CD-[OE2] |==|  0.35961
USER: genes 23 Torsion [C]-CA--CB-[CG] |==|  0.80618
USER: genes 24 Torsion [CA]-CB--CG-[OD1] |==|  0.92478
ROOT
ATOM      1  C   ASP D   3      29.998 -10.325  27.571  1.00 34.79 LIG 0.24  C 
ATOM      2 O    ASP D   3      30.213 -10.642  28.745  1.00 37.58 LIG-0.27  OA
ATOM      3  N   ASP D   4      28.807 -10.451  26.991  1.00 33.46 LIG-0.34  N 
ATOM      4 H    ASP D   4      28.631 -10.167  26.199  1.00 33.46 LIG 0.16  HD
ENDROOT
BRANCH 3 5
ATOM      5  CA  ASP D   4      27.688 -11.088  27.653  1.00 24.32 LIG 0.19  C 
BRANCH 5 6
ATOM      6  C   ASP D   4      27.752 -12.566  27.274  1.00 29.08 LIG 0.24  C 
ATOM      7  N   VAL D   5      26.605 -13.223  27.283  1.00 26.12 LIG-0.35  N 
ATOM      8 H    VAL D   5      25.853 -12.880  27.522  1.00 26.12 LIG 0.16  HD
ATOM      9 O    ASP D   4      28.826 -13.102  26.977  1.00 25.35 LIG-0.27  OA
BRANCH 7 10
ATOM     10  CA  VAL D   5      26.535 -14.619  26.874  1.00 27.68 LIG 0.18  C 
BRANCH 10 11
ATOM     11  C   VAL D   5      26.028 -14.695  25.430  1.00 28.81 LIG 0.24  C 
ATOM     12  N   GLU D   6      24.861 -14.111  25.182  1.00 27.30 LIG-0.34  N 
ATOM     13 H    GLU D   6      24.405 -13.685  25.773  1.00 27.30 LIG 0.16  HD
ATOM     14 O    VAL D   5      26.668 -15.304  24.569  1.00 31.14 LIG-0.27  OA
BRANCH 12 15
ATOM     15  CA  GLU D   6      24.243 -14.144  23.856  1.00 31.22 LIG 0.19  C 
BRANCH 15 16
ATOM     16  CB  GLU D   6      22.721 -14.170  23.968  1.00 26.83 LIG 0.05  C 
BRANCH 16 17
ATOM     17  CG  GLU D   6      22.051 -15.324  23.262  1.00 32.75 LIG 0.12  C 
BRANCH 17 18
ATOM     18  CD  GLU D   6      22.727 -15.647  21.939  1.00 37.41 LIG 0.17  C 
ATOM     19 OE1  GLU D   6      23.790 -16.298  21.953  1.00 40.07 LIG-0.65  OA
ATOM     20 OE2  GLU D   6      22.197 -15.248  20.883  1.00 32.49 LIG-0.65  OA
ENDBRANCH 17 18
ENDBRANCH 16 17
ENDBRANCH 15 16
BRANCH 15 21
ATOM     21  C   GLU D   6      24.632 -12.910  23.067  1.00 32.10 LIG 0.20  C 
ATOM     22 OXT  GLU D   6      25.818 -12.664  22.846  1.00 29.11 LIG-0.65  OA
ATOM     23 O    GLU D   6      23.768 -12.163  22.606  1.00 24.06 LIG-0.65  OA
ENDBRANCH 15 21
ENDBRANCH 12 15
ENDBRANCH 10 11
BRANCH 10 24
ATOM     24  CB  VAL D   5      25.652 -15.425  27.838  1.00 24.95 LIG 0.01  C 
ATOM     25  CG1 VAL D   5      24.754 -16.371  27.044  1.00 19.21 LIG 0.01  C 
ATOM     26  CG2 VAL D   5      26.519 -16.212  28.823  1.00 24.99 LIG 0.01  C 
ENDBRANCH 10 24
ENDBRANCH 7 10
ENDBRANCH 5 6
BRANCH 5 27
ATOM     27  CB  ASP D   4      26.369 -10.469  27.176  1.00 34.66 LIG 0.15  C 
BRANCH 27 28
ATOM     28  CG  ASP D   4      26.081 -10.729  25.691  1.00 38.29 LIG 0.17  C 
ATOM     29 OD2  ASP D   4      24.959 -11.185  25.381  1.00 38.65 LIG-0.65  OA
ATOM     30 OD1  ASP D   4      26.955 -10.480  24.833  1.00 35.40 LIG-0.65  OA
ENDBRANCH 27 28
ENDBRANCH 5 27
ENDBRANCH 3 5
BRANCH 1 31
ATOM     31  CA  ASP D   3      31.109  -9.759  26.678  1.00 30.73 LIG 0.19  C 
BRANCH 31 32
ATOM     32  N   ASP D   3      31.147 -10.424  25.375  1.00 30.00 LIG-0.35  N 
ATOM     33  C   GLU D   2      31.245 -11.751  25.297  1.00 37.22 LIG 0.24  C 
ATOM     34 O    GLU D   2      31.346 -12.472  26.290  1.00 35.26 LIG-0.27  OA
ATOM     35 H    ASP D   3      31.102  -9.897  24.696  1.00 30.00 LIG 0.16  HD
BRANCH 33 36
ATOM     36  CA  GLU D   2      31.207 -12.369  23.903  1.00 39.45 LIG 0.18  C 
BRANCH 36 37
ATOM     37  N   GLU D   2      30.357 -11.621  22.987  1.00 40.85 LIG-0.35  N 
ATOM     38  C   ALA D   1      29.049 -11.846  22.921  1.00 38.03 LIG 0.25  C 
ATOM     39 O    ALA D   1      28.475 -12.668  23.635  1.00 37.20 LIG-0.27  OA
ATOM     40 H    GLU D   2      30.772 -11.039  22.509  1.00 40.85 LIG 0.16  HD
BRANCH 38 41
ATOM     41  CA  ALA D   1      28.276 -11.021  21.895  1.00 41.40 LIG 0.27  C 
ATOM     42  CB  ALA D   1      28.877 -11.194  20.500  1.00 39.88 LIG 0.05  C 
BRANCH 41 43
ATOM     43  N   ALA D   1      28.253  -9.611  22.277  1.00 41.88 LIG-0.07  N 
ATOM     44 H2   ALA D   1      28.665  -9.128  21.654  1.00 41.88 LIG 0.28  HD
ATOM     45 H3   ALA D   1      27.409  -9.338  22.352  1.00 41.88 LIG 0.28  HD
ATOM     46 H1   ALA D   1      28.668  -9.508  23.057  1.00 41.88 LIG 0.28  HD
ENDBRANCH 41 43
ENDBRANCH 38 41
ENDBRANCH 36 37
BRANCH 36 47
ATOM     47  CB  GLU D   2      32.613 -12.524  23.329  1.00 37.20 LIG 0.04  C 
BRANCH 47 48
ATOM     48  CG  GLU D   2      33.153 -13.926  23.499  1.00 39.39 LIG 0.12  C 
BRANCH 48 49
ATOM     49  CD  GLU D   2      33.855 -14.098  24.829  1.00 42.36 LIG 0.17  C 
ATOM     50 OE2  GLU D   2      33.553 -15.066  25.567  1.00 45.25 LIG-0.65  OA
ATOM     51 OE1  GLU D   2      34.716 -13.256  25.134  1.00 37.51 LIG-0.65  OA
ENDBRANCH 48 49
ENDBRANCH 47 48
ENDBRANCH 36 47
ENDBRANCH 33 36
ENDBRANCH 31 32
BRANCH 31 52
ATOM     52  CB  ASP D   3      31.040  -8.227  26.545  1.00 35.86 LIG 0.15  C 
BRANCH 52 53
ATOM     53  CG  ASP D   3      29.848  -7.747  25.734  1.00 46.33 LIG 0.17  C 
ATOM     54 OD1  ASP D   3      29.357  -8.495  24.860  1.00 38.55 LIG-0.65  OA
ATOM     55 OD2  ASP D   3      29.407  -6.602  25.970  1.00 55.15 LIG-0.65  OA
ENDBRANCH 52 53
ENDBRANCH 31 52
ENDBRANCH 1 31
TORSDOF 23
ENDMDL
MODEL 10
USER: ADFR SOLUTION from run 174
USER: SCORE 18.799506 LL:  -3.185 LR: -15.734 RR:   0.000 FEB:  -8.873
USER: RMSD 8.750702
USER: SEED 173
USER: STATUS no improvement in best in 9 clusters for 5 generations
USER: GENES 25
USER: genes 0 Translation |==|  0.54769 0.65562 0.54645
USER: genes 1 Rotation |==|  0.41293 0.80441 0.88109 0.56726
USER: genes 2 Torsion [C]-N--CA-[C] |==|  0.82374
USER: genes 3 Torsion [N]-CA--C-[N] |==|  0.39716
USER: genes 4 Torsion [C]-N--CA-[C] |==|  0.80263
USER: genes 5 Torsion [N]-CA--C-[N] |==|  0.88333
USER: genes 6 Torsion [C]-N--CA-[C] |==|  0.44753
USER: genes 7 Torsion [N]-CA--CB-[CG] |==|  0.59642
USER: genes 8 Torsion [CA]-CB--CG-[CD] |==|  0.06756
USER: genes 9 Torsion [CB]-CG--CD-[OE1] |==|  0.72932
USER: genes 10 Torsion [N]-CA--C-[OXT] |==|  0.01785
USER: genes 11 Torsion [N]-CA--CB-[CG1] |==|  0.22796
USER: genes 12 Torsion [N]-CA--CB-[CG] |==|  0.29837
USER: genes 13 Torsion [CA]-CB--CG-[OD1] |==|  0.79538
USER: genes 14 Torsion [N]-C--CA-[N] |==|  0.97722
USER: genes 15 Torsion [C]-CA--N-[C] |==|  0.76073
USER: genes 16 Torsion [N]-C--CA-[N] |==|  0.00823
USER: genes 17 Torsion [C]-CA--N-[C] |==|  0.72911
USER: genes 18 Torsion [N]-C--CA-[N] |==|  0.99205
USER: genes 19 Torsion [C]-CA--N-[H3] |==|  0.40355
USER: genes 20 Torsion [C]-CA--CB-[CG] |==|  0.60237
USER: genes 21 Torsion [CA]-CB--CG-[CD] |==|  0.21700
USER: genes 22 Torsion [CB]-CG--CD-[OE2] |==|  0.68237
USER: genes 23 Torsion [C]-CA--CB-[CG] |==|  0.43367
USER: genes 24 Torsion [CA]-CB--CG-[OD1] |==|  0.16365
ROOT
ATOM      1  C   ASP D   3      29.292 -10.112  26.291  1.00 34.79 LIG 0.24  C 
ATOM      2 O    ASP D   3      28.524  -9.541  27.072  1.00 37.58 LIG-0.27  OA
ATOM      3  N   ASP D   4      28.935 -10.487  25.066  1.00 33.46 LIG-0.34  N 
ATOM      4 H    ASP D   4      29.481 -10.819  24.492  1.00 33.46 LIG 0.16  HD
ENDROOT
BRANCH 3 5
ATOM      5  CA  ASP D   4      27.574 -10.366  24.585  1.00 24.32 LIG 0.19  C 
BRANCH 5 6
ATOM      6  C   ASP D   4      26.727 -11.283  25.466  1.00 29.08 LIG 0.24  C 
ATOM      7  N   VAL D   5      25.517 -10.846  25.771  1.00 26.12 LIG-0.35  N 
ATOM      8 H    VAL D   5      25.207 -10.078  25.538  1.00 26.12 LIG 0.16  HD
ATOM      9 O    ASP D   4      27.165 -12.369  25.862  1.00 25.35 LIG-0.27  OA
BRANCH 7 10
ATOM     10  CA  VAL D   5      24.597 -11.665  26.548  1.00 27.68 LIG 0.18  C 
BRANCH 10 11
ATOM     11  C   VAL D   5      24.115 -12.836  25.685  1.00 28.81 LIG 0.24  C 
ATOM     12  N   GLU D   6      23.813 -12.555  24.422  1.00 27.30 LIG-0.34  N 
ATOM     13 H    GLU D   6      23.897 -11.773  24.074  1.00 27.30 LIG 0.16  HD
ATOM     14 O    VAL D   5      23.987 -13.964  26.168  1.00 31.14 LIG-0.27  OA
BRANCH 12 15
ATOM     15  CA  GLU D   6      23.303 -13.571  23.502  1.00 31.22 LIG 0.19  C 
BRANCH 15 16
ATOM     16  CB  GLU D   6      22.279 -14.466  24.196  1.00 26.83 LIG 0.05  C 
BRANCH 16 17
ATOM     17  CG  GLU D   6      22.290 -15.908  23.752  1.00 32.75 LIG 0.12  C 
BRANCH 17 18
ATOM     18  CD  GLU D   6      23.638 -16.313  23.178  1.00 37.41 LIG 0.17  C 
ATOM     19 OE1  GLU D   6      23.790 -16.302  21.941  1.00 40.07 LIG-0.65  OA
ATOM     20 OE2  GLU D   6      24.547 -16.646  23.964  1.00 32.49 LIG-0.65  OA
ENDBRANCH 17 18
ENDBRANCH 16 17
ENDBRANCH 15 16
BRANCH 15 21
ATOM     21  C   GLU D   6      22.622 -12.912  22.320  1.00 32.10 LIG 0.20  C 
ATOM     22 OXT  GLU D   6      22.665 -11.689  22.182  1.00 29.11 LIG-0.65  OA
ATOM     23 O    GLU D   6      22.053 -13.592  21.465  1.00 24.06 LIG-0.65  OA
ENDBRANCH 15 21
ENDBRANCH 12 15
ENDBRANCH 10 11
BRANCH 10 24
ATOM     24  CB  VAL D   5      23.429 -10.819  27.076  1.00 24.95 LIG 0.01  C 
ATOM     25  CG1 VAL D   5      22.372 -10.663  25.985  1.00 19.21 LIG 0.01  C 
ATOM     26  CG2 VAL D   5      22.820 -11.471  28.320  1.00 24.99 LIG 0.01  C 
ENDBRANCH 10 24
ENDBRANCH 7 10
ENDBRANCH 5 6
BRANCH 5 27
ATOM     27  CB  ASP D   4      27.490 -10.804  23.118  1.00 34.66 LIG 0.15  C 
BRANCH 27 28
ATOM     28  CG  ASP D   4      26.792 -12.158  22.931  1.00 38.29 LIG 0.17  C 
ATOM     29 OD2  ASP D   4      25.637 -12.162  22.453  1.00 38.65 LIG-0.65  OA
ATOM     30 OD1  ASP D   4      27.382 -13.212  23.248  1.00 35.40 LIG-0.65  OA
ENDBRANCH 27 28
ENDBRANCH 5 27
ENDBRANCH 3 5
BRANCH 1 31
ATOM     31  CA  ASP D   3      30.736 -10.444  26.687  1.00 30.73 LIG 0.19  C 
BRANCH 31 32
ATOM     32  N   ASP D   3      31.389 -11.290  25.689  1.00 30.00 LIG-0.35  N 
ATOM     33  C   GLU D   2      31.260 -12.616  25.739  1.00 37.22 LIG 0.24  C 
ATOM     34 O    GLU D   2      30.631 -13.191  26.626  1.00 35.26 LIG-0.27  OA
ATOM     35 H    ASP D   3      31.845 -10.866  25.094  1.00 30.00 LIG 0.16  HD
BRANCH 33 36
ATOM     36  CA  GLU D   2      31.915 -13.419  24.619  1.00 39.45 LIG 0.18  C 
BRANCH 36 37
ATOM     37  N   GLU D   2      32.653 -12.577  23.689  1.00 40.85 LIG-0.35  N 
ATOM     38  C   ALA D   1      32.114 -12.179  22.542  1.00 38.03 LIG 0.25  C 
ATOM     39 O    ALA D   1      30.965 -12.469  22.206  1.00 37.20 LIG-0.27  OA
ATOM     40 H    GLU D   2      33.447 -12.368  23.947  1.00 40.85 LIG 0.16  HD
BRANCH 38 41
ATOM     41  CA  ALA D   1      33.004 -11.329  21.639  1.00 41.40 LIG 0.27  C 
ATOM     42  CB  ALA D   1      33.203 -12.007  20.284  1.00 39.88 LIG 0.05  C 
BRANCH 41 43
ATOM     43  N   ALA D   1      34.290 -11.066  22.280  1.00 41.88 LIG-0.07  N 
ATOM     44 H2   ALA D   1      34.466 -11.710  22.868  1.00 41.88 LIG 0.28  HD
ATOM     45 H3   ALA D   1      34.931 -11.045  21.662  1.00 41.88 LIG 0.28  HD
ATOM     46 H1   ALA D   1      34.258 -10.282  22.699  1.00 41.88 LIG 0.28  HD
ENDBRANCH 41 43
ENDBRANCH 38 41
ENDBRANCH 36 37
BRANCH 36 47
ATOM     47  CB  GLU D   2      32.813 -14.518  25.181  1.00 37.20 LIG 0.04  C 
BRANCH 47 48
ATOM     48  CG  GLU D   2      34.061 -14.722  24.352  1.00 39.39 LIG 0.12  C 
BRANCH 48 49
ATOM     49  CD  GLU D   2      35.098 -13.655  24.631  1.00 42.36 LIG 0.17  C 
ATOM     50 OE2  GLU D   2      35.412 -12.846  23.725  1.00 45.25 LIG-0.65  OA
ATOM     51 OE1  GLU D   2      35.601 -13.629  25.767  1.00 37.51 LIG-0.65  OA
ENDBRANCH 48 49
ENDBRANCH 47 48
ENDBRANCH 36 47
ENDBRANCH 33 36
ENDBRANCH 31 32
BRANCH 31 52
ATOM     52  CB  ASP D   3      31.564  -9.188  27.015  1.00 35.86 LIG 0.15  C 
BRANCH 52 53
ATOM     53  CG  ASP D   3      32.746  -9.470  27.928  1.00 46.33 LIG 0.17  C 
ATOM     54 OD1  ASP D   3      33.621 -10.288  27.567  1.00 38.55 LIG-0.65  OA
ATOM     55 OD2  ASP D   3      32.790  -8.871  29.023  1.00 55.15 LIG-0.65  OA
ENDBRANCH 52 53
ENDBRANCH 31 52
ENDBRANCH 1 31
TORSDOF 23
ENDMDL
MODEL 11
USER: ADFR SOLUTION from run 150
USER: SCORE 18.574720 LL:  -4.079 LR: -15.688 RR:   0.000 FEB:  -8.827
USER: RMSD 6.064412
USER: SEED 149
USER: STATUS 1 or 2 clusters left
USER: GENES 25
USER: genes 0 Translation |==|  0.31146 0.42151 0.48340
USER: genes 1 Rotation |==|  0.99232 0.49647 0.58207 0.52949
USER: genes 2 Torsion [C]-N--CA-[C] |==|  0.52592
USER: genes 3 Torsion [N]-CA--C-[N] |==|  0.46369
USER: genes 4 Torsion [C]-N--CA-[C] |==|  0.60699
USER: genes 5 Torsion [N]-CA--C-[N] |==|  0.15341
USER: genes 6 Torsion [C]-N--CA-[C] |==|  0.80337
USER: genes 7 Torsion [N]-CA--CB-[CG] |==|  0.75794
USER: genes 8 Torsion [CA]-CB--CG-[CD] |==|  0.70267
USER: genes 9 Torsion [CB]-CG--CD-[OE1] |==|  0.31008
USER: genes 10 Torsion [N]-CA--C-[OXT] |==|  0.31510
USER: genes 11 Torsion [N]-CA--CB-[CG1] |==|  0.81596
USER: genes 12 Torsion [N]-CA--CB-[CG] |==|  0.08606
USER: genes 13 Torsion [CA]-CB--CG-[OD1] |==|  0.23682
USER: genes 14 Torsion [N]-C--CA-[N] |==|  0.94610
USER: genes 15 Torsion [C]-CA--N-[C] |==|  0.75135
USER: genes 16 Torsion [N]-C--CA-[N] |==|  0.05530
USER: genes 17 Torsion [C]-CA--N-[C] |==|  0.76111
USER: genes 18 Torsion [N]-C--CA-[N] |==|  0.75630
USER: genes 19 Torsion [C]-CA--N-[H3] |==|  0.39827
USER: genes 20 Torsion [C]-CA--CB-[CG] |==|  0.44505
USER: genes 21 Torsion [CA]-CB--CG-[CD] |==|  0.31770
USER: genes 22 Torsion [CB]-CG--CD-[OE2] |==|  0.36530
USER: genes 23 Torsion [C]-CA--CB-[CG] |==|  0.77412
USER: genes 24 Torsion [CA]-CB--CG-[OD1] |==|  0.88611
ROOT
ATOM      1  C   ASP D   3      24.331 -14.326  24.967  1.00 34.79 LIG 0.24  C 
ATOM      2 O    ASP D   3      24.891 -15.292  24.441  1.00 37.58 LIG-0.27  OA
ATOM      3  N   ASP D   4      24.980 -13.411  25.684  1.00 33.46 LIG-0.34  N 
ATOM      4 H    ASP D   4      24.611 -12.699  25.992  1.00 33.46 LIG 0.16  HD
ENDROOT
BRANCH 3 5
ATOM      5  CA  ASP D   4      26.384 -13.539  26.011  1.00 24.32 LIG 0.19  C 
BRANCH 5 6
ATOM      6  C   ASP D   4      26.689 -12.435  27.022  1.00 29.08 LIG 0.24  C 
ATOM      7  N   VAL D   5      27.844 -12.528  27.659  1.00 26.12 LIG-0.35  N 
ATOM      8 H    VAL D   5      28.398 -13.180  27.564  1.00 26.12 LIG 0.16  HD
ATOM      9 O    ASP D   4      25.889 -11.513  27.221  1.00 25.35 LIG-0.27  OA
BRANCH 7 10
ATOM     10  CA  VAL D   5      28.270 -11.498  28.596  1.00 27.68 LIG 0.18  C 
BRANCH 10 11
ATOM     11  C   VAL D   5      29.779 -11.275  28.445  1.00 28.81 LIG 0.24  C 
ATOM     12  N   GLU D   6      30.214 -10.978  27.226  1.00 27.30 LIG-0.34  N 
ATOM     13 H    GLU D   6      29.698 -10.885  26.545  1.00 27.30 LIG 0.16  HD
ATOM     14 O    VAL D   5      30.534 -11.406  29.412  1.00 31.14 LIG-0.27  OA
BRANCH 12 15
ATOM     15  CA  GLU D   6      31.634 -10.780  26.936  1.00 31.22 LIG 0.19  C 
BRANCH 15 16
ATOM     16  CB  GLU D   6      31.873 -10.701  25.430  1.00 26.83 LIG 0.05  C 
BRANCH 16 17
ATOM     17  CG  GLU D   6      32.086 -12.031  24.749  1.00 32.75 LIG 0.12  C 
BRANCH 17 18
ATOM     18  CD  GLU D   6      33.537 -12.236  24.348  1.00 37.41 LIG 0.17  C 
ATOM     19 OE1  GLU D   6      34.205 -13.108  24.937  1.00 40.07 LIG-0.65  OA
ATOM     20 OE2  GLU D   6      34.014 -11.523  23.442  1.00 32.49 LIG-0.65  OA
ENDBRANCH 17 18
ENDBRANCH 16 17
ENDBRANCH 15 16
BRANCH 15 21
ATOM     21  C   GLU D   6      32.119  -9.484  27.554  1.00 32.10 LIG 0.20  C 
ATOM     22 OXT  GLU D   6      32.939  -9.505  28.472  1.00 29.11 LIG-0.65  OA
ATOM     23 O    GLU D   6      31.729  -8.399  27.121  1.00 24.06 LIG-0.65  OA
ENDBRANCH 15 21
ENDBRANCH 12 15
ENDBRANCH 10 11
BRANCH 10 24
ATOM     24  CB  VAL D   5      27.884 -11.877  30.034  1.00 24.95 LIG 0.01  C 
ATOM     25  CG1 VAL D   5      26.363 -11.884  30.174  1.00 19.21 LIG 0.01  C 
ATOM     26  CG2 VAL D   5      28.460 -13.247  30.395  1.00 24.99 LIG 0.01  C 
ENDBRANCH 10 24
ENDBRANCH 7 10
ENDBRANCH 5 6
BRANCH 5 27
ATOM     27  CB  ASP D   4      27.239 -13.362  24.750  1.00 34.66 LIG 0.15  C 
BRANCH 27 28
ATOM     28  CG  ASP D   4      26.610 -12.414  23.721  1.00 38.29 LIG 0.17  C 
ATOM     29 OD2  ASP D   4      25.919 -12.913  22.807  1.00 38.65 LIG-0.65  OA
ATOM     30 OD1  ASP D   4      26.790 -11.181  23.817  1.00 35.40 LIG-0.65  OA
ENDBRANCH 27 28
ENDBRANCH 5 27
ENDBRANCH 3 5
BRANCH 1 31
ATOM     31  CA  ASP D   3      22.818 -14.109  24.838  1.00 30.73 LIG 0.19  C 
BRANCH 31 32
ATOM     32  N   ASP D   3      22.308 -13.215  25.879  1.00 30.00 LIG-0.35  N 
ATOM     33  C   GLU D   2      21.894 -13.707  27.046  1.00 37.22 LIG 0.24  C 
ATOM     34 O    GLU D   2      21.881 -14.912  27.296  1.00 35.26 LIG-0.27  OA
ATOM     35 H    ASP D   3      22.303 -12.380  25.671  1.00 30.00 LIG 0.16  HD
BRANCH 33 36
ATOM     36  CA  GLU D   2      21.445 -12.701  28.102  1.00 39.45 LIG 0.18  C 
BRANCH 36 37
ATOM     37  N   GLU D   2      21.103 -11.407  27.526  1.00 40.85 LIG-0.35  N 
ATOM     38  C   ALA D   1      22.032 -10.481  27.314  1.00 38.03 LIG 0.25  C 
ATOM     39 O    ALA D   1      23.225 -10.660  27.560  1.00 37.20 LIG-0.27  OA
ATOM     40 H    GLU D   2      20.269 -11.305  27.344  1.00 40.85 LIG 0.16  HD
BRANCH 38 41
ATOM     41  CA  ALA D   1      21.540  -9.155  26.739  1.00 41.40 LIG 0.27  C 
ATOM     42  CB  ALA D   1      20.161  -8.803  27.298  1.00 39.88 LIG 0.05  C 
BRANCH 41 43
ATOM     43  N   ALA D   1      21.510  -9.202  25.280  1.00 41.88 LIG-0.07  N 
ATOM     44 H2   ALA D   1      21.450 -10.048  25.011  1.00 41.88 LIG 0.28  HD
ATOM     45 H3   ALA D   1      20.806  -8.747  24.982  1.00 41.88 LIG 0.28  HD
ATOM     46 H1   ALA D   1      22.255  -8.841  24.955  1.00 41.88 LIG 0.28  HD
ENDBRANCH 41 43
ENDBRANCH 38 41
ENDBRANCH 36 37
BRANCH 36 47
ATOM     47  CB  GLU D   2      20.282 -13.248  28.926  1.00 37.20 LIG 0.04  C 
BRANCH 47 48
ATOM     48  CG  GLU D   2      20.123 -12.528  30.245  1.00 39.39 LIG 0.12  C 
BRANCH 48 49
ATOM     49  CD  GLU D   2      18.822 -11.757  30.309  1.00 42.36 LIG 0.17  C 
ATOM     50 OE2  GLU D   2      18.083 -11.874  31.316  1.00 45.25 LIG-0.65  OA
ATOM     51 OE1  GLU D   2      18.540 -11.029  29.342  1.00 37.51 LIG-0.65  OA
ENDBRANCH 48 49
ENDBRANCH 47 48
ENDBRANCH 36 47
ENDBRANCH 33 36
ENDBRANCH 31 32
BRANCH 31 52
ATOM     52  CB  ASP D   3      22.403 -13.652  23.427  1.00 35.86 LIG 0.15  C 
BRANCH 52 53
ATOM     53  CG  ASP D   3      22.599 -12.163  23.197  1.00 46.33 LIG 0.17  C 
ATOM     54 OD1  ASP D   3      22.303 -11.355  24.103  1.00 38.55 LIG-0.65  OA
ATOM     55 OD2  ASP D   3      23.047 -11.801  22.087  1.00 55.15 LIG-0.65  OA
ENDBRANCH 52 53
ENDBRANCH 31 52
ENDBRANCH 1 31
TORSDOF 23
ENDMDL
MODEL 12
USER: ADFR SOLUTION from run 49
USER: SCORE 18.397097 LL:  -4.256 LR: -15.609 RR:   0.000 FEB:  -8.748
USER: RMSD 2.636356
USER: SEED 48
USER: STATUS no improvement in best in 4 clusters for 5 generations
USER: GENES 25
USER: genes 0 Translation |==|  0.39916 0.62265 0.67031
USER: genes 1 Rotation |==|  0.53302 0.41825 0.47899 0.99172
USER: genes 2 Torsion [C]-N--CA-[C] |==|  0.70322
USER: genes 3 Torsion [N]-CA--C-[N] |==|  0.99444
USER: genes 4 Torsion [C]-N--CA-[C] |==|  0.21673
USER: genes 5 Torsion [N]-CA--C-[N] |==|  0.35360
USER: genes 6 Torsion [C]-N--CA-[C] |==|  0.70967
USER: genes 7 Torsion [N]-CA--CB-[CG] |==|  0.04387
USER: genes 8 Torsion [CA]-CB--CG-[CD] |==|  0.76999
USER: genes 9 Torsion [CB]-CG--CD-[OE1] |==|  0.40304
USER: genes 10 Torsion [N]-CA--C-[OXT] |==|  0.70286
USER: genes 11 Torsion [N]-CA--CB-[CG1] |==|  0.34030
USER: genes 12 Torsion [N]-CA--CB-[CG] |==|  0.43013
USER: genes 13 Torsion [CA]-CB--CG-[OD1] |==|  0.71638
USER: genes 14 Torsion [N]-C--CA-[N] |==|  0.04819
USER: genes 15 Torsion [C]-CA--N-[C] |==|  0.72991
USER: genes 16 Torsion [N]-C--CA-[N] |==|  0.07816
USER: genes 17 Torsion [C]-CA--N-[C] |==|  0.14627
USER: genes 18 Torsion [N]-C--CA-[N] |==|  0.36001
USER: genes 19 Torsion [C]-CA--N-[H3] |==|  0.50380
USER: genes 20 Torsion [C]-CA--CB-[CG] |==|  0.62135
USER: genes 21 Torsion [CA]-CB--CG-[CD] |==|  0.34716
USER: genes 22 Torsion [CB]-CG--CD-[OE2] |==|  0.46897
USER: genes 23 Torsion [C]-CA--CB-[CG] |==|  0.64040
USER: genes 24 Torsion [CA]-CB--CG-[OD1] |==|  0.17797
ROOT
ATOM      1  C   ASP D   3      26.172 -10.705  28.893  1.00 34.79 LIG 0.24  C 
ATOM      2 O    ASP D   3      26.302  -9.964  29.871  1.00 37.58 LIG-0.27  OA
ATOM      3  N   ASP D   4      27.110 -11.565  28.503  1.00 33.46 LIG-0.34  N 
ATOM      4 H    ASP D   4      27.000 -12.134  27.869  1.00 33.46 LIG 0.16  HD
ENDROOT
BRANCH 3 5
ATOM      5  CA  ASP D   4      28.417 -11.618  29.124  1.00 24.32 LIG 0.19  C 
BRANCH 5 6
ATOM      6  C   ASP D   4      29.392 -11.008  28.119  1.00 29.08 LIG 0.24  C 
ATOM      7  N   VAL D   5      28.878 -10.629  26.961  1.00 26.12 LIG-0.35  N 
ATOM      8 H    VAL D   5      28.055 -10.741  26.738  1.00 26.12 LIG 0.16  HD
ATOM      9 O    ASP D   4      30.592 -10.882  28.390  1.00 25.35 LIG-0.27  OA
BRANCH 7 10
ATOM     10  CA  VAL D   5      29.700  -9.974  25.953  1.00 27.68 LIG 0.18  C 
BRANCH 10 11
ATOM     11  C   VAL D   5      30.545 -11.030  25.231  1.00 28.81 LIG 0.24  C 
ATOM     12  N   GLU D   6      30.474 -11.038  23.905  1.00 27.30 LIG-0.34  N 
ATOM     13 H    GLU D   6      30.008 -10.479  23.448  1.00 27.30 LIG 0.16  HD
ATOM     14 O    VAL D   5      31.219 -11.842  25.870  1.00 31.14 LIG-0.27  OA
BRANCH 12 15
ATOM     15  CA  GLU D   6      31.198 -12.018  23.095  1.00 31.22 LIG 0.19  C 
BRANCH 15 16
ATOM     16  CB  GLU D   6      30.306 -12.569  21.985  1.00 26.83 LIG 0.05  C 
BRANCH 16 17
ATOM     17  CG  GLU D   6      29.059 -11.763  21.712  1.00 32.75 LIG 0.12  C 
BRANCH 17 18
ATOM     18  CD  GLU D   6      27.938 -12.110  22.678  1.00 37.41 LIG 0.17  C 
ATOM     19 OE1  GLU D   6      27.165 -11.204  23.048  1.00 40.07 LIG-0.65  OA
ATOM     20 OE2  GLU D   6      27.829 -13.288  23.071  1.00 32.49 LIG-0.65  OA
ENDBRANCH 17 18
ENDBRANCH 16 17
ENDBRANCH 15 16
BRANCH 15 21
ATOM     21  C   GLU D   6      32.405 -11.372  22.446  1.00 32.10 LIG 0.20  C 
ATOM     22 OXT  GLU D   6      32.405 -11.130  21.239  1.00 29.11 LIG-0.65  OA
ATOM     23 O    GLU D   6      33.382 -11.047  23.123  1.00 24.06 LIG-0.65  OA
ENDBRANCH 15 21
ENDBRANCH 12 15
ENDBRANCH 10 11
BRANCH 10 24
ATOM     24  CB  VAL D   5      30.568  -8.877  26.587  1.00 24.95 LIG 0.01  C 
ATOM     25  CG1 VAL D   5      32.042  -9.156  26.300  1.00 19.21 LIG 0.01  C 
ATOM     26  CG2 VAL D   5      30.169  -7.503  26.044  1.00 24.99 LIG 0.01  C 
ENDBRANCH 10 24
ENDBRANCH 7 10
ENDBRANCH 5 6
BRANCH 5 27
ATOM     27  CB  ASP D   4      28.800 -13.071  29.430  1.00 34.66 LIG 0.15  C 
BRANCH 27 28
ATOM     28  CG  ASP D   4      30.317 -13.293  29.499  1.00 38.29 LIG 0.17  C 
ATOM     29 OD2  ASP D   4      30.916 -12.943  30.540  1.00 38.65 LIG-0.65  OA
ATOM     30 OD1  ASP D   4      30.916 -13.817  28.536  1.00 35.40 LIG-0.65  OA
ENDBRANCH 27 28
ENDBRANCH 5 27
ENDBRANCH 3 5
BRANCH 1 31
ATOM     31  CA  ASP D   3      24.902 -10.684  28.034  1.00 30.73 LIG 0.19  C 
BRANCH 31 32
ATOM     32  N   ASP D   3      24.791 -11.882  27.202  1.00 30.00 LIG-0.35  N 
ATOM     33  C   GLU D   2      25.187 -11.859  25.929  1.00 37.22 LIG 0.24  C 
ATOM     34 O    GLU D   2      25.623 -10.845  25.385  1.00 35.26 LIG-0.27  OA
ATOM     35 H    ASP D   3      24.460 -12.571  27.597  1.00 30.00 LIG 0.16  HD
BRANCH 33 36
ATOM     36  CA  GLU D   2      25.103 -13.169  25.153  1.00 39.45 LIG 0.18  C 
BRANCH 36 37
ATOM     37  N   GLU D   2      24.052 -14.045  25.652  1.00 40.85 LIG-0.35  N 
ATOM     38  C   ALA D   1      22.803 -13.612  25.792  1.00 38.03 LIG 0.25  C 
ATOM     39 O    ALA D   1      22.452 -12.471  25.490  1.00 37.20 LIG-0.27  OA
ATOM     40 H    GLU D   2      24.310 -14.843  25.841  1.00 40.85 LIG 0.16  HD
BRANCH 38 41
ATOM     41  CA  ALA D   1      21.803 -14.617  26.358  1.00 41.40 LIG 0.27  C 
ATOM     42  CB  ALA D   1      20.854 -15.108  25.266  1.00 39.88 LIG 0.05  C 
BRANCH 41 43
ATOM     43  N   ALA D   1      21.056 -14.033  27.469  1.00 41.88 LIG-0.07  N 
ATOM     44 H2   ALA D   1      20.596 -13.329  27.180  1.00 41.88 LIG 0.28  HD
ATOM     45 H3   ALA D   1      20.492 -14.639  27.799  1.00 41.88 LIG 0.28  HD
ATOM     46 H1   ALA D   1      21.622 -13.777  28.106  1.00 41.88 LIG 0.28  HD
ENDBRANCH 41 43
ENDBRANCH 38 41
ENDBRANCH 36 37
BRANCH 36 47
ATOM     47  CB  GLU D   2      24.928 -12.915  23.658  1.00 37.20 LIG 0.04  C 
BRANCH 47 48
ATOM     48  CG  GLU D   2      23.889 -13.820  23.038  1.00 39.39 LIG 0.12  C 
BRANCH 48 49
ATOM     49  CD  GLU D   2      22.816 -13.031  22.319  1.00 42.36 LIG 0.17  C 
ATOM     50 OE2  GLU D   2      22.000 -13.629  21.577  1.00 45.25 LIG-0.65  OA
ATOM     51 OE1  GLU D   2      22.791 -11.802  22.501  1.00 37.51 LIG-0.65  OA
ENDBRANCH 48 49
ENDBRANCH 47 48
ENDBRANCH 36 47
ENDBRANCH 33 36
ENDBRANCH 31 32
BRANCH 31 52
ATOM     52  CB  ASP D   3      23.629 -10.435  28.864  1.00 35.86 LIG 0.15  C 
BRANCH 52 53
ATOM     53  CG  ASP D   3      22.528 -11.447  28.593  1.00 46.33 LIG 0.17  C 
ATOM     54 OD1  ASP D   3      22.713 -12.650  28.879  1.00 38.55 LIG-0.65  OA
ATOM     55 OD2  ASP D   3      21.469 -11.029  28.078  1.00 55.15 LIG-0.65  OA
ENDBRANCH 52 53
ENDBRANCH 31 52
ENDBRANCH 1 31
TORSDOF 23
ENDMDL
MODEL 13
USER: ADFR SOLUTION from run 33
USER: SCORE 17.031684 LL:  -1.936 LR: -15.511 RR:   0.000 FEB:  -8.650
USER: RMSD 8.987498
USER: SEED 32
USER: STATUS searching
USER: GENES 25
USER: genes 0 Translation |==|  0.48259 0.50347 0.59583
USER: genes 1 Rotation |==|  0.53433 0.89930 0.79794 0.52471
USER: genes 2 Torsion [C]-N--CA-[C] |==|  0.65297
USER: genes 3 Torsion [N]-CA--C-[N] |==|  0.47094
USER: genes 4 Torsion [C]-N--CA-[C] |==|  0.78327
USER: genes 5 Torsion [N]-CA--C-[N] |==|  0.01637
USER: genes 6 Torsion [C]-N--CA-[C] |==|  0.69879
USER: genes 7 Torsion [N]-CA--CB-[CG] |==|  0.96605
USER: genes 8 Torsion [CA]-CB--CG-[CD] |==|  0.37957
USER: genes 9 Torsion [CB]-CG--CD-[OE1] |==|  0.48526
USER: genes 10 Torsion [N]-CA--C-[OXT] |==|  0.71536
USER: genes 11 Torsion [N]-CA--CB-[CG1] |==|  0.20692
USER: genes 12 Torsion [N]-CA--CB-[CG] |==|  0.97900
USER: genes 13 Torsion [CA]-CB--CG-[OD1] |==|  0.71307
USER: genes 14 Torsion [N]-C--CA-[N] |==|  0.36994
USER: genes 15 Torsion [C]-CA--N-[C] |==|  0.80204
USER: genes 16 Torsion [N]-C--CA-[N] |==|  0.38958
USER: genes 17 Torsion [C]-CA--N-[C] |==|  0.75993
USER: genes 18 Torsion [N]-C--CA-[N] |==|  0.11543
USER: genes 19 Torsion [C]-CA--N-[H3] |==|  0.84169
USER: genes 20 Torsion [C]-CA--CB-[CG] |==|  0.34468
USER: genes 21 Torsion [CA]-CB--CG-[CD] |==|  0.91469
USER: genes 22 Torsion [CB]-CG--CD-[OE2] |==|  0.83424
USER: genes 23 Torsion [C]-CA--CB-[CG] |==|  0.68747
USER: genes 24 Torsion [CA]-CB--CG-[OD1] |==|  0.66602
ROOT
ATOM      1  C   ASP D   3      27.924 -12.851  27.328  1.00 34.79 LIG 0.24  C 
ATOM      2 O    ASP D   3      27.747 -11.798  27.949  1.00 37.58 LIG-0.27  OA
ATOM      3  N   ASP D   4      26.950 -13.485  26.681  1.00 33.46 LIG-0.34  N 
ATOM      4 H    ASP D   4      27.079 -14.178  26.188  1.00 33.46 LIG 0.16  HD
ENDROOT
BRANCH 3 5
ATOM      5  CA  ASP D   4      25.569 -13.059  26.751  1.00 24.32 LIG 0.19  C 
BRANCH 5 6
ATOM      6  C   ASP D   4      24.770 -14.274  27.218  1.00 29.08 LIG 0.24  C 
ATOM      7  N   VAL D   5      23.511 -14.052  27.556  1.00 26.12 LIG-0.35  N 
ATOM      8 H    VAL D   5      23.142 -13.275  27.565  1.00 26.12 LIG 0.16  HD
ATOM      9 O    ASP D   4      25.287 -15.396  27.268  1.00 25.35 LIG-0.27  OA
BRANCH 7 10
ATOM     10  CA  VAL D   5      22.636 -15.147  27.952  1.00 27.68 LIG 0.18  C 
BRANCH 10 11
ATOM     11  C   VAL D   5      22.165 -15.892  26.697  1.00 28.81 LIG 0.24  C 
ATOM     12  N   GLU D   6      22.707 -15.512  25.546  1.00 27.30 LIG-0.34  N 
ATOM     13 H    GLU D   6      23.309 -14.901  25.480  1.00 27.30 LIG 0.16  HD
ATOM     14 O    VAL D   5      21.301 -16.769  26.773  1.00 31.14 LIG-0.27  OA
BRANCH 12 15
ATOM     15  CA  GLU D   6      22.318 -16.111  24.270  1.00 31.22 LIG 0.19  C 
BRANCH 15 16
ATOM     16  CB  GLU D   6      22.038 -15.032  23.226  1.00 26.83 LIG 0.05  C 
BRANCH 16 17
ATOM     17  CG  GLU D   6      21.932 -13.630  23.775  1.00 32.75 LIG 0.12  C 
BRANCH 17 18
ATOM     18  CD  GLU D   6      22.671 -12.625  22.907  1.00 37.41 LIG 0.17  C 
ATOM     19 OE1  GLU D   6      22.582 -11.413  23.186  1.00 40.07 LIG-0.65  OA
ATOM     20 OE2  GLU D   6      23.339 -13.045  21.942  1.00 32.49 LIG-0.65  OA
ENDBRANCH 17 18
ENDBRANCH 16 17
ENDBRANCH 15 16
BRANCH 15 21
ATOM     21  C   GLU D   6      23.432 -16.992  23.744  1.00 32.10 LIG 0.20  C 
ATOM     22 OXT  GLU D   6      24.165 -16.591  22.839  1.00 29.11 LIG-0.65  OA
ATOM     23 O    GLU D   6      23.643 -18.100  24.239  1.00 24.06 LIG-0.65  OA
ENDBRANCH 15 21
ENDBRANCH 12 15
ENDBRANCH 10 11
BRANCH 10 24
ATOM     24  CB  VAL D   5      21.457 -14.626  28.789  1.00 24.95 LIG 0.01  C 
ATOM     25  CG1 VAL D   5      20.455 -13.917  27.880  1.00 19.21 LIG 0.01  C 
ATOM     26  CG2 VAL D   5      20.782 -15.781  29.531  1.00 24.99 LIG 0.01  C 
ENDBRANCH 10 24
ENDBRANCH 7 10
ENDBRANCH 5 6
BRANCH 5 27
ATOM     27  CB  ASP D   4      25.086 -12.596  25.371  1.00 34.66 LIG 0.15  C 
BRANCH 27 28
ATOM     28  CG  ASP D   4      26.212 -12.526  24.330  1.00 38.29 LIG 0.17  C 
ATOM     29 OD2  ASP D   4      26.615 -13.596  23.826  1.00 38.65 LIG-0.65  OA
ATOM     30 OD1  ASP D   4      26.692 -11.419  24.006  1.00 35.40 LIG-0.65  OA
ENDBRANCH 27 28
ENDBRANCH 5 27
ENDBRANCH 3 5
BRANCH 1 31
ATOM     31  CA  ASP D   3      29.303 -13.520  27.263  1.00 30.73 LIG 0.19  C 
BRANCH 31 32
ATOM     32  N   ASP D   3      30.356 -12.558  26.939  1.00 30.00 LIG-0.35  N 
ATOM     33  C   GLU D   2      30.445 -12.041  25.714  1.00 37.22 LIG 0.24  C 
ATOM     34 O    GLU D   2      29.690 -12.364  24.797  1.00 35.26 LIG-0.27  OA
ATOM     35 H    ASP D   3      30.888 -12.368  27.589  1.00 30.00 LIG 0.16  HD
BRANCH 33 36
ATOM     36  CA  GLU D   2      31.528 -10.993  25.479  1.00 39.45 LIG 0.18  C 
BRANCH 36 37
ATOM     37  N   GLU D   2      32.179 -11.145  24.185  1.00 40.85 LIG-0.35  N 
ATOM     38  C   ALA D   1      33.214 -11.963  24.026  1.00 38.03 LIG 0.25  C 
ATOM     39 O    ALA D   1      33.668 -12.654  24.938  1.00 37.20 LIG-0.27  OA
ATOM     40 H    GLU D   2      31.837 -10.670  23.554  1.00 40.85 LIG 0.16  HD
BRANCH 38 41
ATOM     41  CA  ALA D   1      33.827 -12.006  22.628  1.00 41.40 LIG 0.27  C 
ATOM     42  CB  ALA D   1      35.204 -12.670  22.664  1.00 39.88 LIG 0.05  C 
BRANCH 41 43
ATOM     43  N   ALA D   1      33.915 -10.663  22.060  1.00 41.88 LIG-0.07  N 
ATOM     44 H2   ALA D   1      34.233 -10.712  21.231  1.00 41.88 LIG 0.28  HD
ATOM     45 H3   ALA D   1      33.105 -10.293  22.045  1.00 41.88 LIG 0.28  HD
ATOM     46 H1   ALA D   1      34.459 -10.165  22.558  1.00 41.88 LIG 0.28  HD
ENDBRANCH 41 43
ENDBRANCH 38 41
ENDBRANCH 36 37
BRANCH 36 47
ATOM     47  CB  GLU D   2      30.974  -9.580  25.641  1.00 37.20 LIG 0.04  C 
BRANCH 47 48
ATOM     48  CG  GLU D   2      31.739  -8.775  26.666  1.00 39.39 LIG 0.12  C 
BRANCH 48 49
ATOM     49  CD  GLU D   2      32.305  -9.656  27.760  1.00 42.36 LIG 0.17  C 
ATOM     50 OE2  GLU D   2      31.528 -10.345  28.463  1.00 45.25 LIG-0.65  OA
ATOM     51 OE1  GLU D   2      33.538  -9.655  27.913  1.00 37.51 LIG-0.65  OA
ENDBRANCH 48 49
ENDBRANCH 47 48
ENDBRANCH 36 47
ENDBRANCH 33 36
ENDBRANCH 31 32
BRANCH 31 52
ATOM     52  CB  ASP D   3      29.629 -14.331  28.530  1.00 35.86 LIG 0.15  C 
BRANCH 52 53
ATOM     53  CG  ASP D   3      30.762 -13.736  29.350  1.00 46.33 LIG 0.17  C 
ATOM     54 OD1  ASP D   3      31.792 -14.413  29.558  1.00 38.55 LIG-0.65  OA
ATOM     55 OD2  ASP D   3      30.610 -12.579  29.797  1.00 55.15 LIG-0.65  OA
ENDBRANCH 52 53
ENDBRANCH 31 52
ENDBRANCH 1 31
TORSDOF 23
ENDMDL
MODEL 14
USER: ADFR SOLUTION from run 160
USER: SCORE 18.048835 LL:  -3.196 LR: -15.479 RR:   0.000 FEB:  -8.618
USER: RMSD 5.650274
USER: SEED 159
USER: STATUS no improvement in best in 9 clusters for 5 generations
USER: GENES 25
USER: genes 0 Translation |==|  0.39553 0.57835 0.50563
USER: genes 1 Rotation |==|  0.27936 0.10781 0.39671 0.69193
USER: genes 2 Torsion [C]-N--CA-[C] |==|  0.75922
USER: genes 3 Torsion [N]-CA--C-[N] |==|  0.97835
USER: genes 4 Torsion [C]-N--CA-[C] |==|  0.70287
USER: genes 5 Torsion [N]-CA--C-[N] |==|  0.04988
USER: genes 6 Torsion [C]-N--CA-[C] |==|  0.66292
USER: genes 7 Torsion [N]-CA--CB-[CG] |==|  0.74515
USER: genes 8 Torsion [CA]-CB--CG-[CD] |==|  0.18006
USER: genes 9 Torsion [CB]-CG--CD-[OE1] |==|  0.72094
USER: genes 10 Torsion [N]-CA--C-[OXT] |==|  0.84095
USER: genes 11 Torsion [N]-CA--CB-[CG1] |==|  0.19022
USER: genes 12 Torsion [N]-CA--CB-[CG] |==|  0.55774
USER: genes 13 Torsion [CA]-CB--CG-[OD1] |==|  0.72370
USER: genes 14 Torsion [N]-C--CA-[N] |==|  0.18362
USER: genes 15 Torsion [C]-CA--N-[C] |==|  0.72891
USER: genes 16 Torsion [N]-C--CA-[N] |==|  0.40117
USER: genes 17 Torsion [C]-CA--N-[C] |==|  0.66658
USER: genes 18 Torsion [N]-C--CA-[N] |==|  0.46533
USER: genes 19 Torsion [C]-CA--N-[H3] |==|  0.43091
USER: genes 20 Torsion [C]-CA--CB-[CG] |==|  0.06851
USER: genes 21 Torsion [CA]-CB--CG-[CD] |==|  0.22076
USER: genes 22 Torsion [CB]-CG--CD-[OE2] |==|  0.92310
USER: genes 23 Torsion [C]-CA--CB-[CG] |==|  0.82871
USER: genes 24 Torsion [CA]-CB--CG-[OD1] |==|  0.30342
ROOT
ATOM      1  C   ASP D   3      26.096 -11.503  25.434  1.00 34.79 LIG 0.24  C 
ATOM      2 O    ASP D   3      26.403 -10.328  25.210  1.00 37.58 LIG-0.27  OA
ATOM      3  N   ASP D   4      25.346 -11.873  26.469  1.00 33.46 LIG-0.34  N 
ATOM      4 H    ASP D   4      25.069 -12.677  26.592  1.00 33.46 LIG 0.16  HD
ENDROOT
BRANCH 3 5
ATOM      5  CA  ASP D   4      24.925 -10.940  27.492  1.00 24.32 LIG 0.19  C 
BRANCH 5 6
ATOM      6  C   ASP D   4      26.051 -10.901  28.524  1.00 29.08 LIG 0.24  C 
ATOM      7  N   VAL D   5      27.020 -11.786  28.365  1.00 26.12 LIG-0.35  N 
ATOM      8 H    VAL D   5      27.029 -12.390  27.753  1.00 26.12 LIG 0.16  HD
ATOM      9 O    ASP D   4      26.041 -10.079  29.448  1.00 25.35 LIG-0.27  OA
BRANCH 7 10
ATOM     10  CA  VAL D   5      28.178 -11.798  29.249  1.00 27.68 LIG 0.18  C 
BRANCH 10 11
ATOM     11  C   VAL D   5      29.395 -11.257  28.489  1.00 28.81 LIG 0.24  C 
ATOM     12  N   GLU D   6      29.142 -10.561  27.386  1.00 27.30 LIG-0.34  N 
ATOM     13 H    GLU D   6      28.350 -10.386  27.103  1.00 27.30 LIG 0.16  HD
ATOM     14 O    VAL D   5      30.540 -11.500  28.879  1.00 31.14 LIG-0.27  OA
BRANCH 12 15
ATOM     15  CA  GLU D   6      30.212 -10.023  26.546  1.00 31.22 LIG 0.19  C 
BRANCH 15 16
ATOM     16  CB  GLU D   6      30.139 -10.606  25.136  1.00 26.83 LIG 0.05  C 
BRANCH 16 17
ATOM     17  CG  GLU D   6      30.959 -11.855  24.921  1.00 32.75 LIG 0.12  C 
BRANCH 17 18
ATOM     18  CD  GLU D   6      30.452 -13.017  25.759  1.00 37.41 LIG 0.17  C 
ATOM     19 OE1  GLU D   6      31.050 -13.299  26.816  1.00 40.07 LIG-0.65  OA
ATOM     20 OE2  GLU D   6      29.455 -13.652  25.361  1.00 32.49 LIG-0.65  OA
ENDBRANCH 17 18
ENDBRANCH 16 17
ENDBRANCH 15 16
BRANCH 15 21
ATOM     21  C   GLU D   6      30.085  -8.518  26.436  1.00 32.10 LIG 0.20  C 
ATOM     22 OXT  GLU D   6      29.048  -8.013  26.006  1.00 29.11 LIG-0.65  OA
ATOM     23 O    GLU D   6      30.999  -7.782  26.811  1.00 24.06 LIG-0.65  OA
ENDBRANCH 15 21
ENDBRANCH 12 15
ENDBRANCH 10 11
BRANCH 10 24
ATOM     24  CB  VAL D   5      28.426 -13.209  29.803  1.00 24.95 LIG 0.01  C 
ATOM     25  CG1 VAL D   5      28.885 -14.131  28.676  1.00 19.21 LIG 0.01  C 
ATOM     26  CG2 VAL D   5      29.472 -13.166  30.919  1.00 24.99 LIG 0.01  C 
ENDBRANCH 10 24
ENDBRANCH 7 10
ENDBRANCH 5 6
BRANCH 5 27
ATOM     27  CB  ASP D   4      23.620 -11.417  28.141  1.00 34.66 LIG 0.15  C 
BRANCH 27 28
ATOM     28  CG  ASP D   4      22.848 -10.292  28.843  1.00 38.29 LIG 0.17  C 
ATOM     29 OD2  ASP D   4      22.140  -9.538  28.142  1.00 38.65 LIG-0.65  OA
ATOM     30 OD1  ASP D   4      22.933 -10.157  30.082  1.00 35.40 LIG-0.65  OA
ENDBRANCH 27 28
ENDBRANCH 5 27
ENDBRANCH 3 5
BRANCH 1 31
ATOM     31  CA  ASP D   3      26.573 -12.643  24.525  1.00 30.73 LIG 0.19  C 
BRANCH 31 32
ATOM     32  N   ASP D   3      25.456 -13.281  23.828  1.00 30.00 LIG-0.35  N 
ATOM     33  C   GLU D   2      24.921 -14.407  24.300  1.00 37.22 LIG 0.24  C 
ATOM     34 O    GLU D   2      25.349 -14.980  25.302  1.00 35.26 LIG-0.27  OA
ATOM     35 H    ASP D   3      25.192 -12.876  23.116  1.00 30.00 LIG 0.16  HD
BRANCH 33 36
ATOM     36  CA  GLU D   2      23.715 -14.969  23.553  1.00 39.45 LIG 0.18  C 
BRANCH 36 37
ATOM     37  N   GLU D   2      23.703 -16.425  23.533  1.00 40.85 LIG-0.35  N 
ATOM     38  C   ALA D   1      23.729 -17.099  22.388  1.00 38.03 LIG 0.25  C 
ATOM     39 O    ALA D   1      23.790 -16.548  21.288  1.00 37.20 LIG-0.27  OA
ATOM     40 H    GLU D   2      23.678 -16.794  24.310  1.00 40.85 LIG 0.16  HD
BRANCH 38 41
ATOM     41  CA  ALA D   1      23.676 -18.620  22.502  1.00 41.40 LIG 0.27  C 
ATOM     42  CB  ALA D   1      24.974 -19.162  23.102  1.00 39.88 LIG 0.05  C 
BRANCH 41 43
ATOM     43  N   ALA D   1      23.415 -19.228  21.200  1.00 41.88 LIG-0.07  N 
ATOM     44 H2   ALA D   1      23.815 -18.752  20.564  1.00 41.88 LIG 0.28  HD
ATOM     45 H3   ALA D   1      23.732 -20.060  21.191  1.00 41.88 LIG 0.28  HD
ATOM     46 H1   ALA D   1      22.538 -19.245  21.050  1.00 41.88 LIG 0.28  HD
ENDBRANCH 41 43
ENDBRANCH 38 41
ENDBRANCH 36 37
BRANCH 36 47
ATOM     47  CB  GLU D   2      22.408 -14.426  24.126  1.00 37.20 LIG 0.04  C 
BRANCH 47 48
ATOM     48  CG  GLU D   2      22.593 -13.097  24.821  1.00 39.39 LIG 0.12  C 
BRANCH 48 49
ATOM     49  CD  GLU D   2      22.663 -11.953  23.833  1.00 42.36 LIG 0.17  C 
ATOM     50 OE2  GLU D   2      23.086 -12.164  22.671  1.00 45.25 LIG-0.65  OA
ATOM     51 OE1  GLU D   2      22.290 -10.834  24.226  1.00 37.51 LIG-0.65  OA
ENDBRANCH 48 49
ENDBRANCH 47 48
ENDBRANCH 36 47
ENDBRANCH 33 36
ENDBRANCH 31 32
BRANCH 31 52
ATOM     52  CB  ASP D   3      27.686 -12.203  23.557  1.00 35.86 LIG 0.15  C 
BRANCH 52 53
ATOM     53  CG  ASP D   3      27.249 -11.109  22.597  1.00 46.33 LIG 0.17  C 
ATOM     54 OD1  ASP D   3      27.703  -9.952  22.735  1.00 38.55 LIG-0.65  OA
ATOM     55 OD2  ASP D   3      26.432 -11.413  21.702  1.00 55.15 LIG-0.65  OA
ENDBRANCH 52 53
ENDBRANCH 31 52
ENDBRANCH 1 31
TORSDOF 23
ENDMDL
MODEL 15
USER: ADFR SOLUTION from run 11
USER: SCORE 18.100917 LL:  -3.721 LR: -15.428 RR:   0.000 FEB:  -8.567
USER: RMSD 10.064371
USER: SEED 888928
USER: STATUS no improvement in best in 3 clusters for 5 generations
USER: GENES 25
USER: genes 0 Translation |==|  0.50231 0.63159 0.52424
USER: genes 1 Rotation |==|  0.49545 0.00191 0.46881 0.53016
USER: genes 2 Torsion [C]-N--CA-[C] |==|  0.63517
USER: genes 3 Torsion [N]-CA--C-[N] |==|  0.36253
USER: genes 4 Torsion [C]-N--CA-[C] |==|  0.64886
USER: genes 5 Torsion [N]-CA--C-[N] |==|  0.79949
USER: genes 6 Torsion [C]-N--CA-[C] |==|  0.57805
USER: genes 7 Torsion [N]-CA--CB-[CG] |==|  0.75460
USER: genes 8 Torsion [CA]-CB--CG-[CD] |==|  0.80944
USER: genes 9 Torsion [CB]-CG--CD-[OE1] |==|  0.49865
USER: genes 10 Torsion [N]-CA--C-[OXT] |==|  0.07387
USER: genes 11 Torsion [N]-CA--CB-[CG1] |==|  0.45547
USER: genes 12 Torsion [N]-CA--CB-[CG] |==|  0.89334
USER: genes 13 Torsion [CA]-CB--CG-[OD1] |==|  0.34825
USER: genes 14 Torsion [N]-C--CA-[N] |==|  0.33889
USER: genes 15 Torsion [C]-CA--N-[C] |==|  0.67017
USER: genes 16 Torsion [N]-C--CA-[N] |==|  0.88937
USER: genes 17 Torsion [C]-CA--N-[C] |==|  0.79253
USER: genes 18 Torsion [N]-C--CA-[N] |==|  0.94358
USER: genes 19 Torsion [C]-CA--N-[H3] |==|  0.12707
USER: genes 20 Torsion [C]-CA--CB-[CG] |==|  0.44181
USER: genes 21 Torsion [CA]-CB--CG-[CD] |==|  0.19070
USER: genes 22 Torsion [CB]-CG--CD-[OE2] |==|  0.11012
USER: genes 23 Torsion [C]-CA--CB-[CG] |==|  0.36709
USER: genes 24 Torsion [CA]-CB--CG-[OD1] |==|  0.36441
ROOT
ATOM      1  C   ASP D   3      28.338 -10.544  25.825  1.00 34.79 LIG 0.24  C 
ATOM      2 O    ASP D   3      27.916  -9.568  25.199  1.00 37.58 LIG-0.27  OA
ATOM      3  N   ASP D   4      27.540 -11.448  26.387  1.00 33.46 LIG-0.34  N 
ATOM      4 H    ASP D   4      27.825 -12.167  26.762  1.00 33.46 LIG 0.16  HD
ENDROOT
BRANCH 3 5
ATOM      5  CA  ASP D   4      26.101 -11.297  26.417  1.00 24.32 LIG 0.19  C 
BRANCH 5 6
ATOM      6  C   ASP D   4      25.673 -11.564  27.859  1.00 29.08 LIG 0.24  C 
ATOM      7  N   VAL D   5      24.871 -10.667  28.406  1.00 26.12 LIG-0.35  N 
ATOM      8 H    VAL D   5      24.616  -9.943  28.017  1.00 26.12 LIG 0.16  HD
ATOM      9 O    ASP D   4      26.065 -12.568  28.465  1.00 25.35 LIG-0.27  OA
BRANCH 7 10
ATOM     10  CA  VAL D   5      24.345 -10.852  29.753  1.00 27.68 LIG 0.18  C 
BRANCH 10 11
ATOM     11  C   VAL D   5      22.818 -10.729  29.717  1.00 28.81 LIG 0.24  C 
ATOM     12  N   GLU D   6      22.327  -9.509  29.530  1.00 27.30 LIG-0.34  N 
ATOM     13 H    GLU D   6      22.814  -8.812  29.409  1.00 27.30 LIG 0.16  HD
ATOM     14 O    VAL D   5      22.103 -11.719  29.891  1.00 31.14 LIG-0.27  OA
BRANCH 12 15
ATOM     15  CA  GLU D   6      20.888  -9.246  29.515  1.00 31.22 LIG 0.19  C 
BRANCH 15 16
ATOM     16  CB  GLU D   6      20.376  -8.954  30.924  1.00 26.83 LIG 0.05  C 
BRANCH 16 17
ATOM     17  CG  GLU D   6      19.953 -10.170  31.711  1.00 32.75 LIG 0.12  C 
BRANCH 17 18
ATOM     18  CD  GLU D   6      18.698 -10.807  31.140  1.00 37.41 LIG 0.17  C 
ATOM     19 OE1  GLU D   6      18.241 -11.829  31.689  1.00 40.07 LIG-0.65  OA
ATOM     20 OE2  GLU D   6      18.166 -10.288  30.138  1.00 32.49 LIG-0.65  OA
ENDBRANCH 17 18
ENDBRANCH 16 17
ENDBRANCH 15 16
BRANCH 15 21
ATOM     21  C   GLU D   6      20.585  -8.041  28.649  1.00 32.10 LIG 0.20  C 
ATOM     22 OXT  GLU D   6      21.340  -7.735  27.725  1.00 29.11 LIG-0.65  OA
ATOM     23 O    GLU D   6      19.563  -7.377  28.833  1.00 24.06 LIG-0.65  OA
ENDBRANCH 15 21
ENDBRANCH 12 15
ENDBRANCH 10 11
BRANCH 10 24
ATOM     24  CB  VAL D   5      24.981  -9.849  30.727  1.00 24.95 LIG 0.01  C 
ATOM     25  CG1 VAL D   5      24.154  -9.782  32.009  1.00 19.21 LIG 0.01  C 
ATOM     26  CG2 VAL D   5      26.423 -10.253  31.041  1.00 24.99 LIG 0.01  C 
ENDBRANCH 10 24
ENDBRANCH 7 10
ENDBRANCH 5 6
BRANCH 5 27
ATOM     27  CB  ASP D   4      25.442 -12.304  25.467  1.00 34.66 LIG 0.15  C 
BRANCH 27 28
ATOM     28  CG  ASP D   4      26.228 -12.508  24.164  1.00 38.29 LIG 0.17  C 
ATOM     29 OD2  ASP D   4      26.507 -11.499  23.482  1.00 38.65 LIG-0.65  OA
ATOM     30 OD1  ASP D   4      26.573 -13.658  23.818  1.00 35.40 LIG-0.65  OA
ENDBRANCH 27 28
ENDBRANCH 5 27
ENDBRANCH 3 5
BRANCH 1 31
ATOM     31  CA  ASP D   3      29.842 -10.788  26.010  1.00 30.73 LIG 0.19  C 
BRANCH 31 32
ATOM     32  N   ASP D   3      30.534 -10.898  24.726  1.00 30.00 LIG-0.35  N 
ATOM     33  C   GLU D   2      31.171 -12.022  24.398  1.00 37.22 LIG 0.24  C 
ATOM     34 O    GLU D   2      31.244 -12.992  25.152  1.00 35.26 LIG-0.27  OA
ATOM     35 H    ASP D   3      30.491 -10.198  24.228  1.00 30.00 LIG 0.16  HD
BRANCH 33 36
ATOM     36  CA  GLU D   2      31.807 -12.079  23.012  1.00 39.45 LIG 0.18  C 
BRANCH 36 37
ATOM     37  N   GLU D   2      30.971 -11.462  21.991  1.00 40.85 LIG-0.35  N 
ATOM     38  C   ALA D   1      29.882 -12.069  21.533  1.00 38.03 LIG 0.25  C 
ATOM     39 O    ALA D   1      29.499 -13.163  21.950  1.00 37.20 LIG-0.27  OA
ATOM     40 H    GLU D   2      31.243 -10.691  21.724  1.00 40.85 LIG 0.16  HD
BRANCH 38 41
ATOM     41  CA  ALA D   1      29.113 -11.333  20.439  1.00 41.40 LIG 0.27  C 
ATOM     42  CB  ALA D   1      29.395 -11.953  19.070  1.00 39.88 LIG 0.05  C 
BRANCH 41 43
ATOM     43  N   ALA D   1      29.444  -9.911  20.441  1.00 41.88 LIG-0.07  N 
ATOM     44 H2   ALA D   1      29.050  -9.515  21.134  1.00 41.88 LIG 0.28  HD
ATOM     45 H3   ALA D   1      30.326  -9.811  20.504  1.00 41.88 LIG 0.28  HD
ATOM     46 H1   ALA D   1      29.157  -9.538  19.685  1.00 41.88 LIG 0.28  HD
ENDBRANCH 41 43
ENDBRANCH 38 41
ENDBRANCH 36 37
BRANCH 36 47
ATOM     47  CB  GLU D   2      33.201 -11.455  23.018  1.00 37.20 LIG 0.04  C 
BRANCH 47 48
ATOM     48  CG  GLU D   2      34.045 -11.925  21.856  1.00 39.39 LIG 0.12  C 
BRANCH 48 49
ATOM     49  CD  GLU D   2      33.528 -11.394  20.537  1.00 42.36 LIG 0.17  C 
ATOM     50 OE2  GLU D   2      33.101 -10.216  20.468  1.00 45.25 LIG-0.65  OA
ATOM     51 OE1  GLU D   2      33.551 -12.164  19.561  1.00 37.51 LIG-0.65  OA
ENDBRANCH 48 49
ENDBRANCH 47 48
ENDBRANCH 36 47
ENDBRANCH 33 36
ENDBRANCH 31 32
BRANCH 31 52
ATOM     52  CB  ASP D   3      30.500  -9.750  26.937  1.00 35.86 LIG 0.15  C 
BRANCH 52 53
ATOM     53  CG  ASP D   3      31.386 -10.374  28.003  1.00 46.33 LIG 0.17  C 
ATOM     54 OD1  ASP D   3      32.541  -9.929  28.181  1.00 38.55 LIG-0.65  OA
ATOM     55 OD2  ASP D   3      30.919 -11.328  28.661  1.00 55.15 LIG-0.65  OA
ENDBRANCH 52 53
ENDBRANCH 31 52
ENDBRANCH 1 31
TORSDOF 23
ENDMDL
MODEL 16
USER: ADFR SOLUTION from run 104
USER: SCORE 18.672401 LL:  -3.713 LR: -15.335 RR:   0.000 FEB:  -8.474
USER: RMSD 3.441766
USER: SEED 103
USER: STATUS searching
USER: GENES 25
USER: genes 0 Translation |==|  0.37673 0.59386 0.69146
USER: genes 1 Rotation |==|  0.43784 0.54202 0.59219 0.98567
USER: genes 2 Torsion [C]-N--CA-[C] |==|  0.77491
USER: genes 3 Torsion [N]-CA--C-[N] |==|  0.49179
USER: genes 4 Torsion [C]-N--CA-[C] |==|  0.85252
USER: genes 5 Torsion [N]-CA--C-[N] |==|  0.91667
USER: genes 6 Torsion [C]-N--CA-[C] |==|  0.79869
USER: genes 7 Torsion [N]-CA--CB-[CG] |==|  0.51047
USER: genes 8 Torsion [CA]-CB--CG-[CD] |==|  0.57365
USER: genes 9 Torsion [CB]-CG--CD-[OE1] |==|  0.85222
USER: genes 10 Torsion [N]-CA--C-[OXT] |==|  0.68523
USER: genes 11 Torsion [N]-CA--CB-[CG1] |==|  0.71732
USER: genes 12 Torsion [N]-CA--CB-[CG] |==|  0.52618
USER: genes 13 Torsion [CA]-CB--CG-[OD1] |==|  0.15977
USER: genes 14 Torsion [N]-C--CA-[N] |==|  0.91284
USER: genes 15 Torsion [C]-CA--N-[C] |==|  0.82832
USER: genes 16 Torsion [N]-C--CA-[N] |==|  0.13087
USER: genes 17 Torsion [C]-CA--N-[C] |==|  0.15261
USER: genes 18 Torsion [N]-C--CA-[N] |==|  0.77354
USER: genes 19 Torsion [C]-CA--N-[H3] |==|  0.94915
USER: genes 20 Torsion [C]-CA--CB-[CG] |==|  0.52824
USER: genes 21 Torsion [CA]-CB--CG-[CD] |==|  0.37523
USER: genes 22 Torsion [CB]-CG--CD-[OE2] |==|  0.57488
USER: genes 23 Torsion [C]-CA--CB-[CG] |==|  0.55347
USER: genes 24 Torsion [CA]-CB--CG-[OD1] |==|  0.19093
ROOT
ATOM      1  C   ASP D   3      25.701 -11.223  29.337  1.00 34.79 LIG 0.24  C 
ATOM      2 O    ASP D   3      25.785 -10.095  29.831  1.00 37.58 LIG-0.27  OA
ATOM      3  N   ASP D   4      26.737 -11.856  28.791  1.00 33.46 LIG-0.34  N 
ATOM      4 H    ASP D   4      26.704 -12.668  28.510  1.00 33.46 LIG 0.16  HD
ENDROOT
BRANCH 3 5
ATOM      5  CA  ASP D   4      28.028 -11.223  28.620  1.00 24.32 LIG 0.19  C 
BRANCH 5 6
ATOM      6  C   ASP D   4      27.923 -10.376  27.354  1.00 29.08 LIG 0.24  C 
ATOM      7  N   VAL D   5      28.988  -9.656  27.043  1.00 26.12 LIG-0.35  N 
ATOM      8 H    VAL D   5      29.699  -9.611  27.524  1.00 26.12 LIG 0.16  HD
ATOM      9 O    ASP D   4      26.893 -10.376  26.670  1.00 25.35 LIG-0.27  OA
BRANCH 7 10
ATOM     10  CA  VAL D   5      29.026  -8.862  25.822  1.00 27.68 LIG 0.18  C 
BRANCH 10 11
ATOM     11  C   VAL D   5      28.680  -9.759  24.629  1.00 28.81 LIG 0.24  C 
ATOM     12  N   GLU D   6      29.012 -11.040  24.736  1.00 27.30 LIG-0.34  N 
ATOM     13 H    GLU D   6      29.381 -11.381  25.434  1.00 27.30 LIG 0.16  HD
ATOM     14 O    VAL D   5      28.154  -9.286  23.618  1.00 31.14 LIG-0.27  OA
BRANCH 12 15
ATOM     15  CA  GLU D   6      28.776 -11.996  23.654  1.00 31.22 LIG 0.19  C 
BRANCH 15 16
ATOM     16  CB  GLU D   6      29.508 -13.309  23.922  1.00 26.83 LIG 0.05  C 
BRANCH 16 17
ATOM     17  CG  GLU D   6      29.400 -14.333  22.819  1.00 32.75 LIG 0.12  C 
BRANCH 17 18
ATOM     18  CD  GLU D   6      29.549 -15.751  23.345  1.00 37.41 LIG 0.17  C 
ATOM     19 OE1  GLU D   6      30.550 -16.031  24.034  1.00 40.07 LIG-0.65  OA
ATOM     20 OE2  GLU D   6      28.667 -16.588  23.070  1.00 32.49 LIG-0.65  OA
ENDBRANCH 17 18
ENDBRANCH 16 17
ENDBRANCH 15 16
BRANCH 15 21
ATOM     21  C   GLU D   6      27.296 -12.301  23.540  1.00 32.10 LIG 0.20  C 
ATOM     22 OXT  GLU D   6      26.873 -13.427  23.803  1.00 29.11 LIG-0.65  OA
ATOM     23 O    GLU D   6      26.497 -11.419  23.221  1.00 24.06 LIG-0.65  OA
ENDBRANCH 15 21
ENDBRANCH 12 15
ENDBRANCH 10 11
BRANCH 10 24
ATOM     24  CB  VAL D   5      30.395  -8.185  25.656  1.00 24.95 LIG 0.01  C 
ATOM     25  CG1 VAL D   5      30.296  -6.716  26.064  1.00 19.21 LIG 0.01  C 
ATOM     26  CG2 VAL D   5      31.450  -8.904  26.500  1.00 24.99 LIG 0.01  C 
ENDBRANCH 10 24
ENDBRANCH 7 10
ENDBRANCH 5 6
BRANCH 5 27
ATOM     27  CB  ASP D   4      29.122 -12.286  28.466  1.00 34.66 LIG 0.15  C 
BRANCH 27 28
ATOM     28  CG  ASP D   4      30.541 -11.702  28.511  1.00 38.29 LIG 0.17  C 
ATOM     29 OD2  ASP D   4      31.290 -11.901  27.529  1.00 38.65 LIG-0.65  OA
ATOM     30 OD1  ASP D   4      30.914 -11.045  29.506  1.00 35.40 LIG-0.65  OA
ENDBRANCH 27 28
ENDBRANCH 5 27
ENDBRANCH 3 5
BRANCH 1 31
ATOM     31  CA  ASP D   3      24.373 -11.989  29.308  1.00 30.73 LIG 0.19  C 
BRANCH 31 32
ATOM     32  N   ASP D   3      24.273 -12.856  28.134  1.00 30.00 LIG-0.35  N 
ATOM     33  C   GLU D   2      24.293 -12.335  26.907  1.00 37.22 LIG 0.24  C 
ATOM     34 O    GLU D   2      24.358 -11.124  26.697  1.00 35.26 LIG-0.27  OA
ATOM     35 H    ASP D   3      24.202 -13.695  28.306  1.00 30.00 LIG 0.16  HD
BRANCH 33 36
ATOM     36  CA  GLU D   2      24.255 -13.313  25.737  1.00 39.45 LIG 0.18  C 
BRANCH 36 37
ATOM     37  N   GLU D   2      23.228 -14.333  25.899  1.00 40.85 LIG-0.35  N 
ATOM     38  C   ALA D   1      21.958 -14.005  26.109  1.00 38.03 LIG 0.25  C 
ATOM     39 O    ALA D   1      21.567 -12.838  26.155  1.00 37.20 LIG-0.27  OA
ATOM     40 H    GLU D   2      23.515 -15.142  25.846  1.00 40.85 LIG 0.16  HD
BRANCH 38 41
ATOM     41  CA  ALA D   1      20.986 -15.167  26.297  1.00 41.40 LIG 0.27  C 
ATOM     42  CB  ALA D   1      21.605 -16.252  27.178  1.00 39.88 LIG 0.05  C 
BRANCH 41 43
ATOM     43  N   ALA D   1      20.580 -15.717  25.006  1.00 41.88 LIG-0.07  N 
ATOM     44 H2   ALA D   1      19.708 -15.892  25.019  1.00 41.88 LIG 0.28  HD
ATOM     45 H3   ALA D   1      20.754 -15.126  24.363  1.00 41.88 LIG 0.28  HD
ATOM     46 H1   ALA D   1      21.032 -16.467  24.848  1.00 41.88 LIG 0.28  HD
ENDBRANCH 41 43
ENDBRANCH 38 41
ENDBRANCH 36 37
BRANCH 36 47
ATOM     47  CB  GLU D   2      24.083 -12.580  24.409  1.00 37.20 LIG 0.04  C 
BRANCH 47 48
ATOM     48  CG  GLU D   2      23.796 -13.524  23.264  1.00 39.39 LIG 0.12  C 
BRANCH 48 49
ATOM     49  CD  GLU D   2      22.672 -13.016  22.387  1.00 42.36 LIG 0.17  C 
ATOM     50 OE2  GLU D   2      21.974 -13.833  21.741  1.00 45.25 LIG-0.65  OA
ATOM     51 OE1  GLU D   2      22.489 -11.787  22.348  1.00 37.51 LIG-0.65  OA
ENDBRANCH 48 49
ENDBRANCH 47 48
ENDBRANCH 36 47
ENDBRANCH 33 36
ENDBRANCH 31 32
BRANCH 31 52
ATOM     52  CB  ASP D   3      24.099 -12.752  30.617  1.00 35.86 LIG 0.15  C 
BRANCH 52 53
ATOM     53  CG  ASP D   3      23.069 -13.859  30.463  1.00 46.33 LIG 0.17  C 
ATOM     54 OD1  ASP D   3      23.352 -14.874  29.790  1.00 38.55 LIG-0.65  OA
ATOM     55 OD2  ASP D   3      21.960 -13.701  31.016  1.00 55.15 LIG-0.65  OA
ENDBRANCH 52 53
ENDBRANCH 31 52
ENDBRANCH 1 31
TORSDOF 23
ENDMDL
MODEL 17
USER: ADFR SOLUTION from run 160
USER: SCORE 17.336272 LL:  -3.363 LR: -15.227 RR:   0.000 FEB:  -8.366
USER: RMSD 5.475283
USER: SEED 159
USER: STATUS no improvement in best in 9 clusters for 5 generations
USER: GENES 25
USER: genes 0 Translation |==|  0.39673 0.56640 0.50742
USER: genes 1 Rotation |==|  0.28804 0.10488 0.38561 0.68939
USER: genes 2 Torsion [C]-N--CA-[C] |==|  0.79629
USER: genes 3 Torsion [N]-CA--C-[N] |==|  0.92631
USER: genes 4 Torsion [C]-N--CA-[C] |==|  0.57778
USER: genes 5 Torsion [N]-CA--C-[N] |==|  0.94653
USER: genes 6 Torsion [C]-N--CA-[C] |==|  0.81018
USER: genes 7 Torsion [N]-CA--CB-[CG] |==|  0.28348
USER: genes 8 Torsion [CA]-CB--CG-[CD] |==|  0.52314
USER: genes 9 Torsion [CB]-CG--CD-[OE1] |==|  0.13667
USER: genes 10 Torsion [N]-CA--C-[OXT] |==|  0.94599
USER: genes 11 Torsion [N]-CA--CB-[CG1] |==|  0.35098
USER: genes 12 Torsion [N]-CA--CB-[CG] |==|  0.55275
USER: genes 13 Torsion [CA]-CB--CG-[OD1] |==|  0.63343
USER: genes 14 Torsion [N]-C--CA-[N] |==|  0.16782
USER: genes 15 Torsion [C]-CA--N-[C] |==|  0.76909
USER: genes 16 Torsion [N]-C--CA-[N] |==|  0.38159
USER: genes 17 Torsion [C]-CA--N-[C] |==|  0.65838
USER: genes 18 Torsion [N]-C--CA-[N] |==|  0.41035
USER: genes 19 Torsion [C]-CA--N-[H3] |==|  0.55188
USER: genes 20 Torsion [C]-CA--CB-[CG] |==|  0.07515
USER: genes 21 Torsion [CA]-CB--CG-[CD] |==|  0.20939
USER: genes 22 Torsion [CB]-CG--CD-[OE2] |==|  0.91875
USER: genes 23 Torsion [C]-CA--CB-[CG] |==|  0.83852
USER: genes 24 Torsion [CA]-CB--CG-[OD1] |==|  0.78258
ROOT
ATOM      1  C   ASP D   3      26.121 -11.718  25.472  1.00 34.79 LIG 0.24  C 
ATOM      2 O    ASP D   3      26.420 -10.531  25.308  1.00 37.58 LIG-0.27  OA
ATOM      3  N   ASP D   4      25.337 -12.140  26.460  1.00 33.46 LIG-0.34  N 
ATOM      4 H    ASP D   4      25.066 -12.952  26.539  1.00 33.46 LIG 0.16  HD
ENDROOT
BRANCH 3 5
ATOM      5  CA  ASP D   4      24.863 -11.255  27.503  1.00 24.32 LIG 0.19  C 
BRANCH 5 6
ATOM      6  C   ASP D   4      26.065 -10.976  28.405  1.00 29.08 LIG 0.24  C 
ATOM      7  N   VAL D   5      27.002 -11.908  28.433  1.00 26.12 LIG-0.35  N 
ATOM      8 H    VAL D   5      26.953 -12.657  28.014  1.00 26.12 LIG 0.16  HD
ATOM      9 O    ASP D   4      26.140  -9.932  29.063  1.00 25.35 LIG-0.27  OA
BRANCH 7 10
ATOM     10  CA  VAL D   5      28.224 -11.720  29.205  1.00 27.68 LIG 0.18  C 
BRANCH 10 11
ATOM     11  C   VAL D   5      29.357 -12.522  28.555  1.00 28.81 LIG 0.24  C 
ATOM     12  N   GLU D   6      28.993 -13.499  27.731  1.00 27.30 LIG-0.34  N 
ATOM     13 H    GLU D   6      28.175 -13.678  27.535  1.00 27.30 LIG 0.16  HD
ATOM     14 O    VAL D   5      30.536 -12.280  28.826  1.00 31.14 LIG-0.27  OA
BRANCH 12 15
ATOM     15  CA  GLU D   6      29.971 -14.366  27.076  1.00 31.22 LIG 0.19  C 
BRANCH 15 16
ATOM     16  CB  GLU D   6      29.276 -15.512  26.343  1.00 26.83 LIG 0.05  C 
BRANCH 16 17
ATOM     17  CG  GLU D   6      29.167 -15.337  24.848  1.00 32.75 LIG 0.12  C 
BRANCH 17 18
ATOM     18  CD  GLU D   6      28.292 -16.406  24.216  1.00 37.41 LIG 0.17  C 
ATOM     19 OE1  GLU D   6      27.173 -16.637  24.714  1.00 40.07 LIG-0.65  OA
ATOM     20 OE2  GLU D   6      28.723 -17.019  23.219  1.00 32.49 LIG-0.65  OA
ENDBRANCH 17 18
ENDBRANCH 16 17
ENDBRANCH 15 16
BRANCH 15 21
ATOM     21  C   GLU D   6      30.771 -13.578  26.059  1.00 32.10 LIG 0.20  C 
ATOM     22 OXT  GLU D   6      30.340 -12.510  25.624  1.00 29.11 LIG-0.65  OA
ATOM     23 O    GLU D   6      31.876 -13.976  25.686  1.00 24.06 LIG-0.65  OA
ENDBRANCH 15 21
ENDBRANCH 12 15
ENDBRANCH 10 11
BRANCH 10 24
ATOM     24  CB  VAL D   5      28.006 -12.117  30.673  1.00 24.95 LIG 0.01  C 
ATOM     25  CG1 VAL D   5      29.065 -13.134  31.094  1.00 19.21 LIG 0.01  C 
ATOM     26  CG2 VAL D   5      28.066 -10.880  31.572  1.00 24.99 LIG 0.01  C 
ENDBRANCH 10 24
ENDBRANCH 7 10
ENDBRANCH 5 6
BRANCH 5 27
ATOM     27  CB  ASP D   4      23.740 -11.929  28.300  1.00 34.66 LIG 0.15  C 
BRANCH 27 28
ATOM     28  CG  ASP D   4      22.882 -10.934  29.094  1.00 38.29 LIG 0.17  C 
ATOM     29 OD2  ASP D   4      22.456  -9.921  28.499  1.00 38.65 LIG-0.65  OA
ATOM     30 OD1  ASP D   4      22.623 -11.155  30.296  1.00 35.40 LIG-0.65  OA
ENDBRANCH 27 28
ENDBRANCH 5 27
ENDBRANCH 3 5
BRANCH 1 31
ATOM     31  CA  ASP D   3      26.649 -12.813  24.536  1.00 30.73 LIG 0.19  C 
BRANCH 31 32
ATOM     32  N   ASP D   3      25.559 -13.526  23.870  1.00 30.00 LIG-0.35  N 
ATOM     33  C   GLU D   2      24.930 -14.526  24.487  1.00 37.22 LIG 0.24  C 
ATOM     34 O    GLU D   2      25.247 -14.923  25.608  1.00 35.26 LIG-0.27  OA
ATOM     35 H    ASP D   3      25.374 -13.248  23.077  1.00 30.00 LIG 0.16  HD
BRANCH 33 36
ATOM     36  CA  GLU D   2      23.760 -15.170  23.750  1.00 39.45 LIG 0.18  C 
BRANCH 36 37
ATOM     37  N   GLU D   2      23.768 -16.623  23.854  1.00 40.85 LIG-0.35  N 
ATOM     38  C   ALA D   1      23.785 -17.392  22.771  1.00 38.03 LIG 0.25  C 
ATOM     39 O    ALA D   1      23.821 -16.936  21.627  1.00 37.20 LIG-0.27  OA
ATOM     40 H    GLU D   2      23.761 -16.923  24.660  1.00 40.85 LIG 0.16  HD
BRANCH 38 41
ATOM     41  CA  ALA D   1      23.756 -18.898  23.016  1.00 41.40 LIG 0.27  C 
ATOM     42  CB  ALA D   1      25.175 -19.448  23.163  1.00 39.88 LIG 0.05  C 
BRANCH 41 43
ATOM     43  N   ALA D   1      23.045 -19.584  21.940  1.00 41.88 LIG-0.07  N 
ATOM     44 H2   ALA D   1      23.579 -19.660  21.232  1.00 41.88 LIG 0.28  HD
ATOM     45 H3   ALA D   1      22.800 -20.395  22.215  1.00 41.88 LIG 0.28  HD
ATOM     46 H1   ALA D   1      22.322 -19.116  21.717  1.00 41.88 LIG 0.28  HD
ENDBRANCH 41 43
ENDBRANCH 38 41
ENDBRANCH 36 37
BRANCH 36 47
ATOM     47  CB  GLU D   2      22.426 -14.602  24.229  1.00 37.20 LIG 0.04  C 
BRANCH 47 48
ATOM     48  CG  GLU D   2      22.558 -13.194  24.760  1.00 39.39 LIG 0.12  C 
BRANCH 48 49
ATOM     49  CD  GLU D   2      22.717 -12.186  23.642  1.00 42.36 LIG 0.17  C 
ATOM     50 OE2  GLU D   2      23.262 -12.535  22.568  1.00 45.25 LIG-0.65  OA
ATOM     51 OE1  GLU D   2      22.291 -11.036  23.844  1.00 37.51 LIG-0.65  OA
ENDBRANCH 48 49
ENDBRANCH 47 48
ENDBRANCH 36 47
ENDBRANCH 33 36
ENDBRANCH 31 32
BRANCH 31 52
ATOM     52  CB  ASP D   3      27.694 -12.286  23.536  1.00 35.86 LIG 0.15  C 
BRANCH 52 53
ATOM     53  CG  ASP D   3      27.172 -11.160  22.660  1.00 46.33 LIG 0.17  C 
ATOM     54 OD1  ASP D   3      26.435 -11.428  21.686  1.00 38.55 LIG-0.65  OA
ATOM     55 OD2  ASP D   3      27.515  -9.993  22.947  1.00 55.15 LIG-0.65  OA
ENDBRANCH 52 53
ENDBRANCH 31 52
ENDBRANCH 1 31
TORSDOF 23
ENDMDL
MODEL 18
USER: ADFR SOLUTION from run 14
USER: SCORE 17.564334 LL:  -3.824 LR: -15.167 RR:   0.000 FEB:  -8.306
USER: RMSD 6.534892
USER: SEED 266968
USER: STATUS no improvement in best in 8 clusters for 5 generations
USER: GENES 25
USER: genes 0 Translation |==|  0.26921 0.38053 0.49188
USER: genes 1 Rotation |==|  0.97824 0.44205 0.60379 0.58457
USER: genes 2 Torsion [C]-N--CA-[C] |==|  0.58890
USER: genes 3 Torsion [N]-CA--C-[N] |==|  0.62715
USER: genes 4 Torsion [C]-N--CA-[C] |==|  0.69174
USER: genes 5 Torsion [N]-CA--C-[N] |==|  0.85030
USER: genes 6 Torsion [C]-N--CA-[C] |==|  0.66715
USER: genes 7 Torsion [N]-CA--CB-[CG] |==|  0.12137
USER: genes 8 Torsion [CA]-CB--CG-[CD] |==|  0.78868
USER: genes 9 Torsion [CB]-CG--CD-[OE1] |==|  0.35702
USER: genes 10 Torsion [N]-CA--C-[OXT] |==|  0.61839
USER: genes 11 Torsion [N]-CA--CB-[CG1] |==|  0.47735
USER: genes 12 Torsion [N]-CA--CB-[CG] |==|  0.07464
USER: genes 13 Torsion [CA]-CB--CG-[OD1] |==|  0.60580
USER: genes 14 Torsion [N]-C--CA-[N] |==|  0.89808
USER: genes 15 Torsion [C]-CA--N-[C] |==|  0.83479
USER: genes 16 Torsion [N]-C--CA-[N] |==|  0.98125
USER: genes 17 Torsion [C]-CA--N-[C] |==|  0.79136
USER: genes 18 Torsion [N]-C--CA-[N] |==|  0.73109
USER: genes 19 Torsion [C]-CA--N-[H3] |==|  0.49758
USER: genes 20 Torsion [C]-CA--CB-[CG] |==|  0.63184
USER: genes 21 Torsion [CA]-CB--CG-[CD] |==|  0.71527
USER: genes 22 Torsion [CB]-CG--CD-[OE2] |==|  0.90980
USER: genes 23 Torsion [C]-CA--CB-[CG] |==|  0.78920
USER: genes 24 Torsion [CA]-CB--CG-[OD1] |==|  0.87774
ROOT
ATOM      1  C   ASP D   3      23.443 -15.063  25.145  1.00 34.79 LIG 0.24  C 
ATOM      2 O    ASP D   3      23.783 -16.217  24.867  1.00 37.58 LIG-0.27  OA
ATOM      3  N   ASP D   4      24.241 -14.203  25.773  1.00 33.46 LIG-0.34  N 
ATOM      4 H    ASP D   4      24.040 -13.378  25.907  1.00 33.46 LIG 0.16  HD
ENDROOT
BRANCH 3 5
ATOM      5  CA  ASP D   4      25.536 -14.587  26.293  1.00 24.32 LIG 0.19  C 
BRANCH 5 6
ATOM      6  C   ASP D   4      25.768 -13.731  27.537  1.00 29.08 LIG 0.24  C 
ATOM      7  N   VAL D   5      26.961 -13.170  27.646  1.00 26.12 LIG-0.35  N 
ATOM      8 H    VAL D   5      27.606 -13.291  27.090  1.00 26.12 LIG 0.16  HD
ATOM      9 O    ASP D   4      24.879 -13.580  28.383  1.00 25.35 LIG-0.27  OA
BRANCH 7 10
ATOM     10  CA  VAL D   5      27.272 -12.279  28.756  1.00 27.68 LIG 0.18  C 
BRANCH 10 11
ATOM     11  C   VAL D   5      27.429 -10.850  28.223  1.00 28.81 LIG 0.24  C 
ATOM     12  N   GLU D   6      28.294 -10.681  27.229  1.00 27.30 LIG-0.34  N 
ATOM     13 H    GLU D   6      28.738 -11.323  26.868  1.00 27.30 LIG 0.16  HD
ATOM     14 O    VAL D   5      26.803  -9.917  28.731  1.00 31.14 LIG-0.27  OA
BRANCH 12 15
ATOM     15  CA  GLU D   6      28.569  -9.364  26.655  1.00 31.22 LIG 0.19  C 
BRANCH 15 16
ATOM     16  CB  GLU D   6      30.049  -9.012  26.792  1.00 26.83 LIG 0.05  C 
BRANCH 16 17
ATOM     17  CG  GLU D   6      31.002 -10.133  26.458  1.00 32.75 LIG 0.12  C 
BRANCH 17 18
ATOM     18  CD  GLU D   6      31.074 -11.165  27.571  1.00 37.41 LIG 0.17  C 
ATOM     19 OE1  GLU D   6      30.913 -12.368  27.284  1.00 40.07 LIG-0.65  OA
ATOM     20 OE2  GLU D   6      31.290 -10.775  28.736  1.00 32.49 LIG-0.65  OA
ENDBRANCH 17 18
ENDBRANCH 16 17
ENDBRANCH 15 16
BRANCH 15 21
ATOM     21  C   GLU D   6      28.220  -9.352  25.181  1.00 32.10 LIG 0.20  C 
ATOM     22 OXT  GLU D   6      28.970  -8.808  24.371  1.00 29.11 LIG-0.65  OA
ATOM     23 O    GLU D   6      27.204  -9.917  24.773  1.00 24.06 LIG-0.65  OA
ENDBRANCH 15 21
ENDBRANCH 12 15
ENDBRANCH 10 11
BRANCH 10 24
ATOM     24  CB  VAL D   5      28.527 -12.757  29.502  1.00 24.95 LIG 0.01  C 
ATOM     25  CG1 VAL D   5      28.949 -11.705  30.525  1.00 19.21 LIG 0.01  C 
ATOM     26  CG2 VAL D   5      28.259 -14.096  30.191  1.00 24.99 LIG 0.01  C 
ENDBRANCH 10 24
ENDBRANCH 7 10
ENDBRANCH 5 6
BRANCH 5 27
ATOM     27  CB  ASP D   4      26.627 -14.322  25.248  1.00 34.66 LIG 0.15  C 
BRANCH 27 28
ATOM     28  CG  ASP D   4      26.266 -13.194  24.272  1.00 38.29 LIG 0.17  C 
ATOM     29 OD2  ASP D   4      25.665 -12.195  24.724  1.00 38.65 LIG-0.65  OA
ATOM     30 OD1  ASP D   4      26.580 -13.288  23.066  1.00 35.40 LIG-0.65  OA
ENDBRANCH 27 28
ENDBRANCH 5 27
ENDBRANCH 3 5
BRANCH 1 31
ATOM     31  CA  ASP D   3      22.050 -14.530  24.789  1.00 30.73 LIG 0.19  C 
BRANCH 31 32
ATOM     32  N   ASP D   3      21.529 -13.641  25.828  1.00 30.00 LIG-0.35  N 
ATOM     33  C   GLU D   2      21.363 -14.085  27.074  1.00 37.22 LIG 0.24  C 
ATOM     34 O    GLU D   2      21.597 -15.247  27.406  1.00 35.26 LIG-0.27  OA
ATOM     35 H    ASP D   3      21.349 -12.842  25.567  1.00 30.00 LIG 0.16  HD
BRANCH 33 36
ATOM     36  CA  GLU D   2      20.883 -13.075  28.112  1.00 39.45 LIG 0.18  C 
BRANCH 36 37
ATOM     37  N   GLU D   2      20.829 -11.718  27.583  1.00 40.85 LIG-0.35  N 
ATOM     38  C   ALA D   1      21.936 -11.008  27.395  1.00 38.03 LIG 0.25  C 
ATOM     39 O    ALA D   1      23.062 -11.450  27.625  1.00 37.20 LIG-0.27  OA
ATOM     40 H    GLU D   2      20.037 -11.432  27.411  1.00 40.85 LIG 0.16  HD
BRANCH 38 41
ATOM     41  CA  ALA D   1      21.742  -9.588  26.870  1.00 41.40 LIG 0.27  C 
ATOM     42  CB  ALA D   1      20.368  -9.048  27.268  1.00 39.88 LIG 0.05  C 
BRANCH 41 43
ATOM     43  N   ALA D   1      21.915  -9.544  25.420  1.00 41.88 LIG-0.07  N 
ATOM     44 H2   ALA D   1      21.325 -10.086  25.034  1.00 41.88 LIG 0.28  HD
ATOM     45 H3   ALA D   1      21.786  -8.712  25.130  1.00 41.88 LIG 0.28  HD
ATOM     46 H1   ALA D   1      22.739  -9.806  25.211  1.00 41.88 LIG 0.28  HD
ENDBRANCH 41 43
ENDBRANCH 38 41
ENDBRANCH 36 37
BRANCH 36 47
ATOM     47  CB  GLU D   2      19.530 -13.481  28.693  1.00 37.20 LIG 0.04  C 
BRANCH 47 48
ATOM     48  CG  GLU D   2      18.548 -12.332  28.721  1.00 39.39 LIG 0.12  C 
BRANCH 48 49
ATOM     49  CD  GLU D   2      18.411 -11.747  30.110  1.00 42.36 LIG 0.17  C 
ATOM     50 OE2  GLU D   2      18.530 -12.494  31.110  1.00 45.25 LIG-0.65  OA
ATOM     51 OE1  GLU D   2      18.182 -10.528  30.197  1.00 37.51 LIG-0.65  OA
ENDBRANCH 48 49
ENDBRANCH 47 48
ENDBRANCH 36 47
ENDBRANCH 33 36
ENDBRANCH 31 32
BRANCH 31 52
ATOM     52  CB  ASP D   3      22.002 -13.881  23.394  1.00 35.86 LIG 0.15  C 
BRANCH 52 53
ATOM     53  CG  ASP D   3      22.633 -12.499  23.353  1.00 46.33 LIG 0.17  C 
ATOM     54 OD1  ASP D   3      22.386 -11.682  24.266  1.00 38.55 LIG-0.65  OA
ATOM     55 OD2  ASP D   3      23.378 -12.229  22.385  1.00 55.15 LIG-0.65  OA
ENDBRANCH 52 53
ENDBRANCH 31 52
ENDBRANCH 1 31
TORSDOF 23
ENDMDL
MODEL 19
USER: ADFR SOLUTION from run 29
USER: SCORE 17.747369 LL:  -3.284 LR: -15.137 RR:   0.000 FEB:  -8.276
USER: RMSD 8.832211
USER: SEED 28
USER: STATUS no improvement in best in 5 clusters for 5 generations
USER: GENES 25
USER: genes 0 Translation |==|  0.34166 0.55497 0.60415
USER: genes 1 Rotation |==|  0.49899 0.50509 0.00042 0.51971
USER: genes 2 Torsion [C]-N--CA-[C] |==|  0.80826
USER: genes 3 Torsion [N]-CA--C-[N] |==|  0.85690
USER: genes 4 Torsion [C]-N--CA-[C] |==|  0.75078
USER: genes 5 Torsion [N]-CA--C-[N] |==|  0.33134
USER: genes 6 Torsion [C]-N--CA-[C] |==|  0.81185
USER: genes 7 Torsion [N]-CA--CB-[CG] |==|  0.93569
USER: genes 8 Torsion [CA]-CB--CG-[CD] |==|  0.57821
USER: genes 9 Torsion [CB]-CG--CD-[OE1] |==|  0.59172
USER: genes 10 Torsion [N]-CA--C-[OXT] |==|  0.92895
USER: genes 11 Torsion [N]-CA--CB-[CG1] |==|  0.14289
USER: genes 12 Torsion [N]-CA--CB-[CG] |==|  0.67491
USER: genes 13 Torsion [CA]-CB--CG-[OD1] |==|  0.77150
USER: genes 14 Torsion [N]-C--CA-[N] |==|  0.39600
USER: genes 15 Torsion [C]-CA--N-[C] |==|  0.82204
USER: genes 16 Torsion [N]-C--CA-[N] |==|  0.50467
USER: genes 17 Torsion [C]-CA--N-[C] |==|  0.59052
USER: genes 18 Torsion [N]-C--CA-[N] |==|  0.53978
USER: genes 19 Torsion [C]-CA--N-[H3] |==|  0.20142
USER: genes 20 Torsion [C]-CA--CB-[CG] |==|  0.24123
USER: genes 21 Torsion [CA]-CB--CG-[CD] |==|  0.12268
USER: genes 22 Torsion [CB]-CG--CD-[OE2] |==|  0.78028
USER: genes 23 Torsion [C]-CA--CB-[CG] |==|  0.25483
USER: genes 24 Torsion [CA]-CB--CG-[OD1] |==|  0.59567
ROOT
ATOM      1  C   ASP D   3      24.965 -11.924  27.503  1.00 34.79 LIG 0.24  C 
ATOM      2 O    ASP D   3      24.685 -12.845  28.275  1.00 37.58 LIG-0.27  OA
ATOM      3  N   ASP D   4      24.047 -11.134  26.951  1.00 33.46 LIG-0.34  N 
ATOM      4 H    ASP D   4      24.237 -10.447  26.471  1.00 33.46 LIG 0.16  HD
ENDROOT
BRANCH 3 5
ATOM      5  CA  ASP D   4      22.628 -11.367  27.115  1.00 24.32 LIG 0.19  C 
BRANCH 5 6
ATOM      6  C   ASP D   4      22.312 -12.642  26.335  1.00 29.08 LIG 0.24  C 
ATOM      7  N   VAL D   5      22.730 -12.679  25.081  1.00 26.12 LIG-0.35  N 
ATOM      8 H    VAL D   5      23.124 -12.027  24.683  1.00 26.12 LIG 0.16  HD
ATOM      9 O    ASP D   4      21.699 -13.577  26.864  1.00 25.35 LIG-0.27  OA
BRANCH 7 10
ATOM     10  CA  VAL D   5      22.544 -13.870  24.263  1.00 27.68 LIG 0.18  C 
BRANCH 10 11
ATOM     11  C   VAL D   5      23.760 -14.789  24.430  1.00 28.81 LIG 0.24  C 
ATOM     12  N   GLU D   6      23.524 -15.999  24.922  1.00 27.30 LIG-0.34  N 
ATOM     13 H    GLU D   6      22.739 -16.288  25.123  1.00 27.30 LIG 0.16  HD
ATOM     14 O    VAL D   5      24.893 -14.390  24.149  1.00 31.14 LIG-0.27  OA
BRANCH 12 15
ATOM     15  CA  GLU D   6      24.599 -16.960  25.169  1.00 31.22 LIG 0.19  C 
BRANCH 15 16
ATOM     16  CB  GLU D   6      24.068 -18.193  25.896  1.00 26.83 LIG 0.05  C 
BRANCH 16 17
ATOM     17  CG  GLU D   6      22.792 -17.974  26.671  1.00 32.75 LIG 0.12  C 
BRANCH 17 18
ATOM     18  CD  GLU D   6      22.680 -18.919  27.856  1.00 37.41 LIG 0.17  C 
ATOM     19 OE1  GLU D   6      21.550 -19.318  28.199  1.00 40.07 LIG-0.65  OA
ATOM     20 OE2  GLU D   6      23.722 -19.264  28.447  1.00 32.49 LIG-0.65  OA
ENDBRANCH 17 18
ENDBRANCH 16 17
ENDBRANCH 15 16
BRANCH 15 21
ATOM     21  C   GLU D   6      25.205 -17.415  23.858  1.00 32.10 LIG 0.20  C 
ATOM     22 OXT  GLU D   6      24.541 -17.381  22.822  1.00 29.11 LIG-0.65  OA
ATOM     23 O    GLU D   6      26.379 -17.787  23.805  1.00 24.06 LIG-0.65  OA
ENDBRANCH 15 21
ENDBRANCH 12 15
ENDBRANCH 10 11
BRANCH 10 24
ATOM     24  CB  VAL D   5      22.306 -13.490  22.794  1.00 24.95 LIG 0.01  C 
ATOM     25  CG1 VAL D   5      23.404 -12.537  22.325  1.00 19.21 LIG 0.01  C 
ATOM     26  CG2 VAL D   5      22.277 -14.744  21.918  1.00 24.99 LIG 0.01  C 
ENDBRANCH 10 24
ENDBRANCH 7 10
ENDBRANCH 5 6
BRANCH 5 27
ATOM     27  CB  ASP D   4      21.829 -10.184  26.554  1.00 34.66 LIG 0.15  C 
BRANCH 27 28
ATOM     28  CG  ASP D   4      21.005  -9.451  27.622  1.00 38.29 LIG 0.17  C 
ATOM     29 OD2  ASP D   4      21.482  -8.409  28.120  1.00 38.65 LIG-0.65  OA
ATOM     30 OD1  ASP D   4      19.889  -9.898  27.965  1.00 35.40 LIG-0.65  OA
ENDBRANCH 27 28
ENDBRANCH 5 27
ENDBRANCH 3 5
BRANCH 1 31
ATOM     31  CA  ASP D   3      26.416 -11.620  27.110  1.00 30.73 LIG 0.19  C 
BRANCH 31 32
ATOM     32  N   ASP D   3      27.331 -11.803  28.237  1.00 30.00 LIG-0.35  N 
ATOM     33  C   GLU D   2      27.233 -11.031  29.318  1.00 37.22 LIG 0.24  C 
ATOM     34 O    GLU D   2      26.413 -10.118  29.414  1.00 35.26 LIG-0.27  OA
ATOM     35 H    ASP D   3      27.912 -12.430  28.136  1.00 30.00 LIG 0.16  HD
BRANCH 33 36
ATOM     36  CA  GLU D   2      28.180 -11.334  30.476  1.00 39.45 LIG 0.18  C 
BRANCH 36 37
ATOM     37  N   GLU D   2      27.960 -10.457  31.618  1.00 40.85 LIG-0.35  N 
ATOM     38  C   ALA D   1      28.964 -10.088  32.406  1.00 38.03 LIG 0.25  C 
ATOM     39 O    ALA D   1      30.129 -10.435  32.213  1.00 37.20 LIG-0.27  OA
ATOM     40 H    GLU D   2      27.144 -10.209  31.727  1.00 40.85 LIG 0.16  HD
BRANCH 38 41
ATOM     41  CA  ALA D   1      28.596  -9.195  33.589  1.00 41.40 LIG 0.27  C 
ATOM     42  CB  ALA D   1      27.595  -8.120  33.164  1.00 39.88 LIG 0.05  C 
BRANCH 41 43
ATOM     43  N   ALA D   1      29.790  -8.589  34.171  1.00 41.88 LIG-0.07  N 
ATOM     44 H2   ALA D   1      30.414  -9.213  34.287  1.00 41.88 LIG 0.28  HD
ATOM     45 H3   ALA D   1      30.101  -7.959  33.624  1.00 41.88 LIG 0.28  HD
ATOM     46 H1   ALA D   1      29.586  -8.224  34.956  1.00 41.88 LIG 0.28  HD
ENDBRANCH 41 43
ENDBRANCH 38 41
ENDBRANCH 36 37
BRANCH 36 47
ATOM     47  CB  GLU D   2      28.087 -12.799  30.896  1.00 37.20 LIG 0.04  C 
BRANCH 47 48
ATOM     48  CG  GLU D   2      29.007 -13.687  30.090  1.00 39.39 LIG 0.12  C 
BRANCH 48 49
ATOM     49  CD  GLU D   2      30.380 -13.070  29.927  1.00 42.36 LIG 0.17  C 
ATOM     50 OE2  GLU D   2      30.557 -12.173  29.069  1.00 45.25 LIG-0.65  OA
ATOM     51 OE1  GLU D   2      31.287 -13.490  30.667  1.00 37.51 LIG-0.65  OA
ENDBRANCH 48 49
ENDBRANCH 47 48
ENDBRANCH 36 47
ENDBRANCH 33 36
ENDBRANCH 31 32
BRANCH 31 52
ATOM     52  CB  ASP D   3      26.868 -12.401  25.863  1.00 35.86 LIG 0.15  C 
BRANCH 52 53
ATOM     53  CG  ASP D   3      26.644 -11.642  24.565  1.00 46.33 LIG 0.17  C 
ATOM     54 OD1  ASP D   3      26.336 -12.271  23.530  1.00 38.55 LIG-0.65  OA
ATOM     55 OD2  ASP D   3      26.790 -10.401  24.586  1.00 55.15 LIG-0.65  OA
ENDBRANCH 52 53
ENDBRANCH 31 52
ENDBRANCH 1 31
TORSDOF 23
ENDMDL
MODEL 20
USER: ADFR SOLUTION from run 11
USER: SCORE 17.699165 LL:  -3.036 LR: -15.137 RR:   0.000 FEB:  -8.276
USER: RMSD 10.090799
USER: SEED 888928
USER: STATUS no improvement in best in 3 clusters for 5 generations
USER: GENES 25
USER: genes 0 Translation |==|  0.46713 0.64140 0.50918
USER: genes 1 Rotation |==|  0.48574 0.99705 0.44790 0.50482
USER: genes 2 Torsion [C]-N--CA-[C] |==|  0.60536
USER: genes 3 Torsion [N]-CA--C-[N] |==|  0.41239
USER: genes 4 Torsion [C]-N--CA-[C] |==|  0.62463
USER: genes 5 Torsion [N]-CA--C-[N] |==|  0.41296
USER: genes 6 Torsion [C]-N--CA-[C] |==|  0.68840
USER: genes 7 Torsion [N]-CA--CB-[CG] |==|  0.97169
USER: genes 8 Torsion [CA]-CB--CG-[CD] |==|  0.81172
USER: genes 9 Torsion [CB]-CG--CD-[OE1] |==|  0.44097
USER: genes 10 Torsion [N]-CA--C-[OXT] |==|  0.71566
USER: genes 11 Torsion [N]-CA--CB-[CG1] |==|  0.31673
USER: genes 12 Torsion [N]-CA--CB-[CG] |==|  0.89419
USER: genes 13 Torsion [CA]-CB--CG-[OD1] |==|  0.30930
USER: genes 14 Torsion [N]-C--CA-[N] |==|  0.34777
USER: genes 15 Torsion [C]-CA--N-[C] |==|  0.65516
USER: genes 16 Torsion [N]-C--CA-[N] |==|  0.94255
USER: genes 17 Torsion [C]-CA--N-[C] |==|  0.77804
USER: genes 18 Torsion [N]-C--CA-[N] |==|  0.96744
USER: genes 19 Torsion [C]-CA--N-[H3] |==|  0.28490
USER: genes 20 Torsion [C]-CA--CB-[CG] |==|  0.35705
USER: genes 21 Torsion [CA]-CB--CG-[CD] |==|  0.75700
USER: genes 22 Torsion [CB]-CG--CD-[OE2] |==|  0.22032
USER: genes 23 Torsion [C]-CA--CB-[CG] |==|  0.72143
USER: genes 24 Torsion [CA]-CB--CG-[OD1] |==|  0.30024
ROOT
ATOM      1  C   ASP D   3      27.600 -10.368  25.509  1.00 34.79 LIG 0.24  C 
ATOM      2 O    ASP D   3      27.218  -9.691  24.549  1.00 37.58 LIG-0.27  OA
ATOM      3  N   ASP D   4      26.782 -11.128  26.233  1.00 33.46 LIG-0.34  N 
ATOM      4 H    ASP D   4      27.051 -11.656  26.856  1.00 33.46 LIG 0.16  HD
ENDROOT
BRANCH 3 5
ATOM      5  CA  ASP D   4      25.349 -11.131  26.032  1.00 24.32 LIG 0.19  C 
BRANCH 5 6
ATOM      6  C   ASP D   4      24.723 -11.246  27.421  1.00 29.08 LIG 0.24  C 
ATOM      7  N   VAL D   5      23.554 -10.652  27.587  1.00 26.12 LIG-0.35  N 
ATOM      8 H    VAL D   5      23.158 -10.185  26.983  1.00 26.12 LIG 0.16  HD
ATOM      9 O    ASP D   4      25.293 -11.865  28.328  1.00 25.35 LIG-0.27  OA
BRANCH 7 10
ATOM     10  CA  VAL D   5      22.833 -10.752  28.849  1.00 27.68 LIG 0.18  C 
BRANCH 10 11
ATOM     11  C   VAL D   5      21.356 -11.045  28.562  1.00 28.81 LIG 0.24  C 
ATOM     12  N   GLU D   6      20.711 -11.772  29.467  1.00 27.30 LIG-0.34  N 
ATOM     13 H    GLU D   6      21.069 -12.056  30.196  1.00 27.30 LIG 0.16  HD
ATOM     14 O    VAL D   5      20.826 -10.648  27.521  1.00 31.14 LIG-0.27  OA
BRANCH 12 15
ATOM     15  CA  GLU D   6      19.310 -12.158  29.297  1.00 31.22 LIG 0.19  C 
BRANCH 15 16
ATOM     16  CB  GLU D   6      19.135 -13.663  29.489  1.00 26.83 LIG 0.05  C 
BRANCH 16 17
ATOM     17  CG  GLU D   6      20.422 -14.448  29.565  1.00 32.75 LIG 0.12  C 
BRANCH 17 18
ATOM     18  CD  GLU D   6      21.160 -14.454  28.237  1.00 37.41 LIG 0.17  C 
ATOM     19 OE1  GLU D   6      22.383 -14.698  28.232  1.00 40.07 LIG-0.65  OA
ATOM     20 OE2  GLU D   6      20.519 -14.214  27.194  1.00 32.49 LIG-0.65  OA
ENDBRANCH 17 18
ENDBRANCH 16 17
ENDBRANCH 15 16
BRANCH 15 21
ATOM     21  C   GLU D   6      18.445 -11.452  30.321  1.00 32.10 LIG 0.20  C 
ATOM     22 OXT  GLU D   6      18.043 -12.057  31.316  1.00 29.11 LIG-0.65  OA
ATOM     23 O    GLU D   6      18.166 -10.259  30.191  1.00 24.06 LIG-0.65  OA
ENDBRANCH 15 21
ENDBRANCH 12 15
ENDBRANCH 10 11
BRANCH 10 24
ATOM     24  CB  VAL D   5      23.015  -9.475  29.683  1.00 24.95 LIG 0.01  C 
ATOM     25  CG1 VAL D   5      21.676  -8.753  29.818  1.00 19.21 LIG 0.01  C 
ATOM     26  CG2 VAL D   5      23.579  -9.816  31.063  1.00 24.99 LIG 0.01  C 
ENDBRANCH 10 24
ENDBRANCH 7 10
ENDBRANCH 5 6
BRANCH 5 27
ATOM     27  CB  ASP D   4      24.939 -12.323  25.159  1.00 34.66 LIG 0.15  C 
BRANCH 27 28
ATOM     28  CG  ASP D   4      25.938 -12.619  24.033  1.00 38.29 LIG 0.17  C 
ATOM     29 OD2  ASP D   4      26.040 -11.788  23.104  1.00 38.65 LIG-0.65  OA
ATOM     30 OD1  ASP D   4      26.625 -13.662  24.067  1.00 35.40 LIG-0.65  OA
ENDBRANCH 27 28
ENDBRANCH 5 27
ENDBRANCH 3 5
BRANCH 1 31
ATOM     31  CA  ASP D   3      29.069 -10.376  25.949  1.00 30.73 LIG 0.19  C 
BRANCH 31 32
ATOM     32  N   ASP D   3      29.962 -10.740  24.848  1.00 30.00 LIG-0.35  N 
ATOM     33  C   GLU D   2      30.804 -11.765  24.973  1.00 37.22 LIG 0.24  C 
ATOM     34 O    GLU D   2      30.905 -12.423  26.008  1.00 35.26 LIG-0.27  OA
ATOM     35 H    ASP D   3      29.891 -10.249  24.146  1.00 30.00 LIG 0.16  HD
BRANCH 33 36
ATOM     36  CA  GLU D   2      31.649 -12.121  23.754  1.00 39.45 LIG 0.18  C 
BRANCH 36 37
ATOM     37  N   GLU D   2      31.079 -11.610  22.515  1.00 40.85 LIG-0.35  N 
ATOM     38  C   ALA D   1      30.079 -12.239  21.906  1.00 38.03 LIG 0.25  C 
ATOM     39 O    ALA D   1      29.559 -13.261  22.355  1.00 37.20 LIG-0.27  OA
ATOM     40 H    GLU D   2      31.442 -10.886  22.225  1.00 40.85 LIG 0.16  HD
BRANCH 38 41
ATOM     41  CA  ALA D   1      29.595 -11.622  20.597  1.00 41.40 LIG 0.27  C 
ATOM     42  CB  ALA D   1      29.942 -12.525  19.414  1.00 39.88 LIG 0.05  C 
BRANCH 41 43
ATOM     43  N   ALA D   1      30.162 -10.288  20.413  1.00 41.88 LIG-0.07  N 
ATOM     44 H2   ALA D   1      30.469  -9.986  21.191  1.00 41.88 LIG 0.28  HD
ATOM     45 H3   ALA D   1      30.830 -10.327  19.825  1.00 41.88 LIG 0.28  HD
ATOM     46 H1   ALA D   1      29.532  -9.737  20.108  1.00 41.88 LIG 0.28  HD
ENDBRANCH 41 43
ENDBRANCH 38 41
ENDBRANCH 36 37
BRANCH 36 47
ATOM     47  CB  GLU D   2      33.090 -11.643  23.922  1.00 37.20 LIG 0.04  C 
BRANCH 47 48
ATOM     48  CG  GLU D   2      34.094 -12.742  23.662  1.00 39.39 LIG 0.12  C 
BRANCH 48 49
ATOM     49  CD  GLU D   2      34.380 -13.545  24.913  1.00 42.36 LIG 0.17  C 
ATOM     50 OE2  GLU D   2      33.570 -14.429  25.280  1.00 45.25 LIG-0.65  OA
ATOM     51 OE1  GLU D   2      35.428 -13.287  25.531  1.00 37.51 LIG-0.65  OA
ENDBRANCH 48 49
ENDBRANCH 47 48
ENDBRANCH 36 47
ENDBRANCH 33 36
ENDBRANCH 31 32
BRANCH 31 52
ATOM     52  CB  ASP D   3      29.492  -9.061  26.629  1.00 35.86 LIG 0.15  C 
BRANCH 52 53
ATOM     53  CG  ASP D   3      30.255  -8.127  25.705  1.00 46.33 LIG 0.17  C 
ATOM     54 OD1  ASP D   3      29.703  -7.086  25.288  1.00 38.55 LIG-0.65  OA
ATOM     55 OD2  ASP D   3      31.420  -8.449  25.387  1.00 55.15 LIG-0.65  OA
ENDBRANCH 52 53
ENDBRANCH 31 52
ENDBRANCH 1 31
TORSDOF 23
ENDMDL
MODEL 21
USER: ADFR SOLUTION from run 11
USER: SCORE 18.088607 LL:  -3.552 LR: -15.075 RR:   0.000 FEB:  -8.214
USER: RMSD 10.479104
USER: SEED 888928
USER: STATUS no improvement in best in 3 clusters for 5 generations
USER: GENES 25
USER: genes 0 Translation |==|  0.48235 0.63133 0.51964
USER: genes 1 Rotation |==|  0.47564 0.00087 0.48599 0.50919
USER: genes 2 Torsion [C]-N--CA-[C] |==|  0.62480
USER: genes 3 Torsion [N]-CA--C-[N] |==|  0.46814
USER: genes 4 Torsion [C]-N--CA-[C] |==|  0.57234
USER: genes 5 Torsion [N]-CA--C-[N] |==|  0.41815
USER: genes 6 Torsion [C]-N--CA-[C] |==|  0.72755
USER: genes 7 Torsion [N]-CA--CB-[CG] |==|  0.10471
USER: genes 8 Torsion [CA]-CB--CG-[CD] |==|  0.39402
USER: genes 9 Torsion [CB]-CG--CD-[OE1] |==|  0.63182
USER: genes 10 Torsion [N]-CA--C-[OXT] |==|  0.73232
USER: genes 11 Torsion [N]-CA--CB-[CG1] |==|  0.29275
USER: genes 12 Torsion [N]-CA--CB-[CG] |==|  0.91176
USER: genes 13 Torsion [CA]-CB--CG-[OD1] |==|  0.34873
USER: genes 14 Torsion [N]-C--CA-[N] |==|  0.36211
USER: genes 15 Torsion [C]-CA--N-[C] |==|  0.64000
USER: genes 16 Torsion [N]-C--CA-[N] |==|  0.90370
USER: genes 17 Torsion [C]-CA--N-[C] |==|  0.81438
USER: genes 18 Torsion [N]-C--CA-[N] |==|  0.95458
USER: genes 19 Torsion [C]-CA--N-[H3] |==|  0.14627
USER: genes 20 Torsion [C]-CA--CB-[CG] |==|  0.44881
USER: genes 21 Torsion [CA]-CB--CG-[CD] |==|  0.15635
USER: genes 22 Torsion [CB]-CG--CD-[OE2] |==|  0.15203
USER: genes 23 Torsion [C]-CA--CB-[CG] |==|  0.43292
USER: genes 24 Torsion [CA]-CB--CG-[OD1] |==|  0.29760
ROOT
ATOM      1  C   ASP D   3      27.919 -10.549  25.728  1.00 34.79 LIG 0.24  C 
ATOM      2 O    ASP D   3      27.627  -9.594  25.003  1.00 37.58 LIG-0.27  OA
ATOM      3  N   ASP D   4      27.009 -11.343  26.287  1.00 33.46 LIG-0.34  N 
ATOM      4 H    ASP D   4      27.205 -12.051  26.733  1.00 33.46 LIG 0.16  HD
ENDROOT
BRANCH 3 5
ATOM      5  CA  ASP D   4      25.589 -11.079  26.189  1.00 24.32 LIG 0.19  C 
BRANCH 5 6
ATOM      6  C   ASP D   4      25.018 -11.293  27.590  1.00 29.08 LIG 0.24  C 
ATOM      7  N   VAL D   5      23.777 -10.880  27.784  1.00 26.12 LIG-0.35  N 
ATOM      8 H    VAL D   5      23.303 -10.474  27.192  1.00 26.12 LIG 0.16  HD
ATOM      9 O    ASP D   4      25.692 -11.825  28.479  1.00 25.35 LIG-0.27  OA
BRANCH 7 10
ATOM     10  CA  VAL D   5      23.106 -11.092  29.060  1.00 27.68 LIG 0.18  C 
BRANCH 10 11
ATOM     11  C   VAL D   5      21.592 -11.136  28.830  1.00 28.81 LIG 0.24  C 
ATOM     12  N   GLU D   6      20.886 -11.881  29.673  1.00 27.30 LIG-0.34  N 
ATOM     13 H    GLU D   6      21.231 -12.307  30.336  1.00 27.30 LIG 0.16  HD
ATOM     14 O    VAL D   5      21.081 -10.534  27.882  1.00 31.14 LIG-0.27  OA
BRANCH 12 15
ATOM     15  CA  GLU D   6      19.439 -12.043  29.542  1.00 31.22 LIG 0.19  C 
BRANCH 15 16
ATOM     16  CB  GLU D   6      19.018 -13.467  29.897  1.00 26.83 LIG 0.05  C 
BRANCH 16 17
ATOM     17  CG  GLU D   6      19.778 -14.088  31.043  1.00 32.75 LIG 0.12  C 
BRANCH 17 18
ATOM     18  CD  GLU D   6      18.878 -14.936  31.926  1.00 37.41 LIG 0.17  C 
ATOM     19 OE1  GLU D   6      18.940 -14.788  33.163  1.00 40.07 LIG-0.65  OA
ATOM     20 OE2  GLU D   6      18.108 -15.754  31.386  1.00 32.49 LIG-0.65  OA
ENDBRANCH 17 18
ENDBRANCH 16 17
ENDBRANCH 15 16
BRANCH 15 21
ATOM     21  C   GLU D   6      18.719 -11.096  30.481  1.00 32.10 LIG 0.20  C 
ATOM     22 OXT  GLU D   6      18.335 -11.488  31.583  1.00 29.11 LIG-0.65  OA
ATOM     23 O    GLU D   6      18.546  -9.916  30.170  1.00 24.06 LIG-0.65  OA
ENDBRANCH 15 21
ENDBRANCH 12 15
ENDBRANCH 10 11
BRANCH 10 24
ATOM     24  CB  VAL D   5      23.504 -10.006  30.071  1.00 24.95 LIG 0.01  C 
ATOM     25  CG1 VAL D   5      22.351  -9.019  30.245  1.00 19.21 LIG 0.01  C 
ATOM     26  CG2 VAL D   5      23.872 -10.639  31.414  1.00 24.99 LIG 0.01  C 
ENDBRANCH 10 24
ENDBRANCH 7 10
ENDBRANCH 5 6
BRANCH 5 27
ATOM     27  CB  ASP D   4      24.938 -12.045  25.191  1.00 34.66 LIG 0.15  C 
BRANCH 27 28
ATOM     28  CG  ASP D   4      25.876 -12.454  24.047  1.00 38.29 LIG 0.17  C 
ATOM     29 OD2  ASP D   4      26.415 -11.547  23.376  1.00 38.65 LIG-0.65  OA
ATOM     30 OD1  ASP D   4      26.086 -13.663  23.815  1.00 35.40 LIG-0.65  OA
ENDBRANCH 27 28
ENDBRANCH 5 27
ENDBRANCH 3 5
BRANCH 1 31
ATOM     31  CA  ASP D   3      29.379 -10.892  26.052  1.00 30.73 LIG 0.19  C 
BRANCH 31 32
ATOM     32  N   ASP D   3      30.199 -10.962  24.842  1.00 30.00 LIG-0.35  N 
ATOM     33  C   GLU D   2      30.979 -12.019  24.615  1.00 37.22 LIG 0.24  C 
ATOM     34 O    GLU D   2      31.080 -12.955  25.407  1.00 35.26 LIG-0.27  OA
ATOM     35 H    ASP D   3      30.131 -10.283  24.317  1.00 30.00 LIG 0.16  HD
BRANCH 33 36
ATOM     36  CA  GLU D   2      31.747 -12.044  23.297  1.00 39.45 LIG 0.18  C 
BRANCH 36 37
ATOM     37  N   GLU D   2      30.997 -11.437  22.206  1.00 40.85 LIG-0.35  N 
ATOM     38  C   ALA D   1      29.884 -11.993  21.741  1.00 38.03 LIG 0.25  C 
ATOM     39 O    ALA D   1      29.405 -13.026  22.211  1.00 37.20 LIG-0.27  OA
ATOM     40 H    GLU D   2      31.336 -10.707  21.902  1.00 40.85 LIG 0.16  HD
BRANCH 38 41
ATOM     41  CA  ALA D   1      29.212 -11.277  20.572  1.00 41.40 LIG 0.27  C 
ATOM     42  CB  ALA D   1      29.416 -12.057  19.273  1.00 39.88 LIG 0.05  C 
BRANCH 41 43
ATOM     43  N   ALA D   1      29.718  -9.913  20.441  1.00 41.88 LIG-0.07  N 
ATOM     44 H2   ALA D   1      29.458  -9.431  21.142  1.00 41.88 LIG 0.28  HD
ATOM     45 H3   ALA D   1      30.607  -9.927  20.405  1.00 41.88 LIG 0.28  HD
ATOM     46 H1   ALA D   1      29.397  -9.548  19.695  1.00 41.88 LIG 0.28  HD
ENDBRANCH 41 43
ENDBRANCH 38 41
ENDBRANCH 36 37
BRANCH 36 47
ATOM     47  CB  GLU D   2      33.116 -11.385  23.444  1.00 37.20 LIG 0.04  C 
BRANCH 47 48
ATOM     48  CG  GLU D   2      34.063 -11.772  22.331  1.00 39.39 LIG 0.12  C 
BRANCH 48 49
ATOM     49  CD  GLU D   2      33.486 -11.451  20.969  1.00 42.36 LIG 0.17  C 
ATOM     50 OE2  GLU D   2      33.102 -10.283  20.719  1.00 45.25 LIG-0.65  OA
ATOM     51 OE1  GLU D   2      33.421 -12.377  20.143  1.00 37.51 LIG-0.65  OA
ENDBRANCH 48 49
ENDBRANCH 47 48
ENDBRANCH 36 47
ENDBRANCH 33 36
ENDBRANCH 31 32
BRANCH 31 52
ATOM     52  CB  ASP D   3      29.987  -9.956  27.112  1.00 35.86 LIG 0.15  C 
BRANCH 52 53
ATOM     53  CG  ASP D   3      31.153 -10.578  27.863  1.00 46.33 LIG 0.17  C 
ATOM     54 OD1  ASP D   3      32.316 -10.184  27.629  1.00 38.55 LIG-0.65  OA
ATOM     55 OD2  ASP D   3      30.897 -11.479  28.690  1.00 55.15 LIG-0.65  OA
ENDBRANCH 52 53
ENDBRANCH 31 52
ENDBRANCH 1 31
TORSDOF 23
ENDMDL
MODEL 22
USER: ADFR SOLUTION from run 198
USER: SCORE 18.815835 LL:  -4.645 LR: -15.049 RR:   0.000 FEB:  -8.188
USER: RMSD 8.196684
USER: SEED 197
USER: STATUS no improvement in best in 3 clusters for 5 generations
USER: GENES 25
USER: genes 0 Translation |==|  0.61298 0.55838 0.55635
USER: genes 1 Rotation |==|  0.40009 0.46174 0.01329 0.54085
USER: genes 2 Torsion [C]-N--CA-[C] |==|  0.77882
USER: genes 3 Torsion [N]-CA--C-[N] |==|  0.51212
USER: genes 4 Torsion [C]-N--CA-[C] |==|  0.72383
USER: genes 5 Torsion [N]-CA--C-[N] |==|  0.32594
USER: genes 6 Torsion [C]-N--CA-[C] |==|  0.18587
USER: genes 7 Torsion [N]-CA--CB-[CG] |==|  0.71308
USER: genes 8 Torsion [CA]-CB--CG-[CD] |==|  0.97959
USER: genes 9 Torsion [CB]-CG--CD-[OE1] |==|  0.71919
USER: genes 10 Torsion [N]-CA--C-[OXT] |==|  0.16867
USER: genes 11 Torsion [N]-CA--CB-[CG1] |==|  0.07938
USER: genes 12 Torsion [N]-CA--CB-[CG] |==|  0.23957
USER: genes 13 Torsion [CA]-CB--CG-[OD1] |==|  0.81745
USER: genes 14 Torsion [N]-C--CA-[N] |==|  0.85223
USER: genes 15 Torsion [C]-CA--N-[C] |==|  0.78454
USER: genes 16 Torsion [N]-C--CA-[N] |==|  0.92323
USER: genes 17 Torsion [C]-CA--N-[C] |==|  0.77614
USER: genes 18 Torsion [N]-C--CA-[N] |==|  0.81701
USER: genes 19 Torsion [C]-CA--N-[H3] |==|  0.97960
USER: genes 20 Torsion [C]-CA--CB-[CG] |==|  0.95292
USER: genes 21 Torsion [CA]-CB--CG-[CD] |==|  0.80014
USER: genes 22 Torsion [CB]-CG--CD-[OE2] |==|  0.89375
USER: genes 23 Torsion [C]-CA--CB-[CG] |==|  0.08665
USER: genes 24 Torsion [CA]-CB--CG-[OD1] |==|  0.75094
ROOT
ATOM      1  C   ASP D   3      30.663 -11.862  26.499  1.00 34.79 LIG 0.24  C 
ATOM      2 O    ASP D   3      30.806 -12.623  27.461  1.00 37.58 LIG-0.27  OA
ATOM      3  N   ASP D   4      29.515 -11.249  26.223  1.00 33.46 LIG-0.34  N 
ATOM      4 H    ASP D   4      29.426 -10.663  25.600  1.00 33.46 LIG 0.16  HD
ENDROOT
BRANCH 3 5
ATOM      5  CA  ASP D   4      28.297 -11.518  26.958  1.00 24.32 LIG 0.19  C 
BRANCH 5 6
ATOM      6  C   ASP D   4      27.733 -12.819  26.390  1.00 29.08 LIG 0.24  C 
ATOM      7  N   VAL D   5      26.562 -13.205  26.865  1.00 26.12 LIG-0.35  N 
ATOM      8 H    VAL D   5      26.133 -12.795  27.487  1.00 26.12 LIG 0.16  HD
ATOM      9 O    ASP D   4      28.352 -13.461  25.532  1.00 25.35 LIG-0.27  OA
BRANCH 7 10
ATOM     10  CA  VAL D   5      25.897 -14.394  26.348  1.00 27.68 LIG 0.18  C 
BRANCH 10 11
ATOM     11  C   VAL D   5      24.826 -13.970  25.337  1.00 28.81 LIG 0.24  C 
ATOM     12  N   GLU D   6      24.992 -14.390  24.088  1.00 27.30 LIG-0.34  N 
ATOM     13 H    GLU D   6      25.643 -14.893  23.836  1.00 27.30 LIG 0.16  HD
ATOM     14 O    VAL D   5      23.887 -13.247  25.680  1.00 31.14 LIG-0.27  OA
BRANCH 12 15
ATOM     15  CA  GLU D   6      24.066 -14.024  23.016  1.00 31.22 LIG 0.19  C 
BRANCH 15 16
ATOM     16  CB  GLU D   6      22.627 -14.348  23.411  1.00 26.83 LIG 0.05  C 
BRANCH 16 17
ATOM     17  CG  GLU D   6      22.056 -15.590  22.771  1.00 32.75 LIG 0.12  C 
BRANCH 17 18
ATOM     18  CD  GLU D   6      22.989 -16.165  21.719  1.00 37.41 LIG 0.17  C 
ATOM     19 OE1  GLU D   6      22.746 -15.942  20.516  1.00 40.07 LIG-0.65  OA
ATOM     20 OE2  GLU D   6      23.967 -16.842  22.092  1.00 32.49 LIG-0.65  OA
ENDBRANCH 17 18
ENDBRANCH 16 17
ENDBRANCH 15 16
BRANCH 15 21
ATOM     21  C   GLU D   6      24.151 -12.538  22.736  1.00 32.10 LIG 0.20  C 
ATOM     22 OXT  GLU D   6      25.212 -12.037  22.363  1.00 29.11 LIG-0.65  OA
ATOM     23 O    GLU D   6      23.153 -11.823  22.839  1.00 24.06 LIG-0.65  OA
ENDBRANCH 15 21
ENDBRANCH 12 15
ENDBRANCH 10 11
BRANCH 10 24
ATOM     24  CB  VAL D   5      25.309 -15.231  27.494  1.00 24.95 LIG 0.01  C 
ATOM     25  CG1 VAL D   5      24.955 -14.319  28.667  1.00 19.21 LIG 0.01  C 
ATOM     26  CG2 VAL D   5      24.071 -15.991  27.016  1.00 24.99 LIG 0.01  C 
ENDBRANCH 10 24
ENDBRANCH 7 10
ENDBRANCH 5 6
BRANCH 5 27
ATOM     27  CB  ASP D   4      27.298 -10.371  26.766  1.00 34.66 LIG 0.15  C 
BRANCH 27 28
ATOM     28  CG  ASP D   4      26.429 -10.530  25.511  1.00 38.29 LIG 0.17  C 
ATOM     29 OD2  ASP D   4      25.201 -10.701  25.664  1.00 38.65 LIG-0.65  OA
ATOM     30 OD1  ASP D   4      26.955 -10.481  24.379  1.00 35.40 LIG-0.65  OA
ENDBRANCH 27 28
ENDBRANCH 5 27
ENDBRANCH 3 5
BRANCH 1 31
ATOM     31  CA  ASP D   3      31.816 -11.569  25.531  1.00 30.73 LIG 0.19  C 
BRANCH 31 32
ATOM     32  N   ASP D   3      31.433 -11.820  24.142  1.00 30.00 LIG-0.35  N 
ATOM     33  C   GLU D   2      31.380 -13.066  23.671  1.00 37.22 LIG 0.24  C 
ATOM     34 O    GLU D   2      31.680 -14.048  24.349  1.00 35.26 LIG-0.27  OA
ATOM     35 H    ASP D   3      31.253 -11.116  23.681  1.00 30.00 LIG 0.16  HD
BRANCH 33 36
ATOM     36  CA  GLU D   2      30.904 -13.244  22.232  1.00 39.45 LIG 0.18  C 
BRANCH 36 37
ATOM     37  N   GLU D   2      30.004 -12.180  21.809  1.00 40.85 LIG-0.35  N 
ATOM     38  C   ALA D   1      28.717 -12.193  22.140  1.00 38.03 LIG 0.25  C 
ATOM     39 O    ALA D   1      28.214 -13.076  22.836  1.00 37.20 LIG-0.27  OA
ATOM     40 H    GLU D   2      30.375 -11.562  21.339  1.00 40.85 LIG 0.16  HD
BRANCH 38 41
ATOM     41  CA  ALA D   1      27.874 -11.039  21.605  1.00 41.40 LIG 0.27  C 
ATOM     42  CB  ALA D   1      27.951 -10.976  20.079  1.00 39.88 LIG 0.05  C 
BRANCH 41 43
ATOM     43  N   ALA D   1      28.295  -9.772  22.196  1.00 41.88 LIG-0.07  N 
ATOM     44 H2   ALA D   1      27.589  -9.358  22.546  1.00 41.88 LIG 0.28  HD
ATOM     45 H3   ALA D   1      28.894  -9.927  22.837  1.00 41.88 LIG 0.28  HD
ATOM     46 H1   ALA D   1      28.660  -9.258  21.569  1.00 41.88 LIG 0.28  HD
ENDBRANCH 41 43
ENDBRANCH 38 41
ENDBRANCH 36 37
BRANCH 36 47
ATOM     47  CB  GLU D   2      32.084 -13.367  21.271  1.00 37.20 LIG 0.04  C 
BRANCH 47 48
ATOM     48  CG  GLU D   2      33.378 -12.883  21.883  1.00 39.39 LIG 0.12  C 
BRANCH 48 49
ATOM     49  CD  GLU D   2      33.402 -11.376  22.022  1.00 42.36 LIG 0.17  C 
ATOM     50 OE2  GLU D   2      32.900 -10.663  21.121  1.00 45.25 LIG-0.65  OA
ATOM     51 OE1  GLU D   2      33.929 -10.904  23.045  1.00 37.51 LIG-0.65  OA
ENDBRANCH 48 49
ENDBRANCH 47 48
ENDBRANCH 36 47
ENDBRANCH 33 36
ENDBRANCH 31 32
BRANCH 31 52
ATOM     52  CB  ASP D   3      32.408 -10.161  25.724  1.00 35.86 LIG 0.15  C 
BRANCH 52 53
ATOM     53  CG  ASP D   3      32.329  -9.668  27.160  1.00 46.33 LIG 0.17  C 
ATOM     54 OD1  ASP D   3      31.320  -9.036  27.539  1.00 38.55 LIG-0.65  OA
ATOM     55 OD2  ASP D   3      33.298  -9.911  27.911  1.00 55.15 LIG-0.65  OA
ENDBRANCH 52 53
ENDBRANCH 31 52
ENDBRANCH 1 31
TORSDOF 23
ENDMDL
MODEL 23
USER: ADFR SOLUTION from run 192
USER: SCORE 18.411565 LL:  -4.428 LR: -15.047 RR:   0.000 FEB:  -8.186
USER: RMSD 9.235986
USER: SEED 191
USER: STATUS searching
USER: GENES 25
USER: genes 0 Translation |==|  0.48294 0.63046 0.57549
USER: genes 1 Rotation |==|  0.48658 0.90049 0.79901 0.50493
USER: genes 2 Torsion [C]-N--CA-[C] |==|  0.80559
USER: genes 3 Torsion [N]-CA--C-[N] |==|  0.34863
USER: genes 4 Torsion [C]-N--CA-[C] |==|  0.61918
USER: genes 5 Torsion [N]-CA--C-[N] |==|  0.07345
USER: genes 6 Torsion [C]-N--CA-[C] |==|  0.80148
USER: genes 7 Torsion [N]-CA--CB-[CG] |==|  0.89737
USER: genes 8 Torsion [CA]-CB--CG-[CD] |==|  0.26171
USER: genes 9 Torsion [CB]-CG--CD-[OE1] |==|  0.33361
USER: genes 10 Torsion [N]-CA--C-[OXT] |==|  0.43827
USER: genes 11 Torsion [N]-CA--CB-[CG1] |==|  0.87098
USER: genes 12 Torsion [N]-CA--CB-[CG] |==|  0.92937
USER: genes 13 Torsion [CA]-CB--CG-[OD1] |==|  0.32145
USER: genes 14 Torsion [N]-C--CA-[N] |==|  0.11172
USER: genes 15 Torsion [C]-CA--N-[C] |==|  0.63349
USER: genes 16 Torsion [N]-C--CA-[N] |==|  0.02040
USER: genes 17 Torsion [C]-CA--N-[C] |==|  0.65074
USER: genes 18 Torsion [N]-C--CA-[N] |==|  0.15047
USER: genes 19 Torsion [C]-CA--N-[H3] |==|  0.89775
USER: genes 20 Torsion [C]-CA--CB-[CG] |==|  0.82378
USER: genes 21 Torsion [CA]-CB--CG-[CD] |==|  0.71544
USER: genes 22 Torsion [CB]-CG--CD-[OE2] |==|  0.69635
USER: genes 23 Torsion [C]-CA--CB-[CG] |==|  0.36351
USER: genes 24 Torsion [CA]-CB--CG-[OD1] |==|  0.88363
ROOT
ATOM      1  C   ASP D   3      27.932 -10.565  26.901  1.00 34.79 LIG 0.24  C 
ATOM      2 O    ASP D   3      27.517  -9.570  27.503  1.00 37.58 LIG-0.27  OA
ATOM      3  N   ASP D   4      27.138 -11.380  26.211  1.00 33.46 LIG-0.34  N 
ATOM      4 H    ASP D   4      27.427 -12.032  25.731  1.00 33.46 LIG 0.16  HD
ENDROOT
BRANCH 3 5
ATOM      5  CA  ASP D   4      25.697 -11.237  26.209  1.00 24.32 LIG 0.19  C 
BRANCH 5 6
ATOM      6  C   ASP D   4      25.226 -11.639  27.605  1.00 29.08 LIG 0.24  C 
ATOM      7  N   VAL D   5      24.484 -10.755  28.249  1.00 26.12 LIG-0.35  N 
ATOM      8 H    VAL D   5      24.292  -9.973  27.947  1.00 26.12 LIG 0.16  HD
ATOM      9 O    ASP D   4      25.531 -12.736  28.090  1.00 25.35 LIG-0.27  OA
BRANCH 7 10
ATOM     10  CA  VAL D   5      23.923 -11.057  29.559  1.00 27.68 LIG 0.18  C 
BRANCH 10 11
ATOM     11  C   VAL D   5      22.472 -10.566  29.610  1.00 28.81 LIG 0.24  C 
ATOM     12  N   GLU D   6      21.831 -10.494  28.448  1.00 27.30 LIG-0.34  N 
ATOM     13 H    GLU D   6      22.178 -10.727  27.697  1.00 27.30 LIG 0.16  HD
ATOM     14 O    VAL D   5      21.959 -10.225  30.679  1.00 31.14 LIG-0.27  OA
BRANCH 12 15
ATOM     15  CA  GLU D   6      20.457 -10.004  28.350  1.00 31.22 LIG 0.19  C 
BRANCH 15 16
ATOM     16  CB  GLU D   6      20.066  -9.776  26.891  1.00 26.83 LIG 0.05  C 
BRANCH 16 17
ATOM     17  CG  GLU D   6      21.169  -9.237  26.014  1.00 32.75 LIG 0.12  C 
BRANCH 17 18
ATOM     18  CD  GLU D   6      21.913 -10.348  25.293  1.00 37.41 LIG 0.17  C 
ATOM     19 OE1  GLU D   6      21.925 -10.351  24.046  1.00 40.07 LIG-0.65  OA
ATOM     20 OE2  GLU D   6      22.487 -11.223  25.972  1.00 32.49 LIG-0.65  OA
ENDBRANCH 17 18
ENDBRANCH 16 17
ENDBRANCH 15 16
BRANCH 15 21
ATOM     21  C   GLU D   6      19.496 -11.017  28.938  1.00 32.10 LIG 0.20  C 
ATOM     22 OXT  GLU D   6      18.383 -10.663  29.328  1.00 29.11 LIG-0.65  OA
ATOM     23 O    GLU D   6      19.801 -12.209  28.997  1.00 24.06 LIG-0.65  OA
ENDBRANCH 15 21
ENDBRANCH 12 15
ENDBRANCH 10 11
BRANCH 10 24
ATOM     24  CB  VAL D   5      24.780 -10.438  30.674  1.00 24.95 LIG 0.01  C 
ATOM     25  CG1 VAL D   5      26.256 -10.730  30.411  1.00 19.21 LIG 0.01  C 
ATOM     26  CG2 VAL D   5      24.540  -8.930  30.754  1.00 24.99 LIG 0.01  C 
ENDBRANCH 10 24
ENDBRANCH 7 10
ENDBRANCH 5 6
BRANCH 5 27
ATOM     27  CB  ASP D   4      25.076 -12.153  25.148  1.00 34.66 LIG 0.15  C 
BRANCH 27 28
ATOM     28  CG  ASP D   4      26.037 -12.485  23.998  1.00 38.29 LIG 0.17  C 
ATOM     29 OD2  ASP D   4      26.427 -11.547  23.270  1.00 38.65 LIG-0.65  OA
ATOM     30 OD1  ASP D   4      26.411 -13.663  23.818  1.00 35.40 LIG-0.65  OA
ENDBRANCH 27 28
ENDBRANCH 5 27
ENDBRANCH 3 5
BRANCH 1 31
ATOM     31  CA  ASP D   3      29.418 -10.946  26.911  1.00 30.73 LIG 0.19  C 
BRANCH 31 32
ATOM     32  N   ASP D   3      29.863 -11.422  25.601  1.00 30.00 LIG-0.35  N 
ATOM     33  C   GLU D   2      30.569 -12.547  25.497  1.00 37.22 LIG 0.24  C 
ATOM     34 O    GLU D   2      30.912 -13.213  26.473  1.00 35.26 LIG-0.27  OA
ATOM     35 H    ASP D   3      29.633 -10.926  24.937  1.00 30.00 LIG 0.16  HD
BRANCH 33 36
ATOM     36  CA  GLU D   2      30.933 -13.009  24.089  1.00 39.45 LIG 0.18  C 
BRANCH 36 37
ATOM     37  N   GLU D   2      30.579 -12.028  23.073  1.00 40.85 LIG-0.35  N 
ATOM     38  C   ALA D   1      29.817 -12.356  22.034  1.00 38.03 LIG 0.25  C 
ATOM     39 O    ALA D   1      29.348 -13.483  21.878  1.00 37.20 LIG-0.27  OA
ATOM     40 H    GLU D   2      30.900 -11.242  23.207  1.00 40.85 LIG 0.16  HD
BRANCH 38 41
ATOM     41  CA  ALA D   1      29.548 -11.245  21.022  1.00 41.40 LIG 0.27  C 
ATOM     42  CB  ALA D   1      28.718 -11.772  19.851  1.00 39.88 LIG 0.05  C 
BRANCH 41 43
ATOM     43  N   ALA D   1      30.801 -10.663  20.547  1.00 41.88 LIG-0.07  N 
ATOM     44 H2   ALA D   1      30.650  -9.840  20.244  1.00 41.88 LIG 0.28  HD
ATOM     45 H3   ALA D   1      31.386 -10.629  21.217  1.00 41.88 LIG 0.28  HD
ATOM     46 H1   ALA D   1      31.132 -11.165  19.891  1.00 41.88 LIG 0.28  HD
ENDBRANCH 41 43
ENDBRANCH 38 41
ENDBRANCH 36 37
BRANCH 36 47
ATOM     47  CB  GLU D   2      32.412 -13.376  23.993  1.00 37.20 LIG 0.04  C 
BRANCH 47 48
ATOM     48  CG  GLU D   2      33.316 -12.190  24.242  1.00 39.39 LIG 0.12  C 
BRANCH 48 49
ATOM     49  CD  GLU D   2      33.878 -11.634  22.952  1.00 42.36 LIG 0.17  C 
ATOM     50 OE2  GLU D   2      35.095 -11.787  22.691  1.00 45.25 LIG-0.65  OA
ATOM     51 OE1  GLU D   2      33.092 -11.039  22.195  1.00 37.51 LIG-0.65  OA
ENDBRANCH 48 49
ENDBRANCH 47 48
ENDBRANCH 36 47
ENDBRANCH 33 36
ENDBRANCH 31 32
BRANCH 31 52
ATOM     52  CB  ASP D   3      30.315  -9.818  27.454  1.00 35.86 LIG 0.15  C 
BRANCH 52 53
ATOM     53  CG  ASP D   3      31.296 -10.291  28.514  1.00 46.33 LIG 0.17  C 
ATOM     54 OD1  ASP D   3      30.914 -11.094  29.393  1.00 38.55 LIG-0.65  OA
ATOM     55 OD2  ASP D   3      32.461  -9.841  28.470  1.00 55.15 LIG-0.65  OA
ENDBRANCH 52 53
ENDBRANCH 31 52
ENDBRANCH 1 31
TORSDOF 23
ENDMDL
MODEL 24
USER: ADFR SOLUTION from run 66
USER: SCORE 18.117411 LL:  -4.094 LR: -14.985 RR:   0.000 FEB:  -8.124
USER: RMSD 7.783555
USER: SEED 65
USER: STATUS 1 or 2 clusters left
USER: GENES 25
USER: genes 0 Translation |==|  0.28656 0.41110 0.46828
USER: genes 1 Rotation |==|  0.99195 0.46437 0.58013 0.51730
USER: genes 2 Torsion [C]-N--CA-[C] |==|  0.70290
USER: genes 3 Torsion [N]-CA--C-[N] |==|  0.99811
USER: genes 4 Torsion [C]-N--CA-[C] |==|  0.17401
USER: genes 5 Torsion [N]-CA--C-[N] |==|  0.05997
USER: genes 6 Torsion [C]-N--CA-[C] |==|  0.56147
USER: genes 7 Torsion [N]-CA--CB-[CG] |==|  0.15310
USER: genes 8 Torsion [CA]-CB--CG-[CD] |==|  0.47566
USER: genes 9 Torsion [CB]-CG--CD-[OE1] |==|  0.41311
USER: genes 10 Torsion [N]-CA--C-[OXT] |==|  0.90884
USER: genes 11 Torsion [N]-CA--CB-[CG1] |==|  0.54713
USER: genes 12 Torsion [N]-CA--CB-[CG] |==|  0.83305
USER: genes 13 Torsion [CA]-CB--CG-[OD1] |==|  0.89138
USER: genes 14 Torsion [N]-C--CA-[N] |==|  0.95113
USER: genes 15 Torsion [C]-CA--N-[C] |==|  0.77256
USER: genes 16 Torsion [N]-C--CA-[N] |==|  0.07778
USER: genes 17 Torsion [C]-CA--N-[C] |==|  0.77930
USER: genes 18 Torsion [N]-C--CA-[N] |==|  0.36433
USER: genes 19 Torsion [C]-CA--N-[H3] |==|  0.22573
USER: genes 20 Torsion [C]-CA--CB-[CG] |==|  0.46339
USER: genes 21 Torsion [CA]-CB--CG-[CD] |==|  0.30266
USER: genes 22 Torsion [CB]-CG--CD-[OE2] |==|  0.83759
USER: genes 23 Torsion [C]-CA--CB-[CG] |==|  0.81089
USER: genes 24 Torsion [CA]-CB--CG-[OD1] |==|  0.81672
ROOT
ATOM      1  C   ASP D   3      23.808 -14.513  24.650  1.00 34.79 LIG 0.24  C 
ATOM      2 O    ASP D   3      24.252 -15.501  24.057  1.00 37.58 LIG-0.27  OA
ATOM      3  N   ASP D   4      24.557 -13.734  25.425  1.00 33.46 LIG-0.34  N 
ATOM      4 H    ASP D   4      24.274 -13.006  25.783  1.00 33.46 LIG 0.16  HD
ENDROOT
BRANCH 3 5
ATOM      5  CA  ASP D   4      25.935 -14.049  25.738  1.00 24.32 LIG 0.19  C 
BRANCH 5 6
ATOM      6  C   ASP D   4      25.949 -14.506  27.195  1.00 29.08 LIG 0.24  C 
ATOM      7  N   VAL D   5      24.784 -14.502  27.820  1.00 26.12 LIG-0.35  N 
ATOM      8 H    VAL D   5      24.048 -14.226  27.470  1.00 26.12 LIG 0.16  HD
ATOM      9 O    ASP D   4      27.000 -14.857  27.744  1.00 25.35 LIG-0.27  OA
BRANCH 7 10
ATOM     10  CA  VAL D   5      24.665 -14.980  29.191  1.00 27.68 LIG 0.18  C 
BRANCH 10 11
ATOM     11  C   VAL D   5      25.514 -14.092  30.108  1.00 28.81 LIG 0.24  C 
ATOM     12  N   GLU D   6      25.806 -12.879  29.652  1.00 27.30 LIG-0.34  N 
ATOM     13 H    GLU D   6      25.527 -12.573  28.899  1.00 27.30 LIG 0.16  HD
ATOM     14 O    VAL D   5      25.925 -14.516  31.191  1.00 31.14 LIG-0.27  OA
BRANCH 12 15
ATOM     15  CA  GLU D   6      26.641 -11.946  30.408  1.00 31.22 LIG 0.19  C 
BRANCH 15 16
ATOM     16  CB  GLU D   6      28.122 -12.240  30.183  1.00 26.83 LIG 0.05  C 
BRANCH 16 17
ATOM     17  CG  GLU D   6      28.556 -12.250  28.738  1.00 32.75 LIG 0.12  C 
BRANCH 17 18
ATOM     18  CD  GLU D   6      30.067 -12.335  28.601  1.00 37.41 LIG 0.17  C 
ATOM     19 OE1  GLU D   6      30.546 -12.921  27.610  1.00 40.07 LIG-0.65  OA
ATOM     20 OE2  GLU D   6      30.778 -11.817  29.484  1.00 32.49 LIG-0.65  OA
ENDBRANCH 17 18
ENDBRANCH 16 17
ENDBRANCH 15 16
BRANCH 15 21
ATOM     21  C   GLU D   6      26.373 -10.523  29.960  1.00 32.10 LIG 0.20  C 
ATOM     22 OXT  GLU D   6      26.076 -10.287  28.789  1.00 29.11 LIG-0.65  OA
ATOM     23 O    GLU D   6      26.412  -9.594  30.768  1.00 24.06 LIG-0.65  OA
ENDBRANCH 15 21
ENDBRANCH 12 15
ENDBRANCH 10 11
BRANCH 10 24
ATOM     24  CB  VAL D   5      25.068 -16.459  29.288  1.00 24.95 LIG 0.01  C 
ATOM     25  CG1 VAL D   5      24.550 -17.049  30.598  1.00 19.21 LIG 0.01  C 
ATOM     26  CG2 VAL D   5      24.515 -17.240  28.094  1.00 24.99 LIG 0.01  C 
ENDBRANCH 10 24
ENDBRANCH 7 10
ENDBRANCH 5 6
BRANCH 5 27
ATOM     27  CB  ASP D   4      26.817 -12.808  25.556  1.00 34.66 LIG 0.15  C 
BRANCH 27 28
ATOM     28  CG  ASP D   4      26.794 -12.255  24.124  1.00 38.29 LIG 0.17  C 
ATOM     29 OD2  ASP D   4      26.794 -11.014  23.974  1.00 38.65 LIG-0.65  OA
ATOM     30 OD1  ASP D   4      26.782 -13.040  23.153  1.00 35.40 LIG-0.65  OA
ENDBRANCH 27 28
ENDBRANCH 5 27
ENDBRANCH 3 5
BRANCH 1 31
ATOM     31  CA  ASP D   3      22.332 -14.110  24.541  1.00 30.73 LIG 0.19  C 
BRANCH 31 32
ATOM     32  N   ASP D   3      21.938 -13.202  25.619  1.00 30.00 LIG-0.35  N 
ATOM     33  C   GLU D   2      21.617 -13.681  26.821  1.00 37.22 LIG 0.24  C 
ATOM     34 O    GLU D   2      21.595 -14.885  27.075  1.00 35.26 LIG-0.27  OA
ATOM     35 H    ASP D   3      21.936 -12.368  25.409  1.00 30.00 LIG 0.16  HD
BRANCH 33 36
ATOM     36  CA  GLU D   2      21.286 -12.662  27.907  1.00 39.45 LIG 0.18  C 
BRANCH 36 37
ATOM     37  N   GLU D   2      20.748 -11.423  27.362  1.00 40.85 LIG-0.35  N 
ATOM     38  C   ALA D   1      21.545 -10.498  26.837  1.00 38.03 LIG 0.25  C 
ATOM     39 O    ALA D   1      22.766 -10.635  26.753  1.00 37.20 LIG-0.27  OA
ATOM     40 H    GLU D   2      19.893 -11.351  27.413  1.00 40.85 LIG 0.16  HD
BRANCH 38 41
ATOM     41  CA  ALA D   1      20.861  -9.230  26.333  1.00 41.40 LIG 0.27  C 
ATOM     42  CB  ALA D   1      20.810  -9.215  24.805  1.00 39.88 LIG 0.05  C 
BRANCH 41 43
ATOM     43  N   ALA D   1      21.539  -8.040  26.839  1.00 41.88 LIG-0.07  N 
ATOM     44 H2   ALA D   1      21.794  -8.178  27.680  1.00 41.88 LIG 0.28  HD
ATOM     45 H3   ALA D   1      22.255  -7.870  26.337  1.00 41.88 LIG 0.28  HD
ATOM     46 H1   ALA D   1      20.984  -7.345  26.807  1.00 41.88 LIG 0.28  HD
ENDBRANCH 41 43
ENDBRANCH 38 41
ENDBRANCH 36 37
BRANCH 36 47
ATOM     47  CB  GLU D   2      20.336 -13.252  28.947  1.00 37.20 LIG 0.04  C 
BRANCH 47 48
ATOM     48  CG  GLU D   2      20.240 -12.396  30.189  1.00 39.39 LIG 0.12  C 
BRANCH 48 49
ATOM     49  CD  GLU D   2      18.899 -11.703  30.289  1.00 42.36 LIG 0.17  C 
ATOM     50 OE2  GLU D   2      18.528 -10.938  29.367  1.00 45.25 LIG-0.65  OA
ATOM     51 OE1  GLU D   2      18.212 -11.929  31.300  1.00 37.51 LIG-0.65  OA
ENDBRANCH 48 49
ENDBRANCH 47 48
ENDBRANCH 36 47
ENDBRANCH 33 36
ENDBRANCH 31 32
BRANCH 31 52
ATOM     52  CB  ASP D   3      21.970 -13.552  23.152  1.00 35.86 LIG 0.15  C 
BRANCH 52 53
ATOM     53  CG  ASP D   3      22.619 -12.210  22.857  1.00 46.33 LIG 0.17  C 
ATOM     54 OD1  ASP D   3      22.290 -11.207  23.527  1.00 38.55 LIG-0.65  OA
ATOM     55 OD2  ASP D   3      23.460 -12.162  21.934  1.00 55.15 LIG-0.65  OA
ENDBRANCH 52 53
ENDBRANCH 31 52
ENDBRANCH 1 31
TORSDOF 23
ENDMDL
MODEL 25
USER: ADFR SOLUTION from run 164
USER: SCORE 18.906702 LL:  -4.403 LR: -14.986 RR:   0.000 FEB:  -8.126
USER: RMSD 8.994653
USER: SEED 163
USER: STATUS no improvement in best in 2 clusters for 5 generations
USER: GENES 25
USER: genes 0 Translation |==|  0.53407 0.63469 0.50501
USER: genes 1 Rotation |==|  0.39084 0.85869 0.82115 0.57927
USER: genes 2 Torsion [C]-N--CA-[C] |==|  0.76464
USER: genes 3 Torsion [N]-CA--C-[N] |==|  0.20912
USER: genes 4 Torsion [C]-N--CA-[C] |==|  0.81112
USER: genes 5 Torsion [N]-CA--C-[N] |==|  0.35000
USER: genes 6 Torsion [C]-N--CA-[C] |==|  0.63132
USER: genes 7 Torsion [N]-CA--CB-[CG] |==|  0.70428
USER: genes 8 Torsion [CA]-CB--CG-[CD] |==|  0.15340
USER: genes 9 Torsion [CB]-CG--CD-[OE1] |==|  0.66879
USER: genes 10 Torsion [N]-CA--C-[OXT] |==|  0.63478
USER: genes 11 Torsion [N]-CA--CB-[CG1] |==|  0.76208
USER: genes 12 Torsion [N]-CA--CB-[CG] |==|  0.76244
USER: genes 13 Torsion [CA]-CB--CG-[OD1] |==|  0.44601
USER: genes 14 Torsion [N]-C--CA-[N] |==|  0.07189
USER: genes 15 Torsion [C]-CA--N-[C] |==|  0.70202
USER: genes 16 Torsion [N]-C--CA-[N] |==|  0.87951
USER: genes 17 Torsion [C]-CA--N-[C] |==|  0.84541
USER: genes 18 Torsion [N]-C--CA-[N] |==|  0.82707
USER: genes 19 Torsion [C]-CA--N-[H3] |==|  0.78062
USER: genes 20 Torsion [C]-CA--CB-[CG] |==|  0.34649
USER: genes 21 Torsion [CA]-CB--CG-[CD] |==|  0.66762
USER: genes 22 Torsion [CB]-CG--CD-[OE2] |==|  0.30669
USER: genes 23 Torsion [C]-CA--CB-[CG] |==|  0.43975
USER: genes 24 Torsion [CA]-CB--CG-[OD1] |==|  0.77819
ROOT
ATOM      1  C   ASP D   3      29.005 -10.489  25.421  1.00 34.79 LIG 0.24  C 
ATOM      2 O    ASP D   3      28.206  -9.676  25.894  1.00 37.58 LIG-0.27  OA
ATOM      3  N   ASP D   4      28.747 -11.216  24.338  1.00 33.46 LIG-0.34  N 
ATOM      4 H    ASP D   4      29.324 -11.730  23.961  1.00 33.46 LIG 0.16  HD
ENDROOT
BRANCH 3 5
ATOM      5  CA  ASP D   4      27.453 -11.204  23.689  1.00 24.32 LIG 0.19  C 
BRANCH 5 6
ATOM      6  C   ASP D   4      26.591 -12.221  24.436  1.00 29.08 LIG 0.24  C 
ATOM      7  N   VAL D   5      26.141 -11.846  25.622  1.00 26.12 LIG-0.35  N 
ATOM      8 H    VAL D   5      26.335 -11.098  25.999  1.00 26.12 LIG 0.16  HD
ATOM      9 O    ASP D   4      26.339 -13.327  23.945  1.00 25.35 LIG-0.27  OA
BRANCH 7 10
ATOM     10  CA  VAL D   5      25.256 -12.707  26.395  1.00 27.68 LIG 0.18  C 
BRANCH 10 11
ATOM     11  C   VAL D   5      23.903 -12.805  25.682  1.00 28.81 LIG 0.24  C 
ATOM     12  N   GLU D   6      23.459 -14.029  25.421  1.00 27.30 LIG-0.34  N 
ATOM     13 H    GLU D   6      23.875 -14.746  25.649  1.00 27.30 LIG 0.16  HD
ATOM     14 O    VAL D   5      23.293 -11.786  25.345  1.00 31.14 LIG-0.27  OA
BRANCH 12 15
ATOM     15  CA  GLU D   6      22.202 -14.264  24.710  1.00 31.22 LIG 0.19  C 
BRANCH 15 16
ATOM     16  CB  GLU D   6      22.467 -14.772  23.295  1.00 26.83 LIG 0.05  C 
BRANCH 16 17
ATOM     17  CG  GLU D   6      22.214 -13.765  22.200  1.00 32.75 LIG 0.12  C 
BRANCH 17 18
ATOM     18  CD  GLU D   6      23.001 -12.483  22.416  1.00 37.41 LIG 0.17  C 
ATOM     19 OE1  GLU D   6      22.376 -11.413  22.554  1.00 40.07 LIG-0.65  OA
ATOM     20 OE2  GLU D   6      24.246 -12.543  22.447  1.00 32.49 LIG-0.65  OA
ENDBRANCH 17 18
ENDBRANCH 16 17
ENDBRANCH 15 16
BRANCH 15 21
ATOM     21  C   GLU D   6      21.378 -15.308  25.435  1.00 32.10 LIG 0.20  C 
ATOM     22 OXT  GLU D   6      20.887 -16.251  24.814  1.00 29.11 LIG-0.65  OA
ATOM     23 O    GLU D   6      21.223 -15.248  26.656  1.00 24.06 LIG-0.65  OA
ENDBRANCH 15 21
ENDBRANCH 12 15
ENDBRANCH 10 11
BRANCH 10 24
ATOM     24  CB  VAL D   5      25.113 -12.188  27.834  1.00 24.95 LIG 0.01  C 
ATOM     25  CG1 VAL D   5      26.255 -12.729  28.691  1.00 19.21 LIG 0.01  C 
ATOM     26  CG2 VAL D   5      25.111 -10.658  27.850  1.00 24.99 LIG 0.01  C 
ENDBRANCH 10 24
ENDBRANCH 7 10
ENDBRANCH 5 6
BRANCH 5 27
ATOM     27  CB  ASP D   4      27.595 -11.603  22.215  1.00 34.66 LIG 0.15  C 
BRANCH 27 28
ATOM     28  CG  ASP D   4      27.946 -10.421  21.301  1.00 38.29 LIG 0.17  C 
ATOM     29 OD2  ASP D   4      27.726  -9.265  21.724  1.00 38.65 LIG-0.65  OA
ATOM     30 OD1  ASP D   4      28.443 -10.630  20.174  1.00 35.40 LIG-0.65  OA
ENDBRANCH 27 28
ENDBRANCH 5 27
ENDBRANCH 3 5
BRANCH 1 31
ATOM     31  CA  ASP D   3      30.377 -10.730  26.064  1.00 30.73 LIG 0.19  C 
BRANCH 31 32
ATOM     32  N   ASP D   3      31.352 -11.222  25.091  1.00 30.00 LIG-0.35  N 
ATOM     33  C   GLU D   2      31.749 -12.494  25.117  1.00 37.22 LIG 0.24  C 
ATOM     34 O    GLU D   2      31.358 -13.297  25.964  1.00 35.26 LIG-0.27  OA
ATOM     35 H    ASP D   3      31.630 -10.635  24.526  1.00 30.00 LIG 0.16  HD
BRANCH 33 36
ATOM     36  CA  GLU D   2      32.714 -12.942  24.024  1.00 39.45 LIG 0.18  C 
BRANCH 36 37
ATOM     37  N   GLU D   2      32.337 -12.439  22.710  1.00 40.85 LIG-0.35  N 
ATOM     38  C   ALA D   1      31.132 -12.672  22.202  1.00 38.03 LIG 0.25  C 
ATOM     39 O    ALA D   1      30.260 -13.296  22.807  1.00 37.20 LIG-0.27  OA
ATOM     40 H    GLU D   2      32.952 -11.990  22.309  1.00 40.85 LIG 0.16  HD
BRANCH 38 41
ATOM     41  CA  ALA D   1      30.874 -12.120  20.802  1.00 41.40 LIG 0.27  C 
ATOM     42  CB  ALA D   1      31.844 -12.735  19.793  1.00 39.88 LIG 0.05  C 
BRANCH 41 43
ATOM     43  N   ALA D   1      30.974 -10.663  20.794  1.00 41.88 LIG-0.07  N 
ATOM     44 H2   ALA D   1      31.097 -10.378  19.960  1.00 41.88 LIG 0.28  HD
ATOM     45 H3   ALA D   1      30.223 -10.312  21.119  1.00 41.88 LIG 0.28  HD
ATOM     46 H1   ALA D   1      31.662 -10.409  21.298  1.00 41.88 LIG 0.28  HD
ENDBRANCH 41 43
ENDBRANCH 38 41
ENDBRANCH 36 37
BRANCH 36 47
ATOM     47  CB  GLU D   2      34.151 -12.550  24.360  1.00 37.20 LIG 0.04  C 
BRANCH 47 48
ATOM     48  CG  GLU D   2      35.088 -13.735  24.347  1.00 39.39 LIG 0.12  C 
BRANCH 48 49
ATOM     49  CD  GLU D   2      35.741 -13.948  25.696  1.00 42.36 LIG 0.17  C 
ATOM     50 OE2  GLU D   2      35.426 -14.947  26.385  1.00 45.25 LIG-0.65  OA
ATOM     51 OE1  GLU D   2      36.577 -13.106  26.066  1.00 37.51 LIG-0.65  OA
ENDBRANCH 48 49
ENDBRANCH 47 48
ENDBRANCH 36 47
ENDBRANCH 33 36
ENDBRANCH 31 32
BRANCH 31 52
ATOM     52  CB  ASP D   3      30.895  -9.502  26.835  1.00 35.86 LIG 0.15  C 
BRANCH 52 53
ATOM     53  CG  ASP D   3      31.941  -9.847  27.882  1.00 46.33 LIG 0.17  C 
ATOM     54 OD1  ASP D   3      31.577 -10.303  28.988  1.00 38.55 LIG-0.65  OA
ATOM     55 OD2  ASP D   3      33.140  -9.648  27.593  1.00 55.15 LIG-0.65  OA
ENDBRANCH 52 53
ENDBRANCH 31 52
ENDBRANCH 1 31
TORSDOF 23
ENDMDL
MODEL 26
USER: ADFR SOLUTION from run 138
USER: SCORE 18.140941 LL:  -3.686 LR: -14.922 RR:   0.000 FEB:  -8.061
USER: RMSD 5.955523
USER: SEED 137
USER: STATUS searching
USER: GENES 25
USER: genes 0 Translation |==|  0.45474 0.57230 0.50584
USER: genes 1 Rotation |==|  0.16369 0.47437 0.60894 0.85266
USER: genes 2 Torsion [C]-N--CA-[C] |==|  0.74466
USER: genes 3 Torsion [N]-CA--C-[N] |==|  0.38439
USER: genes 4 Torsion [C]-N--CA-[C] |==|  0.71579
USER: genes 5 Torsion [N]-CA--C-[N] |==|  0.43269
USER: genes 6 Torsion [C]-N--CA-[C] |==|  0.65448
USER: genes 7 Torsion [N]-CA--CB-[CG] |==|  0.61836
USER: genes 8 Torsion [CA]-CB--CG-[CD] |==|  0.29641
USER: genes 9 Torsion [CB]-CG--CD-[OE1] |==|  0.07616
USER: genes 10 Torsion [N]-CA--C-[OXT] |==|  0.00806
USER: genes 11 Torsion [N]-CA--CB-[CG1] |==|  0.56486
USER: genes 12 Torsion [N]-CA--CB-[CG] |==|  0.09107
USER: genes 13 Torsion [CA]-CB--CG-[OD1] |==|  0.61966
USER: genes 14 Torsion [N]-C--CA-[N] |==|  0.14407
USER: genes 15 Torsion [C]-CA--N-[C] |==|  0.14702
USER: genes 16 Torsion [N]-C--CA-[N] |==|  0.44444
USER: genes 17 Torsion [C]-CA--N-[C] |==|  0.57417
USER: genes 18 Torsion [N]-C--CA-[N] |==|  0.11267
USER: genes 19 Torsion [C]-CA--N-[H3] |==|  0.31880
USER: genes 20 Torsion [C]-CA--CB-[CG] |==|  0.66234
USER: genes 21 Torsion [CA]-CB--CG-[CD] |==|  0.19222
USER: genes 22 Torsion [CB]-CG--CD-[OE2] |==|  0.67067
USER: genes 23 Torsion [C]-CA--CB-[CG] |==|  0.21953
USER: genes 24 Torsion [CA]-CB--CG-[OD1] |==|  0.52682
ROOT
ATOM      1  C   ASP D   3      27.340 -11.612  25.439  1.00 34.79 LIG 0.24  C 
ATOM      2 O    ASP D   3      27.160 -10.747  24.576  1.00 37.58 LIG-0.27  OA
ATOM      3  N   ASP D   4      28.516 -11.821  26.023  1.00 33.46 LIG-0.34  N 
ATOM      4 H    ASP D   4      28.634 -12.371  26.674  1.00 33.46 LIG 0.16  HD
ENDROOT
BRANCH 3 5
ATOM      5  CA  ASP D   4      29.720 -11.133  25.607  1.00 24.32 LIG 0.19  C 
BRANCH 5 6
ATOM      6  C   ASP D   4      30.384 -12.027  24.562  1.00 29.08 LIG 0.24  C 
ATOM      7  N   VAL D   5      30.889 -11.415  23.504  1.00 26.12 LIG-0.35  N 
ATOM      8 H    VAL D   5      30.829 -10.569  23.361  1.00 26.12 LIG 0.16  HD
ATOM      9 O    ASP D   4      30.438 -13.253  24.713  1.00 25.35 LIG-0.27  OA
BRANCH 7 10
ATOM     10  CA  VAL D   5      31.604 -12.159  22.476  1.00 27.68 LIG 0.18  C 
BRANCH 10 11
ATOM     11  C   VAL D   5      33.111 -11.950  22.662  1.00 28.81 LIG 0.24  C 
ATOM     12  N   GLU D   6      33.905 -12.896  22.172  1.00 27.30 LIG-0.34  N 
ATOM     13 H    GLU D   6      33.618 -13.587  21.748  1.00 27.30 LIG 0.16  HD
ATOM     14 O    VAL D   5      33.540 -10.965  23.270  1.00 31.14 LIG-0.27  OA
BRANCH 12 15
ATOM     15  CA  GLU D   6      35.359 -12.840  22.316  1.00 31.22 LIG 0.19  C 
BRANCH 15 16
ATOM     16  CB  GLU D   6      35.865 -14.007  23.162  1.00 26.83 LIG 0.05  C 
BRANCH 16 17
ATOM     17  CG  GLU D   6      36.925 -13.647  24.174  1.00 32.75 LIG 0.12  C 
BRANCH 17 18
ATOM     18  CD  GLU D   6      36.378 -13.650  25.591  1.00 37.41 LIG 0.17  C 
ATOM     19 OE1  GLU D   6      35.409 -14.389  25.858  1.00 40.07 LIG-0.65  OA
ATOM     20 OE2  GLU D   6      36.915 -12.913  26.442  1.00 32.49 LIG-0.65  OA
ENDBRANCH 17 18
ENDBRANCH 16 17
ENDBRANCH 15 16
BRANCH 15 21
ATOM     21  C   GLU D   6      36.023 -12.925  20.957  1.00 32.10 LIG 0.20  C 
ATOM     22 OXT  GLU D   6      35.340 -12.971  19.935  1.00 29.11 LIG-0.65  OA
ATOM     23 O    GLU D   6      37.251 -12.910  20.858  1.00 24.06 LIG-0.65  OA
ENDBRANCH 15 21
ENDBRANCH 12 15
ENDBRANCH 10 11
BRANCH 10 24
ATOM     24  CB  VAL D   5      31.133 -11.741  21.075  1.00 24.95 LIG 0.01  C 
ATOM     25  CG1 VAL D   5      31.421 -12.863  20.080  1.00 19.21 LIG 0.01  C 
ATOM     26  CG2 VAL D   5      29.639 -11.413  21.092  1.00 24.99 LIG 0.01  C 
ENDBRANCH 10 24
ENDBRANCH 7 10
ENDBRANCH 5 6
BRANCH 5 27
ATOM     27  CB  ASP D   4      30.653 -10.925  26.806  1.00 34.66 LIG 0.15  C 
BRANCH 27 28
ATOM     28  CG  ASP D   4      30.570 -12.057  27.839  1.00 38.29 LIG 0.17  C 
ATOM     29 OD2  ASP D   4      30.540 -13.235  27.420  1.00 38.65 LIG-0.65  OA
ATOM     30 OD1  ASP D   4      30.540 -11.788  29.059  1.00 35.40 LIG-0.65  OA
ENDBRANCH 27 28
ENDBRANCH 5 27
ENDBRANCH 3 5
BRANCH 1 31
ATOM     31  CA  ASP D   3      26.201 -12.529  25.903  1.00 30.73 LIG 0.19  C 
BRANCH 31 32
ATOM     32  N   ASP D   3      26.072 -12.534  27.360  1.00 30.00 LIG-0.35  N 
ATOM     33  C   GLU D   2      25.954 -11.389  28.032  1.00 37.22 LIG 0.24  C 
ATOM     34 O    GLU D   2      25.985 -10.288  27.483  1.00 35.26 LIG-0.27  OA
ATOM     35 H    ASP D   3      26.079 -13.315  27.723  1.00 30.00 LIG 0.16  HD
BRANCH 33 36
ATOM     36  CA  GLU D   2      25.752 -11.488  29.541  1.00 39.45 LIG 0.18  C 
BRANCH 36 37
ATOM     37  N   GLU D   2      26.095 -10.250  30.229  1.00 40.85 LIG-0.35  N 
ATOM     38  C   ALA D   1      26.495 -10.255  31.496  1.00 38.03 LIG 0.25  C 
ATOM     39 O    ALA D   1      26.624 -11.288  32.154  1.00 37.20 LIG-0.27  OA
ATOM     40 H    GLU D   2      26.017  -9.541  29.750  1.00 40.85 LIG 0.16  HD
BRANCH 38 41
ATOM     41  CA  ALA D   1      26.790  -8.890  32.113  1.00 41.40 LIG 0.27  C 
ATOM     42  CB  ALA D   1      26.843  -8.986  33.637  1.00 39.88 LIG 0.05  C 
BRANCH 41 43
ATOM     43  N   ALA D   1      25.796  -7.906  31.691  1.00 41.88 LIG-0.07  N 
ATOM     44 H2   ALA D   1      25.249  -8.273  31.093  1.00 41.88 LIG 0.28  HD
ATOM     45 H3   ALA D   1      25.325  -7.637  32.397  1.00 41.88 LIG 0.28  HD
ATOM     46 H1   ALA D   1      26.207  -7.206  31.326  1.00 41.88 LIG 0.28  HD
ENDBRANCH 41 43
ENDBRANCH 38 41
ENDBRANCH 36 37
BRANCH 36 47
ATOM     47  CB  GLU D   2      24.327 -11.917  29.881  1.00 37.20 LIG 0.04  C 
BRANCH 47 48
ATOM     48  CG  GLU D   2      23.615 -10.907  30.752  1.00 39.39 LIG 0.12  C 
BRANCH 48 49
ATOM     49  CD  GLU D   2      23.317  -9.629  29.998  1.00 42.36 LIG 0.17  C 
ATOM     50 OE2  GLU D   2      23.816  -8.548  30.391  1.00 45.25 LIG-0.65  OA
ATOM     51 OE1  GLU D   2      22.576  -9.712  29.003  1.00 37.51 LIG-0.65  OA
ENDBRANCH 48 49
ENDBRANCH 47 48
ENDBRANCH 36 47
ENDBRANCH 33 36
ENDBRANCH 31 32
BRANCH 31 52
ATOM     52  CB  ASP D   3      24.866 -12.217  25.203  1.00 35.86 LIG 0.15  C 
BRANCH 52 53
ATOM     53  CG  ASP D   3      24.776 -12.793  23.799  1.00 46.33 LIG 0.17  C 
ATOM     54 OD1  ASP D   3      23.825 -12.462  23.058  1.00 38.55 LIG-0.65  OA
ATOM     55 OD2  ASP D   3      25.665 -13.595  23.442  1.00 55.15 LIG-0.65  OA
ENDBRANCH 52 53
ENDBRANCH 31 52
ENDBRANCH 1 31
TORSDOF 23
ENDMDL
MODEL 27
USER: ADFR SOLUTION from run 143
USER: SCORE 18.277063 LL:  -4.781 LR: -14.892 RR:   0.000 FEB:  -8.031
USER: RMSD 6.775845
USER: SEED 142
USER: STATUS no improvement in best in 10 clusters for 5 generations
USER: GENES 25
USER: genes 0 Translation |==|  0.23651 0.52975 0.45313
USER: genes 1 Rotation |==|  0.35978 0.10253 0.53451 0.76677
USER: genes 2 Torsion [C]-N--CA-[C] |==|  0.68075
USER: genes 3 Torsion [N]-CA--C-[N] |==|  0.89116
USER: genes 4 Torsion [C]-N--CA-[C] |==|  0.84854
USER: genes 5 Torsion [N]-CA--C-[N] |==|  0.83433
USER: genes 6 Torsion [C]-N--CA-[C] |==|  0.58729
USER: genes 7 Torsion [N]-CA--CB-[CG] |==|  0.81083
USER: genes 8 Torsion [CA]-CB--CG-[CD] |==|  0.38126
USER: genes 9 Torsion [CB]-CG--CD-[OE1] |==|  0.50597
USER: genes 10 Torsion [N]-CA--C-[OXT] |==|  0.93357
USER: genes 11 Torsion [N]-CA--CB-[CG1] |==|  0.49161
USER: genes 12 Torsion [N]-CA--CB-[CG] |==|  0.10819
USER: genes 13 Torsion [CA]-CB--CG-[OD1] |==|  0.20633
USER: genes 14 Torsion [N]-C--CA-[N] |==|  0.04156
USER: genes 15 Torsion [C]-CA--N-[C] |==|  0.72590
USER: genes 16 Torsion [N]-C--CA-[N] |==|  0.20757
USER: genes 17 Torsion [C]-CA--N-[C] |==|  0.80417
USER: genes 18 Torsion [N]-C--CA-[N] |==|  0.57166
USER: genes 19 Torsion [C]-CA--N-[H3] |==|  0.74893
USER: genes 20 Torsion [C]-CA--CB-[CG] |==|  0.82827
USER: genes 21 Torsion [CA]-CB--CG-[CD] |==|  0.79193
USER: genes 22 Torsion [CB]-CG--CD-[OE2] |==|  0.84973
USER: genes 23 Torsion [C]-CA--CB-[CG] |==|  0.63759
USER: genes 24 Torsion [CA]-CB--CG-[OD1] |==|  0.34711
ROOT
ATOM      1  C   ASP D   3      22.757 -12.377  24.332  1.00 34.79 LIG 0.24  C 
ATOM      2 O    ASP D   3      22.288 -11.310  23.926  1.00 37.58 LIG-0.27  OA
ATOM      3  N   ASP D   4      22.716 -12.750  25.608  1.00 33.46 LIG-0.34  N 
ATOM      4 H    ASP D   4      22.974 -13.521  25.888  1.00 33.46 LIG 0.16  HD
ENDROOT
BRANCH 3 5
ATOM      5  CA  ASP D   4      22.224 -11.877  26.654  1.00 24.32 LIG 0.19  C 
BRANCH 5 6
ATOM      6  C   ASP D   4      23.418 -11.583  27.560  1.00 29.08 LIG 0.24  C 
ATOM      7  N   VAL D   5      24.238 -12.594  27.793  1.00 26.12 LIG-0.35  N 
ATOM      8 H    VAL D   5      24.116 -13.393  27.501  1.00 26.12 LIG 0.16  HD
ATOM      9 O    ASP D   4      23.592 -10.457  28.040  1.00 25.35 LIG-0.27  OA
BRANCH 7 10
ATOM     10  CA  VAL D   5      25.445 -12.413  28.588  1.00 27.68 LIG 0.18  C 
BRANCH 10 11
ATOM     11  C   VAL D   5      26.276 -11.273  27.988  1.00 28.81 LIG 0.24  C 
ATOM     12  N   GLU D   6      26.676 -11.432  26.731  1.00 27.30 LIG-0.34  N 
ATOM     13 H    GLU D   6      26.475 -12.114  26.248  1.00 27.30 LIG 0.16  HD
ATOM     14 O    VAL D   5      26.577 -10.287  28.666  1.00 31.14 LIG-0.27  OA
BRANCH 12 15
ATOM     15  CA  GLU D   6      27.508 -10.440  26.050  1.00 31.22 LIG 0.19  C 
BRANCH 15 16
ATOM     16  CB  GLU D   6      28.990 -10.771  26.215  1.00 26.83 LIG 0.05  C 
BRANCH 16 17
ATOM     17  CG  GLU D   6      29.522 -10.624  27.619  1.00 32.75 LIG 0.12  C 
BRANCH 17 18
ATOM     18  CD  GLU D   6      30.436 -11.776  28.002  1.00 37.41 LIG 0.17  C 
ATOM     19 OE1  GLU D   6      30.915 -11.804  29.153  1.00 40.07 LIG-0.65  OA
ATOM     20 OE2  GLU D   6      30.678 -12.655  27.151  1.00 32.49 LIG-0.65  OA
ENDBRANCH 17 18
ENDBRANCH 16 17
ENDBRANCH 15 16
BRANCH 15 21
ATOM     21  C   GLU D   6      27.195 -10.422  24.568  1.00 32.10 LIG 0.20  C 
ATOM     22 OXT  GLU D   6      26.706 -11.414  24.026  1.00 29.11 LIG-0.65  OA
ATOM     23 O    GLU D   6      27.389  -9.407  23.898  1.00 24.06 LIG-0.65  OA
ENDBRANCH 15 21
ENDBRANCH 12 15
ENDBRANCH 10 11
BRANCH 10 24
ATOM     24  CB  VAL D   5      26.242 -13.723  28.674  1.00 24.95 LIG 0.01  C 
ATOM     25  CG1 VAL D   5      27.538 -13.488  29.448  1.00 19.21 LIG 0.01  C 
ATOM     26  CG2 VAL D   5      25.405 -14.811  29.351  1.00 24.99 LIG 0.01  C 
ENDBRANCH 10 24
ENDBRANCH 7 10
ENDBRANCH 5 6
BRANCH 5 27
ATOM     27  CB  ASP D   4      21.109 -12.572  27.444  1.00 34.66 LIG 0.15  C 
BRANCH 27 28
ATOM     28  CG  ASP D   4      21.376 -14.066  27.679  1.00 38.29 LIG 0.17  C 
ATOM     29 OD2  ASP D   4      20.725 -14.892  27.004  1.00 38.65 LIG-0.65  OA
ATOM     30 OD1  ASP D   4      22.228 -14.422  28.520  1.00 35.40 LIG-0.65  OA
ENDBRANCH 27 28
ENDBRANCH 5 27
ENDBRANCH 3 5
BRANCH 1 31
ATOM     31  CA  ASP D   3      23.440 -13.366  23.379  1.00 30.73 LIG 0.19  C 
BRANCH 31 32
ATOM     32  N   ASP D   3      23.606 -14.683  23.994  1.00 30.00 LIG-0.35  N 
ATOM     33  C   GLU D   2      24.773 -15.034  24.533  1.00 37.22 LIG 0.24  C 
ATOM     34 O    GLU D   2      25.764 -14.304  24.512  1.00 35.26 LIG-0.27  OA
ATOM     35 H    ASP D   3      22.907 -15.185  23.973  1.00 30.00 LIG 0.16  HD
BRANCH 33 36
ATOM     36  CA  GLU D   2      24.840 -16.397  25.216  1.00 39.45 LIG 0.18  C 
BRANCH 36 37
ATOM     37  N   GLU D   2      24.880 -17.495  24.260  1.00 40.85 LIG-0.35  N 
ATOM     38  C   ALA D   1      23.815 -17.814  23.533  1.00 38.03 LIG 0.25  C 
ATOM     39 O    ALA D   1      22.751 -17.198  23.597  1.00 37.20 LIG-0.27  OA
ATOM     40 H    GLU D   2      25.636 -17.904  24.215  1.00 40.85 LIG 0.16  HD
BRANCH 38 41
ATOM     41  CA  ALA D   1      23.975 -19.008  22.594  1.00 41.40 LIG 0.27  C 
ATOM     42  CB  ALA D   1      25.419 -19.121  22.106  1.00 39.88 LIG 0.05  C 
BRANCH 41 43
ATOM     43  N   ALA D   1      23.054 -18.906  21.465  1.00 41.88 LIG-0.07  N 
ATOM     44 H2   ALA D   1      23.414 -19.297  20.752  1.00 41.88 LIG 0.28  HD
ATOM     45 H3   ALA D   1      22.288 -19.311  21.669  1.00 41.88 LIG 0.28  HD
ATOM     46 H1   ALA D   1      22.897 -18.048  21.286  1.00 41.88 LIG 0.28  HD
ENDBRANCH 41 43
ENDBRANCH 38 41
ENDBRANCH 36 37
BRANCH 36 47
ATOM     47  CB  GLU D   2      26.024 -16.475  26.177  1.00 37.20 LIG 0.04  C 
BRANCH 47 48
ATOM     48  CG  GLU D   2      27.350 -16.307  25.472  1.00 39.39 LIG 0.12  C 
BRANCH 48 49
ATOM     49  CD  GLU D   2      27.734 -17.550  24.698  1.00 42.36 LIG 0.17  C 
ATOM     50 OE2  GLU D   2      27.770 -18.658  25.285  1.00 45.25 LIG-0.65  OA
ATOM     51 OE1  GLU D   2      28.001 -17.413  23.492  1.00 37.51 LIG-0.65  OA
ENDBRANCH 48 49
ENDBRANCH 47 48
ENDBRANCH 36 47
ENDBRANCH 33 36
ENDBRANCH 31 32
BRANCH 31 52
ATOM     52  CB  ASP D   3      22.741 -13.450  22.009  1.00 35.86 LIG 0.15  C 
BRANCH 52 53
ATOM     53  CG  ASP D   3      22.456 -14.875  21.567  1.00 46.33 LIG 0.17  C 
ATOM     54 OD1  ASP D   3      21.288 -15.204  21.265  1.00 38.55 LIG-0.65  OA
ATOM     55 OD2  ASP D   3      23.416 -15.675  21.531  1.00 55.15 LIG-0.65  OA
ENDBRANCH 52 53
ENDBRANCH 31 52
ENDBRANCH 1 31
TORSDOF 23
ENDMDL
MODEL 28
USER: ADFR SOLUTION from run 54
USER: SCORE 19.039664 LL:  -4.643 LR: -14.880 RR:   0.000 FEB:  -8.019
USER: RMSD 8.982748
USER: SEED 53
USER: STATUS no improvement in best in 3 clusters for 5 generations
USER: GENES 25
USER: genes 0 Translation |==|  0.60890 0.56914 0.28268
USER: genes 1 Rotation |==|  0.37585 0.04712 0.56430 0.65921
USER: genes 2 Torsion [C]-N--CA-[C] |==|  0.58889
USER: genes 3 Torsion [N]-CA--C-[N] |==|  0.35149
USER: genes 4 Torsion [C]-N--CA-[C] |==|  0.82419
USER: genes 5 Torsion [N]-CA--C-[N] |==|  0.39216
USER: genes 6 Torsion [C]-N--CA-[C] |==|  0.80486
USER: genes 7 Torsion [N]-CA--CB-[CG] |==|  0.84018
USER: genes 8 Torsion [CA]-CB--CG-[CD] |==|  0.21710
USER: genes 9 Torsion [CB]-CG--CD-[OE1] |==|  0.55869
USER: genes 10 Torsion [N]-CA--C-[OXT] |==|  0.22375
USER: genes 11 Torsion [N]-CA--CB-[CG1] |==|  0.71054
USER: genes 12 Torsion [N]-CA--CB-[CG] |==|  0.30101
USER: genes 13 Torsion [CA]-CB--CG-[OD1] |==|  0.23227
USER: genes 14 Torsion [N]-C--CA-[N] |==|  0.92116
USER: genes 15 Torsion [C]-CA--N-[C] |==|  0.80276
USER: genes 16 Torsion [N]-C--CA-[N] |==|  0.91356
USER: genes 17 Torsion [C]-CA--N-[C] |==|  0.77023
USER: genes 18 Torsion [N]-C--CA-[N] |==|  0.69692
USER: genes 19 Torsion [C]-CA--N-[H3] |==|  0.97118
USER: genes 20 Torsion [C]-CA--CB-[CG] |==|  0.58730
USER: genes 21 Torsion [CA]-CB--CG-[CD] |==|  0.80519
USER: genes 22 Torsion [CB]-CG--CD-[OE2] |==|  0.35261
USER: genes 23 Torsion [C]-CA--CB-[CG] |==|  0.79243
USER: genes 24 Torsion [CA]-CB--CG-[OD1] |==|  0.52084
ROOT
ATOM      1  C   ASP D   3      30.577 -11.668  20.752  1.00 34.79 LIG 0.24  C 
ATOM      2 O    ASP D   3      30.157 -10.796  19.986  1.00 37.58 LIG-0.27  OA
ATOM      3  N   ASP D   4      30.058 -11.889  21.958  1.00 33.46 LIG-0.34  N 
ATOM      4 H    ASP D   4      30.296 -12.539  22.467  1.00 33.46 LIG 0.16  HD
ENDROOT
BRANCH 3 5
ATOM      5  CA  ASP D   4      29.031 -11.039  22.524  1.00 24.32 LIG 0.19  C 
BRANCH 5 6
ATOM      6  C   ASP D   4      29.260 -11.043  24.035  1.00 29.08 LIG 0.24  C 
ATOM      7  N   VAL D   5      29.372  -9.859  24.612  1.00 26.12 LIG-0.35  N 
ATOM      8 H    VAL D   5      29.362  -9.111  24.188  1.00 26.12 LIG 0.16  HD
ATOM      9 O    ASP D   4      29.333 -12.104  24.666  1.00 25.35 LIG-0.27  OA
BRANCH 7 10
ATOM     10  CA  VAL D   5      29.525  -9.739  26.056  1.00 27.68 LIG 0.18  C 
BRANCH 10 11
ATOM     11  C   VAL D   5      28.269 -10.289  26.741  1.00 28.81 LIG 0.24  C 
ATOM     12  N   GLU D   6      28.460 -10.983  27.857  1.00 27.30 LIG-0.34  N 
ATOM     13 H    GLU D   6      29.232 -11.113  28.213  1.00 27.30 LIG 0.16  HD
ATOM     14 O    VAL D   5      27.153 -10.114  26.244  1.00 31.14 LIG-0.27  OA
BRANCH 12 15
ATOM     15  CA  GLU D   6      27.351 -11.596  28.589  1.00 31.22 LIG 0.19  C 
BRANCH 15 16
ATOM     16  CB  GLU D   6      27.872 -12.523  29.685  1.00 26.83 LIG 0.05  C 
BRANCH 16 17
ATOM     17  CG  GLU D   6      28.777 -13.631  29.205  1.00 32.75 LIG 0.12  C 
BRANCH 17 18
ATOM     18  CD  GLU D   6      30.185 -13.131  28.925  1.00 37.41 LIG 0.17  C 
ATOM     19 OE1  GLU D   6      30.917 -13.797  28.168  1.00 40.07 LIG-0.65  OA
ATOM     20 OE2  GLU D   6      30.562 -12.071  29.464  1.00 32.49 LIG-0.65  OA
ENDBRANCH 17 18
ENDBRANCH 16 17
ENDBRANCH 15 16
BRANCH 15 21
ATOM     21  C   GLU D   6      26.501 -10.527  29.245  1.00 32.10 LIG 0.20  C 
ATOM     22 OXT  GLU D   6      25.661  -9.913  28.587  1.00 29.11 LIG-0.65  OA
ATOM     23 O    GLU D   6      26.614 -10.288  30.448  1.00 24.06 LIG-0.65  OA
ENDBRANCH 15 21
ENDBRANCH 12 15
ENDBRANCH 10 11
BRANCH 10 24
ATOM     24  CB  VAL D   5      29.808  -8.283  26.454  1.00 24.95 LIG 0.01  C 
ATOM     25  CG1 VAL D   5      31.287  -8.123  26.801  1.00 19.21 LIG 0.01  C 
ATOM     26  CG2 VAL D   5      29.420  -7.336  25.317  1.00 24.99 LIG 0.01  C 
ENDBRANCH 10 24
ENDBRANCH 7 10
ENDBRANCH 5 6
BRANCH 5 27
ATOM     27  CB  ASP D   4      27.641 -11.594  22.191  1.00 34.66 LIG 0.15  C 
BRANCH 27 28
ATOM     28  CG  ASP D   4      26.926 -12.202  23.405  1.00 38.29 LIG 0.17  C 
ATOM     29 OD2  ASP D   4      27.006 -13.438  23.576  1.00 38.65 LIG-0.65  OA
ATOM     30 OD1  ASP D   4      26.295 -11.464  24.191  1.00 35.40 LIG-0.65  OA
ENDBRANCH 27 28
ENDBRANCH 5 27
ENDBRANCH 3 5
BRANCH 1 31
ATOM     31  CA  ASP D   3      31.754 -12.574  20.367  1.00 30.73 LIG 0.19  C 
BRANCH 31 32
ATOM     32  N   ASP D   3      32.500 -13.020  21.543  1.00 30.00 LIG-0.35  N 
ATOM     33  C   GLU D   2      33.257 -12.162  22.228  1.00 37.22 LIG 0.24  C 
ATOM     34 O    GLU D   2      33.397 -10.985  21.898  1.00 35.26 LIG-0.27  OA
ATOM     35 H    ASP D   3      32.407 -13.853  21.739  1.00 30.00 LIG 0.16  HD
BRANCH 33 36
ATOM     36  CA  GLU D   2      33.945 -12.693  23.482  1.00 39.45 LIG 0.18  C 
BRANCH 36 37
ATOM     37  N   GLU D   2      33.175 -13.741  24.138  1.00 40.85 LIG-0.35  N 
ATOM     38  C   ALA D   1      32.179 -13.447  24.967  1.00 38.03 LIG 0.25  C 
ATOM     39 O    ALA D   1      31.830 -12.292  25.212  1.00 37.20 LIG-0.27  OA
ATOM     40 H    GLU D   2      33.420 -14.541  23.942  1.00 40.85 LIG 0.16  HD
BRANCH 38 41
ATOM     41  CA  ALA D   1      31.474 -14.635  25.618  1.00 41.40 LIG 0.27  C 
ATOM     42  CB  ALA D   1      32.293 -15.913  25.439  1.00 39.88 LIG 0.05  C 
BRANCH 41 43
ATOM     43  N   ALA D   1      30.130 -14.801  25.071  1.00 41.88 LIG-0.07  N 
ATOM     44 H2   ALA D   1      29.545 -14.877  25.737  1.00 41.88 LIG 0.28  HD
ATOM     45 H3   ALA D   1      29.921 -14.093  24.574  1.00 41.88 LIG 0.28  HD
ATOM     46 H1   ALA D   1      30.102 -15.534  24.567  1.00 41.88 LIG 0.28  HD
ENDBRANCH 41 43
ENDBRANCH 38 41
ENDBRANCH 36 37
BRANCH 36 47
ATOM     47  CB  GLU D   2      35.360 -13.177  23.172  1.00 37.20 LIG 0.04  C 
BRANCH 47 48
ATOM     48  CG  GLU D   2      35.782 -14.324  24.061  1.00 39.39 LIG 0.12  C 
BRANCH 48 49
ATOM     49  CD  GLU D   2      36.002 -13.875  25.489  1.00 42.36 LIG 0.17  C 
ATOM     50 OE2  GLU D   2      35.415 -14.472  26.423  1.00 45.25 LIG-0.65  OA
ATOM     51 OE1  GLU D   2      36.771 -12.915  25.675  1.00 37.51 LIG-0.65  OA
ENDBRANCH 48 49
ENDBRANCH 47 48
ENDBRANCH 36 47
ENDBRANCH 33 36
ENDBRANCH 31 32
BRANCH 31 52
ATOM     52  CB  ASP D   3      31.328 -13.750  19.469  1.00 35.86 LIG 0.15  C 
BRANCH 52 53
ATOM     53  CG  ASP D   3      30.592 -14.845  20.223  1.00 46.33 LIG 0.17  C 
ATOM     54 OD1  ASP D   3      30.317 -15.916  19.640  1.00 38.55 LIG-0.65  OA
ATOM     55 OD2  ASP D   3      30.277 -14.620  21.412  1.00 55.15 LIG-0.65  OA
ENDBRANCH 52 53
ENDBRANCH 31 52
ENDBRANCH 1 31
TORSDOF 23
ENDMDL
MODEL 29
USER: ADFR SOLUTION from run 133
USER: SCORE 18.113060 LL:  -4.064 LR: -14.864 RR:   0.000 FEB:  -8.003
USER: RMSD 9.610990
USER: SEED 132
USER: STATUS no improvement in best in 12 clusters for 5 generations
USER: GENES 25
USER: genes 0 Translation |==|  0.52064 0.65045 0.56245
USER: genes 1 Rotation |==|  0.52724 0.06768 0.25094 0.51807
USER: genes 2 Torsion [C]-N--CA-[C] |==|  0.78754
USER: genes 3 Torsion [N]-CA--C-[N] |==|  0.36005
USER: genes 4 Torsion [C]-N--CA-[C] |==|  0.77228
USER: genes 5 Torsion [N]-CA--C-[N] |==|  0.91009
USER: genes 6 Torsion [C]-N--CA-[C] |==|  0.62333
USER: genes 7 Torsion [N]-CA--CB-[CG] |==|  0.62807
USER: genes 8 Torsion [CA]-CB--CG-[CD] |==|  0.40804
USER: genes 9 Torsion [CB]-CG--CD-[OE1] |==|  0.61525
USER: genes 10 Torsion [N]-CA--C-[OXT] |==|  0.99430
USER: genes 11 Torsion [N]-CA--CB-[CG1] |==|  0.28168
USER: genes 12 Torsion [N]-CA--CB-[CG] |==|  0.83714
USER: genes 13 Torsion [CA]-CB--CG-[OD1] |==|  0.43432
USER: genes 14 Torsion [N]-C--CA-[N] |==|  0.15410
USER: genes 15 Torsion [C]-CA--N-[C] |==|  0.68587
USER: genes 16 Torsion [N]-C--CA-[N] |==|  0.91299
USER: genes 17 Torsion [C]-CA--N-[C] |==|  0.77261
USER: genes 18 Torsion [N]-C--CA-[N] |==|  0.80838
USER: genes 19 Torsion [C]-CA--N-[H3] |==|  0.34457
USER: genes 20 Torsion [C]-CA--CB-[CG] |==|  0.29811
USER: genes 21 Torsion [CA]-CB--CG-[CD] |==|  0.75443
USER: genes 22 Torsion [CB]-CG--CD-[OE2] |==|  0.78750
USER: genes 23 Torsion [C]-CA--CB-[CG] |==|  0.44910
USER: genes 24 Torsion [CA]-CB--CG-[OD1] |==|  0.12548
ROOT
ATOM      1  C   ASP D   3      28.724 -10.205  26.627  1.00 34.79 LIG 0.24  C 
ATOM      2 O    ASP D   3      28.229  -9.136  26.997  1.00 37.58 LIG-0.27  OA
ATOM      3  N   ASP D   4      27.996 -11.228  26.187  1.00 33.46 LIG-0.34  N 
ATOM      4 H    ASP D   4      28.335 -11.948  25.861  1.00 33.46 LIG 0.16  HD
ENDROOT
BRANCH 3 5
ATOM      5  CA  ASP D   4      26.549 -11.219  26.220  1.00 24.32 LIG 0.19  C 
BRANCH 5 6
ATOM      6  C   ASP D   4      26.152 -11.481  27.671  1.00 29.08 LIG 0.24  C 
ATOM      7  N   VAL D   5      25.280 -10.640  28.201  1.00 26.12 LIG-0.35  N 
ATOM      8 H    VAL D   5      24.964  -9.951  27.794  1.00 26.12 LIG 0.16  HD
ATOM      9 O    ASP D   4      26.630 -12.432  28.301  1.00 25.35 LIG-0.27  OA
BRANCH 7 10
ATOM     10  CA  VAL D   5      24.779 -10.832  29.555  1.00 27.68 LIG 0.18  C 
BRANCH 10 11
ATOM     11  C   VAL D   5      23.643 -11.860  29.529  1.00 28.81 LIG 0.24  C 
ATOM     12  N   GLU D   6      22.890 -11.882  28.435  1.00 27.30 LIG-0.34  N 
ATOM     13 H    GLU D   6      23.024 -11.376  27.753  1.00 27.30 LIG 0.16  HD
ATOM     14 O    VAL D   5      23.434 -12.592  30.500  1.00 31.14 LIG-0.27  OA
BRANCH 12 15
ATOM     15  CA  GLU D   6      21.748 -12.786  28.297  1.00 31.22 LIG 0.19  C 
BRANCH 15 16
ATOM     16  CB  GLU D   6      20.433 -12.027  28.458  1.00 26.83 LIG 0.05  C 
BRANCH 16 17
ATOM     17  CG  GLU D   6      19.423 -12.689  29.362  1.00 32.75 LIG 0.12  C 
BRANCH 17 18
ATOM     18  CD  GLU D   6      18.582 -11.671  30.114  1.00 37.41 LIG 0.17  C 
ATOM     19 OE1  GLU D   6      18.324 -11.877  31.316  1.00 40.07 LIG-0.65  OA
ATOM     20 OE2  GLU D   6      18.175 -10.663  29.503  1.00 32.49 LIG-0.65  OA
ENDBRANCH 17 18
ENDBRANCH 16 17
ENDBRANCH 15 16
BRANCH 15 21
ATOM     21  C   GLU D   6      21.752 -13.428  26.925  1.00 32.10 LIG 0.20  C 
ATOM     22 OXT  GLU D   6      22.617 -13.128  26.102  1.00 29.11 LIG-0.65  OA
ATOM     23 O    GLU D   6      20.916 -14.284  26.631  1.00 24.06 LIG-0.65  OA
ENDBRANCH 15 21
ENDBRANCH 12 15
ENDBRANCH 10 11
BRANCH 10 24
ATOM     24  CB  VAL D   5      24.332  -9.494  30.164  1.00 24.95 LIG 0.01  C 
ATOM     25  CG1 VAL D   5      22.810  -9.382  30.099  1.00 19.21 LIG 0.01  C 
ATOM     26  CG2 VAL D   5      24.815  -9.381  31.611  1.00 24.99 LIG 0.01  C 
ENDBRANCH 10 24
ENDBRANCH 7 10
ENDBRANCH 5 6
BRANCH 5 27
ATOM     27  CB  ASP D   4      25.991 -12.316  25.305  1.00 34.66 LIG 0.15  C 
BRANCH 27 28
ATOM     28  CG  ASP D   4      26.440 -12.170  23.844  1.00 38.29 LIG 0.17  C 
ATOM     29 OD2  ASP D   4      26.790 -11.037  23.447  1.00 38.65 LIG-0.65  OA
ATOM     30 OD1  ASP D   4      26.454 -13.169  23.094  1.00 35.40 LIG-0.65  OA
ENDBRANCH 27 28
ENDBRANCH 5 27
ENDBRANCH 3 5
BRANCH 1 31
ATOM     31  CA  ASP D   3      30.239 -10.439  26.656  1.00 30.73 LIG 0.19  C 
BRANCH 31 32
ATOM     32  N   ASP D   3      30.749 -10.841  25.345  1.00 30.00 LIG-0.35  N 
ATOM     33  C   GLU D   2      31.240 -12.066  25.158  1.00 37.22 LIG 0.24  C 
ATOM     34 O    GLU D   2      31.325 -12.895  26.064  1.00 35.26 LIG-0.27  OA
ATOM     35 H    ASP D   3      30.703 -10.235  24.736  1.00 30.00 LIG 0.16  HD
BRANCH 33 36
ATOM     36  CA  GLU D   2      31.686 -12.426  23.745  1.00 39.45 LIG 0.18  C 
BRANCH 36 37
ATOM     37  N   GLU D   2      30.901 -11.745  22.724  1.00 40.85 LIG-0.35  N 
ATOM     38  C   ALA D   1      29.715 -12.208  22.344  1.00 38.03 LIG 0.25  C 
ATOM     39 O    ALA D   1      29.197 -13.209  22.839  1.00 37.20 LIG-0.27  OA
ATOM     40 H    GLU D   2      31.269 -11.038  22.402  1.00 40.85 LIG 0.16  HD
BRANCH 38 41
ATOM     41  CA  ALA D   1      29.009 -11.423  21.241  1.00 41.40 LIG 0.27  C 
ATOM     42  CB  ALA D   1      29.916 -11.274  20.020  1.00 39.88 LIG 0.05  C 
BRANCH 41 43
ATOM     43  N   ALA D   1      28.581 -10.115  21.730  1.00 41.88 LIG-0.07  N 
ATOM     44 H2   ALA D   1      28.866 -10.001  22.565  1.00 41.88 LIG 0.28  HD
ATOM     45 H3   ALA D   1      28.922  -9.477  21.211  1.00 41.88 LIG 0.28  HD
ATOM     46 H1   ALA D   1      27.692 -10.067  21.711  1.00 41.88 LIG 0.28  HD
ENDBRANCH 41 43
ENDBRANCH 38 41
ENDBRANCH 36 37
BRANCH 36 47
ATOM     47  CB  GLU D   2      33.176 -12.156  23.549  1.00 37.20 LIG 0.04  C 
BRANCH 47 48
ATOM     48  CG  GLU D   2      33.988 -13.428  23.487  1.00 39.39 LIG 0.12  C 
BRANCH 48 49
ATOM     49  CD  GLU D   2      34.432 -13.877  24.863  1.00 42.36 LIG 0.17  C 
ATOM     50 OE2  GLU D   2      35.383 -13.288  25.429  1.00 45.25 LIG-0.65  OA
ATOM     51 OE1  GLU D   2      33.820 -14.828  25.379  1.00 37.51 LIG-0.65  OA
ENDBRANCH 48 49
ENDBRANCH 47 48
ENDBRANCH 36 47
ENDBRANCH 33 36
ENDBRANCH 31 32
BRANCH 31 52
ATOM     52  CB  ASP D   3      31.013  -9.242  27.238  1.00 35.86 LIG 0.15  C 
BRANCH 52 53
ATOM     53  CG  ASP D   3      32.422  -9.598  27.684  1.00 46.33 LIG 0.17  C 
ATOM     54 OD1  ASP D   3      33.144 -10.298  26.942  1.00 38.55 LIG-0.65  OA
ATOM     55 OD2  ASP D   3      32.802  -9.177  28.798  1.00 55.15 LIG-0.65  OA
ENDBRANCH 52 53
ENDBRANCH 31 52
ENDBRANCH 1 31
TORSDOF 23
ENDMDL
MODEL 30
USER: ADFR SOLUTION from run 2
USER: SCORE 18.000019 LL:  -3.919 LR: -14.864 RR:   0.000 FEB:  -8.003
USER: RMSD 7.009275
USER: SEED 230111
USER: STATUS no improvement in best in 9 clusters for 5 generations
USER: GENES 25
USER: genes 0 Translation |==|  0.25698 0.55108 0.50687
USER: genes 1 Rotation |==|  0.29325 0.09510 0.37401 0.66565
USER: genes 2 Torsion [C]-N--CA-[C] |==|  0.79189
USER: genes 3 Torsion [N]-CA--C-[N] |==|  0.96408
USER: genes 4 Torsion [C]-N--CA-[C] |==|  0.73059
USER: genes 5 Torsion [N]-CA--C-[N] |==|  0.89283
USER: genes 6 Torsion [C]-N--CA-[C] |==|  0.57728
USER: genes 7 Torsion [N]-CA--CB-[CG] |==|  0.71378
USER: genes 8 Torsion [CA]-CB--CG-[CD] |==|  0.39799
USER: genes 9 Torsion [CB]-CG--CD-[OE1] |==|  0.13196
USER: genes 10 Torsion [N]-CA--C-[OXT] |==|  0.39367
USER: genes 11 Torsion [N]-CA--CB-[CG1] |==|  0.85506
USER: genes 12 Torsion [N]-CA--CB-[CG] |==|  0.57817
USER: genes 13 Torsion [CA]-CB--CG-[OD1] |==|  0.41194
USER: genes 14 Torsion [N]-C--CA-[N] |==|  0.04568
USER: genes 15 Torsion [C]-CA--N-[C] |==|  0.61270
USER: genes 16 Torsion [N]-C--CA-[N] |==|  0.43333
USER: genes 17 Torsion [C]-CA--N-[C] |==|  0.83158
USER: genes 18 Torsion [N]-C--CA-[N] |==|  0.34721
USER: genes 19 Torsion [C]-CA--N-[H3] |==|  0.42446
USER: genes 20 Torsion [C]-CA--CB-[CG] |==|  0.84428
USER: genes 21 Torsion [CA]-CB--CG-[CD] |==|  0.76132
USER: genes 22 Torsion [CB]-CG--CD-[OE2] |==|  0.75850
USER: genes 23 Torsion [C]-CA--CB-[CG] |==|  0.79328
USER: genes 24 Torsion [CA]-CB--CG-[OD1] |==|  0.77086
ROOT
ATOM      1  C   ASP D   3      23.187 -11.994  25.460  1.00 34.79 LIG 0.24  C 
ATOM      2 O    ASP D   3      23.509 -10.810  25.327  1.00 37.58 LIG-0.27  OA
ATOM      3  N   ASP D   4      22.292 -12.406  26.354  1.00 33.46 LIG-0.34  N 
ATOM      4 H    ASP D   4      22.009 -13.216  26.405  1.00 33.46 LIG 0.16  HD
ENDROOT
BRANCH 3 5
ATOM      5  CA  ASP D   4      21.708 -11.513  27.333  1.00 24.32 LIG 0.19  C 
BRANCH 5 6
ATOM      6  C   ASP D   4      22.788 -11.269  28.386  1.00 29.08 LIG 0.24  C 
ATOM      7  N   VAL D   5      23.836 -12.073  28.345  1.00 26.12 LIG-0.35  N 
ATOM      8 H    VAL D   5      23.921 -12.731  27.797  1.00 26.12 LIG 0.16  HD
ATOM      9 O    ASP D   4      22.671 -10.365  29.221  1.00 25.35 LIG-0.27  OA
BRANCH 7 10
ATOM     10  CA  VAL D   5      24.958 -11.891  29.257  1.00 27.68 LIG 0.18  C 
BRANCH 10 11
ATOM     11  C   VAL D   5      26.058 -11.094  28.547  1.00 28.81 LIG 0.24  C 
ATOM     12  N   GLU D   6      26.257 -11.374  27.264  1.00 27.30 LIG-0.34  N 
ATOM     13 H    GLU D   6      25.793 -11.949  26.823  1.00 27.30 LIG 0.16  HD
ATOM     14 O    VAL D   5      26.734 -10.267  29.164  1.00 31.14 LIG-0.27  OA
BRANCH 12 15
ATOM     15  CA  GLU D   6      27.301 -10.716  26.479  1.00 31.22 LIG 0.19  C 
BRANCH 15 16
ATOM     16  CB  GLU D   6      28.621 -11.477  26.587  1.00 26.83 LIG 0.05  C 
BRANCH 16 17
ATOM     17  CG  GLU D   6      29.640 -10.853  27.508  1.00 32.75 LIG 0.12  C 
BRANCH 17 18
ATOM     18  CD  GLU D   6      30.435 -11.902  28.267  1.00 37.41 LIG 0.17  C 
ATOM     19 OE1  GLU D   6      30.912 -12.866  27.634  1.00 40.07 LIG-0.65  OA
ATOM     20 OE2  GLU D   6      30.584 -11.767  29.497  1.00 32.49 LIG-0.65  OA
ENDBRANCH 17 18
ENDBRANCH 16 17
ENDBRANCH 15 16
BRANCH 15 21
ATOM     21  C   GLU D   6      26.907 -10.671  25.016  1.00 32.10 LIG 0.20  C 
ATOM     22 OXT  GLU D   6      27.167  -9.679  24.335  1.00 29.11 LIG-0.65  OA
ATOM     23 O    GLU D   6      26.358 -11.637  24.485  1.00 24.06 LIG-0.65  OA
ENDBRANCH 15 21
ENDBRANCH 12 15
ENDBRANCH 10 11
BRANCH 10 24
ATOM     24  CB  VAL D   5      25.468 -13.246  29.769  1.00 24.95 LIG 0.01  C 
ATOM     25  CG1 VAL D   5      24.303 -14.053  30.338  1.00 19.21 LIG 0.01  C 
ATOM     26  CG2 VAL D   5      26.152 -14.019  28.640  1.00 24.99 LIG 0.01  C 
ENDBRANCH 10 24
ENDBRANCH 7 10
ENDBRANCH 5 6
BRANCH 5 27
ATOM     27  CB  ASP D   4      20.473 -12.161  27.971  1.00 34.66 LIG 0.15  C 
BRANCH 27 28
ATOM     28  CG  ASP D   4      19.436 -11.138  28.455  1.00 38.29 LIG 0.17  C 
ATOM     29 OD2  ASP D   4      19.849 -10.027  28.855  1.00 38.65 LIG-0.65  OA
ATOM     30 OD1  ASP D   4      18.221 -11.425  28.436  1.00 35.40 LIG-0.65  OA
ENDBRANCH 27 28
ENDBRANCH 5 27
ENDBRANCH 3 5
BRANCH 1 31
ATOM     31  CA  ASP D   3      23.810 -13.097  24.596  1.00 30.73 LIG 0.19  C 
BRANCH 31 32
ATOM     32  N   ASP D   3      23.031 -14.333  24.652  1.00 30.00 LIG-0.35  N 
ATOM     33  C   GLU D   2      23.644 -15.515  24.719  1.00 37.22 LIG 0.24  C 
ATOM     34 O    GLU D   2      24.869 -15.633  24.701  1.00 35.26 LIG-0.27  OA
ATOM     35 H    ASP D   3      22.177 -14.226  24.637  1.00 30.00 LIG 0.16  HD
BRANCH 33 36
ATOM     36  CA  GLU D   2      22.758 -16.750  24.846  1.00 39.45 LIG 0.18  C 
BRANCH 36 37
ATOM     37  N   GLU D   2      23.415 -17.957  24.364  1.00 40.85 LIG-0.35  N 
ATOM     38  C   ALA D   1      23.820 -18.065  23.103  1.00 38.03 LIG 0.25  C 
ATOM     39 O    ALA D   1      23.692 -17.159  22.279  1.00 37.20 LIG-0.27  OA
ATOM     40 H    GLU D   2      23.512 -18.573  24.957  1.00 40.85 LIG 0.16  HD
BRANCH 38 41
ATOM     41  CA  ALA D   1      24.463 -19.395  22.715  1.00 41.40 LIG 0.27  C 
ATOM     42  CB  ALA D   1      25.952 -19.209  22.425  1.00 39.88 LIG 0.05  C 
BRANCH 41 43
ATOM     43  N   ALA D   1      23.781 -19.983  21.566  1.00 41.88 LIG-0.07  N 
ATOM     44 H2   ALA D   1      23.483 -19.336  21.033  1.00 41.88 LIG 0.28  HD
ATOM     45 H3   ALA D   1      24.349 -20.500  21.115  1.00 41.88 LIG 0.28  HD
ATOM     46 H1   ALA D   1      23.094 -20.475  21.847  1.00 41.88 LIG 0.28  HD
ENDBRANCH 41 43
ENDBRANCH 38 41
ENDBRANCH 36 37
BRANCH 36 47
ATOM     47  CB  GLU D   2      22.271 -16.937  26.281  1.00 37.20 LIG 0.04  C 
BRANCH 47 48
ATOM     48  CG  GLU D   2      23.412 -17.013  27.269  1.00 39.39 LIG 0.12  C 
BRANCH 48 49
ATOM     49  CD  GLU D   2      23.950 -18.422  27.396  1.00 42.36 LIG 0.17  C 
ATOM     50 OE2  GLU D   2      23.421 -19.214  28.212  1.00 45.25 LIG-0.65  OA
ATOM     51 OE1  GLU D   2      24.909 -18.736  26.671  1.00 37.51 LIG-0.65  OA
ENDBRANCH 48 49
ENDBRANCH 47 48
ENDBRANCH 36 47
ENDBRANCH 33 36
ENDBRANCH 31 32
BRANCH 31 52
ATOM     52  CB  ASP D   3      24.070 -12.640  23.149  1.00 35.86 LIG 0.15  C 
BRANCH 52 53
ATOM     53  CG  ASP D   3      22.804 -12.541  22.314  1.00 46.33 LIG 0.17  C 
ATOM     54 OD1  ASP D   3      22.334 -13.571  21.784  1.00 38.55 LIG-0.65  OA
ATOM     55 OD2  ASP D   3      22.283 -11.413  22.180  1.00 55.15 LIG-0.65  OA
ENDBRANCH 52 53
ENDBRANCH 31 52
ENDBRANCH 1 31
TORSDOF 23
ENDMDL
