MODEL 1
USER: ADFR SOLUTION from run 101
USER: SCORE 13.194771 LL:  -2.784 LR: -11.860 RR:   0.000 FEB:  -7.684
USER: RMSD 2.508206
USER: SEED 100
USER: STATUS no improvement in best in 5 clusters for 5 generations
USER: GENES 16
USER: genes 0 Translation |==|  0.56434 0.48293 0.53324
USER: genes 1 Rotation |==|  0.46579 0.48307 0.47152 0.99773
USER: genes 2 Torsion [C]-CA--N-[C] |==|  0.75226
USER: genes 3 Torsion [N]-C--CA-[N] |==|  0.47649
USER: genes 4 Torsion [C]-CA--CB-[CG] |==|  0.54539
USER: genes 5 Torsion [CA]-CB--CG-[CD2] |==|  0.89327
USER: genes 6 Torsion [C]-CA--N-[C] |==|  0.68375
USER: genes 7 Torsion [N]-CA--C-[N] |==|  0.34618
USER: genes 8 Torsion [C]-N--CA-[CB] |==|  0.52242
USER: genes 9 Torsion [N]-CA--CB-[CG2] |==|  0.41733
USER: genes 10 Torsion [CA]-CB--OG1-[HG1] |==|  0.66757
USER: genes 11 Torsion [N]-CA--C-[N] |==|  0.36458
USER: genes 12 Torsion [C]-N--CA-[C] |==|  0.60899
USER: genes 13 Torsion [N]-CA--C-[N] |==|  0.97450
USER: genes 14 Torsion [N]-CA--CB-[CG] |==|  0.11566
USER: genes 15 Torsion [CA]-CB--CG-[ND1] |==|  0.76644
ROOT
ATOM      1  CA  HIS C   2      26.032   2.305  43.600  1.00 11.69 LIG 0.18  C 
ENDROOT
BRANCH 1 2
ATOM      2  N   HIS C   2      25.997   1.783  42.234  1.00 10.87 LIG-0.35  N 
ATOM      3 H    HIS C   2      26.052   2.380  41.618  1.00 10.87 LIG 0.16  HD
ATOM      4  C   PHE C   1      25.889   0.479  42.010  1.00 11.47 LIG 0.24  C 
ATOM      5 O    PHE C   1      25.942  -0.370  42.917  1.00 12.97 LIG-0.27  OA
BRANCH 4 6
ATOM      6  CA  PHE C   1      25.741   0.066  40.543  1.00 11.05 LIG 0.18  C 
BRANCH 6 7
ATOM      7  CB  PHE C   1      24.407   0.571  39.983  1.00 10.09 LIG 0.07  C 
BRANCH 7 8
ATOM      8  CG  PHE C   1      24.003  -0.100  38.705  1.00  8.73 LIG-0.06  A 
ATOM      9  CD2 PHE C   1      24.940  -0.413  37.748  1.00  8.91 LIG 0.01  A 
ATOM     10  CE2 PHE C   1      24.555  -1.021  36.571  1.00  8.44 LIG 0.00  A 
ATOM     11  CZ  PHE C   1      23.223  -1.305  36.343  1.00  8.32 LIG 0.00  A 
ATOM     12  CE1 PHE C   1      22.280  -1.003  37.302  1.00  8.07 LIG 0.00  A 
ATOM     13  CD1 PHE C   1      22.672  -0.391  38.467  1.00  8.33 LIG 0.01  A 
ENDBRANCH 7 8
ENDBRANCH 6 7
BRANCH 6 14
ATOM     14  N   PHE C   1      25.830  -1.370  40.396  1.00 11.54 LIG-0.35  N 
ATOM     15 H    PHE C   1      25.176  -1.789  40.764  1.00 11.54 LIG 0.16  HD
ATOM     16  C   ACE C   0      26.811  -1.992  39.762  1.00 13.21 LIG 0.21  C 
ATOM     17  CH3 ACE C   0      26.888  -3.489  39.849  1.00 13.47 LIG 0.12  C 
ATOM     18 O    ACE C   0      27.720  -1.290  39.320  1.00 14.75 LIG-0.27  OA
ENDBRANCH 6 14
ENDBRANCH 4 6
ENDBRANCH 1 2
BRANCH 1 19
ATOM     19  C   HIS C   2      24.617   2.573  44.034  1.00 11.19 LIG 0.24  C 
ATOM     20  N   THR C   3      24.223   1.981  45.154  1.00 11.67 LIG-0.34  N 
ATOM     21 H    THR C   3      24.703   1.434  45.612  1.00 11.67 LIG 0.16  HD
ATOM     22 O    HIS C   2      23.896   3.339  43.401  1.00 11.10 LIG-0.27  OA
BRANCH 20 23
ATOM     23  CA  THR C   3      22.902   2.234  45.691  1.00 11.71 LIG 0.20  C 
BRANCH 23 24
ATOM     24  CB  THR C   3      22.715   1.607  47.098  1.00 13.34 LIG 0.15  C 
ATOM     25  CG2 THR C   3      21.742   2.396  47.940  1.00 14.42 LIG 0.04  C 
BRANCH 24 26
ATOM     26 OG1  THR C   3      22.221   0.280  46.943  1.00 13.01 LIG-0.39  OA
ATOM     27 HG1  THR C   3      21.475   0.213  47.322  1.00 13.01 LIG 0.21  HD
ENDBRANCH 24 26
ENDBRANCH 23 24
BRANCH 23 28
ATOM     28  C   THR C   3      22.609   3.743  45.705  1.00 11.33 LIG 0.24  C 
ATOM     29  N   ALA C   4      21.441   4.128  45.196  1.00 10.31 LIG-0.35  N 
ATOM     30 H    ALA C   4      20.904   3.613  44.764  1.00 10.31 LIG 0.16  HD
ATOM     31 O    THR C   3      23.429   4.545  46.171  1.00 11.88 LIG-0.27  OA
BRANCH 29 32
ATOM     32  CA  ALA C   4      20.984   5.504  45.347  1.00 10.35 LIG 0.18  C 
ATOM     33  CB  ALA C   4      21.357   6.337  44.111  1.00 10.31 LIG 0.04  C 
BRANCH 32 34
ATOM     34  C   ALA C   4      19.459   5.560  45.621  1.00 10.99 LIG 0.28  C 
ATOM     35 O    ALA C   4      18.917   6.614  45.935  0.79 11.43 LIG-0.27  OA
ATOM     36  N   NH2 C   5      18.780   4.425  45.494  0.91 10.97 LIG-0.11  N 
ENDBRANCH 32 34
ENDBRANCH 29 32
ENDBRANCH 23 28
ENDBRANCH 20 23
ENDBRANCH 1 19
BRANCH 1 37
ATOM     37  CB  HIS C   2      26.781   3.626  43.689  1.00 14.08 LIG 0.10  C 
BRANCH 37 38
ATOM     38  CG  HIS C   2      26.487   4.565  42.574  1.00 15.42 LIG 0.06  A 
ATOM     39  CD2 HIS C   2      25.611   5.589  42.502  1.00 15.59 LIG 0.14  A 
ATOM     40 NE2  HIS C   2      25.730   6.138  41.248  1.00 17.02 LIG-0.25  NA
ATOM     41  CE1 HIS C   2      26.652   5.474  40.576  1.00 16.99 LIG 0.23  A 
ATOM     42 ND1  HIS C   2      27.124   4.516  41.353  0.48 15.92 LIG-0.24  NA
ENDBRANCH 37 38
ENDBRANCH 1 37
TORSDOF 14
ENDMDL
MODEL 2
USER: ADFR SOLUTION from run 187
USER: SCORE 12.389724 LL:  -3.270 LR: -11.548 RR:   0.000 FEB:  -7.371
USER: RMSD 5.473188
USER: SEED 186
USER: STATUS no improvement in best in 27 clusters for 5 generations
USER: GENES 16
USER: genes 0 Translation |==|  0.66784 0.55483 0.34096
USER: genes 1 Rotation |==|  0.21992 0.72874 0.42277 0.83656
USER: genes 2 Torsion [C]-CA--N-[C] |==|  0.53889
USER: genes 3 Torsion [N]-C--CA-[N] |==|  0.82437
USER: genes 4 Torsion [C]-CA--CB-[CG] |==|  0.25069
USER: genes 5 Torsion [CA]-CB--CG-[CD2] |==|  0.42742
USER: genes 6 Torsion [C]-CA--N-[C] |==|  0.72796
USER: genes 7 Torsion [N]-CA--C-[N] |==|  0.02887
USER: genes 8 Torsion [C]-N--CA-[CB] |==|  0.21497
USER: genes 9 Torsion [N]-CA--CB-[CG2] |==|  0.70517
USER: genes 10 Torsion [CA]-CB--OG1-[HG1] |==|  0.05708
USER: genes 11 Torsion [N]-CA--C-[N] |==|  0.87775
USER: genes 12 Torsion [C]-N--CA-[C] |==|  0.64069
USER: genes 13 Torsion [N]-CA--C-[N] |==|  0.47229
USER: genes 14 Torsion [N]-CA--CB-[CG] |==|  0.69323
USER: genes 15 Torsion [CA]-CB--CG-[ND1] |==|  0.96520
ROOT
ATOM      1  CA  HIS C   2      28.050   3.492  39.707  1.00 11.69 LIG 0.18  C 
ENDROOT
BRANCH 1 2
ATOM      2  N   HIS C   2      26.989   2.569  40.109  1.00 10.87 LIG-0.35  N 
ATOM      3 H    HIS C   2      26.279   2.946  40.416  1.00 10.87 LIG 0.16  HD
ATOM      4  C   PHE C   1      27.151   1.256  39.993  1.00 11.47 LIG 0.24  C 
ATOM      5 O    PHE C   1      28.134   0.744  39.427  1.00 12.97 LIG-0.27  OA
BRANCH 4 6
ATOM      6  CA  PHE C   1      26.022   0.393  40.560  1.00 11.05 LIG 0.18  C 
BRANCH 6 7
ATOM      7  CB  PHE C   1      24.698   0.730  39.867  1.00 10.09 LIG 0.07  C 
BRANCH 7 8
ATOM      8  CG  PHE C   1      24.433  -0.100  38.648  1.00  8.73 LIG-0.06  A 
ATOM      9  CD2 PHE C   1      23.146  -0.333  38.221  1.00  8.91 LIG 0.01  A 
ATOM     10  CE2 PHE C   1      22.913  -1.108  37.104  1.00  8.44 LIG 0.00  A 
ATOM     11  CZ  PHE C   1      23.973  -1.666  36.416  1.00  8.32 LIG 0.00  A 
ATOM     12  CE1 PHE C   1      25.265  -1.428  36.832  1.00  8.07 LIG 0.00  A 
ATOM     13  CD1 PHE C   1      25.487  -0.662  37.949  1.00  8.33 LIG 0.01  A 
ENDBRANCH 7 8
ENDBRANCH 6 7
BRANCH 6 14
ATOM     14  N   PHE C   1      25.896   0.575  41.989  1.00 11.54 LIG-0.35  N 
ATOM     15 H    PHE C   1      25.442   1.273  42.202  1.00 11.54 LIG 0.16  HD
ATOM     16  C   ACE C   0      26.419  -0.240  42.891  1.00 13.21 LIG 0.21  C 
ATOM     17  CH3 ACE C   0      26.382   0.168  44.335  1.00 13.47 LIG 0.12  C 
ATOM     18 O    ACE C   0      27.093  -1.178  42.467  1.00 14.75 LIG-0.27  OA
ENDBRANCH 6 14
ENDBRANCH 4 6
ENDBRANCH 1 2
BRANCH 1 19
ATOM     19  C   HIS C   2      27.726   4.850  40.266  1.00 11.19 LIG 0.24  C 
ATOM     20  N   THR C   3      26.734   4.904  41.144  1.00 11.67 LIG-0.34  N 
ATOM     21 H    THR C   3      26.250   4.231  41.375  1.00 11.67 LIG 0.16  HD
ATOM     22 O    HIS C   2      28.387   5.836  39.952  1.00 11.10 LIG-0.27  OA
BRANCH 20 23
ATOM     23  CA  THR C   3      26.395   6.154  41.791  1.00 11.71 LIG 0.20  C 
BRANCH 23 24
ATOM     24  CB  THR C   3      25.587   7.093  40.857  1.00 13.34 LIG 0.15  C 
ATOM     25  CG2 THR C   3      26.426   8.243  40.356  1.00 14.42 LIG 0.04  C 
BRANCH 24 26
ATOM     26 OG1  THR C   3      25.125   6.337  39.741  1.00 13.01 LIG-0.39  OA
ATOM     27 HG1  THR C   3      25.128   5.521  39.936  1.00 13.01 LIG 0.21  HD
ENDBRANCH 24 26
ENDBRANCH 23 24
BRANCH 23 28
ATOM     28  C   THR C   3      25.645   5.891  43.107  1.00 11.33 LIG 0.24  C 
ATOM     29  N   ALA C   4      24.693   4.961  43.075  1.00 10.31 LIG-0.35  N 
ATOM     30 H    ALA C   4      24.398   4.590  42.357  1.00 10.31 LIG 0.16  HD
ATOM     31 O    THR C   3      25.926   6.520  44.135  1.00 11.88 LIG-0.27  OA
BRANCH 29 32
ATOM     32  CA  ALA C   4      24.068   4.496  44.308  1.00 10.35 LIG 0.18  C 
ATOM     33  CB  ALA C   4      22.642   5.053  44.435  1.00 10.31 LIG 0.04  C 
BRANCH 32 34
ATOM     34  C   ALA C   4      24.076   2.948  44.389  1.00 10.99 LIG 0.28  C 
ATOM     35 O    ALA C   4      24.402   2.271  43.421  0.79 11.43 LIG-0.27  OA
ATOM     36  N   NH2 C   5      23.723   2.402  45.549  0.91 10.97 LIG-0.11  N 
ENDBRANCH 32 34
ENDBRANCH 29 32
ENDBRANCH 23 28
ENDBRANCH 20 23
ENDBRANCH 1 19
BRANCH 1 37
ATOM     37  CB  HIS C   2      28.134   3.642  38.195  1.00 14.08 LIG 0.10  C 
BRANCH 37 38
ATOM     38  CG  HIS C   2      29.351   3.036  37.593  1.00 15.42 LIG 0.06  A 
ATOM     39  CD2 HIS C   2      29.653   2.779  36.304  1.00 15.59 LIG 0.14  A 
ATOM     40 NE2  HIS C   2      30.905   2.212  36.284  1.00 17.02 LIG-0.25  NA
ATOM     41  CE1 HIS C   2      31.356   2.130  37.522  1.00 16.99 LIG 0.23  A 
ATOM     42 ND1  HIS C   2      30.436   2.618  38.334  0.48 15.92 LIG-0.24  NA
ENDBRANCH 37 38
ENDBRANCH 1 37
TORSDOF 14
ENDMDL
MODEL 3
USER: ADFR SOLUTION from run 117
USER: SCORE 13.838126 LL:  -2.982 LR: -11.517 RR:   0.000 FEB:  -7.341
USER: RMSD 1.886123
USER: SEED 116
USER: STATUS no improvement in best in 9 clusters for 5 generations
USER: GENES 16
USER: genes 0 Translation |==|  0.52365 0.48798 0.57099
USER: genes 1 Rotation |==|  0.51955 0.50461 0.47189 0.99880
USER: genes 2 Torsion [C]-CA--N-[C] |==|  0.61230
USER: genes 3 Torsion [N]-C--CA-[N] |==|  0.38317
USER: genes 4 Torsion [C]-CA--CB-[CG] |==|  0.48873
USER: genes 5 Torsion [CA]-CB--CG-[CD2] |==|  0.23264
USER: genes 6 Torsion [C]-CA--N-[C] |==|  0.77320
USER: genes 7 Torsion [N]-CA--C-[N] |==|  0.43870
USER: genes 8 Torsion [C]-N--CA-[CB] |==|  0.52222
USER: genes 9 Torsion [N]-CA--CB-[CG2] |==|  0.43949
USER: genes 10 Torsion [CA]-CB--OG1-[HG1] |==|  0.76938
USER: genes 11 Torsion [N]-CA--C-[N] |==|  0.38698
USER: genes 12 Torsion [C]-N--CA-[C] |==|  0.80324
USER: genes 13 Torsion [N]-CA--C-[N] |==|  0.42432
USER: genes 14 Torsion [N]-CA--CB-[CG] |==|  0.09921
USER: genes 15 Torsion [CA]-CB--CG-[ND1] |==|  0.26112
ROOT
ATOM      1  CA  HIS C   2      25.238   2.389  44.365  1.00 11.69 LIG 0.18  C 
ENDROOT
BRANCH 1 2
ATOM      2  N   HIS C   2      25.101   2.176  42.924  1.00 10.87 LIG-0.35  N 
ATOM      3 H    HIS C   2      24.499   2.657  42.543  1.00 10.87 LIG 0.16  HD
ATOM      4  C   PHE C   1      25.868   1.296  42.292  1.00 11.47 LIG 0.24  C 
ATOM      5 O    PHE C   1      26.817   0.708  42.843  1.00 12.97 LIG-0.27  OA
BRANCH 4 6
ATOM      6  CA  PHE C   1      25.548   1.074  40.812  1.00 11.05 LIG 0.18  C 
BRANCH 6 7
ATOM      7  CB  PHE C   1      24.718  -0.201  40.634  1.00 10.09 LIG 0.07  C 
BRANCH 7 8
ATOM      8  CG  PHE C   1      24.281  -0.437  39.221  1.00  8.73 LIG-0.06  A 
ATOM      9  CD2 PHE C   1      25.118  -1.052  38.319  1.00  8.91 LIG 0.01  A 
ATOM     10  CE2 PHE C   1      24.709  -1.254  37.017  1.00  8.44 LIG 0.00  A 
ATOM     11  CZ  PHE C   1      23.460  -0.827  36.610  1.00  8.32 LIG 0.00  A 
ATOM     12  CE1 PHE C   1      22.613  -0.220  37.511  1.00  8.07 LIG 0.00  A 
ATOM     13  CD1 PHE C   1      23.031  -0.015  38.802  1.00  8.33 LIG 0.01  A 
ENDBRANCH 7 8
ENDBRANCH 6 7
BRANCH 6 14
ATOM     14  N   PHE C   1      26.759   0.993  40.025  1.00 11.54 LIG-0.35  N 
ATOM     15 H    PHE C   1      27.000   0.185  39.857  1.00 11.54 LIG 0.16  HD
ATOM     16  C   ACE C   0      27.439   2.044  39.598  1.00 13.21 LIG 0.21  C 
ATOM     17  CH3 ACE C   0      28.780   1.823  38.961  1.00 13.47 LIG 0.12  C 
ATOM     18 O    ACE C   0      27.028   3.151  39.945  1.00 14.75 LIG-0.27  OA
ENDBRANCH 6 14
ENDBRANCH 4 6
ENDBRANCH 1 2
BRANCH 1 19
ATOM     19  C   HIS C   2      23.860   2.540  44.949  1.00 11.19 LIG 0.24  C 
ATOM     20  N   THR C   3      23.740   2.290  46.246  1.00 11.67 LIG-0.34  N 
ATOM     21 H    THR C   3      24.380   2.014  46.751  1.00 11.67 LIG 0.16  HD
ATOM     22 O    HIS C   2      22.920   2.922  44.258  1.00 11.10 LIG-0.27  OA
BRANCH 20 23
ATOM     23  CA  THR C   3      22.469   2.477  46.913  1.00 11.71 LIG 0.20  C 
BRANCH 23 24
ATOM     24  CB  THR C   3      22.592   2.323  48.453  1.00 13.34 LIG 0.15  C 
ATOM     25  CG2 THR C   3      21.460   3.010  49.177  1.00 14.42 LIG 0.04  C 
BRANCH 24 26
ATOM     26 OG1  THR C   3      22.570   0.935  48.773  1.00 13.01 LIG-0.39  OA
ATOM     27 HG1  THR C   3      21.775   0.668  48.808  1.00 13.01 LIG 0.21  HD
ENDBRANCH 24 26
ENDBRANCH 23 24
BRANCH 23 28
ATOM     28  C   THR C   3      21.858   3.835  46.532  1.00 11.33 LIG 0.24  C 
ATOM     29  N   ALA C   4      20.545   3.857  46.313  1.00 10.31 LIG-0.35  N 
ATOM     30 H    ALA C   4      20.049   3.157  46.257  1.00 10.31 LIG 0.16  HD
ATOM     31 O    THR C   3      22.565   4.846  46.439  1.00 11.88 LIG-0.27  OA
BRANCH 29 32
ATOM     32  CA  ALA C   4      19.842   5.123  46.147  1.00 10.35 LIG 0.18  C 
ATOM     33  CB  ALA C   4      18.447   4.893  45.548  1.00 10.31 LIG 0.04  C 
BRANCH 32 34
ATOM     34  C   ALA C   4      19.757   5.895  47.488  1.00 10.99 LIG 0.28  C 
ATOM     35 O    ALA C   4      19.775   5.297  48.558  0.79 11.43 LIG-0.27  OA
ATOM     36  N   NH2 C   5      19.671   7.220  47.419  0.91 10.97 LIG-0.11  N 
ENDBRANCH 32 34
ENDBRANCH 29 32
ENDBRANCH 23 28
ENDBRANCH 20 23
ENDBRANCH 1 19
BRANCH 1 37
ATOM     37  CB  HIS C   2      25.999   3.667  44.684  1.00 14.08 LIG 0.10  C 
BRANCH 37 38
ATOM     38  CG  HIS C   2      25.731   4.782  43.738  1.00 15.42 LIG 0.06  A 
ATOM     39  CD2 HIS C   2      26.305   5.080  42.554  1.00 15.59 LIG 0.14  A 
ATOM     40 NE2  HIS C   2      25.694   6.217  42.080  1.00 17.02 LIG-0.25  NA
ATOM     41  CE1 HIS C   2      24.773   6.598  42.945  1.00 16.99 LIG 0.23  A 
ATOM     42 ND1  HIS C   2      24.776   5.751  43.958  0.48 15.92 LIG-0.24  NA
ENDBRANCH 37 38
ENDBRANCH 1 37
TORSDOF 14
ENDMDL
MODEL 4
USER: ADFR SOLUTION from run 101
USER: SCORE 13.661829 LL:  -2.710 LR: -11.479 RR:   0.000 FEB:  -7.303
USER: RMSD 3.031137
USER: SEED 100
USER: STATUS no improvement in best in 5 clusters for 5 generations
USER: GENES 16
USER: genes 0 Translation |==|  0.62291 0.55198 0.45060
USER: genes 1 Rotation |==|  0.41691 0.62763 0.61466 0.96224
USER: genes 2 Torsion [C]-CA--N-[C] |==|  0.78362
USER: genes 3 Torsion [N]-C--CA-[N] |==|  0.48302
USER: genes 4 Torsion [C]-CA--CB-[CG] |==|  0.45640
USER: genes 5 Torsion [CA]-CB--CG-[CD2] |==|  0.53833
USER: genes 6 Torsion [C]-CA--N-[C] |==|  0.70119
USER: genes 7 Torsion [N]-CA--C-[N] |==|  0.95712
USER: genes 8 Torsion [C]-N--CA-[CB] |==|  0.86111
USER: genes 9 Torsion [N]-CA--CB-[CG2] |==|  0.51989
USER: genes 10 Torsion [CA]-CB--OG1-[HG1] |==|  0.67231
USER: genes 11 Torsion [N]-CA--C-[N] |==|  0.36416
USER: genes 12 Torsion [C]-N--CA-[C] |==|  0.70522
USER: genes 13 Torsion [N]-CA--C-[N] |==|  0.02844
USER: genes 14 Torsion [N]-CA--CB-[CG] |==|  0.90062
USER: genes 15 Torsion [CA]-CB--CG-[ND1] |==|  0.93612
ROOT
ATOM      1  CA  HIS C   2      27.174   3.445  41.927  1.00 11.69 LIG 0.18  C 
ENDROOT
BRANCH 1 2
ATOM      2  N   HIS C   2      26.722   2.532  40.877  1.00 10.87 LIG-0.35  N 
ATOM      3 H    HIS C   2      26.244   2.896  40.262  1.00 10.87 LIG 0.16  HD
ATOM      4  C   PHE C   1      27.048   1.245  40.911  1.00 11.47 LIG 0.24  C 
ATOM      5 O    PHE C   1      27.845   0.771  41.741  1.00 12.97 LIG-0.27  OA
BRANCH 4 6
ATOM      6  CA  PHE C   1      26.415   0.369  39.827  1.00 11.05 LIG 0.18  C 
BRANCH 6 7
ATOM      7  CB  PHE C   1      24.892   0.339  39.991  1.00 10.09 LIG 0.07  C 
BRANCH 7 8
ATOM      8  CG  PHE C   1      24.171  -0.174  38.782  1.00  8.73 LIG-0.06  A 
ATOM      9  CD2 PHE C   1      22.812  -0.005  38.650  1.00  8.91 LIG 0.01  A 
ATOM     10  CE2 PHE C   1      22.157  -0.491  37.538  1.00  8.44 LIG 0.00  A 
ATOM     11  CZ  PHE C   1      22.861  -1.162  36.558  1.00  8.32 LIG 0.00  A 
ATOM     12  CE1 PHE C   1      24.224  -1.325  36.679  1.00  8.07 LIG 0.00  A 
ATOM     13  CD1 PHE C   1      24.867  -0.845  37.793  1.00  8.33 LIG 0.01  A 
ENDBRANCH 7 8
ENDBRANCH 6 7
BRANCH 6 14
ATOM     14  N   PHE C   1      26.946  -0.976  39.871  1.00 11.54 LIG-0.35  N 
ATOM     15 H    PHE C   1      26.664  -1.429  40.544  1.00 11.54 LIG 0.16  HD
ATOM     16  C   ACE C   0      27.782  -1.474  38.973  1.00 13.21 LIG 0.21  C 
ATOM     17  CH3 ACE C   0      28.409  -2.811  39.239  1.00 13.47 LIG 0.12  C 
ATOM     18 O    ACE C   0      28.157  -0.713  38.082  1.00 14.75 LIG-0.27  OA
ENDBRANCH 6 14
ENDBRANCH 4 6
ENDBRANCH 1 2
BRANCH 1 19
ATOM     19  C   HIS C   2      26.302   3.237  43.135  1.00 11.19 LIG 0.24  C 
ATOM     20  N   THR C   3      25.172   2.572  42.938  1.00 11.67 LIG-0.34  N 
ATOM     21 H    THR C   3      24.895   2.296  42.171  1.00 11.67 LIG 0.16  HD
ATOM     22 O    HIS C   2      26.658   3.625  44.244  1.00 11.10 LIG-0.27  OA
BRANCH 20 23
ATOM     23  CA  THR C   3      24.302   2.260  44.052  1.00 11.71 LIG 0.20  C 
BRANCH 23 24
ATOM     24  CB  THR C   3      25.073   1.602  45.227  1.00 13.34 LIG 0.15  C 
ATOM     25  CG2 THR C   3      24.140   1.121  46.311  1.00 14.42 LIG 0.04  C 
BRANCH 24 26
ATOM     26 OG1  THR C   3      25.807   0.490  44.723  1.00 13.01 LIG-0.39  OA
ATOM     27 HG1  THR C   3      25.534  -0.215  45.090  1.00 13.01 LIG 0.21  HD
ENDBRANCH 24 26
ENDBRANCH 23 24
BRANCH 23 28
ATOM     28  C   THR C   3      23.545   3.516  44.511  1.00 11.33 LIG 0.24  C 
ATOM     29  N   ALA C   4      22.229   3.394  44.673  1.00 10.31 LIG-0.35  N 
ATOM     30 H    ALA C   4      21.770   2.709  44.431  1.00 10.31 LIG 0.16  HD
ATOM     31 O    THR C   3      24.145   4.579  44.715  1.00 11.88 LIG-0.27  OA
BRANCH 29 32
ATOM     32  CA  ALA C   4      21.457   4.462  45.296  1.00 10.35 LIG 0.18  C 
ATOM     33  CB  ALA C   4      20.237   4.822  44.434  1.00 10.31 LIG 0.04  C 
BRANCH 32 34
ATOM     34  C   ALA C   4      21.032   4.077  46.736  1.00 10.99 LIG 0.28  C 
ATOM     35 O    ALA C   4      20.217   4.756  47.352  0.79 11.43 LIG-0.27  OA
ATOM     36  N   NH2 C   5      21.582   2.985  47.257  0.91 10.97 LIG-0.11  N 
ENDBRANCH 32 34
ENDBRANCH 29 32
ENDBRANCH 23 28
ENDBRANCH 20 23
ENDBRANCH 1 19
BRANCH 1 37
ATOM     37  CB  HIS C   2      27.027   4.903  41.518  1.00 14.08 LIG 0.10  C 
BRANCH 37 38
ATOM     38  CG  HIS C   2      27.290   5.157  40.077  1.00 15.42 LIG 0.06  A 
ATOM     39  CD2 HIS C   2      26.883   6.166  39.280  1.00 15.59 LIG 0.14  A 
ATOM     40 NE2  HIS C   2      27.402   5.931  38.029  1.00 17.02 LIG-0.25  NA
ATOM     41  CE1 HIS C   2      28.108   4.816  38.062  1.00 16.99 LIG 0.23  A 
ATOM     42 ND1  HIS C   2      28.055   4.326  39.288  0.48 15.92 LIG-0.24  NA
ENDBRANCH 37 38
ENDBRANCH 1 37
TORSDOF 14
ENDMDL
MODEL 5
USER: ADFR SOLUTION from run 73
USER: SCORE 13.272402 LL:  -3.437 LR: -11.466 RR:   0.000 FEB:  -7.290
USER: RMSD 8.970965
USER: SEED 72
USER: STATUS no improvement in best in 17 clusters for 5 generations
USER: GENES 16
USER: genes 0 Translation |==|  0.43068 0.41264 0.63278
USER: genes 1 Rotation |==|  0.74186 0.85315 0.39006 0.73388
USER: genes 2 Torsion [C]-CA--N-[C] |==|  0.16109
USER: genes 3 Torsion [N]-C--CA-[N] |==|  0.00286
USER: genes 4 Torsion [C]-CA--CB-[CG] |==|  0.47772
USER: genes 5 Torsion [CA]-CB--CG-[CD2] |==|  0.96227
USER: genes 6 Torsion [C]-CA--N-[C] |==|  0.72222
USER: genes 7 Torsion [N]-CA--C-[N] |==|  0.09599
USER: genes 8 Torsion [C]-N--CA-[CB] |==|  0.37300
USER: genes 9 Torsion [N]-CA--CB-[CG2] |==|  0.64145
USER: genes 10 Torsion [CA]-CB--OG1-[HG1] |==|  0.15130
USER: genes 11 Torsion [N]-CA--C-[N] |==|  0.88930
USER: genes 12 Torsion [C]-N--CA-[C] |==|  0.66143
USER: genes 13 Torsion [N]-CA--C-[N] |==|  0.44138
USER: genes 14 Torsion [N]-CA--CB-[CG] |==|  0.91197
USER: genes 15 Torsion [CA]-CB--CG-[ND1] |==|  0.79912
ROOT
ATOM      1  CA  HIS C   2      23.425   1.146  45.616  1.00 11.69 LIG 0.18  C 
ENDROOT
BRANCH 1 2
ATOM      2  N   HIS C   2      22.497   2.045  46.300  1.00 10.87 LIG-0.35  N 
ATOM      3 H    HIS C   2      21.725   2.120  45.927  1.00 10.87 LIG 0.16  HD
ATOM      4  C   PHE C   1      22.859   2.679  47.409  1.00 11.47 LIG 0.24  C 
ATOM      5 O    PHE C   1      23.933   2.454  47.996  1.00 12.97 LIG-0.27  OA
BRANCH 4 6
ATOM      6  CA  PHE C   1      21.846   3.684  47.963  1.00 11.05 LIG 0.18  C 
BRANCH 6 7
ATOM      7  CB  PHE C   1      21.486   3.331  49.409  1.00 10.09 LIG 0.07  C 
BRANCH 7 8
ATOM      8  CG  PHE C   1      20.648   4.372  50.088  1.00  8.73 LIG-0.06  A 
ATOM      9  CD2 PHE C   1      20.500   5.624  49.537  1.00  8.91 LIG 0.01  A 
ATOM     10  CE2 PHE C   1      19.735   6.577  50.176  1.00  8.44 LIG 0.00  A 
ATOM     11  CZ  PHE C   1      19.125   6.283  51.380  1.00  8.32 LIG 0.00  A 
ATOM     12  CE1 PHE C   1      19.261   5.027  51.932  1.00  8.07 LIG 0.00  A 
ATOM     13  CD1 PHE C   1      20.031   4.087  51.293  1.00  8.33 LIG 0.01  A 
ENDBRANCH 7 8
ENDBRANCH 6 7
BRANCH 6 14
ATOM     14  N   PHE C   1      20.652   3.721  47.148  1.00 11.54 LIG-0.35  N 
ATOM     15 H    PHE C   1      20.110   3.074  47.313  1.00 11.54 LIG 0.16  HD
ATOM     16  C   ACE C   0      20.403   4.648  46.237  1.00 13.21 LIG 0.21  C 
ATOM     17  CH3 ACE C   0      19.223   4.462  45.327  1.00 13.47 LIG 0.12  C 
ATOM     18 O    ACE C   0      21.276   5.494  46.052  1.00 14.75 LIG-0.27  OA
ENDBRANCH 6 14
ENDBRANCH 4 6
ENDBRANCH 1 2
BRANCH 1 19
ATOM     19  C   HIS C   2      23.839   0.074  46.587  1.00 11.19 LIG 0.24  C 
ATOM     20  N   THR C   3      22.917  -0.322  47.454  1.00 11.67 LIG-0.34  N 
ATOM     21 H    THR C   3      22.130   0.019  47.519  1.00 11.67 LIG 0.16  HD
ATOM     22 O    HIS C   2      24.958  -0.430  46.533  1.00 11.10 LIG-0.27  OA
BRANCH 20 23
ATOM     23  CA  THR C   3      23.197  -1.399  48.381  1.00 11.71 LIG 0.20  C 
BRANCH 23 24
ATOM     24  CB  THR C   3      22.739  -1.059  49.824  1.00 13.34 LIG 0.15  C 
ATOM     25  CG2 THR C   3      23.838  -1.290  50.831  1.00 14.42 LIG 0.04  C 
BRANCH 24 26
ATOM     26 OG1  THR C   3      22.353   0.312  49.868  1.00 13.01 LIG-0.39  OA
ATOM     27 HG1  THR C   3      21.775   0.459  49.276  1.00 13.01 LIG 0.21  HD
ENDBRANCH 24 26
ENDBRANCH 23 24
BRANCH 23 28
ATOM     28  C   THR C   3      22.568  -2.710  47.887  1.00 11.33 LIG 0.24  C 
ATOM     29  N   ALA C   4      21.355  -2.622  47.343  1.00 10.31 LIG-0.35  N 
ATOM     30 H    ALA C   4      20.866  -1.915  47.357  1.00 10.31 LIG 0.16  HD
ATOM     31 O    THR C   3      23.171  -3.785  47.996  1.00 11.88 LIG-0.27  OA
BRANCH 29 32
ATOM     32  CA  ALA C   4      20.762  -3.768  46.664  1.00 10.35 LIG 0.18  C 
ATOM     33  CB  ALA C   4      19.527  -4.269  47.427  1.00 10.31 LIG 0.04  C 
BRANCH 32 34
ATOM     34  C   ALA C   4      20.412  -3.425  45.193  1.00 10.99 LIG 0.28  C 
ATOM     35 O    ALA C   4      20.275  -2.261  44.836  0.79 11.43 LIG-0.27  OA
ATOM     36  N   NH2 C   5      20.277  -4.445  44.351  0.91 10.97 LIG-0.11  N 
ENDBRANCH 32 34
ENDBRANCH 29 32
ENDBRANCH 23 28
ENDBRANCH 20 23
ENDBRANCH 1 19
BRANCH 1 37
ATOM     37  CB  HIS C   2      24.694   1.860  45.176  1.00 14.08 LIG 0.10  C 
BRANCH 37 38
ATOM     38  CG  HIS C   2      24.492   3.290  44.824  1.00 15.42 LIG 0.06  A 
ATOM     39  CD2 HIS C   2      24.857   4.412  45.479  1.00 15.59 LIG 0.14  A 
ATOM     40 NE2  HIS C   2      24.430   5.480  44.727  1.00 17.02 LIG-0.25  NA
ATOM     41  CE1 HIS C   2      23.828   5.027  43.644  1.00 16.99 LIG 0.23  A 
ATOM     42 ND1  HIS C   2      23.848   3.706  43.678  0.48 15.92 LIG-0.24  NA
ENDBRANCH 37 38
ENDBRANCH 1 37
TORSDOF 14
ENDMDL
MODEL 6
USER: ADFR SOLUTION from run 190
USER: SCORE 12.840561 LL:  -3.670 LR: -11.340 RR:   0.000 FEB:  -7.164
USER: RMSD 8.403848
USER: SEED 189
USER: STATUS searching
USER: GENES 16
USER: genes 0 Translation |==|  0.40086 0.45284 0.67271
USER: genes 1 Rotation |==|  0.73135 0.88343 0.44100 0.71442
USER: genes 2 Torsion [C]-CA--N-[C] |==|  0.20867
USER: genes 3 Torsion [N]-C--CA-[N] |==|  0.41111
USER: genes 4 Torsion [C]-CA--CB-[CG] |==|  0.14984
USER: genes 5 Torsion [CA]-CB--CG-[CD2] |==|  0.23923
USER: genes 6 Torsion [C]-CA--N-[C] |==|  0.84975
USER: genes 7 Torsion [N]-CA--C-[N] |==|  0.09640
USER: genes 8 Torsion [C]-N--CA-[CB] |==|  0.37754
USER: genes 9 Torsion [N]-CA--CB-[CG2] |==|  0.46438
USER: genes 10 Torsion [CA]-CB--OG1-[HG1] |==|  0.27033
USER: genes 11 Torsion [N]-CA--C-[N] |==|  0.83355
USER: genes 12 Torsion [C]-N--CA-[C] |==|  0.70759
USER: genes 13 Torsion [N]-CA--C-[N] |==|  0.01609
USER: genes 14 Torsion [N]-CA--CB-[CG] |==|  0.55060
USER: genes 15 Torsion [CA]-CB--CG-[ND1] |==|  0.16040
ROOT
ATOM      1  CA  HIS C   2      22.844   1.809  46.424  1.00 11.69 LIG 0.18  C 
ENDROOT
BRANCH 1 2
ATOM      2  N   HIS C   2      21.807   2.398  47.272  1.00 10.87 LIG-0.35  N 
ATOM      3 H    HIS C   2      21.001   2.210  47.041  1.00 10.87 LIG 0.16  HD
ATOM      4  C   PHE C   1      22.132   3.160  48.309  1.00 11.47 LIG 0.24  C 
ATOM      5 O    PHE C   1      23.305   3.311  48.697  1.00 12.97 LIG-0.27  OA
BRANCH 4 6
ATOM      6  CA  PHE C   1      20.962   3.818  49.045  1.00 11.05 LIG 0.18  C 
BRANCH 6 7
ATOM      7  CB  PHE C   1      20.647   5.183  48.426  1.00 10.09 LIG 0.07  C 
BRANCH 7 8
ATOM      8  CG  PHE C   1      20.409   5.130  46.948  1.00  8.73 LIG-0.06  A 
ATOM      9  CD2 PHE C   1      19.160   4.847  46.446  1.00  8.91 LIG 0.01  A 
ATOM     10  CE2 PHE C   1      18.955   4.788  45.083  1.00  8.44 LIG 0.00  A 
ATOM     11  CZ  PHE C   1      20.009   5.001  44.216  1.00  8.32 LIG 0.00  A 
ATOM     12  CE1 PHE C   1      21.260   5.295  44.711  1.00  8.07 LIG 0.00  A 
ATOM     13  CD1 PHE C   1      21.456   5.343  46.069  1.00  8.33 LIG 0.01  A 
ENDBRANCH 7 8
ENDBRANCH 6 7
BRANCH 6 14
ATOM     14  N   PHE C   1      21.251   3.965  50.454  1.00 11.54 LIG-0.35  N 
ATOM     15 H    PHE C   1      21.157   4.772  50.736  1.00 11.54 LIG 0.16  HD
ATOM     16  C   ACE C   0      21.624   2.971  51.244  1.00 13.21 LIG 0.21  C 
ATOM     17  CH3 ACE C   0      22.082   3.293  52.637  1.00 13.47 LIG 0.12  C 
ATOM     18 O    ACE C   0      21.777   1.870  50.716  1.00 14.75 LIG-0.27  OA
ENDBRANCH 6 14
ENDBRANCH 4 6
ENDBRANCH 1 2
BRANCH 1 19
ATOM     19  C   HIS C   2      23.463   0.661  47.173  1.00 11.19 LIG 0.24  C 
ATOM     20  N   THR C   3      22.651  -0.040  47.953  1.00 11.67 LIG-0.34  N 
ATOM     21 H    THR C   3      21.821   0.145  48.085  1.00 11.67 LIG 0.16  HD
ATOM     22 O    HIS C   2      24.647   0.371  47.019  1.00 11.10 LIG-0.27  OA
BRANCH 20 23
ATOM     23  CA  THR C   3      23.138  -1.207  48.658  1.00 11.71 LIG 0.20  C 
BRANCH 23 24
ATOM     24  CB  THR C   3      22.649  -1.245  50.130  1.00 13.34 LIG 0.15  C 
ATOM     25  CG2 THR C   3      22.889  -2.591  50.767  1.00 14.42 LIG 0.04  C 
BRANCH 24 26
ATOM     26 OG1  THR C   3      23.354  -0.252  50.869  1.00 13.01 LIG-0.39  OA
ATOM     27 HG1  THR C   3      22.884   0.442  50.926  1.00 13.01 LIG 0.21  HD
ENDBRANCH 24 26
ENDBRANCH 23 24
BRANCH 23 28
ATOM     28  C   THR C   3      22.750  -2.489  47.905  1.00 11.33 LIG 0.24  C 
ATOM     29  N   ALA C   4      21.449  -2.705  47.726  1.00 10.31 LIG-0.35  N 
ATOM     30 H    ALA C   4      20.823  -2.246  48.096  1.00 10.31 LIG 0.16  HD
ATOM     31 O    THR C   3      23.617  -3.271  47.492  1.00 11.88 LIG-0.27  OA
BRANCH 29 32
ATOM     32  CA  ALA C   4      20.988  -3.779  46.853  1.00 10.35 LIG 0.18  C 
ATOM     33  CB  ALA C   4      19.926  -4.633  47.561  1.00 10.31 LIG 0.04  C 
BRANCH 32 34
ATOM     34  C   ALA C   4      20.454  -3.218  45.511  1.00 10.99 LIG 0.28  C 
ATOM     35 O    ALA C   4      19.919  -3.957  44.691  0.79 11.43 LIG-0.27  OA
ATOM     36  N   NH2 C   5      20.597  -1.913  45.301  0.91 10.97 LIG-0.11  N 
ENDBRANCH 32 34
ENDBRANCH 29 32
ENDBRANCH 23 28
ENDBRANCH 20 23
ENDBRANCH 1 19
BRANCH 1 37
ATOM     37  CB  HIS C   2      23.962   2.795  46.119  1.00 14.08 LIG 0.10  C 
BRANCH 37 38
ATOM     38  CG  HIS C   2      24.799   2.417  44.950  1.00 15.42 LIG 0.06  A 
ATOM     39  CD2 HIS C   2      26.128   2.203  44.861  1.00 15.59 LIG 0.14  A 
ATOM     40 NE2  HIS C   2      26.401   1.878  43.553  1.00 17.02 LIG-0.25  NA
ATOM     41  CE1 HIS C   2      25.274   1.888  42.867  1.00 16.99 LIG 0.23  A 
ATOM     42 ND1  HIS C   2      24.290   2.214  43.686  0.48 15.92 LIG-0.24  NA
ENDBRANCH 37 38
ENDBRANCH 1 37
TORSDOF 14
ENDMDL
MODEL 7
USER: ADFR SOLUTION from run 100
USER: SCORE 12.110728 LL:  -3.076 LR: -11.314 RR:   0.000 FEB:  -7.138
USER: RMSD 6.842444
USER: SEED 99
USER: STATUS no improvement in best in 9 clusters for 5 generations
USER: GENES 16
USER: genes 0 Translation |==|  0.34578 0.47968 0.77616
USER: genes 1 Rotation |==|  0.42615 0.28746 0.19276 0.82400
USER: genes 2 Torsion [C]-CA--N-[C] |==|  0.18333
USER: genes 3 Torsion [N]-C--CA-[N] |==|  0.46556
USER: genes 4 Torsion [C]-CA--CB-[CG] |==|  0.29301
USER: genes 5 Torsion [CA]-CB--CG-[CD2] |==|  0.59041
USER: genes 6 Torsion [C]-CA--N-[C] |==|  0.82112
USER: genes 7 Torsion [N]-CA--C-[N] |==|  0.16526
USER: genes 8 Torsion [C]-N--CA-[CB] |==|  0.53019
USER: genes 9 Torsion [N]-CA--CB-[CG2] |==|  0.77425
USER: genes 10 Torsion [CA]-CB--OG1-[HG1] |==|  0.86080
USER: genes 11 Torsion [N]-CA--C-[N] |==|  0.83219
USER: genes 12 Torsion [C]-N--CA-[C] |==|  0.60395
USER: genes 13 Torsion [N]-CA--C-[N] |==|  0.08865
USER: genes 14 Torsion [N]-CA--CB-[CG] |==|  0.86170
USER: genes 15 Torsion [CA]-CB--CG-[ND1] |==|  0.00179
ROOT
ATOM      1  CA  HIS C   2      21.770   2.252  48.519  1.00 11.69 LIG 0.18  C 
ENDROOT
BRANCH 1 2
ATOM      2  N   HIS C   2      21.993   1.223  47.504  1.00 10.87 LIG-0.35  N 
ATOM      3 H    HIS C   2      21.330   0.691  47.376  1.00 10.87 LIG 0.16  HD
ATOM      4  C   PHE C   1      23.148   1.153  46.852  1.00 11.47 LIG 0.24  C 
ATOM      5 O    PHE C   1      24.041   2.013  46.964  1.00 12.97 LIG-0.27  OA
BRANCH 4 6
ATOM      6  CA  PHE C   1      23.307  -0.038  45.904  1.00 11.05 LIG 0.18  C 
BRANCH 6 7
ATOM      7  CB  PHE C   1      23.437  -1.338  46.703  1.00 10.09 LIG 0.07  C 
BRANCH 7 8
ATOM      8  CG  PHE C   1      22.202  -2.186  46.671  1.00  8.73 LIG-0.06  A 
ATOM      9  CD2 PHE C   1      21.855  -2.964  47.751  1.00  8.91 LIG 0.01  A 
ATOM     10  CE2 PHE C   1      20.722  -3.749  47.707  1.00  8.44 LIG 0.00  A 
ATOM     11  CZ  PHE C   1      19.937  -3.767  46.570  1.00  8.32 LIG 0.00  A 
ATOM     12  CE1 PHE C   1      20.273  -2.982  45.489  1.00  8.07 LIG 0.00  A 
ATOM     13  CD1 PHE C   1      21.407  -2.210  45.539  1.00  8.33 LIG 0.01  A 
ENDBRANCH 7 8
ENDBRANCH 6 7
BRANCH 6 14
ATOM     14  N   PHE C   1      24.455   0.134  45.042  1.00 11.54 LIG-0.35  N 
ATOM     15 H    PHE C   1      25.068  -0.455  45.173  1.00 11.54 LIG 0.16  HD
ATOM     16  C   ACE C   0      24.569   1.094  44.138  1.00 13.21 LIG 0.21  C 
ATOM     17  CH3 ACE C   0      25.890   1.278  43.448  1.00 13.47 LIG 0.12  C 
ATOM     18 O    ACE C   0      23.652   1.911  44.077  1.00 14.75 LIG-0.27  OA
ENDBRANCH 6 14
ENDBRANCH 4 6
ENDBRANCH 1 2
BRANCH 1 19
ATOM     19  C   HIS C   2      21.765   3.591  47.835  1.00 11.19 LIG 0.24  C 
ATOM     20  N   THR C   3      20.849   3.768  46.893  1.00 11.67 LIG-0.34  N 
ATOM     21 H    THR C   3      20.298   3.162  46.628  1.00 11.67 LIG 0.16  HD
ATOM     22 O    HIS C   2      22.543   4.478  48.178  1.00 11.10 LIG-0.27  OA
BRANCH 20 23
ATOM     23  CA  THR C   3      20.719   5.048  46.228  1.00 11.71 LIG 0.20  C 
BRANCH 23 24
ATOM     24  CB  THR C   3      19.431   5.128  45.365  1.00 13.34 LIG 0.15  C 
ATOM     25  CG2 THR C   3      19.613   4.464  44.022  1.00 14.42 LIG 0.04  C 
BRANCH 24 26
ATOM     26 OG1  THR C   3      18.375   4.475  46.064  1.00 13.01 LIG-0.39  OA
ATOM     27 HG1  THR C   3      18.633   3.715  46.314  1.00 13.01 LIG 0.21  HD
ENDBRANCH 24 26
ENDBRANCH 23 24
BRANCH 23 28
ATOM     28  C   THR C   3      20.781   6.192  47.251  1.00 11.33 LIG 0.24  C 
ATOM     29  N   ALA C   4      19.842   6.200  48.195  1.00 10.31 LIG-0.35  N 
ATOM     30 H    ALA C   4      19.153   5.686  48.201  1.00 10.31 LIG 0.16  HD
ATOM     31 O    THR C   3      21.665   7.056  47.185  1.00 11.88 LIG-0.27  OA
BRANCH 29 32
ATOM     32  CA  ALA C   4      19.932   7.119  49.323  1.00 10.35 LIG 0.18  C 
ATOM     33  CB  ALA C   4      19.156   8.412  49.032  1.00 10.31 LIG 0.04  C 
BRANCH 32 34
ATOM     34  C   ALA C   4      19.436   6.450  50.630  1.00 10.99 LIG 0.28  C 
ATOM     35 O    ALA C   4      18.883   7.111  51.502  0.79 11.43 LIG-0.27  OA
ATOM     36  N   NH2 C   5      19.633   5.141  50.751  0.91 10.97 LIG-0.11  N 
ENDBRANCH 32 34
ENDBRANCH 29 32
ENDBRANCH 23 28
ENDBRANCH 20 23
ENDBRANCH 1 19
BRANCH 1 37
ATOM     37  CB  HIS C   2      22.884   2.285  49.555  1.00 14.08 LIG 0.10  C 
BRANCH 37 38
ATOM     38  CG  HIS C   2      23.214   0.955  50.131  1.00 15.42 LIG 0.06  A 
ATOM     39  CD2 HIS C   2      24.122   0.610  51.068  1.00 15.59 LIG 0.14  A 
ATOM     40 NE2  HIS C   2      24.028  -0.750  51.244  1.00 17.02 LIG-0.25  NA
ATOM     41  CE1 HIS C   2      23.089  -1.220  50.444  1.00 16.99 LIG 0.23  A 
ATOM     42 ND1  HIS C   2      22.582  -0.212  49.758  0.48 15.92 LIG-0.24  NA
ENDBRANCH 37 38
ENDBRANCH 1 37
TORSDOF 14
ENDMDL
MODEL 8
USER: ADFR SOLUTION from run 112
USER: SCORE 12.496152 LL:  -3.022 LR: -11.259 RR:   0.000 FEB:  -7.083
USER: RMSD 4.594350
USER: SEED 111
USER: STATUS no improvement in best in 6 clusters for 5 generations
USER: GENES 16
USER: genes 0 Translation |==|  0.64348 0.57145 0.39711
USER: genes 1 Rotation |==|  0.40016 0.70648 0.65868 0.91499
USER: genes 2 Torsion [C]-CA--N-[C] |==|  0.78897
USER: genes 3 Torsion [N]-C--CA-[N] |==|  0.53146
USER: genes 4 Torsion [C]-CA--CB-[CG] |==|  0.42306
USER: genes 5 Torsion [CA]-CB--CG-[CD2] |==|  0.53273
USER: genes 6 Torsion [C]-CA--N-[C] |==|  0.69101
USER: genes 7 Torsion [N]-CA--C-[N] |==|  0.92429
USER: genes 8 Torsion [C]-N--CA-[CB] |==|  0.26076
USER: genes 9 Torsion [N]-CA--CB-[CG2] |==|  0.81478
USER: genes 10 Torsion [CA]-CB--OG1-[HG1] |==|  0.85488
USER: genes 11 Torsion [N]-CA--C-[N] |==|  0.43893
USER: genes 12 Torsion [C]-N--CA-[C] |==|  0.74823
USER: genes 13 Torsion [N]-CA--C-[N] |==|  0.47029
USER: genes 14 Torsion [N]-CA--CB-[CG] |==|  0.78993
USER: genes 15 Torsion [CA]-CB--CG-[ND1] |==|  0.48245
ROOT
ATOM      1  CA  HIS C   2      27.575   3.766  40.844  1.00 11.69 LIG 0.18  C 
ENDROOT
BRANCH 1 2
ATOM      2  N   HIS C   2      26.977   2.651  40.109  1.00 10.87 LIG-0.35  N 
ATOM      3 H    HIS C   2      26.276   2.852  39.654  1.00 10.87 LIG 0.16  HD
ATOM      4  C   PHE C   1      27.511   1.437  40.168  1.00 11.47 LIG 0.24  C 
ATOM      5 O    PHE C   1      28.596   1.201  40.728  1.00 12.97 LIG-0.27  OA
BRANCH 4 6
ATOM      6  CA  PHE C   1      26.728   0.330  39.457  1.00 11.05 LIG 0.18  C 
BRANCH 6 7
ATOM      7  CB  PHE C   1      25.241   0.419  39.816  1.00 10.09 LIG 0.07  C 
BRANCH 7 8
ATOM      8  CG  PHE C   1      24.336  -0.121  38.750  1.00  8.73 LIG-0.06  A 
ATOM      9  CD2 PHE C   1      22.979   0.099  38.802  1.00  8.91 LIG 0.01  A 
ATOM     10  CE2 PHE C   1      22.154  -0.413  37.822  1.00  8.44 LIG 0.00  A 
ATOM     11  CZ  PHE C   1      22.687  -1.162  36.791  1.00  8.32 LIG 0.00  A 
ATOM     12  CE1 PHE C   1      24.047  -1.377  36.728  1.00  8.07 LIG 0.00  A 
ATOM     13  CD1 PHE C   1      24.859  -0.871  37.712  1.00  8.33 LIG 0.01  A 
ENDBRANCH 7 8
ENDBRANCH 6 7
BRANCH 6 14
ATOM     14  N   PHE C   1      27.244  -0.976  39.802  1.00 11.54 LIG-0.35  N 
ATOM     15 H    PHE C   1      27.095  -1.194  40.620  1.00 11.54 LIG 0.16  HD
ATOM     16  C   ACE C   0      27.885  -1.768  38.957  1.00 13.21 LIG 0.21  C 
ATOM     17  CH3 ACE C   0      28.540  -3.009  39.491  1.00 13.47 LIG 0.12  C 
ATOM     18 O    ACE C   0      28.087  -1.326  37.827  1.00 14.75 LIG-0.27  OA
ENDBRANCH 6 14
ENDBRANCH 4 6
ENDBRANCH 1 2
BRANCH 1 19
ATOM     19  C   HIS C   2      27.216   3.615  42.296  1.00 11.19 LIG 0.24  C 
ATOM     20  N   THR C   3      26.088   2.968  42.560  1.00 11.67 LIG-0.34  N 
ATOM     21 H    THR C   3      25.543   2.674  41.962  1.00 11.67 LIG 0.16  HD
ATOM     22 O    HIS C   2      27.962   4.030  43.178  1.00 11.10 LIG-0.27  OA
BRANCH 20 23
ATOM     23  CA  THR C   3      25.694   2.710  43.929  1.00 11.71 LIG 0.20  C 
BRANCH 23 24
ATOM     24  CB  THR C   3      24.747   3.809  44.480  1.00 13.34 LIG 0.15  C 
ATOM     25  CG2 THR C   3      25.448   5.138  44.612  1.00 14.42 LIG 0.04  C 
BRANCH 24 26
ATOM     26 OG1  THR C   3      23.649   3.953  43.585  1.00 13.01 LIG-0.39  OA
ATOM     27 HG1  THR C   3      23.937   4.070  42.805  1.00 13.01 LIG 0.21  HD
ENDBRANCH 24 26
ENDBRANCH 23 24
BRANCH 23 28
ATOM     28  C   THR C   3      25.064   1.313  44.051  1.00 11.33 LIG 0.24  C 
ATOM     29  N   ALA C   4      25.070   0.761  45.262  1.00 10.31 LIG-0.35  N 
ATOM     30 H    ALA C   4      25.496   1.076  45.939  1.00 10.31 LIG 0.16  HD
ATOM     31 O    THR C   3      24.581   0.745  43.063  1.00 11.88 LIG-0.27  OA
BRANCH 29 32
ATOM     32  CA  ALA C   4      24.321  -0.463  45.523  1.00 10.35 LIG 0.18  C 
ATOM     33  CB  ALA C   4      25.063  -1.346  46.538  1.00 10.31 LIG 0.04  C 
BRANCH 32 34
ATOM     34  C   ALA C   4      22.881  -0.146  46.002  1.00 10.99 LIG 0.28  C 
ATOM     35 O    ALA C   4      22.557   0.998  46.300  0.79 11.43 LIG-0.27  OA
ATOM     36  N   NH2 C   5      22.027  -1.163  46.064  0.91 10.97 LIG-0.11  N 
ENDBRANCH 32 34
ENDBRANCH 29 32
ENDBRANCH 23 28
ENDBRANCH 20 23
ENDBRANCH 1 19
BRANCH 1 37
ATOM     37  CB  HIS C   2      27.027   5.110  40.388  1.00 14.08 LIG 0.10  C 
BRANCH 37 38
ATOM     38  CG  HIS C   2      27.565   5.571  39.081  1.00 15.42 LIG 0.06  A 
ATOM     39  CD2 HIS C   2      28.533   5.047  38.301  1.00 15.59 LIG 0.14  A 
ATOM     40 NE2  HIS C   2      28.649   5.857  37.197  1.00 17.02 LIG-0.25  NA
ATOM     41  CE1 HIS C   2      27.777   6.842  37.296  1.00 16.99 LIG 0.23  A 
ATOM     42 ND1  HIS C   2      27.110   6.696  38.427  0.48 15.92 LIG-0.24  NA
ENDBRANCH 37 38
ENDBRANCH 1 37
TORSDOF 14
ENDMDL
MODEL 9
USER: ADFR SOLUTION from run 52
USER: SCORE 11.830553 LL:  -3.255 LR: -11.232 RR:   0.000 FEB:  -7.056
USER: RMSD 9.061922
USER: SEED 51
USER: STATUS no improvement in best in 17 clusters for 5 generations
USER: GENES 16
USER: genes 0 Translation |==|  0.53225 0.42758 0.46690
USER: genes 1 Rotation |==|  0.07342 0.24677 0.43754 0.50117
USER: genes 2 Torsion [C]-CA--N-[C] |==|  0.65442
USER: genes 3 Torsion [N]-C--CA-[N] |==|  0.07777
USER: genes 4 Torsion [C]-CA--CB-[CG] |==|  0.27196
USER: genes 5 Torsion [CA]-CB--CG-[CD2] |==|  0.33430
USER: genes 6 Torsion [C]-CA--N-[C] |==|  0.68972
USER: genes 7 Torsion [N]-CA--C-[N] |==|  0.37756
USER: genes 8 Torsion [C]-N--CA-[CB] |==|  0.43188
USER: genes 9 Torsion [N]-CA--CB-[CG2] |==|  0.51528
USER: genes 10 Torsion [CA]-CB--OG1-[HG1] |==|  0.06053
USER: genes 11 Torsion [N]-CA--C-[N] |==|  0.20479
USER: genes 12 Torsion [C]-N--CA-[C] |==|  0.60080
USER: genes 13 Torsion [N]-CA--C-[N] |==|  0.71261
USER: genes 14 Torsion [N]-CA--CB-[CG] |==|  0.49105
USER: genes 15 Torsion [CA]-CB--CG-[ND1] |==|  0.11803
ROOT
ATOM      1  CA  HIS C   2      25.406   1.392  42.257  1.00 11.69 LIG 0.18  C 
ENDROOT
BRANCH 1 2
ATOM      2  N   HIS C   2      24.778   1.302  43.575  1.00 10.87 LIG-0.35  N 
ATOM      3 H    HIS C   2      24.902   0.556  43.984  1.00 10.87 LIG 0.16  HD
ATOM      4  C   PHE C   1      24.078   2.319  44.064  1.00 11.47 LIG 0.24  C 
ATOM      5 O    PHE C   1      24.023   3.430  43.508  1.00 12.97 LIG-0.27  OA
BRANCH 4 6
ATOM      6  CA  PHE C   1      23.370   2.060  45.396  1.00 11.05 LIG 0.18  C 
BRANCH 6 7
ATOM      7  CB  PHE C   1      23.249   3.362  46.193  1.00 10.09 LIG 0.07  C 
BRANCH 7 8
ATOM      8  CG  PHE C   1      21.914   4.027  46.054  1.00  8.73 LIG-0.06  A 
ATOM      9  CD2 PHE C   1      21.121   4.253  47.155  1.00  8.91 LIG 0.01  A 
ATOM     10  CE2 PHE C   1      19.889   4.856  47.013  1.00  8.44 LIG 0.00  A 
ATOM     11  CZ  PHE C   1      19.439   5.223  45.760  1.00  8.32 LIG 0.00  A 
ATOM     12  CE1 PHE C   1      20.232   5.009  44.654  1.00  8.07 LIG 0.00  A 
ATOM     13  CD1 PHE C   1      21.453   4.401  44.804  1.00  8.33 LIG 0.01  A 
ENDBRANCH 7 8
ENDBRANCH 6 7
BRANCH 6 14
ATOM     14  N   PHE C   1      24.073   1.064  46.173  1.00 11.54 LIG-0.35  N 
ATOM     15 H    PHE C   1      24.837   1.335  46.459  1.00 11.54 LIG 0.16  HD
ATOM     16  C   ACE C   0      23.603  -0.146  46.429  1.00 13.21 LIG 0.21  C 
ATOM     17  CH3 ACE C   0      24.513  -1.148  47.080  1.00 13.47 LIG 0.12  C 
ATOM     18 O    ACE C   0      22.521  -0.441  45.923  1.00 14.75 LIG-0.27  OA
ENDBRANCH 6 14
ENDBRANCH 4 6
ENDBRANCH 1 2
BRANCH 1 19
ATOM     19  C   HIS C   2      24.918   0.237  41.426  1.00 11.19 LIG 0.24  C 
ATOM     20  N   THR C   3      24.571   0.515  40.177  1.00 11.67 LIG-0.34  N 
ATOM     21 H    THR C   3      24.569   1.305  39.835  1.00 11.67 LIG 0.16  HD
ATOM     22 O    HIS C   2      24.895  -0.903  41.881  1.00 11.10 LIG-0.27  OA
BRANCH 20 23
ATOM     23  CA  THR C   3      24.158  -0.542  39.278  1.00 11.71 LIG 0.20  C 
BRANCH 23 24
ATOM     24  CB  THR C   3      23.247  -0.014  38.137  1.00 13.34 LIG 0.15  C 
ATOM     25  CG2 THR C   3      22.712  -1.136  37.282  1.00 14.42 LIG 0.04  C 
BRANCH 24 26
ATOM     26 OG1  THR C   3      22.152   0.687  38.718  1.00 13.01 LIG-0.39  OA
ATOM     27 HG1  THR C   3      22.357   0.933  39.495  1.00 13.01 LIG 0.21  HD
ENDBRANCH 24 26
ENDBRANCH 23 24
BRANCH 23 28
ATOM     28  C   THR C   3      25.383  -1.282  38.721  1.00 11.33 LIG 0.24  C 
ATOM     29  N   ALA C   4      26.018  -2.100  39.558  1.00 10.31 LIG-0.35  N 
ATOM     30 H    ALA C   4      25.861  -2.150  40.402  1.00 10.31 LIG 0.16  HD
ATOM     31 O    THR C   3      25.748  -1.116  37.550  1.00 11.88 LIG-0.27  OA
BRANCH 29 32
ATOM     32  CA  ALA C   4      27.061  -2.996  39.073  1.00 10.35 LIG 0.18  C 
ATOM     33  CB  ALA C   4      28.441  -2.333  39.188  1.00 10.31 LIG 0.04  C 
BRANCH 32 34
ATOM     34  C   ALA C   4      27.026  -4.352  39.823  1.00 10.99 LIG 0.28  C 
ATOM     35 O    ALA C   4      26.179  -5.196  39.552  0.79 11.43 LIG-0.27  OA
ATOM     36  N   NH2 C   5      27.952  -4.552  40.754  0.91 10.97 LIG-0.11  N 
ENDBRANCH 32 34
ENDBRANCH 29 32
ENDBRANCH 23 28
ENDBRANCH 20 23
ENDBRANCH 1 19
BRANCH 1 37
ATOM     37  CB  HIS C   2      26.921   1.275  42.335  1.00 14.08 LIG 0.10  C 
BRANCH 37 38
ATOM     38  CG  HIS C   2      27.598   1.285  41.012  1.00 15.42 LIG 0.06  A 
ATOM     39  CD2 HIS C   2      28.615   0.532  40.545  1.00 15.59 LIG 0.14  A 
ATOM     40 NE2  HIS C   2      28.865   0.940  39.256  1.00 17.02 LIG-0.25  NA
ATOM     41  CE1 HIS C   2      28.025   1.908  38.944  1.00 16.99 LIG 0.23  A 
ATOM     42 ND1  HIS C   2      27.249   2.139  39.987  0.48 15.92 LIG-0.24  NA
ENDBRANCH 37 38
ENDBRANCH 1 37
TORSDOF 14
ENDMDL
MODEL 10
USER: ADFR SOLUTION from run 181
USER: SCORE 12.389112 LL:  -3.081 LR: -11.157 RR:   0.000 FEB:  -6.980
USER: RMSD 9.895916
USER: SEED 180
USER: STATUS no improvement in best in 35 clusters for 5 generations
USER: GENES 16
USER: genes 0 Translation |==|  0.45976 0.42679 0.63184
USER: genes 1 Rotation |==|  0.12798 0.65531 0.20435 0.50857
USER: genes 2 Torsion [C]-CA--N-[C] |==|  0.66539
USER: genes 3 Torsion [N]-C--CA-[N] |==|  0.97583
USER: genes 4 Torsion [C]-CA--CB-[CG] |==|  0.41760
USER: genes 5 Torsion [CA]-CB--CG-[CD2] |==|  0.03862
USER: genes 6 Torsion [C]-CA--N-[C] |==|  0.73629
USER: genes 7 Torsion [N]-CA--C-[N] |==|  0.57621
USER: genes 8 Torsion [C]-N--CA-[CB] |==|  0.26629
USER: genes 9 Torsion [N]-CA--CB-[CG2] |==|  0.41728
USER: genes 10 Torsion [CA]-CB--OG1-[HG1] |==|  0.99418
USER: genes 11 Torsion [N]-CA--C-[N] |==|  0.36983
USER: genes 12 Torsion [C]-N--CA-[C] |==|  0.78821
USER: genes 13 Torsion [N]-CA--C-[N] |==|  0.43219
USER: genes 14 Torsion [N]-CA--CB-[CG] |==|  0.84364
USER: genes 15 Torsion [CA]-CB--CG-[ND1] |==|  0.93414
ROOT
ATOM      1  CA  HIS C   2      23.992   1.379  45.597  1.00 11.69 LIG 0.18  C 
ENDROOT
BRANCH 1 2
ATOM      2  N   HIS C   2      22.867   2.175  46.086  1.00 10.87 LIG-0.35  N 
ATOM      3 H    HIS C   2      22.149   2.114  45.617  1.00 10.87 LIG 0.16  HD
ATOM      4  C   PHE C   1      22.989   2.922  47.177  1.00 11.47 LIG 0.24  C 
ATOM      5 O    PHE C   1      23.995   2.892  47.908  1.00 12.97 LIG-0.27  OA
BRANCH 4 6
ATOM      6  CA  PHE C   1      21.784   3.802  47.519  1.00 11.05 LIG 0.18  C 
BRANCH 6 7
ATOM      7  CB  PHE C   1      21.137   3.331  48.826  1.00 10.09 LIG 0.07  C 
BRANCH 7 8
ATOM      8  CG  PHE C   1      20.475   4.432  49.596  1.00  8.73 LIG-0.06  A 
ATOM      9  CD2 PHE C   1      20.228   5.652  49.009  1.00  8.91 LIG 0.01  A 
ATOM     10  CE2 PHE C   1      19.628   6.662  49.730  1.00  8.44 LIG 0.00  A 
ATOM     11  CZ  PHE C   1      19.284   6.457  51.052  1.00  8.32 LIG 0.00  A 
ATOM     12  CE1 PHE C   1      19.518   5.235  51.644  1.00  8.07 LIG 0.00  A 
ATOM     13  CD1 PHE C   1      20.124   4.238  50.920  1.00  8.33 LIG 0.01  A 
ENDBRANCH 7 8
ENDBRANCH 6 7
BRANCH 6 14
ATOM     14  N   PHE C   1      20.811   3.789  46.450  1.00 11.54 LIG-0.35  N 
ATOM     15 H    PHE C   1      20.266   3.127  46.496  1.00 11.54 LIG 0.16  HD
ATOM     16  C   ACE C   0      20.751   4.698  45.489  1.00 13.21 LIG 0.21  C 
ATOM     17  CH3 ACE C   0      19.822   4.462  44.334  1.00 13.47 LIG 0.12  C 
ATOM     18 O    ACE C   0      21.617   5.572  45.496  1.00 14.75 LIG-0.27  OA
ENDBRANCH 6 14
ENDBRANCH 4 6
ENDBRANCH 1 2
BRANCH 1 19
ATOM     19  C   HIS C   2      24.315   1.834  44.200  1.00 11.19 LIG 0.24  C 
ATOM     20  N   THR C   3      24.871   0.934  43.401  1.00 11.67 LIG-0.34  N 
ATOM     21 H    THR C   3      25.091   0.137  43.642  1.00 11.67 LIG 0.16  HD
ATOM     22 O    HIS C   2      24.027   2.967  43.822  1.00 11.10 LIG-0.27  OA
BRANCH 20 23
ATOM     23  CA  THR C   3      25.153   1.255  42.018  1.00 11.71 LIG 0.20  C 
BRANCH 23 24
ATOM     24  CB  THR C   3      26.619   1.721  41.814  1.00 13.34 LIG 0.15  C 
ATOM     25  CG2 THR C   3      27.132   1.374  40.438  1.00 14.42 LIG 0.04  C 
BRANCH 24 26
ATOM     26 OG1  THR C   3      26.675   3.134  41.985  1.00 13.01 LIG-0.39  OA
ATOM     27 HG1  THR C   3      25.902   3.429  42.132  1.00 13.01 LIG 0.21  HD
ENDBRANCH 24 26
ENDBRANCH 23 24
BRANCH 23 28
ATOM     28  C   THR C   3      24.811   0.063  41.110  1.00 11.33 LIG 0.24  C 
ATOM     29  N   ALA C   4      24.106   0.332  40.013  1.00 10.31 LIG-0.35  N 
ATOM     30 H    ALA C   4      23.739   1.091  39.844  1.00 10.31 LIG 0.16  HD
ATOM     31 O    THR C   3      25.181  -1.082  41.399  1.00 11.88 LIG-0.27  OA
BRANCH 29 32
ATOM     32  CA  ALA C   4      23.908  -0.688  38.990  1.00 10.35 LIG 0.18  C 
ATOM     33  CB  ALA C   4      22.697  -0.344  38.110  1.00 10.31 LIG 0.04  C 
BRANCH 32 34
ATOM     34  C   ALA C   4      25.186  -0.879  38.136  1.00 10.99 LIG 0.28  C 
ATOM     35 O    ALA C   4      26.013   0.020  38.035  0.79 11.43 LIG-0.27  OA
ATOM     36  N   NH2 C   5      25.341  -2.054  37.533  0.91 10.97 LIG-0.11  N 
ENDBRANCH 32 34
ENDBRANCH 29 32
ENDBRANCH 23 28
ENDBRANCH 20 23
ENDBRANCH 1 19
BRANCH 1 37
ATOM     37  CB  HIS C   2      23.652  -0.102  45.514  1.00 14.08 LIG 0.10  C 
BRANCH 37 38
ATOM     38  CG  HIS C   2      23.184  -0.687  46.798  1.00 15.42 LIG 0.06  A 
ATOM     39  CD2 HIS C   2      22.421  -1.775  47.035  1.00 15.59 LIG 0.14  A 
ATOM     40 NE2  HIS C   2      22.278  -1.882  48.398  1.00 17.02 LIG-0.25  NA
ATOM     41  CE1 HIS C   2      22.937  -0.894  48.975  1.00 16.99 LIG 0.23  A 
ATOM     42 ND1  HIS C   2      23.491  -0.155  48.032  0.48 15.92 LIG-0.24  NA
ENDBRANCH 37 38
ENDBRANCH 1 37
TORSDOF 14
ENDMDL
MODEL 11
USER: ADFR SOLUTION from run 176
USER: SCORE 13.262719 LL:  -3.032 LR: -11.091 RR:   0.000 FEB:  -6.914
USER: RMSD 6.874275
USER: SEED 175
USER: STATUS no improvement in best in 14 clusters for 5 generations
USER: GENES 16
USER: genes 0 Translation |==|  0.32791 0.49872 0.77761
USER: genes 1 Rotation |==|  0.43742 0.27988 0.24742 0.86584
USER: genes 2 Torsion [C]-CA--N-[C] |==|  0.18914
USER: genes 3 Torsion [N]-C--CA-[N] |==|  0.49440
USER: genes 4 Torsion [C]-CA--CB-[CG] |==|  0.32130
USER: genes 5 Torsion [CA]-CB--CG-[CD2] |==|  0.42156
USER: genes 6 Torsion [C]-CA--N-[C] |==|  0.80987
USER: genes 7 Torsion [N]-CA--C-[N] |==|  0.03333
USER: genes 8 Torsion [C]-N--CA-[CB] |==|  0.84930
USER: genes 9 Torsion [N]-CA--CB-[CG2] |==|  0.46670
USER: genes 10 Torsion [CA]-CB--OG1-[HG1] |==|  0.14471
USER: genes 11 Torsion [N]-CA--C-[N] |==|  0.35071
USER: genes 12 Torsion [C]-N--CA-[C] |==|  0.69632
USER: genes 13 Torsion [N]-CA--C-[N] |==|  0.02775
USER: genes 14 Torsion [N]-CA--CB-[CG] |==|  0.84336
USER: genes 15 Torsion [CA]-CB--CG-[ND1] |==|  0.47436
ROOT
ATOM      1  CA  HIS C   2      21.421   2.566  48.549  1.00 11.69 LIG 0.18  C 
ENDROOT
BRANCH 1 2
ATOM      2  N   HIS C   2      21.862   1.569  47.573  1.00 10.87 LIG-0.35  N 
ATOM      3 H    HIS C   2      21.346   0.887  47.494  1.00 10.87 LIG 0.16  HD
ATOM      4  C   PHE C   1      22.984   1.746  46.884  1.00 11.47 LIG 0.24  C 
ATOM      5 O    PHE C   1      23.644   2.799  46.924  1.00 12.97 LIG-0.27  OA
BRANCH 4 6
ATOM      6  CA  PHE C   1      23.403   0.580  45.985  1.00 11.05 LIG 0.18  C 
BRANCH 6 7
ATOM      7  CB  PHE C   1      23.617  -0.685  46.823  1.00 10.09 LIG 0.07  C 
BRANCH 7 8
ATOM      8  CG  PHE C   1      22.654  -1.786  46.499  1.00  8.73 LIG-0.06  A 
ATOM      9  CD2 PHE C   1      23.005  -3.104  46.679  1.00  8.91 LIG 0.01  A 
ATOM     10  CE2 PHE C   1      22.115  -4.110  46.368  1.00  8.44 LIG 0.00  A 
ATOM     11  CZ  PHE C   1      20.869  -3.798  45.858  1.00  8.32 LIG 0.00  A 
ATOM     12  CE1 PHE C   1      20.507  -2.480  45.685  1.00  8.07 LIG 0.00  A 
ATOM     13  CD1 PHE C   1      21.403  -1.486  45.990  1.00  8.33 LIG 0.01  A 
ENDBRANCH 7 8
ENDBRANCH 6 7
BRANCH 6 14
ATOM     14  N   PHE C   1      24.607   0.898  45.249  1.00 11.54 LIG-0.35  N 
ATOM     15 H    PHE C   1      25.287   0.435  45.498  1.00 11.54 LIG 0.16  HD
ATOM     16  C   ACE C   0      24.671   1.805  44.288  1.00 13.21 LIG 0.21  C 
ATOM     17  CH3 ACE C   0      26.019   2.177  43.740  1.00 13.47 LIG 0.12  C 
ATOM     18 O    ACE C   0      23.645   2.441  44.055  1.00 14.75 LIG-0.27  OA
ENDBRANCH 6 14
ENDBRANCH 4 6
ENDBRANCH 1 2
BRANCH 1 19
ATOM     19  C   HIS C   2      21.026   3.810  47.801  1.00 11.19 LIG 0.24  C 
ATOM     20  N   THR C   3      20.909   3.693  46.485  1.00 11.67 LIG-0.34  N 
ATOM     21 H    THR C   3      21.082   2.977  46.041  1.00 11.67 LIG 0.16  HD
ATOM     22 O    HIS C   2      20.782   4.855  48.398  1.00 11.10 LIG-0.27  OA
BRANCH 20 23
ATOM     23  CA  THR C   3      20.464   4.816  45.686  1.00 11.71 LIG 0.20  C 
BRANCH 23 24
ATOM     24  CB  THR C   3      19.112   5.389  46.189  1.00 13.34 LIG 0.15  C 
ATOM     25  CG2 THR C   3      18.795   6.719  45.552  1.00 14.42 LIG 0.04  C 
BRANCH 24 26
ATOM     26 OG1  THR C   3      18.079   4.463  45.865  1.00 13.01 LIG-0.39  OA
ATOM     27 HG1  THR C   3      18.287   3.700  46.147  1.00 13.01 LIG 0.21  HD
ENDBRANCH 24 26
ENDBRANCH 23 24
BRANCH 23 28
ATOM     28  C   THR C   3      21.549   5.902  45.636  1.00 11.33 LIG 0.24  C 
ATOM     29  N   ALA C   4      21.928   6.312  44.427  1.00 10.31 LIG-0.35  N 
ATOM     30 H    ALA C   4      21.695   5.935  43.690  1.00 10.31 LIG 0.16  HD
ATOM     31 O    THR C   3      22.037   6.363  46.677  1.00 11.88 LIG-0.27  OA
BRANCH 29 32
ATOM     32  CA  ALA C   4      22.796   7.473  44.275  1.00 10.35 LIG 0.18  C 
ATOM     33  CB  ALA C   4      24.027   7.122  43.426  1.00 10.31 LIG 0.04  C 
BRANCH 32 34
ATOM     34  C   ALA C   4      22.024   8.674  43.673  1.00 10.99 LIG 0.28  C 
ATOM     35 O    ALA C   4      22.619   9.677  43.295  0.79 11.43 LIG-0.27  OA
ATOM     36  N   NH2 C   5      20.703   8.559  43.583  0.91 10.97 LIG-0.11  N 
ENDBRANCH 32 34
ENDBRANCH 29 32
ENDBRANCH 23 28
ENDBRANCH 20 23
ENDBRANCH 1 19
BRANCH 1 37
ATOM     37  CB  HIS C   2      22.535   2.959  49.508  1.00 14.08 LIG 0.10  C 
BRANCH 37 38
ATOM     38  CG  HIS C   2      23.131   1.813  50.245  1.00 15.42 LIG 0.06  A 
ATOM     39  CD2 HIS C   2      22.739   0.524  50.320  1.00 15.59 LIG 0.14  A 
ATOM     40 NE2  HIS C   2      23.636  -0.126  51.134  1.00 17.02 LIG-0.25  NA
ATOM     41  CE1 HIS C   2      24.548   0.736  51.539  1.00 16.99 LIG 0.23  A 
ATOM     42 ND1  HIS C   2      24.266   1.917  51.019  0.48 15.92 LIG-0.24  NA
ENDBRANCH 37 38
ENDBRANCH 1 37
TORSDOF 14
ENDMDL
MODEL 12
USER: ADFR SOLUTION from run 55
USER: SCORE 12.533810 LL:  -3.289 LR: -11.038 RR:   0.000 FEB:  -6.861
USER: RMSD 6.571386
USER: SEED 54
USER: STATUS no improvement in best in 18 clusters for 5 generations
USER: GENES 16
USER: genes 0 Translation |==|  0.70757 0.48076 0.26910
USER: genes 1 Rotation |==|  0.25189 0.68471 0.51613 0.89251
USER: genes 2 Torsion [C]-CA--N-[C] |==|  0.78879
USER: genes 3 Torsion [N]-C--CA-[N] |==|  0.41172
USER: genes 4 Torsion [C]-CA--CB-[CG] |==|  0.27929
USER: genes 5 Torsion [CA]-CB--CG-[CD2] |==|  0.04918
USER: genes 6 Torsion [C]-CA--N-[C] |==|  0.81744
USER: genes 7 Torsion [N]-CA--C-[N] |==|  0.48232
USER: genes 8 Torsion [C]-N--CA-[CB] |==|  0.82630
USER: genes 9 Torsion [N]-CA--CB-[CG2] |==|  0.50507
USER: genes 10 Torsion [CA]-CB--OG1-[HG1] |==|  0.14931
USER: genes 11 Torsion [N]-CA--C-[N] |==|  0.75000
USER: genes 12 Torsion [C]-N--CA-[C] |==|  0.57226
USER: genes 13 Torsion [N]-CA--C-[N] |==|  0.19937
USER: genes 14 Torsion [N]-CA--CB-[CG] |==|  0.66704
USER: genes 15 Torsion [CA]-CB--CG-[ND1] |==|  0.19952
ROOT
ATOM      1  CA  HIS C   2      28.825   2.270  38.251  1.00 11.69 LIG 0.18  C 
ENDROOT
BRANCH 1 2
ATOM      2  N   HIS C   2      28.129   0.984  38.221  1.00 10.87 LIG-0.35  N 
ATOM      3 H    HIS C   2      27.646   0.849  37.522  1.00 10.87 LIG 0.16  HD
ATOM      4  C   PHE C   1      28.260   0.118  39.220  1.00 11.47 LIG 0.24  C 
ATOM      5 O    PHE C   1      29.063   0.282  40.156  1.00 12.97 LIG-0.27  OA
BRANCH 4 6
ATOM      6  CA  PHE C   1      27.388  -1.137  39.132  1.00 11.05 LIG 0.18  C 
BRANCH 6 7
ATOM      7  CB  PHE C   1      26.037  -0.893  39.812  1.00 10.09 LIG 0.07  C 
BRANCH 7 8
ATOM      8  CG  PHE C   1      24.928  -0.596  38.849  1.00  8.73 LIG-0.06  A 
ATOM      9  CD2 PHE C   1      25.054  -0.905  37.515  1.00  8.91 LIG 0.01  A 
ATOM     10  CE2 PHE C   1      24.031  -0.617  36.636  1.00  8.44 LIG 0.00  A 
ATOM     11  CZ  PHE C   1      22.881  -0.002  37.090  1.00  8.32 LIG 0.00  A 
ATOM     12  CE1 PHE C   1      22.744   0.302  38.427  1.00  8.07 LIG 0.00  A 
ATOM     13  CD1 PHE C   1      23.771   0.018  39.294  1.00  8.33 LIG 0.01  A 
ENDBRANCH 7 8
ENDBRANCH 6 7
BRANCH 6 14
ATOM     14  N   PHE C   1      28.050  -2.272  39.735  1.00 11.54 LIG-0.35  N 
ATOM     15 H    PHE C   1      27.651  -2.562  40.439  1.00 11.54 LIG 0.16  HD
ATOM     16  C   ACE C   0      29.159  -2.822  39.265  1.00 13.21 LIG 0.21  C 
ATOM     17  CH3 ACE C   0      29.850  -3.867  40.092  1.00 13.47 LIG 0.12  C 
ATOM     18 O    ACE C   0      29.669  -2.288  38.282  1.00 14.75 LIG-0.27  OA
ENDBRANCH 6 14
ENDBRANCH 4 6
ENDBRANCH 1 2
BRANCH 1 19
ATOM     19  C   HIS C   2      28.096   3.174  39.207  1.00 11.19 LIG 0.24  C 
ATOM     20  N   THR C   3      28.665   4.345  39.460  1.00 11.67 LIG-0.34  N 
ATOM     21 H    THR C   3      29.428   4.594  39.149  1.00 11.67 LIG 0.16  HD
ATOM     22 O    HIS C   2      27.010   2.849  39.680  1.00 11.10 LIG-0.27  OA
BRANCH 20 23
ATOM     23  CA  THR C   3      28.005   5.312  40.311  1.00 11.71 LIG 0.20  C 
BRANCH 23 24
ATOM     24  CB  THR C   3      26.652   5.785  39.715  1.00 13.34 LIG 0.15  C 
ATOM     25  CG2 THR C   3      25.989   6.825  40.583  1.00 14.42 LIG 0.04  C 
BRANCH 24 26
ATOM     26 OG1  THR C   3      26.893   6.344  38.427  1.00 13.01 LIG-0.39  OA
ATOM     27 HG1  THR C   3      27.314   5.790  37.956  1.00 13.01 LIG 0.21  HD
ENDBRANCH 24 26
ENDBRANCH 23 24
BRANCH 23 28
ATOM     28  C   THR C   3      27.827   4.747  41.728  1.00 11.33 LIG 0.24  C 
ATOM     29  N   ALA C   4      26.700   4.080  41.967  1.00 10.31 LIG-0.35  N 
ATOM     30 H    ALA C   4      26.031   4.046  41.428  1.00 10.31 LIG 0.16  HD
ATOM     31 O    THR C   3      28.697   4.914  42.593  1.00 11.88 LIG-0.27  OA
BRANCH 29 32
ATOM     32  CA  ALA C   4      26.527   3.336  43.209  1.00 10.35 LIG 0.18  C 
ATOM     33  CB  ALA C   4      26.093   4.273  44.346  1.00 10.31 LIG 0.04  C 
BRANCH 32 34
ATOM     34  C   ALA C   4      25.522   2.171  43.027  1.00 10.99 LIG 0.28  C 
ATOM     35 O    ALA C   4      24.402   2.226  43.524  0.79 11.43 LIG-0.27  OA
ATOM     36  N   NH2 C   5      25.928   1.128  42.310  0.91 10.97 LIG-0.11  N 
ENDBRANCH 32 34
ENDBRANCH 29 32
ENDBRANCH 23 28
ENDBRANCH 20 23
ENDBRANCH 1 19
BRANCH 1 37
ATOM     37  CB  HIS C   2      28.814   2.957  36.894  1.00 14.08 LIG 0.10  C 
BRANCH 37 38
ATOM     38  CG  HIS C   2      30.168   3.209  36.333  1.00 15.42 LIG 0.06  A 
ATOM     39  CD2 HIS C   2      30.852   4.363  36.187  1.00 15.59 LIG 0.14  A 
ATOM     40 NE2  HIS C   2      32.061   4.048  35.613  1.00 17.02 LIG-0.25  NA
ATOM     41  CE1 HIS C   2      32.116   2.744  35.420  1.00 16.99 LIG 0.23  A 
ATOM     42 ND1  HIS C   2      30.984   2.212  35.843  0.48 15.92 LIG-0.24  NA
ENDBRANCH 37 38
ENDBRANCH 1 37
TORSDOF 14
ENDMDL
MODEL 13
USER: ADFR SOLUTION from run 68
USER: SCORE 12.966566 LL:  -3.053 LR: -11.001 RR:   0.000 FEB:  -6.825
USER: RMSD 9.436188
USER: SEED 67
USER: STATUS no improvement in best in 18 clusters for 5 generations
USER: GENES 16
USER: genes 0 Translation |==|  0.42090 0.37210 0.69991
USER: genes 1 Rotation |==|  0.19261 0.81360 0.28051 0.59479
USER: genes 2 Torsion [C]-CA--N-[C] |==|  0.86087
USER: genes 3 Torsion [N]-C--CA-[N] |==|  0.42029
USER: genes 4 Torsion [C]-CA--CB-[CG] |==|  0.55990
USER: genes 5 Torsion [CA]-CB--CG-[CD2] |==|  0.89712
USER: genes 6 Torsion [C]-CA--N-[C] |==|  0.82213
USER: genes 7 Torsion [N]-CA--C-[N] |==|  0.83942
USER: genes 8 Torsion [C]-N--CA-[CB] |==|  0.18889
USER: genes 9 Torsion [N]-CA--CB-[CG2] |==|  0.66213
USER: genes 10 Torsion [CA]-CB--OG1-[HG1] |==|  0.53578
USER: genes 11 Torsion [N]-CA--C-[N] |==|  0.99335
USER: genes 12 Torsion [C]-N--CA-[C] |==|  0.82498
USER: genes 13 Torsion [N]-CA--C-[N] |==|  0.45050
USER: genes 14 Torsion [N]-CA--CB-[CG] |==|  0.81990
USER: genes 15 Torsion [CA]-CB--CG-[ND1] |==|  0.45068
ROOT
ATOM      1  CA  HIS C   2      23.235   0.477  46.975  1.00 11.69 LIG 0.18  C 
ENDROOT
BRANCH 1 2
ATOM      2  N   HIS C   2      22.347   1.051  47.986  1.00 10.87 LIG-0.35  N 
ATOM      3 H    HIS C   2      21.550   0.728  47.993  1.00 10.87 LIG 0.16  HD
ATOM      4  C   PHE C   1      22.781   1.996  48.811  1.00 11.47 LIG 0.24  C 
ATOM      5 O    PHE C   1      23.972   2.352  48.865  1.00 12.97 LIG-0.27  OA
BRANCH 4 6
ATOM      6  CA  PHE C   1      21.728   2.603  49.742  1.00 11.05 LIG 0.18  C 
BRANCH 6 7
ATOM      7  CB  PHE C   1      21.003   3.757  49.041  1.00 10.09 LIG 0.07  C 
BRANCH 7 8
ATOM      8  CG  PHE C   1      20.350   4.716  49.988  1.00  8.73 LIG-0.06  A 
ATOM      9  CD2 PHE C   1      19.754   4.267  51.144  1.00  8.91 LIG 0.01  A 
ATOM     10  CE2 PHE C   1      19.146   5.158  52.004  1.00  8.44 LIG 0.00  A 
ATOM     11  CZ  PHE C   1      19.120   6.505  51.699  1.00  8.32 LIG 0.00  A 
ATOM     12  CE1 PHE C   1      19.724   6.963  50.549  1.00  8.07 LIG 0.00  A 
ATOM     13  CD1 PHE C   1      20.320   6.068  49.695  1.00  8.33 LIG 0.01  A 
ENDBRANCH 7 8
ENDBRANCH 6 7
BRANCH 6 14
ATOM     14  N   PHE C   1      22.328   3.068  50.972  1.00 11.54 LIG-0.35  N 
ATOM     15 H    PHE C   1      22.266   3.919  51.079  1.00 11.54 LIG 0.16  HD
ATOM     16  C   ACE C   0      22.917   2.279  51.856  1.00 13.21 LIG 0.21  C 
ATOM     17  CH3 ACE C   0      23.670   2.908  52.993  1.00 13.47 LIG 0.12  C 
ATOM     18 O    ACE C   0      22.992   1.084  51.571  1.00 14.75 LIG-0.27  OA
ENDBRANCH 6 14
ENDBRANCH 4 6
ENDBRANCH 1 2
BRANCH 1 19
ATOM     19  C   HIS C   2      23.880   1.608  46.223  1.00 11.19 LIG 0.24  C 
ATOM     20  N   THR C   3      23.060   2.461  45.625  1.00 11.67 LIG-0.34  N 
ATOM     21 H    THR C   3      22.203   2.384  45.607  1.00 11.67 LIG 0.16  HD
ATOM     22 O    HIS C   2      25.101   1.746  46.216  1.00 11.10 LIG-0.27  OA
BRANCH 20 23
ATOM     23  CA  THR C   3      23.584   3.622  44.937  1.00 11.71 LIG 0.20  C 
BRANCH 23 24
ATOM     24  CB  THR C   3      24.384   3.234  43.664  1.00 13.34 LIG 0.15  C 
ATOM     25  CG2 THR C   3      25.805   3.737  43.720  1.00 14.42 LIG 0.04  C 
BRANCH 24 26
ATOM     26 OG1  THR C   3      24.400   1.814  43.554  1.00 13.01 LIG-0.39  OA
ATOM     27 HG1  THR C   3      24.968   1.584  42.980  1.00 13.01 LIG 0.21  HD
ENDBRANCH 24 26
ENDBRANCH 23 24
BRANCH 23 28
ATOM     28  C   THR C   3      22.452   4.608  44.609  1.00 11.33 LIG 0.24  C 
ATOM     29  N   ALA C   4      21.220   4.235  44.947  1.00 10.31 LIG-0.35  N 
ATOM     30 H    ALA C   4      21.008   3.449  45.223  1.00 10.31 LIG 0.16  HD
ATOM     31 O    THR C   3      22.692   5.691  44.059  1.00 11.88 LIG-0.27  OA
BRANCH 29 32
ATOM     32  CA  ALA C   4      20.111   5.178  44.865  1.00 10.35 LIG 0.18  C 
ATOM     33  CB  ALA C   4      18.776   4.468  45.135  1.00 10.31 LIG 0.04  C 
BRANCH 32 34
ATOM     34  C   ALA C   4      20.318   6.370  45.834  1.00 10.99 LIG 0.28  C 
ATOM     35 O    ALA C   4      21.122   6.295  46.757  0.79 11.43 LIG-0.27  OA
ATOM     36  N   NH2 C   5      19.595   7.463  45.611  0.91 10.97 LIG-0.11  N 
ENDBRANCH 32 34
ENDBRANCH 29 32
ENDBRANCH 23 28
ENDBRANCH 20 23
ENDBRANCH 1 19
BRANCH 1 37
ATOM     37  CB  HIS C   2      22.475  -0.359  45.955  1.00 14.08 LIG 0.10  C 
BRANCH 37 38
ATOM     38  CG  HIS C   2      21.832  -1.572  46.525  1.00 15.42 LIG 0.06  A 
ATOM     39  CD2 HIS C   2      22.061  -2.217  47.688  1.00 15.59 LIG 0.14  A 
ATOM     40 NE2  HIS C   2      21.197  -3.285  47.738  1.00 17.02 LIG-0.25  NA
ATOM     41  CE1 HIS C   2      20.460  -3.289  46.643  1.00 16.99 LIG 0.23  A 
ATOM     42 ND1  HIS C   2      20.825  -2.267  45.890  0.48 15.92 LIG-0.24  NA
ENDBRANCH 37 38
ENDBRANCH 1 37
TORSDOF 14
ENDMDL
MODEL 14
USER: ADFR SOLUTION from run 150
USER: SCORE 12.789366 LL:  -2.974 LR: -10.994 RR:   0.000 FEB:  -6.818
USER: RMSD 2.278988
USER: SEED 149
USER: STATUS no improvement in best in 12 clusters for 5 generations
USER: GENES 16
USER: genes 0 Translation |==|  0.53866 0.46898 0.56208
USER: genes 1 Rotation |==|  0.52430 0.49810 0.43770 0.99550
USER: genes 2 Torsion [C]-CA--N-[C] |==|  0.74617
USER: genes 3 Torsion [N]-C--CA-[N] |==|  0.12778
USER: genes 4 Torsion [C]-CA--CB-[CG] |==|  0.48988
USER: genes 5 Torsion [CA]-CB--CG-[CD2] |==|  0.31391
USER: genes 6 Torsion [C]-CA--N-[C] |==|  0.17162
USER: genes 7 Torsion [N]-CA--C-[N] |==|  0.43200
USER: genes 8 Torsion [C]-N--CA-[CB] |==|  0.51583
USER: genes 9 Torsion [N]-CA--CB-[CG2] |==|  0.45030
USER: genes 10 Torsion [CA]-CB--OG1-[HG1] |==|  0.80129
USER: genes 11 Torsion [N]-CA--C-[N] |==|  0.32670
USER: genes 12 Torsion [C]-N--CA-[C] |==|  0.58764
USER: genes 13 Torsion [N]-CA--C-[N] |==|  0.44985
USER: genes 14 Torsion [N]-CA--CB-[CG] |==|  0.53422
USER: genes 15 Torsion [CA]-CB--CG-[ND1] |==|  0.71792
ROOT
ATOM      1  CA  HIS C   2      25.531   2.075  44.184  1.00 11.69 LIG 0.18  C 
ENDROOT
BRANCH 1 2
ATOM      2  N   HIS C   2      25.398   1.906  42.737  1.00 10.87 LIG-0.35  N 
ATOM      3 H    HIS C   2      25.490   2.627  42.279  1.00 10.87 LIG 0.16  HD
ATOM      4  C   PHE C   1      25.154   0.710  42.215  1.00 11.47 LIG 0.24  C 
ATOM      5 O    PHE C   1      25.153  -0.336  42.889  1.00 12.97 LIG-0.27  OA
BRANCH 4 6
ATOM      6  CA  PHE C   1      24.915   0.680  40.703  1.00 11.05 LIG 0.18  C 
BRANCH 6 7
ATOM      7  CB  PHE C   1      24.936  -0.764  40.191  1.00 10.09 LIG 0.07  C 
BRANCH 7 8
ATOM      8  CG  PHE C   1      24.623  -0.885  38.731  1.00  8.73 LIG-0.06  A 
ATOM      9  CD2 PHE C   1      25.583  -1.302  37.838  1.00  8.91 LIG 0.01  A 
ATOM     10  CE2 PHE C   1      25.287  -1.399  36.494  1.00  8.44 LIG 0.00  A 
ATOM     11  CZ  PHE C   1      24.027  -1.064  36.038  1.00  8.32 LIG 0.00  A 
ATOM     12  CE1 PHE C   1      23.058  -0.656  36.928  1.00  8.07 LIG 0.00  A 
ATOM     13  CD1 PHE C   1      23.364  -0.554  38.262  1.00  8.33 LIG 0.01  A 
ENDBRANCH 7 8
ENDBRANCH 6 7
BRANCH 6 14
ATOM     14  N   PHE C   1      25.905   1.469  40.005  1.00 11.54 LIG-0.35  N 
ATOM     15 H    PHE C   1      25.567   2.129  39.569  1.00 11.54 LIG 0.16  HD
ATOM     16  C   ACE C   0      27.204   1.217  40.024  1.00 13.21 LIG 0.21  C 
ATOM     17  CH3 ACE C   0      28.101   1.992  39.102  1.00 13.47 LIG 0.12  C 
ATOM     18 O    ACE C   0      27.566   0.214  40.639  1.00 14.75 LIG-0.27  OA
ENDBRANCH 6 14
ENDBRANCH 4 6
ENDBRANCH 1 2
BRANCH 1 19
ATOM     19  C   HIS C   2      24.174   2.406  44.743  1.00 11.19 LIG 0.24  C 
ATOM     20  N   THR C   3      23.975   2.110  46.020  1.00 11.67 LIG-0.34  N 
ATOM     21 H    THR C   3      24.548   1.712  46.524  1.00 11.67 LIG 0.16  HD
ATOM     22 O    HIS C   2      23.326   2.965  44.052  1.00 11.10 LIG-0.27  OA
BRANCH 20 23
ATOM     23  CA  THR C   3      22.727   2.456  46.667  1.00 11.71 LIG 0.20  C 
BRANCH 23 24
ATOM     24  CB  THR C   3      22.755   2.151  48.188  1.00 13.34 LIG 0.15  C 
ATOM     25  CG2 THR C   3      21.665   2.886  48.928  1.00 14.42 LIG 0.04  C 
BRANCH 24 26
ATOM     26 OG1  THR C   3      22.574   0.750  48.373  1.00 13.01 LIG-0.39  OA
ATOM     27 HG1  THR C   3      21.780   0.544  48.195  1.00 13.01 LIG 0.21  HD
ENDBRANCH 24 26
ENDBRANCH 23 24
BRANCH 23 28
ATOM     28  C   THR C   3      22.372   3.926  46.396  1.00 11.33 LIG 0.24  C 
ATOM     29  N   ALA C   4      21.246   4.154  45.724  1.00 10.31 LIG-0.35  N 
ATOM     30 H    ALA C   4      20.776   3.545  45.340  1.00 10.31 LIG 0.16  HD
ATOM     31 O    THR C   3      23.108   4.841  46.791  1.00 11.88 LIG-0.27  OA
BRANCH 29 32
ATOM     32  CA  ALA C   4      20.720   5.508  45.595  1.00 10.35 LIG 0.18  C 
ATOM     33  CB  ALA C   4      21.330   6.212  44.374  1.00 10.31 LIG 0.04  C 
BRANCH 32 34
ATOM     34  C   ALA C   4      19.171   5.501  45.523  1.00 10.99 LIG 0.28  C 
ATOM     35 O    ALA C   4      18.561   4.473  45.253  0.79 11.43 LIG-0.27  OA
ATOM     36  N   NH2 C   5      18.550   6.649  45.774  0.91 10.97 LIG-0.11  N 
ENDBRANCH 32 34
ENDBRANCH 29 32
ENDBRANCH 23 28
ENDBRANCH 20 23
ENDBRANCH 1 19
BRANCH 1 37
ATOM     37  CB  HIS C   2      26.453   3.231  44.542  1.00 14.08 LIG 0.10  C 
BRANCH 37 38
ATOM     38  CG  HIS C   2      26.850   3.267  45.974  1.00 15.42 LIG 0.06  A 
ATOM     39  CD2 HIS C   2      27.773   2.546  46.644  1.00 15.59 LIG 0.14  A 
ATOM     40 NE2  HIS C   2      27.748   2.966  47.952  1.00 17.02 LIG-0.25  NA
ATOM     41  CE1 HIS C   2      26.842   3.917  48.078  1.00 16.99 LIG 0.23  A 
ATOM     42 ND1  HIS C   2      26.282   4.118  46.898  0.48 15.92 LIG-0.24  NA
ENDBRANCH 37 38
ENDBRANCH 1 37
TORSDOF 14
ENDMDL
MODEL 15
USER: ADFR SOLUTION from run 71
USER: SCORE 12.463850 LL:  -3.457 LR: -10.979 RR:   0.000 FEB:  -6.803
USER: RMSD 7.867056
USER: SEED 70
USER: STATUS no improvement in best in 29 clusters for 5 generations
USER: GENES 16
USER: genes 0 Translation |==|  0.34028 0.47951 0.79272
USER: genes 1 Rotation |==|  0.45153 0.16715 0.21002 0.72972
USER: genes 2 Torsion [C]-CA--N-[C] |==|  0.18801
USER: genes 3 Torsion [N]-C--CA-[N] |==|  0.85600
USER: genes 4 Torsion [C]-CA--CB-[CG] |==|  0.69252
USER: genes 5 Torsion [CA]-CB--CG-[CD2] |==|  0.26655
USER: genes 6 Torsion [C]-CA--N-[C] |==|  0.85390
USER: genes 7 Torsion [N]-CA--C-[N] |==|  0.11111
USER: genes 8 Torsion [C]-N--CA-[CB] |==|  0.42169
USER: genes 9 Torsion [N]-CA--CB-[CG2] |==|  0.67306
USER: genes 10 Torsion [CA]-CB--OG1-[HG1] |==|  0.12972
USER: genes 11 Torsion [N]-CA--C-[N] |==|  0.95031
USER: genes 12 Torsion [C]-N--CA-[C] |==|  0.82326
USER: genes 13 Torsion [N]-CA--C-[N] |==|  0.86971
USER: genes 14 Torsion [N]-CA--CB-[CG] |==|  0.59247
USER: genes 15 Torsion [CA]-CB--CG-[ND1] |==|  0.89715
ROOT
ATOM      1  CA  HIS C   2      21.663   2.249  48.855  1.00 11.69 LIG 0.18  C 
ENDROOT
BRANCH 1 2
ATOM      2  N   HIS C   2      22.194   0.953  48.432  1.00 10.87 LIG-0.35  N 
ATOM      3 H    HIS C   2      21.608   0.407  48.118  1.00 10.87 LIG 0.16  HD
ATOM      4  C   PHE C   1      23.489   0.683  48.542  1.00 11.47 LIG 0.24  C 
ATOM      5 O    PHE C   1      24.331   1.535  48.878  1.00 12.97 LIG-0.27  OA
BRANCH 4 6
ATOM      6  CA  PHE C   1      23.904  -0.746  48.182  1.00 11.05 LIG 0.18  C 
BRANCH 6 7
ATOM      7  CB  PHE C   1      23.779  -0.969  46.671  1.00 10.09 LIG 0.07  C 
BRANCH 7 8
ATOM      8  CG  PHE C   1      22.671  -1.905  46.295  1.00  8.73 LIG-0.06  A 
ATOM      9  CD2 PHE C   1      21.437  -1.423  45.927  1.00  8.91 LIG 0.01  A 
ATOM     10  CE2 PHE C   1      20.421  -2.295  45.594  1.00  8.44 LIG 0.00  A 
ATOM     11  CZ  PHE C   1      20.637  -3.658  45.641  1.00  8.32 LIG 0.00  A 
ATOM     12  CE1 PHE C   1      21.874  -4.148  45.999  1.00  8.07 LIG 0.00  A 
ATOM     13  CD1 PHE C   1      22.876  -3.273  46.337  1.00  8.33 LIG 0.01  A 
ENDBRANCH 7 8
ENDBRANCH 6 7
BRANCH 6 14
ATOM     14  N   PHE C   1      23.103  -1.715  48.895  1.00 11.54 LIG-0.35  N 
ATOM     15 H    PHE C   1      22.741  -2.300  48.380  1.00 11.54 LIG 0.16  HD
ATOM     16  C   ACE C   0      22.932  -1.716  50.208  1.00 13.21 LIG 0.21  C 
ATOM     17  CH3 ACE C   0      21.922  -2.655  50.801  1.00 13.47 LIG 0.12  C 
ATOM     18 O    ACE C   0      23.457  -0.798  50.837  1.00 14.75 LIG-0.27  OA
ENDBRANCH 6 14
ENDBRANCH 4 6
ENDBRANCH 1 2
BRANCH 1 19
ATOM     19  C   HIS C   2      22.195   3.301  47.920  1.00 11.19 LIG 0.24  C 
ATOM     20  N   THR C   3      22.253   2.973  46.637  1.00 11.67 LIG-0.34  N 
ATOM     21 H    THR C   3      22.047   2.200  46.320  1.00 11.67 LIG 0.16  HD
ATOM     22 O    HIS C   2      22.509   4.413  48.335  1.00 11.10 LIG-0.27  OA
BRANCH 20 23
ATOM     23  CA  THR C   3      22.683   3.943  45.651  1.00 11.71 LIG 0.20  C 
BRANCH 23 24
ATOM     24  CB  THR C   3      23.342   3.267  44.419  1.00 13.34 LIG 0.15  C 
ATOM     25  CG2 THR C   3      24.785   3.679  44.258  1.00 14.42 LIG 0.04  C 
BRANCH 24 26
ATOM     26 OG1  THR C   3      23.281   1.854  44.588  1.00 13.01 LIG-0.39  OA
ATOM     27 HG1  THR C   3      22.507   1.635  44.831  1.00 13.01 LIG 0.21  HD
ENDBRANCH 24 26
ENDBRANCH 23 24
BRANCH 23 28
ATOM     28  C   THR C   3      21.510   4.844  45.237  1.00 11.33 LIG 0.24  C 
ATOM     29  N   ALA C   4      20.287   4.398  45.517  1.00 10.31 LIG-0.35  N 
ATOM     30 H    ALA C   4      20.111   3.606  45.802  1.00 10.31 LIG 0.16  HD
ATOM     31 O    THR C   3      21.709   5.927  44.672  1.00 11.88 LIG-0.27  OA
BRANCH 29 32
ATOM     32  CA  ALA C   4      19.125   5.263  45.351  1.00 10.35 LIG 0.18  C 
ATOM     33  CB  ALA C   4      17.826   4.469  45.552  1.00 10.31 LIG 0.04  C 
BRANCH 32 34
ATOM     34  C   ALA C   4      19.193   6.480  46.308  1.00 10.99 LIG 0.28  C 
ATOM     35 O    ALA C   4      18.964   7.613  45.899  0.79 11.43 LIG-0.27  OA
ATOM     36  N   NH2 C   5      19.502   6.234  47.578  0.91 10.97 LIG-0.11  N 
ENDBRANCH 32 34
ENDBRANCH 29 32
ENDBRANCH 23 28
ENDBRANCH 20 23
ENDBRANCH 1 19
BRANCH 1 37
ATOM     37  CB  HIS C   2      22.121   2.625  50.256  1.00 14.08 LIG 0.10  C 
BRANCH 37 38
ATOM     38  CG  HIS C   2      21.122   3.407  51.030  1.00 15.42 LIG 0.06  A 
ATOM     39  CD2 HIS C   2      20.811   3.371  52.343  1.00 15.59 LIG 0.14  A 
ATOM     40 NE2  HIS C   2      19.815   4.295  52.551  1.00 17.02 LIG-0.25  NA
ATOM     41  CE1 HIS C   2      19.530   4.881  51.403  1.00 16.99 LIG 0.23  A 
ATOM     42 ND1  HIS C   2      20.302   4.361  50.466  0.48 15.92 LIG-0.24  NA
ENDBRANCH 37 38
ENDBRANCH 1 37
TORSDOF 14
ENDMDL
MODEL 16
USER: ADFR SOLUTION from run 8
USER: SCORE 12.486847 LL:  -3.364 LR: -10.967 RR:   0.000 FEB:  -6.791
USER: RMSD 6.661661
USER: SEED 515581
USER: STATUS no improvement in best in 10 clusters for 5 generations
USER: GENES 16
USER: genes 0 Translation |==|  0.36018 0.45010 0.75963
USER: genes 1 Rotation |==|  0.44782 0.23211 0.16617 0.75312
USER: genes 2 Torsion [C]-CA--N-[C] |==|  0.14696
USER: genes 3 Torsion [N]-C--CA-[N] |==|  0.48889
USER: genes 4 Torsion [C]-CA--CB-[CG] |==|  0.28234
USER: genes 5 Torsion [CA]-CB--CG-[CD2] |==|  0.49997
USER: genes 6 Torsion [C]-CA--N-[C] |==|  0.76508
USER: genes 7 Torsion [N]-CA--C-[N] |==|  0.09892
USER: genes 8 Torsion [C]-N--CA-[CB] |==|  0.39681
USER: genes 9 Torsion [N]-CA--CB-[CG2] |==|  0.63692
USER: genes 10 Torsion [CA]-CB--OG1-[HG1] |==|  0.90118
USER: genes 11 Torsion [N]-CA--C-[N] |==|  0.97320
USER: genes 12 Torsion [C]-N--CA-[C] |==|  0.80379
USER: genes 13 Torsion [N]-CA--C-[N] |==|  0.87559
USER: genes 14 Torsion [N]-CA--CB-[CG] |==|  0.91794
USER: genes 15 Torsion [CA]-CB--CG-[ND1] |==|  0.44865
ROOT
ATOM      1  CA  HIS C   2      22.051   1.764  48.184  1.00 11.69 LIG 0.18  C 
ENDROOT
BRANCH 1 2
ATOM      2  N   HIS C   2      22.395   0.613  47.350  1.00 10.87 LIG-0.35  N 
ATOM      3 H    HIS C   2      21.741   0.081  47.179  1.00 10.87 LIG 0.16  HD
ATOM      4  C   PHE C   1      23.637   0.441  46.912  1.00 11.47 LIG 0.24  C 
ATOM      5 O    PHE C   1      24.532   1.291  47.066  1.00 12.97 LIG-0.27  OA
BRANCH 4 6
ATOM      6  CA  PHE C   1      23.900  -0.862  46.152  1.00 11.05 LIG 0.18  C 
BRANCH 6 7
ATOM      7  CB  PHE C   1      23.645  -2.067  47.062  1.00 10.09 LIG 0.07  C 
BRANCH 7 8
ATOM      8  CG  PHE C   1      22.328  -2.737  46.812  1.00  8.73 LIG-0.06  A 
ATOM      9  CD2 PHE C   1      21.947  -3.836  47.546  1.00  8.91 LIG 0.01  A 
ATOM     10  CE2 PHE C   1      20.737  -4.451  47.300  1.00  8.44 LIG 0.00  A 
ATOM     11  CZ  PHE C   1      19.908  -3.973  46.304  1.00  8.32 LIG 0.00  A 
ATOM     12  CE1 PHE C   1      20.279  -2.866  45.572  1.00  8.07 LIG 0.00  A 
ATOM     13  CD1 PHE C   1      21.488  -2.265  45.818  1.00  8.33 LIG 0.01  A 
ENDBRANCH 7 8
ENDBRANCH 6 7
BRANCH 6 14
ATOM     14  N   PHE C   1      25.253  -0.901  45.642  1.00 11.54 LIG-0.35  N 
ATOM     15 H    PHE C   1      25.797  -1.319  46.160  1.00 11.54 LIG 0.16  HD
ATOM     16  C   ACE C   0      25.631  -0.357  44.497  1.00 13.21 LIG 0.21  C 
ATOM     17  CH3 ACE C   0      27.097  -0.298  44.179  1.00 13.47 LIG 0.12  C 
ATOM     18 O    ACE C   0      24.775   0.260  43.865  1.00 14.75 LIG-0.27  OA
ENDBRANCH 6 14
ENDBRANCH 4 6
ENDBRANCH 1 2
BRANCH 1 19
ATOM     19  C   HIS C   2      22.511   3.009  47.477  1.00 11.19 LIG 0.24  C 
ATOM     20  N   THR C   3      22.414   3.004  46.154  1.00 11.67 LIG-0.34  N 
ATOM     21 H    THR C   3      22.149   2.332  45.687  1.00 11.67 LIG 0.16  HD
ATOM     22 O    HIS C   2      22.906   3.985  48.109  1.00 11.10 LIG-0.27  OA
BRANCH 20 23
ATOM     23  CA  THR C   3      22.764   4.183  45.390  1.00 11.71 LIG 0.20  C 
BRANCH 23 24
ATOM     24  CB  THR C   3      23.464   3.823  44.052  1.00 13.34 LIG 0.15  C 
ATOM     25  CG2 THR C   3      24.733   4.615  43.852  1.00 14.42 LIG 0.04  C 
BRANCH 24 26
ATOM     26 OG1  THR C   3      23.784   2.434  44.067  1.00 13.01 LIG-0.39  OA
ATOM     27 HG1  THR C   3      23.998   2.204  44.845  1.00 13.01 LIG 0.21  HD
ENDBRANCH 24 26
ENDBRANCH 23 24
BRANCH 23 28
ATOM     28  C   THR C   3      21.523   5.058  45.155  1.00 11.33 LIG 0.24  C 
ATOM     29  N   ALA C   4      20.348   4.529  45.489  1.00 10.31 LIG-0.35  N 
ATOM     30 H    ALA C   4      20.230   3.708  45.713  1.00 10.31 LIG 0.16  HD
ATOM     31 O    THR C   3      21.629   6.196  44.678  1.00 11.88 LIG-0.27  OA
BRANCH 29 32
ATOM     32  CA  ALA C   4      19.141   5.348  45.497  1.00 10.35 LIG 0.18  C 
ATOM     33  CB  ALA C   4      17.887   4.462  45.551  1.00 10.31 LIG 0.04  C 
BRANCH 32 34
ATOM     34  C   ALA C   4      19.162   6.364  46.667  1.00 10.99 LIG 0.28  C 
ATOM     35 O    ALA C   4      18.831   7.531  46.489  0.79 11.43 LIG-0.27  OA
ATOM     36  N   NH2 C   5      19.544   5.909  47.856  0.91 10.97 LIG-0.11  N 
ENDBRANCH 32 34
ENDBRANCH 29 32
ENDBRANCH 23 28
ENDBRANCH 20 23
ENDBRANCH 1 19
BRANCH 1 37
ATOM     37  CB  HIS C   2      22.761   1.728  49.529  1.00 14.08 LIG 0.10  C 
BRANCH 37 38
ATOM     38  CG  HIS C   2      23.056   0.357  50.022  1.00 15.42 LIG 0.06  A 
ATOM     39  CD2 HIS C   2      22.529  -0.832  49.663  1.00 15.59 LIG 0.14  A 
ATOM     40 NE2  HIS C   2      23.147  -1.797  50.423  1.00 17.02 LIG-0.25  NA
ATOM     41  CE1 HIS C   2      24.026  -1.217  51.217  1.00 16.99 LIG 0.23  A 
ATOM     42 ND1  HIS C   2      23.990   0.086  50.998  0.48 15.92 LIG-0.24  NA
ENDBRANCH 37 38
ENDBRANCH 1 37
TORSDOF 14
ENDMDL
MODEL 17
USER: ADFR SOLUTION from run 18
USER: SCORE 12.662090 LL:  -3.243 LR: -10.974 RR:   0.000 FEB:  -6.798
USER: RMSD 5.821231
USER: SEED 17
USER: STATUS no improvement in best in 29 clusters for 5 generations
USER: GENES 16
USER: genes 0 Translation |==|  0.42379 0.35185 0.64245
USER: genes 1 Rotation |==|  0.75612 0.37478 0.14329 0.70367
USER: genes 2 Torsion [C]-CA--N-[C] |==|  0.82778
USER: genes 3 Torsion [N]-C--CA-[N] |==|  0.33480
USER: genes 4 Torsion [C]-CA--CB-[CG] |==|  0.75626
USER: genes 5 Torsion [CA]-CB--CG-[CD2] |==|  0.74116
USER: genes 6 Torsion [C]-CA--N-[C] |==|  0.73411
USER: genes 7 Torsion [N]-CA--C-[N] |==|  0.46984
USER: genes 8 Torsion [C]-N--CA-[CB] |==|  0.82192
USER: genes 9 Torsion [N]-CA--CB-[CG2] |==|  0.52528
USER: genes 10 Torsion [CA]-CB--OG1-[HG1] |==|  0.97717
USER: genes 11 Torsion [N]-CA--C-[N] |==|  0.13686
USER: genes 12 Torsion [C]-N--CA-[C] |==|  0.66104
USER: genes 13 Torsion [N]-CA--C-[N] |==|  0.41560
USER: genes 14 Torsion [N]-CA--CB-[CG] |==|  0.60208
USER: genes 15 Torsion [CA]-CB--CG-[ND1] |==|  0.10433
ROOT
ATOM      1  CA  HIS C   2      23.291   0.143  45.812  1.00 11.69 LIG 0.18  C 
ENDROOT
BRANCH 1 2
ATOM      2  N   HIS C   2      24.521   0.478  45.096  1.00 10.87 LIG-0.35  N 
ATOM      3 H    HIS C   2      25.172  -0.071  45.218  1.00 10.87 LIG 0.16  HD
ATOM      4  C   PHE C   1      24.585   1.558  44.326  1.00 11.47 LIG 0.24  C 
ATOM      5 O    PHE C   1      23.593   2.262  44.065  1.00 12.97 LIG-0.27  OA
BRANCH 4 6
ATOM      6  CA  PHE C   1      25.959   1.869  43.728  1.00 11.05 LIG 0.18  C 
BRANCH 6 7
ATOM      7  CB  PHE C   1      26.470   3.218  44.245  1.00 10.09 LIG 0.07  C 
BRANCH 7 8
ATOM      8  CG  PHE C   1      26.020   4.384  43.419  1.00  8.73 LIG-0.06  A 
ATOM      9  CD2 PHE C   1      26.805   4.866  42.397  1.00  8.91 LIG 0.01  A 
ATOM     10  CE2 PHE C   1      26.386   5.947  41.650  1.00  8.44 LIG 0.00  A 
ATOM     11  CZ  PHE C   1      25.181   6.560  41.936  1.00  8.32 LIG 0.00  A 
ATOM     12  CE1 PHE C   1      24.385   6.075  42.951  1.00  8.07 LIG 0.00  A 
ATOM     13  CD1 PHE C   1      24.814   5.004  43.694  1.00  8.33 LIG 0.01  A 
ENDBRANCH 7 8
ENDBRANCH 6 7
BRANCH 6 14
ATOM     14  N   PHE C   1      25.907   1.879  42.283  1.00 11.54 LIG-0.35  N 
ATOM     15 H    PHE C   1      25.649   2.632  41.958  1.00 11.54 LIG 0.16  HD
ATOM     16  C   ACE C   0      26.220   0.843  41.521  1.00 13.21 LIG 0.21  C 
ATOM     17  CH3 ACE C   0      25.936   0.921  40.049  1.00 13.47 LIG 0.12  C 
ATOM     18 O    ACE C   0      26.526  -0.199  42.099  1.00 14.75 LIG-0.27  OA
ENDBRANCH 6 14
ENDBRANCH 4 6
ENDBRANCH 1 2
BRANCH 1 19
ATOM     19  C   HIS C   2      22.989   1.260  46.772  1.00 11.19 LIG 0.24  C 
ATOM     20  N   THR C   3      21.794   1.236  47.347  1.00 11.67 LIG-0.34  N 
ATOM     21 H    THR C   3      21.182   0.656  47.176  1.00 11.67 LIG 0.16  HD
ATOM     22 O    HIS C   2      23.833   2.113  47.034  1.00 11.10 LIG-0.27  OA
BRANCH 20 23
ATOM     23  CA  THR C   3      21.438   2.228  48.339  1.00 11.71 LIG 0.20  C 
BRANCH 23 24
ATOM     24  CB  THR C   3      22.325   2.127  49.609  1.00 13.34 LIG 0.15  C 
ATOM     25  CG2 THR C   3      21.814   3.008  50.722  1.00 14.42 LIG 0.04  C 
BRANCH 24 26
ATOM     26 OG1  THR C   3      22.327   0.774  50.054  1.00 13.01 LIG-0.39  OA
ATOM     27 HG1  THR C   3      21.765   0.333  49.613  1.00 13.01 LIG 0.21  HD
ENDBRANCH 24 26
ENDBRANCH 23 24
BRANCH 23 28
ATOM     28  C   THR C   3      21.488   3.638  47.730  1.00 11.33 LIG 0.24  C 
ATOM     29  N   ALA C   4      20.855   3.811  46.572  1.00 10.31 LIG-0.35  N 
ATOM     30 H    ALA C   4      20.527   3.174  46.097  1.00 10.31 LIG 0.16  HD
ATOM     31 O    THR C   3      22.092   4.555  48.301  1.00 11.88 LIG-0.27  OA
BRANCH 29 32
ATOM     32  CA  ALA C   4      20.672   5.147  46.018  1.00 10.35 LIG 0.18  C 
ATOM     33  CB  ALA C   4      21.467   5.306  44.714  1.00 10.31 LIG 0.04  C 
BRANCH 32 34
ATOM     34  C   ALA C   4      19.170   5.461  45.802  1.00 10.99 LIG 0.28  C 
ATOM     35 O    ALA C   4      18.372   4.566  45.548  0.79 11.43 LIG-0.27  OA
ATOM     36  N   NH2 C   5      18.796   6.732  45.910  0.91 10.97 LIG-0.11  N 
ENDBRANCH 32 34
ENDBRANCH 29 32
ENDBRANCH 23 28
ENDBRANCH 20 23
ENDBRANCH 1 19
BRANCH 1 37
ATOM     37  CB  HIS C   2      23.438  -1.126  46.639  1.00 14.08 LIG 0.10  C 
BRANCH 37 38
ATOM     38  CG  HIS C   2      22.217  -1.974  46.668  1.00 15.42 LIG 0.06  A 
ATOM     39  CD2 HIS C   2      21.682  -2.700  47.671  1.00 15.59 LIG 0.14  A 
ATOM     40 NE2  HIS C   2      20.548  -3.302  47.178  1.00 17.02 LIG-0.25  NA
ATOM     41  CE1 HIS C   2      20.393  -2.950  45.916  1.00 16.99 LIG 0.23  A 
ATOM     42 ND1  HIS C   2      21.389  -2.150  45.580  0.48 15.92 LIG-0.24  NA
ENDBRANCH 37 38
ENDBRANCH 1 37
TORSDOF 14
ENDMDL
MODEL 18
USER: ADFR SOLUTION from run 22
USER: SCORE 12.876354 LL:  -2.862 LR: -10.948 RR:   0.000 FEB:  -6.772
USER: RMSD 4.366165
USER: SEED 21
USER: STATUS no improvement in best in 27 clusters for 5 generations
USER: GENES 16
USER: genes 0 Translation |==|  0.50741 0.39146 0.51619
USER: genes 1 Rotation |==|  0.62466 0.31000 0.12489 0.74010
USER: genes 2 Torsion [C]-CA--N-[C] |==|  0.60000
USER: genes 3 Torsion [N]-C--CA-[N] |==|  0.38237
USER: genes 4 Torsion [C]-CA--CB-[CG] |==|  0.80426
USER: genes 5 Torsion [CA]-CB--CG-[CD2] |==|  0.23656
USER: genes 6 Torsion [C]-CA--N-[C] |==|  0.79899
USER: genes 7 Torsion [N]-CA--C-[N] |==|  0.39796
USER: genes 8 Torsion [C]-N--CA-[CB] |==|  0.20414
USER: genes 9 Torsion [N]-CA--CB-[CG2] |==|  0.50100
USER: genes 10 Torsion [CA]-CB--OG1-[HG1] |==|  0.20402
USER: genes 11 Torsion [N]-CA--C-[N] |==|  0.01130
USER: genes 12 Torsion [C]-N--CA-[C] |==|  0.20429
USER: genes 13 Torsion [N]-CA--C-[N] |==|  0.09433
USER: genes 14 Torsion [N]-CA--CB-[CG] |==|  0.56292
USER: genes 15 Torsion [CA]-CB--CG-[ND1] |==|  0.84486
ROOT
ATOM      1  CA  HIS C   2      24.921   0.796  43.255  1.00 11.69 LIG 0.18  C 
ENDROOT
BRANCH 1 2
ATOM      2  N   HIS C   2      25.826   0.483  42.149  1.00 10.87 LIG-0.35  N 
ATOM      3 H    HIS C   2      26.588   0.880  42.181  1.00 10.87 LIG 0.16  HD
ATOM      4  C   PHE C   1      25.457  -0.356  41.188  1.00 11.47 LIG 0.24  C 
ATOM      5 O    PHE C   1      24.402  -1.014  41.233  1.00 12.97 LIG-0.27  OA
BRANCH 4 6
ATOM      6  CA  PHE C   1      26.439  -0.509  40.024  1.00 11.05 LIG 0.18  C 
BRANCH 6 7
ATOM      7  CB  PHE C   1      25.982   0.337  38.831  1.00 10.09 LIG 0.07  C 
BRANCH 7 8
ATOM      8  CG  PHE C   1      24.753  -0.194  38.158  1.00  8.73 LIG-0.06  A 
ATOM      9  CD2 PHE C   1      23.500   0.130  38.624  1.00  8.91 LIG 0.01  A 
ATOM     10  CE2 PHE C   1      22.376  -0.373  38.004  1.00  8.44 LIG 0.00  A 
ATOM     11  CZ  PHE C   1      22.505  -1.218  36.919  1.00  8.32 LIG 0.00  A 
ATOM     12  CE1 PHE C   1      23.756  -1.538  36.440  1.00  8.07 LIG 0.00  A 
ATOM     13  CD1 PHE C   1      24.870  -1.039  37.069  1.00  8.33 LIG 0.01  A 
ENDBRANCH 7 8
ENDBRANCH 6 7
BRANCH 6 14
ATOM     14  N   PHE C   1      26.568  -1.894  39.631  1.00 11.54 LIG-0.35  N 
ATOM     15 H    PHE C   1      26.188  -2.070  38.880  1.00 11.54 LIG 0.16  HD
ATOM     16  C   ACE C   0      27.202  -2.812  40.343  1.00 13.21 LIG 0.21  C 
ATOM     17  CH3 ACE C   0      27.095  -4.249  39.922  1.00 13.47 LIG 0.12  C 
ATOM     18 O    ACE C   0      27.661  -2.455  41.427  1.00 14.75 LIG-0.27  OA
ENDBRANCH 6 14
ENDBRANCH 4 6
ENDBRANCH 1 2
BRANCH 1 19
ATOM     19  C   HIS C   2      25.115   2.242  43.623  1.00 11.19 LIG 0.24  C 
ATOM     20  N   THR C   3      24.026   2.908  43.983  1.00 11.67 LIG-0.34  N 
ATOM     21 H    THR C   3      23.230   2.581  43.979  1.00 11.67 LIG 0.16  HD
ATOM     22 O    HIS C   2      26.234   2.747  43.630  1.00 11.10 LIG-0.27  OA
BRANCH 20 23
ATOM     23  CA  THR C   3      24.122   4.284  44.424  1.00 11.71 LIG 0.20  C 
BRANCH 23 24
ATOM     24  CB  THR C   3      24.396   5.255  43.245  1.00 13.34 LIG 0.15  C 
ATOM     25  CG2 THR C   3      24.503   6.687  43.710  1.00 14.42 LIG 0.04  C 
BRANCH 24 26
ATOM     26 OG1  THR C   3      25.621   4.880  42.622  1.00 13.01 LIG-0.39  OA
ATOM     27 HG1  THR C   3      25.506   4.175  42.179  1.00 13.01 LIG 0.21  HD
ENDBRANCH 24 26
ENDBRANCH 23 24
BRANCH 23 28
ATOM     28  C   THR C   3      22.859   4.687  45.200  1.00 11.33 LIG 0.24  C 
ATOM     29  N   ALA C   4      21.958   3.730  45.412  1.00 10.31 LIG-0.35  N 
ATOM     30 H    ALA C   4      21.982   2.950  45.051  1.00 10.31 LIG 0.16  HD
ATOM     31 O    THR C   3      22.703   5.848  45.602  1.00 11.88 LIG-0.27  OA
BRANCH 29 32
ATOM     32  CA  ALA C   4      20.830   3.958  46.307  1.00 10.35 LIG 0.18  C 
ATOM     33  CB  ALA C   4      21.312   4.513  47.656  1.00 10.31 LIG 0.04  C 
BRANCH 32 34
ATOM     34  C   ALA C   4      19.781   4.897  45.657  1.00 10.99 LIG 0.28  C 
ATOM     35 O    ALA C   4      19.141   5.689  46.339  0.79 11.43 LIG-0.27  OA
ATOM     36  N   NH2 C   5      19.620   4.803  44.341  0.91 10.97 LIG-0.11  N 
ENDBRANCH 32 34
ENDBRANCH 29 32
ENDBRANCH 23 28
ENDBRANCH 20 23
ENDBRANCH 1 19
BRANCH 1 37
ATOM     37  CB  HIS C   2      25.233  -0.024  44.498  1.00 14.08 LIG 0.10  C 
BRANCH 37 38
ATOM     38  CG  HIS C   2      24.088  -0.159  45.436  1.00 15.42 LIG 0.06  A 
ATOM     39  CD2 HIS C   2      23.495  -1.263  45.938  1.00 15.59 LIG 0.14  A 
ATOM     40 NE2  HIS C   2      22.479  -0.840  46.761  1.00 17.02 LIG-0.25  NA
ATOM     41  CE1 HIS C   2      22.454   0.479  46.766  1.00 16.99 LIG 0.23  A 
ATOM     42 ND1  HIS C   2      23.414   0.917  45.971  0.48 15.92 LIG-0.24  NA
ENDBRANCH 37 38
ENDBRANCH 1 37
TORSDOF 14
ENDMDL
MODEL 19
USER: ADFR SOLUTION from run 22
USER: SCORE 12.534487 LL:  -3.004 LR: -10.880 RR:   0.000 FEB:  -6.704
USER: RMSD 5.977903
USER: SEED 21
USER: STATUS no improvement in best in 27 clusters for 5 generations
USER: GENES 16
USER: genes 0 Translation |==|  0.53777 0.42873 0.46793
USER: genes 1 Rotation |==|  0.57651 0.27473 0.09145 0.66274
USER: genes 2 Torsion [C]-CA--N-[C] |==|  0.55879
USER: genes 3 Torsion [N]-C--CA-[N] |==|  0.37574
USER: genes 4 Torsion [C]-CA--CB-[CG] |==|  0.81885
USER: genes 5 Torsion [CA]-CB--CG-[CD2] |==|  0.73074
USER: genes 6 Torsion [C]-CA--N-[C] |==|  0.73363
USER: genes 7 Torsion [N]-CA--C-[N] |==|  0.40971
USER: genes 8 Torsion [C]-N--CA-[CB] |==|  0.79989
USER: genes 9 Torsion [N]-CA--CB-[CG2] |==|  0.64596
USER: genes 10 Torsion [CA]-CB--OG1-[HG1] |==|  0.69444
USER: genes 11 Torsion [N]-CA--C-[N] |==|  0.08889
USER: genes 12 Torsion [C]-N--CA-[C] |==|  0.70810
USER: genes 13 Torsion [N]-CA--C-[N] |==|  0.02501
USER: genes 14 Torsion [N]-CA--CB-[CG] |==|  0.53743
USER: genes 15 Torsion [CA]-CB--CG-[ND1] |==|  0.01075
ROOT
ATOM      1  CA  HIS C   2      25.514   1.411  42.277  1.00 11.69 LIG 0.18  C 
ENDROOT
BRANCH 1 2
ATOM      2  N   HIS C   2      26.212   0.689  41.215  1.00 10.87 LIG-0.35  N 
ATOM      3 H    HIS C   2      27.037   0.907  41.111  1.00 10.87 LIG 0.16  HD
ATOM      4  C   PHE C   1      25.581  -0.227  40.489  1.00 11.47 LIG 0.24  C 
ATOM      5 O    PHE C   1      24.426  -0.614  40.744  1.00 12.97 LIG-0.27  OA
BRANCH 4 6
ATOM      6  CA  PHE C   1      26.381  -0.825  39.329  1.00 11.05 LIG 0.18  C 
BRANCH 6 7
ATOM      7  CB  PHE C   1      25.936  -0.204  38.002  1.00 10.09 LIG 0.07  C 
BRANCH 7 8
ATOM      8  CG  PHE C   1      24.521  -0.530  37.634  1.00  8.73 LIG-0.06  A 
ATOM      9  CD2 PHE C   1      24.239  -1.563  36.770  1.00  8.91 LIG 0.01  A 
ATOM     10  CE2 PHE C   1      22.933  -1.848  36.430  1.00  8.44 LIG 0.00  A 
ATOM     11  CZ  PHE C   1      21.902  -1.086  36.944  1.00  8.32 LIG 0.00  A 
ATOM     12  CE1 PHE C   1      22.177  -0.057  37.818  1.00  8.07 LIG 0.00  A 
ATOM     13  CD1 PHE C   1      23.480   0.224  38.145  1.00  8.33 LIG 0.01  A 
ENDBRANCH 7 8
ENDBRANCH 6 7
BRANCH 6 14
ATOM     14  N   PHE C   1      26.230  -2.262  39.281  1.00 11.54 LIG-0.35  N 
ATOM     15 H    PHE C   1      25.523  -2.514  38.862  1.00 11.54 LIG 0.16  HD
ATOM     16  C   ACE C   0      27.084  -3.118  39.821  1.00 13.21 LIG 0.21  C 
ATOM     17  CH3 ACE C   0      26.711  -4.571  39.870  1.00 13.47 LIG 0.12  C 
ATOM     18 O    ACE C   0      28.032  -2.639  40.441  1.00 14.75 LIG-0.27  OA
ENDBRANCH 6 14
ENDBRANCH 4 6
ENDBRANCH 1 2
BRANCH 1 19
ATOM     19  C   HIS C   2      26.267   2.684  42.551  1.00 11.19 LIG 0.24  C 
ATOM     20  N   THR C   3      25.541   3.728  42.927  1.00 11.67 LIG-0.34  N 
ATOM     21 H    THR C   3      24.682   3.732  42.982  1.00 11.67 LIG 0.16  HD
ATOM     22 O    HIS C   2      27.492   2.722  42.473  1.00 11.10 LIG-0.27  OA
BRANCH 20 23
ATOM     23  CA  THR C   3      26.182   4.977  43.282  1.00 11.71 LIG 0.20  C 
BRANCH 23 24
ATOM     24  CB  THR C   3      26.918   4.887  44.645  1.00 13.34 LIG 0.15  C 
ATOM     25  CG2 THR C   3      26.501   5.994  45.582  1.00 14.42 LIG 0.04  C 
BRANCH 24 26
ATOM     26 OG1  THR C   3      26.609   3.633  45.246  1.00 13.01 LIG-0.39  OA
ATOM     27 HG1  THR C   3      26.116   3.756  45.915  1.00 13.01 LIG 0.21  HD
ENDBRANCH 24 26
ENDBRANCH 23 24
BRANCH 23 28
ATOM     28  C   THR C   3      27.130   5.431  42.161  1.00 11.33 LIG 0.24  C 
ATOM     29  N   ALA C   4      26.781   5.109  40.918  1.00 10.31 LIG-0.35  N 
ATOM     30 H    ALA C   4      26.137   4.576  40.715  1.00 10.31 LIG 0.16  HD
ATOM     31 O    THR C   3      28.162   6.064  42.420  1.00 11.88 LIG-0.27  OA
BRANCH 29 32
ATOM     32  CA  ALA C   4      27.500   5.664  39.778  1.00 10.35 LIG 0.18  C 
ATOM     33  CB  ALA C   4      27.895   4.553  38.794  1.00 10.31 LIG 0.04  C 
BRANCH 32 34
ATOM     34  C   ALA C   4      26.668   6.766  39.074  1.00 10.99 LIG 0.28  C 
ATOM     35 O    ALA C   4      27.026   7.232  37.999  0.79 11.43 LIG-0.27  OA
ATOM     36  N   NH2 C   5      25.558   7.168  39.686  0.91 10.97 LIG-0.11  N 
ENDBRANCH 32 34
ENDBRANCH 29 32
ENDBRANCH 23 28
ENDBRANCH 20 23
ENDBRANCH 1 19
BRANCH 1 37
ATOM     37  CB  HIS C   2      25.483   0.624  43.579  1.00 14.08 LIG 0.10  C 
BRANCH 37 38
ATOM     38  CG  HIS C   2      24.528   1.158  44.586  1.00 15.42 LIG 0.06  A 
ATOM     39  CD2 HIS C   2      24.289   0.768  45.856  1.00 15.59 LIG 0.14  A 
ATOM     40 NE2  HIS C   2      23.308   1.590  46.356  1.00 17.02 LIG-0.25  NA
ATOM     41  CE1 HIS C   2      22.962   2.458  45.424  1.00 16.99 LIG 0.23  A 
ATOM     42 ND1  HIS C   2      23.682   2.218  44.343  0.48 15.92 LIG-0.24  NA
ENDBRANCH 37 38
ENDBRANCH 1 37
TORSDOF 14
ENDMDL
MODEL 20
USER: ADFR SOLUTION from run 192
USER: SCORE 12.706219 LL:  -2.784 LR: -10.831 RR:   0.000 FEB:  -6.655
USER: RMSD 4.036241
USER: SEED 191
USER: STATUS no improvement in best in 10 clusters for 5 generations
USER: GENES 16
USER: genes 0 Translation |==|  0.55411 0.46535 0.56828
USER: genes 1 Rotation |==|  0.56172 0.54892 0.58893 0.98568
USER: genes 2 Torsion [C]-CA--N-[C] |==|  0.73407
USER: genes 3 Torsion [N]-C--CA-[N] |==|  0.34517
USER: genes 4 Torsion [C]-CA--CB-[CG] |==|  0.53697
USER: genes 5 Torsion [CA]-CB--CG-[CD2] |==|  0.73391
USER: genes 6 Torsion [C]-CA--N-[C] |==|  0.79442
USER: genes 7 Torsion [N]-CA--C-[N] |==|  0.50661
USER: genes 8 Torsion [C]-N--CA-[CB] |==|  0.83296
USER: genes 9 Torsion [N]-CA--CB-[CG2] |==|  0.66895
USER: genes 10 Torsion [CA]-CB--OG1-[HG1] |==|  0.31967
USER: genes 11 Torsion [N]-CA--C-[N] |==|  0.48200
USER: genes 12 Torsion [C]-N--CA-[C] |==|  0.80149
USER: genes 13 Torsion [N]-CA--C-[N] |==|  0.44444
USER: genes 14 Torsion [N]-CA--CB-[CG] |==|  0.05859
USER: genes 15 Torsion [CA]-CB--CG-[ND1] |==|  0.73535
ROOT
ATOM      1  CA  HIS C   2      25.832   2.015  44.310  1.00 11.69 LIG 0.18  C 
ENDROOT
BRANCH 1 2
ATOM      2  N   HIS C   2      25.534   1.972  42.878  1.00 10.87 LIG-0.35  N 
ATOM      3 H    HIS C   2      25.064   2.629  42.586  1.00 10.87 LIG 0.16  HD
ATOM      4  C   PHE C   1      25.977   0.973  42.124  1.00 11.47 LIG 0.24  C 
ATOM      5 O    PHE C   1      26.762   0.104  42.545  1.00 12.97 LIG-0.27  OA
BRANCH 4 6
ATOM      6  CA  PHE C   1      25.499   0.974  40.670  1.00 11.05 LIG 0.18  C 
BRANCH 6 7
ATOM      7  CB  PHE C   1      24.584  -0.228  40.412  1.00 10.09 LIG 0.07  C 
BRANCH 7 8
ATOM      8  CG  PHE C   1      24.328  -0.482  38.957  1.00  8.73 LIG-0.06  A 
ATOM      9  CD2 PHE C   1      23.199   0.011  38.345  1.00  8.91 LIG 0.01  A 
ATOM     10  CE2 PHE C   1      22.968  -0.239  37.009  1.00  8.44 LIG 0.00  A 
ATOM     11  CZ  PHE C   1      23.863  -0.999  36.282  1.00  8.32 LIG 0.00  A 
ATOM     12  CE1 PHE C   1      25.001  -1.488  36.886  1.00  8.07 LIG 0.00  A 
ATOM     13  CD1 PHE C   1      25.219  -1.241  38.219  1.00  8.33 LIG 0.01  A 
ENDBRANCH 7 8
ENDBRANCH 6 7
BRANCH 6 14
ATOM     14  N   PHE C   1      26.619   0.951  39.755  1.00 11.54 LIG-0.35  N 
ATOM     15 H    PHE C   1      26.731   0.188  39.375  1.00 11.54 LIG 0.16  HD
ATOM     16  C   ACE C   0      27.402   1.991  39.514  1.00 13.21 LIG 0.21  C 
ATOM     17  CH3 ACE C   0      28.643   1.782  38.695  1.00 13.47 LIG 0.12  C 
ATOM     18 O    ACE C   0      27.177   3.016  40.155  1.00 14.75 LIG-0.27  OA
ENDBRANCH 6 14
ENDBRANCH 4 6
ENDBRANCH 1 2
BRANCH 1 19
ATOM     19  C   HIS C   2      24.665   1.420  45.048  1.00 11.19 LIG 0.24  C 
ATOM     20  N   THR C   3      24.743   1.423  46.372  1.00 11.67 LIG-0.34  N 
ATOM     21 H    THR C   3      25.423   1.700  46.821  1.00 11.67 LIG 0.16  HD
ATOM     22 O    HIS C   2      23.680   1.004  44.444  1.00 11.10 LIG-0.27  OA
BRANCH 20 23
ATOM     23  CA  THR C   3      23.638   0.938  47.173  1.00 11.71 LIG 0.20  C 
BRANCH 23 24
ATOM     24  CB  THR C   3      22.338   1.749  46.924  1.00 13.34 LIG 0.15  C 
ATOM     25  CG2 THR C   3      21.848   2.423  48.182  1.00 14.42 LIG 0.04  C 
BRANCH 24 26
ATOM     26 OG1  THR C   3      22.605   2.745  45.941  1.00 13.01 LIG-0.39  OA
ATOM     27 HG1  THR C   3      22.152   2.587  45.252  1.00 13.01 LIG 0.21  HD
ENDBRANCH 24 26
ENDBRANCH 23 24
BRANCH 23 28
ATOM     28  C   THR C   3      23.418  -0.563  46.930  1.00 11.33 LIG 0.24  C 
ATOM     29  N   ALA C   4      22.517  -1.166  47.703  1.00 10.31 LIG-0.35  N 
ATOM     30 H    ALA C   4      22.145  -0.806  48.389  1.00 10.31 LIG 0.16  HD
ATOM     31 O    THR C   3      24.054  -1.165  46.055  1.00 11.88 LIG-0.27  OA
BRANCH 29 32
ATOM     32  CA  ALA C   4      22.090  -2.531  47.418  1.00 10.35 LIG 0.18  C 
ATOM     33  CB  ALA C   4      21.366  -3.136  48.630  1.00 10.31 LIG 0.04  C 
BRANCH 32 34
ATOM     34  C   ALA C   4      21.202  -2.585  46.149  1.00 10.99 LIG 0.28  C 
ATOM     35 O    ALA C   4      20.646  -1.577  45.729  0.79 11.43 LIG-0.27  OA
ATOM     36  N   NH2 C   5      21.082  -3.763  45.545  0.91 10.97 LIG-0.11  N 
ENDBRANCH 32 34
ENDBRANCH 29 32
ENDBRANCH 23 28
ENDBRANCH 20 23
ENDBRANCH 1 19
BRANCH 1 37
ATOM     37  CB  HIS C   2      25.999   3.440  44.816  1.00 14.08 LIG 0.10  C 
BRANCH 37 38
ATOM     38  CG  HIS C   2      25.365   4.468  43.949  1.00 15.42 LIG 0.06  A 
ATOM     39  CD2 HIS C   2      24.094   4.918  43.914  1.00 15.59 LIG 0.14  A 
ATOM     40 NE2  HIS C   2      24.027   5.873  42.927  1.00 17.02 LIG-0.25  NA
ATOM     41  CE1 HIS C   2      25.221   6.006  42.380  1.00 16.99 LIG 0.23  A 
ATOM     42 ND1  HIS C   2      26.048   5.167  42.976  0.48 15.92 LIG-0.24  NA
ENDBRANCH 37 38
ENDBRANCH 1 37
TORSDOF 14
ENDMDL
MODEL 21
USER: ADFR SOLUTION from run 12
USER: SCORE 12.556747 LL:  -3.396 LR: -10.825 RR:   0.000 FEB:  -6.648
USER: RMSD 8.349422
USER: SEED 760
USER: STATUS no improvement in best in 31 clusters for 5 generations
USER: GENES 16
USER: genes 0 Translation |==|  0.39920 0.60283 0.57525
USER: genes 1 Rotation |==|  0.73924 0.81130 0.28543 0.72319
USER: genes 2 Torsion [C]-CA--N-[C] |==|  0.69145
USER: genes 3 Torsion [N]-C--CA-[N] |==|  0.30671
USER: genes 4 Torsion [C]-CA--CB-[CG] |==|  0.22362
USER: genes 5 Torsion [CA]-CB--CG-[CD2] |==|  0.30137
USER: genes 6 Torsion [C]-CA--N-[C] |==|  0.76536
USER: genes 7 Torsion [N]-CA--C-[N] |==|  0.38398
USER: genes 8 Torsion [C]-N--CA-[CB] |==|  0.21667
USER: genes 9 Torsion [N]-CA--CB-[CG2] |==|  0.71586
USER: genes 10 Torsion [CA]-CB--OG1-[HG1] |==|  0.97501
USER: genes 11 Torsion [N]-CA--C-[N] |==|  0.67784
USER: genes 12 Torsion [C]-N--CA-[C] |==|  0.57239
USER: genes 13 Torsion [N]-CA--C-[N] |==|  0.32417
USER: genes 14 Torsion [N]-CA--CB-[CG] |==|  0.41887
USER: genes 15 Torsion [CA]-CB--CG-[ND1] |==|  0.19552
ROOT
ATOM      1  CA  HIS C   2      22.811   4.284  44.451  1.00 11.69 LIG 0.18  C 
ENDROOT
BRANCH 1 2
ATOM      2  N   HIS C   2      22.287   5.574  44.896  1.00 10.87 LIG-0.35  N 
ATOM      3 H    HIS C   2      22.861   6.086  45.279  1.00 10.87 LIG 0.16  HD
ATOM      4  C   PHE C   1      21.012   5.891  44.701  1.00 11.47 LIG 0.24  C 
ATOM      5 O    PHE C   1      20.235   5.189  44.030  1.00 12.97 LIG-0.27  OA
BRANCH 4 6
ATOM      6  CA  PHE C   1      20.554   7.215  45.318  1.00 11.05 LIG 0.18  C 
BRANCH 6 7
ATOM      7  CB  PHE C   1      19.309   6.994  46.184  1.00 10.09 LIG 0.07  C 
BRANCH 7 8
ATOM      8  CG  PHE C   1      19.619   6.458  47.549  1.00  8.73 LIG-0.06  A 
ATOM      9  CD2 PHE C   1      19.484   7.253  48.663  1.00  8.91 LIG 0.01  A 
ATOM     10  CE2 PHE C   1      19.783   6.753  49.914  1.00  8.44 LIG 0.00  A 
ATOM     11  CZ  PHE C   1      20.232   5.454  50.050  1.00  8.32 LIG 0.00  A 
ATOM     12  CE1 PHE C   1      20.359   4.649  48.939  1.00  8.07 LIG 0.00  A 
ATOM     13  CD1 PHE C   1      20.067   5.158  47.698  1.00  8.33 LIG 0.01  A 
ENDBRANCH 7 8
ENDBRANCH 6 7
BRANCH 6 14
ATOM     14  N   PHE C   1      20.277   8.198  44.293  1.00 11.54 LIG-0.35  N 
ATOM     15 H    PHE C   1      19.447   8.235  44.075  1.00 11.54 LIG 0.16  HD
ATOM     16  C   ACE C   0      21.197   8.970  43.737  1.00 13.21 LIG 0.21  C 
ATOM     17  CH3 ACE C   0      20.813   9.807  42.552  1.00 13.47 LIG 0.12  C 
ATOM     18 O    ACE C   0      22.361   8.791  44.093  1.00 14.75 LIG-0.27  OA
ENDBRANCH 6 14
ENDBRANCH 4 6
ENDBRANCH 1 2
BRANCH 1 19
ATOM     19  C   HIS C   2      23.130   3.463  45.670  1.00 11.19 LIG 0.24  C 
ATOM     20  N   THR C   3      22.794   2.181  45.622  1.00 11.67 LIG-0.34  N 
ATOM     21 H    THR C   3      22.377   1.810  44.967  1.00 11.67 LIG 0.16  HD
ATOM     22 O    HIS C   2      23.715   3.959  46.630  1.00 11.10 LIG-0.27  OA
BRANCH 20 23
ATOM     23  CA  THR C   3      23.125   1.295  46.718  1.00 11.71 LIG 0.20  C 
BRANCH 23 24
ATOM     24  CB  THR C   3      22.156   1.465  47.918  1.00 13.34 LIG 0.15  C 
ATOM     25  CG2 THR C   3      22.776   2.275  49.029  1.00 14.42 LIG 0.04  C 
BRANCH 24 26
ATOM     26 OG1  THR C   3      20.981   2.130  47.462  1.00 13.01 LIG-0.39  OA
ATOM     27 HG1  THR C   3      21.100   2.402  46.676  1.00 13.01 LIG 0.21  HD
ENDBRANCH 24 26
ENDBRANCH 23 24
BRANCH 23 28
ATOM     28  C   THR C   3      23.168  -0.163  46.234  1.00 11.33 LIG 0.24  C 
ATOM     29  N   ALA C   4      22.267  -0.992  46.756  1.00 10.31 LIG-0.35  N 
ATOM     30 H    ALA C   4      21.751  -0.797  47.416  1.00 10.31 LIG 0.16  HD
ATOM     31 O    THR C   3      24.006  -0.532  45.401  1.00 11.88 LIG-0.27  OA
BRANCH 29 32
ATOM     32  CA  ALA C   4      22.094  -2.336  46.217  1.00 10.35 LIG 0.18  C 
ATOM     33  CB  ALA C   4      23.151  -3.290  46.792  1.00 10.31 LIG 0.04  C 
BRANCH 32 34
ATOM     34  C   ALA C   4      20.660  -2.863  46.481  1.00 10.99 LIG 0.28  C 
ATOM     35 O    ALA C   4      20.254  -3.030  47.625  0.79 11.43 LIG-0.27  OA
ATOM     36  N   NH2 C   5      19.903  -3.114  45.417  0.91 10.97 LIG-0.11  N 
ENDBRANCH 32 34
ENDBRANCH 29 32
ENDBRANCH 23 28
ENDBRANCH 20 23
ENDBRANCH 1 19
BRANCH 1 37
ATOM     37  CB  HIS C   2      24.105   4.433  43.664  1.00 14.08 LIG 0.10  C 
BRANCH 37 38
ATOM     38  CG  HIS C   2      25.017   3.264  43.773  1.00 15.42 LIG 0.06  A 
ATOM     39  CD2 HIS C   2      26.203   3.136  44.405  1.00 15.59 LIG 0.14  A 
ATOM     40 NE2  HIS C   2      26.637   1.848  44.199  1.00 17.02 LIG-0.25  NA
ATOM     41  CE1 HIS C   2      25.743   1.208  43.469  1.00 16.99 LIG 0.23  A 
ATOM     42 ND1  HIS C   2      24.755   2.040  43.195  0.48 15.92 LIG-0.24  NA
ENDBRANCH 37 38
ENDBRANCH 1 37
TORSDOF 14
ENDMDL
MODEL 22
USER: ADFR SOLUTION from run 194
USER: SCORE 12.450158 LL:  -3.051 LR: -10.823 RR:   0.000 FEB:  -6.646
USER: RMSD 9.625287
USER: SEED 193
USER: STATUS no improvement in best in 26 clusters for 5 generations
USER: GENES 16
USER: genes 0 Translation |==|  0.37720 0.48718 0.79831
USER: genes 1 Rotation |==|  0.86683 0.46156 0.82331 0.59711
USER: genes 2 Torsion [C]-CA--N-[C] |==|  0.63577
USER: genes 3 Torsion [N]-C--CA-[N] |==|  0.39410
USER: genes 4 Torsion [C]-CA--CB-[CG] |==|  0.21129
USER: genes 5 Torsion [CA]-CB--CG-[CD2] |==|  0.19732
USER: genes 6 Torsion [C]-CA--N-[C] |==|  0.83029
USER: genes 7 Torsion [N]-CA--C-[N] |==|  0.65207
USER: genes 8 Torsion [C]-N--CA-[CB] |==|  0.19444
USER: genes 9 Torsion [N]-CA--CB-[CG2] |==|  0.69118
USER: genes 10 Torsion [CA]-CB--OG1-[HG1] |==|  0.43825
USER: genes 11 Torsion [N]-CA--C-[N] |==|  0.14753
USER: genes 12 Torsion [C]-N--CA-[C] |==|  0.75419
USER: genes 13 Torsion [N]-CA--C-[N] |==|  0.43685
USER: genes 14 Torsion [N]-CA--CB-[CG] |==|  0.63641
USER: genes 15 Torsion [CA]-CB--CG-[ND1] |==|  0.62376
ROOT
ATOM      1  CA  HIS C   2      22.382   2.376  48.968  1.00 11.69 LIG 0.18  C 
ENDROOT
BRANCH 1 2
ATOM      2  N   HIS C   2      21.187   3.218  48.953  1.00 10.87 LIG-0.35  N 
ATOM      3 H    HIS C   2      20.519   2.890  48.523  1.00 10.87 LIG 0.16  HD
ATOM      4  C   PHE C   1      21.179   4.394  49.569  1.00 11.47 LIG 0.24  C 
ATOM      5 O    PHE C   1      22.113   4.786  50.290  1.00 12.97 LIG-0.27  OA
BRANCH 4 6
ATOM      6  CA  PHE C   1      19.915   5.237  49.379  1.00 11.05 LIG 0.18  C 
BRANCH 6 7
ATOM      7  CB  PHE C   1      20.114   6.243  48.242  1.00 10.09 LIG 0.07  C 
BRANCH 7 8
ATOM      8  CG  PHE C   1      20.034   5.627  46.878  1.00  8.73 LIG-0.06  A 
ATOM      9  CD2 PHE C   1      18.832   5.187  46.375  1.00  8.91 LIG 0.01  A 
ATOM     10  CE2 PHE C   1      18.771   4.612  45.123  1.00  8.44 LIG 0.00  A 
ATOM     11  CZ  PHE C   1      19.922   4.462  44.374  1.00  8.32 LIG 0.00  A 
ATOM     12  CE1 PHE C   1      21.128   4.910  44.868  1.00  8.07 LIG 0.00  A 
ATOM     13  CD1 PHE C   1      21.180   5.474  46.118  1.00  8.33 LIG 0.01  A 
ENDBRANCH 7 8
ENDBRANCH 6 7
BRANCH 6 14
ATOM     14  N   PHE C   1      19.564   5.929  50.600  1.00 11.54 LIG-0.35  N 
ATOM     15 H    PHE C   1      19.567   6.784  50.516  1.00 11.54 LIG 0.16  HD
ATOM     16  C   ACE C   0      19.265   5.323  51.738  1.00 13.21 LIG 0.21  C 
ATOM     17  CH3 ACE C   0      19.111   6.157  52.977  1.00 13.47 LIG 0.12  C 
ATOM     18 O    ACE C   0      19.344   4.096  51.751  1.00 14.75 LIG-0.27  OA
ENDBRANCH 6 14
ENDBRANCH 4 6
ENDBRANCH 1 2
BRANCH 1 19
ATOM     19  C   HIS C   2      22.662   1.935  47.557  1.00 11.19 LIG 0.24  C 
ATOM     20  N   THR C   3      22.765   0.627  47.359  1.00 11.67 LIG-0.34  N 
ATOM     21 H    THR C   3      22.723   0.034  47.981  1.00 11.67 LIG 0.16  HD
ATOM     22 O    HIS C   2      22.739   2.751  46.644  1.00 11.10 LIG-0.27  OA
BRANCH 20 23
ATOM     23  CA  THR C   3      22.961   0.102  46.024  1.00 11.71 LIG 0.20  C 
BRANCH 23 24
ATOM     24  CB  THR C   3      24.374   0.428  45.471  1.00 13.34 LIG 0.15  C 
ATOM     25  CG2 THR C   3      24.318   1.420  44.336  1.00 14.42 LIG 0.04  C 
BRANCH 24 26
ATOM     26 OG1  THR C   3      25.158   0.978  46.526  1.00 13.01 LIG-0.39  OA
ATOM     27 HG1  THR C   3      25.973   0.879  46.350  1.00 13.01 LIG 0.21  HD
ENDBRANCH 24 26
ENDBRANCH 23 24
BRANCH 23 28
ATOM     28  C   THR C   3      22.683  -1.409  45.995  1.00 11.33 LIG 0.24  C 
ATOM     29  N   ALA C   4      21.509  -1.808  46.480  1.00 10.31 LIG-0.35  N 
ATOM     30 H    ALA C   4      20.959  -1.301  46.904  1.00 10.31 LIG 0.16  HD
ATOM     31 O    THR C   3      23.519  -2.201  45.541  1.00 11.88 LIG-0.27  OA
BRANCH 29 32
ATOM     32  CA  ALA C   4      21.067  -3.188  46.313  1.00 10.35 LIG 0.18  C 
ATOM     33  CB  ALA C   4      20.220  -3.634  47.514  1.00 10.31 LIG 0.04  C 
BRANCH 32 34
ATOM     34  C   ALA C   4      20.294  -3.370  44.982  1.00 10.99 LIG 0.28  C 
ATOM     35 O    ALA C   4      19.766  -2.412  44.428  0.79 11.43 LIG-0.27  OA
ATOM     36  N   NH2 C   5      20.241  -4.599  44.477  0.91 10.97 LIG-0.11  N 
ENDBRANCH 32 34
ENDBRANCH 29 32
ENDBRANCH 23 28
ENDBRANCH 20 23
ENDBRANCH 1 19
BRANCH 1 37
ATOM     37  CB  HIS C   2      22.183   1.115  49.796  1.00 14.08 LIG 0.10  C 
BRANCH 37 38
ATOM     38  CG  HIS C   2      23.273   0.854  50.773  1.00 15.42 LIG 0.06  A 
ATOM     39  CD2 HIS C   2      23.902   1.692  51.624  1.00 15.59 LIG 0.14  A 
ATOM     40 NE2  HIS C   2      24.835   0.950  52.309  1.00 17.02 LIG-0.25  NA
ATOM     41  CE1 HIS C   2      24.774  -0.301  51.894  1.00 16.99 LIG 0.23  A 
ATOM     42 ND1  HIS C   2      23.840  -0.387  50.963  0.48 15.92 LIG-0.24  NA
ENDBRANCH 37 38
ENDBRANCH 1 37
TORSDOF 14
ENDMDL
MODEL 23
USER: ADFR SOLUTION from run 125
USER: SCORE 12.238456 LL:  -3.249 LR: -10.804 RR:   0.000 FEB:  -6.628
USER: RMSD 7.874798
USER: SEED 124
USER: STATUS no improvement in best in 31 clusters for 5 generations
USER: GENES 16
USER: genes 0 Translation |==|  0.59570 0.46278 0.37879
USER: genes 1 Rotation |==|  0.49170 0.22649 0.12186 0.67924
USER: genes 2 Torsion [C]-CA--N-[C] |==|  0.53485
USER: genes 3 Torsion [N]-C--CA-[N] |==|  0.41712
USER: genes 4 Torsion [C]-CA--CB-[CG] |==|  0.82848
USER: genes 5 Torsion [CA]-CB--CG-[CD2] |==|  0.68456
USER: genes 6 Torsion [C]-CA--N-[C] |==|  0.71558
USER: genes 7 Torsion [N]-CA--C-[N] |==|  0.39831
USER: genes 8 Torsion [C]-N--CA-[CB] |==|  0.83955
USER: genes 9 Torsion [N]-CA--CB-[CG2] |==|  0.55861
USER: genes 10 Torsion [CA]-CB--OG1-[HG1] |==|  0.08318
USER: genes 11 Torsion [N]-CA--C-[N] |==|  0.76333
USER: genes 12 Torsion [C]-N--CA-[C] |==|  0.76394
USER: genes 13 Torsion [N]-CA--C-[N] |==|  0.22206
USER: genes 14 Torsion [N]-CA--CB-[CG] |==|  0.61618
USER: genes 15 Torsion [CA]-CB--CG-[ND1] |==|  0.77430
ROOT
ATOM      1  CA  HIS C   2      26.643   1.973  40.472  1.00 11.69 LIG 0.18  C 
ENDROOT
BRANCH 1 2
ATOM      2  N   HIS C   2      27.035   0.871  39.594  1.00 10.87 LIG-0.35  N 
ATOM      3 H    HIS C   2      27.770   0.994  39.166  1.00 10.87 LIG 0.16  HD
ATOM      4  C   PHE C   1      26.283  -0.219  39.497  1.00 11.47 LIG 0.24  C 
ATOM      5 O    PHE C   1      25.294  -0.425  40.223  1.00 12.97 LIG-0.27  OA
BRANCH 4 6
ATOM      6  CA  PHE C   1      26.733  -1.248  38.456  1.00 11.05 LIG 0.18  C 
BRANCH 6 7
ATOM      7  CB  PHE C   1      26.125  -0.919  37.089  1.00 10.09 LIG 0.07  C 
BRANCH 7 8
ATOM      8  CG  PHE C   1      24.627  -0.959  37.075  1.00  8.73 LIG-0.06  A 
ATOM      9  CD2 PHE C   1      23.956  -1.912  36.344  1.00  8.91 LIG 0.01  A 
ATOM     10  CE2 PHE C   1      22.577  -1.933  36.330  1.00  8.44 LIG 0.00  A 
ATOM     11  CZ  PHE C   1      21.864  -0.987  37.039  1.00  8.32 LIG 0.00  A 
ATOM     12  CE1 PHE C   1      22.530  -0.036  37.781  1.00  8.07 LIG 0.00  A 
ATOM     13  CD1 PHE C   1      23.902  -0.018  37.783  1.00  8.33 LIG 0.01  A 
ENDBRANCH 7 8
ENDBRANCH 6 7
BRANCH 6 14
ATOM     14  N   PHE C   1      26.362  -2.587  38.856  1.00 11.54 LIG-0.35  N 
ATOM     15 H    PHE C   1      25.531  -2.762  38.723  1.00 11.54 LIG 0.16  HD
ATOM     16  C   ACE C   0      27.203  -3.467  39.375  1.00 13.21 LIG 0.21  C 
ATOM     17  CH3 ACE C   0      26.652  -4.750  39.927  1.00 13.47 LIG 0.12  C 
ATOM     18 O    ACE C   0      28.357  -3.086  39.567  1.00 14.75 LIG-0.27  OA
ENDBRANCH 6 14
ENDBRANCH 4 6
ENDBRANCH 1 2
BRANCH 1 19
ATOM     19  C   HIS C   2      27.501   3.163  40.141  1.00 11.19 LIG 0.24  C 
ATOM     20  N   THR C   3      26.912   4.349  40.204  1.00 11.67 LIG-0.34  N 
ATOM     21 H    THR C   3      26.079   4.472  40.378  1.00 11.67 LIG 0.16  HD
ATOM     22 O    HIS C   2      28.693   3.028  39.877  1.00 11.10 LIG-0.27  OA
BRANCH 20 23
ATOM     23  CA  THR C   3      27.674   5.559  39.973  1.00 11.71 LIG 0.20  C 
BRANCH 23 24
ATOM     24  CB  THR C   3      28.869   5.691  40.953  1.00 13.34 LIG 0.15  C 
ATOM     25  CG2 THR C   3      29.341   7.119  41.074  1.00 14.42 LIG 0.04  C 
BRANCH 24 26
ATOM     26 OG1  THR C   3      28.458   5.230  42.237  1.00 13.01 LIG-0.39  OA
ATOM     27 HG1  THR C   3      27.869   4.638  42.146  1.00 13.01 LIG 0.21  HD
ENDBRANCH 24 26
ENDBRANCH 23 24
BRANCH 23 28
ATOM     28  C   THR C   3      28.137   5.630  38.510  1.00 11.33 LIG 0.24  C 
ATOM     29  N   ALA C   4      29.270   4.997  38.212  1.00 10.31 LIG-0.35  N 
ATOM     30 H    ALA C   4      29.806   4.659  38.793  1.00 10.31 LIG 0.16  HD
ATOM     31 O    THR C   3      27.478   6.248  37.664  1.00 11.88 LIG-0.27  OA
BRANCH 29 32
ATOM     32  CA  ALA C   4      29.686   4.834  36.824  1.00 10.35 LIG 0.18  C 
ATOM     33  CB  ALA C   4      31.217   4.768  36.721  1.00 10.31 LIG 0.04  C 
BRANCH 32 34
ATOM     34  C   ALA C   4      29.027   3.584  36.187  1.00 10.99 LIG 0.28  C 
ATOM     35 O    ALA C   4      29.647   2.531  36.085  0.79 11.43 LIG-0.27  OA
ATOM     36  N   NH2 C   5      27.771   3.709  35.770  0.91 10.97 LIG-0.11  N 
ENDBRANCH 32 34
ENDBRANCH 29 32
ENDBRANCH 23 28
ENDBRANCH 20 23
ENDBRANCH 1 19
BRANCH 1 37
ATOM     37  CB  HIS C   2      26.881   1.648  41.940  1.00 14.08 LIG 0.10  C 
BRANCH 37 38
ATOM     38  CG  HIS C   2      25.783   2.085  42.842  1.00 15.42 LIG 0.06  A 
ATOM     39  CD2 HIS C   2      24.758   1.386  43.372  1.00 15.59 LIG 0.14  A 
ATOM     40 NE2  HIS C   2      24.024   2.259  44.138  1.00 17.02 LIG-0.25  NA
ATOM     41  CE1 HIS C   2      24.586   3.452  44.083  1.00 16.99 LIG 0.23  A 
ATOM     42 ND1  HIS C   2      25.650   3.376  43.304  0.48 15.92 LIG-0.24  NA
ENDBRANCH 37 38
ENDBRANCH 1 37
TORSDOF 14
ENDMDL
MODEL 24
USER: ADFR SOLUTION from run 58
USER: SCORE 12.122531 LL:  -2.970 LR: -10.784 RR:   0.000 FEB:  -6.608
USER: RMSD 8.175401
USER: SEED 57
USER: STATUS no improvement in best in 24 clusters for 5 generations
USER: GENES 16
USER: genes 0 Translation |==|  0.40431 0.55837 0.57764
USER: genes 1 Rotation |==|  0.50743 0.97070 0.65049 0.57576
USER: genes 2 Torsion [C]-CA--N-[C] |==|  0.87572
USER: genes 3 Torsion [N]-C--CA-[N] |==|  0.95161
USER: genes 4 Torsion [C]-CA--CB-[CG] |==|  0.49175
USER: genes 5 Torsion [CA]-CB--CG-[CD2] |==|  0.44560
USER: genes 6 Torsion [C]-CA--N-[C] |==|  0.82119
USER: genes 7 Torsion [N]-CA--C-[N] |==|  0.34488
USER: genes 8 Torsion [C]-N--CA-[CB] |==|  0.37087
USER: genes 9 Torsion [N]-CA--CB-[CG2] |==|  0.91486
USER: genes 10 Torsion [CA]-CB--OG1-[HG1] |==|  0.83200
USER: genes 11 Torsion [N]-CA--C-[N] |==|  0.85850
USER: genes 12 Torsion [C]-N--CA-[C] |==|  0.80786
USER: genes 13 Torsion [N]-CA--C-[N] |==|  0.43333
USER: genes 14 Torsion [N]-CA--CB-[CG] |==|  0.84965
USER: genes 15 Torsion [CA]-CB--CG-[ND1] |==|  0.33814
ROOT
ATOM      1  CA  HIS C   2      22.911   3.550  44.499  1.00 11.69 LIG 0.18  C 
ENDROOT
BRANCH 1 2
ATOM      2  N   HIS C   2      22.591   2.466  45.427  1.00 10.87 LIG-0.35  N 
ATOM      3 H    HIS C   2      21.935   2.627  45.959  1.00 10.87 LIG 0.16  HD
ATOM      4  C   PHE C   1      23.287   1.335  45.415  1.00 11.47 LIG 0.24  C 
ATOM      5 O    PHE C   1      24.145   1.078  44.551  1.00 12.97 LIG-0.27  OA
BRANCH 4 6
ATOM      6  CA  PHE C   1      22.937   0.326  46.512  1.00 11.05 LIG 0.18  C 
BRANCH 6 7
ATOM      7  CB  PHE C   1      22.121  -0.831  45.927  1.00 10.09 LIG 0.07  C 
BRANCH 7 8
ATOM      8  CG  PHE C   1      21.798  -1.900  46.927  1.00  8.73 LIG-0.06  A 
ATOM      9  CD2 PHE C   1      20.769  -2.784  46.703  1.00  8.91 LIG 0.01  A 
ATOM     10  CE2 PHE C   1      20.474  -3.757  47.635  1.00  8.44 LIG 0.00  A 
ATOM     11  CZ  PHE C   1      21.203  -3.838  48.806  1.00  8.32 LIG 0.00  A 
ATOM     12  CE1 PHE C   1      22.242  -2.962  49.031  1.00  8.07 LIG 0.00  A 
ATOM     13  CD1 PHE C   1      22.524  -1.992  48.101  1.00  8.33 LIG 0.01  A 
ENDBRANCH 7 8
ENDBRANCH 6 7
BRANCH 6 14
ATOM     14  N   PHE C   1      22.203   0.959  47.585  1.00 11.54 LIG-0.35  N 
ATOM     15 H    PHE C   1      21.402   0.660  47.670  1.00 11.54 LIG 0.16  HD
ATOM     16  C   ACE C   0      22.700   1.904  48.368  1.00 13.21 LIG 0.21  C 
ATOM     17  CH3 ACE C   0      21.775   2.614  49.313  1.00 13.47 LIG 0.12  C 
ATOM     18 O    ACE C   0      23.841   2.289  48.118  1.00 14.75 LIG-0.27  OA
ENDBRANCH 6 14
ENDBRANCH 4 6
ENDBRANCH 1 2
BRANCH 1 19
ATOM     19  C   HIS C   2      24.405   3.725  44.482  1.00 11.19 LIG 0.24  C 
ATOM     20  N   THR C   3      24.994   3.639  43.297  1.00 11.67 LIG-0.34  N 
ATOM     21 H    THR C   3      24.588   3.452  42.562  1.00 11.67 LIG 0.16  HD
ATOM     22 O    HIS C   2      25.023   3.981  45.512  1.00 11.10 LIG-0.27  OA
BRANCH 20 23
ATOM     23  CA  THR C   3      26.419   3.865  43.169  1.00 11.71 LIG 0.20  C 
BRANCH 23 24
ATOM     24  CB  THR C   3      27.106   2.775  42.303  1.00 13.34 LIG 0.15  C 
ATOM     25  CG2 THR C   3      26.406   1.443  42.419  1.00 14.42 LIG 0.04  C 
BRANCH 24 26
ATOM     26 OG1  THR C   3      27.080   3.193  40.942  1.00 13.01 LIG-0.39  OA
ATOM     27 HG1  THR C   3      26.284   3.288  40.693  1.00 13.01 LIG 0.21  HD
ENDBRANCH 24 26
ENDBRANCH 23 24
BRANCH 23 28
ATOM     28  C   THR C   3      26.691   5.273  42.618  1.00 11.33 LIG 0.24  C 
ATOM     29  N   ALA C   4      26.034   5.618  41.513  1.00 10.31 LIG-0.35  N 
ATOM     30 H    ALA C   4      25.568   5.077  41.034  1.00 10.31 LIG 0.16  HD
ATOM     31 O    THR C   3      27.485   6.034  43.185  1.00 11.88 LIG-0.27  OA
BRANCH 29 32
ATOM     32  CA  ALA C   4      26.068   6.993  41.029  1.00 10.35 LIG 0.18  C 
ATOM     33  CB  ALA C   4      25.526   7.076  39.594  1.00 10.31 LIG 0.04  C 
BRANCH 32 34
ATOM     34  C   ALA C   4      25.289   7.939  41.978  1.00 10.99 LIG 0.28  C 
ATOM     35 O    ALA C   4      24.409   7.504  42.713  0.79 11.43 LIG-0.27  OA
ATOM     36  N   NH2 C   5      25.624   9.225  41.960  0.91 10.97 LIG-0.11  N 
ENDBRANCH 32 34
ENDBRANCH 29 32
ENDBRANCH 23 28
ENDBRANCH 20 23
ENDBRANCH 1 19
BRANCH 1 37
ATOM     37  CB  HIS C   2      22.313   4.877  44.942  1.00 14.08 LIG 0.10  C 
BRANCH 37 38
ATOM     38  CG  HIS C   2      20.847   4.830  45.184  1.00 15.42 LIG 0.06  A 
ATOM     39  CD2 HIS C   2      19.836   4.490  44.358  1.00 15.59 LIG 0.14  A 
ATOM     40 NE2  HIS C   2      18.668   4.613  45.072  1.00 17.02 LIG-0.25  NA
ATOM     41  CE1 HIS C   2      18.956   5.011  46.296  1.00 16.99 LIG 0.23  A 
ATOM     42 ND1  HIS C   2      20.266   5.153  46.391  0.48 15.92 LIG-0.24  NA
ENDBRANCH 37 38
ENDBRANCH 1 37
TORSDOF 14
ENDMDL
MODEL 25
USER: ADFR SOLUTION from run 197
USER: SCORE 12.409647 LL:  -3.781 LR: -10.776 RR:   0.000 FEB:  -6.600
USER: RMSD 7.923282
USER: SEED 196
USER: STATUS no improvement in best in 35 clusters for 5 generations
USER: GENES 16
USER: genes 0 Translation |==|  0.65886 0.49290 0.32502
USER: genes 1 Rotation |==|  0.67871 0.89104 0.66674 0.69326
USER: genes 2 Torsion [C]-CA--N-[C] |==|  0.84444
USER: genes 3 Torsion [N]-C--CA-[N] |==|  0.91365
USER: genes 4 Torsion [C]-CA--CB-[CG] |==|  0.23213
USER: genes 5 Torsion [CA]-CB--CG-[CD2] |==|  0.38109
USER: genes 6 Torsion [C]-CA--N-[C] |==|  0.79559
USER: genes 7 Torsion [N]-CA--C-[N] |==|  0.93788
USER: genes 8 Torsion [C]-N--CA-[CB] |==|  0.40399
USER: genes 9 Torsion [N]-CA--CB-[CG2] |==|  0.57860
USER: genes 10 Torsion [CA]-CB--OG1-[HG1] |==|  0.12105
USER: genes 11 Torsion [N]-CA--C-[N] |==|  0.70650
USER: genes 12 Torsion [C]-N--CA-[C] |==|  0.70982
USER: genes 13 Torsion [N]-CA--C-[N] |==|  0.07776
USER: genes 14 Torsion [N]-CA--CB-[CG] |==|  0.75636
USER: genes 15 Torsion [CA]-CB--CG-[ND1] |==|  0.34245
ROOT
ATOM      1  CA  HIS C   2      27.875   2.470  39.384  1.00 11.69 LIG 0.18  C 
ENDROOT
BRANCH 1 2
ATOM      2  N   HIS C   2      26.611   1.880  39.824  1.00 10.87 LIG-0.35  N 
ATOM      3 H    HIS C   2      26.170   2.352  40.392  1.00 10.87 LIG 0.16  HD
ATOM      4  C   PHE C   1      26.214   0.702  39.358  1.00 11.47 LIG 0.24  C 
ATOM      5 O    PHE C   1      26.806   0.102  38.443  1.00 12.97 LIG-0.27  OA
BRANCH 4 6
ATOM      6  CA  PHE C   1      24.938   0.134  39.984  1.00 11.05 LIG 0.18  C 
BRANCH 6 7
ATOM      7  CB  PHE C   1      23.710   0.575  39.180  1.00 10.09 LIG 0.07  C 
BRANCH 7 8
ATOM      8  CG  PHE C   1      23.435  -0.289  37.988  1.00  8.73 LIG-0.06  A 
ATOM      9  CD2 PHE C   1      22.151  -0.678  37.683  1.00  8.91 LIG 0.01  A 
ATOM     10  CE2 PHE C   1      21.910  -1.483  36.589  1.00  8.44 LIG 0.00  A 
ATOM     11  CZ  PHE C   1      22.961  -1.913  35.802  1.00  8.32 LIG 0.00  A 
ATOM     12  CE1 PHE C   1      24.248  -1.518  36.095  1.00  8.07 LIG 0.00  A 
ATOM     13  CD1 PHE C   1      24.479  -0.724  37.191  1.00  8.33 LIG 0.01  A 
ENDBRANCH 7 8
ENDBRANCH 6 7
BRANCH 6 14
ATOM     14  N   PHE C   1      24.805   0.551  41.363  1.00 11.54 LIG-0.35  N 
ATOM     15 H    PHE C   1      24.199   1.150  41.478  1.00 11.54 LIG 0.16  HD
ATOM     16  C   ACE C   0      25.534   0.071  42.357  1.00 13.21 LIG 0.21  C 
ATOM     17  CH3 ACE C   0      25.434   0.727  43.704  1.00 13.47 LIG 0.12  C 
ATOM     18 O    ACE C   0      26.407  -0.744  42.063  1.00 14.75 LIG-0.27  OA
ENDBRANCH 6 14
ENDBRANCH 4 6
ENDBRANCH 1 2
BRANCH 1 19
ATOM     19  C   HIS C   2      28.974   1.483  39.663  1.00 11.19 LIG 0.24  C 
ATOM     20  N   THR C   3      28.727   0.575  40.598  1.00 11.67 LIG-0.34  N 
ATOM     21 H    THR C   3      28.009   0.545  41.071  1.00 11.67 LIG 0.16  HD
ATOM     22 O    HIS C   2      30.019   1.500  39.017  1.00 11.10 LIG-0.27  OA
BRANCH 20 23
ATOM     23  CA  THR C   3      29.696  -0.462  40.888  1.00 11.71 LIG 0.20  C 
BRANCH 23 24
ATOM     24  CB  THR C   3      29.712  -0.839  42.393  1.00 13.34 LIG 0.15  C 
ATOM     25  CG2 THR C   3      31.065  -1.344  42.830  1.00 14.42 LIG 0.04  C 
BRANCH 24 26
ATOM     26 OG1  THR C   3      29.382   0.318  43.155  1.00 13.01 LIG-0.39  OA
ATOM     27 HG1  THR C   3      28.738   0.717  42.794  1.00 13.01 LIG 0.21  HD
ENDBRANCH 24 26
ENDBRANCH 23 24
BRANCH 23 28
ATOM     28  C   THR C   3      29.445  -1.692  40.003  1.00 11.33 LIG 0.24  C 
ATOM     29  N   ALA C   4      28.896  -2.751  40.596  1.00 10.31 LIG-0.35  N 
ATOM     30 H    ALA C   4      28.784  -2.830  41.444  1.00 10.31 LIG 0.16  HD
ATOM     31 O    THR C   3      29.744  -1.684  38.802  1.00 11.88 LIG-0.27  OA
BRANCH 29 32
ATOM     32  CA  ALA C   4      28.434  -3.887  39.806  1.00 10.35 LIG 0.18  C 
ATOM     33  CB  ALA C   4      28.957  -5.205  40.396  1.00 10.31 LIG 0.04  C 
BRANCH 32 34
ATOM     34  C   ALA C   4      26.888  -3.897  39.694  1.00 10.99 LIG 0.28  C 
ATOM     35 O    ALA C   4      26.277  -4.950  39.552  0.79 11.43 LIG-0.27  OA
ATOM     36  N   NH2 C   5      26.269  -2.723  39.766  0.91 10.97 LIG-0.11  N 
ENDBRANCH 32 34
ENDBRANCH 29 32
ENDBRANCH 23 28
ENDBRANCH 20 23
ENDBRANCH 1 19
BRANCH 1 37
ATOM     37  CB  HIS C   2      28.212   3.740  40.151  1.00 14.08 LIG 0.10  C 
BRANCH 37 38
ATOM     38  CG  HIS C   2      27.634   4.975  39.560  1.00 15.42 LIG 0.06  A 
ATOM     39  CD2 HIS C   2      27.765   5.496  38.322  1.00 15.59 LIG 0.14  A 
ATOM     40 NE2  HIS C   2      27.027   6.654  38.287  1.00 17.02 LIG-0.25  NA
ATOM     41  CE1 HIS C   2      26.458   6.834  39.464  1.00 16.99 LIG 0.23  A 
ATOM     42 ND1  HIS C   2      26.810   5.835  40.254  0.48 15.92 LIG-0.24  NA
ENDBRANCH 37 38
ENDBRANCH 1 37
TORSDOF 14
ENDMDL
MODEL 26
USER: ADFR SOLUTION from run 28
USER: SCORE 11.577569 LL:  -2.928 LR: -10.689 RR:   0.000 FEB:  -6.512
USER: RMSD 3.767723
USER: SEED 27
USER: STATUS no improvement in best in 19 clusters for 5 generations
USER: GENES 16
USER: genes 0 Translation |==|  0.48077 0.43239 0.53930
USER: genes 1 Rotation |==|  0.63015 0.40401 0.16932 0.83837
USER: genes 2 Torsion [C]-CA--N-[C] |==|  0.55156
USER: genes 3 Torsion [N]-C--CA-[N] |==|  0.13300
USER: genes 4 Torsion [C]-CA--CB-[CG] |==|  0.27342
USER: genes 5 Torsion [CA]-CB--CG-[CD2] |==|  0.92105
USER: genes 6 Torsion [C]-CA--N-[C] |==|  0.16111
USER: genes 7 Torsion [N]-CA--C-[N] |==|  0.34215
USER: genes 8 Torsion [C]-N--CA-[CB] |==|  0.37422
USER: genes 9 Torsion [N]-CA--CB-[CG2] |==|  0.33709
USER: genes 10 Torsion [CA]-CB--OG1-[HG1] |==|  0.85185
USER: genes 11 Torsion [N]-CA--C-[N] |==|  0.86220
USER: genes 12 Torsion [C]-N--CA-[C] |==|  0.16221
USER: genes 13 Torsion [N]-CA--C-[N] |==|  0.07396
USER: genes 14 Torsion [N]-CA--CB-[CG] |==|  0.56289
USER: genes 15 Torsion [CA]-CB--CG-[ND1] |==|  0.01067
ROOT
ATOM      1  CA  HIS C   2      24.402   1.471  43.723  1.00 11.69 LIG 0.18  C 
ENDROOT
BRANCH 1 2
ATOM      2  N   HIS C   2      24.988   1.694  42.402  1.00 10.87 LIG-0.35  N 
ATOM      3 H    HIS C   2      25.262   2.497  42.258  1.00 10.87 LIG 0.16  HD
ATOM      4  C   PHE C   1      25.072   0.704  41.521  1.00 11.47 LIG 0.24  C 
ATOM      5 O    PHE C   1      24.787  -0.475  41.800  1.00 12.97 LIG-0.27  OA
BRANCH 4 6
ATOM      6  CA  PHE C   1      25.591   1.089  40.134  1.00 11.05 LIG 0.18  C 
BRANCH 6 7
ATOM      7  CB  PHE C   1      25.867  -0.169  39.303  1.00 10.09 LIG 0.07  C 
BRANCH 7 8
ATOM      8  CG  PHE C   1      24.759  -0.515  38.356  1.00  8.73 LIG-0.06  A 
ATOM      9  CD2 PHE C   1      23.458  -0.167  38.638  1.00  8.91 LIG 0.01  A 
ATOM     10  CE2 PHE C   1      22.444  -0.500  37.764  1.00  8.44 LIG 0.00  A 
ATOM     11  CZ  PHE C   1      22.730  -1.199  36.607  1.00  8.32 LIG 0.00  A 
ATOM     12  CE1 PHE C   1      24.032  -1.541  36.314  1.00  8.07 LIG 0.00  A 
ATOM     13  CD1 PHE C   1      25.033  -1.212  37.193  1.00  8.33 LIG 0.01  A 
ENDBRANCH 7 8
ENDBRANCH 6 7
BRANCH 6 14
ATOM     14  N   PHE C   1      26.790   1.892  40.232  1.00 11.54 LIG-0.35  N 
ATOM     15 H    PHE C   1      26.715   2.659  39.851  1.00 11.54 LIG 0.16  HD
ATOM     16  C   ACE C   0      27.897   1.502  40.841  1.00 13.21 LIG 0.21  C 
ATOM     17  CH3 ACE C   0      29.130   2.347  40.703  1.00 13.47 LIG 0.12  C 
ATOM     18 O    ACE C   0      27.905   0.362  41.304  1.00 14.75 LIG-0.27  OA
ENDBRANCH 6 14
ENDBRANCH 4 6
ENDBRANCH 1 2
BRANCH 1 19
ATOM     19  C   HIS C   2      24.028   2.809  44.300  1.00 11.19 LIG 0.24  C 
ATOM     20  N   THR C   3      22.758   2.965  44.650  1.00 11.67 LIG-0.34  N 
ATOM     21 H    THR C   3      22.143   2.376  44.530  1.00 11.67 LIG 0.16  HD
ATOM     22 O    HIS C   2      24.876   3.680  44.477  1.00 11.10 LIG-0.27  OA
BRANCH 20 23
ATOM     23  CA  THR C   3      22.317   4.191  45.281  1.00 11.71 LIG 0.20  C 
BRANCH 23 24
ATOM     24  CB  THR C   3      20.993   4.719  44.667  1.00 13.34 LIG 0.15  C 
ATOM     25  CG2 THR C   3      19.903   4.840  45.703  1.00 14.42 LIG 0.04  C 
BRANCH 24 26
ATOM     26 OG1  THR C   3      21.236   6.003  44.100  1.00 13.01 LIG-0.39  OA
ATOM     27 HG1  THR C   3      21.588   6.502  44.676  1.00 13.01 LIG 0.21  HD
ENDBRANCH 24 26
ENDBRANCH 23 24
BRANCH 23 28
ATOM     28  C   THR C   3      22.193   3.998  46.800  1.00 11.33 LIG 0.24  C 
ATOM     29  N   ALA C   4      21.509   2.933  47.212  1.00 10.31 LIG-0.35  N 
ATOM     30 H    ALA C   4      21.046   2.423  46.698  1.00 10.31 LIG 0.16  HD
ATOM     31 O    THR C   3      22.709   4.803  47.587  1.00 11.88 LIG-0.27  OA
BRANCH 29 32
ATOM     32  CA  ALA C   4      21.507   2.552  48.620  1.00 10.35 LIG 0.18  C 
ATOM     33  CB  ALA C   4      22.911   2.115  49.065  1.00 10.31 LIG 0.04  C 
BRANCH 32 34
ATOM     34  C   ALA C   4      20.969   3.701  49.509  1.00 10.99 LIG 0.28  C 
ATOM     35 O    ALA C   4      21.319   3.805  50.680  0.79 11.43 LIG-0.27  OA
ATOM     36  N   NH2 C   5      20.126   4.559  48.944  0.91 10.97 LIG-0.11  N 
ENDBRANCH 32 34
ENDBRANCH 29 32
ENDBRANCH 23 28
ENDBRANCH 20 23
ENDBRANCH 1 19
BRANCH 1 37
ATOM     37  CB  HIS C   2      25.390   0.832  44.687  1.00 14.08 LIG 0.10  C 
BRANCH 37 38
ATOM     38  CG  HIS C   2      24.751   0.111  45.819  1.00 15.42 LIG 0.06  A 
ATOM     39  CD2 HIS C   2      25.302  -0.504  46.886  1.00 15.59 LIG 0.14  A 
ATOM     40 NE2  HIS C   2      24.272  -1.017  47.637  1.00 17.02 LIG-0.25  NA
ATOM     41  CE1 HIS C   2      23.127  -0.721  47.051  1.00 16.99 LIG 0.23  A 
ATOM     42 ND1  HIS C   2      23.387  -0.042  45.948  0.48 15.92 LIG-0.24  NA
ENDBRANCH 37 38
ENDBRANCH 1 37
TORSDOF 14
ENDMDL
MODEL 27
USER: ADFR SOLUTION from run 171
USER: SCORE 12.779150 LL:  -2.840 LR: -10.599 RR:   0.000 FEB:  -6.423
USER: RMSD 4.459812
USER: SEED 170
USER: STATUS no improvement in best in 10 clusters for 5 generations
USER: GENES 16
USER: genes 0 Translation |==|  0.57422 0.47762 0.51922
USER: genes 1 Rotation |==|  0.46947 0.56147 0.63339 0.97697
USER: genes 2 Torsion [C]-CA--N-[C] |==|  0.83519
USER: genes 3 Torsion [N]-C--CA-[N] |==|  0.50556
USER: genes 4 Torsion [C]-CA--CB-[CG] |==|  0.52484
USER: genes 5 Torsion [CA]-CB--CG-[CD2] |==|  0.42340
USER: genes 6 Torsion [C]-CA--N-[C] |==|  0.71163
USER: genes 7 Torsion [N]-CA--C-[N] |==|  0.38082
USER: genes 8 Torsion [C]-N--CA-[CB] |==|  0.84409
USER: genes 9 Torsion [N]-CA--CB-[CG2] |==|  0.42385
USER: genes 10 Torsion [CA]-CB--OG1-[HG1] |==|  0.21874
USER: genes 11 Torsion [N]-CA--C-[N] |==|  0.44388
USER: genes 12 Torsion [C]-N--CA-[C] |==|  0.79212
USER: genes 13 Torsion [N]-CA--C-[N] |==|  0.41376
USER: genes 14 Torsion [N]-CA--CB-[CG] |==|  0.32547
USER: genes 15 Torsion [CA]-CB--CG-[ND1] |==|  0.77383
ROOT
ATOM      1  CA  HIS C   2      26.224   2.218  43.316  1.00 11.69 LIG 0.18  C 
ENDROOT
BRANCH 1 2
ATOM      2  N   HIS C   2      26.048   1.633  41.987  1.00 10.87 LIG-0.35  N 
ATOM      3 H    HIS C   2      25.909   2.201  41.357  1.00 10.87 LIG 0.16  HD
ATOM      4  C   PHE C   1      26.104   0.318  41.812  1.00 11.47 LIG 0.24  C 
ATOM      5 O    PHE C   1      26.433  -0.471  42.716  1.00 12.97 LIG-0.27  OA
BRANCH 4 6
ATOM      6  CA  PHE C   1      25.783  -0.180  40.401  1.00 11.05 LIG 0.18  C 
BRANCH 6 7
ATOM      7  CB  PHE C   1      24.404   0.323  39.962  1.00 10.09 LIG 0.07  C 
BRANCH 7 8
ATOM      8  CG  PHE C   1      23.923  -0.292  38.683  1.00  8.73 LIG-0.06  A 
ATOM      9  CD2 PHE C   1      22.578  -0.422  38.427  1.00  8.91 LIG 0.01  A 
ATOM     10  CE2 PHE C   1      22.147  -0.999  37.251  1.00  8.44 LIG 0.00  A 
ATOM     11  CZ  PHE C   1      23.066  -1.462  36.330  1.00  8.32 LIG 0.00  A 
ATOM     12  CE1 PHE C   1      24.415  -1.325  36.575  1.00  8.07 LIG 0.00  A 
ATOM     13  CD1 PHE C   1      24.835  -0.757  37.752  1.00  8.33 LIG 0.01  A 
ENDBRANCH 7 8
ENDBRANCH 6 7
BRANCH 6 14
ATOM     14  N   PHE C   1      25.829  -1.624  40.337  1.00 11.54 LIG-0.35  N 
ATOM     15 H    PHE C   1      25.139  -2.001  40.686  1.00 11.54 LIG 0.16  HD
ATOM     16  C   ACE C   0      26.823  -2.313  39.800  1.00 13.21 LIG 0.21  C 
ATOM     17  CH3 ACE C   0      26.841  -3.804  39.972  1.00 13.47 LIG 0.12  C 
ATOM     18 O    ACE C   0      27.782  -1.667  39.379  1.00 14.75 LIG-0.27  OA
ENDBRANCH 6 14
ENDBRANCH 4 6
ENDBRANCH 1 2
BRANCH 1 19
ATOM     19  C   HIS C   2      25.158   1.660  44.218  1.00 11.19 LIG 0.24  C 
ATOM     20  N   THR C   3      25.544   1.304  45.436  1.00 11.67 LIG-0.34  N 
ATOM     21 H    THR C   3      26.356   1.333  45.719  1.00 11.67 LIG 0.16  HD
ATOM     22 O    HIS C   2      23.989   1.592  43.847  1.00 11.10 LIG-0.27  OA
BRANCH 20 23
ATOM     23  CA  THR C   3      24.576   0.823  46.400  1.00 11.71 LIG 0.20  C 
BRANCH 23 24
ATOM     24  CB  THR C   3      23.428   1.842  46.631  1.00 13.34 LIG 0.15  C 
ATOM     25  CG2 THR C   3      22.151   1.162  47.057  1.00 14.42 LIG 0.04  C 
BRANCH 24 26
ATOM     26 OG1  THR C   3      23.828   2.754  47.650  1.00 13.01 LIG-0.39  OA
ATOM     27 HG1  THR C   3      24.349   3.327  47.324  1.00 13.01 LIG 0.21  HD
ENDBRANCH 24 26
ENDBRANCH 23 24
BRANCH 23 28
ATOM     28  C   THR C   3      24.031  -0.549  45.976  1.00 11.33 LIG 0.24  C 
ATOM     29  N   ALA C   4      23.472  -1.290  46.930  1.00 10.31 LIG-0.35  N 
ATOM     30 H    ALA C   4      23.500  -1.105  47.770  1.00 10.31 LIG 0.16  HD
ATOM     31 O    THR C   3      24.116  -0.931  44.802  1.00 11.88 LIG-0.27  OA
BRANCH 29 32
ATOM     32  CA  ALA C   4      22.748  -2.510  46.594  1.00 10.35 LIG 0.18  C 
ATOM     33  CB  ALA C   4      22.609  -3.414  47.828  1.00 10.31 LIG 0.04  C 
BRANCH 32 34
ATOM     34  C   ALA C   4      21.364  -2.187  45.977  1.00 10.99 LIG 0.28  C 
ATOM     35 O    ALA C   4      20.754  -1.175  46.302  0.79 11.43 LIG-0.27  OA
ATOM     36  N   NH2 C   5      20.884  -3.047  45.084  0.91 10.97 LIG-0.11  N 
ENDBRANCH 32 34
ENDBRANCH 29 32
ENDBRANCH 23 28
ENDBRANCH 20 23
ENDBRANCH 1 19
BRANCH 1 37
ATOM     37  CB  HIS C   2      26.050   3.729  43.304  1.00 14.08 LIG 0.10  C 
BRANCH 37 38
ATOM     38  CG  HIS C   2      24.910   4.214  44.125  1.00 15.42 LIG 0.06  A 
ATOM     39  CD2 HIS C   2      24.886   4.721  45.375  1.00 15.59 LIG 0.14  A 
ATOM     40 NE2  HIS C   2      23.577   5.015  45.670  1.00 17.02 LIG-0.25  NA
ATOM     41  CE1 HIS C   2      22.824   4.702  44.632  1.00 16.99 LIG 0.23  A 
ATOM     42 ND1  HIS C   2      23.603   4.213  43.685  0.48 15.92 LIG-0.24  NA
ENDBRANCH 37 38
ENDBRANCH 1 37
TORSDOF 14
ENDMDL
MODEL 28
USER: ADFR SOLUTION from run 86
USER: SCORE 11.889076 LL:  -2.796 LR: -10.576 RR:   0.000 FEB:  -6.400
USER: RMSD 7.051465
USER: SEED 85
USER: STATUS no improvement in best in 26 clusters for 5 generations
USER: GENES 16
USER: genes 0 Translation |==|  0.49415 0.42387 0.53520
USER: genes 1 Rotation |==|  0.75161 0.71296 0.19260 0.71644
USER: genes 2 Torsion [C]-CA--N-[C] |==|  0.82540
USER: genes 3 Torsion [N]-C--CA-[N] |==|  0.08404
USER: genes 4 Torsion [C]-CA--CB-[CG] |==|  0.16346
USER: genes 5 Torsion [CA]-CB--CG-[CD2] |==|  0.12389
USER: genes 6 Torsion [C]-CA--N-[C] |==|  0.60851
USER: genes 7 Torsion [N]-CA--C-[N] |==|  0.37123
USER: genes 8 Torsion [C]-N--CA-[CB] |==|  0.21666
USER: genes 9 Torsion [N]-CA--CB-[CG2] |==|  0.08431
USER: genes 10 Torsion [CA]-CB--OG1-[HG1] |==|  0.80617
USER: genes 11 Torsion [N]-CA--C-[N] |==|  0.80009
USER: genes 12 Torsion [C]-N--CA-[C] |==|  0.66422
USER: genes 13 Torsion [N]-CA--C-[N] |==|  0.41550
USER: genes 14 Torsion [N]-CA--CB-[CG] |==|  0.75908
USER: genes 15 Torsion [CA]-CB--CG-[ND1] |==|  0.82479
ROOT
ATOM      1  CA  HIS C   2      24.663   1.331  43.640  1.00 11.69 LIG 0.18  C 
ENDROOT
BRANCH 1 2
ATOM      2  N   HIS C   2      24.704   2.791  43.563  1.00 10.87 LIG-0.35  N 
ATOM      3 H    HIS C   2      25.387   3.112  43.152  1.00 10.87 LIG 0.16  HD
ATOM      4  C   PHE C   1      23.738   3.525  44.101  1.00 11.47 LIG 0.24  C 
ATOM      5 O    PHE C   1      22.698   3.033  44.575  1.00 12.97 LIG-0.27  OA
BRANCH 4 6
ATOM      6  CA  PHE C   1      23.953   5.041  44.063  1.00 11.05 LIG 0.18  C 
BRANCH 6 7
ATOM      7  CB  PHE C   1      22.605   5.768  44.052  1.00 10.09 LIG 0.07  C 
BRANCH 7 8
ATOM      8  CG  PHE C   1      21.747   5.455  45.240  1.00  8.73 LIG-0.06  A 
ATOM      9  CD2 PHE C   1      22.282   5.431  46.507  1.00  8.91 LIG 0.01  A 
ATOM     10  CE2 PHE C   1      21.486   5.131  47.592  1.00  8.44 LIG 0.00  A 
ATOM     11  CZ  PHE C   1      20.149   4.838  47.409  1.00  8.32 LIG 0.00  A 
ATOM     12  CE1 PHE C   1      19.604   4.871  46.144  1.00  8.07 LIG 0.00  A 
ATOM     13  CD1 PHE C   1      20.406   5.163  45.069  1.00  8.33 LIG 0.01  A 
ENDBRANCH 7 8
ENDBRANCH 6 7
BRANCH 6 14
ATOM     14  N   PHE C   1      24.735   5.425  42.908  1.00 11.54 LIG-0.35  N 
ATOM     15 H    PHE C   1      24.535   4.980  42.201  1.00 11.54 LIG 0.16  HD
ATOM     16  C   ACE C   0      25.667   6.364  42.922  1.00 13.21 LIG 0.21  C 
ATOM     17  CH3 ACE C   0      26.538   6.531  41.710  1.00 13.47 LIG 0.12  C 
ATOM     18 O    ACE C   0      25.903   6.897  44.006  1.00 14.75 LIG-0.27  OA
ENDBRANCH 6 14
ENDBRANCH 4 6
ENDBRANCH 1 2
BRANCH 1 19
ATOM     19  C   HIS C   2      24.729   0.937  45.090  1.00 11.19 LIG 0.24  C 
ATOM     20  N   THR C   3      23.860   0.018  45.490  1.00 11.67 LIG-0.34  N 
ATOM     21 H    THR C   3      23.250  -0.327  44.992  1.00 11.67 LIG 0.16  HD
ATOM     22 O    HIS C   2      25.579   1.415  45.836  1.00 11.10 LIG-0.27  OA
BRANCH 20 23
ATOM     23  CA  THR C   3      23.893  -0.478  46.850  1.00 11.71 LIG 0.20  C 
BRANCH 23 24
ATOM     24  CB  THR C   3      23.245   0.517  47.849  1.00 13.34 LIG 0.15  C 
ATOM     25  CG2 THR C   3      22.148   1.326  47.203  1.00 14.42 LIG 0.04  C 
BRANCH 24 26
ATOM     26 OG1  THR C   3      22.694  -0.224  48.934  1.00 13.01 LIG-0.39  OA
ATOM     27 HG1  THR C   3      22.025  -0.657  48.667  1.00 13.01 LIG 0.21  HD
ENDBRANCH 24 26
ENDBRANCH 23 24
BRANCH 23 28
ATOM     28  C   THR C   3      23.235  -1.864  46.931  1.00 11.33 LIG 0.24  C 
ATOM     29  N   ALA C   4      21.910  -1.904  46.803  1.00 10.31 LIG-0.35  N 
ATOM     30 H    ALA C   4      21.401  -1.211  46.795  1.00 10.31 LIG 0.16  HD
ATOM     31 O    THR C   3      23.916  -2.882  47.108  1.00 11.88 LIG-0.27  OA
BRANCH 29 32
ATOM     32  CA  ALA C   4      21.216  -3.178  46.662  1.00 10.35 LIG 0.18  C 
ATOM     33  CB  ALA C   4      20.303  -3.434  47.871  1.00 10.31 LIG 0.04  C 
BRANCH 32 34
ATOM     34  C   ALA C   4      20.418  -3.237  45.335  1.00 10.99 LIG 0.28  C 
ATOM     35 O    ALA C   4      19.958  -2.216  44.834  0.79 11.43 LIG-0.27  OA
ATOM     36  N   NH2 C   5      20.268  -4.431  44.772  0.91 10.97 LIG-0.11  N 
ENDBRANCH 32 34
ENDBRANCH 29 32
ENDBRANCH 23 28
ENDBRANCH 20 23
ENDBRANCH 1 19
BRANCH 1 37
ATOM     37  CB  HIS C   2      25.857   0.688  42.950  1.00 14.08 LIG 0.10  C 
BRANCH 37 38
ATOM     38  CG  HIS C   2      25.664   0.461  41.494  1.00 15.42 LIG 0.06  A 
ATOM     39  CD2 HIS C   2      26.324   0.973  40.434  1.00 15.59 LIG 0.14  A 
ATOM     40 NE2  HIS C   2      25.754   0.441  39.303  1.00 17.02 LIG-0.25  NA
ATOM     41  CE1 HIS C   2      24.779  -0.374  39.659  1.00 16.99 LIG 0.23  A 
ATOM     42 ND1  HIS C   2      24.701  -0.379  40.978  0.48 15.92 LIG-0.24  NA
ENDBRANCH 37 38
ENDBRANCH 1 37
TORSDOF 14
ENDMDL
MODEL 29
USER: ADFR SOLUTION from run 107
USER: SCORE 12.964029 LL:  -2.736 LR: -10.570 RR:   0.000 FEB:  -6.394
USER: RMSD 6.853312
USER: SEED 106
USER: STATUS no improvement in best in 18 clusters for 5 generations
USER: GENES 16
USER: genes 0 Translation |==|  0.36564 0.54818 0.72758
USER: genes 1 Rotation |==|  0.38300 0.71092 0.82979 0.78821
USER: genes 2 Torsion [C]-CA--N-[C] |==|  0.83820
USER: genes 3 Torsion [N]-C--CA-[N] |==|  0.37136
USER: genes 4 Torsion [C]-CA--CB-[CG] |==|  0.34175
USER: genes 5 Torsion [CA]-CB--CG-[CD2] |==|  0.07065
USER: genes 6 Torsion [C]-CA--N-[C] |==|  0.84637
USER: genes 7 Torsion [N]-CA--C-[N] |==|  0.86116
USER: genes 8 Torsion [C]-N--CA-[CB] |==|  0.84749
USER: genes 9 Torsion [N]-CA--CB-[CG2] |==|  0.34654
USER: genes 10 Torsion [CA]-CB--OG1-[HG1] |==|  0.92744
USER: genes 11 Torsion [N]-CA--C-[N] |==|  0.91065
USER: genes 12 Torsion [C]-N--CA-[C] |==|  0.77626
USER: genes 13 Torsion [N]-CA--C-[N] |==|  0.93324
USER: genes 14 Torsion [N]-CA--CB-[CG] |==|  0.80729
USER: genes 15 Torsion [CA]-CB--CG-[ND1] |==|  0.93548
ROOT
ATOM      1  CA  HIS C   2      22.157   3.382  47.535  1.00 11.69 LIG 0.18  C 
ENDROOT
BRANCH 1 2
ATOM      2  N   HIS C   2      22.245   2.156  46.743  1.00 10.87 LIG-0.35  N 
ATOM      3 H    HIS C   2      21.516   1.926  46.350  1.00 10.87 LIG 0.16  HD
ATOM      4  C   PHE C   1      23.386   1.480  46.664  1.00 11.47 LIG 0.24  C 
ATOM      5 O    PHE C   1      24.456   1.903  47.136  1.00 12.97 LIG-0.27  OA
BRANCH 4 6
ATOM      6  CA  PHE C   1      23.322   0.152  45.907  1.00 11.05 LIG 0.18  C 
BRANCH 6 7
ATOM      7  CB  PHE C   1      23.328  -1.021  46.892  1.00 10.09 LIG 0.07  C 
BRANCH 7 8
ATOM      8  CG  PHE C   1      22.145  -1.930  46.748  1.00  8.73 LIG-0.06  A 
ATOM      9  CD2 PHE C   1      21.475  -2.028  45.551  1.00  8.91 LIG 0.01  A 
ATOM     10  CE2 PHE C   1      20.381  -2.859  45.433  1.00  8.44 LIG 0.00  A 
ATOM     11  CZ  PHE C   1      19.944  -3.587  46.523  1.00  8.32 LIG 0.00  A 
ATOM     12  CE1 PHE C   1      20.617  -3.501  47.722  1.00  8.07 LIG 0.00  A 
ATOM     13  CD1 PHE C   1      21.701  -2.665  47.833  1.00  8.33 LIG 0.01  A 
ENDBRANCH 7 8
ENDBRANCH 6 7
BRANCH 6 14
ATOM     14  N   PHE C   1      24.425   0.028  44.980  1.00 11.54 LIG-0.35  N 
ATOM     15 H    PHE C   1      24.889  -0.686  45.099  1.00 11.54 LIG 0.16  HD
ATOM     16  C   ACE C   0      24.706   0.914  44.038  1.00 13.21 LIG 0.21  C 
ATOM     17  CH3 ACE C   0      25.989   0.767  43.273  1.00 13.47 LIG 0.12  C 
ATOM     18 O    ACE C   0      24.004   1.923  43.997  1.00 14.75 LIG-0.27  OA
ENDBRANCH 6 14
ENDBRANCH 4 6
ENDBRANCH 1 2
BRANCH 1 19
ATOM     19  C   HIS C   2      22.534   3.050  48.953  1.00 11.19 LIG 0.24  C 
ATOM     20  N   THR C   3      21.921   2.007  49.496  1.00 11.67 LIG-0.34  N 
ATOM     21 H    THR C   3      21.306   1.546  49.110  1.00 11.67 LIG 0.16  HD
ATOM     22 O    HIS C   2      23.399   3.692  49.544  1.00 11.10 LIG-0.27  OA
BRANCH 20 23
ATOM     23  CA  THR C   3      22.269   1.566  50.831  1.00 11.71 LIG 0.20  C 
BRANCH 23 24
ATOM     24  CB  THR C   3      23.788   1.280  50.973  1.00 13.34 LIG 0.15  C 
ATOM     25  CG2 THR C   3      24.403   2.066  52.104  1.00 14.42 LIG 0.04  C 
BRANCH 24 26
ATOM     26 OG1  THR C   3      23.966  -0.110  51.227  1.00 13.01 LIG-0.39  OA
ATOM     27 HG1  THR C   3      23.276  -0.419  51.593  1.00 13.01 LIG 0.21  HD
ENDBRANCH 24 26
ENDBRANCH 23 24
BRANCH 23 28
ATOM     28  C   THR C   3      21.790   2.587  51.875  1.00 11.33 LIG 0.24  C 
ATOM     29  N   ALA C   4      21.783   3.864  51.501  1.00 10.31 LIG-0.35  N 
ATOM     30 H    ALA C   4      22.130   4.160  50.772  1.00 10.31 LIG 0.16  HD
ATOM     31 O    THR C   3      21.433   2.222  53.003  1.00 11.88 LIG-0.27  OA
BRANCH 29 32
ATOM     32  CA  ALA C   4      21.159   4.880  52.340  1.00 10.35 LIG 0.18  C 
ATOM     33  CB  ALA C   4      21.771   6.261  52.063  1.00 10.31 LIG 0.04  C 
BRANCH 32 34
ATOM     34  C   ALA C   4      19.622   4.898  52.146  1.00 10.99 LIG 0.28  C 
ATOM     35 O    ALA C   4      18.885   5.339  53.022  0.79 11.43 LIG-0.27  OA
ATOM     36  N   NH2 C   5      19.152   4.426  50.996  0.91 10.97 LIG-0.11  N 
ENDBRANCH 32 34
ENDBRANCH 29 32
ENDBRANCH 23 28
ENDBRANCH 20 23
ENDBRANCH 1 19
BRANCH 1 37
ATOM     37  CB  HIS C   2      20.742   3.940  47.570  1.00 14.08 LIG 0.10  C 
BRANCH 37 38
ATOM     38  CG  HIS C   2      20.276   4.489  46.270  1.00 15.42 LIG 0.06  A 
ATOM     39  CD2 HIS C   2      19.026   4.672  45.797  1.00 15.59 LIG 0.14  A 
ATOM     40 NE2  HIS C   2      19.142   5.212  44.538  1.00 17.02 LIG-0.25  NA
ATOM     41  CE1 HIS C   2      20.423   5.359  44.253  1.00 16.99 LIG 0.23  A 
ATOM     42 ND1  HIS C   2      21.130   4.927  45.281  0.48 15.92 LIG-0.24  NA
ENDBRANCH 37 38
ENDBRANCH 1 37
TORSDOF 14
ENDMDL
MODEL 30
USER: ADFR SOLUTION from run 172
USER: SCORE 12.880156 LL:  -2.919 LR: -10.537 RR:   0.000 FEB:  -6.361
USER: RMSD 4.165002
USER: SEED 171
USER: STATUS no improvement in best in 18 clusters for 5 generations
USER: GENES 16
USER: genes 0 Translation |==|  0.61818 0.51802 0.46246
USER: genes 1 Rotation |==|  0.50108 0.53690 0.59878 0.98875
USER: genes 2 Torsion [C]-CA--N-[C] |==|  0.69781
USER: genes 3 Torsion [N]-C--CA-[N] |==|  0.33896
USER: genes 4 Torsion [C]-CA--CB-[CG] |==|  0.31893
USER: genes 5 Torsion [CA]-CB--CG-[CD2] |==|  0.31615
USER: genes 6 Torsion [C]-CA--N-[C] |==|  0.76653
USER: genes 7 Torsion [N]-CA--C-[N] |==|  0.49879
USER: genes 8 Torsion [C]-N--CA-[CB] |==|  0.83889
USER: genes 9 Torsion [N]-CA--CB-[CG2] |==|  0.61795
USER: genes 10 Torsion [CA]-CB--OG1-[HG1] |==|  0.21806
USER: genes 11 Torsion [N]-CA--C-[N] |==|  0.39218
USER: genes 12 Torsion [C]-N--CA-[C] |==|  0.74137
USER: genes 13 Torsion [N]-CA--C-[N] |==|  0.44327
USER: genes 14 Torsion [N]-CA--CB-[CG] |==|  0.03007
USER: genes 15 Torsion [CA]-CB--CG-[ND1] |==|  0.32012
ROOT
ATOM      1  CA  HIS C   2      27.082   2.884  42.167  1.00 11.69 LIG 0.18  C 
ENDROOT
BRANCH 1 2
ATOM      2  N   HIS C   2      26.932   2.507  40.761  1.00 10.87 LIG-0.35  N 
ATOM      3 H    HIS C   2      26.331   2.946  40.331  1.00 10.87 LIG 0.16  HD
ATOM      4  C   PHE C   1      27.689   1.553  40.232  1.00 11.47 LIG 0.24  C 
ATOM      5 O    PHE C   1      28.637   1.025  40.840  1.00 12.97 LIG-0.27  OA
BRANCH 4 6
ATOM      6  CA  PHE C   1      27.357   1.164  38.789  1.00 11.05 LIG 0.18  C 
BRANCH 6 7
ATOM      7  CB  PHE C   1      26.873  -0.288  38.729  1.00 10.09 LIG 0.07  C 
BRANCH 7 8
ATOM      8  CG  PHE C   1      25.444  -0.425  38.302  1.00  8.73 LIG-0.06  A 
ATOM      9  CD2 PHE C   1      25.121  -1.026  37.108  1.00  8.91 LIG 0.01  A 
ATOM     10  CE2 PHE C   1      23.802  -1.137  36.719  1.00  8.44 LIG 0.00  A 
ATOM     11  CZ  PHE C   1      22.799  -0.630  37.523  1.00  8.32 LIG 0.00  A 
ATOM     12  CE1 PHE C   1      23.115  -0.036  38.725  1.00  8.07 LIG 0.00  A 
ATOM     13  CD1 PHE C   1      24.431   0.077  39.100  1.00  8.33 LIG 0.01  A 
ENDBRANCH 7 8
ENDBRANCH 6 7
BRANCH 6 14
ATOM     14  N   PHE C   1      28.504   1.342  37.926  1.00 11.54 LIG-0.35  N 
ATOM     15 H    PHE C   1      28.953   0.619  37.807  1.00 11.54 LIG 0.16  HD
ATOM     16  C   ACE C   0      28.841   2.493  37.367  1.00 13.21 LIG 0.21  C 
ATOM     17  CH3 ACE C   0      30.159   2.587  36.654  1.00 13.47 LIG 0.12  C 
ATOM     18 O    ACE C   0      28.153   3.472  37.652  1.00 14.75 LIG-0.27  OA
ENDBRANCH 6 14
ENDBRANCH 4 6
ENDBRANCH 1 2
BRANCH 1 19
ATOM     19  C   HIS C   2      25.872   2.393  42.914  1.00 11.19 LIG 0.24  C 
ATOM     20  N   THR C   3      25.843   2.643  44.216  1.00 11.67 LIG-0.34  N 
ATOM     21 H    THR C   3      26.478   3.022  44.655  1.00 11.67 LIG 0.16  HD
ATOM     22 O    HIS C   2      24.949   1.837  42.325  1.00 11.10 LIG-0.27  OA
BRANCH 20 23
ATOM     23  CA  THR C   3      24.688   2.273  45.007  1.00 11.71 LIG 0.20  C 
BRANCH 23 24
ATOM     24  CB  THR C   3      23.386   2.935  44.483  1.00 13.34 LIG 0.15  C 
ATOM     25  CG2 THR C   3      22.527   3.454  45.609  1.00 14.42 LIG 0.04  C 
BRANCH 24 26
ATOM     26 OG1  THR C   3      23.740   4.022  43.633  1.00 13.01 LIG-0.39  OA
ATOM     27 HG1  THR C   3      23.965   3.727  42.880  1.00 13.01 LIG 0.21  HD
ENDBRANCH 24 26
ENDBRANCH 23 24
BRANCH 23 28
ATOM     28  C   THR C   3      24.552   0.744  45.076  1.00 11.33 LIG 0.24  C 
ATOM     29  N   ALA C   4      24.164   0.232  46.243  1.00 10.31 LIG-0.35  N 
ATOM     30 H    ALA C   4      24.100   0.680  46.974  1.00 10.31 LIG 0.16  HD
ATOM     31 O    THR C   3      24.795   0.039  44.088  1.00 11.88 LIG-0.27  OA
BRANCH 29 32
ATOM     32  CA  ALA C   4      23.811  -1.179  46.353  1.00 10.35 LIG 0.18  C 
ATOM     33  CB  ALA C   4      24.282  -1.751  47.698  1.00 10.31 LIG 0.04  C 
BRANCH 32 34
ATOM     34  C   ALA C   4      22.288  -1.390  46.155  1.00 10.99 LIG 0.28  C 
ATOM     35 O    ALA C   4      21.502  -0.461  46.302  0.79 11.43 LIG-0.27  OA
ATOM     36  N   NH2 C   5      21.887  -2.611  45.817  0.91 10.97 LIG-0.11  N 
ENDBRANCH 32 34
ENDBRANCH 29 32
ENDBRANCH 23 28
ENDBRANCH 20 23
ENDBRANCH 1 19
BRANCH 1 37
ATOM     37  CB  HIS C   2      27.135   4.394  42.351  1.00 14.08 LIG 0.10  C 
BRANCH 37 38
ATOM     38  CG  HIS C   2      26.775   5.165  41.133  1.00 15.42 LIG 0.06  A 
ATOM     39  CD2 HIS C   2      27.391   5.243  39.934  1.00 15.59 LIG 0.14  A 
ATOM     40 NE2  HIS C   2      26.651   6.097  39.151  1.00 17.02 LIG-0.25  NA
ATOM     41  CE1 HIS C   2      25.614   6.523  39.847  1.00 16.99 LIG 0.23  A 
ATOM     42 ND1  HIS C   2      25.665   5.978  41.049  0.48 15.92 LIG-0.24  NA
ENDBRANCH 37 38
ENDBRANCH 1 37
TORSDOF 14
ENDMDL
MODEL 31
USER: ADFR SOLUTION from run 74
USER: SCORE 11.882974 LL:  -3.283 LR: -10.526 RR:   0.000 FEB:  -6.349
USER: RMSD 5.464265
USER: SEED 73
USER: STATUS no improvement in best in 20 clusters for 5 generations
USER: GENES 16
USER: genes 0 Translation |==|  0.51627 0.38575 0.36624
USER: genes 1 Rotation |==|  0.27920 0.57615 0.93686 0.56782
USER: genes 2 Torsion [C]-CA--N-[C] |==|  0.84402
USER: genes 3 Torsion [N]-C--CA-[N] |==|  0.46111
USER: genes 4 Torsion [C]-CA--CB-[CG] |==|  0.16921
USER: genes 5 Torsion [CA]-CB--CG-[CD2] |==|  0.11905
USER: genes 6 Torsion [C]-CA--N-[C] |==|  0.65146
USER: genes 7 Torsion [N]-CA--C-[N] |==|  0.34477
USER: genes 8 Torsion [C]-N--CA-[CB] |==|  0.35389
USER: genes 9 Torsion [N]-CA--CB-[CG2] |==|  0.75071
USER: genes 10 Torsion [CA]-CB--OG1-[HG1] |==|  0.94992
USER: genes 11 Torsion [N]-CA--C-[N] |==|  0.32397
USER: genes 12 Torsion [C]-N--CA-[C] |==|  0.81949
USER: genes 13 Torsion [N]-CA--C-[N] |==|  0.41357
USER: genes 14 Torsion [N]-CA--CB-[CG] |==|  0.81341
USER: genes 15 Torsion [CA]-CB--CG-[ND1] |==|  0.68135
ROOT
ATOM      1  CA  HIS C   2      25.094   0.702  40.218  1.00 11.69 LIG 0.18  C 
ENDROOT
BRANCH 1 2
ATOM      2  N   HIS C   2      26.303   0.454  39.433  1.00 10.87 LIG-0.35  N 
ATOM      3 H    HIS C   2      26.264  -0.231  38.916  1.00 10.87 LIG 0.16  HD
ATOM      4  C   PHE C   1      27.358   1.253  39.543  1.00 11.47 LIG 0.24  C 
ATOM      5 O    PHE C   1      27.341   2.309  40.200  1.00 12.97 LIG-0.27  OA
BRANCH 4 6
ATOM      6  CA  PHE C   1      28.604   0.822  38.764  1.00 11.05 LIG 0.18  C 
BRANCH 6 7
ATOM      7  CB  PHE C   1      29.243  -0.405  39.423  1.00 10.09 LIG 0.07  C 
BRANCH 7 8
ATOM      8  CG  PHE C   1      28.339  -1.599  39.466  1.00  8.73 LIG-0.06  A 
ATOM      9  CD2 PHE C   1      27.575  -1.942  38.375  1.00  8.91 LIG 0.01  A 
ATOM     10  CE2 PHE C   1      26.738  -3.038  38.429  1.00  8.44 LIG 0.00  A 
ATOM     11  CZ  PHE C   1      26.654  -3.787  39.586  1.00  8.32 LIG 0.00  A 
ATOM     12  CE1 PHE C   1      27.425  -3.456  40.678  1.00  8.07 LIG 0.00  A 
ATOM     13  CD1 PHE C   1      28.249  -2.359  40.618  1.00  8.33 LIG 0.01  A 
ENDBRANCH 7 8
ENDBRANCH 6 7
BRANCH 6 14
ATOM     14  N   PHE C   1      29.564   1.900  38.683  1.00 11.54 LIG-0.35  N 
ATOM     15 H    PHE C   1      29.779   2.220  39.451  1.00 11.54 LIG 0.16  HD
ATOM     16  C   ACE C   0      30.072   2.358  37.550  1.00 13.21 LIG 0.21  C 
ATOM     17  CH3 ACE C   0      30.907   3.605  37.589  1.00 13.47 LIG 0.12  C 
ATOM     18 O    ACE C   0      29.650   1.856  36.509  1.00 14.75 LIG-0.27  OA
ENDBRANCH 6 14
ENDBRANCH 4 6
ENDBRANCH 1 2
BRANCH 1 19
ATOM     19  C   HIS C   2      25.479   0.735  41.672  1.00 11.19 LIG 0.24  C 
ATOM     20  N   THR C   3      25.151   1.832  42.342  1.00 11.67 LIG-0.34  N 
ATOM     21 H    THR C   3      24.778   2.524  41.994  1.00 11.67 LIG 0.16  HD
ATOM     22 O    HIS C   2      26.023  -0.229  42.204  1.00 11.10 LIG-0.27  OA
BRANCH 20 23
ATOM     23  CA  THR C   3      25.415   1.928  43.763  1.00 11.71 LIG 0.20  C 
BRANCH 23 24
ATOM     24  CB  THR C   3      26.207   3.214  44.122  1.00 13.34 LIG 0.15  C 
ATOM     25  CG2 THR C   3      27.698   2.987  44.070  1.00 14.42 LIG 0.04  C 
BRANCH 24 26
ATOM     26 OG1  THR C   3      25.862   4.235  43.191  1.00 13.01 LIG-0.39  OA
ATOM     27 HG1  THR C   3      25.510   3.888  42.512  1.00 13.01 LIG 0.21  HD
ENDBRANCH 24 26
ENDBRANCH 23 24
BRANCH 23 28
ATOM     28  C   THR C   3      24.105   1.836  44.560  1.00 11.33 LIG 0.24  C 
ATOM     29  N   ALA C   4      23.976   0.792  45.377  1.00 10.31 LIG-0.35  N 
ATOM     30 H    ALA C   4      24.514   0.122  45.399  1.00 10.31 LIG 0.16  HD
ATOM     31 O    THR C   3      23.224   2.696  44.436  1.00 11.88 LIG-0.27  OA
BRANCH 29 32
ATOM     32  CA  ALA C   4      22.867   0.722  46.321  1.00 10.35 LIG 0.18  C 
ATOM     33  CB  ALA C   4      22.808  -0.662  46.984  1.00 10.31 LIG 0.04  C 
BRANCH 32 34
ATOM     34  C   ALA C   4      22.963   1.848  47.381  1.00 10.99 LIG 0.28  C 
ATOM     35 O    ALA C   4      24.053   2.282  47.738  0.79 11.43 LIG-0.27  OA
ATOM     36  N   NH2 C   5      21.819   2.318  47.869  0.91 10.97 LIG-0.11  N 
ENDBRANCH 32 34
ENDBRANCH 29 32
ENDBRANCH 23 28
ENDBRANCH 20 23
ENDBRANCH 1 19
BRANCH 1 37
ATOM     37  CB  HIS C   2      24.069  -0.410  40.056  1.00 14.08 LIG 0.10  C 
BRANCH 37 38
ATOM     38  CG  HIS C   2      23.482  -0.497  38.693  1.00 15.42 LIG 0.06  A 
ATOM     39  CD2 HIS C   2      24.057  -0.805  37.512  1.00 15.59 LIG 0.14  A 
ATOM     40 NE2  HIS C   2      23.074  -0.743  36.552  1.00 17.02 LIG-0.25  NA
ATOM     41  CE1 HIS C   2      21.934  -0.413  37.129  1.00 16.99 LIG 0.23  A 
ATOM     42 ND1  HIS C   2      22.152  -0.255  38.422  0.48 15.92 LIG-0.24  NA
ENDBRANCH 37 38
ENDBRANCH 1 37
TORSDOF 14
ENDMDL
MODEL 32
USER: ADFR SOLUTION from run 58
USER: SCORE 11.309629 LL:  -2.808 LR: -10.534 RR:   0.000 FEB:  -6.358
USER: RMSD 2.683452
USER: SEED 57
USER: STATUS no improvement in best in 24 clusters for 5 generations
USER: GENES 16
USER: genes 0 Translation |==|  0.57182 0.34778 0.56167
USER: genes 1 Rotation |==|  0.48070 0.51316 0.47851 0.99899
USER: genes 2 Torsion [C]-CA--N-[C] |==|  0.16968
USER: genes 3 Torsion [N]-C--CA-[N] |==|  0.06645
USER: genes 4 Torsion [C]-CA--CB-[CG] |==|  0.52552
USER: genes 5 Torsion [CA]-CB--CG-[CD2] |==|  0.38783
USER: genes 6 Torsion [C]-CA--N-[C] |==|  0.67082
USER: genes 7 Torsion [N]-CA--C-[N] |==|  0.68756
USER: genes 8 Torsion [C]-N--CA-[CB] |==|  0.19058
USER: genes 9 Torsion [N]-CA--CB-[CG2] |==|  0.41407
USER: genes 10 Torsion [CA]-CB--OG1-[HG1] |==|  0.64001
USER: genes 11 Torsion [N]-CA--C-[N] |==|  0.40615
USER: genes 12 Torsion [C]-N--CA-[C] |==|  0.52836
USER: genes 13 Torsion [N]-CA--C-[N] |==|  0.43272
USER: genes 14 Torsion [N]-CA--CB-[CG] |==|  0.89545
USER: genes 15 Torsion [CA]-CB--CG-[ND1] |==|  0.31899
ROOT
ATOM      1  CA  HIS C   2      26.177   0.075  44.176  1.00 11.69 LIG 0.18  C 
ENDROOT
BRANCH 1 2
ATOM      2  N   HIS C   2      25.990  -0.359  42.792  1.00 10.87 LIG-0.35  N 
ATOM      3 H    HIS C   2      26.314  -1.134  42.609  1.00 10.87 LIG 0.16  HD
ATOM      4  C   PHE C   1      25.363   0.418  41.917  1.00 11.47 LIG 0.24  C 
ATOM      5 O    PHE C   1      24.793   1.476  42.238  1.00 12.97 LIG-0.27  OA
BRANCH 4 6
ATOM      6  CA  PHE C   1      25.337  -0.091  40.473  1.00 11.05 LIG 0.18  C 
BRANCH 6 7
ATOM      7  CB  PHE C   1      24.026   0.316  39.791  1.00 10.09 LIG 0.07  C 
BRANCH 7 8
ATOM      8  CG  PHE C   1      23.825  -0.326  38.452  1.00  8.73 LIG-0.06  A 
ATOM      9  CD2 PHE C   1      22.586  -0.787  38.072  1.00  8.91 LIG 0.01  A 
ATOM     10  CE2 PHE C   1      22.415  -1.386  36.842  1.00  8.44 LIG 0.00  A 
ATOM     11  CZ  PHE C   1      23.492  -1.538  35.990  1.00  8.32 LIG 0.00  A 
ATOM     12  CE1 PHE C   1      24.734  -1.069  36.360  1.00  8.07 LIG 0.00  A 
ATOM     13  CD1 PHE C   1      24.896  -0.481  37.590  1.00  8.33 LIG 0.01  A 
ENDBRANCH 7 8
ENDBRANCH 6 7
BRANCH 6 14
ATOM     14  N   PHE C   1      25.497  -1.527  40.426  1.00 11.54 LIG-0.35  N 
ATOM     15 H    PHE C   1      24.868  -1.951  40.831  1.00 11.54 LIG 0.16  HD
ATOM     16  C   ACE C   0      26.502  -2.143  39.825  1.00 13.21 LIG 0.21  C 
ATOM     17  CH3 ACE C   0      26.656  -3.624  40.016  1.00 13.47 LIG 0.12  C 
ATOM     18 O    ACE C   0      27.370  -1.430  39.323  1.00 14.75 LIG-0.27  OA
ENDBRANCH 6 14
ENDBRANCH 4 6
ENDBRANCH 1 2
BRANCH 1 19
ATOM     19  C   HIS C   2      24.820   0.278  44.790  1.00 11.19 LIG 0.24  C 
ATOM     20  N   THR C   3      24.491   1.527  45.093  1.00 11.67 LIG-0.34  N 
ATOM     21 H    THR C   3      25.012   2.205  44.999  1.00 11.67 LIG 0.16  HD
ATOM     22 O    HIS C   2      24.051  -0.666  44.950  1.00 11.10 LIG-0.27  OA
BRANCH 20 23
ATOM     23  CA  THR C   3      23.178   1.832  45.621  1.00 11.71 LIG 0.20  C 
BRANCH 23 24
ATOM     24  CB  THR C   3      22.980   1.265  47.053  1.00 13.34 LIG 0.15  C 
ATOM     25  CG2 THR C   3      22.050   2.125  47.873  1.00 14.42 LIG 0.04  C 
BRANCH 24 26
ATOM     26 OG1  THR C   3      22.430  -0.044  46.951  1.00 13.01 LIG-0.39  OA
ATOM     27 HG1  THR C   3      21.757  -0.105  47.450  1.00 13.01 LIG 0.21  HD
ENDBRANCH 24 26
ENDBRANCH 23 24
BRANCH 23 28
ATOM     28  C   THR C   3      22.920   3.346  45.576  1.00 11.33 LIG 0.24  C 
ATOM     29  N   ALA C   4      21.665   3.730  45.349  1.00 10.31 LIG-0.35  N 
ATOM     30 H    ALA C   4      21.029   3.202  45.116  1.00 10.31 LIG 0.16  HD
ATOM     31 O    THR C   3      23.842   4.153  45.745  1.00 11.88 LIG-0.27  OA
BRANCH 29 32
ATOM     32  CA  ALA C   4      21.282   5.130  45.489  1.00 10.35 LIG 0.18  C 
ATOM     33  CB  ALA C   4      21.978   5.991  44.424  1.00 10.31 LIG 0.04  C 
BRANCH 32 34
ATOM     34  C   ALA C   4      19.742   5.296  45.426  1.00 10.99 LIG 0.28  C 
ATOM     35 O    ALA C   4      19.044   4.460  44.863  0.79 11.43 LIG-0.27  OA
ATOM     36  N   NH2 C   5      19.226   6.372  46.011  0.91 10.97 LIG-0.11  N 
ENDBRANCH 32 34
ENDBRANCH 29 32
ENDBRANCH 23 28
ENDBRANCH 20 23
ENDBRANCH 1 19
BRANCH 1 37
ATOM     37  CB  HIS C   2      26.908   1.407  44.264  1.00 14.08 LIG 0.10  C 
BRANCH 37 38
ATOM     38  CG  HIS C   2      27.986   1.573  43.253  1.00 15.42 LIG 0.06  A 
ATOM     39  CD2 HIS C   2      29.145   0.902  43.093  1.00 15.59 LIG 0.14  A 
ATOM     40 NE2  HIS C   2      29.785   1.448  42.006  1.00 17.02 LIG-0.25  NA
ATOM     41  CE1 HIS C   2      29.039   2.419  41.514  1.00 16.99 LIG 0.23  A 
ATOM     42 ND1  HIS C   2      27.947   2.518  42.250  0.48 15.92 LIG-0.24  NA
ENDBRANCH 37 38
ENDBRANCH 1 37
TORSDOF 14
ENDMDL
MODEL 33
USER: ADFR SOLUTION from run 19
USER: SCORE 11.948578 LL:  -2.650 LR: -10.519 RR:   0.000 FEB:  -6.343
USER: RMSD 3.468138
USER: SEED 18
USER: STATUS no improvement in best in 13 clusters for 5 generations
USER: GENES 16
USER: genes 0 Translation |==|  0.51235 0.43325 0.52704
USER: genes 1 Rotation |==|  0.55230 0.40706 0.13945 0.82959
USER: genes 2 Torsion [C]-CA--N-[C] |==|  0.53892
USER: genes 3 Torsion [N]-C--CA-[N] |==|  0.40144
USER: genes 4 Torsion [C]-CA--CB-[CG] |==|  0.62823
USER: genes 5 Torsion [CA]-CB--CG-[CD2] |==|  0.84624
USER: genes 6 Torsion [C]-CA--N-[C] |==|  0.70151
USER: genes 7 Torsion [N]-CA--C-[N] |==|  0.28889
USER: genes 8 Torsion [C]-N--CA-[CB] |==|  0.19257
USER: genes 9 Torsion [N]-CA--CB-[CG2] |==|  0.58470
USER: genes 10 Torsion [CA]-CB--OG1-[HG1] |==|  0.29569
USER: genes 11 Torsion [N]-CA--C-[N] |==|  0.06524
USER: genes 12 Torsion [C]-N--CA-[C] |==|  0.19310
USER: genes 13 Torsion [N]-CA--C-[N] |==|  0.07356
USER: genes 14 Torsion [N]-CA--CB-[CG] |==|  0.01441
USER: genes 15 Torsion [CA]-CB--CG-[ND1] |==|  0.71805
ROOT
ATOM      1  CA  HIS C   2      25.018   1.486  43.475  1.00 11.69 LIG 0.18  C 
ENDROOT
BRANCH 1 2
ATOM      2  N   HIS C   2      25.282   1.401  42.038  1.00 10.87 LIG-0.35  N 
ATOM      3 H    HIS C   2      25.561   2.130  41.678  1.00 10.87 LIG 0.16  HD
ATOM      4  C   PHE C   1      25.090   0.264  41.380  1.00 11.47 LIG 0.24  C 
ATOM      5 O    PHE C   1      24.810  -0.807  41.947  1.00 12.97 LIG-0.27  OA
BRANCH 4 6
ATOM      6  CA  PHE C   1      25.283   0.332  39.863  1.00 11.05 LIG 0.18  C 
BRANCH 6 7
ATOM      7  CB  PHE C   1      23.945   0.606  39.170  1.00 10.09 LIG 0.07  C 
BRANCH 7 8
ATOM      8  CG  PHE C   1      23.691  -0.280  37.988  1.00  8.73 LIG-0.06  A 
ATOM      9  CD2 PHE C   1      24.596  -0.350  36.955  1.00  8.91 LIG 0.01  A 
ATOM     10  CE2 PHE C   1      24.347  -1.160  35.866  1.00  8.44 LIG 0.00  A 
ATOM     11  CZ  PHE C   1      23.179  -1.895  35.804  1.00  8.32 LIG 0.00  A 
ATOM     12  CE1 PHE C   1      22.274  -1.838  36.841  1.00  8.07 LIG 0.00  A 
ATOM     13  CD1 PHE C   1      22.526  -1.022  37.916  1.00  8.33 LIG 0.01  A 
ENDBRANCH 7 8
ENDBRANCH 6 7
BRANCH 6 14
ATOM     14  N   PHE C   1      25.864  -0.893  39.357  1.00 11.54 LIG-0.35  N 
ATOM     15 H    PHE C   1      25.314  -1.553  39.358  1.00 11.54 LIG 0.16  HD
ATOM     16  C   ACE C   0      27.112  -1.003  38.933  1.00 13.21 LIG 0.21  C 
ATOM     17  CH3 ACE C   0      27.646  -2.370  38.618  1.00 13.47 LIG 0.12  C 
ATOM     18 O    ACE C   0      27.822  -0.002  39.028  1.00 14.75 LIG-0.27  OA
ENDBRANCH 6 14
ENDBRANCH 4 6
ENDBRANCH 1 2
BRANCH 1 19
ATOM     19  C   HIS C   2      24.988   2.939  43.859  1.00 11.19 LIG 0.24  C 
ATOM     20  N   THR C   3      23.790   3.467  44.073  1.00 11.67 LIG-0.34  N 
ATOM     21 H    THR C   3      23.046   3.048  43.966  1.00 11.67 LIG 0.16  HD
ATOM     22 O    HIS C   2      26.028   3.574  44.011  1.00 11.10 LIG-0.27  OA
BRANCH 20 23
ATOM     23  CA  THR C   3      23.662   4.839  44.517  1.00 11.71 LIG 0.20  C 
BRANCH 23 24
ATOM     24  CB  THR C   3      24.069   5.850  43.412  1.00 13.34 LIG 0.15  C 
ATOM     25  CG2 THR C   3      24.644   7.117  43.995  1.00 14.42 LIG 0.04  C 
BRANCH 24 26
ATOM     26 OG1  THR C   3      25.049   5.240  42.577  1.00 13.01 LIG-0.39  OA
ATOM     27 HG1  THR C   3      24.702   5.037  41.840  1.00 13.01 LIG 0.21  HD
ENDBRANCH 24 26
ENDBRANCH 23 24
BRANCH 23 28
ATOM     28  C   THR C   3      22.238   5.108  45.026  1.00 11.33 LIG 0.24  C 
ATOM     29  N   ALA C   4      21.542   4.050  45.438  1.00 10.31 LIG-0.35  N 
ATOM     30 H    ALA C   4      21.789   3.233  45.331  1.00 10.31 LIG 0.16  HD
ATOM     31 O    THR C   3      21.776   6.256  45.045  1.00 11.88 LIG-0.27  OA
BRANCH 29 32
ATOM     32  CA  ALA C   4      20.266   4.222  46.123  1.00 10.35 LIG 0.18  C 
ATOM     33  CB  ALA C   4      20.426   5.147  47.339  1.00 10.31 LIG 0.04  C 
BRANCH 32 34
ATOM     34  C   ALA C   4      19.178   4.751  45.155  1.00 10.99 LIG 0.28  C 
ATOM     35 O    ALA C   4      18.231   5.407  45.574  0.79 11.43 LIG-0.27  OA
ATOM     36  N   NH2 C   5      19.327   4.467  43.865  0.91 10.97 LIG-0.11  N 
ENDBRANCH 32 34
ENDBRANCH 29 32
ENDBRANCH 23 28
ENDBRANCH 20 23
ENDBRANCH 1 19
BRANCH 1 37
ATOM     37  CB  HIS C   2      26.117   0.830  44.298  1.00 14.08 LIG 0.10  C 
BRANCH 37 38
ATOM     38  CG  HIS C   2      27.274   0.356  43.494  1.00 15.42 LIG 0.06  A 
ATOM     39  CD2 HIS C   2      28.311   1.040  42.967  1.00 15.59 LIG 0.14  A 
ATOM     40 NE2  HIS C   2      29.106   0.131  42.311  1.00 17.02 LIG-0.25  NA
ATOM     41  CE1 HIS C   2      28.576  -1.071  42.437  1.00 16.99 LIG 0.23  A 
ATOM     42 ND1  HIS C   2      27.466  -0.964  43.145  0.48 15.92 LIG-0.24  NA
ENDBRANCH 37 38
ENDBRANCH 1 37
TORSDOF 14
ENDMDL
MODEL 34
USER: ADFR SOLUTION from run 45
USER: SCORE 12.238914 LL:  -3.063 LR: -10.519 RR:   0.000 FEB:  -6.343
USER: RMSD 5.200440
USER: SEED 44
USER: STATUS no improvement in best in 16 clusters for 5 generations
USER: GENES 16
USER: genes 0 Translation |==|  0.42650 0.34475 0.64647
USER: genes 1 Rotation |==|  0.76379 0.35752 0.14983 0.69363
USER: genes 2 Torsion [C]-CA--N-[C] |==|  0.81667
USER: genes 3 Torsion [N]-C--CA-[N] |==|  0.06179
USER: genes 4 Torsion [C]-CA--CB-[CG] |==|  0.77579
USER: genes 5 Torsion [CA]-CB--CG-[CD2] |==|  0.23534
USER: genes 6 Torsion [C]-CA--N-[C] |==|  0.69777
USER: genes 7 Torsion [N]-CA--C-[N] |==|  0.47760
USER: genes 8 Torsion [C]-N--CA-[CB] |==|  0.82074
USER: genes 9 Torsion [N]-CA--CB-[CG2] |==|  0.53201
USER: genes 10 Torsion [CA]-CB--OG1-[HG1] |==|  0.98919
USER: genes 11 Torsion [N]-CA--C-[N] |==|  0.17879
USER: genes 12 Torsion [C]-N--CA-[C] |==|  0.61044
USER: genes 13 Torsion [N]-CA--C-[N] |==|  0.43705
USER: genes 14 Torsion [N]-CA--CB-[CG] |==|  0.60863
USER: genes 15 Torsion [CA]-CB--CG-[ND1] |==|  0.09989
ROOT
ATOM      1  CA  HIS C   2      23.344   0.025  45.893  1.00 11.69 LIG 0.18  C 
ENDROOT
BRANCH 1 2
ATOM      2  N   HIS C   2      24.638   0.288  45.263  1.00 10.87 LIG-0.35  N 
ATOM      3 H    HIS C   2      25.265  -0.255  45.487  1.00 10.87 LIG 0.16  HD
ATOM      4  C   PHE C   1      24.786   1.299  44.416  1.00 11.47 LIG 0.24  C 
ATOM      5 O    PHE C   1      23.833   1.989  44.012  1.00 12.97 LIG-0.27  OA
BRANCH 4 6
ATOM      6  CA  PHE C   1      26.213   1.546  43.917  1.00 11.05 LIG 0.18  C 
BRANCH 6 7
ATOM      7  CB  PHE C   1      26.191   2.014  42.459  1.00 10.09 LIG 0.07  C 
BRANCH 7 8
ATOM      8  CG  PHE C   1      26.039   0.894  41.474  1.00  8.73 LIG-0.06  A 
ATOM      9  CD2 PHE C   1      24.794   0.409  41.147  1.00  8.91 LIG 0.01  A 
ATOM     10  CE2 PHE C   1      24.667  -0.629  40.248  1.00  8.44 LIG 0.00  A 
ATOM     11  CZ  PHE C   1      25.793  -1.195  39.682  1.00  8.32 LIG 0.00  A 
ATOM     12  CE1 PHE C   1      27.042  -0.708  39.997  1.00  8.07 LIG 0.00  A 
ATOM     13  CD1 PHE C   1      27.159   0.320  40.899  1.00  8.33 LIG 0.01  A 
ENDBRANCH 7 8
ENDBRANCH 6 7
BRANCH 6 14
ATOM     14  N   PHE C   1      27.021   0.353  44.045  1.00 11.54 LIG-0.35  N 
ATOM     15 H    PHE C   1      26.807  -0.262  43.484  1.00 11.54 LIG 0.16  HD
ATOM     16  C   ACE C   0      27.995   0.207  44.929  1.00 13.21 LIG 0.21  C 
ATOM     17  CH3 ACE C   0      28.625  -1.147  45.088  1.00 13.47 LIG 0.12  C 
ATOM     18 O    ACE C   0      28.176   1.136  45.715  1.00 14.75 LIG-0.27  OA
ENDBRANCH 6 14
ENDBRANCH 4 6
ENDBRANCH 1 2
BRANCH 1 19
ATOM     19  C   HIS C   2      23.025   1.179  46.804  1.00 11.19 LIG 0.24  C 
ATOM     20  N   THR C   3      21.810   1.191  47.335  1.00 11.67 LIG-0.34  N 
ATOM     21 H    THR C   3      21.195   0.615  47.161  1.00 11.67 LIG 0.16  HD
ATOM     22 O    HIS C   2      23.872   2.027  47.070  1.00 11.10 LIG-0.27  OA
BRANCH 20 23
ATOM     23  CA  THR C   3      21.433   2.221  48.281  1.00 11.71 LIG 0.20  C 
BRANCH 23 24
ATOM     24  CB  THR C   3      22.264   2.142  49.589  1.00 13.34 LIG 0.15  C 
ATOM     25  CG2 THR C   3      21.691   3.023  50.672  1.00 14.42 LIG 0.04  C 
BRANCH 24 26
ATOM     26 OG1  THR C   3      22.267   0.792  50.046  1.00 13.01 LIG-0.39  OA
ATOM     27 HG1  THR C   3      21.777   0.327  49.546  1.00 13.01 LIG 0.21  HD
ENDBRANCH 24 26
ENDBRANCH 23 24
BRANCH 23 28
ATOM     28  C   THR C   3      21.539   3.609  47.632  1.00 11.33 LIG 0.24  C 
ATOM     29  N   ALA C   4      20.716   3.857  46.615  1.00 10.31 LIG-0.35  N 
ATOM     30 H    ALA C   4      20.223   3.265  46.233  1.00 10.31 LIG 0.16  HD
ATOM     31 O    THR C   3      22.353   4.444  48.046  1.00 11.88 LIG-0.27  OA
BRANCH 29 32
ATOM     32  CA  ALA C   4      20.596   5.203  46.068  1.00 10.35 LIG 0.18  C 
ATOM     33  CB  ALA C   4      21.511   5.375  44.848  1.00 10.31 LIG 0.04  C 
BRANCH 32 34
ATOM     34  C   ALA C   4      19.123   5.534  45.716  1.00 10.99 LIG 0.28  C 
ATOM     35 O    ALA C   4      18.311   4.638  45.511  0.79 11.43 LIG-0.27  OA
ATOM     36  N   NH2 C   5      18.790   6.819  45.656  0.91 10.97 LIG-0.11  N 
ENDBRANCH 32 34
ENDBRANCH 29 32
ENDBRANCH 23 28
ENDBRANCH 20 23
ENDBRANCH 1 19
BRANCH 1 37
ATOM     37  CB  HIS C   2      23.371  -1.228  46.755  1.00 14.08 LIG 0.10  C 
BRANCH 37 38
ATOM     38  CG  HIS C   2      22.134  -2.048  46.669  1.00 15.42 LIG 0.06  A 
ATOM     39  CD2 HIS C   2      21.493  -2.764  47.616  1.00 15.59 LIG 0.14  A 
ATOM     40 NE2  HIS C   2      20.397  -3.340  47.019  1.00 17.02 LIG-0.25  NA
ATOM     41  CE1 HIS C   2      20.366  -2.982  45.749  1.00 16.99 LIG 0.23  A 
ATOM     42 ND1  HIS C   2      21.406  -2.204  45.509  0.48 15.92 LIG-0.24  NA
ENDBRANCH 37 38
ENDBRANCH 1 37
TORSDOF 14
ENDMDL
MODEL 35
USER: ADFR SOLUTION from run 84
USER: SCORE 11.327667 LL:  -2.944 LR: -10.518 RR:   0.000 FEB:  -6.341
USER: RMSD 9.330011
USER: SEED 83
USER: STATUS no improvement in best in 22 clusters for 5 generations
USER: GENES 16
USER: genes 0 Translation |==|  0.42735 0.72072 0.55072
USER: genes 1 Rotation |==|  0.63651 0.95755 0.55118 0.63925
USER: genes 2 Torsion [C]-CA--N-[C] |==|  0.83572
USER: genes 3 Torsion [N]-C--CA-[N] |==|  0.27970
USER: genes 4 Torsion [C]-CA--CB-[CG] |==|  0.40837
USER: genes 5 Torsion [CA]-CB--CG-[CD2] |==|  0.03437
USER: genes 6 Torsion [C]-CA--N-[C] |==|  0.79620
USER: genes 7 Torsion [N]-CA--C-[N] |==|  0.33892
USER: genes 8 Torsion [C]-N--CA-[CB] |==|  0.32932
USER: genes 9 Torsion [N]-CA--CB-[CG2] |==|  0.67404
USER: genes 10 Torsion [CA]-CB--OG1-[HG1] |==|  0.10674
USER: genes 11 Torsion [N]-CA--C-[N] |==|  0.92580
USER: genes 12 Torsion [C]-N--CA-[C] |==|  0.57609
USER: genes 13 Torsion [N]-CA--C-[N] |==|  0.47223
USER: genes 14 Torsion [N]-CA--CB-[CG] |==|  0.80914
USER: genes 15 Torsion [CA]-CB--CG-[ND1] |==|  0.51447
ROOT
ATOM      1  CA  HIS C   2      23.360   6.229  43.954  1.00 11.69 LIG 0.18  C 
ENDROOT
BRANCH 1 2
ATOM      2  N   HIS C   2      22.463   5.855  45.047  1.00 10.87 LIG-0.35  N 
ATOM      3 H    HIS C   2      22.188   6.510  45.530  1.00 10.87 LIG 0.16  HD
ATOM      4  C   PHE C   1      22.125   4.585  45.242  1.00 11.47 LIG 0.24  C 
ATOM      5 O    PHE C   1      22.433   3.675  44.452  1.00 12.97 LIG-0.27  OA
BRANCH 4 6
ATOM      6  CA  PHE C   1      21.281   4.305  46.487  1.00 11.05 LIG 0.18  C 
BRANCH 6 7
ATOM      7  CB  PHE C   1      21.789   3.047  47.200  1.00 10.09 LIG 0.07  C 
BRANCH 7 8
ATOM      8  CG  PHE C   1      21.633   3.100  48.689  1.00  8.73 LIG-0.06  A 
ATOM      9  CD2 PHE C   1      20.861   4.072  49.282  1.00  8.91 LIG 0.01  A 
ATOM     10  CE2 PHE C   1      20.734   4.118  50.654  1.00  8.44 LIG 0.00  A 
ATOM     11  CZ  PHE C   1      21.395   3.195  51.441  1.00  8.32 LIG 0.00  A 
ATOM     12  CE1 PHE C   1      22.162   2.212  50.854  1.00  8.07 LIG 0.00  A 
ATOM     13  CD1 PHE C   1      22.289   2.179  49.487  1.00  8.33 LIG 0.01  A 
ENDBRANCH 7 8
ENDBRANCH 6 7
BRANCH 6 14
ATOM     14  N   PHE C   1      19.884   4.152  46.145  1.00 11.54 LIG-0.35  N 
ATOM     15 H    PHE C   1      19.612   3.338  46.186  1.00 11.54 LIG 0.16  HD
ATOM     16  C   ACE C   0      19.090   5.154  45.800  1.00 13.21 LIG 0.21  C 
ATOM     17  CH3 ACE C   0      17.718   4.837  45.281  1.00 13.47 LIG 0.12  C 
ATOM     18 O    ACE C   0      19.604   6.269  45.725  1.00 14.75 LIG-0.27  OA
ENDBRANCH 6 14
ENDBRANCH 4 6
ENDBRANCH 1 2
BRANCH 1 19
ATOM     19  C   HIS C   2      24.663   5.502  44.148  1.00 11.19 LIG 0.24  C 
ATOM     20  N   THR C   3      25.053   4.717  43.153  1.00 11.67 LIG-0.34  N 
ATOM     21 H    THR C   3      24.596   4.571  42.439  1.00 11.67 LIG 0.16  HD
ATOM     22 O    HIS C   2      25.339   5.676  45.159  1.00 11.10 LIG-0.27  OA
BRANCH 20 23
ATOM     23  CA  THR C   3      26.327   4.032  43.216  1.00 11.71 LIG 0.20  C 
BRANCH 23 24
ATOM     24  CB  THR C   3      26.161   2.489  43.185  1.00 13.34 LIG 0.15  C 
ATOM     25  CG2 THR C   3      26.668   1.844  44.451  1.00 14.42 LIG 0.04  C 
BRANCH 24 26
ATOM     26 OG1  THR C   3      24.777   2.184  43.034  1.00 13.01 LIG-0.39  OA
ATOM     27 HG1  THR C   3      24.425   2.734  42.506  1.00 13.01 LIG 0.21  HD
ENDBRANCH 24 26
ENDBRANCH 23 24
BRANCH 23 28
ATOM     28  C   THR C   3      27.254   4.519  42.092  1.00 11.33 LIG 0.24  C 
ATOM     29  N   ALA C   4      26.665   4.988  40.994  1.00 10.31 LIG-0.35  N 
ATOM     30 H    ALA C   4      25.823   4.930  40.830  1.00 10.31 LIG 0.16  HD
ATOM     31 O    THR C   3      28.485   4.470  42.217  1.00 11.88 LIG-0.27  OA
BRANCH 29 32
ATOM     32  CA  ALA C   4      27.447   5.658  39.961  1.00 10.35 LIG 0.18  C 
ATOM     33  CB  ALA C   4      28.090   4.631  39.018  1.00 10.31 LIG 0.04  C 
BRANCH 32 34
ATOM     34  C   ALA C   4      26.580   6.676  39.176  1.00 10.99 LIG 0.28  C 
ATOM     35 O    ALA C   4      25.364   6.713  39.329  0.79 11.43 LIG-0.27  OA
ATOM     36  N   NH2 C   5      27.215   7.498  38.347  0.91 10.97 LIG-0.11  N 
ENDBRANCH 32 34
ENDBRANCH 29 32
ENDBRANCH 23 28
ENDBRANCH 20 23
ENDBRANCH 1 19
BRANCH 1 37
ATOM     37  CB  HIS C   2      23.677   7.717  43.959  1.00 14.08 LIG 0.10  C 
BRANCH 37 38
ATOM     38  CG  HIS C   2      22.520   8.583  43.612  1.00 15.42 LIG 0.06  A 
ATOM     39  CD2 HIS C   2      21.227   8.266  43.390  1.00 15.59 LIG 0.14  A 
ATOM     40 NE2  HIS C   2      20.564   9.436  43.104  1.00 17.02 LIG-0.25  NA
ATOM     41  CE1 HIS C   2      21.423  10.436  43.155  1.00 16.99 LIG 0.23  A 
ATOM     42 ND1  HIS C   2      22.614   9.949  43.457  0.48 15.92 LIG-0.24  NA
ENDBRANCH 37 38
ENDBRANCH 1 37
TORSDOF 14
ENDMDL
MODEL 36
USER: ADFR SOLUTION from run 54
USER: SCORE 11.881742 LL:  -3.280 LR: -10.512 RR:   0.000 FEB:  -6.336
USER: RMSD 8.743124
USER: SEED 53
USER: STATUS searching
USER: GENES 16
USER: genes 0 Translation |==|  0.42277 0.58896 0.56370
USER: genes 1 Rotation |==|  0.67681 0.94147 0.61869 0.59878
USER: genes 2 Torsion [C]-CA--N-[C] |==|  0.20947
USER: genes 3 Torsion [N]-C--CA-[N] |==|  0.35000
USER: genes 4 Torsion [C]-CA--CB-[CG] |==|  0.16986
USER: genes 5 Torsion [CA]-CB--CG-[CD2] |==|  0.60277
USER: genes 6 Torsion [C]-CA--N-[C] |==|  0.80416
USER: genes 7 Torsion [N]-CA--C-[N] |==|  0.47578
USER: genes 8 Torsion [C]-N--CA-[CB] |==|  0.19180
USER: genes 9 Torsion [N]-CA--CB-[CG2] |==|  0.69071
USER: genes 10 Torsion [CA]-CB--OG1-[HG1] |==|  0.08048
USER: genes 11 Torsion [N]-CA--C-[N] |==|  0.83368
USER: genes 12 Torsion [C]-N--CA-[C] |==|  0.67369
USER: genes 13 Torsion [N]-CA--C-[N] |==|  0.05947
USER: genes 14 Torsion [N]-CA--CB-[CG] |==|  0.75853
USER: genes 15 Torsion [CA]-CB--CG-[ND1] |==|  0.55684
ROOT
ATOM      1  CA  HIS C   2      23.271   4.055  44.217  1.00 11.69 LIG 0.18  C 
ENDROOT
BRANCH 1 2
ATOM      2  N   HIS C   2      22.412   3.386  45.193  1.00 10.87 LIG-0.35  N 
ATOM      3 H    HIS C   2      21.733   2.977  44.858  1.00 10.87 LIG 0.16  HD
ATOM      4  C   PHE C   1      22.695   3.431  46.489  1.00 11.47 LIG 0.24  C 
ATOM      5 O    PHE C   1      23.750   3.918  46.935  1.00 12.97 LIG-0.27  OA
BRANCH 4 6
ATOM      6  CA  PHE C   1      21.658   2.798  47.420  1.00 11.05 LIG 0.18  C 
BRANCH 6 7
ATOM      7  CB  PHE C   1      20.969   3.879  48.259  1.00 10.09 LIG 0.07  C 
BRANCH 7 8
ATOM      8  CG  PHE C   1      20.228   4.891  47.439  1.00  8.73 LIG-0.06  A 
ATOM      9  CD2 PHE C   1      20.208   6.216  47.808  1.00  8.91 LIG 0.01  A 
ATOM     10  CE2 PHE C   1      19.513   7.137  47.051  1.00  8.44 LIG 0.00  A 
ATOM     11  CZ  PHE C   1      18.823   6.729  45.927  1.00  8.32 LIG 0.00  A 
ATOM     12  CE1 PHE C   1      18.849   5.405  45.546  1.00  8.07 LIG 0.00  A 
ATOM     13  CD1 PHE C   1      19.536   4.494  46.309  1.00  8.33 LIG 0.01  A 
ENDBRANCH 7 8
ENDBRANCH 6 7
BRANCH 6 14
ATOM     14  N   PHE C   1      22.268   1.812  48.284  1.00 11.54 LIG-0.35  N 
ATOM     15 H    PHE C   1      22.310   2.062  49.106  1.00 11.54 LIG 0.16  HD
ATOM     16  C   ACE C   0      22.720   0.640  47.870  1.00 13.21 LIG 0.21  C 
ATOM     17  CH3 ACE C   0      23.506  -0.208  48.828  1.00 13.47 LIG 0.12  C 
ATOM     18 O    ACE C   0      22.654   0.414  46.662  1.00 14.75 LIG-0.27  OA
ENDBRANCH 6 14
ENDBRANCH 4 6
ENDBRANCH 1 2
BRANCH 1 19
ATOM     19  C   HIS C   2      24.516   3.229  44.046  1.00 11.19 LIG 0.24  C 
ATOM     20  N   THR C   3      25.332   3.590  43.065  1.00 11.67 LIG-0.34  N 
ATOM     21 H    THR C   3      25.175   4.227  42.509  1.00 11.67 LIG 0.16  HD
ATOM     22 O    HIS C   2      24.771   2.304  44.813  1.00 11.10 LIG-0.27  OA
BRANCH 20 23
ATOM     23  CA  THR C   3      26.591   2.902  42.867  1.00 11.71 LIG 0.20  C 
BRANCH 23 24
ATOM     24  CB  THR C   3      26.386   1.448  42.363  1.00 13.34 LIG 0.15  C 
ATOM     25  CG2 THR C   3      26.780   0.432  43.406  1.00 14.42 LIG 0.04  C 
BRANCH 24 26
ATOM     26 OG1  THR C   3      25.010   1.269  42.040  1.00 13.01 LIG-0.39  OA
ATOM     27 HG1  THR C   3      24.681   2.004  41.801  1.00 13.01 LIG 0.21  HD
ENDBRANCH 24 26
ENDBRANCH 23 24
BRANCH 23 28
ATOM     28  C   THR C   3      27.497   3.702  41.919  1.00 11.33 LIG 0.24  C 
ATOM     29  N   ALA C   4      27.026   3.932  40.695  1.00 10.31 LIG-0.35  N 
ATOM     30 H    ALA C   4      26.316   3.571  40.371  1.00 10.31 LIG 0.16  HD
ATOM     31 O    THR C   3      28.607   4.105  42.291  1.00 11.88 LIG-0.27  OA
BRANCH 29 32
ATOM     32  CA  ALA C   4      27.715   4.848  39.795  1.00 10.35 LIG 0.18  C 
ATOM     33  CB  ALA C   4      28.189   4.112  38.533  1.00 10.31 LIG 0.04  C 
BRANCH 32 34
ATOM     34  C   ALA C   4      26.816   6.058  39.434  1.00 10.99 LIG 0.28  C 
ATOM     35 O    ALA C   4      27.027   6.716  38.421  0.79 11.43 LIG-0.27  OA
ATOM     36  N   NH2 C   5      25.816   6.337  40.264  0.91 10.97 LIG-0.11  N 
ENDBRANCH 32 34
ENDBRANCH 29 32
ENDBRANCH 23 28
ENDBRANCH 20 23
ENDBRANCH 1 19
BRANCH 1 37
ATOM     37  CB  HIS C   2      23.712   5.431  44.692  1.00 14.08 LIG 0.10  C 
BRANCH 37 38
ATOM     38  CG  HIS C   2      22.758   6.521  44.359  1.00 15.42 LIG 0.06  A 
ATOM     39  CD2 HIS C   2      21.445   6.469  44.052  1.00 15.59 LIG 0.14  A 
ATOM     40 NE2  HIS C   2      21.028   7.759  43.827  1.00 17.02 LIG-0.25  NA
ATOM     41  CE1 HIS C   2      22.052   8.574  43.997  1.00 16.99 LIG 0.23  A 
ATOM     42 ND1  HIS C   2      23.111   7.853  44.316  0.48 15.92 LIG-0.24  NA
ENDBRANCH 37 38
ENDBRANCH 1 37
TORSDOF 14
ENDMDL
MODEL 37
USER: ADFR SOLUTION from run 118
USER: SCORE 12.315458 LL:  -2.964 LR: -10.497 RR:   0.000 FEB:  -6.321
USER: RMSD 3.108099
USER: SEED 117
USER: STATUS no improvement in best in 11 clusters for 5 generations
USER: GENES 16
USER: genes 0 Translation |==|  0.47598 0.50019 0.56883
USER: genes 1 Rotation |==|  0.53094 0.36417 0.29072 0.93220
USER: genes 2 Torsion [C]-CA--N-[C] |==|  0.58477
USER: genes 3 Torsion [N]-C--CA-[N] |==|  0.27778
USER: genes 4 Torsion [C]-CA--CB-[CG] |==|  0.41343
USER: genes 5 Torsion [CA]-CB--CG-[CD2] |==|  0.25662
USER: genes 6 Torsion [C]-CA--N-[C] |==|  0.73721
USER: genes 7 Torsion [N]-CA--C-[N] |==|  0.37475
USER: genes 8 Torsion [C]-N--CA-[CB] |==|  0.53983
USER: genes 9 Torsion [N]-CA--CB-[CG2] |==|  0.38240
USER: genes 10 Torsion [CA]-CB--OG1-[HG1] |==|  0.36018
USER: genes 11 Torsion [N]-CA--C-[N] |==|  0.35013
USER: genes 12 Torsion [C]-N--CA-[C] |==|  0.57040
USER: genes 13 Torsion [N]-CA--C-[N] |==|  0.41312
USER: genes 14 Torsion [N]-CA--CB-[CG] |==|  0.06028
USER: genes 15 Torsion [CA]-CB--CG-[ND1] |==|  0.18621
ROOT
ATOM      1  CA  HIS C   2      24.309   2.590  44.321  1.00 11.69 LIG 0.18  C 
ENDROOT
BRANCH 1 2
ATOM      2  N   HIS C   2      24.777   2.263  42.974  1.00 10.87 LIG-0.35  N 
ATOM      3 H    HIS C   2      24.811   2.929  42.431  1.00 10.87 LIG 0.16  HD
ATOM      4  C   PHE C   1      25.114   1.019  42.657  1.00 11.47 LIG 0.24  C 
ATOM      5 O    PHE C   1      25.179   0.101  43.495  1.00 12.97 LIG-0.27  OA
BRANCH 4 6
ATOM      6  CA  PHE C   1      25.471   0.779  41.188  1.00 11.05 LIG 0.18  C 
BRANCH 6 7
ATOM      7  CB  PHE C   1      24.848  -0.532  40.698  1.00 10.09 LIG 0.07  C 
BRANCH 7 8
ATOM      8  CG  PHE C   1      24.489  -0.517  39.244  1.00  8.73 LIG-0.06  A 
ATOM      9  CD2 PHE C   1      25.378  -0.965  38.295  1.00  8.91 LIG 0.01  A 
ATOM     10  CE2 PHE C   1      25.041  -0.936  36.958  1.00  8.44 LIG 0.00  A 
ATOM     11  CZ  PHE C   1      23.812  -0.442  36.565  1.00  8.32 LIG 0.00  A 
ATOM     12  CE1 PHE C   1      22.913  -0.001  37.511  1.00  8.07 LIG 0.00  A 
ATOM     13  CD1 PHE C   1      23.260  -0.026  38.839  1.00  8.33 LIG 0.01  A 
ENDBRANCH 7 8
ENDBRANCH 6 7
BRANCH 6 14
ATOM     14  N   PHE C   1      26.904   0.749  41.000  1.00 11.54 LIG-0.35  N 
ATOM     15 H    PHE C   1      27.249  -0.025  41.145  1.00 11.54 LIG 0.16  HD
ATOM     16  C   ACE C   0      27.629   1.797  40.642  1.00 13.21 LIG 0.21  C 
ATOM     17  CH3 ACE C   0      29.125   1.682  40.672  1.00 13.47 LIG 0.12  C 
ATOM     18 O    ACE C   0      27.033   2.866  40.514  1.00 14.75 LIG-0.27  OA
ENDBRANCH 6 14
ENDBRANCH 4 6
ENDBRANCH 1 2
BRANCH 1 19
ATOM     19  C   HIS C   2      23.346   3.741  44.215  1.00 11.19 LIG 0.24  C 
ATOM     20  N   THR C   3      22.225   3.637  44.915  1.00 11.67 LIG-0.34  N 
ATOM     21 H    THR C   3      22.003   2.949  45.382  1.00 11.67 LIG 0.16  HD
ATOM     22 O    HIS C   2      23.622   4.736  43.550  1.00 11.10 LIG-0.27  OA
BRANCH 20 23
ATOM     23  CA  THR C   3      21.269   4.724  44.934  1.00 11.71 LIG 0.20  C 
BRANCH 23 24
ATOM     24  CB  THR C   3      20.222   4.560  46.068  1.00 13.34 LIG 0.15  C 
ATOM     25  CG2 THR C   3      19.949   5.865  46.773  1.00 14.42 LIG 0.04  C 
BRANCH 24 26
ATOM     26 OG1  THR C   3      19.007   4.079  45.499  1.00 13.01 LIG-0.39  OA
ATOM     27 HG1  THR C   3      18.740   3.412  45.933  1.00 13.01 LIG 0.21  HD
ENDBRANCH 24 26
ENDBRANCH 23 24
BRANCH 23 28
ATOM     28  C   THR C   3      21.994   6.075  45.032  1.00 11.33 LIG 0.24  C 
ATOM     29  N   ALA C   4      21.697   6.981  44.103  1.00 10.31 LIG-0.35  N 
ATOM     30 H    ALA C   4      21.224   6.822  43.402  1.00 10.31 LIG 0.16  HD
ATOM     31 O    THR C   3      22.812   6.293  45.936  1.00 11.88 LIG-0.27  OA
BRANCH 29 32
ATOM     32  CA  ALA C   4      22.174   8.353  44.225  1.00 10.35 LIG 0.18  C 
ATOM     33  CB  ALA C   4      23.628   8.466  43.744  1.00 10.31 LIG 0.04  C 
BRANCH 32 34
ATOM     34  C   ALA C   4      21.251   9.336  43.460  1.00 10.99 LIG 0.28  C 
ATOM     35 O    ALA C   4      20.654   8.977  42.451  0.79 11.43 LIG-0.27  OA
ATOM     36  N   NH2 C   5      21.138  10.565  43.951  0.91 10.97 LIG-0.11  N 
ENDBRANCH 32 34
ENDBRANCH 29 32
ENDBRANCH 23 28
ENDBRANCH 20 23
ENDBRANCH 1 19
BRANCH 1 37
ATOM     37  CB  HIS C   2      25.444   3.043  45.227  1.00 14.08 LIG 0.10  C 
BRANCH 37 38
ATOM     38  CG  HIS C   2      26.637   3.546  44.497  1.00 15.42 LIG 0.06  A 
ATOM     39  CD2 HIS C   2      27.882   3.036  44.401  1.00 15.59 LIG 0.14  A 
ATOM     40 NE2  HIS C   2      28.611   3.887  43.605  1.00 17.02 LIG-0.25  NA
ATOM     41  CE1 HIS C   2      27.835   4.883  43.222  1.00 16.99 LIG 0.23  A 
ATOM     42 ND1  HIS C   2      26.636   4.704  43.749  0.48 15.92 LIG-0.24  NA
ENDBRANCH 37 38
ENDBRANCH 1 37
TORSDOF 14
ENDMDL
MODEL 38
USER: ADFR SOLUTION from run 112
USER: SCORE 12.005892 LL:  -3.513 LR: -10.482 RR:   0.000 FEB:  -6.306
USER: RMSD 5.307597
USER: SEED 111
USER: STATUS no improvement in best in 6 clusters for 5 generations
USER: GENES 16
USER: genes 0 Translation |==|  0.64128 0.56241 0.42071
USER: genes 1 Rotation |==|  0.42942 0.68633 0.67562 0.92362
USER: genes 2 Torsion [C]-CA--N-[C] |==|  0.82695
USER: genes 3 Torsion [N]-C--CA-[N] |==|  0.50000
USER: genes 4 Torsion [C]-CA--CB-[CG] |==|  0.45072
USER: genes 5 Torsion [CA]-CB--CG-[CD2] |==|  0.53770
USER: genes 6 Torsion [C]-CA--N-[C] |==|  0.76996
USER: genes 7 Torsion [N]-CA--C-[N] |==|  0.90165
USER: genes 8 Torsion [C]-N--CA-[CB] |==|  0.38435
USER: genes 9 Torsion [N]-CA--CB-[CG2] |==|  0.60117
USER: genes 10 Torsion [CA]-CB--OG1-[HG1] |==|  0.07890
USER: genes 11 Torsion [N]-CA--C-[N] |==|  0.08623
USER: genes 12 Torsion [C]-N--CA-[C] |==|  0.82039
USER: genes 13 Torsion [N]-CA--C-[N] |==|  0.42236
USER: genes 14 Torsion [N]-CA--CB-[CG] |==|  0.83410
USER: genes 15 Torsion [CA]-CB--CG-[ND1] |==|  0.00131
ROOT
ATOM      1  CA  HIS C   2      27.532   3.617  41.321  1.00 11.69 LIG 0.18  C 
ENDROOT
BRANCH 1 2
ATOM      2  N   HIS C   2      26.974   2.625  40.403  1.00 10.87 LIG-0.35  N 
ATOM      3 H    HIS C   2      26.408   2.936  39.835  1.00 10.87 LIG 0.16  HD
ATOM      4  C   PHE C   1      27.340   1.351  40.475  1.00 11.47 LIG 0.24  C 
ATOM      5 O    PHE C   1      28.254   0.952  41.219  1.00 12.97 LIG-0.27  OA
BRANCH 4 6
ATOM      6  CA  PHE C   1      26.598   0.390  39.544  1.00 11.05 LIG 0.18  C 
BRANCH 6 7
ATOM      7  CB  PHE C   1      25.090   0.452  39.811  1.00 10.09 LIG 0.07  C 
BRANCH 7 8
ATOM      8  CG  PHE C   1      24.262  -0.114  38.698  1.00  8.73 LIG-0.06  A 
ATOM      9  CD2 PHE C   1      22.906   0.110  38.646  1.00  8.91 LIG 0.01  A 
ATOM     10  CE2 PHE C   1      22.152  -0.425  37.623  1.00  8.44 LIG 0.00  A 
ATOM     11  CZ  PHE C   1      22.755  -1.202  36.652  1.00  8.32 LIG 0.00  A 
ATOM     12  CE1 PHE C   1      24.114  -1.421  36.692  1.00  8.07 LIG 0.00  A 
ATOM     13  CD1 PHE C   1      24.855  -0.891  37.719  1.00  8.33 LIG 0.01  A 
ENDBRANCH 7 8
ENDBRANCH 6 7
BRANCH 6 14
ATOM     14  N   PHE C   1      27.076  -0.965  39.707  1.00 11.54 LIG-0.35  N 
ATOM     15 H    PHE C   1      26.585  -1.436  40.232  1.00 11.54 LIG 0.16  HD
ATOM     16  C   ACE C   0      28.157  -1.447  39.114  1.00 13.21 LIG 0.21  C 
ATOM     17  CH3 ACE C   0      28.653  -2.805  39.519  1.00 13.47 LIG 0.12  C 
ATOM     18 O    ACE C   0      28.809  -0.664  38.425  1.00 14.75 LIG-0.27  OA
ENDBRANCH 6 14
ENDBRANCH 4 6
ENDBRANCH 1 2
BRANCH 1 19
ATOM     19  C   HIS C   2      27.133   3.235  42.720  1.00 11.19 LIG 0.24  C 
ATOM     20  N   THR C   3      25.931   2.693  42.862  1.00 11.67 LIG-0.34  N 
ATOM     21 H    THR C   3      25.365   2.587  42.223  1.00 11.67 LIG 0.16  HD
ATOM     22 O    HIS C   2      27.909   3.380  43.661  1.00 11.10 LIG-0.27  OA
BRANCH 20 23
ATOM     23  CA  THR C   3      25.486   2.227  44.159  1.00 11.71 LIG 0.20  C 
BRANCH 23 24
ATOM     24  CB  THR C   3      24.003   2.595  44.433  1.00 13.34 LIG 0.15  C 
ATOM     25  CG2 THR C   3      23.771   2.947  45.881  1.00 14.42 LIG 0.04  C 
BRANCH 24 26
ATOM     26 OG1  THR C   3      23.656   3.715  43.624  1.00 13.01 LIG-0.39  OA
ATOM     27 HG1  THR C   3      24.125   3.713  42.926  1.00 13.01 LIG 0.21  HD
ENDBRANCH 24 26
ENDBRANCH 23 24
BRANCH 23 28
ATOM     28  C   THR C   3      25.723   0.715  44.296  1.00 11.33 LIG 0.24  C 
ATOM     29  N   ALA C   4      26.766   0.213  43.639  1.00 10.31 LIG-0.35  N 
ATOM     30 H    ALA C   4      27.235   0.648  43.065  1.00 10.31 LIG 0.16  HD
ATOM     31 O    THR C   3      24.971   0.014  44.986  1.00 11.88 LIG-0.27  OA
BRANCH 29 32
ATOM     32  CA  ALA C   4      27.194  -1.163  43.866  1.00 10.35 LIG 0.18  C 
ATOM     33  CB  ALA C   4      28.267  -1.571  42.846  1.00 10.31 LIG 0.04  C 
BRANCH 32 34
ATOM     34  C   ALA C   4      27.697  -1.360  45.319  1.00 10.99 LIG 0.28  C 
ATOM     35 O    ALA C   4      28.176  -0.423  45.949  0.79 11.43 LIG-0.27  OA
ATOM     36  N   NH2 C   5      27.576  -2.576  45.841  0.91 10.97 LIG-0.11  N 
ENDBRANCH 32 34
ENDBRANCH 29 32
ENDBRANCH 23 28
ENDBRANCH 20 23
ENDBRANCH 1 19
BRANCH 1 37
ATOM     37  CB  HIS C   2      26.977   5.010  41.065  1.00 14.08 LIG 0.10  C 
BRANCH 37 38
ATOM     38  CG  HIS C   2      27.246   5.526  39.697  1.00 15.42 LIG 0.06  A 
ATOM     39  CD2 HIS C   2      26.919   6.705  39.128  1.00 15.59 LIG 0.14  A 
ATOM     40 NE2  HIS C   2      27.401   6.684  37.842  1.00 17.02 LIG-0.25  NA
ATOM     41  CE1 HIS C   2      28.008   5.531  37.632  1.00 16.99 LIG 0.23  A 
ATOM     42 ND1  HIS C   2      27.926   4.810  38.736  0.48 15.92 LIG-0.24  NA
ENDBRANCH 37 38
ENDBRANCH 1 37
TORSDOF 14
ENDMDL
MODEL 39
USER: ADFR SOLUTION from run 100
USER: SCORE 11.559574 LL:  -3.360 LR: -10.482 RR:   0.000 FEB:  -6.305
USER: RMSD 7.110657
USER: SEED 99
USER: STATUS no improvement in best in 9 clusters for 5 generations
USER: GENES 16
USER: genes 0 Translation |==|  0.35059 0.46867 0.77002
USER: genes 1 Rotation |==|  0.43755 0.21548 0.17857 0.74865
USER: genes 2 Torsion [C]-CA--N-[C] |==|  0.18532
USER: genes 3 Torsion [N]-C--CA-[N] |==|  0.48592
USER: genes 4 Torsion [C]-CA--CB-[CG] |==|  0.31503
USER: genes 5 Torsion [CA]-CB--CG-[CD2] |==|  0.55413
USER: genes 6 Torsion [C]-CA--N-[C] |==|  0.81302
USER: genes 7 Torsion [N]-CA--C-[N] |==|  0.07978
USER: genes 8 Torsion [C]-N--CA-[CB] |==|  0.41324
USER: genes 9 Torsion [N]-CA--CB-[CG2] |==|  0.66730
USER: genes 10 Torsion [CA]-CB--OG1-[HG1] |==|  0.86057
USER: genes 11 Torsion [N]-CA--C-[N] |==|  0.97119
USER: genes 12 Torsion [C]-N--CA-[C] |==|  0.82491
USER: genes 13 Torsion [N]-CA--C-[N] |==|  0.30863
USER: genes 14 Torsion [N]-CA--CB-[CG] |==|  0.58625
USER: genes 15 Torsion [CA]-CB--CG-[ND1] |==|  0.95241
ROOT
ATOM      1  CA  HIS C   2      21.863   2.070  48.395  1.00 11.69 LIG 0.18  C 
ENDROOT
BRANCH 1 2
ATOM      2  N   HIS C   2      22.214   0.846  47.676  1.00 10.87 LIG-0.35  N 
ATOM      3 H    HIS C   2      21.544   0.392  47.385  1.00 10.87 LIG 0.16  HD
ATOM      4  C   PHE C   1      23.485   0.499  47.507  1.00 11.47 LIG 0.24  C 
ATOM      5 O    PHE C   1      24.435   1.236  47.824  1.00 12.97 LIG-0.27  OA
BRANCH 4 6
ATOM      6  CA  PHE C   1      23.721  -0.862  46.847  1.00 11.05 LIG 0.18  C 
BRANCH 6 7
ATOM      7  CB  PHE C   1      23.153  -1.983  47.724  1.00 10.09 LIG 0.07  C 
BRANCH 7 8
ATOM      8  CG  PHE C   1      21.989  -2.694  47.106  1.00  8.73 LIG-0.06  A 
ATOM      9  CD2 PHE C   1      21.122  -3.429  47.880  1.00  8.91 LIG 0.01  A 
ATOM     10  CE2 PHE C   1      20.059  -4.089  47.298  1.00  8.44 LIG 0.00  A 
ATOM     11  CZ  PHE C   1      19.870  -4.026  45.932  1.00  8.32 LIG 0.00  A 
ATOM     12  CE1 PHE C   1      20.729  -3.282  45.151  1.00  8.07 LIG 0.00  A 
ATOM     13  CD1 PHE C   1      21.788  -2.635  45.738  1.00  8.33 LIG 0.01  A 
ENDBRANCH 7 8
ENDBRANCH 6 7
BRANCH 6 14
ATOM     14  N   PHE C   1      25.130  -1.085  46.607  1.00 11.54 LIG-0.35  N 
ATOM     15 H    PHE C   1      25.459  -1.717  47.087  1.00 11.54 LIG 0.16  HD
ATOM     16  C   ACE C   0      25.853  -0.395  45.740  1.00 13.21 LIG 0.21  C 
ATOM     17  CH3 ACE C   0      27.341  -0.593  45.727  1.00 13.47 LIG 0.12  C 
ATOM     18 O    ACE C   0      25.285   0.521  45.147  1.00 14.75 LIG-0.27  OA
ENDBRANCH 6 14
ENDBRANCH 4 6
ENDBRANCH 1 2
BRANCH 1 19
ATOM     19  C   HIS C   2      22.334   3.243  47.579  1.00 11.19 LIG 0.24  C 
ATOM     20  N   THR C   3      22.384   3.064  46.266  1.00 11.67 LIG-0.34  N 
ATOM     21 H    THR C   3      22.208   2.322  45.867  1.00 11.67 LIG 0.16  HD
ATOM     22 O    HIS C   2      22.605   4.315  48.112  1.00 11.10 LIG-0.27  OA
BRANCH 20 23
ATOM     23  CA  THR C   3      22.756   4.156  45.391  1.00 11.71 LIG 0.20  C 
BRANCH 23 24
ATOM     24  CB  THR C   3      23.491   3.659  44.118  1.00 13.34 LIG 0.15  C 
ATOM     25  CG2 THR C   3      24.881   4.235  44.012  1.00 14.42 LIG 0.04  C 
BRANCH 24 26
ATOM     26 OG1  THR C   3      23.582   2.239  44.172  1.00 13.01 LIG-0.39  OA
ATOM     27 HG1  THR C   3      23.891   2.006  44.917  1.00 13.01 LIG 0.21  HD
ENDBRANCH 24 26
ENDBRANCH 23 24
BRANCH 23 28
ATOM     28  C   THR C   3      21.522   5.000  45.034  1.00 11.33 LIG 0.24  C 
ATOM     29  N   ALA C   4      20.337   4.500  45.377  1.00 10.31 LIG-0.35  N 
ATOM     30 H    ALA C   4      20.213   3.703  45.674  1.00 10.31 LIG 0.16  HD
ATOM     31 O    THR C   3      21.643   6.088  44.455  1.00 11.88 LIG-0.27  OA
BRANCH 29 32
ATOM     32  CA  ALA C   4      19.130   5.310  45.267  1.00 10.35 LIG 0.18  C 
ATOM     33  CB  ALA C   4      17.881   4.462  45.551  1.00 10.31 LIG 0.04  C 
BRANCH 32 34
ATOM     34  C   ALA C   4      19.196   6.543  46.204  1.00 10.99 LIG 0.28  C 
ATOM     35 O    ALA C   4      19.155   6.407  47.422  0.79 11.43 LIG-0.27  OA
ATOM     36  N   NH2 C   5      19.305   7.735  45.628  0.91 10.97 LIG-0.11  N 
ENDBRANCH 32 34
ENDBRANCH 29 32
ENDBRANCH 23 28
ENDBRANCH 20 23
ENDBRANCH 1 19
BRANCH 1 37
ATOM     37  CB  HIS C   2      22.560   2.160  49.745  1.00 14.08 LIG 0.10  C 
BRANCH 37 38
ATOM     38  CG  HIS C   2      21.780   2.888  50.780  1.00 15.42 LIG 0.06  A 
ATOM     39  CD2 HIS C   2      21.915   2.906  52.123  1.00 15.59 LIG 0.14  A 
ATOM     40 NE2  HIS C   2      20.940   3.739  52.618  1.00 17.02 LIG-0.25  NA
ATOM     41  CE1 HIS C   2      20.236   4.220  51.610  1.00 16.99 LIG 0.23  A 
ATOM     42 ND1  HIS C   2      20.721   3.719  50.488  0.48 15.92 LIG-0.24  NA
ENDBRANCH 37 38
ENDBRANCH 1 37
TORSDOF 14
ENDMDL
MODEL 40
USER: ADFR SOLUTION from run 136
USER: SCORE 12.659447 LL:  -2.772 LR: -10.436 RR:   0.000 FEB:  -6.260
USER: RMSD 4.627043
USER: SEED 135
USER: STATUS no improvement in best in 34 clusters for 5 generations
USER: GENES 16
USER: genes 0 Translation |==|  0.46433 0.35799 0.59271
USER: genes 1 Rotation |==|  0.63053 0.27783 0.12890 0.71422
USER: genes 2 Torsion [C]-CA--N-[C] |==|  0.83888
USER: genes 3 Torsion [N]-C--CA-[N] |==|  0.90666
USER: genes 4 Torsion [C]-CA--CB-[CG] |==|  0.21765
USER: genes 5 Torsion [CA]-CB--CG-[CD2] |==|  0.30008
USER: genes 6 Torsion [C]-CA--N-[C] |==|  0.80727
USER: genes 7 Torsion [N]-CA--C-[N] |==|  0.36655
USER: genes 8 Torsion [C]-N--CA-[CB] |==|  0.19283
USER: genes 9 Torsion [N]-CA--CB-[CG2] |==|  0.69874
USER: genes 10 Torsion [CA]-CB--OG1-[HG1] |==|  0.45668
USER: genes 11 Torsion [N]-CA--C-[N] |==|  0.09320
USER: genes 12 Torsion [C]-N--CA-[C] |==|  0.16667
USER: genes 13 Torsion [N]-CA--C-[N] |==|  0.09749
USER: genes 14 Torsion [N]-CA--CB-[CG] |==|  0.70935
USER: genes 15 Torsion [CA]-CB--CG-[ND1] |==|  0.87221
ROOT
ATOM      1  CA  HIS C   2      24.082   0.244  44.804  1.00 11.69 LIG 0.18  C 
ENDROOT
BRANCH 1 2
ATOM      2  N   HIS C   2      25.077  -0.226  43.841  1.00 10.87 LIG-0.35  N 
ATOM      3 H    HIS C   2      25.544  -0.899  44.102  1.00 10.87 LIG 0.16  HD
ATOM      4  C   PHE C   1      25.215   0.372  42.664  1.00 11.47 LIG 0.24  C 
ATOM      5 O    PHE C   1      24.442   1.259  42.260  1.00 12.97 LIG-0.27  OA
BRANCH 4 6
ATOM      6  CA  PHE C   1      26.370  -0.131  41.793  1.00 11.05 LIG 0.18  C 
BRANCH 6 7
ATOM      7  CB  PHE C   1      25.904  -1.300  40.918  1.00 10.09 LIG 0.07  C 
BRANCH 7 8
ATOM      8  CG  PHE C   1      25.116  -0.871  39.719  1.00  8.73 LIG-0.06  A 
ATOM      9  CD2 PHE C   1      25.657  -0.950  38.456  1.00  8.91 LIG 0.01  A 
ATOM     10  CE2 PHE C   1      24.926  -0.542  37.360  1.00  8.44 LIG 0.00  A 
ATOM     11  CZ  PHE C   1      23.650  -0.039  37.528  1.00  8.32 LIG 0.00  A 
ATOM     12  CE1 PHE C   1      23.098   0.033  38.788  1.00  8.07 LIG 0.00  A 
ATOM     13  CD1 PHE C   1      23.836  -0.368  39.874  1.00  8.33 LIG 0.01  A 
ENDBRANCH 7 8
ENDBRANCH 6 7
BRANCH 6 14
ATOM     14  N   PHE C   1      27.495  -0.537  42.606  1.00 11.54 LIG-0.35  N 
ATOM     15 H    PHE C   1      27.627  -1.386  42.602  1.00 11.54 LIG 0.16  HD
ATOM     16  C   ACE C   0      28.254   0.301  43.294  1.00 13.21 LIG 0.21  C 
ATOM     17  CH3 ACE C   0      29.265  -0.264  44.250  1.00 13.47 LIG 0.12  C 
ATOM     18 O    ACE C   0      27.937   1.489  43.266  1.00 14.75 LIG-0.27  OA
ENDBRANCH 6 14
ENDBRANCH 4 6
ENDBRANCH 1 2
BRANCH 1 19
ATOM     19  C   HIS C   2      24.369   1.689  45.107  1.00 11.19 LIG 0.24  C 
ATOM     20  N   THR C   3      23.334   2.517  45.058  1.00 11.67 LIG-0.34  N 
ATOM     21 H    THR C   3      22.537   2.289  44.829  1.00 11.67 LIG 0.16  HD
ATOM     22 O    HIS C   2      25.496   2.055  45.427  1.00 11.10 LIG-0.27  OA
BRANCH 20 23
ATOM     23  CA  THR C   3      23.497   3.914  45.404  1.00 11.71 LIG 0.20  C 
BRANCH 23 24
ATOM     24  CB  THR C   3      24.340   4.680  44.351  1.00 13.34 LIG 0.15  C 
ATOM     25  CG2 THR C   3      25.709   5.035  44.878  1.00 14.42 LIG 0.04  C 
BRANCH 24 26
ATOM     26 OG1  THR C   3      24.489   3.854  43.199  1.00 13.01 LIG-0.39  OA
ATOM     27 HG1  THR C   3      24.751   4.321  42.552  1.00 13.01 LIG 0.21  HD
ENDBRANCH 24 26
ENDBRANCH 23 24
BRANCH 23 28
ATOM     28  C   THR C   3      22.127   4.577  45.616  1.00 11.33 LIG 0.24  C 
ATOM     29  N   ALA C   4      21.168   3.813  46.134  1.00 10.31 LIG-0.35  N 
ATOM     30 H    ALA C   4      21.230   2.963  46.246  1.00 10.31 LIG 0.16  HD
ATOM     31 O    THR C   3      21.941   5.763  45.314  1.00 11.88 LIG-0.27  OA
BRANCH 29 32
ATOM     32  CA  ALA C   4      19.902   4.398  46.560  1.00 10.35 LIG 0.18  C 
ATOM     33  CB  ALA C   4      20.122   5.374  47.725  1.00 10.31 LIG 0.04  C 
BRANCH 32 34
ATOM     34  C   ALA C   4      19.179   5.090  45.377  1.00 10.99 LIG 0.28  C 
ATOM     35 O    ALA C   4      18.529   6.114  45.552  0.79 11.43 LIG-0.27  OA
ATOM     36  N   NH2 C   5      19.306   4.527  44.179  0.91 10.97 LIG-0.11  N 
ENDBRANCH 32 34
ENDBRANCH 29 32
ENDBRANCH 23 28
ENDBRANCH 20 23
ENDBRANCH 1 19
BRANCH 1 37
ATOM     37  CB  HIS C   2      24.162  -0.511  46.123  1.00 14.08 LIG 0.10  C 
BRANCH 37 38
ATOM     38  CG  HIS C   2      23.077  -1.508  46.317  1.00 15.42 LIG 0.06  A 
ATOM     39  CD2 HIS C   2      23.131  -2.786  46.746  1.00 15.59 LIG 0.14  A 
ATOM     40 NE2  HIS C   2      21.845  -3.271  46.744  1.00 17.02 LIG-0.25  NA
ATOM     41  CE1 HIS C   2      21.030  -2.319  46.331  1.00 16.99 LIG 0.23  A 
ATOM     42 ND1  HIS C   2      21.748  -1.243  46.063  0.48 15.92 LIG-0.24  NA
ENDBRANCH 37 38
ENDBRANCH 1 37
TORSDOF 14
ENDMDL
MODEL 41
USER: ADFR SOLUTION from run 63
USER: SCORE 13.126434 LL:  -3.541 LR: -10.436 RR:   0.000 FEB:  -6.260
USER: RMSD 7.747392
USER: SEED 62
USER: STATUS no improvement in best in 16 clusters for 5 generations
USER: GENES 16
USER: genes 0 Translation |==|  0.32821 0.52893 0.81717
USER: genes 1 Rotation |==|  0.36273 0.23753 0.28113 0.83817
USER: genes 2 Torsion [C]-CA--N-[C] |==|  0.17081
USER: genes 3 Torsion [N]-C--CA-[N] |==|  0.92566
USER: genes 4 Torsion [C]-CA--CB-[CG] |==|  0.60867
USER: genes 5 Torsion [CA]-CB--CG-[CD2] |==|  0.33621
USER: genes 6 Torsion [C]-CA--N-[C] |==|  0.72885
USER: genes 7 Torsion [N]-CA--C-[N] |==|  0.07222
USER: genes 8 Torsion [C]-N--CA-[CB] |==|  0.84408
USER: genes 9 Torsion [N]-CA--CB-[CG2] |==|  0.39978
USER: genes 10 Torsion [CA]-CB--OG1-[HG1] |==|  0.07871
USER: genes 11 Torsion [N]-CA--C-[N] |==|  0.98098
USER: genes 12 Torsion [C]-N--CA-[C] |==|  0.84051
USER: genes 13 Torsion [N]-CA--C-[N] |==|  0.39253
USER: genes 14 Torsion [N]-CA--CB-[CG] |==|  0.89805
USER: genes 15 Torsion [CA]-CB--CG-[ND1] |==|  0.33004
ROOT
ATOM      1  CA  HIS C   2      21.427   3.064  49.350  1.00 11.69 LIG 0.18  C 
ENDROOT
BRANCH 1 2
ATOM      2  N   HIS C   2      21.793   1.751  48.820  1.00 10.87 LIG-0.35  N 
ATOM      3 H    HIS C   2      21.278   1.106  49.064  1.00 10.87 LIG 0.16  HD
ATOM      4  C   PHE C   1      22.847   1.610  48.026  1.00 11.47 LIG 0.24  C 
ATOM      5 O    PHE C   1      23.497   2.575  47.586  1.00 12.97 LIG-0.27  OA
BRANCH 4 6
ATOM      6  CA  PHE C   1      23.200   0.172  47.636  1.00 11.05 LIG 0.18  C 
BRANCH 6 7
ATOM      7  CB  PHE C   1      22.579  -0.177  46.280  1.00 10.09 LIG 0.07  C 
BRANCH 7 8
ATOM      8  CG  PHE C   1      22.043  -1.574  46.209  1.00  8.73 LIG-0.06  A 
ATOM      9  CD2 PHE C   1      20.716  -1.805  45.927  1.00  8.91 LIG 0.01  A 
ATOM     10  CE2 PHE C   1      20.231  -3.095  45.875  1.00  8.44 LIG 0.00  A 
ATOM     11  CZ  PHE C   1      21.073  -4.161  46.121  1.00  8.32 LIG 0.00  A 
ATOM     12  CE1 PHE C   1      22.405  -3.938  46.394  1.00  8.07 LIG 0.00  A 
ATOM     13  CD1 PHE C   1      22.878  -2.650  46.451  1.00  8.33 LIG 0.01  A 
ENDBRANCH 7 8
ENDBRANCH 6 7
BRANCH 6 14
ATOM     14  N   PHE C   1      22.751  -0.764  48.643  1.00 11.54 LIG-0.35  N 
ATOM     15 H    PHE C   1      21.920  -0.972  48.566  1.00 11.54 LIG 0.16  HD
ATOM     16  C   ACE C   0      23.526  -1.260  49.594  1.00 13.21 LIG 0.21  C 
ATOM     17  CH3 ACE C   0      22.892  -2.067  50.691  1.00 13.47 LIG 0.12  C 
ATOM     18 O    ACE C   0      24.685  -0.849  49.637  1.00 14.75 LIG-0.27  OA
ENDBRANCH 6 14
ENDBRANCH 4 6
ENDBRANCH 1 2
BRANCH 1 19
ATOM     19  C   HIS C   2      21.111   3.965  48.188  1.00 11.19 LIG 0.24  C 
ATOM     20  N   THR C   3      20.695   3.371  47.078  1.00 11.67 LIG-0.34  N 
ATOM     21 H    THR C   3      20.637   2.519  46.973  1.00 11.67 LIG 0.16  HD
ATOM     22 O    HIS C   2      21.192   5.186  48.295  1.00 11.10 LIG-0.27  OA
BRANCH 20 23
ATOM     23  CA  THR C   3      20.298   4.158  45.929  1.00 11.71 LIG 0.20  C 
BRANCH 23 24
ATOM     24  CB  THR C   3      19.178   5.173  46.278  1.00 13.34 LIG 0.15  C 
ATOM     25  CG2 THR C   3      19.339   6.469  45.522  1.00 14.42 LIG 0.04  C 
BRANCH 24 26
ATOM     26 OG1  THR C   3      17.920   4.596  45.941  1.00 13.01 LIG-0.39  OA
ATOM     27 HG1  THR C   3      17.971   3.759  45.999  1.00 13.01 LIG 0.21  HD
ENDBRANCH 24 26
ENDBRANCH 23 24
BRANCH 23 28
ATOM     28  C   THR C   3      21.518   4.858  45.311  1.00 11.33 LIG 0.24  C 
ATOM     29  N   ALA C   4      22.665   4.758  45.979  1.00 10.31 LIG-0.35  N 
ATOM     30 H    ALA C   4      22.740   4.434  46.772  1.00 10.31 LIG 0.16  HD
ATOM     31 O    THR C   3      21.421   5.481  44.246  1.00 11.88 LIG-0.27  OA
BRANCH 29 32
ATOM     32  CA  ALA C   4      23.915   5.210  45.379  1.00 10.35 LIG 0.18  C 
ATOM     33  CB  ALA C   4      25.084   5.023  46.357  1.00 10.31 LIG 0.04  C 
BRANCH 32 34
ATOM     34  C   ALA C   4      24.185   4.485  44.036  1.00 10.99 LIG 0.28  C 
ATOM     35 O    ALA C   4      23.914   3.297  43.900  0.79 11.43 LIG-0.27  OA
ATOM     36  N   NH2 C   5      24.711   5.209  43.053  0.91 10.97 LIG-0.11  N 
ENDBRANCH 32 34
ENDBRANCH 29 32
ENDBRANCH 23 28
ENDBRANCH 20 23
ENDBRANCH 1 19
BRANCH 1 37
ATOM     37  CB  HIS C   2      22.572   3.711  50.115  1.00 14.08 LIG 0.10  C 
BRANCH 37 38
ATOM     38  CG  HIS C   2      23.392   2.752  50.901  1.00 15.42 LIG 0.06  A 
ATOM     39  CD2 HIS C   2      23.046   1.934  51.916  1.00 15.59 LIG 0.14  A 
ATOM     40 NE2  HIS C   2      24.178   1.253  52.294  1.00 17.02 LIG-0.25  NA
ATOM     41  CE1 HIS C   2      25.184   1.639  51.532  1.00 16.99 LIG 0.23  A 
ATOM     42 ND1  HIS C   2      24.738   2.547  50.683  0.48 15.92 LIG-0.24  NA
ENDBRANCH 37 38
ENDBRANCH 1 37
TORSDOF 14
ENDMDL
MODEL 42
USER: ADFR SOLUTION from run 84
USER: SCORE 11.878017 LL:  -3.619 LR: -10.433 RR:   0.000 FEB:  -6.256
USER: RMSD 7.544032
USER: SEED 83
USER: STATUS no improvement in best in 22 clusters for 5 generations
USER: GENES 16
USER: genes 0 Translation |==|  0.43085 0.46252 0.79813
USER: genes 1 Rotation |==|  0.22382 0.43335 0.45704 0.90919
USER: genes 2 Torsion [C]-CA--N-[C] |==|  0.71051
USER: genes 3 Torsion [N]-C--CA-[N] |==|  0.70634
USER: genes 4 Torsion [C]-CA--CB-[CG] |==|  0.68688
USER: genes 5 Torsion [CA]-CB--CG-[CD2] |==|  0.28355
USER: genes 6 Torsion [C]-CA--N-[C] |==|  0.66533
USER: genes 7 Torsion [N]-CA--C-[N] |==|  0.41901
USER: genes 8 Torsion [C]-N--CA-[CB] |==|  0.44574
USER: genes 9 Torsion [N]-CA--CB-[CG2] |==|  0.35070
USER: genes 10 Torsion [CA]-CB--OG1-[HG1] |==|  0.30304
USER: genes 11 Torsion [N]-CA--C-[N] |==|  0.41569
USER: genes 12 Torsion [C]-N--CA-[C] |==|  0.18333
USER: genes 13 Torsion [N]-CA--C-[N] |==|  0.12326
USER: genes 14 Torsion [N]-CA--CB-[CG] |==|  0.18377
USER: genes 15 Torsion [CA]-CB--CG-[ND1] |==|  0.25635
ROOT
ATOM      1  CA  HIS C   2      23.429   1.969  48.964  1.00 11.69 LIG 0.18  C 
ENDROOT
BRANCH 1 2
ATOM      2  N   HIS C   2      23.431   0.524  48.733  1.00 10.87 LIG-0.35  N 
ATOM      3 H    HIS C   2      23.434   0.291  47.905  1.00 10.87 LIG 0.16  HD
ATOM      4  C   PHE C   1      23.428  -0.326  49.753  1.00 11.47 LIG 0.24  C 
ATOM      5 O    PHE C   1      23.554   0.037  50.936  1.00 12.97 LIG-0.27  OA
BRANCH 4 6
ATOM      6  CA  PHE C   1      23.307  -1.807  49.385  1.00 11.05 LIG 0.18  C 
BRANCH 6 7
ATOM      7  CB  PHE C   1      23.624  -2.012  47.900  1.00 10.09 LIG 0.07  C 
BRANCH 7 8
ATOM      8  CG  PHE C   1      22.440  -2.442  47.090  1.00  8.73 LIG-0.06  A 
ATOM      9  CD2 PHE C   1      21.765  -1.542  46.298  1.00  8.91 LIG 0.01  A 
ATOM     10  CE2 PHE C   1      20.669  -1.947  45.564  1.00  8.44 LIG 0.00  A 
ATOM     11  CZ  PHE C   1      20.236  -3.257  45.634  1.00  8.32 LIG 0.00  A 
ATOM     12  CE1 PHE C   1      20.913  -4.166  46.417  1.00  8.07 LIG 0.00  A 
ATOM     13  CD1 PHE C   1      21.998  -3.752  47.150  1.00  8.33 LIG 0.01  A 
ENDBRANCH 7 8
ENDBRANCH 6 7
BRANCH 6 14
ATOM     14  N   PHE C   1      21.985  -2.310  49.685  1.00 11.54 LIG-0.35  N 
ATOM     15 H    PHE C   1      21.361  -1.894  49.265  1.00 11.54 LIG 0.16  HD
ATOM     16  C   ACE C   0      21.742  -3.309  50.518  1.00 13.21 LIG 0.21  C 
ATOM     17  CH3 ACE C   0      20.318  -3.604  50.891  1.00 13.47 LIG 0.12  C 
ATOM     18 O    ACE C   0      22.711  -3.793  51.102  1.00 14.75 LIG-0.27  OA
ENDBRANCH 6 14
ENDBRANCH 4 6
ENDBRANCH 1 2
BRANCH 1 19
ATOM     19  C   HIS C   2      22.043   2.485  48.687  1.00 11.19 LIG 0.24  C 
ATOM     20  N   THR C   3      21.669   3.559  49.368  1.00 11.67 LIG-0.34  N 
ATOM     21 H    THR C   3      22.144   3.944  49.973  1.00 11.67 LIG 0.16  HD
ATOM     22 O    HIS C   2      21.331   1.956  47.838  1.00 11.10 LIG-0.27  OA
BRANCH 20 23
ATOM     23  CA  THR C   3      20.381   4.173  49.118  1.00 11.71 LIG 0.20  C 
BRANCH 23 24
ATOM     24  CB  THR C   3      19.927   5.075  50.297  1.00 13.34 LIG 0.15  C 
ATOM     25  CG2 THR C   3      19.580   6.469  49.835  1.00 14.42 LIG 0.04  C 
BRANCH 24 26
ATOM     26 OG1  THR C   3      18.777   4.489  50.900  1.00 13.01 LIG-0.39  OA
ATOM     27 HG1  THR C   3      18.982   4.182  51.655  1.00 13.01 LIG 0.21  HD
ENDBRANCH 24 26
ENDBRANCH 23 24
BRANCH 23 28
ATOM     28  C   THR C   3      20.405   4.951  47.793  1.00 11.33 LIG 0.24  C 
ATOM     29  N   ALA C   4      19.255   5.030  47.127  1.00 10.31 LIG-0.35  N 
ATOM     30 H    ALA C   4      18.546   4.586  47.326  1.00 10.31 LIG 0.16  HD
ATOM     31 O    THR C   3      21.449   5.472  47.381  1.00 11.88 LIG-0.27  OA
BRANCH 29 32
ATOM     32  CA  ALA C   4      19.125   5.910  45.972  1.00 10.35 LIG 0.18  C 
ATOM     33  CB  ALA C   4      19.438   7.363  46.361  1.00 10.31 LIG 0.04  C 
BRANCH 32 34
ATOM     34  C   ALA C   4      20.027   5.436  44.804  1.00 10.99 LIG 0.28  C 
ATOM     35 O    ALA C   4      20.707   6.237  44.171  0.79 11.43 LIG-0.27  OA
ATOM     36  N   NH2 C   5      20.030   4.135  44.533  0.91 10.97 LIG-0.11  N 
ENDBRANCH 32 34
ENDBRANCH 29 32
ENDBRANCH 23 28
ENDBRANCH 20 23
ENDBRANCH 1 19
BRANCH 1 37
ATOM     37  CB  HIS C   2      24.372   2.700  48.021  1.00 14.08 LIG 0.10  C 
BRANCH 37 38
ATOM     38  CG  HIS C   2      23.964   2.644  46.593  1.00 15.42 LIG 0.06  A 
ATOM     39  CD2 HIS C   2      24.237   1.726  45.642  1.00 15.59 LIG 0.14  A 
ATOM     40 NE2  HIS C   2      23.621   2.143  44.486  1.00 17.02 LIG-0.25  NA
ATOM     41  CE1 HIS C   2      22.989   3.276  44.724  1.00 16.99 LIG 0.23  A 
ATOM     42 ND1  HIS C   2      23.182   3.604  45.989  0.48 15.92 LIG-0.24  NA
ENDBRANCH 37 38
ENDBRANCH 1 37
TORSDOF 14
ENDMDL
MODEL 43
USER: ADFR SOLUTION from run 91
USER: SCORE 11.046853 LL:  -3.330 LR: -10.424 RR:   0.000 FEB:  -6.248
USER: RMSD 5.937967
USER: SEED 90
USER: STATUS no improvement in best in 22 clusters for 5 generations
USER: GENES 16
USER: genes 0 Translation |==|  0.67441 0.51296 0.34048
USER: genes 1 Rotation |==|  0.23733 0.74014 0.35748 0.82098
USER: genes 2 Torsion [C]-CA--N-[C] |==|  0.61771
USER: genes 3 Torsion [N]-C--CA-[N] |==|  0.80531
USER: genes 4 Torsion [C]-CA--CB-[CG] |==|  0.17935
USER: genes 5 Torsion [CA]-CB--CG-[CD2] |==|  0.52932
USER: genes 6 Torsion [C]-CA--N-[C] |==|  0.70188
USER: genes 7 Torsion [N]-CA--C-[N] |==|  0.92754
USER: genes 8 Torsion [C]-N--CA-[CB] |==|  0.36784
USER: genes 9 Torsion [N]-CA--CB-[CG2] |==|  0.46968
USER: genes 10 Torsion [CA]-CB--OG1-[HG1] |==|  0.00804
USER: genes 11 Torsion [N]-CA--C-[N] |==|  0.94765
USER: genes 12 Torsion [C]-N--CA-[C] |==|  0.16667
USER: genes 13 Torsion [N]-CA--C-[N] |==|  0.15169
USER: genes 14 Torsion [N]-CA--CB-[CG] |==|  0.33782
USER: genes 15 Torsion [CA]-CB--CG-[ND1] |==|  0.23087
ROOT
ATOM      1  CA  HIS C   2      28.178   2.801  39.697  1.00 11.69 LIG 0.18  C 
ENDROOT
BRANCH 1 2
ATOM      2  N   HIS C   2      26.893   2.205  40.061  1.00 10.87 LIG-0.35  N 
ATOM      3 H    HIS C   2      26.206   2.692  39.886  1.00 10.87 LIG 0.16  HD
ATOM      4  C   PHE C   1      26.837   1.000  40.617  1.00 11.47 LIG 0.24  C 
ATOM      5 O    PHE C   1      27.834   0.266  40.739  1.00 12.97 LIG-0.27  OA
BRANCH 4 6
ATOM      6  CA  PHE C   1      25.449   0.537  41.063  1.00 11.05 LIG 0.18  C 
BRANCH 6 7
ATOM      7  CB  PHE C   1      24.449   0.671  39.911  1.00 10.09 LIG 0.07  C 
BRANCH 7 8
ATOM      8  CG  PHE C   1      24.755  -0.222  38.747  1.00  8.73 LIG-0.06  A 
ATOM      9  CD2 PHE C   1      24.090  -0.073  37.552  1.00  8.91 LIG 0.01  A 
ATOM     10  CE2 PHE C   1      24.372  -0.908  36.491  1.00  8.44 LIG 0.00  A 
ATOM     11  CZ  PHE C   1      25.314  -1.908  36.629  1.00  8.32 LIG 0.00  A 
ATOM     12  CE1 PHE C   1      25.991  -2.056  37.820  1.00  8.07 LIG 0.00  A 
ATOM     13  CD1 PHE C   1      25.699  -1.226  38.873  1.00  8.33 LIG 0.01  A 
ENDBRANCH 7 8
ENDBRANCH 6 7
BRANCH 6 14
ATOM     14  N   PHE C   1      24.992   1.293  42.208  1.00 11.54 LIG-0.35  N 
ATOM     15 H    PHE C   1      24.767   2.100  42.013  1.00 11.54 LIG 0.16  HD
ATOM     16  C   ACE C   0      24.919   0.809  43.437  1.00 13.21 LIG 0.21  C 
ATOM     17  CH3 ACE C   0      24.616   1.753  44.565  1.00 13.47 LIG 0.12  C 
ATOM     18 O    ACE C   0      25.317  -0.343  43.605  1.00 14.75 LIG-0.27  OA
ENDBRANCH 6 14
ENDBRANCH 4 6
ENDBRANCH 1 2
BRANCH 1 19
ATOM     19  C   HIS C   2      28.151   4.251  40.096  1.00 11.19 LIG 0.24  C 
ATOM     20  N   THR C   3      26.956   4.823  40.155  1.00 11.67 LIG-0.34  N 
ATOM     21 H    THR C   3      26.218   4.435  39.943  1.00 11.67 LIG 0.16  HD
ATOM     22 O    HIS C   2      29.185   4.843  40.395  1.00 11.10 LIG-0.27  OA
BRANCH 20 23
ATOM     23  CA  THR C   3      26.821   6.195  40.599  1.00 11.71 LIG 0.20  C 
BRANCH 23 24
ATOM     24  CB  THR C   3      25.918   7.028  39.651  1.00 13.34 LIG 0.15  C 
ATOM     25  CG2 THR C   3      25.565   8.368  40.247  1.00 14.42 LIG 0.04  C 
BRANCH 24 26
ATOM     26 OG1  THR C   3      26.615   7.236  38.426  1.00 13.01 LIG-0.39  OA
ATOM     27 HG1  THR C   3      27.352   6.835  38.452  1.00 13.01 LIG 0.21  HD
ENDBRANCH 24 26
ENDBRANCH 23 24
BRANCH 23 28
ATOM     28  C   THR C   3      26.310   6.242  42.047  1.00 11.33 LIG 0.24  C 
ATOM     29  N   ALA C   4      25.721   5.140  42.508  1.00 10.31 LIG-0.35  N 
ATOM     30 H    ALA C   4      25.510   4.462  42.023  1.00 10.31 LIG 0.16  HD
ATOM     31 O    THR C   3      26.447   7.261  42.736  1.00 11.88 LIG-0.27  OA
BRANCH 29 32
ATOM     32  CA  ALA C   4      25.387   5.014  43.921  1.00 10.35 LIG 0.18  C 
ATOM     33  CB  ALA C   4      26.660   5.014  44.781  1.00 10.31 LIG 0.04  C 
BRANCH 32 34
ATOM     34  C   ALA C   4      24.409   6.131  44.367  1.00 10.99 LIG 0.28  C 
ATOM     35 O    ALA C   4      24.683   6.863  45.312  0.79 11.43 LIG-0.27  OA
ATOM     36  N   NH2 C   5      23.281   6.257  43.677  0.91 10.97 LIG-0.11  N 
ENDBRANCH 32 34
ENDBRANCH 29 32
ENDBRANCH 23 28
ENDBRANCH 20 23
ENDBRANCH 1 19
BRANCH 1 37
ATOM     37  CB  HIS C   2      28.424   2.758  38.196  1.00 14.08 LIG 0.10  C 
BRANCH 37 38
ATOM     38  CG  HIS C   2      28.640   4.093  37.580  1.00 15.42 LIG 0.06  A 
ATOM     39  CD2 HIS C   2      27.776   4.911  36.942  1.00 15.59 LIG 0.14  A 
ATOM     40 NE2  HIS C   2      28.480   6.029  36.562  1.00 17.02 LIG-0.25  NA
ATOM     41  CE1 HIS C   2      29.732   5.902  36.960  1.00 16.99 LIG 0.23  A 
ATOM     42 ND1  HIS C   2      29.857   4.740  37.575  0.48 15.92 LIG-0.24  NA
ENDBRANCH 37 38
ENDBRANCH 1 37
TORSDOF 14
ENDMDL
MODEL 44
USER: ADFR SOLUTION from run 5
USER: SCORE 12.695163 LL:  -3.243 LR: -10.395 RR:   0.000 FEB:  -6.219
USER: RMSD 3.315610
USER: SEED 544699
USER: STATUS no improvement in best in 9 clusters for 5 generations
USER: GENES 16
USER: genes 0 Translation |==|  0.48110 0.40841 0.54094
USER: genes 1 Rotation |==|  0.63486 0.43979 0.18958 0.86308
USER: genes 2 Torsion [C]-CA--N-[C] |==|  0.53471
USER: genes 3 Torsion [N]-C--CA-[N] |==|  0.15485
USER: genes 4 Torsion [C]-CA--CB-[CG] |==|  0.28170
USER: genes 5 Torsion [CA]-CB--CG-[CD2] |==|  0.94274
USER: genes 6 Torsion [C]-CA--N-[C] |==|  0.18274
USER: genes 7 Torsion [N]-CA--C-[N] |==|  0.45196
USER: genes 8 Torsion [C]-N--CA-[CB] |==|  0.82706
USER: genes 9 Torsion [N]-CA--CB-[CG2] |==|  0.50783
USER: genes 10 Torsion [CA]-CB--OG1-[HG1] |==|  0.08894
USER: genes 11 Torsion [N]-CA--C-[N] |==|  0.32222
USER: genes 12 Torsion [C]-N--CA-[C] |==|  0.79470
USER: genes 13 Torsion [N]-CA--C-[N] |==|  0.94943
USER: genes 14 Torsion [N]-CA--CB-[CG] |==|  0.53953
USER: genes 15 Torsion [CA]-CB--CG-[ND1] |==|  0.76837
ROOT
ATOM      1  CA  HIS C   2      24.408   1.076  43.756  1.00 11.69 LIG 0.18  C 
ENDROOT
BRANCH 1 2
ATOM      2  N   HIS C   2      24.835   1.469  42.413  1.00 10.87 LIG-0.35  N 
ATOM      3 H    HIS C   2      24.886   2.318  42.284  1.00 10.87 LIG 0.16  HD
ATOM      4  C   PHE C   1      25.112   0.552  41.494  1.00 11.47 LIG 0.24  C 
ATOM      5 O    PHE C   1      25.154  -0.666  41.745  1.00 12.97 LIG-0.27  OA
BRANCH 4 6
ATOM      6  CA  PHE C   1      25.428   1.086  40.095  1.00 11.05 LIG 0.18  C 
BRANCH 6 7
ATOM      7  CB  PHE C   1      25.774  -0.071  39.152  1.00 10.09 LIG 0.07  C 
BRANCH 7 8
ATOM      8  CG  PHE C   1      24.648  -0.459  38.243  1.00  8.73 LIG-0.06  A 
ATOM      9  CD2 PHE C   1      23.349  -0.128  38.552  1.00  8.91 LIG 0.01  A 
ATOM     10  CE2 PHE C   1      22.319  -0.500  37.714  1.00  8.44 LIG 0.00  A 
ATOM     11  CZ  PHE C   1      22.586  -1.221  36.567  1.00  8.32 LIG 0.00  A 
ATOM     12  CE1 PHE C   1      23.886  -1.548  36.246  1.00  8.07 LIG 0.00  A 
ATOM     13  CD1 PHE C   1      24.904  -1.180  37.090  1.00  8.33 LIG 0.01  A 
ENDBRANCH 7 8
ENDBRANCH 6 7
BRANCH 6 14
ATOM     14  N   PHE C   1      26.517   2.037  40.136  1.00 11.54 LIG-0.35  N 
ATOM     15 H    PHE C   1      26.278   2.834  39.922  1.00 11.54 LIG 0.16  HD
ATOM     16  C   ACE C   0      27.761   1.728  40.466  1.00 13.21 LIG 0.21  C 
ATOM     17  CH3 ACE C   0      28.832   2.763  40.280  1.00 13.47 LIG 0.12  C 
ATOM     18 O    ACE C   0      27.995   0.543  40.701  1.00 14.75 LIG-0.27  OA
ENDBRANCH 6 14
ENDBRANCH 4 6
ENDBRANCH 1 2
BRANCH 1 19
ATOM     19  C   HIS C   2      23.880   2.298  44.456  1.00 11.19 LIG 0.24  C 
ATOM     20  N   THR C   3      23.132   2.084  45.530  1.00 11.67 LIG-0.34  N 
ATOM     21 H    THR C   3      22.903   1.306  45.818  1.00 11.67 LIG 0.16  HD
ATOM     22 O    HIS C   2      24.176   3.425  44.068  1.00 11.10 LIG-0.27  OA
BRANCH 20 23
ATOM     23  CA  THR C   3      22.638   3.197  46.312  1.00 11.71 LIG 0.20  C 
BRANCH 23 24
ATOM     24  CB  THR C   3      23.790   4.031  46.932  1.00 13.34 LIG 0.15  C 
ATOM     25  CG2 THR C   3      23.269   5.149  47.802  1.00 14.42 LIG 0.04  C 
BRANCH 24 26
ATOM     26 OG1  THR C   3      24.599   3.168  47.726  1.00 13.01 LIG-0.39  OA
ATOM     27 HG1  THR C   3      24.600   2.398  47.390  1.00 13.01 LIG 0.21  HD
ENDBRANCH 24 26
ENDBRANCH 23 24
BRANCH 23 28
ATOM     28  C   THR C   3      21.703   4.075  45.465  1.00 11.33 LIG 0.24  C 
ATOM     29  N   ALA C   4      20.432   4.143  45.856  1.00 10.31 LIG-0.35  N 
ATOM     30 H    ALA C   4      20.083   3.648  46.466  1.00 10.31 LIG 0.16  HD
ATOM     31 O    THR C   3      22.127   4.682  44.473  1.00 11.88 LIG-0.27  OA
BRANCH 29 32
ATOM     32  CA  ALA C   4      19.518   5.101  45.245  1.00 10.35 LIG 0.18  C 
ATOM     33  CB  ALA C   4      18.059   4.706  45.516  1.00 10.31 LIG 0.04  C 
BRANCH 32 34
ATOM     34  C   ALA C   4      19.810   6.542  45.737  1.00 10.99 LIG 0.28  C 
ATOM     35 O    ALA C   4      19.388   7.513  45.118  0.79 11.43 LIG-0.27  OA
ATOM     36  N   NH2 C   5      20.523   6.668  46.851  0.91 10.97 LIG-0.11  N 
ENDBRANCH 32 34
ENDBRANCH 29 32
ENDBRANCH 23 28
ENDBRANCH 20 23
ENDBRANCH 1 19
BRANCH 1 37
ATOM     37  CB  HIS C   2      25.566   0.550  44.592  1.00 14.08 LIG 0.10  C 
BRANCH 37 38
ATOM     38  CG  HIS C   2      25.144  -0.166  45.825  1.00 15.42 LIG 0.06  A 
ATOM     39  CD2 HIS C   2      24.987  -1.485  46.059  1.00 15.59 LIG 0.14  A 
ATOM     40 NE2  HIS C   2      24.581  -1.622  47.365  1.00 17.02 LIG-0.25  NA
ATOM     41  CE1 HIS C   2      24.497  -0.424  47.914  1.00 16.99 LIG 0.23  A 
ATOM     42 ND1  HIS C   2      24.830   0.475  47.005  0.48 15.92 LIG-0.24  NA
ENDBRANCH 37 38
ENDBRANCH 1 37
TORSDOF 14
ENDMDL
MODEL 45
USER: ADFR SOLUTION from run 44
USER: SCORE 12.671220 LL:  -3.620 LR: -10.403 RR:   0.000 FEB:  -6.226
USER: RMSD 6.996887
USER: SEED 43
USER: STATUS no improvement in best in 36 clusters for 5 generations
USER: GENES 16
USER: genes 0 Translation |==|  0.34541 0.48229 0.78565
USER: genes 1 Rotation |==|  0.40729 0.29055 0.23585 0.85743
USER: genes 2 Torsion [C]-CA--N-[C] |==|  0.17029
USER: genes 3 Torsion [N]-C--CA-[N] |==|  0.52519
USER: genes 4 Torsion [C]-CA--CB-[CG] |==|  0.30244
USER: genes 5 Torsion [CA]-CB--CG-[CD2] |==|  0.57487
USER: genes 6 Torsion [C]-CA--N-[C] |==|  0.81075
USER: genes 7 Torsion [N]-CA--C-[N] |==|  0.06280
USER: genes 8 Torsion [C]-N--CA-[CB] |==|  0.86411
USER: genes 9 Torsion [N]-CA--CB-[CG2] |==|  0.45602
USER: genes 10 Torsion [CA]-CB--OG1-[HG1] |==|  0.01232
USER: genes 11 Torsion [N]-CA--C-[N] |==|  0.92222
USER: genes 12 Torsion [C]-N--CA-[C] |==|  0.79230
USER: genes 13 Torsion [N]-CA--C-[N] |==|  0.18843
USER: genes 14 Torsion [N]-CA--CB-[CG] |==|  0.85071
USER: genes 15 Torsion [CA]-CB--CG-[ND1] |==|  0.46649
ROOT
ATOM      1  CA  HIS C   2      21.762   2.295  48.711  1.00 11.69 LIG 0.18  C 
ENDROOT
BRANCH 1 2
ATOM      2  N   HIS C   2      22.021   1.211  47.763  1.00 10.87 LIG-0.35  N 
ATOM      3 H    HIS C   2      21.481   0.545  47.820  1.00 10.87 LIG 0.16  HD
ATOM      4  C   PHE C   1      23.025   1.293  46.898  1.00 11.47 LIG 0.24  C 
ATOM      5 O    PHE C   1      23.709   2.322  46.751  1.00 12.97 LIG-0.27  OA
BRANCH 4 6
ATOM      6  CA  PHE C   1      23.269   0.047  46.042  1.00 11.05 LIG 0.18  C 
BRANCH 6 7
ATOM      7  CB  PHE C   1      23.306  -1.204  46.926  1.00 10.09 LIG 0.07  C 
BRANCH 7 8
ATOM      8  CG  PHE C   1      22.110  -2.090  46.758  1.00  8.73 LIG-0.06  A 
ATOM      9  CD2 PHE C   1      21.689  -2.905  47.783  1.00  8.91 LIG 0.01  A 
ATOM     10  CE2 PHE C   1      20.593  -3.725  47.613  1.00  8.44 LIG 0.00  A 
ATOM     11  CZ  PHE C   1      19.921  -3.741  46.406  1.00  8.32 LIG 0.00  A 
ATOM     12  CE1 PHE C   1      20.331  -2.919  45.380  1.00  8.07 LIG 0.00  A 
ATOM     13  CD1 PHE C   1      21.427  -2.112  45.555  1.00  8.33 LIG 0.01  A 
ENDBRANCH 7 8
ENDBRANCH 6 7
BRANCH 6 14
ATOM     14  N   PHE C   1      24.501   0.164  45.295  1.00 11.54 LIG-0.35  N 
ATOM     15 H    PHE C   1      25.110  -0.384  45.557  1.00 11.54 LIG 0.16  HD
ATOM     16  C   ACE C   0      24.691   1.022  44.305  1.00 13.21 LIG 0.21  C 
ATOM     17  CH3 ACE C   0      26.074   1.177  43.743  1.00 13.47 LIG 0.12  C 
ATOM     18 O    ACE C   0      23.766   1.792  44.052  1.00 14.75 LIG-0.27  OA
ENDBRANCH 6 14
ENDBRANCH 4 6
ENDBRANCH 1 2
BRANCH 1 19
ATOM     19  C   HIS C   2      21.449   3.539  47.926  1.00 11.19 LIG 0.24  C 
ATOM     20  N   THR C   3      21.012   3.358  46.687  1.00 11.67 LIG-0.34  N 
ATOM     21 H    THR C   3      20.939   2.592  46.302  1.00 11.67 LIG 0.16  HD
ATOM     22 O    HIS C   2      21.551   4.651  48.437  1.00 11.10 LIG-0.27  OA
BRANCH 20 23
ATOM     23  CA  THR C   3      20.615   4.491  45.877  1.00 11.71 LIG 0.20  C 
BRANCH 23 24
ATOM     24  CB  THR C   3      19.651   5.441  46.636  1.00 13.34 LIG 0.15  C 
ATOM     25  CG2 THR C   3      19.542   6.786  45.962  1.00 14.42 LIG 0.04  C 
BRANCH 24 26
ATOM     26 OG1  THR C   3      18.360   4.839  46.676  1.00 13.01 LIG-0.39  OA
ATOM     27 HG1  THR C   3      18.398   4.071  46.338  1.00 13.01 LIG 0.21  HD
ENDBRANCH 24 26
ENDBRANCH 23 24
BRANCH 23 28
ATOM     28  C   THR C   3      21.853   5.242  45.363  1.00 11.33 LIG 0.24  C 
ATOM     29  N   ALA C   4      22.949   5.171  46.116  1.00 10.31 LIG-0.35  N 
ATOM     30 H    ALA C   4      22.975   4.838  46.908  1.00 10.31 LIG 0.16  HD
ATOM     31 O    THR C   3      21.816   5.877  44.301  1.00 11.88 LIG-0.27  OA
BRANCH 29 32
ATOM     32  CA  ALA C   4      24.224   5.675  45.620  1.00 10.35 LIG 0.18  C 
ATOM     33  CB  ALA C   4      25.199   5.918  46.781  1.00 10.31 LIG 0.04  C 
BRANCH 32 34
ATOM     34  C   ALA C   4      24.833   4.714  44.567  1.00 10.99 LIG 0.28  C 
ATOM     35 O    ALA C   4      25.855   4.082  44.813  0.79 11.43 LIG-0.27  OA
ATOM     36  N   NH2 C   5      24.196   4.608  43.406  0.91 10.97 LIG-0.11  N 
ENDBRANCH 32 34
ENDBRANCH 29 32
ENDBRANCH 23 28
ENDBRANCH 20 23
ENDBRANCH 1 19
BRANCH 1 37
ATOM     37  CB  HIS C   2      22.980   2.606  49.570  1.00 14.08 LIG 0.10  C 
BRANCH 37 38
ATOM     38  CG  HIS C   2      23.540   1.424  50.276  1.00 15.42 LIG 0.06  A 
ATOM     39  CD2 HIS C   2      23.030   0.187  50.449  1.00 15.59 LIG 0.14  A 
ATOM     40 NE2  HIS C   2      23.947  -0.533  51.177  1.00 17.02 LIG-0.25  NA
ATOM     41  CE1 HIS C   2      24.987   0.238  51.436  1.00 16.99 LIG 0.23  A 
ATOM     42 ND1  HIS C   2      24.766   1.427  50.906  0.48 15.92 LIG-0.24  NA
ENDBRANCH 37 38
ENDBRANCH 1 37
TORSDOF 14
ENDMDL
MODEL 46
USER: ADFR SOLUTION from run 6
USER: SCORE 11.557324 LL:  -2.809 LR: -10.403 RR:   0.000 FEB:  -6.227
USER: RMSD 3.886000
USER: SEED 536977
USER: STATUS no improvement in best in 21 clusters for 5 generations
USER: GENES 16
USER: genes 0 Translation |==|  0.50208 0.45229 0.51715
USER: genes 1 Rotation |==|  0.60918 0.35825 0.11565 0.76507
USER: genes 2 Torsion [C]-CA--N-[C] |==|  0.52289
USER: genes 3 Torsion [N]-C--CA-[N] |==|  0.15668
USER: genes 4 Torsion [C]-CA--CB-[CG] |==|  0.24231
USER: genes 5 Torsion [CA]-CB--CG-[CD2] |==|  0.39771
USER: genes 6 Torsion [C]-CA--N-[C] |==|  0.73934
USER: genes 7 Torsion [N]-CA--C-[N] |==|  0.29601
USER: genes 8 Torsion [C]-N--CA-[CB] |==|  0.22222
USER: genes 9 Torsion [N]-CA--CB-[CG2] |==|  0.59294
USER: genes 10 Torsion [CA]-CB--OG1-[HG1] |==|  0.20543
USER: genes 11 Torsion [N]-CA--C-[N] |==|  0.04667
USER: genes 12 Torsion [C]-N--CA-[C] |==|  0.72821
USER: genes 13 Torsion [N]-CA--C-[N] |==|  0.98091
USER: genes 14 Torsion [N]-CA--CB-[CG] |==|  0.58381
USER: genes 15 Torsion [CA]-CB--CG-[ND1] |==|  0.90098
ROOT
ATOM      1  CA  HIS C   2      24.818   1.800  43.274  1.00 11.69 LIG 0.18  C 
ENDROOT
BRANCH 1 2
ATOM      2  N   HIS C   2      25.516   1.678  41.995  1.00 10.87 LIG-0.35  N 
ATOM      3 H    HIS C   2      25.987   2.362  41.773  1.00 10.87 LIG 0.16  HD
ATOM      4  C   PHE C   1      25.403   0.576  41.263  1.00 11.47 LIG 0.24  C 
ATOM      5 O    PHE C   1      24.821  -0.447  41.666  1.00 12.97 LIG-0.27  OA
BRANCH 4 6
ATOM      6  CA  PHE C   1      26.081   0.615  39.891  1.00 11.05 LIG 0.18  C 
BRANCH 6 7
ATOM      7  CB  PHE C   1      25.900  -0.725  39.172  1.00 10.09 LIG 0.07  C 
BRANCH 7 8
ATOM      8  CG  PHE C   1      24.630  -0.813  38.381  1.00  8.73 LIG-0.06  A 
ATOM      9  CD2 PHE C   1      24.597  -1.473  37.175  1.00  8.91 LIG 0.01  A 
ATOM     10  CE2 PHE C   1      23.425  -1.538  36.450  1.00  8.44 LIG 0.00  A 
ATOM     11  CZ  PHE C   1      22.282  -0.926  36.927  1.00  8.32 LIG 0.00  A 
ATOM     12  CE1 PHE C   1      22.306  -0.272  38.139  1.00  8.07 LIG 0.00  A 
ATOM     13  CD1 PHE C   1      23.479  -0.206  38.850  1.00  8.33 LIG 0.01  A 
ENDBRANCH 7 8
ENDBRANCH 6 7
BRANCH 6 14
ATOM     14  N   PHE C   1      27.488   0.927  40.015  1.00 11.54 LIG-0.35  N 
ATOM     15 H    PHE C   1      27.977   0.234  40.156  1.00 11.54 LIG 0.16  HD
ATOM     16  C   ACE C   0      27.989   2.148  39.924  1.00 13.21 LIG 0.21  C 
ATOM     17  CH3 ACE C   0      29.435   2.359  40.265  1.00 13.47 LIG 0.12  C 
ATOM     18 O    ACE C   0      27.186   3.068  39.773  1.00 14.75 LIG-0.27  OA
ENDBRANCH 6 14
ENDBRANCH 4 6
ENDBRANCH 1 2
BRANCH 1 19
ATOM     19  C   HIS C   2      24.973   3.215  43.759  1.00 11.19 LIG 0.24  C 
ATOM     20  N   THR C   3      23.898   3.987  43.676  1.00 11.67 LIG-0.34  N 
ATOM     21 H    THR C   3      23.148   3.744  43.331  1.00 11.67 LIG 0.16  HD
ATOM     22 O    HIS C   2      26.031   3.603  44.248  1.00 11.10 LIG-0.27  OA
BRANCH 20 23
ATOM     23  CA  THR C   3      23.929   5.343  44.184  1.00 11.71 LIG 0.20  C 
BRANCH 23 24
ATOM     24  CB  THR C   3      24.611   6.322  43.191  1.00 13.34 LIG 0.15  C 
ATOM     25  CG2 THR C   3      25.359   7.418  43.909  1.00 14.42 LIG 0.04  C 
BRANCH 24 26
ATOM     26 OG1  THR C   3      25.528   5.587  42.387  1.00 13.01 LIG-0.39  OA
ATOM     27 HG1  THR C   3      25.103   5.127  41.827  1.00 13.01 LIG 0.21  HD
ENDBRANCH 24 26
ENDBRANCH 23 24
BRANCH 23 28
ATOM     28  C   THR C   3      22.511   5.811  44.549  1.00 11.33 LIG 0.24  C 
ATOM     29  N   ALA C   4      21.586   4.863  44.685  1.00 10.31 LIG-0.35  N 
ATOM     30 H    ALA C   4      21.700   4.037  44.472  1.00 10.31 LIG 0.16  HD
ATOM     31 O    THR C   3      22.260   7.013  44.705  1.00 11.88 LIG-0.27  OA
BRANCH 29 32
ATOM     32  CA  ALA C   4      20.270   5.182  45.224  1.00 10.35 LIG 0.18  C 
ATOM     33  CB  ALA C   4      19.170   4.462  44.430  1.00 10.31 LIG 0.04  C 
BRANCH 32 34
ATOM     34  C   ALA C   4      20.187   4.840  46.734  1.00 10.99 LIG 0.28  C 
ATOM     35 O    ALA C   4      19.200   5.147  47.393  0.79 11.43 LIG-0.27  OA
ATOM     36  N   NH2 C   5      21.224   4.201  47.267  0.91 10.97 LIG-0.11  N 
ENDBRANCH 32 34
ENDBRANCH 29 32
ENDBRANCH 23 28
ENDBRANCH 20 23
ENDBRANCH 1 19
BRANCH 1 37
ATOM     37  CB  HIS C   2      25.417   0.896  44.342  1.00 14.08 LIG 0.10  C 
BRANCH 37 38
ATOM     38  CG  HIS C   2      24.437   0.424  45.355  1.00 15.42 LIG 0.06  A 
ATOM     39  CD2 HIS C   2      24.347  -0.757  46.000  1.00 15.59 LIG 0.14  A 
ATOM     40 NE2  HIS C   2      23.258  -0.683  46.835  1.00 17.02 LIG-0.25  NA
ATOM     41  CE1 HIS C   2      22.702   0.507  46.708  1.00 16.99 LIG 0.23  A 
ATOM     42 ND1  HIS C   2      23.393   1.196  45.817  0.48 15.92 LIG-0.24  NA
ENDBRANCH 37 38
ENDBRANCH 1 37
TORSDOF 14
ENDMDL
MODEL 47
USER: ADFR SOLUTION from run 150
USER: SCORE 12.144979 LL:  -2.813 LR: -10.387 RR:   0.000 FEB:  -6.211
USER: RMSD 4.025974
USER: SEED 149
USER: STATUS no improvement in best in 12 clusters for 5 generations
USER: GENES 16
USER: genes 0 Translation |==|  0.46771 0.47560 0.56326
USER: genes 1 Rotation |==|  0.58902 0.33592 0.27158 0.90370
USER: genes 2 Torsion [C]-CA--N-[C] |==|  0.57954
USER: genes 3 Torsion [N]-C--CA-[N] |==|  0.23322
USER: genes 4 Torsion [C]-CA--CB-[CG] |==|  0.31045
USER: genes 5 Torsion [CA]-CB--CG-[CD2] |==|  0.37879
USER: genes 6 Torsion [C]-CA--N-[C] |==|  0.76546
USER: genes 7 Torsion [N]-CA--C-[N] |==|  0.42485
USER: genes 8 Torsion [C]-N--CA-[CB] |==|  0.53556
USER: genes 9 Torsion [N]-CA--CB-[CG2] |==|  0.38302
USER: genes 10 Torsion [CA]-CB--OG1-[HG1] |==|  0.37469
USER: genes 11 Torsion [N]-CA--C-[N] |==|  0.36227
USER: genes 12 Torsion [C]-N--CA-[C] |==|  0.58161
USER: genes 13 Torsion [N]-CA--C-[N] |==|  0.43159
USER: genes 14 Torsion [N]-CA--CB-[CG] |==|  0.51012
USER: genes 15 Torsion [CA]-CB--CG-[ND1] |==|  0.09313
ROOT
ATOM      1  CA  HIS C   2      24.147   2.184  44.208  1.00 11.69 LIG 0.18  C 
ENDROOT
BRANCH 1 2
ATOM      2  N   HIS C   2      24.893   2.060  42.956  1.00 10.87 LIG-0.35  N 
ATOM      3 H    HIS C   2      25.050   2.803  42.553  1.00 10.87 LIG 0.16  HD
ATOM      4  C   PHE C   1      25.278   0.870  42.511  1.00 11.47 LIG 0.24  C 
ATOM      5 O    PHE C   1      25.151  -0.174  43.176  1.00 12.97 LIG-0.27  OA
BRANCH 4 6
ATOM      6  CA  PHE C   1      25.943   0.857  41.132  1.00 11.05 LIG 0.18  C 
BRANCH 6 7
ATOM      7  CB  PHE C   1      25.749  -0.508  40.464  1.00 10.09 LIG 0.07  C 
BRANCH 7 8
ATOM      8  CG  PHE C   1      24.847  -0.465  39.268  1.00  8.73 LIG-0.06  A 
ATOM      9  CD2 PHE C   1      25.173  -1.143  38.116  1.00  8.91 LIG 0.01  A 
ATOM     10  CE2 PHE C   1      24.340  -1.088  37.018  1.00  8.44 LIG 0.00  A 
ATOM     11  CZ  PHE C   1      23.180  -0.339  37.067  1.00  8.32 LIG 0.00  A 
ATOM     12  CE1 PHE C   1      22.842   0.333  38.221  1.00  8.07 LIG 0.00  A 
ATOM     13  CD1 PHE C   1      23.681   0.279  39.306  1.00  8.33 LIG 0.01  A 
ENDBRANCH 7 8
ENDBRANCH 6 7
BRANCH 6 14
ATOM     14  N   PHE C   1      27.352   1.167  41.232  1.00 11.54 LIG-0.35  N 
ATOM     15 H    PHE C   1      27.851   0.467  41.264  1.00 11.54 LIG 0.16  HD
ATOM     16  C   ACE C   0      27.841   2.396  41.270  1.00 13.21 LIG 0.21  C 
ATOM     17  CH3 ACE C   0      29.300   2.580  41.570  1.00 13.47 LIG 0.12  C 
ATOM     18 O    ACE C   0      27.027   3.318  41.270  1.00 14.75 LIG-0.27  OA
ENDBRANCH 6 14
ENDBRANCH 4 6
ENDBRANCH 1 2
BRANCH 1 19
ATOM     19  C   HIS C   2      23.276   3.407  44.115  1.00 11.19 LIG 0.24  C 
ATOM     20  N   THR C   3      22.170   3.398  44.845  1.00 11.67 LIG-0.34  N 
ATOM     21 H    THR C   3      21.906   2.734  45.325  1.00 11.67 LIG 0.16  HD
ATOM     22 O    HIS C   2      23.612   4.371  43.432  1.00 11.10 LIG-0.27  OA
BRANCH 20 23
ATOM     23  CA  THR C   3      21.304   4.558  44.877  1.00 11.71 LIG 0.20  C 
BRANCH 23 24
ATOM     24  CB  THR C   3      20.253   4.470  46.017  1.00 13.34 LIG 0.15  C 
ATOM     25  CG2 THR C   3      20.085   5.790  46.729  1.00 14.42 LIG 0.04  C 
BRANCH 24 26
ATOM     26 OG1  THR C   3      19.003   4.087  45.453  1.00 13.01 LIG-0.39  OA
ATOM     27 HG1  THR C   3      18.653   3.488  45.927  1.00 13.01 LIG 0.21  HD
ENDBRANCH 24 26
ENDBRANCH 23 24
BRANCH 23 28
ATOM     28  C   THR C   3      22.135   5.846  44.980  1.00 11.33 LIG 0.24  C 
ATOM     29  N   ALA C   4      21.844   6.815  44.115  1.00 10.31 LIG-0.35  N 
ATOM     30 H    ALA C   4      21.313   6.726  43.444  1.00 10.31 LIG 0.16  HD
ATOM     31 O    THR C   3      23.028   5.960  45.830  1.00 11.88 LIG-0.27  OA
BRANCH 29 32
ATOM     32  CA  ALA C   4      22.431   8.141  44.260  1.00 10.35 LIG 0.18  C 
ATOM     33  CB  ALA C   4      23.812   8.198  43.590  1.00 10.31 LIG 0.04  C 
BRANCH 32 34
ATOM     34  C   ALA C   4      21.489   9.235  43.697  1.00 10.99 LIG 0.28  C 
ATOM     35 O    ALA C   4      20.653   8.963  42.842  0.79 11.43 LIG-0.27  OA
ATOM     36  N   NH2 C   5      21.627  10.463  44.186  0.91 10.97 LIG-0.11  N 
ENDBRANCH 32 34
ENDBRANCH 29 32
ENDBRANCH 23 28
ENDBRANCH 20 23
ENDBRANCH 1 19
BRANCH 1 37
ATOM     37  CB  HIS C   2      25.067   2.384  45.404  1.00 14.08 LIG 0.10  C 
BRANCH 37 38
ATOM     38  CG  HIS C   2      24.359   2.430  46.710  1.00 15.42 LIG 0.06  A 
ATOM     39  CD2 HIS C   2      24.634   3.132  47.829  1.00 15.59 LIG 0.14  A 
ATOM     40 NE2  HIS C   2      23.670   2.816  48.756  1.00 17.02 LIG-0.25  NA
ATOM     41  CE1 HIS C   2      22.829   1.952  48.219  1.00 16.99 LIG 0.23  A 
ATOM     42 ND1  HIS C   2      23.223   1.699  46.984  0.48 15.92 LIG-0.24  NA
ENDBRANCH 37 38
ENDBRANCH 1 37
TORSDOF 14
ENDMDL
MODEL 48
USER: ADFR SOLUTION from run 5
USER: SCORE 12.256601 LL:  -2.959 LR: -10.370 RR:   0.000 FEB:  -6.194
USER: RMSD 6.827723
USER: SEED 544699
USER: STATUS no improvement in best in 9 clusters for 5 generations
USER: GENES 16
USER: genes 0 Translation |==|  0.60476 0.43354 0.38890
USER: genes 1 Rotation |==|  0.46597 0.17589 0.16446 0.67665
USER: genes 2 Torsion [C]-CA--N-[C] |==|  0.86598
USER: genes 3 Torsion [N]-C--CA-[N] |==|  0.92665
USER: genes 4 Torsion [C]-CA--CB-[CG] |==|  0.04761
USER: genes 5 Torsion [CA]-CB--CG-[CD2] |==|  0.78477
USER: genes 6 Torsion [C]-CA--N-[C] |==|  0.76112
USER: genes 7 Torsion [N]-CA--C-[N] |==|  0.36726
USER: genes 8 Torsion [C]-N--CA-[CB] |==|  0.23333
USER: genes 9 Torsion [N]-CA--CB-[CG2] |==|  0.54524
USER: genes 10 Torsion [CA]-CB--OG1-[HG1] |==|  0.08515
USER: genes 11 Torsion [N]-CA--C-[N] |==|  0.09340
USER: genes 12 Torsion [C]-N--CA-[C] |==|  0.87080
USER: genes 13 Torsion [N]-CA--C-[N] |==|  0.37368
USER: genes 14 Torsion [N]-CA--CB-[CG] |==|  0.63079
USER: genes 15 Torsion [CA]-CB--CG-[ND1] |==|  0.73349
ROOT
ATOM      1  CA  HIS C   2      26.820   1.490  40.677  1.00 11.69 LIG 0.18  C 
ENDROOT
BRANCH 1 2
ATOM      2  N   HIS C   2      27.211   0.186  40.143  1.00 10.87 LIG-0.35  N 
ATOM      3 H    HIS C   2      27.344  -0.422  40.735  1.00 10.87 LIG 0.16  HD
ATOM      4  C   PHE C   1      27.338   0.001  38.834  1.00 11.47 LIG 0.24  C 
ATOM      5 O    PHE C   1      27.015   0.860  37.994  1.00 12.97 LIG-0.27  OA
BRANCH 4 6
ATOM      6  CA  PHE C   1      27.869  -1.369  38.405  1.00 11.05 LIG 0.18  C 
BRANCH 6 7
ATOM      7  CB  PHE C   1      26.706  -2.303  38.055  1.00 10.09 LIG 0.07  C 
BRANCH 7 8
ATOM      8  CG  PHE C   1      25.414  -1.584  37.816  1.00  8.73 LIG-0.06  A 
ATOM      9  CD2 PHE C   1      24.662  -1.119  38.870  1.00  8.91 LIG 0.01  A 
ATOM     10  CE2 PHE C   1      23.468  -0.468  38.639  1.00  8.44 LIG 0.00  A 
ATOM     11  CZ  PHE C   1      23.015  -0.294  37.346  1.00  8.32 LIG 0.00  A 
ATOM     12  CE1 PHE C   1      23.767  -0.749  36.285  1.00  8.07 LIG 0.00  A 
ATOM     13  CD1 PHE C   1      24.950  -1.402  36.525  1.00  8.33 LIG 0.01  A 
ENDBRANCH 7 8
ENDBRANCH 6 7
BRANCH 6 14
ATOM     14  N   PHE C   1      28.685  -1.959  39.443  1.00 11.54 LIG-0.35  N 
ATOM     15 H    PHE C   1      28.246  -2.485  39.961  1.00 11.54 LIG 0.16  HD
ATOM     16  C   ACE C   0      29.979  -1.723  39.595  1.00 13.21 LIG 0.21  C 
ATOM     17  CH3 ACE C   0      30.664  -2.242  40.826  1.00 13.47 LIG 0.12  C 
ATOM     18 O    ACE C   0      30.489  -0.911  38.825  1.00 14.75 LIG-0.27  OA
ENDBRANCH 6 14
ENDBRANCH 4 6
ENDBRANCH 1 2
BRANCH 1 19
ATOM     19  C   HIS C   2      27.677   2.540  40.024  1.00 11.19 LIG 0.24  C 
ATOM     20  N   THR C   3      27.043   3.602  39.546  1.00 11.67 LIG-0.34  N 
ATOM     21 H    THR C   3      26.189   3.705  39.550  1.00 11.67 LIG 0.16  HD
ATOM     22 O    HIS C   2      28.899   2.425  39.987  1.00 11.10 LIG-0.27  OA
BRANCH 20 23
ATOM     23  CA  THR C   3      27.788   4.699  38.963  1.00 11.71 LIG 0.20  C 
BRANCH 23 24
ATOM     24  CB  THR C   3      28.135   4.441  37.472  1.00 13.34 LIG 0.15  C 
ATOM     25  CG2 THR C   3      29.222   5.365  36.981  1.00 14.42 LIG 0.04  C 
BRANCH 24 26
ATOM     26 OG1  THR C   3      28.578   3.094  37.336  1.00 13.01 LIG-0.39  OA
ATOM     27 HG1  THR C   3      28.195   2.614  37.909  1.00 13.01 LIG 0.21  HD
ENDBRANCH 24 26
ENDBRANCH 23 24
BRANCH 23 28
ATOM     28  C   THR C   3      27.025   6.021  39.141  1.00 11.33 LIG 0.24  C 
ATOM     29  N   ALA C   4      26.306   6.149  40.254  1.00 10.31 LIG-0.35  N 
ATOM     30 H    ALA C   4      26.151   5.511  40.810  1.00 10.31 LIG 0.16  HD
ATOM     31 O    THR C   3      27.086   6.910  38.283  1.00 11.88 LIG-0.27  OA
BRANCH 29 32
ATOM     32  CA  ALA C   4      25.714   7.433  40.611  1.00 10.35 LIG 0.18  C 
ATOM     33  CB  ALA C   4      25.140   7.387  42.035  1.00 10.31 LIG 0.04  C 
BRANCH 32 34
ATOM     34  C   ALA C   4      26.741   8.584  40.458  1.00 10.99 LIG 0.28  C 
ATOM     35 O    ALA C   4      27.886   8.463  40.880  0.79 11.43 LIG-0.27  OA
ATOM     36  N   NH2 C   5      26.324   9.688  39.847  0.91 10.97 LIG-0.11  N 
ENDBRANCH 32 34
ENDBRANCH 29 32
ENDBRANCH 23 28
ENDBRANCH 20 23
ENDBRANCH 1 19
BRANCH 1 37
ATOM     37  CB  HIS C   2      27.062   1.590  42.176  1.00 14.08 LIG 0.10  C 
BRANCH 37 38
ATOM     38  CG  HIS C   2      25.914   2.150  42.938  1.00 15.42 LIG 0.06  A 
ATOM     39  CD2 HIS C   2      24.808   1.546  43.420  1.00 15.59 LIG 0.14  A 
ATOM     40 NE2  HIS C   2      24.059   2.512  44.049  1.00 17.02 LIG-0.25  NA
ATOM     41  CE1 HIS C   2      24.690   3.668  43.959  1.00 16.99 LIG 0.23  A 
ATOM     42 ND1  HIS C   2      25.813   3.478  43.290  0.48 15.92 LIG-0.24  NA
ENDBRANCH 37 38
ENDBRANCH 1 37
TORSDOF 14
ENDMDL
MODEL 49
USER: ADFR SOLUTION from run 91
USER: SCORE 12.051937 LL:  -3.900 LR: -10.365 RR:   0.000 FEB:  -6.189
USER: RMSD 5.635035
USER: SEED 90
USER: STATUS no improvement in best in 22 clusters for 5 generations
USER: GENES 16
USER: genes 0 Translation |==|  0.67273 0.49040 0.37918
USER: genes 1 Rotation |==|  0.20123 0.65719 0.31640 0.81987
USER: genes 2 Torsion [C]-CA--N-[C] |==|  0.57840
USER: genes 3 Torsion [N]-C--CA-[N] |==|  0.70535
USER: genes 4 Torsion [C]-CA--CB-[CG] |==|  0.25934
USER: genes 5 Torsion [CA]-CB--CG-[CD2] |==|  0.42360
USER: genes 6 Torsion [C]-CA--N-[C] |==|  0.18707
USER: genes 7 Torsion [N]-CA--C-[N] |==|  0.07702
USER: genes 8 Torsion [C]-N--CA-[CB] |==|  0.22083
USER: genes 9 Torsion [N]-CA--CB-[CG2] |==|  0.50208
USER: genes 10 Torsion [CA]-CB--OG1-[HG1] |==|  0.91366
USER: genes 11 Torsion [N]-CA--C-[N] |==|  0.93333
USER: genes 12 Torsion [C]-N--CA-[C] |==|  0.75352
USER: genes 13 Torsion [N]-CA--C-[N] |==|  0.99850
USER: genes 14 Torsion [N]-CA--CB-[CG] |==|  0.86816
USER: genes 15 Torsion [CA]-CB--CG-[ND1] |==|  0.25932
ROOT
ATOM      1  CA  HIS C   2      28.145   2.429  40.480  1.00 11.69 LIG 0.18  C 
ENDROOT
BRANCH 1 2
ATOM      2  N   HIS C   2      26.876   1.732  40.688  1.00 10.87 LIG-0.35  N 
ATOM      3 H    HIS C   2      26.184   2.144  40.386  1.00 10.87 LIG 0.16  HD
ATOM      4  C   PHE C   1      26.840   0.555  41.301  1.00 11.47 LIG 0.24  C 
ATOM      5 O    PHE C   1      27.866  -0.077  41.611  1.00 12.97 LIG-0.27  OA
BRANCH 4 6
ATOM      6  CA  PHE C   1      25.445  -0.015  41.567  1.00 11.05 LIG 0.18  C 
BRANCH 6 7
ATOM      7  CB  PHE C   1      24.403   0.712  40.711  1.00 10.09 LIG 0.07  C 
BRANCH 7 8
ATOM      8  CG  PHE C   1      24.122   0.033  39.405  1.00  8.73 LIG-0.06  A 
ATOM      9  CD2 PHE C   1      22.901   0.173  38.788  1.00  8.91 LIG 0.01  A 
ATOM     10  CE2 PHE C   1      22.649  -0.466  37.592  1.00  8.44 LIG 0.00  A 
ATOM     11  CZ  PHE C   1      23.619  -1.262  37.016  1.00  8.32 LIG 0.00  A 
ATOM     12  CE1 PHE C   1      24.848  -1.399  37.623  1.00  8.07 LIG 0.00  A 
ATOM     13  CD1 PHE C   1      25.087  -0.766  38.818  1.00  8.33 LIG 0.01  A 
ENDBRANCH 7 8
ENDBRANCH 6 7
BRANCH 6 14
ATOM     14  N   PHE C   1      25.099   0.090  42.967  1.00 11.54 LIG-0.35  N 
ATOM     15 H    PHE C   1      25.041  -0.673  43.359  1.00 11.54 LIG 0.16  HD
ATOM     16  C   ACE C   0      24.890   1.235  43.596  1.00 13.21 LIG 0.21  C 
ATOM     17  CH3 ACE C   0      24.348   1.198  44.996  1.00 13.47 LIG 0.12  C 
ATOM     18 O    ACE C   0      24.950   2.260  42.919  1.00 14.75 LIG-0.27  OA
ENDBRANCH 6 14
ENDBRANCH 4 6
ENDBRANCH 1 2
BRANCH 1 19
ATOM     19  C   HIS C   2      27.867   3.906  40.439  1.00 11.19 LIG 0.24  C 
ATOM     20  N   THR C   3      26.807   4.325  41.117  1.00 11.67 LIG-0.34  N 
ATOM     21 H    THR C   3      26.260   3.809  41.535  1.00 11.67 LIG 0.16  HD
ATOM     22 O    HIS C   2      28.619   4.674  39.845  1.00 11.10 LIG-0.27  OA
BRANCH 20 23
ATOM     23  CA  THR C   3      26.499   5.737  41.197  1.00 11.71 LIG 0.20  C 
BRANCH 23 24
ATOM     24  CB  THR C   3      25.795   6.253  39.913  1.00 13.34 LIG 0.15  C 
ATOM     25  CG2 THR C   3      25.493   7.729  39.994  1.00 14.42 LIG 0.04  C 
BRANCH 24 26
ATOM     26 OG1  THR C   3      26.652   6.018  38.800  1.00 13.01 LIG-0.39  OA
ATOM     27 HG1  THR C   3      27.453   6.063  39.048  1.00 13.01 LIG 0.21  HD
ENDBRANCH 24 26
ENDBRANCH 23 24
BRANCH 23 28
ATOM     28  C   THR C   3      25.664   6.035  42.452  1.00 11.33 LIG 0.24  C 
ATOM     29  N   ALA C   4      24.961   5.022  42.955  1.00 10.31 LIG-0.35  N 
ATOM     30 H    ALA C   4      24.854   4.263  42.565  1.00 10.31 LIG 0.16  HD
ATOM     31 O    THR C   3      25.658   7.164  42.958  1.00 11.88 LIG-0.27  OA
BRANCH 29 32
ATOM     32  CA  ALA C   4      24.303   5.146  44.250  1.00 10.35 LIG 0.18  C 
ATOM     33  CB  ALA C   4      23.000   4.334  44.275  1.00 10.31 LIG 0.04  C 
BRANCH 32 34
ATOM     34  C   ALA C   4      25.251   4.721  45.401  1.00 10.99 LIG 0.28  C 
ATOM     35 O    ALA C   4      24.876   4.760  46.567  0.79 11.43 LIG-0.27  OA
ATOM     36  N   NH2 C   5      26.469   4.311  45.061  0.91 10.97 LIG-0.11  N 
ENDBRANCH 32 34
ENDBRANCH 29 32
ENDBRANCH 23 28
ENDBRANCH 20 23
ENDBRANCH 1 19
BRANCH 1 37
ATOM     37  CB  HIS C   2      28.789   2.060  39.152  1.00 14.08 LIG 0.10  C 
BRANCH 37 38
ATOM     38  CG  HIS C   2      28.829   0.599  38.884  1.00 15.42 LIG 0.06  A 
ATOM     39  CD2 HIS C   2      29.740  -0.331  39.241  1.00 15.59 LIG 0.14  A 
ATOM     40 NE2  HIS C   2      29.307  -1.537  38.742  1.00 17.02 LIG-0.25  NA
ATOM     41  CE1 HIS C   2      28.166  -1.351  38.105  1.00 16.99 LIG 0.23  A 
ATOM     42 ND1  HIS C   2      27.855  -0.069  38.173  0.48 15.92 LIG-0.24  NA
ENDBRANCH 37 38
ENDBRANCH 1 37
TORSDOF 14
ENDMDL
MODEL 50
USER: ADFR SOLUTION from run 33
USER: SCORE 11.983884 LL:  -3.133 LR: -10.346 RR:   0.000 FEB:  -6.170
USER: RMSD 5.494813
USER: SEED 32
USER: STATUS no improvement in best in 16 clusters for 5 generations
USER: GENES 16
USER: genes 0 Translation |==|  0.49652 0.43072 0.51766
USER: genes 1 Rotation |==|  0.61722 0.36884 0.16767 0.82956
USER: genes 2 Torsion [C]-CA--N-[C] |==|  0.56758
USER: genes 3 Torsion [N]-C--CA-[N] |==|  0.16719
USER: genes 4 Torsion [C]-CA--CB-[CG] |==|  0.23445
USER: genes 5 Torsion [CA]-CB--CG-[CD2] |==|  0.92031
USER: genes 6 Torsion [C]-CA--N-[C] |==|  0.76360
USER: genes 7 Torsion [N]-CA--C-[N] |==|  0.92132
USER: genes 8 Torsion [C]-N--CA-[CB] |==|  0.17843
USER: genes 9 Torsion [N]-CA--CB-[CG2] |==|  0.70559
USER: genes 10 Torsion [CA]-CB--OG1-[HG1] |==|  0.28480
USER: genes 11 Torsion [N]-CA--C-[N] |==|  0.07411
USER: genes 12 Torsion [C]-N--CA-[C] |==|  0.71053
USER: genes 13 Torsion [N]-CA--C-[N] |==|  0.06100
USER: genes 14 Torsion [N]-CA--CB-[CG] |==|  0.61283
USER: genes 15 Torsion [CA]-CB--CG-[ND1] |==|  0.91664
ROOT
ATOM      1  CA  HIS C   2      24.709   1.444  43.285  1.00 11.69 LIG 0.18  C 
ENDROOT
BRANCH 1 2
ATOM      2  N   HIS C   2      25.391   1.465  41.991  1.00 10.87 LIG-0.35  N 
ATOM      3 H    HIS C   2      25.801   2.199  41.810  1.00 10.87 LIG 0.16  HD
ATOM      4  C   PHE C   1      25.354   0.409  41.188  1.00 11.47 LIG 0.24  C 
ATOM      5 O    PHE C   1      24.864  -0.683  41.528  1.00 12.97 LIG-0.27  OA
BRANCH 4 6
ATOM      6  CA  PHE C   1      26.000   0.595  39.812  1.00 11.05 LIG 0.18  C 
BRANCH 6 7
ATOM      7  CB  PHE C   1      25.832  -0.674  38.971  1.00 10.09 LIG 0.07  C 
BRANCH 7 8
ATOM      8  CG  PHE C   1      24.519  -0.746  38.254  1.00  8.73 LIG-0.06  A 
ATOM      9  CD2 PHE C   1      23.402  -0.130  38.768  1.00  8.91 LIG 0.01  A 
ATOM     10  CE2 PHE C   1      22.195  -0.212  38.105  1.00  8.44 LIG 0.00  A 
ATOM     11  CZ  PHE C   1      22.101  -0.927  36.927  1.00  8.32 LIG 0.00  A 
ATOM     12  CE1 PHE C   1      23.218  -1.538  36.401  1.00  8.07 LIG 0.00  A 
ATOM     13  CD1 PHE C   1      24.413  -1.458  37.072  1.00  8.33 LIG 0.01  A 
ENDBRANCH 7 8
ENDBRANCH 6 7
BRANCH 6 14
ATOM     14  N   PHE C   1      27.403   0.926  39.938  1.00 11.54 LIG-0.35  N 
ATOM     15 H    PHE C   1      27.918   0.240  39.882  1.00 11.54 LIG 0.16  HD
ATOM     16  C   ACE C   0      27.863   2.153  40.121  1.00 13.21 LIG 0.21  C 
ATOM     17  CH3 ACE C   0      29.320   2.336  40.431  1.00 13.47 LIG 0.12  C 
ATOM     18 O    ACE C   0      27.027   3.048  40.238  1.00 14.75 LIG-0.27  OA
ENDBRANCH 6 14
ENDBRANCH 4 6
ENDBRANCH 1 2
BRANCH 1 19
ATOM     19  C   HIS C   2      24.406   2.864  43.677  1.00 11.19 LIG 0.24  C 
ATOM     20  N   THR C   3      25.229   3.792  43.209  1.00 11.67 LIG-0.34  N 
ATOM     21 H    THR C   3      25.932   3.630  42.741  1.00 11.67 LIG 0.16  HD
ATOM     22 O    HIS C   2      23.418   3.135  44.354  1.00 11.10 LIG-0.27  OA
BRANCH 20 23
ATOM     23  CA  THR C   3      24.979   5.194  43.473  1.00 11.71 LIG 0.20  C 
BRANCH 23 24
ATOM     24  CB  THR C   3      25.069   5.527  44.986  1.00 13.34 LIG 0.15  C 
ATOM     25  CG2 THR C   3      23.706   5.757  45.592  1.00 14.42 LIG 0.04  C 
BRANCH 24 26
ATOM     26 OG1  THR C   3      25.694   4.436  45.655  1.00 13.01 LIG-0.39  OA
ATOM     27 HG1  THR C   3      26.493   4.631  45.823  1.00 13.01 LIG 0.21  HD
ENDBRANCH 24 26
ENDBRANCH 23 24
BRANCH 23 28
ATOM     28  C   THR C   3      25.930   6.073  42.647  1.00 11.33 LIG 0.24  C 
ATOM     29  N   ALA C   4      26.385   5.554  41.509  1.00 10.31 LIG-0.35  N 
ATOM     30 H    ALA C   4      26.277   4.736  41.269  1.00 10.31 LIG 0.16  HD
ATOM     31 O    THR C   3      26.248   7.205  43.036  1.00 11.88 LIG-0.27  OA
BRANCH 29 32
ATOM     32  CA  ALA C   4      27.125   6.379  40.561  1.00 10.35 LIG 0.18  C 
ATOM     33  CB  ALA C   4      28.411   5.669  40.114  1.00 10.31 LIG 0.04  C 
BRANCH 32 34
ATOM     34  C   ALA C   4      26.243   6.760  39.344  1.00 10.99 LIG 0.28  C 
ATOM     35 O    ALA C   4      26.752   7.083  38.277  0.79 11.43 LIG-0.27  OA
ATOM     36  N   NH2 C   5      24.925   6.712  39.515  0.91 10.97 LIG-0.11  N 
ENDBRANCH 32 34
ENDBRANCH 29 32
ENDBRANCH 23 28
ENDBRANCH 20 23
ENDBRANCH 1 19
BRANCH 1 37
ATOM     37  CB  HIS C   2      25.584   0.856  44.383  1.00 14.08 LIG 0.10  C 
BRANCH 37 38
ATOM     38  CG  HIS C   2      24.856  -0.038  45.321  1.00 15.42 LIG 0.06  A 
ATOM     39  CD2 HIS C   2      25.291  -1.104  46.026  1.00 15.59 LIG 0.14  A 
ATOM     40 NE2  HIS C   2      24.220  -1.581  46.744  1.00 17.02 LIG-0.25  NA
ATOM     41  CE1 HIS C   2      23.166  -0.828  46.489  1.00 16.99 LIG 0.23  A 
ATOM     42 ND1  HIS C   2      23.521   0.110  45.631  0.48 15.92 LIG-0.24  NA
ENDBRANCH 37 38
ENDBRANCH 1 37
TORSDOF 14
ENDMDL
MODEL 51
USER: ADFR SOLUTION from run 91
USER: SCORE 12.126196 LL:  -3.442 LR: -10.353 RR:   0.000 FEB:  -6.176
USER: RMSD 7.610198
USER: SEED 90
USER: STATUS no improvement in best in 22 clusters for 5 generations
USER: GENES 16
USER: genes 0 Translation |==|  0.67660 0.48748 0.38550
USER: genes 1 Rotation |==|  0.21017 0.65124 0.31070 0.82755
USER: genes 2 Torsion [C]-CA--N-[C] |==|  0.58893
USER: genes 3 Torsion [N]-C--CA-[N] |==|  0.69493
USER: genes 4 Torsion [C]-CA--CB-[CG] |==|  0.26528
USER: genes 5 Torsion [CA]-CB--CG-[CD2] |==|  0.44487
USER: genes 6 Torsion [C]-CA--N-[C] |==|  0.18393
USER: genes 7 Torsion [N]-CA--C-[N] |==|  0.91210
USER: genes 8 Torsion [C]-N--CA-[CB] |==|  0.86111
USER: genes 9 Torsion [N]-CA--CB-[CG2] |==|  0.52449
USER: genes 10 Torsion [CA]-CB--OG1-[HG1] |==|  0.02150
USER: genes 11 Torsion [N]-CA--C-[N] |==|  0.87480
USER: genes 12 Torsion [C]-N--CA-[C] |==|  0.79451
USER: genes 13 Torsion [N]-CA--C-[N] |==|  0.97401
USER: genes 14 Torsion [N]-CA--CB-[CG] |==|  0.86012
USER: genes 15 Torsion [CA]-CB--CG-[ND1] |==|  0.21941
ROOT
ATOM      1  CA  HIS C   2      28.221   2.380  40.608  1.00 11.69 LIG 0.18  C 
ENDROOT
BRANCH 1 2
ATOM      2  N   HIS C   2      26.942   1.680  40.732  1.00 10.87 LIG-0.35  N 
ATOM      3 H    HIS C   2      26.276   2.076  40.361  1.00 10.87 LIG 0.16  HD
ATOM      4  C   PHE C   1      26.863   0.523  41.378  1.00 11.47 LIG 0.24  C 
ATOM      5 O    PHE C   1      27.863  -0.090  41.793  1.00 12.97 LIG-0.27  OA
BRANCH 4 6
ATOM      6  CA  PHE C   1      25.454  -0.050  41.546  1.00 11.05 LIG 0.18  C 
BRANCH 6 7
ATOM      7  CB  PHE C   1      24.465   0.703  40.651  1.00 10.09 LIG 0.07  C 
BRANCH 7 8
ATOM      8  CG  PHE C   1      24.221   0.034  39.333  1.00  8.73 LIG-0.06  A 
ATOM      9  CD2 PHE C   1      23.099   0.325  38.592  1.00  8.91 LIG 0.01  A 
ATOM     10  CE2 PHE C   1      22.879  -0.305  37.386  1.00  8.44 LIG 0.00  A 
ATOM     11  CZ  PHE C   1      23.780  -1.244  36.922  1.00  8.32 LIG 0.00  A 
ATOM     12  CE1 PHE C   1      24.912  -1.533  37.653  1.00  8.07 LIG 0.00  A 
ATOM     13  CD1 PHE C   1      25.118  -0.906  38.857  1.00  8.33 LIG 0.01  A 
ENDBRANCH 7 8
ENDBRANCH 6 7
BRANCH 6 14
ATOM     14  N   PHE C   1      25.026   0.017  42.926  1.00 11.54 LIG-0.35  N 
ATOM     15 H    PHE C   1      24.929  -0.756  43.288  1.00 11.54 LIG 0.16  HD
ATOM     16  C   ACE C   0      24.803   1.146  43.580  1.00 13.21 LIG 0.21  C 
ATOM     17  CH3 ACE C   0      24.177   1.075  44.942  1.00 13.47 LIG 0.12  C 
ATOM     18 O    ACE C   0      24.924   2.191  42.942  1.00 14.75 LIG-0.27  OA
ENDBRANCH 6 14
ENDBRANCH 4 6
ENDBRANCH 1 2
BRANCH 1 19
ATOM     19  C   HIS C   2      27.945   3.859  40.590  1.00 11.19 LIG 0.24  C 
ATOM     20  N   THR C   3      26.795   4.236  40.048  1.00 11.67 LIG-0.34  N 
ATOM     21 H    THR C   3      26.231   3.702  39.678  1.00 11.67 LIG 0.16  HD
ATOM     22 O    HIS C   2      28.730   4.654  41.098  1.00 11.10 LIG-0.27  OA
BRANCH 20 23
ATOM     23  CA  THR C   3      26.407   5.631  40.048  1.00 11.71 LIG 0.20  C 
BRANCH 23 24
ATOM     24  CB  THR C   3      26.532   6.270  41.457  1.00 13.34 LIG 0.15  C 
ATOM     25  CG2 THR C   3      25.930   7.653  41.502  1.00 14.42 LIG 0.04  C 
BRANCH 24 26
ATOM     26 OG1  THR C   3      25.852   5.440  42.394  1.00 13.01 LIG-0.39  OA
ATOM     27 HG1  THR C   3      25.616   4.728  42.017  1.00 13.01 LIG 0.21  HD
ENDBRANCH 24 26
ENDBRANCH 23 24
BRANCH 23 28
ATOM     28  C   THR C   3      27.218   6.414  39.004  1.00 11.33 LIG 0.24  C 
ATOM     29  N   ALA C   4      28.527   6.176  38.965  1.00 10.31 LIG-0.35  N 
ATOM     30 H    ALA C   4      28.956   5.713  39.549  1.00 10.31 LIG 0.16  HD
ATOM     31 O    THR C   3      26.666   7.221  38.245  1.00 11.88 LIG-0.27  OA
BRANCH 29 32
ATOM     32  CA  ALA C   4      29.347   6.711  37.884  1.00 10.35 LIG 0.18  C 
ATOM     33  CB  ALA C   4      30.832   6.699  38.273  1.00 10.31 LIG 0.04  C 
BRANCH 32 34
ATOM     34  C   ALA C   4      29.106   5.934  36.564  1.00 10.99 LIG 0.28  C 
ATOM     35 O    ALA C   4      29.578   6.336  35.506  0.79 11.43 LIG-0.27  OA
ATOM     36  N   NH2 C   5      28.380   4.824  36.640  0.91 10.97 LIG-0.11  N 
ENDBRANCH 32 34
ENDBRANCH 29 32
ENDBRANCH 23 28
ENDBRANCH 20 23
ENDBRANCH 1 19
BRANCH 1 37
ATOM     37  CB  HIS C   2      28.933   2.045  39.306  1.00 14.08 LIG 0.10  C 
BRANCH 37 38
ATOM     38  CG  HIS C   2      29.046   0.588  39.037  1.00 15.42 LIG 0.06  A 
ATOM     39  CD2 HIS C   2      30.090  -0.252  39.200  1.00 15.59 LIG 0.14  A 
ATOM     40 NE2  HIS C   2      29.674  -1.500  38.802  1.00 17.02 LIG-0.25  NA
ATOM     41  CE1 HIS C   2      28.415  -1.427  38.412  1.00 16.99 LIG 0.23  A 
ATOM     42 ND1  HIS C   2      28.011  -0.175  38.541  0.48 15.92 LIG-0.24  NA
ENDBRANCH 37 38
ENDBRANCH 1 37
TORSDOF 14
ENDMDL
MODEL 52
USER: ADFR SOLUTION from run 193
USER: SCORE 11.762227 LL:  -2.873 LR: -10.353 RR:   0.000 FEB:  -6.177
USER: RMSD 8.545199
USER: SEED 192
USER: STATUS no improvement in best in 42 clusters for 5 generations
USER: GENES 16
USER: genes 0 Translation |==|  0.62597 0.46383 0.36459
USER: genes 1 Rotation |==|  0.42274 0.14601 0.18437 0.63820
USER: genes 2 Torsion [C]-CA--N-[C] |==|  0.84775
USER: genes 3 Torsion [N]-C--CA-[N] |==|  0.92833
USER: genes 4 Torsion [C]-CA--CB-[CG] |==|  0.04957
USER: genes 5 Torsion [CA]-CB--CG-[CD2] |==|  0.24693
USER: genes 6 Torsion [C]-CA--N-[C] |==|  0.65986
USER: genes 7 Torsion [N]-CA--C-[N] |==|  0.37490
USER: genes 8 Torsion [C]-N--CA-[CB] |==|  0.19444
USER: genes 9 Torsion [N]-CA--CB-[CG2] |==|  0.67748
USER: genes 10 Torsion [CA]-CB--OG1-[HG1] |==|  0.50574
USER: genes 11 Torsion [N]-CA--C-[N] |==|  0.52630
USER: genes 12 Torsion [C]-N--CA-[C] |==|  0.58394
USER: genes 13 Torsion [N]-CA--C-[N] |==|  0.45875
USER: genes 14 Torsion [N]-CA--CB-[CG] |==|  0.74566
USER: genes 15 Torsion [CA]-CB--CG-[ND1] |==|  0.65244
ROOT
ATOM      1  CA  HIS C   2      27.233   1.990  40.185  1.00 11.69 LIG 0.18  C 
ENDROOT
BRANCH 1 2
ATOM      2  N   HIS C   2      27.385   0.557  39.937  1.00 10.87 LIG-0.35  N 
ATOM      3 H    HIS C   2      27.495   0.077  40.642  1.00 10.87 LIG 0.16  HD
ATOM      4  C   PHE C   1      27.350   0.075  38.700  1.00 11.47 LIG 0.24  C 
ATOM      5 O    PHE C   1      27.062   0.773  37.711  1.00 12.97 LIG-0.27  OA
BRANCH 4 6
ATOM      6  CA  PHE C   1      27.642  -1.421  38.559  1.00 11.05 LIG 0.18  C 
BRANCH 6 7
ATOM      7  CB  PHE C   1      26.332  -2.213  38.500  1.00 10.09 LIG 0.07  C 
BRANCH 7 8
ATOM      8  CG  PHE C   1      25.138  -1.371  38.167  1.00  8.73 LIG-0.06  A 
ATOM      9  CD2 PHE C   1      24.767  -1.162  36.859  1.00  8.91 LIG 0.01  A 
ATOM     10  CE2 PHE C   1      23.673  -0.376  36.564  1.00  8.44 LIG 0.00  A 
ATOM     11  CZ  PHE C   1      22.953   0.218  37.582  1.00  8.32 LIG 0.00  A 
ATOM     12  CE1 PHE C   1      23.313   0.004  38.895  1.00  8.07 LIG 0.00  A 
ATOM     13  CD1 PHE C   1      24.408  -0.773  39.179  1.00  8.33 LIG 0.01  A 
ENDBRANCH 7 8
ENDBRANCH 6 7
BRANCH 6 14
ATOM     14  N   PHE C   1      28.460  -1.895  39.653  1.00 11.54 LIG-0.35  N 
ATOM     15 H    PHE C   1      28.108  -1.756  40.424  1.00 11.54 LIG 0.16  HD
ATOM     16  C   ACE C   0      29.635  -2.486  39.499  1.00 13.21 LIG 0.21  C 
ATOM     17  CH3 ACE C   0      30.470  -2.753  40.717  1.00 13.47 LIG 0.12  C 
ATOM     18 O    ACE C   0      30.061  -2.583  38.349  1.00 14.75 LIG-0.27  OA
ENDBRANCH 6 14
ENDBRANCH 4 6
ENDBRANCH 1 2
BRANCH 1 19
ATOM     19  C   HIS C   2      28.266   2.718  39.368  1.00 11.19 LIG 0.24  C 
ATOM     20  N   THR C   3      27.846   3.789  38.708  1.00 11.67 LIG-0.34  N 
ATOM     21 H    THR C   3      27.030   4.061  38.687  1.00 11.67 LIG 0.16  HD
ATOM     22 O    HIS C   2      29.439   2.354  39.364  1.00 11.10 LIG-0.27  OA
BRANCH 20 23
ATOM     23  CA  THR C   3      28.781   4.597  37.953  1.00 11.71 LIG 0.20  C 
BRANCH 23 24
ATOM     24  CB  THR C   3      29.298   3.860  36.688  1.00 13.34 LIG 0.15  C 
ATOM     25  CG2 THR C   3      30.784   3.606  36.756  1.00 14.42 LIG 0.04  C 
BRANCH 24 26
ATOM     26 OG1  THR C   3      28.620   2.612  36.581  1.00 13.01 LIG-0.39  OA
ATOM     27 HG1  THR C   3      28.913   2.191  35.916  1.00 13.01 LIG 0.21  HD
ENDBRANCH 24 26
ENDBRANCH 23 24
BRANCH 23 28
ATOM     28  C   THR C   3      28.151   5.952  37.594  1.00 11.33 LIG 0.24  C 
ATOM     29  N   ALA C   4      28.825   6.715  36.736  1.00 10.31 LIG-0.35  N 
ATOM     30 H    ALA C   4      29.626   6.554  36.467  1.00 10.31 LIG 0.16  HD
ATOM     31 O    THR C   3      27.070   6.300  38.087  1.00 11.88 LIG-0.27  OA
BRANCH 29 32
ATOM     32  CA  ALA C   4      28.219   7.918  36.179  1.00 10.35 LIG 0.18  C 
ATOM     33  CB  ALA C   4      28.435   9.116  37.116  1.00 10.31 LIG 0.04  C 
BRANCH 32 34
ATOM     34  C   ALA C   4      28.765   8.212  34.758  1.00 10.99 LIG 0.28  C 
ATOM     35 O    ALA C   4      29.772   7.648  34.345  0.79 11.43 LIG-0.27  OA
ATOM     36  N   NH2 C   5      28.090   9.088  34.021  0.91 10.97 LIG-0.11  N 
ENDBRANCH 32 34
ENDBRANCH 29 32
ENDBRANCH 23 28
ENDBRANCH 20 23
ENDBRANCH 1 19
BRANCH 1 37
ATOM     37  CB  HIS C   2      27.486   2.348  41.642  1.00 14.08 LIG 0.10  C 
BRANCH 37 38
ATOM     38  CG  HIS C   2      26.263   2.340  42.488  1.00 15.42 LIG 0.06  A 
ATOM     39  CD2 HIS C   2      25.350   1.368  42.693  1.00 15.59 LIG 0.14  A 
ATOM     40 NE2  HIS C   2      24.412   1.868  43.564  1.00 17.02 LIG-0.25  NA
ATOM     41  CE1 HIS C   2      24.745   3.105  43.886  1.00 16.99 LIG 0.23  A 
ATOM     42 ND1  HIS C   2      25.858   3.416  43.247  0.48 15.92 LIG-0.24  NA
ENDBRANCH 37 38
ENDBRANCH 1 37
TORSDOF 14
ENDMDL
MODEL 53
USER: ADFR SOLUTION from run 52
USER: SCORE 11.294876 LL:  -3.234 LR: -10.353 RR:   0.000 FEB:  -6.177
USER: RMSD 9.082327
USER: SEED 51
USER: STATUS no improvement in best in 17 clusters for 5 generations
USER: GENES 16
USER: genes 0 Translation |==|  0.52490 0.44347 0.48385
USER: genes 1 Rotation |==|  0.91934 0.76194 0.57365 0.51069
USER: genes 2 Torsion [C]-CA--N-[C] |==|  0.65419
USER: genes 3 Torsion [N]-C--CA-[N] |==|  0.07604
USER: genes 4 Torsion [C]-CA--CB-[CG] |==|  0.26796
USER: genes 5 Torsion [CA]-CB--CG-[CD2] |==|  0.35630
USER: genes 6 Torsion [C]-CA--N-[C] |==|  0.69070
USER: genes 7 Torsion [N]-CA--C-[N] |==|  0.38313
USER: genes 8 Torsion [C]-N--CA-[CB] |==|  0.43164
USER: genes 9 Torsion [N]-CA--CB-[CG2] |==|  0.50727
USER: genes 10 Torsion [CA]-CB--OG1-[HG1] |==|  0.35324
USER: genes 11 Torsion [N]-CA--C-[N] |==|  0.14376
USER: genes 12 Torsion [C]-N--CA-[C] |==|  0.18820
USER: genes 13 Torsion [N]-CA--C-[N] |==|  0.08185
USER: genes 14 Torsion [N]-CA--CB-[CG] |==|  0.18460
USER: genes 15 Torsion [CA]-CB--CG-[ND1] |==|  0.33515
ROOT
ATOM      1  CA  HIS C   2      25.263   1.654  42.600  1.00 11.69 LIG 0.18  C 
ENDROOT
BRANCH 1 2
ATOM      2  N   HIS C   2      24.553   1.567  43.876  1.00 10.87 LIG-0.35  N 
ATOM      3 H    HIS C   2      24.677   0.835  44.309  1.00 10.87 LIG 0.16  HD
ATOM      4  C   PHE C   1      23.786   2.566  44.295  1.00 11.47 LIG 0.24  C 
ATOM      5 O    PHE C   1      23.726   3.664  43.712  1.00 12.97 LIG-0.27  OA
BRANCH 4 6
ATOM      6  CA  PHE C   1      23.000   2.308  45.583  1.00 11.05 LIG 0.18  C 
BRANCH 6 7
ATOM      7  CB  PHE C   1      22.793   3.618  46.349  1.00 10.09 LIG 0.07  C 
BRANCH 7 8
ATOM      8  CG  PHE C   1      21.465   4.261  46.087  1.00  8.73 LIG-0.06  A 
ATOM      9  CD2 PHE C   1      20.647   4.636  47.127  1.00  8.91 LIG 0.01  A 
ATOM     10  CE2 PHE C   1      19.422   5.216  46.874  1.00  8.44 LIG 0.00  A 
ATOM     11  CZ  PHE C   1      19.005   5.410  45.571  1.00  8.32 LIG 0.00  A 
ATOM     12  CE1 PHE C   1      19.823   5.046  44.524  1.00  8.07 LIG 0.00  A 
ATOM     13  CD1 PHE C   1      21.038   4.462  44.786  1.00  8.33 LIG 0.01  A 
ENDBRANCH 7 8
ENDBRANCH 6 7
BRANCH 6 14
ATOM     14  N   PHE C   1      23.679   1.344  46.421  1.00 11.54 LIG-0.35  N 
ATOM     15 H    PHE C   1      24.413   1.643  46.754  1.00 11.54 LIG 0.16  HD
ATOM     16  C   ACE C   0      23.230   0.123  46.662  1.00 13.21 LIG 0.21  C 
ATOM     17  CH3 ACE C   0      24.124  -0.842  47.386  1.00 13.47 LIG 0.12  C 
ATOM     18 O    ACE C   0      22.195  -0.212  46.088  1.00 14.75 LIG-0.27  OA
ENDBRANCH 6 14
ENDBRANCH 4 6
ENDBRANCH 1 2
BRANCH 1 19
ATOM     19  C   HIS C   2      24.875   0.464  41.766  1.00 11.19 LIG 0.24  C 
ATOM     20  N   THR C   3      24.641   0.696  40.482  1.00 11.67 LIG-0.34  N 
ATOM     21 H    THR C   3      24.658   1.474  40.115  1.00 11.67 LIG 0.16  HD
ATOM     22 O    HIS C   2      24.829  -0.662  42.255  1.00 11.10 LIG-0.27  OA
BRANCH 20 23
ATOM     23  CA  THR C   3      24.332  -0.397  39.584  1.00 11.71 LIG 0.20  C 
BRANCH 23 24
ATOM     24  CB  THR C   3      23.521   0.075  38.348  1.00 13.34 LIG 0.15  C 
ATOM     25  CG2 THR C   3      23.147  -1.077  37.448  1.00 14.42 LIG 0.04  C 
BRANCH 24 26
ATOM     26 OG1  THR C   3      22.331   0.712  38.802  1.00 13.01 LIG-0.39  OA
ATOM     27 HG1  THR C   3      22.269   1.473  38.452  1.00 13.01 LIG 0.21  HD
ENDBRANCH 24 26
ENDBRANCH 23 24
BRANCH 23 28
ATOM     28  C   THR C   3      25.617  -1.128  39.166  1.00 11.33 LIG 0.24  C 
ATOM     29  N   ALA C   4      26.425  -1.524  40.148  1.00 10.31 LIG-0.35  N 
ATOM     30 H    ALA C   4      26.333  -1.301  40.973  1.00 10.31 LIG 0.16  HD
ATOM     31 O    THR C   3      25.874  -1.330  37.972  1.00 11.88 LIG-0.27  OA
BRANCH 29 32
ATOM     32  CA  ALA C   4      27.558  -2.398  39.870  1.00 10.35 LIG 0.18  C 
ATOM     33  CB  ALA C   4      27.091  -3.687  39.177  1.00 10.31 LIG 0.04  C 
BRANCH 32 34
ATOM     34  C   ALA C   4      28.634  -1.667  39.027  1.00 10.99 LIG 0.28  C 
ATOM     35 O    ALA C   4      29.352  -2.288  38.251  0.79 11.43 LIG-0.27  OA
ATOM     36  N   NH2 C   5      28.731  -0.350  39.181  0.91 10.97 LIG-0.11  N 
ENDBRANCH 32 34
ENDBRANCH 29 32
ENDBRANCH 23 28
ENDBRANCH 20 23
ENDBRANCH 1 19
BRANCH 1 37
ATOM     37  CB  HIS C   2      26.773   1.598  42.780  1.00 14.08 LIG 0.10  C 
BRANCH 37 38
ATOM     38  CG  HIS C   2      27.273   0.292  43.284  1.00 15.42 LIG 0.06  A 
ATOM     39  CD2 HIS C   2      26.986  -0.372  44.423  1.00 15.59 LIG 0.14  A 
ATOM     40 NE2  HIS C   2      27.717  -1.536  44.410  1.00 17.02 LIG-0.25  NA
ATOM     41  CE1 HIS C   2      28.424  -1.585  43.297  1.00 16.99 LIG 0.23  A 
ATOM     42 ND1  HIS C   2      28.177  -0.491  42.599  0.48 15.92 LIG-0.24  NA
ENDBRANCH 37 38
ENDBRANCH 1 37
TORSDOF 14
ENDMDL
MODEL 54
USER: ADFR SOLUTION from run 55
USER: SCORE 11.937874 LL:  -3.167 LR: -10.340 RR:   0.000 FEB:  -6.164
USER: RMSD 8.063595
USER: SEED 54
USER: STATUS no improvement in best in 18 clusters for 5 generations
USER: GENES 16
USER: genes 0 Translation |==|  0.70553 0.45941 0.26890
USER: genes 1 Rotation |==|  0.24193 0.64619 0.50628 0.90248
USER: genes 2 Torsion [C]-CA--N-[C] |==|  0.76516
USER: genes 3 Torsion [N]-C--CA-[N] |==|  0.41013
USER: genes 4 Torsion [C]-CA--CB-[CG] |==|  0.24254
USER: genes 5 Torsion [CA]-CB--CG-[CD2] |==|  0.07743
USER: genes 6 Torsion [C]-CA--N-[C] |==|  0.81512
USER: genes 7 Torsion [N]-CA--C-[N] |==|  0.55960
USER: genes 8 Torsion [C]-N--CA-[CB] |==|  0.22474
USER: genes 9 Torsion [N]-CA--CB-[CG2] |==|  0.38307
USER: genes 10 Torsion [CA]-CB--OG1-[HG1] |==|  0.01016
USER: genes 11 Torsion [N]-CA--C-[N] |==|  0.93333
USER: genes 12 Torsion [C]-N--CA-[C] |==|  0.56067
USER: genes 13 Torsion [N]-CA--C-[N] |==|  0.42531
USER: genes 14 Torsion [N]-CA--CB-[CG] |==|  0.67669
USER: genes 15 Torsion [CA]-CB--CG-[ND1] |==|  0.24974
ROOT
ATOM      1  CA  HIS C   2      28.785   1.917  38.247  1.00 11.69 LIG 0.18  C 
ENDROOT
BRANCH 1 2
ATOM      2  N   HIS C   2      28.177   0.591  38.143  1.00 10.87 LIG-0.35  N 
ATOM      3 H    HIS C   2      27.720   0.458  37.426  1.00 10.87 LIG 0.16  HD
ATOM      4  C   PHE C   1      28.343  -0.309  39.105  1.00 11.47 LIG 0.24  C 
ATOM      5 O    PHE C   1      29.112  -0.136  40.067  1.00 12.97 LIG-0.27  OA
BRANCH 4 6
ATOM      6  CA  PHE C   1      27.559  -1.613  38.939  1.00 11.05 LIG 0.18  C 
BRANCH 6 7
ATOM      7  CB  PHE C   1      26.185  -1.494  39.607  1.00 10.09 LIG 0.07  C 
BRANCH 7 8
ATOM      8  CG  PHE C   1      25.132  -0.919  38.710  1.00  8.73 LIG-0.06  A 
ATOM      9  CD2 PHE C   1      25.211  -1.071  37.345  1.00  8.91 LIG 0.01  A 
ATOM     10  CE2 PHE C   1      24.241  -0.528  36.528  1.00  8.44 LIG 0.00  A 
ATOM     11  CZ  PHE C   1      23.193   0.185  37.077  1.00  8.32 LIG 0.00  A 
ATOM     12  CE1 PHE C   1      23.102   0.332  38.444  1.00  8.07 LIG 0.00  A 
ATOM     13  CD1 PHE C   1      24.076  -0.205  39.249  1.00  8.33 LIG 0.01  A 
ENDBRANCH 7 8
ENDBRANCH 6 7
BRANCH 6 14
ATOM     14  N   PHE C   1      28.287  -2.731  39.496  1.00 11.54 LIG-0.35  N 
ATOM     15 H    PHE C   1      27.904  -3.076  40.185  1.00 11.54 LIG 0.16  HD
ATOM     16  C   ACE C   0      29.428  -3.191  39.009  1.00 13.21 LIG 0.21  C 
ATOM     17  CH3 ACE C   0      30.179  -4.228  39.794  1.00 13.47 LIG 0.12  C 
ATOM     18 O    ACE C   0      29.908  -2.585  38.052  1.00 14.75 LIG-0.27  OA
ENDBRANCH 6 14
ENDBRANCH 4 6
ENDBRANCH 1 2
BRANCH 1 19
ATOM     19  C   HIS C   2      27.865   2.791  39.055  1.00 11.19 LIG 0.24  C 
ATOM     20  N   THR C   3      28.007   4.100  38.896  1.00 11.67 LIG-0.34  N 
ATOM     21 H    THR C   3      28.606   4.470  38.402  1.00 11.67 LIG 0.16  HD
ATOM     22 O    HIS C   2      27.003   2.302  39.780  1.00 11.10 LIG-0.27  OA
BRANCH 20 23
ATOM     23  CA  THR C   3      27.120   5.021  39.575  1.00 11.71 LIG 0.20  C 
BRANCH 23 24
ATOM     24  CB  THR C   3      27.542   5.255  41.051  1.00 13.34 LIG 0.15  C 
ATOM     25  CG2 THR C   3      27.434   6.709  41.441  1.00 14.42 LIG 0.04  C 
BRANCH 24 26
ATOM     26 OG1  THR C   3      26.690   4.486  41.894  1.00 13.01 LIG-0.39  OA
ATOM     27 HG1  THR C   3      26.169   4.027  41.422  1.00 13.01 LIG 0.21  HD
ENDBRANCH 24 26
ENDBRANCH 23 24
BRANCH 23 28
ATOM     28  C   THR C   3      27.027   6.346  38.802  1.00 11.33 LIG 0.24  C 
ATOM     29  N   ALA C   4      28.051   6.645  38.006  1.00 10.31 LIG-0.35  N 
ATOM     30 H    ALA C   4      28.795   6.213  37.986  1.00 10.31 LIG 0.16  HD
ATOM     31 O    THR C   3      26.042   7.086  38.924  1.00 11.88 LIG-0.27  OA
BRANCH 29 32
ATOM     32  CA  ALA C   4      27.969   7.769  37.081  1.00 10.35 LIG 0.18  C 
ATOM     33  CB  ALA C   4      28.176   9.097  37.825  1.00 10.31 LIG 0.04  C 
BRANCH 32 34
ATOM     34  C   ALA C   4      28.983   7.613  35.919  1.00 10.99 LIG 0.28  C 
ATOM     35 O    ALA C   4      30.012   6.964  36.069  0.79 11.43 LIG-0.27  OA
ATOM     36  N   NH2 C   5      28.679   8.204  34.768  0.91 10.97 LIG-0.11  N 
ENDBRANCH 32 34
ENDBRANCH 29 32
ENDBRANCH 23 28
ENDBRANCH 20 23
ENDBRANCH 1 19
BRANCH 1 37
ATOM     37  CB  HIS C   2      28.948   2.581  36.888  1.00 14.08 LIG 0.10  C 
BRANCH 37 38
ATOM     38  CG  HIS C   2      30.362   2.830  36.502  1.00 15.42 LIG 0.06  A 
ATOM     39  CD2 HIS C   2      31.151   3.902  36.722  1.00 15.59 LIG 0.14  A 
ATOM     40 NE2  HIS C   2      32.375   3.629  36.160  1.00 17.02 LIG-0.25  NA
ATOM     41  CE1 HIS C   2      32.337   2.426  35.618  1.00 16.99 LIG 0.23  A 
ATOM     42 ND1  HIS C   2      31.131   1.922  35.808  0.48 15.92 LIG-0.24  NA
ENDBRANCH 37 38
ENDBRANCH 1 37
TORSDOF 14
ENDMDL
MODEL 55
USER: ADFR SOLUTION from run 17
USER: SCORE 12.922921 LL:  -3.512 LR: -10.325 RR:   0.000 FEB:  -6.149
USER: RMSD 8.945599
USER: SEED 16
USER: STATUS no improvement in best in 11 clusters for 5 generations
USER: GENES 16
USER: genes 0 Translation |==|  0.36986 0.50083 0.70970
USER: genes 1 Rotation |==|  0.62778 0.89549 0.38094 0.75116
USER: genes 2 Torsion [C]-CA--N-[C] |==|  0.17384
USER: genes 3 Torsion [N]-C--CA-[N] |==|  0.40693
USER: genes 4 Torsion [C]-CA--CB-[CG] |==|  0.10084
USER: genes 5 Torsion [CA]-CB--CG-[CD2] |==|  0.70708
USER: genes 6 Torsion [C]-CA--N-[C] |==|  0.78684
USER: genes 7 Torsion [N]-CA--C-[N] |==|  0.20556
USER: genes 8 Torsion [C]-N--CA-[CB] |==|  0.17770
USER: genes 9 Torsion [N]-CA--CB-[CG2] |==|  0.13833
USER: genes 10 Torsion [CA]-CB--OG1-[HG1] |==|  0.93497
USER: genes 11 Torsion [N]-CA--C-[N] |==|  0.06599
USER: genes 12 Torsion [C]-N--CA-[C] |==|  0.81291
USER: genes 13 Torsion [N]-CA--C-[N] |==|  0.95331
USER: genes 14 Torsion [N]-CA--CB-[CG] |==|  0.58434
USER: genes 15 Torsion [CA]-CB--CG-[ND1] |==|  0.95409
ROOT
ATOM      1  CA  HIS C   2      22.239   2.601  47.173  1.00 11.69 LIG 0.18  C 
ENDROOT
BRANCH 1 2
ATOM      2  N   HIS C   2      21.095   3.233  47.830  1.00 10.87 LIG-0.35  N 
ATOM      3 H    HIS C   2      20.334   2.876  47.652  1.00 10.87 LIG 0.16  HD
ATOM      4  C   PHE C   1      21.266   4.278  48.631  1.00 11.47 LIG 0.24  C 
ATOM      5 O    PHE C   1      22.388   4.693  48.972  1.00 12.97 LIG-0.27  OA
BRANCH 4 6
ATOM      6  CA  PHE C   1      19.985   4.926  49.161  1.00 11.05 LIG 0.18  C 
BRANCH 6 7
ATOM      7  CB  PHE C   1      19.531   6.048  48.222  1.00 10.09 LIG 0.07  C 
BRANCH 7 8
ATOM      8  CG  PHE C   1      19.775   5.751  46.774  1.00  8.73 LIG-0.06  A 
ATOM      9  CD2 PHE C   1      20.797   6.371  46.091  1.00  8.91 LIG 0.01  A 
ATOM     10  CE2 PHE C   1      21.006   6.098  44.756  1.00  8.44 LIG 0.00  A 
ATOM     11  CZ  PHE C   1      20.180   5.211  44.093  1.00  8.32 LIG 0.00  A 
ATOM     12  CE1 PHE C   1      19.161   4.579  44.773  1.00  8.07 LIG 0.00  A 
ATOM     13  CD1 PHE C   1      18.956   4.863  46.101  1.00  8.33 LIG 0.01  A 
ENDBRANCH 7 8
ENDBRANCH 6 7
BRANCH 6 14
ATOM     14  N   PHE C   1      20.179   5.445  50.497  1.00 11.54 LIG-0.35  N 
ATOM     15 H    PHE C   1      20.273   6.299  50.518  1.00 11.54 LIG 0.16  HD
ATOM     16  C   ACE C   0      20.212   4.695  51.587  1.00 13.21 LIG 0.21  C 
ATOM     17  CH3 ACE C   0      20.615   5.332  52.886  1.00 13.47 LIG 0.12  C 
ATOM     18 O    ACE C   0      20.119   3.479  51.428  1.00 14.75 LIG-0.27  OA
ENDBRANCH 6 14
ENDBRANCH 4 6
ENDBRANCH 1 2
BRANCH 1 19
ATOM     19  C   HIS C   2      23.145   2.050  48.240  1.00 11.19 LIG 0.24  C 
ATOM     20  N   THR C   3      22.729   0.953  48.857  1.00 11.67 LIG-0.34  N 
ATOM     21 H    THR C   3      21.971   0.571  48.716  1.00 11.67 LIG 0.16  HD
ATOM     22 O    HIS C   2      24.230   2.573  48.479  1.00 11.10 LIG-0.27  OA
BRANCH 20 23
ATOM     23  CA  THR C   3      23.565   0.307  49.848  1.00 11.71 LIG 0.20  C 
BRANCH 23 24
ATOM     24  CB  THR C   3      23.806   1.213  51.086  1.00 13.34 LIG 0.15  C 
ATOM     25  CG2 THR C   3      22.517   1.780  51.626  1.00 14.42 LIG 0.04  C 
BRANCH 24 26
ATOM     26 OG1  THR C   3      24.430   0.435  52.103  1.00 13.01 LIG-0.39  OA
ATOM     27 HG1  THR C   3      24.258  -0.378  51.979  1.00 13.01 LIG 0.21  HD
ENDBRANCH 24 26
ENDBRANCH 23 24
BRANCH 23 28
ATOM     28  C   THR C   3      22.966  -1.049  50.254  1.00 11.33 LIG 0.24  C 
ATOM     29  N   ALA C   4      22.154  -1.629  49.373  1.00 10.31 LIG-0.35  N 
ATOM     30 H    ALA C   4      21.858  -1.250  48.660  1.00 10.31 LIG 0.16  HD
ATOM     31 O    THR C   3      23.236  -1.561  51.348  1.00 11.88 LIG-0.27  OA
BRANCH 29 32
ATOM     32  CA  ALA C   4      21.700  -3.000  49.574  1.00 10.35 LIG 0.18  C 
ATOM     33  CB  ALA C   4      20.567  -3.344  48.597  1.00 10.31 LIG 0.04  C 
BRANCH 32 34
ATOM     34  C   ALA C   4      22.875  -4.003  49.446  1.00 10.99 LIG 0.28  C 
ATOM     35 O    ALA C   4      22.771  -5.149  49.868  0.79 11.43 LIG-0.27  OA
ATOM     36  N   NH2 C   5      23.983  -3.563  48.856  0.91 10.97 LIG-0.11  N 
ENDBRANCH 32 34
ENDBRANCH 29 32
ENDBRANCH 23 28
ENDBRANCH 20 23
ENDBRANCH 1 19
BRANCH 1 37
ATOM     37  CB  HIS C   2      23.058   3.597  46.366  1.00 14.08 LIG 0.10  C 
BRANCH 37 38
ATOM     38  CG  HIS C   2      23.729   3.007  45.178  1.00 15.42 LIG 0.06  A 
ATOM     39  CD2 HIS C   2      24.271   3.602  44.095  1.00 15.59 LIG 0.14  A 
ATOM     40 NE2  HIS C   2      24.764   2.605  43.287  1.00 17.02 LIG-0.25  NA
ATOM     41  CE1 HIS C   2      24.533   1.439  43.859  1.00 16.99 LIG 0.23  A 
ATOM     42 ND1  HIS C   2      23.907   1.652  45.002  0.48 15.92 LIG-0.24  NA
ENDBRANCH 37 38
ENDBRANCH 1 37
TORSDOF 14
ENDMDL
MODEL 56
USER: ADFR SOLUTION from run 111
USER: SCORE 11.861556 LL:  -3.394 LR: -10.296 RR:   0.000 FEB:  -6.119
USER: RMSD 8.965046
USER: SEED 110
USER: STATUS no improvement in best in 7 clusters for 5 generations
USER: GENES 16
USER: genes 0 Translation |==|  0.39730 0.34935 0.70124
USER: genes 1 Rotation |==|  0.29475 0.81066 0.17336 0.56834
USER: genes 2 Torsion [C]-CA--N-[C] |==|  0.77003
USER: genes 3 Torsion [N]-C--CA-[N] |==|  0.45399
USER: genes 4 Torsion [C]-CA--CB-[CG] |==|  0.26987
USER: genes 5 Torsion [CA]-CB--CG-[CD2] |==|  0.68548
USER: genes 6 Torsion [C]-CA--N-[C] |==|  0.54190
USER: genes 7 Torsion [N]-CA--C-[N] |==|  0.82778
USER: genes 8 Torsion [C]-N--CA-[CB] |==|  0.26600
USER: genes 9 Torsion [N]-CA--CB-[CG2] |==|  0.89054
USER: genes 10 Torsion [CA]-CB--OG1-[HG1] |==|  0.10883
USER: genes 11 Torsion [N]-CA--C-[N] |==|  0.35035
USER: genes 12 Torsion [C]-N--CA-[C] |==|  0.82274
USER: genes 13 Torsion [N]-CA--C-[N] |==|  0.89477
USER: genes 14 Torsion [N]-CA--CB-[CG] |==|  0.72204
USER: genes 15 Torsion [CA]-CB--CG-[ND1] |==|  0.44489
ROOT
ATOM      1  CA  HIS C   2      22.774   0.101  47.002  1.00 11.69 LIG 0.18  C 
ENDROOT
BRANCH 1 2
ATOM      2  N   HIS C   2      21.933   1.215  47.439  1.00 10.87 LIG-0.35  N 
ATOM      3 H    HIS C   2      21.314   1.440  46.886  1.00 10.87 LIG 0.16  HD
ATOM      4  C   PHE C   1      22.143   1.805  48.610  1.00 11.47 LIG 0.24  C 
ATOM      5 O    PHE C   1      22.960   1.378  49.445  1.00 12.97 LIG-0.27  OA
BRANCH 4 6
ATOM      6  CA  PHE C   1      21.278   3.034  48.901  1.00 11.05 LIG 0.18  C 
BRANCH 6 7
ATOM      7  CB  PHE C   1      21.761   4.230  48.074  1.00 10.09 LIG 0.07  C 
BRANCH 7 8
ATOM      8  CG  PHE C   1      20.981   4.438  46.812  1.00  8.73 LIG-0.06  A 
ATOM      9  CD2 PHE C   1      21.571   4.257  45.583  1.00  8.91 LIG 0.01  A 
ATOM     10  CE2 PHE C   1      20.847   4.462  44.427  1.00  8.44 LIG 0.00  A 
ATOM     11  CZ  PHE C   1      19.527   4.864  44.500  1.00  8.32 LIG 0.00  A 
ATOM     12  CE1 PHE C   1      18.927   5.037  45.728  1.00  8.07 LIG 0.00  A 
ATOM     13  CD1 PHE C   1      19.658   4.838  46.873  1.00  8.33 LIG 0.01  A 
ENDBRANCH 7 8
ENDBRANCH 6 7
BRANCH 6 14
ATOM     14  N   PHE C   1      21.299   3.362  50.309  1.00 11.54 LIG-0.35  N 
ATOM     15 H    PHE C   1      21.934   2.971  50.738  1.00 11.54 LIG 0.16  HD
ATOM     16  C   ACE C   0      20.438   4.179  50.895  1.00 13.21 LIG 0.21  C 
ATOM     17  CH3 ACE C   0      20.449   4.282  52.392  1.00 13.47 LIG 0.12  C 
ATOM     18 O    ACE C   0      19.541   4.639  50.189  1.00 14.75 LIG-0.27  OA
ENDBRANCH 6 14
ENDBRANCH 4 6
ENDBRANCH 1 2
BRANCH 1 19
ATOM     19  C   HIS C   2      24.026   0.672  46.393  1.00 11.19 LIG 0.24  C 
ATOM     20  N   THR C   3      23.864   1.429  45.316  1.00 11.67 LIG-0.34  N 
ATOM     21 H    THR C   3      23.109   1.574  44.931  1.00 11.67 LIG 0.16  HD
ATOM     22 O    HIS C   2      25.124   0.477  46.907  1.00 11.10 LIG-0.27  OA
BRANCH 20 23
ATOM     23  CA  THR C   3      25.001   2.081  44.701  1.00 11.71 LIG 0.20  C 
BRANCH 23 24
ATOM     24  CB  THR C   3      25.577   1.256  43.519  1.00 13.34 LIG 0.15  C 
ATOM     25  CG2 THR C   3      25.576  -0.223  43.814  1.00 14.42 LIG 0.04  C 
BRANCH 24 26
ATOM     26 OG1  THR C   3      24.777   1.497  42.365  1.00 13.01 LIG-0.39  OA
ATOM     27 HG1  THR C   3      24.559   2.308  42.340  1.00 13.01 LIG 0.21  HD
ENDBRANCH 24 26
ENDBRANCH 23 24
BRANCH 23 28
ATOM     28  C   THR C   3      24.630   3.506  44.263  1.00 11.33 LIG 0.24  C 
ATOM     29  N   ALA C   4      25.410   4.489  44.708  1.00 10.31 LIG-0.35  N 
ATOM     30 H    ALA C   4      26.022   4.393  45.305  1.00 10.31 LIG 0.16  HD
ATOM     31 O    THR C   3      23.652   3.712  43.533  1.00 11.88 LIG-0.27  OA
BRANCH 29 32
ATOM     32  CA  ALA C   4      25.265   5.844  44.189  1.00 10.35 LIG 0.18  C 
ATOM     33  CB  ALA C   4      26.132   6.826  44.991  1.00 10.31 LIG 0.04  C 
BRANCH 32 34
ATOM     34  C   ALA C   4      25.603   5.902  42.678  1.00 10.99 LIG 0.28  C 
ATOM     35 O    ALA C   4      24.967   6.626  41.920  0.79 11.43 LIG-0.27  OA
ATOM     36  N   NH2 C   5      26.609   5.143  42.254  0.91 10.97 LIG-0.11  N 
ENDBRANCH 32 34
ENDBRANCH 29 32
ENDBRANCH 23 28
ENDBRANCH 20 23
ENDBRANCH 1 19
BRANCH 1 37
ATOM     37  CB  HIS C   2      22.100  -0.738  45.927  1.00 14.08 LIG 0.10  C 
BRANCH 37 38
ATOM     38  CG  HIS C   2      21.483  -1.991  46.436  1.00 15.42 LIG 0.06  A 
ATOM     39  CD2 HIS C   2      21.711  -2.676  47.576  1.00 15.59 LIG 0.14  A 
ATOM     40 NE2  HIS C   2      20.877  -3.769  47.567  1.00 17.02 LIG-0.25  NA
ATOM     41  CE1 HIS C   2      20.160  -3.750  46.460  1.00 16.99 LIG 0.23  A 
ATOM     42 ND1  HIS C   2      20.508  -2.688  45.756  0.48 15.92 LIG-0.24  NA
ENDBRANCH 37 38
ENDBRANCH 1 37
TORSDOF 14
ENDMDL
MODEL 57
USER: ADFR SOLUTION from run 170
USER: SCORE 11.692450 LL:  -3.450 LR: -10.289 RR:   0.000 FEB:  -6.112
USER: RMSD 6.617827
USER: SEED 169
USER: STATUS no improvement in best in 14 clusters for 5 generations
USER: GENES 16
USER: genes 0 Translation |==|  0.33806 0.49339 0.74897
USER: genes 1 Rotation |==|  0.47115 0.29421 0.25508 0.88319
USER: genes 2 Torsion [C]-CA--N-[C] |==|  0.50010
USER: genes 3 Torsion [N]-C--CA-[N] |==|  0.21330
USER: genes 4 Torsion [C]-CA--CB-[CG] |==|  0.21442
USER: genes 5 Torsion [CA]-CB--CG-[CD2] |==|  0.19220
USER: genes 6 Torsion [C]-CA--N-[C] |==|  0.78668
USER: genes 7 Torsion [N]-CA--C-[N] |==|  0.01526
USER: genes 8 Torsion [C]-N--CA-[CB] |==|  0.87480
USER: genes 9 Torsion [N]-CA--CB-[CG2] |==|  0.46098
USER: genes 10 Torsion [CA]-CB--OG1-[HG1] |==|  0.18624
USER: genes 11 Torsion [N]-CA--C-[N] |==|  0.35405
USER: genes 12 Torsion [C]-N--CA-[C] |==|  0.67510
USER: genes 13 Torsion [N]-CA--C-[N] |==|  0.41057
USER: genes 14 Torsion [N]-CA--CB-[CG] |==|  0.19213
USER: genes 15 Torsion [CA]-CB--CG-[ND1] |==|  0.82380
ROOT
ATOM      1  CA  HIS C   2      21.619   2.478  47.969  1.00 11.69 LIG 0.18  C 
ENDROOT
BRANCH 1 2
ATOM      2  N   HIS C   2      22.152   1.662  46.877  1.00 10.87 LIG-0.35  N 
ATOM      3 H    HIS C   2      22.083   2.014  46.096  1.00 10.87 LIG 0.16  HD
ATOM      4  C   PHE C   1      22.692   0.474  47.121  1.00 11.47 LIG 0.24  C 
ATOM      5 O    PHE C   1      22.896   0.047  48.271  1.00 12.97 LIG-0.27  OA
BRANCH 4 6
ATOM      6  CA  PHE C   1      23.102  -0.335  45.888  1.00 11.05 LIG 0.18  C 
BRANCH 6 7
ATOM      7  CB  PHE C   1      23.256  -1.815  46.253  1.00 10.09 LIG 0.07  C 
BRANCH 7 8
ATOM      8  CG  PHE C   1      21.950  -2.536  46.390  1.00  8.73 LIG-0.06  A 
ATOM      9  CD2 PHE C   1      21.163  -2.781  45.289  1.00  8.91 LIG 0.01  A 
ATOM     10  CE2 PHE C   1      19.957  -3.436  45.428  1.00  8.44 LIG 0.00  A 
ATOM     11  CZ  PHE C   1      19.527  -3.836  46.679  1.00  8.32 LIG 0.00  A 
ATOM     12  CE1 PHE C   1      20.315  -3.602  47.784  1.00  8.07 LIG 0.00  A 
ATOM     13  CD1 PHE C   1      21.510  -2.943  47.637  1.00  8.33 LIG 0.01  A 
ENDBRANCH 7 8
ENDBRANCH 6 7
BRANCH 6 14
ATOM     14  N   PHE C   1      24.335   0.167  45.322  1.00 11.54 LIG-0.35  N 
ATOM     15 H    PHE C   1      25.017  -0.321  45.509  1.00 11.54 LIG 0.16  HD
ATOM     16  C   ACE C   0      24.421   1.265  44.588  1.00 13.21 LIG 0.21  C 
ATOM     17  CH3 ACE C   0      25.783   1.783  44.227  1.00 13.47 LIG 0.12  C 
ATOM     18 O    ACE C   0      23.386   1.911  44.431  1.00 14.75 LIG-0.27  OA
ENDBRANCH 6 14
ENDBRANCH 4 6
ENDBRANCH 1 2
BRANCH 1 19
ATOM     19  C   HIS C   2      21.080   3.753  47.380  1.00 11.19 LIG 0.24  C 
ATOM     20  N   THR C   3      21.082   3.837  46.056  1.00 11.67 LIG-0.34  N 
ATOM     21 H    THR C   3      21.403   3.237  45.530  1.00 11.67 LIG 0.16  HD
ATOM     22 O    HIS C   2      20.622   4.637  48.099  1.00 11.10 LIG-0.27  OA
BRANCH 20 23
ATOM     23  CA  THR C   3      20.517   4.994  45.395  1.00 11.71 LIG 0.20  C 
BRANCH 23 24
ATOM     24  CB  THR C   3      19.148   5.402  46.001  1.00 13.34 LIG 0.15  C 
ATOM     25  CG2 THR C   3      18.725   6.780  45.556  1.00 14.42 LIG 0.04  C 
BRANCH 24 26
ATOM     26 OG1  THR C   3      18.166   4.459  45.580  1.00 13.01 LIG-0.39  OA
ATOM     27 HG1  THR C   3      18.328   3.712  45.927  1.00 13.01 LIG 0.21  HD
ENDBRANCH 24 26
ENDBRANCH 23 24
BRANCH 23 28
ATOM     28  C   THR C   3      21.512   6.165  45.419  1.00 11.33 LIG 0.24  C 
ATOM     29  N   ALA C   4      21.786   6.739  44.250  1.00 10.31 LIG-0.35  N 
ATOM     30 H    ALA C   4      21.539   6.431  43.486  1.00 10.31 LIG 0.16  HD
ATOM     31 O    THR C   3      22.024   6.542  46.481  1.00 11.88 LIG-0.27  OA
BRANCH 29 32
ATOM     32  CA  ALA C   4      22.554   7.977  44.193  1.00 10.35 LIG 0.18  C 
ATOM     33  CB  ALA C   4      23.854   7.773  43.402  1.00 10.31 LIG 0.04  C 
BRANCH 32 34
ATOM     34  C   ALA C   4      21.709   9.132  43.596  1.00 10.99 LIG 0.28  C 
ATOM     35 O    ALA C   4      20.852   8.907  42.749  0.79 11.43 LIG-0.27  OA
ATOM     36  N   NH2 C   5      21.954  10.357  44.048  0.91 10.97 LIG-0.11  N 
ENDBRANCH 32 34
ENDBRANCH 29 32
ENDBRANCH 23 28
ENDBRANCH 20 23
ENDBRANCH 1 19
BRANCH 1 37
ATOM     37  CB  HIS C   2      22.697   2.871  48.968  1.00 14.08 LIG 0.10  C 
BRANCH 37 38
ATOM     38  CG  HIS C   2      23.692   3.839  48.435  1.00 15.42 LIG 0.06  A 
ATOM     39  CD2 HIS C   2      23.974   5.102  48.817  1.00 15.59 LIG 0.14  A 
ATOM     40 NE2  HIS C   2      24.978   5.560  47.999  1.00 17.02 LIG-0.25  NA
ATOM     41  CE1 HIS C   2      25.303   4.606  47.147  1.00 16.99 LIG 0.23  A 
ATOM     42 ND1  HIS C   2      24.540   3.555  47.386  0.48 15.92 LIG-0.24  NA
ENDBRANCH 37 38
ENDBRANCH 1 37
TORSDOF 14
ENDMDL
MODEL 58
USER: ADFR SOLUTION from run 108
USER: SCORE 12.339524 LL:  -2.945 LR: -10.288 RR:   0.000 FEB:  -6.112
USER: RMSD 3.379331
USER: SEED 107
USER: STATUS searching
USER: GENES 16
USER: genes 0 Translation |==|  0.60490 0.51296 0.49700
USER: genes 1 Rotation |==|  0.41726 0.53496 0.46443 0.99058
USER: genes 2 Torsion [C]-CA--N-[C] |==|  0.72298
USER: genes 3 Torsion [N]-C--CA-[N] |==|  0.47763
USER: genes 4 Torsion [C]-CA--CB-[CG] |==|  0.48541
USER: genes 5 Torsion [CA]-CB--CG-[CD2] |==|  0.45428
USER: genes 6 Torsion [C]-CA--N-[C] |==|  0.68194
USER: genes 7 Torsion [N]-CA--C-[N] |==|  0.55466
USER: genes 8 Torsion [C]-N--CA-[CB] |==|  0.84995
USER: genes 9 Torsion [N]-CA--CB-[CG2] |==|  0.58450
USER: genes 10 Torsion [CA]-CB--OG1-[HG1] |==|  0.20384
USER: genes 11 Torsion [N]-CA--C-[N] |==|  0.37835
USER: genes 12 Torsion [C]-N--CA-[C] |==|  0.83157
USER: genes 13 Torsion [N]-CA--C-[N] |==|  0.89196
USER: genes 14 Torsion [N]-CA--CB-[CG] |==|  0.12022
USER: genes 15 Torsion [CA]-CB--CG-[ND1] |==|  0.25463
ROOT
ATOM      1  CA  HIS C   2      26.823   2.801  42.866  1.00 11.69 LIG 0.18  C 
ENDROOT
BRANCH 1 2
ATOM      2  N   HIS C   2      26.477   2.051  41.659  1.00 10.87 LIG-0.35  N 
ATOM      3 H    HIS C   2      26.275   2.536  40.978  1.00 10.87 LIG 0.16  HD
ATOM      4  C   PHE C   1      26.486   0.724  41.659  1.00 11.47 LIG 0.24  C 
ATOM      5 O    PHE C   1      26.905   0.050  42.618  1.00 12.97 LIG-0.27  OA
BRANCH 4 6
ATOM      6  CA  PHE C   1      25.988   0.054  40.376  1.00 11.05 LIG 0.18  C 
BRANCH 6 7
ATOM      7  CB  PHE C   1      24.498   0.344  40.170  1.00 10.09 LIG 0.07  C 
BRANCH 7 8
ATOM      8  CG  PHE C   1      23.963  -0.172  38.869  1.00  8.73 LIG-0.06  A 
ATOM      9  CD2 PHE C   1      22.608  -0.301  38.667  1.00  8.91 LIG 0.01  A 
ATOM     10  CE2 PHE C   1      22.127  -0.788  37.470  1.00  8.44 LIG 0.00  A 
ATOM     11  CZ  PHE C   1      23.006  -1.163  36.473  1.00  8.32 LIG 0.00  A 
ATOM     12  CE1 PHE C   1      24.363  -1.027  36.664  1.00  8.07 LIG 0.00  A 
ATOM     13  CD1 PHE C   1      24.834  -0.548  37.862  1.00  8.33 LIG 0.01  A 
ENDBRANCH 7 8
ENDBRANCH 6 7
BRANCH 6 14
ATOM     14  N   PHE C   1      26.216  -1.374  40.413  1.00 11.54 LIG-0.35  N 
ATOM     15 H    PHE C   1      25.757  -1.774  41.019  1.00 11.54 LIG 0.16  HD
ATOM     16  C   ACE C   0      27.043  -2.015  39.603  1.00 13.21 LIG 0.21  C 
ATOM     17  CH3 ACE C   0      27.335  -3.463  39.873  1.00 13.47 LIG 0.12  C 
ATOM     18 O    ACE C   0      27.686  -1.330  38.809  1.00 14.75 LIG-0.27  OA
ENDBRANCH 6 14
ENDBRANCH 4 6
ENDBRANCH 1 2
BRANCH 1 19
ATOM     19  C   HIS C   2      25.545   3.238  43.528  1.00 11.19 LIG 0.24  C 
ATOM     20  N   THR C   3      25.640   4.246  44.385  1.00 11.67 LIG-0.34  N 
ATOM     21 H    THR C   3      26.378   4.626  44.611  1.00 11.67 LIG 0.16  HD
ATOM     22 O    HIS C   2      24.472   2.713  43.240  1.00 11.10 LIG-0.27  OA
BRANCH 20 23
ATOM     23  CA  THR C   3      24.455   4.785  45.018  1.00 11.71 LIG 0.20  C 
BRANCH 23 24
ATOM     24  CB  THR C   3      23.378   5.200  43.980  1.00 13.34 LIG 0.15  C 
ATOM     25  CG2 THR C   3      22.541   6.355  44.471  1.00 14.42 LIG 0.04  C 
BRANCH 24 26
ATOM     26 OG1  THR C   3      24.033   5.583  42.774  1.00 13.01 LIG-0.39  OA
ATOM     27 HG1  THR C   3      24.326   4.899  42.385  1.00 13.01 LIG 0.21  HD
ENDBRANCH 24 26
ENDBRANCH 23 24
BRANCH 23 28
ATOM     28  C   THR C   3      23.892   3.787  46.042  1.00 11.33 LIG 0.24  C 
ATOM     29  N   ALA C   4      23.508   4.288  47.214  1.00 10.31 LIG-0.35  N 
ATOM     30 H    ALA C   4      23.658   5.095  47.472  1.00 10.31 LIG 0.16  HD
ATOM     31 O    THR C   3      23.807   2.582  45.774  1.00 11.88 LIG-0.27  OA
BRANCH 29 32
ATOM     32  CA  ALA C   4      22.777   3.464  48.170  1.00 10.35 LIG 0.18  C 
ATOM     33  CB  ALA C   4      22.552   4.229  49.482  1.00 10.31 LIG 0.04  C 
BRANCH 32 34
ATOM     34  C   ALA C   4      21.436   2.970  47.571  1.00 10.99 LIG 0.28  C 
ATOM     35 O    ALA C   4      21.027   1.837  47.799  0.79 11.43 LIG-0.27  OA
ATOM     36  N   NH2 C   5      20.759   3.828  46.815  0.91 10.97 LIG-0.11  N 
ENDBRANCH 32 34
ENDBRANCH 29 32
ENDBRANCH 23 28
ENDBRANCH 20 23
ENDBRANCH 1 19
BRANCH 1 37
ATOM     37  CB  HIS C   2      27.614   4.062  42.550  1.00 14.08 LIG 0.10  C 
BRANCH 37 38
ATOM     38  CG  HIS C   2      27.090   4.829  41.390  1.00 15.42 LIG 0.06  A 
ATOM     39  CD2 HIS C   2      27.366   4.720  40.073  1.00 15.59 LIG 0.14  A 
ATOM     40 NE2  HIS C   2      26.614   5.667  39.420  1.00 17.02 LIG-0.25  NA
ATOM     41  CE1 HIS C   2      25.898   6.330  40.307  1.00 16.99 LIG 0.23  A 
ATOM     42 ND1  HIS C   2      26.167   5.846  41.506  0.48 15.92 LIG-0.24  NA
ENDBRANCH 37 38
ENDBRANCH 1 37
TORSDOF 14
ENDMDL
MODEL 59
USER: ADFR SOLUTION from run 131
USER: SCORE 11.525060 LL:  -2.847 LR: -10.281 RR:   0.000 FEB:  -6.104
USER: RMSD 7.234576
USER: SEED 130
USER: STATUS no improvement in best in 15 clusters for 5 generations
USER: GENES 16
USER: genes 0 Translation |==|  0.32713 0.47878 0.75105
USER: genes 1 Rotation |==|  0.43079 0.26248 0.22335 0.83505
USER: genes 2 Torsion [C]-CA--N-[C] |==|  0.21345
USER: genes 3 Torsion [N]-C--CA-[N] |==|  0.45441
USER: genes 4 Torsion [C]-CA--CB-[CG] |==|  0.27640
USER: genes 5 Torsion [CA]-CB--CG-[CD2] |==|  0.10832
USER: genes 6 Torsion [C]-CA--N-[C] |==|  0.83333
USER: genes 7 Torsion [N]-CA--C-[N] |==|  0.41246
USER: genes 8 Torsion [C]-N--CA-[CB] |==|  0.21598
USER: genes 9 Torsion [N]-CA--CB-[CG2] |==|  0.70508
USER: genes 10 Torsion [CA]-CB--OG1-[HG1] |==|  0.12759
USER: genes 11 Torsion [N]-CA--C-[N] |==|  0.05217
USER: genes 12 Torsion [C]-N--CA-[C] |==|  0.83662
USER: genes 13 Torsion [N]-CA--C-[N] |==|  0.39995
USER: genes 14 Torsion [N]-CA--CB-[CG] |==|  0.61124
USER: genes 15 Torsion [CA]-CB--CG-[ND1] |==|  0.86247
ROOT
ATOM      1  CA  HIS C   2      21.406   2.237  48.011  1.00 11.69 LIG 0.18  C 
ENDROOT
BRANCH 1 2
ATOM      2  N   HIS C   2      21.804   1.157  47.108  1.00 10.87 LIG-0.35  N 
ATOM      3 H    HIS C   2      21.174   0.613  46.895  1.00 10.87 LIG 0.16  HD
ATOM      4  C   PHE C   1      23.055   1.063  46.673  1.00 11.47 LIG 0.24  C 
ATOM      5 O    PHE C   1      23.914   1.936  46.892  1.00 12.97 LIG-0.27  OA
BRANCH 4 6
ATOM      6  CA  PHE C   1      23.377  -0.175  45.834  1.00 11.05 LIG 0.18  C 
BRANCH 6 7
ATOM      7  CB  PHE C   1      23.464  -1.415  46.730  1.00 10.09 LIG 0.07  C 
BRANCH 7 8
ATOM      8  CG  PHE C   1      22.219  -2.249  46.718  1.00  8.73 LIG-0.06  A 
ATOM      9  CD2 PHE C   1      21.515  -2.446  45.552  1.00  8.91 LIG 0.01  A 
ATOM     10  CE2 PHE C   1      20.365  -3.207  45.555  1.00  8.44 LIG 0.00  A 
ATOM     11  CZ  PHE C   1      19.906  -3.763  46.734  1.00  8.32 LIG 0.00  A 
ATOM     12  CE1 PHE C   1      20.612  -3.578  47.902  1.00  8.07 LIG 0.00  A 
ATOM     13  CD1 PHE C   1      21.752  -2.813  47.891  1.00  8.33 LIG 0.01  A 
ENDBRANCH 7 8
ENDBRANCH 6 7
BRANCH 6 14
ATOM     14  N   PHE C   1      24.614  -0.002  45.105  1.00 11.54 LIG-0.35  N 
ATOM     15 H    PHE C   1      25.210  -0.588  45.305  1.00 11.54 LIG 0.16  HD
ATOM     16  C   ACE C   0      24.825   0.957  44.217  1.00 13.21 LIG 0.21  C 
ATOM     17  CH3 ACE C   0      26.213   1.145  43.677  1.00 13.47 LIG 0.12  C 
ATOM     18 O    ACE C   0      23.917   1.770  44.052  1.00 14.75 LIG-0.27  OA
ENDBRANCH 6 14
ENDBRANCH 4 6
ENDBRANCH 1 2
BRANCH 1 19
ATOM     19  C   HIS C   2      21.263   3.496  47.200  1.00 11.19 LIG 0.24  C 
ATOM     20  N   THR C   3      20.350   4.363  47.617  1.00 11.67 LIG-0.34  N 
ATOM     21 H    THR C   3      19.821   4.233  48.282  1.00 11.67 LIG 0.16  HD
ATOM     22 O    HIS C   2      21.993   3.714  46.237  1.00 11.10 LIG-0.27  OA
BRANCH 20 23
ATOM     23  CA  THR C   3      20.188   5.636  46.945  1.00 11.71 LIG 0.20  C 
BRANCH 23 24
ATOM     24  CB  THR C   3      19.401   5.496  45.615  1.00 13.34 LIG 0.15  C 
ATOM     25  CG2 THR C   3      20.303   5.627  44.413  1.00 14.42 LIG 0.04  C 
BRANCH 24 26
ATOM     26 OG1  THR C   3      18.779   4.215  45.588  1.00 13.01 LIG-0.39  OA
ATOM     27 HG1  THR C   3      18.409   4.067  46.327  1.00 13.01 LIG 0.21  HD
ENDBRANCH 24 26
ENDBRANCH 23 24
BRANCH 23 28
ATOM     28  C   THR C   3      19.527   6.657  47.883  1.00 11.33 LIG 0.24  C 
ATOM     29  N   ALA C   4      19.570   6.386  49.186  1.00 10.31 LIG-0.35  N 
ATOM     30 H    ALA C   4      19.834   5.639  49.519  1.00 10.31 LIG 0.16  HD
ATOM     31 O    THR C   3      18.986   7.676  47.434  1.00 11.88 LIG-0.27  OA
BRANCH 29 32
ATOM     32  CA  ALA C   4      19.155   7.383  50.166  1.00 10.35 LIG 0.18  C 
ATOM     33  CB  ALA C   4      19.229   6.808  51.588  1.00 10.31 LIG 0.04  C 
BRANCH 32 34
ATOM     34  C   ALA C   4      20.000   8.677  50.039  1.00 10.99 LIG 0.28  C 
ATOM     35 O    ALA C   4      21.190   8.622  49.746  0.79 11.43 LIG-0.27  OA
ATOM     36  N   NH2 C   5      19.376   9.830  50.254  0.91 10.97 LIG-0.11  N 
ENDBRANCH 32 34
ENDBRANCH 29 32
ENDBRANCH 23 28
ENDBRANCH 20 23
ENDBRANCH 1 19
BRANCH 1 37
ATOM     37  CB  HIS C   2      22.459   2.511  49.074  1.00 14.08 LIG 0.10  C 
BRANCH 37 38
ATOM     38  CG  HIS C   2      21.899   2.789  50.423  1.00 15.42 LIG 0.06  A 
ATOM     39  CD2 HIS C   2      22.217   2.267  51.625  1.00 15.59 LIG 0.14  A 
ATOM     40 NE2  HIS C   2      21.401   2.863  52.557  1.00 17.02 LIG-0.25  NA
ATOM     41  CE1 HIS C   2      20.613   3.727  51.943  1.00 16.99 LIG 0.23  A 
ATOM     42 ND1  HIS C   2      20.891   3.700  50.652  0.48 15.92 LIG-0.24  NA
ENDBRANCH 37 38
ENDBRANCH 1 37
TORSDOF 14
ENDMDL
MODEL 60
USER: ADFR SOLUTION from run 92
USER: SCORE 12.113575 LL:  -3.359 LR: -10.272 RR:   0.000 FEB:  -6.096
USER: RMSD 6.009347
USER: SEED 91
USER: STATUS no improvement in best in 11 clusters for 5 generations
USER: GENES 16
USER: genes 0 Translation |==|  0.70697 0.51328 0.24701
USER: genes 1 Rotation |==|  0.31052 0.79017 0.56735 0.85406
USER: genes 2 Torsion [C]-CA--N-[C] |==|  0.80351
USER: genes 3 Torsion [N]-C--CA-[N] |==|  0.51028
USER: genes 4 Torsion [C]-CA--CB-[CG] |==|  0.34949
USER: genes 5 Torsion [CA]-CB--CG-[CD2] |==|  0.98129
USER: genes 6 Torsion [C]-CA--N-[C] |==|  0.79801
USER: genes 7 Torsion [N]-CA--C-[N] |==|  0.93783
USER: genes 8 Torsion [C]-N--CA-[CB] |==|  0.25394
USER: genes 9 Torsion [N]-CA--CB-[CG2] |==|  0.69707
USER: genes 10 Torsion [CA]-CB--OG1-[HG1] |==|  0.15803
USER: genes 11 Torsion [N]-CA--C-[N] |==|  0.48526
USER: genes 12 Torsion [C]-N--CA-[C] |==|  0.84377
USER: genes 13 Torsion [N]-CA--C-[N] |==|  0.37989
USER: genes 14 Torsion [N]-CA--CB-[CG] |==|  0.38874
USER: genes 15 Torsion [CA]-CB--CG-[ND1] |==|  0.75934
ROOT
ATOM      1  CA  HIS C   2      28.813   2.806  37.804  1.00 11.69 LIG 0.18  C 
ENDROOT
BRANCH 1 2
ATOM      2  N   HIS C   2      27.979   1.613  37.950  1.00 10.87 LIG-0.35  N 
ATOM      3 H    HIS C   2      27.242   1.630  37.508  1.00 10.87 LIG 0.16  HD
ATOM      4  C   PHE C   1      28.370   0.603  38.719  1.00 11.47 LIG 0.24  C 
ATOM      5 O    PHE C   1      29.497   0.549  39.244  1.00 12.97 LIG-0.27  OA
BRANCH 4 6
ATOM      6  CA  PHE C   1      27.359  -0.534  38.889  1.00 11.05 LIG 0.18  C 
BRANCH 6 7
ATOM      7  CB  PHE C   1      26.018   0.019  39.381  1.00 10.09 LIG 0.07  C 
BRANCH 7 8
ATOM      8  CG  PHE C   1      24.857  -0.373  38.518  1.00  8.73 LIG-0.06  A 
ATOM      9  CD2 PHE C   1      25.056  -1.038  37.331  1.00  8.91 LIG 0.01  A 
ATOM     10  CE2 PHE C   1      23.981  -1.384  36.539  1.00  8.44 LIG 0.00  A 
ATOM     11  CZ  PHE C   1      22.699  -1.050  36.929  1.00  8.32 LIG 0.00  A 
ATOM     12  CE1 PHE C   1      22.492  -0.393  38.122  1.00  8.07 LIG 0.00  A 
ATOM     13  CD1 PHE C   1      23.568  -0.045  38.900  1.00  8.33 LIG 0.01  A 
ENDBRANCH 7 8
ENDBRANCH 6 7
BRANCH 6 14
ATOM     14  N   PHE C   1      27.852  -1.534  39.810  1.00 11.54 LIG-0.35  N 
ATOM     15 H    PHE C   1      27.451  -1.522  40.570  1.00 11.54 LIG 0.16  HD
ATOM     16  C   ACE C   0      28.822  -2.388  39.528  1.00 13.21 LIG 0.21  C 
ATOM     17  CH3 ACE C   0      29.372  -3.242  40.634  1.00 13.47 LIG 0.12  C 
ATOM     18 O    ACE C   0      29.359  -2.277  38.427  1.00 14.75 LIG-0.27  OA
ENDBRANCH 6 14
ENDBRANCH 4 6
ENDBRANCH 1 2
BRANCH 1 19
ATOM     19  C   HIS C   2      28.779   3.563  39.103  1.00 11.19 LIG 0.24  C 
ATOM     20  N   THR C   3      27.739   3.330  39.893  1.00 11.67 LIG-0.34  N 
ATOM     21 H    THR C   3      27.079   2.816  39.692  1.00 11.67 LIG 0.16  HD
ATOM     22 O    HIS C   2      29.697   4.314  39.421  1.00 11.10 LIG-0.27  OA
BRANCH 20 23
ATOM     23  CA  THR C   3      27.654   3.956  41.196  1.00 11.71 LIG 0.20  C 
BRANCH 23 24
ATOM     24  CB  THR C   3      26.896   5.310  41.143  1.00 13.34 LIG 0.15  C 
ATOM     25  CG2 THR C   3      27.825   6.481  41.347  1.00 14.42 LIG 0.04  C 
BRANCH 24 26
ATOM     26 OG1  THR C   3      26.271   5.431  39.869  1.00 13.01 LIG-0.39  OA
ATOM     27 HG1  THR C   3      25.764   4.774  39.742  1.00 13.01 LIG 0.21  HD
ENDBRANCH 24 26
ENDBRANCH 23 24
BRANCH 23 28
ATOM     28  C   THR C   3      27.017   2.996  42.212  1.00 11.33 LIG 0.24  C 
ATOM     29  N   ALA C   4      26.978   3.406  43.478  1.00 10.31 LIG-0.35  N 
ATOM     30 H    ALA C   4      27.380   4.106  43.775  1.00 10.31 LIG 0.16  HD
ATOM     31 O    THR C   3      26.568   1.899  41.855  1.00 11.88 LIG-0.27  OA
BRANCH 29 32
ATOM     32  CA  ALA C   4      26.218   2.663  44.476  1.00 10.35 LIG 0.18  C 
ATOM     33  CB  ALA C   4      26.336   3.331  45.854  1.00 10.31 LIG 0.04  C 
BRANCH 32 34
ATOM     34  C   ALA C   4      24.735   2.513  44.051  1.00 10.99 LIG 0.28  C 
ATOM     35 O    ALA C   4      24.123   3.458  43.566  0.79 11.43 LIG-0.27  OA
ATOM     36  N   NH2 C   5      24.173   1.322  44.230  0.91 10.97 LIG-0.11  N 
ENDBRANCH 32 34
ENDBRANCH 29 32
ENDBRANCH 23 28
ENDBRANCH 20 23
ENDBRANCH 1 19
BRANCH 1 37
ATOM     37  CB  HIS C   2      28.284   3.745  36.729  1.00 14.08 LIG 0.10  C 
BRANCH 37 38
ATOM     38  CG  HIS C   2      28.375   5.185  37.086  1.00 15.42 LIG 0.06  A 
ATOM     39  CD2 HIS C   2      29.339   6.092  36.821  1.00 15.59 LIG 0.14  A 
ATOM     40 NE2  HIS C   2      28.938   7.284  37.374  1.00 17.02 LIG-0.25  NA
ATOM     41  CE1 HIS C   2      27.765   7.113  37.955  1.00 16.99 LIG 0.23  A 
ATOM     42 ND1  HIS C   2      27.402   5.853  37.798  0.48 15.92 LIG-0.24  NA
ENDBRANCH 37 38
ENDBRANCH 1 37
TORSDOF 14
ENDMDL
MODEL 61
USER: ADFR SOLUTION from run 89
USER: SCORE 11.750085 LL:  -3.065 LR: -10.266 RR:   0.000 FEB:  -6.090
USER: RMSD 4.760002
USER: SEED 88
USER: STATUS no improvement in best in 16 clusters for 5 generations
USER: GENES 16
USER: genes 0 Translation |==|  0.44505 0.39614 0.69122
USER: genes 1 Rotation |==|  0.65577 0.41944 0.21245 0.86954
USER: genes 2 Torsion [C]-CA--N-[C] |==|  0.55583
USER: genes 3 Torsion [N]-C--CA-[N] |==|  0.09287
USER: genes 4 Torsion [C]-CA--CB-[CG] |==|  0.36624
USER: genes 5 Torsion [CA]-CB--CG-[CD2] |==|  0.96957
USER: genes 6 Torsion [C]-CA--N-[C] |==|  0.77448
USER: genes 7 Torsion [N]-CA--C-[N] |==|  0.37883
USER: genes 8 Torsion [C]-N--CA-[CB] |==|  0.78333
USER: genes 9 Torsion [N]-CA--CB-[CG2] |==|  0.54752
USER: genes 10 Torsion [CA]-CB--OG1-[HG1] |==|  0.46890
USER: genes 11 Torsion [N]-CA--C-[N] |==|  0.16781
USER: genes 12 Torsion [C]-N--CA-[C] |==|  0.67939
USER: genes 13 Torsion [N]-CA--C-[N] |==|  0.39693
USER: genes 14 Torsion [N]-CA--CB-[CG] |==|  0.50878
USER: genes 15 Torsion [CA]-CB--CG-[ND1] |==|  0.12213
ROOT
ATOM      1  CA  HIS C   2      23.705   0.873  46.799  1.00 11.69 LIG 0.18  C 
ENDROOT
BRANCH 1 2
ATOM      2  N   HIS C   2      24.277   1.292  45.520  1.00 10.87 LIG-0.35  N 
ATOM      3 H    HIS C   2      24.380   2.140  45.430  1.00 10.87 LIG 0.16  HD
ATOM      4  C   PHE C   1      24.599   0.395  44.595  1.00 11.47 LIG 0.24  C 
ATOM      5 O    PHE C   1      24.560  -0.832  44.800  1.00 12.97 LIG-0.27  OA
BRANCH 4 6
ATOM      6  CA  PHE C   1      25.073   0.961  43.255  1.00 11.05 LIG 0.18  C 
BRANCH 6 7
ATOM      7  CB  PHE C   1      25.951  -0.063  42.527  1.00 10.09 LIG 0.07  C 
BRANCH 7 8
ATOM      8  CG  PHE C   1      25.572  -0.262  41.091  1.00  8.73 LIG-0.06  A 
ATOM      9  CD2 PHE C   1      24.401   0.260  40.594  1.00  8.91 LIG 0.01  A 
ATOM     10  CE2 PHE C   1      24.057   0.062  39.273  1.00  8.44 LIG 0.00  A 
ATOM     11  CZ  PHE C   1      24.883  -0.676  38.447  1.00  8.32 LIG 0.00  A 
ATOM     12  CE1 PHE C   1      26.063  -1.192  38.936  1.00  8.07 LIG 0.00  A 
ATOM     13  CD1 PHE C   1      26.393  -0.996  40.254  1.00  8.33 LIG 0.01  A 
ENDBRANCH 7 8
ENDBRANCH 6 7
BRANCH 6 14
ATOM     14  N   PHE C   1      25.802   2.196  43.441  1.00 11.54 LIG-0.35  N 
ATOM     15 H    PHE C   1      26.655   2.091  43.431  1.00 11.54 LIG 0.16  HD
ATOM     16  C   ACE C   0      25.230   3.377  43.612  1.00 13.21 LIG 0.21  C 
ATOM     17  CH3 ACE C   0      26.093   4.546  43.989  1.00 13.47 LIG 0.12  C 
ATOM     18 O    ACE C   0      24.001   3.397  43.661  1.00 14.75 LIG-0.27  OA
ENDBRANCH 6 14
ENDBRANCH 4 6
ENDBRANCH 1 2
BRANCH 1 19
ATOM     19  C   HIS C   2      23.005   2.057  47.408  1.00 11.19 LIG 0.24  C 
ATOM     20  N   THR C   3      21.814   1.825  47.944  1.00 11.67 LIG-0.34  N 
ATOM     21 H    THR C   3      21.411   1.065  47.927  1.00 11.67 LIG 0.16  HD
ATOM     22 O    HIS C   2      23.543   3.160  47.442  1.00 11.10 LIG-0.27  OA
BRANCH 20 23
ATOM     23  CA  THR C   3      21.094   2.885  48.617  1.00 11.71 LIG 0.20  C 
BRANCH 23 24
ATOM     24  CB  THR C   3      21.644   3.148  50.045  1.00 13.34 LIG 0.15  C 
ATOM     25  CG2 THR C   3      20.668   3.932  50.886  1.00 14.42 LIG 0.04  C 
BRANCH 24 26
ATOM     26 OG1  THR C   3      21.892   1.894  50.673  1.00 13.01 LIG-0.39  OA
ATOM     27 HG1  THR C   3      22.329   2.016  51.380  1.00 13.01 LIG 0.21  HD
ENDBRANCH 24 26
ENDBRANCH 23 24
BRANCH 23 28
ATOM     28  C   THR C   3      21.106   4.165  47.767  1.00 11.33 LIG 0.24  C 
ATOM     29  N   ALA C   4      20.549   4.086  46.561  1.00 10.31 LIG-0.35  N 
ATOM     30 H    ALA C   4      20.294   3.353  46.190  1.00 10.31 LIG 0.16  HD
ATOM     31 O    THR C   3      21.612   5.209  48.198  1.00 11.88 LIG-0.27  OA
BRANCH 29 32
ATOM     32  CA  ALA C   4      20.328   5.287  45.764  1.00 10.35 LIG 0.18  C 
ATOM     33  CB  ALA C   4      21.078   5.195  44.427  1.00 10.31 LIG 0.04  C 
BRANCH 32 34
ATOM     34  C   ALA C   4      18.815   5.541  45.543  1.00 10.99 LIG 0.28  C 
ATOM     35 O    ALA C   4      18.041   4.605  45.375  0.79 11.43 LIG-0.27  OA
ATOM     36  N   NH2 C   5      18.407   6.806  45.552  0.91 10.97 LIG-0.11  N 
ENDBRANCH 32 34
ENDBRANCH 29 32
ENDBRANCH 23 28
ENDBRANCH 20 23
ENDBRANCH 1 19
BRANCH 1 37
ATOM     37  CB  HIS C   2      24.775   0.433  47.788  1.00 14.08 LIG 0.10  C 
BRANCH 37 38
ATOM     38  CG  HIS C   2      24.236  -0.071  49.078  1.00 15.42 LIG 0.06  A 
ATOM     39  CD2 HIS C   2      24.632   0.172  50.345  1.00 15.59 LIG 0.14  A 
ATOM     40 NE2  HIS C   2      23.800  -0.541  51.175  1.00 17.02 LIG-0.25  NA
ATOM     41  CE1 HIS C   2      22.921  -1.195  50.439  1.00 16.99 LIG 0.23  A 
ATOM     42 ND1  HIS C   2      23.163  -0.932  49.167  0.48 15.92 LIG-0.24  NA
ENDBRANCH 37 38
ENDBRANCH 1 37
TORSDOF 14
ENDMDL
MODEL 62
USER: ADFR SOLUTION from run 182
USER: SCORE 11.469988 LL:  -3.435 LR: -10.263 RR:   0.000 FEB:  -6.087
USER: RMSD 6.479454
USER: SEED 181
USER: STATUS no improvement in best in 12 clusters for 5 generations
USER: GENES 16
USER: genes 0 Translation |==|  0.72759 0.39015 0.35999
USER: genes 1 Rotation |==|  0.33608 0.49594 0.43504 0.96786
USER: genes 2 Torsion [C]-CA--N-[C] |==|  0.77264
USER: genes 3 Torsion [N]-C--CA-[N] |==|  0.32222
USER: genes 4 Torsion [C]-CA--CB-[CG] |==|  0.21736
USER: genes 5 Torsion [CA]-CB--CG-[CD2] |==|  0.71108
USER: genes 6 Torsion [C]-CA--N-[C] |==|  0.81829
USER: genes 7 Torsion [N]-CA--C-[N] |==|  0.43543
USER: genes 8 Torsion [C]-N--CA-[CB] |==|  0.35984
USER: genes 9 Torsion [N]-CA--CB-[CG2] |==|  0.20551
USER: genes 10 Torsion [CA]-CB--OG1-[HG1] |==|  0.04507
USER: genes 11 Torsion [N]-CA--C-[N] |==|  0.08890
USER: genes 12 Torsion [C]-N--CA-[C] |==|  0.77306
USER: genes 13 Torsion [N]-CA--C-[N] |==|  0.21612
USER: genes 14 Torsion [N]-CA--CB-[CG] |==|  0.15536
USER: genes 15 Torsion [CA]-CB--CG-[ND1] |==|  0.70257
ROOT
ATOM      1  CA  HIS C   2      29.215   0.775  40.092  1.00 11.69 LIG 0.18  C 
ENDROOT
BRANCH 1 2
ATOM      2  N   HIS C   2      28.954  -0.334  39.175  1.00 10.87 LIG-0.35  N 
ATOM      3 H    HIS C   2      29.125  -0.168  38.348  1.00 10.87 LIG 0.16  HD
ATOM      4  C   PHE C   1      28.490  -1.493  39.627  1.00 11.47 LIG 0.24  C 
ATOM      5 O    PHE C   1      28.374  -1.749  40.839  1.00 12.97 LIG-0.27  OA
BRANCH 4 6
ATOM      6  CA  PHE C   1      28.142  -2.533  38.559  1.00 11.05 LIG 0.18  C 
BRANCH 6 7
ATOM      7  CB  PHE C   1      26.670  -2.941  38.675  1.00 10.09 LIG 0.07  C 
BRANCH 7 8
ATOM      8  CG  PHE C   1      25.724  -1.939  38.087  1.00  8.73 LIG-0.06  A 
ATOM      9  CD2 PHE C   1      24.991  -1.103  38.898  1.00  8.91 LIG 0.01  A 
ATOM     10  CE2 PHE C   1      24.115  -0.192  38.346  1.00  8.44 LIG 0.00  A 
ATOM     11  CZ  PHE C   1      23.959  -0.125  36.976  1.00  8.32 LIG 0.00  A 
ATOM     12  CE1 PHE C   1      24.697  -0.952  36.157  1.00  8.07 LIG 0.00  A 
ATOM     13  CD1 PHE C   1      25.560  -1.861  36.716  1.00  8.33 LIG 0.01  A 
ENDBRANCH 7 8
ENDBRANCH 6 7
BRANCH 6 14
ATOM     14  N   PHE C   1      28.991  -3.699  38.672  1.00 11.54 LIG-0.35  N 
ATOM     15 H    PHE C   1      28.561  -4.410  38.891  1.00 11.54 LIG 0.16  HD
ATOM     16  C   ACE C   0      30.297  -3.689  38.464  1.00 13.21 LIG 0.21  C 
ATOM     17  CH3 ACE C   0      31.089  -4.918  38.805  1.00 13.47 LIG 0.12  C 
ATOM     18 O    ACE C   0      30.811  -2.601  38.207  1.00 14.75 LIG-0.27  OA
ENDBRANCH 6 14
ENDBRANCH 4 6
ENDBRANCH 1 2
BRANCH 1 19
ATOM     19  C   HIS C   2      27.912   1.476  40.360  1.00 11.19 LIG 0.24  C 
ATOM     20  N   THR C   3      27.838   2.171  41.487  1.00 11.67 LIG-0.34  N 
ATOM     21 H    THR C   3      28.462   2.209  42.079  1.00 11.67 LIG 0.16  HD
ATOM     22 O    HIS C   2      26.994   1.436  39.545  1.00 11.10 LIG-0.27  OA
BRANCH 20 23
ATOM     23  CA  THR C   3      26.651   2.939  41.799  1.00 11.71 LIG 0.20  C 
BRANCH 23 24
ATOM     24  CB  THR C   3      26.121   2.638  43.226  1.00 13.34 LIG 0.15  C 
ATOM     25  CG2 THR C   3      26.986   3.267  44.290  1.00 14.42 LIG 0.04  C 
BRANCH 24 26
ATOM     26 OG1  THR C   3      24.799   3.159  43.339  1.00 13.01 LIG-0.39  OA
ATOM     27 HG1  THR C   3      24.494   3.317  42.572  1.00 13.01 LIG 0.21  HD
ENDBRANCH 24 26
ENDBRANCH 23 24
BRANCH 23 28
ATOM     28  C   THR C   3      26.916   4.440  41.603  1.00 11.33 LIG 0.24  C 
ATOM     29  N   ALA C   4      27.780   4.773  40.647  1.00 10.31 LIG-0.35  N 
ATOM     30 H    ALA C   4      28.275   4.214  40.221  1.00 10.31 LIG 0.16  HD
ATOM     31 O    THR C   3      26.346   5.283  42.308  1.00 11.88 LIG-0.27  OA
BRANCH 29 32
ATOM     32  CA  ALA C   4      27.945   6.166  40.249  1.00 10.35 LIG 0.18  C 
ATOM     33  CB  ALA C   4      29.344   6.399  39.659  1.00 10.31 LIG 0.04  C 
BRANCH 32 34
ATOM     34  C   ALA C   4      26.838   6.597  39.253  1.00 10.99 LIG 0.28  C 
ATOM     35 O    ALA C   4      27.070   6.673  38.051  0.79 11.43 LIG-0.27  OA
ATOM     36  N   NH2 C   5      25.640   6.868  39.761  0.91 10.97 LIG-0.11  N 
ENDBRANCH 32 34
ENDBRANCH 29 32
ENDBRANCH 23 28
ENDBRANCH 20 23
ENDBRANCH 1 19
BRANCH 1 37
ATOM     37  CB  HIS C   2      30.159   1.805  39.490  1.00 14.08 LIG 0.10  C 
BRANCH 37 38
ATOM     38  CG  HIS C   2      29.699   2.359  38.189  1.00 15.42 LIG 0.06  A 
ATOM     39  CD2 HIS C   2      28.704   3.228  37.912  1.00 15.59 LIG 0.14  A 
ATOM     40 NE2  HIS C   2      28.693   3.413  36.550  1.00 17.02 LIG-0.25  NA
ATOM     41  CE1 HIS C   2      29.654   2.685  36.012  1.00 16.99 LIG 0.23  A 
ATOM     42 ND1  HIS C   2      30.276   2.036  36.980  0.48 15.92 LIG-0.24  NA
ENDBRANCH 37 38
ENDBRANCH 1 37
TORSDOF 14
ENDMDL
MODEL 63
USER: ADFR SOLUTION from run 91
USER: SCORE 12.796538 LL:  -3.450 LR: -10.262 RR:   0.000 FEB:  -6.086
USER: RMSD 9.371346
USER: SEED 90
USER: STATUS no improvement in best in 22 clusters for 5 generations
USER: GENES 16
USER: genes 0 Translation |==|  0.38850 0.35247 0.69800
USER: genes 1 Rotation |==|  0.25142 0.79236 0.18139 0.53495
USER: genes 2 Torsion [C]-CA--N-[C] |==|  0.74462
USER: genes 3 Torsion [N]-C--CA-[N] |==|  0.44382
USER: genes 4 Torsion [C]-CA--CB-[CG] |==|  0.26198
USER: genes 5 Torsion [CA]-CB--CG-[CD2] |==|  0.69512
USER: genes 6 Torsion [C]-CA--N-[C] |==|  0.54484
USER: genes 7 Torsion [N]-CA--C-[N] |==|  0.88487
USER: genes 8 Torsion [C]-N--CA-[CB] |==|  0.82778
USER: genes 9 Torsion [N]-CA--CB-[CG2] |==|  0.92477
USER: genes 10 Torsion [CA]-CB--OG1-[HG1] |==|  0.89686
USER: genes 11 Torsion [N]-CA--C-[N] |==|  0.45302
USER: genes 12 Torsion [C]-N--CA-[C] |==|  0.18123
USER: genes 13 Torsion [N]-CA--C-[N] |==|  0.14666
USER: genes 14 Torsion [N]-CA--CB-[CG] |==|  0.69469
USER: genes 15 Torsion [CA]-CB--CG-[ND1] |==|  0.44340
ROOT
ATOM      1  CA  HIS C   2      22.603   0.153  46.937  1.00 11.69 LIG 0.18  C 
ENDROOT
BRANCH 1 2
ATOM      2  N   HIS C   2      21.792   1.270  47.420  1.00 10.87 LIG-0.35  N 
ATOM      3 H    HIS C   2      21.131   1.483  46.913  1.00 10.87 LIG 0.16  HD
ATOM      4  C   PHE C   1      22.090   1.880  48.561  1.00 11.47 LIG 0.24  C 
ATOM      5 O    PHE C   1      22.972   1.470  49.337  1.00 12.97 LIG-0.27  OA
BRANCH 4 6
ATOM      6  CA  PHE C   1      21.244   3.110  48.899  1.00 11.05 LIG 0.18  C 
BRANCH 6 7
ATOM      7  CB  PHE C   1      21.715   4.318  48.083  1.00 10.09 LIG 0.07  C 
BRANCH 7 8
ATOM      8  CG  PHE C   1      20.946   4.517  46.812  1.00  8.73 LIG-0.06  A 
ATOM      9  CD2 PHE C   1      21.534   4.283  45.591  1.00  8.91 LIG 0.01  A 
ATOM     10  CE2 PHE C   1      20.821   4.481  44.427  1.00  8.44 LIG 0.00  A 
ATOM     11  CZ  PHE C   1      19.515   4.928  44.483  1.00  8.32 LIG 0.00  A 
ATOM     12  CE1 PHE C   1      18.917   5.154  45.704  1.00  8.07 LIG 0.00  A 
ATOM     13  CD1 PHE C   1      19.637   4.963  46.857  1.00  8.33 LIG 0.01  A 
ENDBRANCH 7 8
ENDBRANCH 6 7
BRANCH 6 14
ATOM     14  N   PHE C   1      21.306   3.411  50.313  1.00 11.54 LIG-0.35  N 
ATOM     15 H    PHE C   1      21.956   3.018  50.714  1.00 11.54 LIG 0.16  HD
ATOM     16  C   ACE C   0      20.456   4.207  50.940  1.00 13.21 LIG 0.21  C 
ATOM     17  CH3 ACE C   0      20.512   4.280  52.439  1.00 13.47 LIG 0.12  C 
ATOM     18 O    ACE C   0      19.533   4.672  50.272  1.00 14.75 LIG-0.27  OA
ENDBRANCH 6 14
ENDBRANCH 4 6
ENDBRANCH 1 2
BRANCH 1 19
ATOM     19  C   HIS C   2      23.671   0.707  46.035  1.00 11.19 LIG 0.24  C 
ATOM     20  N   THR C   3      23.297   1.666  45.199  1.00 11.67 LIG-0.34  N 
ATOM     21 H    THR C   3      22.491   1.953  45.115  1.00 11.67 LIG 0.16  HD
ATOM     22 O    HIS C   2      24.832   0.314  46.116  1.00 11.10 LIG-0.27  OA
BRANCH 20 23
ATOM     23  CA  THR C   3      24.269   2.311  44.341  1.00 11.71 LIG 0.20  C 
BRANCH 23 24
ATOM     24  CB  THR C   3      25.364   3.051  45.156  1.00 13.34 LIG 0.15  C 
ATOM     25  CG2 THR C   3      24.858   3.489  46.508  1.00 14.42 LIG 0.04  C 
BRANCH 24 26
ATOM     26 OG1  THR C   3      26.467   2.168  45.339  1.00 13.01 LIG-0.39  OA
ATOM     27 HG1  THR C   3      26.184   1.387  45.460  1.00 13.01 LIG 0.21  HD
ENDBRANCH 24 26
ENDBRANCH 23 24
BRANCH 23 28
ATOM     28  C   THR C   3      24.885   1.295  43.368  1.00 11.33 LIG 0.24  C 
ATOM     29  N   ALA C   4      25.521   1.792  42.309  1.00 10.31 LIG-0.35  N 
ATOM     30 H    ALA C   4      25.509   2.621  42.079  1.00 10.31 LIG 0.16  HD
ATOM     31 O    THR C   3      24.786   0.078  43.572  1.00 11.88 LIG-0.27  OA
BRANCH 29 32
ATOM     32  CA  ALA C   4      26.308   0.925  41.441  1.00 10.35 LIG 0.18  C 
ATOM     33  CB  ALA C   4      27.419   0.225  42.238  1.00 10.31 LIG 0.04  C 
BRANCH 32 34
ATOM     34  C   ALA C   4      25.407  -0.105  40.713  1.00 10.99 LIG 0.28  C 
ATOM     35 O    ALA C   4      25.655  -1.304  40.768  0.79 11.43 LIG-0.27  OA
ATOM     36  N   NH2 C   5      24.362   0.372  40.044  0.91 10.97 LIG-0.11  N 
ENDBRANCH 32 34
ENDBRANCH 29 32
ENDBRANCH 23 28
ENDBRANCH 20 23
ENDBRANCH 1 19
BRANCH 1 37
ATOM     37  CB  HIS C   2      21.787  -0.830  46.109  1.00 14.08 LIG 0.10  C 
BRANCH 37 38
ATOM     38  CG  HIS C   2      21.562  -2.140  46.773  1.00 15.42 LIG 0.06  A 
ATOM     39  CD2 HIS C   2      22.230  -2.733  47.785  1.00 15.59 LIG 0.14  A 
ATOM     40 NE2  HIS C   2      21.619  -3.940  48.024  1.00 17.02 LIG-0.25  NA
ATOM     41  CE1 HIS C   2      20.606  -4.079  47.189  1.00 16.99 LIG 0.23  A 
ATOM     42 ND1  HIS C   2      20.550  -3.006  46.420  0.48 15.92 LIG-0.24  NA
ENDBRANCH 37 38
ENDBRANCH 1 37
TORSDOF 14
ENDMDL
MODEL 64
USER: ADFR SOLUTION from run 174
USER: SCORE 12.448183 LL:  -3.005 LR: -10.238 RR:   0.000 FEB:  -6.062
USER: RMSD 10.104569
USER: SEED 173
USER: STATUS no improvement in best in 29 clusters for 5 generations
USER: GENES 16
USER: genes 0 Translation |==|  0.54198 0.30411 0.34975
USER: genes 1 Rotation |==|  0.57901 0.90089 0.21783 0.55853
USER: genes 2 Torsion [C]-CA--N-[C] |==|  0.82178
USER: genes 3 Torsion [N]-C--CA-[N] |==|  0.44894
USER: genes 4 Torsion [C]-CA--CB-[CG] |==|  0.23536
USER: genes 5 Torsion [CA]-CB--CG-[CD2] |==|  0.24815
USER: genes 6 Torsion [C]-CA--N-[C] |==|  0.64352
USER: genes 7 Torsion [N]-CA--C-[N] |==|  0.41667
USER: genes 8 Torsion [C]-N--CA-[CB] |==|  0.50005
USER: genes 9 Torsion [N]-CA--CB-[CG2] |==|  0.68620
USER: genes 10 Torsion [CA]-CB--OG1-[HG1] |==|  0.35130
USER: genes 11 Torsion [N]-CA--C-[N] |==|  0.43678
USER: genes 12 Torsion [C]-N--CA-[C] |==|  0.78737
USER: genes 13 Torsion [N]-CA--C-[N] |==|  0.99760
USER: genes 14 Torsion [N]-CA--CB-[CG] |==|  0.70879
USER: genes 15 Torsion [CA]-CB--CG-[ND1] |==|  0.17172
ROOT
ATOM      1  CA  HIS C   2      25.596  -0.645  39.884  1.00 11.69 LIG 0.18  C 
ENDROOT
BRANCH 1 2
ATOM      2  N   HIS C   2      25.526   0.578  40.683  1.00 10.87 LIG-0.35  N 
ATOM      3 H    HIS C   2      25.505   1.307  40.228  1.00 10.87 LIG 0.16  HD
ATOM      4  C   PHE C   1      25.501   0.521  42.009  1.00 11.47 LIG 0.24  C 
ATOM      5 O    PHE C   1      25.403  -0.548  42.639  1.00 12.97 LIG-0.27  OA
BRANCH 4 6
ATOM      6  CA  PHE C   1      25.551   1.868  42.735  1.00 11.05 LIG 0.18  C 
BRANCH 6 7
ATOM      7  CB  PHE C   1      26.975   2.433  42.705  1.00 10.09 LIG 0.07  C 
BRANCH 7 8
ATOM      8  CG  PHE C   1      27.290   3.195  41.455  1.00  8.73 LIG-0.06  A 
ATOM      9  CD2 PHE C   1      27.041   4.546  41.372  1.00  8.91 LIG 0.01  A 
ATOM     10  CE2 PHE C   1      27.325   5.235  40.212  1.00  8.44 LIG 0.00  A 
ATOM     11  CZ  PHE C   1      27.848   4.568  39.121  1.00  8.32 LIG 0.00  A 
ATOM     12  CE1 PHE C   1      28.109   3.218  39.200  1.00  8.07 LIG 0.00  A 
ATOM     13  CD1 PHE C   1      27.816   2.538  40.357  1.00  8.33 LIG 0.01  A 
ENDBRANCH 7 8
ENDBRANCH 6 7
BRANCH 6 14
ATOM     14  N   PHE C   1      25.096   1.740  44.101  1.00 11.54 LIG-0.35  N 
ATOM     15 H    PHE C   1      25.493   1.111  44.533  1.00 11.54 LIG 0.16  HD
ATOM     16  C   ACE C   0      24.164   2.504  44.648  1.00 13.21 LIG 0.21  C 
ATOM     17  CH3 ACE C   0      23.645   2.141  46.010  1.00 13.47 LIG 0.12  C 
ATOM     18 O    ACE C   0      23.629   3.337  43.918  1.00 14.75 LIG-0.27  OA
ENDBRANCH 6 14
ENDBRANCH 4 6
ENDBRANCH 1 2
BRANCH 1 19
ATOM     19  C   HIS C   2      26.906  -1.322  40.178  1.00 11.19 LIG 0.24  C 
ATOM     20  N   THR C   3      26.922  -2.644  40.078  1.00 11.67 LIG-0.34  N 
ATOM     21 H    THR C   3      26.233  -3.128  39.900  1.00 11.67 LIG 0.16  HD
ATOM     22 O    HIS C   2      27.910  -0.666  40.446  1.00 11.10 LIG-0.27  OA
BRANCH 20 23
ATOM     23  CA  THR C   3      28.154  -3.379  40.271  1.00 11.71 LIG 0.20  C 
BRANCH 23 24
ATOM     24  CB  THR C   3      27.951  -4.910  40.110  1.00 13.34 LIG 0.15  C 
ATOM     25  CG2 THR C   3      28.152  -5.642  41.413  1.00 14.42 LIG 0.04  C 
BRANCH 24 26
ATOM     26 OG1  THR C   3      26.624  -5.145  39.648  1.00 13.01 LIG-0.39  OA
ATOM     27 HG1  THR C   3      26.649  -5.619  38.955  1.00 13.01 LIG 0.21  HD
ENDBRANCH 24 26
ENDBRANCH 23 24
BRANCH 23 28
ATOM     28  C   THR C   3      29.245  -2.856  39.324  1.00 11.33 LIG 0.24  C 
ATOM     29  N   ALA C   4      30.507  -3.083  39.684  1.00 10.31 LIG-0.35  N 
ATOM     30 H    ALA C   4      30.746  -3.392  40.450  1.00 10.31 LIG 0.16  HD
ATOM     31 O    THR C   3      28.949  -2.255  38.283  1.00 11.88 LIG-0.27  OA
BRANCH 29 32
ATOM     32  CA  ALA C   4      31.602  -2.809  38.762  1.00 10.35 LIG 0.18  C 
ATOM     33  CB  ALA C   4      32.926  -2.650  39.525  1.00 10.31 LIG 0.04  C 
BRANCH 32 34
ATOM     34  C   ALA C   4      31.709  -3.911  37.677  1.00 10.99 LIG 0.28  C 
ATOM     35 O    ALA C   4      32.567  -3.849  36.804  0.79 11.43 LIG-0.27  OA
ATOM     36  N   NH2 C   5      30.839  -4.913  37.747  0.91 10.97 LIG-0.11  N 
ENDBRANCH 32 34
ENDBRANCH 29 32
ENDBRANCH 23 28
ENDBRANCH 20 23
ENDBRANCH 1 19
BRANCH 1 37
ATOM     37  CB  HIS C   2      25.569  -0.355  38.391  1.00 14.08 LIG 0.10  C 
BRANCH 37 38
ATOM     38  CG  HIS C   2      24.269  -0.660  37.738  1.00 15.42 LIG 0.06  A 
ATOM     39  CD2 HIS C   2      23.967  -1.539  36.760  1.00 15.59 LIG 0.14  A 
ATOM     40 NE2  HIS C   2      22.619  -1.430  36.517  1.00 17.02 LIG-0.25  NA
ATOM     41  CE1 HIS C   2      22.112  -0.518  37.324  1.00 16.99 LIG 0.23  A 
ATOM     42 ND1  HIS C   2      23.087  -0.034  38.072  0.48 15.92 LIG-0.24  NA
ENDBRANCH 37 38
ENDBRANCH 1 37
TORSDOF 14
ENDMDL
MODEL 65
USER: ADFR SOLUTION from run 94
USER: SCORE 12.162877 LL:  -3.118 LR: -10.245 RR:   0.000 FEB:  -6.069
USER: RMSD 6.116851
USER: SEED 93
USER: STATUS no improvement in best in 30 clusters for 5 generations
USER: GENES 16
USER: genes 0 Translation |==|  0.54953 0.37565 0.41409
USER: genes 1 Rotation |==|  0.50416 0.25764 0.06625 0.55570
USER: genes 2 Torsion [C]-CA--N-[C] |==|  0.86577
USER: genes 3 Torsion [N]-C--CA-[N] |==|  0.98718
USER: genes 4 Torsion [C]-CA--CB-[CG] |==|  0.83417
USER: genes 5 Torsion [CA]-CB--CG-[CD2] |==|  0.66777
USER: genes 6 Torsion [C]-CA--N-[C] |==|  0.75202
USER: genes 7 Torsion [N]-CA--C-[N] |==|  0.31126
USER: genes 8 Torsion [C]-N--CA-[CB] |==|  0.21236
USER: genes 9 Torsion [N]-CA--CB-[CG2] |==|  0.71511
USER: genes 10 Torsion [CA]-CB--OG1-[HG1] |==|  0.79375
USER: genes 11 Torsion [N]-CA--C-[N] |==|  0.98333
USER: genes 12 Torsion [C]-N--CA-[C] |==|  0.69807
USER: genes 13 Torsion [N]-CA--C-[N] |==|  0.01914
USER: genes 14 Torsion [N]-CA--CB-[CG] |==|  0.52975
USER: genes 15 Torsion [CA]-CB--CG-[ND1] |==|  0.01167
ROOT
ATOM      1  CA  HIS C   2      25.743   0.535  41.187  1.00 11.69 LIG 0.18  C 
ENDROOT
BRANCH 1 2
ATOM      2  N   HIS C   2      25.932  -0.471  40.143  1.00 10.87 LIG-0.35  N 
ATOM      3 H    HIS C   2      25.641  -1.256  40.339  1.00 10.87 LIG 0.16  HD
ATOM      4  C   PHE C   1      26.516  -0.153  38.993  1.00 11.47 LIG 0.24  C 
ATOM      5 O    PHE C   1      26.811   1.016  38.685  1.00 12.97 LIG-0.27  OA
BRANCH 4 6
ATOM      6  CA  PHE C   1      26.767  -1.316  38.030  1.00 11.05 LIG 0.18  C 
BRANCH 6 7
ATOM      7  CB  PHE C   1      25.985  -1.106  36.730  1.00 10.09 LIG 0.07  C 
BRANCH 7 8
ATOM      8  CG  PHE C   1      24.503  -1.011  36.933  1.00  8.73 LIG-0.06  A 
ATOM      9  CD2 PHE C   1      23.652  -1.913  36.338  1.00  8.91 LIG 0.01  A 
ATOM     10  CE2 PHE C   1      22.289  -1.809  36.522  1.00  8.44 LIG 0.00  A 
ATOM     11  CZ  PHE C   1      21.772  -0.788  37.295  1.00  8.32 LIG 0.00  A 
ATOM     12  CE1 PHE C   1      22.619   0.113  37.903  1.00  8.07 LIG 0.00  A 
ATOM     13  CD1 PHE C   1      23.974   0.007  37.707  1.00  8.33 LIG 0.01  A 
ENDBRANCH 7 8
ENDBRANCH 6 7
BRANCH 6 14
ATOM     14  N   PHE C   1      26.401  -2.578  38.633  1.00 11.54 LIG-0.35  N 
ATOM     15 H    PHE C   1      25.584  -2.801  38.481  1.00 11.54 LIG 0.16  HD
ATOM     16  C   ACE C   0      27.224  -3.327  39.349  1.00 13.21 LIG 0.21  C 
ATOM     17  CH3 ACE C   0      26.666  -4.513  40.080  1.00 13.47 LIG 0.12  C 
ATOM     18 O    ACE C   0      28.354  -2.879  39.543  1.00 14.75 LIG-0.27  OA
ENDBRANCH 6 14
ENDBRANCH 4 6
ENDBRANCH 1 2
BRANCH 1 19
ATOM     19  C   HIS C   2      27.047   1.260  41.381  1.00 11.19 LIG 0.24  C 
ATOM     20  N   THR C   3      27.074   2.533  41.010  1.00 11.67 LIG-0.34  N 
ATOM     21 H    THR C   3      26.418   2.946  40.636  1.00 11.67 LIG 0.16  HD
ATOM     22 O    HIS C   2      28.009   0.701  41.902  1.00 11.10 LIG-0.27  OA
BRANCH 20 23
ATOM     23  CA  THR C   3      28.261   3.333  41.224  1.00 11.71 LIG 0.20  C 
BRANCH 23 24
ATOM     24  CB  THR C   3      29.374   3.013  40.190  1.00 13.34 LIG 0.15  C 
ATOM     25  CG2 THR C   3      30.455   2.143  40.781  1.00 14.42 LIG 0.04  C 
BRANCH 24 26
ATOM     26 OG1  THR C   3      28.785   2.332  39.086  1.00 13.01 LIG-0.39  OA
ATOM     27 HG1  THR C   3      28.604   1.542  39.308  1.00 13.01 LIG 0.21  HD
ENDBRANCH 24 26
ENDBRANCH 23 24
BRANCH 23 28
ATOM     28  C   THR C   3      27.907   4.828  41.222  1.00 11.33 LIG 0.24  C 
ATOM     29  N   ALA C   4      26.652   5.144  40.912  1.00 10.31 LIG-0.35  N 
ATOM     30 H    ALA C   4      26.071   4.588  40.606  1.00 10.31 LIG 0.16  HD
ATOM     31 O    THR C   3      28.759   5.683  41.498  1.00 11.88 LIG-0.27  OA
BRANCH 29 32
ATOM     32  CA  ALA C   4      26.167   6.509  41.079  1.00 10.35 LIG 0.18  C 
ATOM     33  CB  ALA C   4      25.531   7.021  39.778  1.00 10.31 LIG 0.04  C 
BRANCH 32 34
ATOM     34  C   ALA C   4      25.174   6.608  42.265  1.00 10.99 LIG 0.28  C 
ATOM     35 O    ALA C   4      24.557   7.645  42.482  0.79 11.43 LIG-0.27  OA
ATOM     36  N   NH2 C   5      25.023   5.523  43.019  0.91 10.97 LIG-0.11  N 
ENDBRANCH 32 34
ENDBRANCH 29 32
ENDBRANCH 23 28
ENDBRANCH 20 23
ENDBRANCH 1 19
BRANCH 1 37
ATOM     37  CB  HIS C   2      25.379  -0.091  42.526  1.00 14.08 LIG 0.10  C 
BRANCH 37 38
ATOM     38  CG  HIS C   2      24.932   0.888  43.550  1.00 15.42 LIG 0.06  A 
ATOM     39  CD2 HIS C   2      24.611   0.709  44.849  1.00 15.59 LIG 0.14  A 
ATOM     40 NE2  HIS C   2      24.262   1.939  45.355  1.00 17.02 LIG-0.25  NA
ATOM     41  CE1 HIS C   2      24.371   2.841  44.398  1.00 16.99 LIG 0.23  A 
ATOM     42 ND1  HIS C   2      24.772   2.233  43.296  0.48 15.92 LIG-0.24  NA
ENDBRANCH 37 38
ENDBRANCH 1 37
TORSDOF 14
ENDMDL
MODEL 66
USER: ADFR SOLUTION from run 65
USER: SCORE 12.745601 LL:  -3.016 LR: -10.222 RR:   0.000 FEB:  -6.046
USER: RMSD 4.324032
USER: SEED 64
USER: STATUS no improvement in best in 28 clusters for 5 generations
USER: GENES 16
USER: genes 0 Translation |==|  0.49748 0.38672 0.53359
USER: genes 1 Rotation |==|  0.64138 0.46193 0.17462 0.85028
USER: genes 2 Torsion [C]-CA--N-[C] |==|  0.55472
USER: genes 3 Torsion [N]-C--CA-[N] |==|  0.12619
USER: genes 4 Torsion [C]-CA--CB-[CG] |==|  0.25907
USER: genes 5 Torsion [CA]-CB--CG-[CD2] |==|  0.97578
USER: genes 6 Torsion [C]-CA--N-[C] |==|  0.16667
USER: genes 7 Torsion [N]-CA--C-[N] |==|  0.45135
USER: genes 8 Torsion [C]-N--CA-[CB] |==|  0.19046
USER: genes 9 Torsion [N]-CA--CB-[CG2] |==|  0.63329
USER: genes 10 Torsion [CA]-CB--OG1-[HG1] |==|  0.21951
USER: genes 11 Torsion [N]-CA--C-[N] |==|  0.05301
USER: genes 12 Torsion [C]-N--CA-[C] |==|  0.78444
USER: genes 13 Torsion [N]-CA--C-[N] |==|  0.95072
USER: genes 14 Torsion [N]-CA--CB-[CG] |==|  0.56174
USER: genes 15 Torsion [CA]-CB--CG-[ND1] |==|  0.05927
ROOT
ATOM      1  CA  HIS C   2      24.728   0.718  43.607  1.00 11.69 LIG 0.18  C 
ENDROOT
BRANCH 1 2
ATOM      2  N   HIS C   2      25.098   1.219  42.284  1.00 10.87 LIG-0.35  N 
ATOM      3 H    HIS C   2      25.280   2.058  42.253  1.00 10.87 LIG 0.16  HD
ATOM      4  C   PHE C   1      25.138   0.403  41.237  1.00 11.47 LIG 0.24  C 
ATOM      5 O    PHE C   1      24.996  -0.829  41.334  1.00 12.97 LIG-0.27  OA
BRANCH 4 6
ATOM      6  CA  PHE C   1      25.419   1.066  39.886  1.00 11.05 LIG 0.18  C 
BRANCH 6 7
ATOM      7  CB  PHE C   1      25.738   0.003  38.830  1.00 10.09 LIG 0.07  C 
BRANCH 7 8
ATOM      8  CG  PHE C   1      24.540  -0.439  38.046  1.00  8.73 LIG-0.06  A 
ATOM      9  CD2 PHE C   1      23.275  -0.041  38.411  1.00  8.91 LIG 0.01  A 
ATOM     10  CE2 PHE C   1      22.178  -0.463  37.688  1.00  8.44 LIG 0.00  A 
ATOM     11  CZ  PHE C   1      22.346  -1.300  36.602  1.00  8.32 LIG 0.00  A 
ATOM     12  CE1 PHE C   1      23.611  -1.693  36.225  1.00  8.07 LIG 0.00  A 
ATOM     13  CD1 PHE C   1      24.696  -1.275  36.955  1.00  8.33 LIG 0.01  A 
ENDBRANCH 7 8
ENDBRANCH 6 7
BRANCH 6 14
ATOM     14  N   PHE C   1      26.511   2.009  39.988  1.00 11.54 LIG-0.35  N 
ATOM     15 H    PHE C   1      26.285   2.812  39.780  1.00 11.54 LIG 0.16  HD
ATOM     16  C   ACE C   0      27.738   1.687  40.362  1.00 13.21 LIG 0.21  C 
ATOM     17  CH3 ACE C   0      28.822   2.718  40.238  1.00 13.47 LIG 0.12  C 
ATOM     18 O    ACE C   0      27.957   0.497  40.585  1.00 14.75 LIG-0.27  OA
ENDBRANCH 6 14
ENDBRANCH 4 6
ENDBRANCH 1 2
BRANCH 1 19
ATOM     19  C   HIS C   2      24.302   1.890  44.449  1.00 11.19 LIG 0.24  C 
ATOM     20  N   THR C   3      23.601   1.608  45.539  1.00 11.67 LIG-0.34  N 
ATOM     21 H    THR C   3      23.347   0.818  45.765  1.00 11.67 LIG 0.16  HD
ATOM     22 O    HIS C   2      24.637   3.034  44.153  1.00 11.10 LIG-0.27  OA
BRANCH 20 23
ATOM     23  CA  THR C   3      23.208   2.662  46.450  1.00 11.71 LIG 0.20  C 
BRANCH 23 24
ATOM     24  CB  THR C   3      22.151   3.610  45.823  1.00 13.34 LIG 0.15  C 
ATOM     25  CG2 THR C   3      22.515   5.062  46.016  1.00 14.42 LIG 0.04  C 
BRANCH 24 26
ATOM     26 OG1  THR C   3      22.068   3.337  44.427  1.00 13.01 LIG-0.39  OA
ATOM     27 HG1  THR C   3      21.602   2.649  44.304  1.00 13.01 LIG 0.21  HD
ENDBRANCH 24 26
ENDBRANCH 23 24
BRANCH 23 28
ATOM     28  C   THR C   3      22.711   2.067  47.776  1.00 11.33 LIG 0.24  C 
ATOM     29  N   ALA C   4      23.070   0.812  48.039  1.00 10.31 LIG-0.35  N 
ATOM     30 H    ALA C   4      23.455   0.288  47.476  1.00 10.31 LIG 0.16  HD
ATOM     31 O    THR C   3      22.012   2.734  48.550  1.00 11.88 LIG-0.27  OA
BRANCH 29 32
ATOM     32  CA  ALA C   4      22.823   0.229  49.352  1.00 10.35 LIG 0.18  C 
ATOM     33  CB  ALA C   4      22.809  -1.304  49.270  1.00 10.31 LIG 0.04  C 
BRANCH 32 34
ATOM     34  C   ALA C   4      23.863   0.726  50.389  1.00 10.99 LIG 0.28  C 
ATOM     35 O    ALA C   4      23.652   0.613  51.592  0.79 11.43 LIG-0.27  OA
ATOM     36  N   NH2 C   5      24.980   1.265  49.914  0.91 10.97 LIG-0.11  N 
ENDBRANCH 32 34
ENDBRANCH 29 32
ENDBRANCH 23 28
ENDBRANCH 20 23
ENDBRANCH 1 19
BRANCH 1 37
ATOM     37  CB  HIS C   2      25.902   0.062  44.320  1.00 14.08 LIG 0.10  C 
BRANCH 37 38
ATOM     38  CG  HIS C   2      25.504  -0.896  45.384  1.00 15.42 LIG 0.06  A 
ATOM     39  CD2 HIS C   2      26.196  -1.357  46.447  1.00 15.59 LIG 0.14  A 
ATOM     40 NE2  HIS C   2      25.372  -2.226  47.123  1.00 17.02 LIG-0.25  NA
ATOM     41  CE1 HIS C   2      24.212  -2.289  46.496  1.00 16.99 LIG 0.23  A 
ATOM     42 ND1  HIS C   2      24.265  -1.498  45.440  0.48 15.92 LIG-0.24  NA
ENDBRANCH 37 38
ENDBRANCH 1 37
TORSDOF 14
ENDMDL
MODEL 67
USER: ADFR SOLUTION from run 192
USER: SCORE 11.777312 LL:  -3.225 LR: -10.209 RR:   0.000 FEB:  -6.033
USER: RMSD 3.446594
USER: SEED 191
USER: STATUS no improvement in best in 10 clusters for 5 generations
USER: GENES 16
USER: genes 0 Translation |==|  0.56085 0.50800 0.54939
USER: genes 1 Rotation |==|  0.49630 0.51743 0.51430 0.99948
USER: genes 2 Torsion [C]-CA--N-[C] |==|  0.74167
USER: genes 3 Torsion [N]-C--CA-[N] |==|  0.30556
USER: genes 4 Torsion [C]-CA--CB-[CG] |==|  0.48366
USER: genes 5 Torsion [CA]-CB--CG-[CD2] |==|  0.70404
USER: genes 6 Torsion [C]-CA--N-[C] |==|  0.76425
USER: genes 7 Torsion [N]-CA--C-[N] |==|  0.55940
USER: genes 8 Torsion [C]-N--CA-[CB] |==|  0.86278
USER: genes 9 Torsion [N]-CA--CB-[CG2] |==|  0.55979
USER: genes 10 Torsion [CA]-CB--OG1-[HG1] |==|  0.27412
USER: genes 11 Torsion [N]-CA--C-[N] |==|  0.79494
USER: genes 12 Torsion [C]-N--CA-[C] |==|  0.81221
USER: genes 13 Torsion [N]-CA--C-[N] |==|  0.36353
USER: genes 14 Torsion [N]-CA--CB-[CG] |==|  0.08111
USER: genes 15 Torsion [CA]-CB--CG-[ND1] |==|  0.77123
ROOT
ATOM      1  CA  HIS C   2      25.964   2.719  43.927  1.00 11.69 LIG 0.18  C 
ENDROOT
BRANCH 1 2
ATOM      2  N   HIS C   2      25.805   2.354  42.520  1.00 10.87 LIG-0.35  N 
ATOM      3 H    HIS C   2      25.621   3.010  41.994  1.00 10.87 LIG 0.16  HD
ATOM      4  C   PHE C   1      25.943   1.093  42.126  1.00 11.47 LIG 0.24  C 
ATOM      5 O    PHE C   1      26.335   0.188  42.884  1.00 12.97 LIG-0.27  OA
BRANCH 4 6
ATOM      6  CA  PHE C   1      25.633   0.818  40.653  1.00 11.05 LIG 0.18  C 
BRANCH 6 7
ATOM      7  CB  PHE C   1      24.626  -0.330  40.528  1.00 10.09 LIG 0.07  C 
BRANCH 7 8
ATOM      8  CG  PHE C   1      24.164  -0.569  39.123  1.00  8.73 LIG-0.06  A 
ATOM      9  CD2 PHE C   1      22.899  -0.203  38.726  1.00  8.91 LIG 0.01  A 
ATOM     10  CE2 PHE C   1      22.480  -0.439  37.434  1.00  8.44 LIG 0.00  A 
ATOM     11  CZ  PHE C   1      23.327  -1.058  36.534  1.00  8.32 LIG 0.00  A 
ATOM     12  CE1 PHE C   1      24.599  -1.418  36.922  1.00  8.07 LIG 0.00  A 
ATOM     13  CD1 PHE C   1      25.004  -1.187  38.213  1.00  8.33 LIG 0.01  A 
ENDBRANCH 7 8
ENDBRANCH 6 7
BRANCH 6 14
ATOM     14  N   PHE C   1      26.839   0.503  39.919  1.00 11.54 LIG-0.35  N 
ATOM     15 H    PHE C   1      26.983  -0.342  39.851  1.00 11.54 LIG 0.16  HD
ATOM     16  C   ACE C   0      27.649   1.410  39.397  1.00 13.21 LIG 0.21  C 
ATOM     17  CH3 ACE C   0      28.965   0.959  38.831  1.00 13.47 LIG 0.12  C 
ATOM     18 O    ACE C   0      27.368   2.590  39.603  1.00 14.75 LIG-0.27  OA
ENDBRANCH 6 14
ENDBRANCH 4 6
ENDBRANCH 1 2
BRANCH 1 19
ATOM     19  C   HIS C   2      24.606   2.688  44.574  1.00 11.19 LIG 0.24  C 
ATOM     20  N   THR C   3      24.470   3.391  45.690  1.00 11.67 LIG-0.34  N 
ATOM     21 H    THR C   3      25.107   3.819  46.079  1.00 11.67 LIG 0.16  HD
ATOM     22 O    HIS C   2      23.673   2.079  44.057  1.00 11.10 LIG-0.27  OA
BRANCH 20 23
ATOM     23  CA  THR C   3      23.183   3.481  46.347  1.00 11.71 LIG 0.20  C 
BRANCH 23 24
ATOM     24  CB  THR C   3      22.050   3.865  45.359  1.00 13.34 LIG 0.15  C 
ATOM     25  CG2 THR C   3      20.860   4.459  46.072  1.00 14.42 LIG 0.04  C 
BRANCH 24 26
ATOM     26 OG1  THR C   3      22.559   4.822  44.434  1.00 13.01 LIG-0.39  OA
ATOM     27 HG1  THR C   3      22.773   4.435  43.720  1.00 13.01 LIG 0.21  HD
ENDBRANCH 24 26
ENDBRANCH 23 24
BRANCH 23 28
ATOM     28  C   THR C   3      22.864   2.172  47.085  1.00 11.33 LIG 0.24  C 
ATOM     29  N   ALA C   4      22.521   1.130  46.330  1.00 10.31 LIG-0.35  N 
ATOM     30 H    ALA C   4      22.357   1.173  45.487  1.00 10.31 LIG 0.16  HD
ATOM     31 O    THR C   3      22.927   2.106  48.319  1.00 11.88 LIG-0.27  OA
BRANCH 29 32
ATOM     32  CA  ALA C   4      22.398  -0.201  46.913  1.00 10.35 LIG 0.18  C 
ATOM     33  CB  ALA C   4      21.721  -1.163  45.927  1.00 10.31 LIG 0.04  C 
BRANCH 32 34
ATOM     34  C   ALA C   4      23.778  -0.741  47.367  1.00 10.99 LIG 0.28  C 
ATOM     35 O    ALA C   4      24.746  -0.697  46.616  0.79 11.43 LIG-0.27  OA
ATOM     36  N   NH2 C   5      23.858  -1.240  48.596  0.91 10.97 LIG-0.11  N 
ENDBRANCH 32 34
ENDBRANCH 29 32
ENDBRANCH 23 28
ENDBRANCH 20 23
ENDBRANCH 1 19
BRANCH 1 37
ATOM     37  CB  HIS C   2      26.503   4.132  44.094  1.00 14.08 LIG 0.10  C 
BRANCH 37 38
ATOM     38  CG  HIS C   2      26.131   5.056  42.992  1.00 15.42 LIG 0.06  A 
ATOM     39  CD2 HIS C   2      25.136   5.965  42.911  1.00 15.59 LIG 0.14  A 
ATOM     40 NE2  HIS C   2      25.226   6.558  41.675  1.00 17.02 LIG-0.25  NA
ATOM     41  CE1 HIS C   2      26.246   6.034  41.022  1.00 16.99 LIG 0.23  A 
ATOM     42 ND1  HIS C   2      26.809   5.121  41.793  0.48 15.92 LIG-0.24  NA
ENDBRANCH 37 38
ENDBRANCH 1 37
TORSDOF 14
ENDMDL
MODEL 68
USER: ADFR SOLUTION from run 74
USER: SCORE 11.969024 LL:  -3.266 LR: -10.202 RR:   0.000 FEB:  -6.026
USER: RMSD 5.504735
USER: SEED 73
USER: STATUS no improvement in best in 20 clusters for 5 generations
USER: GENES 16
USER: genes 0 Translation |==|  0.52525 0.36899 0.39117
USER: genes 1 Rotation |==|  0.22849 0.63580 0.88191 0.60950
USER: genes 2 Torsion [C]-CA--N-[C] |==|  0.69262
USER: genes 3 Torsion [N]-C--CA-[N] |==|  0.86698
USER: genes 4 Torsion [C]-CA--CB-[CG] |==|  0.73842
USER: genes 5 Torsion [CA]-CB--CG-[CD2] |==|  0.25077
USER: genes 6 Torsion [C]-CA--N-[C] |==|  0.84271
USER: genes 7 Torsion [N]-CA--C-[N] |==|  0.30556
USER: genes 8 Torsion [C]-N--CA-[CB] |==|  0.48500
USER: genes 9 Torsion [N]-CA--CB-[CG2] |==|  0.80631
USER: genes 10 Torsion [CA]-CB--OG1-[HG1] |==|  0.87880
USER: genes 11 Torsion [N]-CA--C-[N] |==|  0.27651
USER: genes 12 Torsion [C]-N--CA-[C] |==|  0.81813
USER: genes 13 Torsion [N]-CA--C-[N] |==|  0.37701
USER: genes 14 Torsion [N]-CA--CB-[CG] |==|  0.76918
USER: genes 15 Torsion [CA]-CB--CG-[ND1] |==|  0.63852
ROOT
ATOM      1  CA  HIS C   2      25.269   0.425  40.723  1.00 11.69 LIG 0.18  C 
ENDROOT
BRANCH 1 2
ATOM      2  N   HIS C   2      26.516  -0.250  40.366  1.00 10.87 LIG-0.35  N 
ATOM      3 H    HIS C   2      26.592  -1.053  40.666  1.00 10.87 LIG 0.16  HD
ATOM      4  C   PHE C   1      27.436   0.366  39.633  1.00 11.47 LIG 0.24  C 
ATOM      5 O    PHE C   1      27.247   1.477  39.105  1.00 12.97 LIG-0.27  OA
BRANCH 4 6
ATOM      6  CA  PHE C   1      28.746  -0.397  39.428  1.00 11.05 LIG 0.18  C 
BRANCH 6 7
ATOM      7  CB  PHE C   1      28.544  -1.539  38.427  1.00 10.09 LIG 0.07  C 
BRANCH 7 8
ATOM      8  CG  PHE C   1      28.231  -2.853  39.074  1.00  8.73 LIG-0.06  A 
ATOM      9  CD2 PHE C   1      26.929  -3.223  39.321  1.00  8.91 LIG 0.01  A 
ATOM     10  CE2 PHE C   1      26.652  -4.430  39.927  1.00  8.44 LIG 0.00  A 
ATOM     11  CZ  PHE C   1      27.684  -5.268  40.302  1.00  8.32 LIG 0.00  A 
ATOM     12  CE1 PHE C   1      28.990  -4.909  40.049  1.00  8.07 LIG 0.00  A 
ATOM     13  CD1 PHE C   1      29.256  -3.702  39.452  1.00  8.33 LIG 0.01  A 
ENDBRANCH 7 8
ENDBRANCH 6 7
BRANCH 6 14
ATOM     14  N   PHE C   1      29.245  -0.919  40.682  1.00 11.54 LIG-0.35  N 
ATOM     15 H    PHE C   1      29.363  -1.770  40.671  1.00 11.54 LIG 0.16  HD
ATOM     16  C   ACE C   0      29.499  -0.175  41.747  1.00 13.21 LIG 0.21  C 
ATOM     17  CH3 ACE C   0      29.825  -0.861  43.042  1.00 13.47 LIG 0.12  C 
ATOM     18 O    ACE C   0      29.242   1.025  41.661  1.00 14.75 LIG-0.27  OA
ENDBRANCH 6 14
ENDBRANCH 4 6
ENDBRANCH 1 2
BRANCH 1 19
ATOM     19  C   HIS C   2      25.293   0.700  42.202  1.00 11.19 LIG 0.24  C 
ATOM     20  N   THR C   3      25.417   1.970  42.562  1.00 11.67 LIG-0.34  N 
ATOM     21 H    THR C   3      25.524   2.625  42.015  1.00 11.67 LIG 0.16  HD
ATOM     22 O    HIS C   2      25.155  -0.209  43.016  1.00 11.10 LIG-0.27  OA
BRANCH 20 23
ATOM     23  CA  THR C   3      25.378   2.342  43.961  1.00 11.71 LIG 0.20  C 
BRANCH 23 24
ATOM     24  CB  THR C   3      25.674   3.851  44.172  1.00 13.34 LIG 0.15  C 
ATOM     25  CG2 THR C   3      27.115   4.186  43.876  1.00 14.42 LIG 0.04  C 
BRANCH 24 26
ATOM     26 OG1  THR C   3      24.836   4.604  43.300  1.00 13.01 LIG-0.39  OA
ATOM     27 HG1  THR C   3      24.826   4.245  42.541  1.00 13.01 LIG 0.21  HD
ENDBRANCH 24 26
ENDBRANCH 23 24
BRANCH 23 28
ATOM     28  C   THR C   3      24.031   1.942  44.585  1.00 11.33 LIG 0.24  C 
ATOM     29  N   ALA C   4      24.013   0.814  45.291  1.00 10.31 LIG-0.35  N 
ATOM     30 H    ALA C   4      24.660   0.249  45.323  1.00 10.31 LIG 0.16  HD
ATOM     31 O    THR C   3      23.025   2.646  44.429  1.00 11.88 LIG-0.27  OA
BRANCH 29 32
ATOM     32  CA  ALA C   4      22.845   0.456  46.087  1.00 10.35 LIG 0.18  C 
ATOM     33  CB  ALA C   4      22.967  -0.982  46.612  1.00 10.31 LIG 0.04  C 
BRANCH 32 34
ATOM     34  C   ALA C   4      22.630   1.460  47.248  1.00 10.99 LIG 0.28  C 
ATOM     35 O    ALA C   4      23.575   1.845  47.927  0.79 11.43 LIG-0.27  OA
ATOM     36  N   NH2 C   5      21.387   1.881  47.461  0.91 10.97 LIG-0.11  N 
ENDBRANCH 32 34
ENDBRANCH 29 32
ENDBRANCH 23 28
ENDBRANCH 20 23
ENDBRANCH 1 19
BRANCH 1 37
ATOM     37  CB  HIS C   2      24.050  -0.444  40.452  1.00 14.08 LIG 0.10  C 
BRANCH 37 38
ATOM     38  CG  HIS C   2      23.579  -0.403  39.043  1.00 15.42 LIG 0.06  A 
ATOM     39  CD2 HIS C   2      24.261  -0.563  37.889  1.00 15.59 LIG 0.14  A 
ATOM     40 NE2  HIS C   2      23.358  -0.430  36.861  1.00 17.02 LIG-0.25  NA
ATOM     41  CE1 HIS C   2      22.162  -0.202  37.370  1.00 16.99 LIG 0.23  A 
ATOM     42 ND1  HIS C   2      22.267  -0.177  38.687  0.48 15.92 LIG-0.24  NA
ENDBRANCH 37 38
ENDBRANCH 1 37
TORSDOF 14
ENDMDL
MODEL 69
USER: ADFR SOLUTION from run 72
USER: SCORE 12.453654 LL:  -2.939 LR: -10.200 RR:   0.000 FEB:  -6.024
USER: RMSD 8.624055
USER: SEED 71
USER: STATUS no improvement in best in 10 clusters for 5 generations
USER: GENES 16
USER: genes 0 Translation |==|  0.47946 0.70039 0.50965
USER: genes 1 Rotation |==|  0.78257 0.83448 0.37863 0.70869
USER: genes 2 Torsion [C]-CA--N-[C] |==|  0.82864
USER: genes 3 Torsion [N]-C--CA-[N] |==|  0.15455
USER: genes 4 Torsion [C]-CA--CB-[CG] |==|  0.23105
USER: genes 5 Torsion [CA]-CB--CG-[CD2] |==|  0.79244
USER: genes 6 Torsion [C]-CA--N-[C] |==|  0.15373
USER: genes 7 Torsion [N]-CA--C-[N] |==|  0.41263
USER: genes 8 Torsion [C]-N--CA-[CB] |==|  0.18790
USER: genes 9 Torsion [N]-CA--CB-[CG2] |==|  0.71601
USER: genes 10 Torsion [CA]-CB--OG1-[HG1] |==|  0.42359
USER: genes 11 Torsion [N]-CA--C-[N] |==|  0.05000
USER: genes 12 Torsion [C]-N--CA-[C] |==|  0.58936
USER: genes 13 Torsion [N]-CA--C-[N] |==|  0.47506
USER: genes 14 Torsion [N]-CA--CB-[CG] |==|  0.68757
USER: genes 15 Torsion [CA]-CB--CG-[ND1] |==|  0.23487
ROOT
ATOM      1  CA  HIS C   2      24.376   5.893  43.122  1.00 11.69 LIG 0.18  C 
ENDROOT
BRANCH 1 2
ATOM      2  N   HIS C   2      23.651   6.899  43.898  1.00 10.87 LIG-0.35  N 
ATOM      3 H    HIS C   2      24.073   7.639  44.016  1.00 10.87 LIG 0.16  HD
ATOM      4  C   PHE C   1      22.434   6.646  44.366  1.00 11.47 LIG 0.24  C 
ATOM      5 O    PHE C   1      21.797   5.619  44.073  1.00 12.97 LIG-0.27  OA
BRANCH 4 6
ATOM      6  CA  PHE C   1      21.828   7.727  45.264  1.00 11.05 LIG 0.18  C 
BRANCH 6 7
ATOM      7  CB  PHE C   1      20.411   7.331  45.689  1.00 10.09 LIG 0.07  C 
BRANCH 7 8
ATOM      8  CG  PHE C   1      20.376   6.408  46.869  1.00  8.73 LIG-0.06  A 
ATOM      9  CD2 PHE C   1      20.713   5.081  46.734  1.00  8.91 LIG 0.01  A 
ATOM     10  CE2 PHE C   1      20.667   4.238  47.824  1.00  8.44 LIG 0.00  A 
ATOM     11  CZ  PHE C   1      20.268   4.720  49.055  1.00  8.32 LIG 0.00  A 
ATOM     12  CE1 PHE C   1      19.940   6.051  49.200  1.00  8.07 LIG 0.00  A 
ATOM     13  CD1 PHE C   1      19.981   6.881  48.107  1.00  8.33 LIG 0.01  A 
ENDBRANCH 7 8
ENDBRANCH 6 7
BRANCH 6 14
ATOM     14  N   PHE C   1      21.806   9.008  44.593  1.00 11.54 LIG-0.35  N 
ATOM     15 H    PHE C   1      22.203   9.629  45.035  1.00 11.54 LIG 0.16  HD
ATOM     16  C   ACE C   0      21.236   9.220  43.417  1.00 13.21 LIG 0.21  C 
ATOM     17  CH3 ACE C   0      21.112  10.632  42.922  1.00 13.47 LIG 0.12  C 
ATOM     18 O    ACE C   0      20.652   8.267  42.903  1.00 14.75 LIG-0.27  OA
ENDBRANCH 6 14
ENDBRANCH 4 6
ENDBRANCH 1 2
BRANCH 1 19
ATOM     19  C   HIS C   2      24.588   4.690  43.999  1.00 11.19 LIG 0.24  C 
ATOM     20  N   THR C   3      24.616   3.513  43.387  1.00 11.67 LIG-0.34  N 
ATOM     21 H    THR C   3      24.481   3.398  42.545  1.00 11.67 LIG 0.16  HD
ATOM     22 O    HIS C   2      24.773   4.813  45.207  1.00 11.10 LIG-0.27  OA
BRANCH 20 23
ATOM     23  CA  THR C   3      24.885   2.304  44.136  1.00 11.71 LIG 0.20  C 
BRANCH 23 24
ATOM     24  CB  THR C   3      23.739   1.963  45.125  1.00 13.34 LIG 0.15  C 
ATOM     25  CG2 THR C   3      24.091   2.338  46.543  1.00 14.42 LIG 0.04  C 
BRANCH 24 26
ATOM     26 OG1  THR C   3      22.573   2.681  44.733  1.00 13.01 LIG-0.39  OA
ATOM     27 HG1  THR C   3      21.889   2.260  44.980  1.00 13.01 LIG 0.21  HD
ENDBRANCH 24 26
ENDBRANCH 23 24
BRANCH 23 28
ATOM     28  C   THR C   3      25.170   1.134  43.181  1.00 11.33 LIG 0.24  C 
ATOM     29  N   ALA C   4      25.491   1.451  41.929  1.00 10.31 LIG-0.35  N 
ATOM     30 H    ALA C   4      25.437   2.243  41.598  1.00 10.31 LIG 0.16  HD
ATOM     31 O    THR C   3      25.099  -0.038  43.573  1.00 11.88 LIG-0.27  OA
BRANCH 29 32
ATOM     32  CA  ALA C   4      25.974   0.431  41.006  1.00 10.35 LIG 0.18  C 
ATOM     33  CB  ALA C   4      24.800  -0.246  40.284  1.00 10.31 LIG 0.04  C 
BRANCH 32 34
ATOM     34  C   ALA C   4      26.986   1.026  39.994  1.00 10.99 LIG 0.28  C 
ATOM     35 O    ALA C   4      27.170   2.237  39.930  0.79 11.43 LIG-0.27  OA
ATOM     36  N   NH2 C   5      27.640   0.169  39.217  0.91 10.97 LIG-0.11  N 
ENDBRANCH 32 34
ENDBRANCH 29 32
ENDBRANCH 23 28
ENDBRANCH 20 23
ENDBRANCH 1 19
BRANCH 1 37
ATOM     37  CB  HIS C   2      25.754   6.382  42.699  1.00 14.08 LIG 0.10  C 
BRANCH 37 38
ATOM     38  CG  HIS C   2      25.898   6.587  41.233  1.00 15.42 LIG 0.06  A 
ATOM     39  CD2 HIS C   2      26.387   5.765  40.281  1.00 15.59 LIG 0.14  A 
ATOM     40 NE2  HIS C   2      26.298   6.433  39.083  1.00 17.02 LIG-0.25  NA
ATOM     41  CE1 HIS C   2      25.768   7.623  39.296  1.00 16.99 LIG 0.23  A 
ATOM     42 ND1  HIS C   2      25.519   7.744  40.587  0.48 15.92 LIG-0.24  NA
ENDBRANCH 37 38
ENDBRANCH 1 37
TORSDOF 14
ENDMDL
MODEL 70
USER: ADFR SOLUTION from run 125
USER: SCORE 11.658089 LL:  -3.196 LR: -10.170 RR:   0.000 FEB:  -5.994
USER: RMSD 6.713858
USER: SEED 124
USER: STATUS no improvement in best in 31 clusters for 5 generations
USER: GENES 16
USER: genes 0 Translation |==|  0.59817 0.47952 0.41324
USER: genes 1 Rotation |==|  0.49096 0.23488 0.11588 0.67911
USER: genes 2 Torsion [C]-CA--N-[C] |==|  0.55384
USER: genes 3 Torsion [N]-C--CA-[N] |==|  0.41111
USER: genes 4 Torsion [C]-CA--CB-[CG] |==|  0.78283
USER: genes 5 Torsion [CA]-CB--CG-[CD2] |==|  0.68701
USER: genes 6 Torsion [C]-CA--N-[C] |==|  0.62754
USER: genes 7 Torsion [N]-CA--C-[N] |==|  0.35410
USER: genes 8 Torsion [C]-N--CA-[CB] |==|  0.25556
USER: genes 9 Torsion [N]-CA--CB-[CG2] |==|  0.88996
USER: genes 10 Torsion [CA]-CB--OG1-[HG1] |==|  0.19513
USER: genes 11 Torsion [N]-CA--C-[N] |==|  0.47664
USER: genes 12 Torsion [C]-N--CA-[C] |==|  0.81964
USER: genes 13 Torsion [N]-CA--C-[N] |==|  0.45058
USER: genes 14 Torsion [N]-CA--CB-[CG] |==|  0.68378
USER: genes 15 Torsion [CA]-CB--CG-[ND1] |==|  0.82710
ROOT
ATOM      1  CA  HIS C   2      26.691   2.249  41.170  1.00 11.69 LIG 0.18  C 
ENDROOT
BRANCH 1 2
ATOM      2  N   HIS C   2      27.059   1.177  40.246  1.00 10.87 LIG-0.35  N 
ATOM      3 H    HIS C   2      27.833   1.263  39.882  1.00 10.87 LIG 0.16  HD
ATOM      4  C   PHE C   1      26.230   0.165  40.017  1.00 11.47 LIG 0.24  C 
ATOM      5 O    PHE C   1      25.174  -0.002  40.654  1.00 12.97 LIG-0.27  OA
BRANCH 4 6
ATOM      6  CA  PHE C   1      26.674  -0.829  38.941  1.00 11.05 LIG 0.18  C 
BRANCH 6 7
ATOM      7  CB  PHE C   1      26.158  -0.389  37.568  1.00 10.09 LIG 0.07  C 
BRANCH 7 8
ATOM      8  CG  PHE C   1      24.710  -0.705  37.344  1.00  8.73 LIG-0.06  A 
ATOM      9  CD2 PHE C   1      24.330  -1.639  36.408  1.00  8.91 LIG 0.01  A 
ATOM     10  CE2 PHE C   1      22.994  -1.913  36.202  1.00  8.44 LIG 0.00  A 
ATOM     11  CZ  PHE C   1      22.030  -1.239  36.927  1.00  8.32 LIG 0.00  A 
ATOM     12  CE1 PHE C   1      22.404  -0.310  37.873  1.00  8.07 LIG 0.00  A 
ATOM     13  CD1 PHE C   1      23.736  -0.038  38.065  1.00  8.33 LIG 0.01  A 
ENDBRANCH 7 8
ENDBRANCH 6 7
BRANCH 6 14
ATOM     14  N   PHE C   1      26.207  -2.164  39.243  1.00 11.54 LIG-0.35  N 
ATOM     15 H    PHE C   1      25.381  -2.188  39.482  1.00 11.54 LIG 0.16  HD
ATOM     16  C   ACE C   0      26.960  -3.250  39.165  1.00 13.21 LIG 0.21  C 
ATOM     17  CH3 ACE C   0      26.412  -4.544  39.692  1.00 13.47 LIG 0.12  C 
ATOM     18 O    ACE C   0      28.141  -3.086  38.863  1.00 14.75 LIG-0.27  OA
ENDBRANCH 6 14
ENDBRANCH 4 6
ENDBRANCH 1 2
BRANCH 1 19
ATOM     19  C   HIS C   2      27.559   3.441  40.872  1.00 11.19 LIG 0.24  C 
ATOM     20  N   THR C   3      26.929   4.590  40.665  1.00 11.67 LIG-0.34  N 
ATOM     21 H    THR C   3      26.074   4.682  40.651  1.00 11.67 LIG 0.16  HD
ATOM     22 O    HIS C   2      28.783   3.348  40.872  1.00 11.10 LIG-0.27  OA
BRANCH 20 23
ATOM     23  CA  THR C   3      27.680   5.808  40.442  1.00 11.71 LIG 0.20  C 
BRANCH 23 24
ATOM     24  CB  THR C   3      27.936   6.067  38.933  1.00 13.34 LIG 0.15  C 
ATOM     25  CG2 THR C   3      28.259   4.793  38.192  1.00 14.42 LIG 0.04  C 
BRANCH 24 26
ATOM     26 OG1  THR C   3      26.764   6.646  38.367  1.00 13.01 LIG-0.39  OA
ATOM     27 HG1  THR C   3      26.671   7.429  38.655  1.00 13.01 LIG 0.21  HD
ENDBRANCH 24 26
ENDBRANCH 23 24
BRANCH 23 28
ATOM     28  C   THR C   3      26.976   7.002  41.105  1.00 11.33 LIG 0.24  C 
ATOM     29  N   ALA C   4      27.645   8.152  41.126  1.00 10.31 LIG-0.35  N 
ATOM     30 H    ALA C   4      28.471   8.239  40.903  1.00 10.31 LIG 0.16  HD
ATOM     31 O    THR C   3      25.844   6.882  41.590  1.00 11.88 LIG-0.27  OA
BRANCH 29 32
ATOM     32  CA  ALA C   4      26.989   9.385  41.545  1.00 10.35 LIG 0.18  C 
ATOM     33  CB  ALA C   4      28.014  10.519  41.698  1.00 10.31 LIG 0.04  C 
BRANCH 32 34
ATOM     34  C   ALA C   4      25.858   9.779  40.561  1.00 10.99 LIG 0.28  C 
ATOM     35 O    ALA C   4      25.809   9.294  39.436  0.79 11.43 LIG-0.27  OA
ATOM     36  N   NH2 C   5      24.955  10.652  40.996  0.91 10.97 LIG-0.11  N 
ENDBRANCH 32 34
ENDBRANCH 29 32
ENDBRANCH 23 28
ENDBRANCH 20 23
ENDBRANCH 1 19
BRANCH 1 37
ATOM     37  CB  HIS C   2      26.945   1.867  42.621  1.00 14.08 LIG 0.10  C 
BRANCH 37 38
ATOM     38  CG  HIS C   2      25.710   1.742  43.439  1.00 15.42 LIG 0.06  A 
ATOM     39  CD2 HIS C   2      25.191   0.675  44.081  1.00 15.59 LIG 0.14  A 
ATOM     40 NE2  HIS C   2      24.032   1.091  44.691  1.00 17.02 LIG-0.25  NA
ATOM     41  CE1 HIS C   2      23.851   2.373  44.434  1.00 16.99 LIG 0.23  A 
ATOM     42 ND1  HIS C   2      24.849   2.791  43.677  0.48 15.92 LIG-0.24  NA
ENDBRANCH 37 38
ENDBRANCH 1 37
TORSDOF 14
ENDMDL
MODEL 71
USER: ADFR SOLUTION from run 182
USER: SCORE 13.173308 LL:  -3.316 LR: -10.160 RR:   0.000 FEB:  -5.984
USER: RMSD 5.278083
USER: SEED 181
USER: STATUS no improvement in best in 12 clusters for 5 generations
USER: GENES 16
USER: genes 0 Translation |==|  0.66149 0.42318 0.37076
USER: genes 1 Rotation |==|  0.35609 0.59009 0.58915 0.96177
USER: genes 2 Torsion [C]-CA--N-[C] |==|  0.80246
USER: genes 3 Torsion [N]-C--CA-[N] |==|  0.41619
USER: genes 4 Torsion [C]-CA--CB-[CG] |==|  0.22037
USER: genes 5 Torsion [CA]-CB--CG-[CD2] |==|  0.67703
USER: genes 6 Torsion [C]-CA--N-[C] |==|  0.81412
USER: genes 7 Torsion [N]-CA--C-[N] |==|  0.37411
USER: genes 8 Torsion [C]-N--CA-[CB] |==|  0.85230
USER: genes 9 Torsion [N]-CA--CB-[CG2] |==|  0.52873
USER: genes 10 Torsion [CA]-CB--OG1-[HG1] |==|  0.33877
USER: genes 11 Torsion [N]-CA--C-[N] |==|  0.37778
USER: genes 12 Torsion [C]-N--CA-[C] |==|  0.72288
USER: genes 13 Torsion [N]-CA--C-[N] |==|  0.47217
USER: genes 14 Torsion [N]-CA--CB-[CG] |==|  0.88049
USER: genes 15 Torsion [CA]-CB--CG-[ND1] |==|  0.43730
ROOT
ATOM      1  CA  HIS C   2      27.926   1.320  40.310  1.00 11.69 LIG 0.18  C 
ENDROOT
BRANCH 1 2
ATOM      2  N   HIS C   2      27.675   0.195  39.409  1.00 10.87 LIG-0.35  N 
ATOM      3 H    HIS C   2      27.434   0.415  38.614  1.00 10.87 LIG 0.16  HD
ATOM      4  C   PHE C   1      27.821  -1.056  39.829  1.00 11.47 LIG 0.24  C 
ATOM      5 O    PHE C   1      28.295  -1.344  40.943  1.00 12.97 LIG-0.27  OA
BRANCH 4 6
ATOM      6  CA  PHE C   1      27.413  -2.145  38.834  1.00 11.05 LIG 0.18  C 
BRANCH 6 7
ATOM      7  CB  PHE C   1      25.921  -2.463  38.980  1.00 10.09 LIG 0.07  C 
BRANCH 7 8
ATOM      8  CG  PHE C   1      25.028  -1.467  38.305  1.00  8.73 LIG-0.06  A 
ATOM      9  CD2 PHE C   1      24.154  -0.697  39.037  1.00  8.91 LIG 0.01  A 
ATOM     10  CE2 PHE C   1      23.329   0.209  38.404  1.00  8.44 LIG 0.00  A 
ATOM     11  CZ  PHE C   1      23.367   0.337  37.030  1.00  8.32 LIG 0.00  A 
ATOM     12  CE1 PHE C   1      24.248  -0.424  36.292  1.00  8.07 LIG 0.00  A 
ATOM     13  CD1 PHE C   1      25.059  -1.329  36.929  1.00  8.33 LIG 0.01  A 
ENDBRANCH 7 8
ENDBRANCH 6 7
BRANCH 6 14
ATOM     14  N   PHE C   1      28.198  -3.344  39.024  1.00 11.54 LIG-0.35  N 
ATOM     15 H    PHE C   1      27.735  -4.010  39.310  1.00 11.54 LIG 0.16  HD
ATOM     16  C   ACE C   0      29.497  -3.426  38.787  1.00 13.21 LIG 0.21  C 
ATOM     17  CH3 ACE C   0      30.228  -4.668  39.210  1.00 13.47 LIG 0.12  C 
ATOM     18 O    ACE C   0      30.063  -2.394  38.430  1.00 14.75 LIG-0.27  OA
ENDBRANCH 6 14
ENDBRANCH 4 6
ENDBRANCH 1 2
BRANCH 1 19
ATOM     19  C   HIS C   2      26.817   1.362  41.325  1.00 11.19 LIG 0.24  C 
ATOM     20  N   THR C   3      27.181   1.540  42.588  1.00 11.67 LIG-0.34  N 
ATOM     21 H    THR C   3      27.996   1.590  42.858  1.00 11.67 LIG 0.16  HD
ATOM     22 O    HIS C   2      25.641   1.284  40.979  1.00 11.10 LIG-0.27  OA
BRANCH 20 23
ATOM     23  CA  THR C   3      26.182   1.667  43.628  1.00 11.71 LIG 0.20  C 
BRANCH 23 24
ATOM     24  CB  THR C   3      25.138   2.769  43.302  1.00 13.34 LIG 0.15  C 
ATOM     25  CG2 THR C   3      24.253   3.072  44.486  1.00 14.42 LIG 0.04  C 
BRANCH 24 26
ATOM     26 OG1  THR C   3      25.832   3.956  42.929  1.00 13.01 LIG-0.39  OA
ATOM     27 HG1  THR C   3      25.595   4.188  42.157  1.00 13.01 LIG 0.21  HD
ENDBRANCH 24 26
ENDBRANCH 23 24
BRANCH 23 28
ATOM     28  C   THR C   3      25.504   0.313  43.889  1.00 11.33 LIG 0.24  C 
ATOM     29  N   ALA C   4      25.323  -0.027  45.163  1.00 10.31 LIG-0.35  N 
ATOM     30 H    ALA C   4      25.657   0.397  45.833  1.00 10.31 LIG 0.16  HD
ATOM     31 O    THR C   3      25.152  -0.413  42.950  1.00 11.88 LIG-0.27  OA
BRANCH 29 32
ATOM     32  CA  ALA C   4      24.513  -1.188  45.513  1.00 10.35 LIG 0.18  C 
ATOM     33  CB  ALA C   4      25.199  -2.016  46.610  1.00 10.31 LIG 0.04  C 
BRANCH 32 34
ATOM     34  C   ALA C   4      23.085  -0.765  45.941  1.00 10.99 LIG 0.28  C 
ATOM     35 O    ALA C   4      22.810   0.416  46.125  0.79 11.43 LIG-0.27  OA
ATOM     36  N   NH2 C   5      22.186  -1.733  46.088  0.91 10.97 LIG-0.11  N 
ENDBRANCH 32 34
ENDBRANCH 29 32
ENDBRANCH 23 28
ENDBRANCH 20 23
ENDBRANCH 1 19
BRANCH 1 37
ATOM     37  CB  HIS C   2      27.910   2.653  39.578  1.00 14.08 LIG 0.10  C 
BRANCH 37 38
ATOM     38  CG  HIS C   2      28.626   2.637  38.275  1.00 15.42 LIG 0.06  A 
ATOM     39  CD2 HIS C   2      29.594   1.814  37.821  1.00 15.59 LIG 0.14  A 
ATOM     40 NE2  HIS C   2      29.916   2.227  36.550  1.00 17.02 LIG-0.25  NA
ATOM     41  CE1 HIS C   2      29.164   3.266  36.235  1.00 16.99 LIG 0.23  A 
ATOM     42 ND1  HIS C   2      28.378   3.537  37.261  0.48 15.92 LIG-0.24  NA
ENDBRANCH 37 38
ENDBRANCH 1 37
TORSDOF 14
ENDMDL
MODEL 72
USER: ADFR SOLUTION from run 132
USER: SCORE 12.305024 LL:  -3.541 LR: -10.156 RR:   0.000 FEB:  -5.980
USER: RMSD 7.376873
USER: SEED 131
USER: STATUS no improvement in best in 39 clusters for 5 generations
USER: GENES 16
USER: genes 0 Translation |==|  0.36487 0.45646 0.73003
USER: genes 1 Rotation |==|  0.50823 0.19274 0.23417 0.79130
USER: genes 2 Torsion [C]-CA--N-[C] |==|  0.70117
USER: genes 3 Torsion [N]-C--CA-[N] |==|  0.95890
USER: genes 4 Torsion [C]-CA--CB-[CG] |==|  0.13389
USER: genes 5 Torsion [CA]-CB--CG-[CD2] |==|  0.16533
USER: genes 6 Torsion [C]-CA--N-[C] |==|  0.81039
USER: genes 7 Torsion [N]-CA--C-[N] |==|  0.11642
USER: genes 8 Torsion [C]-N--CA-[CB] |==|  0.86296
USER: genes 9 Torsion [N]-CA--CB-[CG2] |==|  0.50716
USER: genes 10 Torsion [CA]-CB--OG1-[HG1] |==|  0.09077
USER: genes 11 Torsion [N]-CA--C-[N] |==|  0.32781
USER: genes 12 Torsion [C]-N--CA-[C] |==|  0.63445
USER: genes 13 Torsion [N]-CA--C-[N] |==|  0.73331
USER: genes 14 Torsion [N]-CA--CB-[CG] |==|  0.88154
USER: genes 15 Torsion [CA]-CB--CG-[ND1] |==|  0.95338
ROOT
ATOM      1  CA  HIS C   2      22.142   1.869  47.585  1.00 11.69 LIG 0.18  C 
ENDROOT
BRANCH 1 2
ATOM      2  N   HIS C   2      23.008   0.872  46.956  1.00 10.87 LIG-0.35  N 
ATOM      3 H    HIS C   2      23.851   1.017  47.044  1.00 10.87 LIG 0.16  HD
ATOM      4  C   PHE C   1      22.489  -0.163  46.305  1.00 11.47 LIG 0.24  C 
ATOM      5 O    PHE C   1      21.272  -0.418  46.302  1.00 12.97 LIG-0.27  OA
BRANCH 4 6
ATOM      6  CA  PHE C   1      23.493  -1.068  45.587  1.00 11.05 LIG 0.18  C 
BRANCH 6 7
ATOM      7  CB  PHE C   1      23.632  -2.401  46.330  1.00 10.09 LIG 0.07  C 
BRANCH 7 8
ATOM      8  CG  PHE C   1      22.318  -3.031  46.679  1.00  8.73 LIG-0.06  A 
ATOM      9  CD2 PHE C   1      21.415  -3.364  45.697  1.00  8.91 LIG 0.01  A 
ATOM     10  CE2 PHE C   1      20.204  -3.933  46.031  1.00  8.44 LIG 0.00  A 
ATOM     11  CZ  PHE C   1      19.887  -4.158  47.356  1.00  8.32 LIG 0.00  A 
ATOM     12  CE1 PHE C   1      20.791  -3.837  48.344  1.00  8.07 LIG 0.00  A 
ATOM     13  CD1 PHE C   1      21.991  -3.263  48.004  1.00  8.33 LIG 0.01  A 
ENDBRANCH 7 8
ENDBRANCH 6 7
BRANCH 6 14
ATOM     14  N   PHE C   1      24.783  -0.426  45.472  1.00 11.54 LIG-0.35  N 
ATOM     15 H    PHE C   1      25.391  -0.800  45.951  1.00 11.54 LIG 0.16  HD
ATOM     16  C   ACE C   0      25.022   0.631  44.712  1.00 13.21 LIG 0.21  C 
ATOM     17  CH3 ACE C   0      26.351   1.318  44.833  1.00 13.47 LIG 0.12  C 
ATOM     18 O    ACE C   0      24.061   1.112  44.112  1.00 14.75 LIG-0.27  OA
ENDBRANCH 6 14
ENDBRANCH 4 6
ENDBRANCH 1 2
BRANCH 1 19
ATOM     19  C   HIS C   2      22.210   3.130  46.769  1.00 11.19 LIG 0.24  C 
ATOM     20  N   THR C   3      22.190   2.980  45.451  1.00 11.67 LIG-0.34  N 
ATOM     21 H    THR C   3      22.183   2.221  45.046  1.00 11.67 LIG 0.16  HD
ATOM     22 O    HIS C   2      22.232   4.232  47.310  1.00 11.10 LIG-0.27  OA
BRANCH 20 23
ATOM     23  CA  THR C   3      22.179   4.138  44.582  1.00 11.71 LIG 0.20  C 
BRANCH 23 24
ATOM     24  CB  THR C   3      21.095   5.168  44.998  1.00 13.34 LIG 0.15  C 
ATOM     25  CG2 THR C   3      21.045   6.343  44.052  1.00 14.42 LIG 0.04  C 
BRANCH 24 26
ATOM     26 OG1  THR C   3      19.827   4.519  44.995  1.00 13.01 LIG-0.39  OA
ATOM     27 HG1  THR C   3      19.923   3.715  45.215  1.00 13.01 LIG 0.21  HD
ENDBRANCH 24 26
ENDBRANCH 23 24
BRANCH 23 28
ATOM     28  C   THR C   3      23.573   4.781  44.527  1.00 11.33 LIG 0.24  C 
ATOM     29  N   ALA C   4      24.170   4.810  43.337  1.00 10.31 LIG-0.35  N 
ATOM     30 H    ALA C   4      23.884   4.398  42.639  1.00 10.31 LIG 0.16  HD
ATOM     31 O    THR C   3      24.099   5.245  45.547  1.00 11.88 LIG-0.27  OA
BRANCH 29 32
ATOM     32  CA  ALA C   4      25.396   5.574  43.141  1.00 10.35 LIG 0.18  C 
ATOM     33  CB  ALA C   4      26.613   4.639  43.079  1.00 10.31 LIG 0.04  C 
BRANCH 32 34
ATOM     34  C   ALA C   4      25.305   6.461  41.873  1.00 10.99 LIG 0.28  C 
ATOM     35 O    ALA C   4      24.777   7.566  41.918  0.79 11.43 LIG-0.27  OA
ATOM     36  N   NH2 C   5      25.828   5.971  40.754  0.91 10.97 LIG-0.11  N 
ENDBRANCH 32 34
ENDBRANCH 29 32
ENDBRANCH 23 28
ENDBRANCH 20 23
ENDBRANCH 1 19
BRANCH 1 37
ATOM     37  CB  HIS C   2      22.606   2.223  48.990  1.00 14.08 LIG 0.10  C 
BRANCH 37 38
ATOM     38  CG  HIS C   2      23.027   1.051  49.802  1.00 15.42 LIG 0.06  A 
ATOM     39  CD2 HIS C   2      23.755   0.991  50.936  1.00 15.59 LIG 0.14  A 
ATOM     40 NE2  HIS C   2      23.861  -0.336  51.281  1.00 17.02 LIG-0.25  NA
ATOM     41  CE1 HIS C   2      23.214  -1.062  50.389  1.00 16.99 LIG 0.23  A 
ATOM     42 ND1  HIS C   2      22.702  -0.249  49.482  0.48 15.92 LIG-0.24  NA
ENDBRANCH 37 38
ENDBRANCH 1 37
TORSDOF 14
ENDMDL
MODEL 73
USER: ADFR SOLUTION from run 58
USER: SCORE 11.419003 LL:  -3.158 LR: -10.148 RR:   0.000 FEB:  -5.972
USER: RMSD 5.204753
USER: SEED 57
USER: STATUS no improvement in best in 24 clusters for 5 generations
USER: GENES 16
USER: genes 0 Translation |==|  0.53815 0.39401 0.53707
USER: genes 1 Rotation |==|  0.42899 0.44976 0.26185 0.93095
USER: genes 2 Torsion [C]-CA--N-[C] |==|  0.19342
USER: genes 3 Torsion [N]-C--CA-[N] |==|  0.88957
USER: genes 4 Torsion [C]-CA--CB-[CG] |==|  0.50797
USER: genes 5 Torsion [CA]-CB--CG-[CD2] |==|  0.41288
USER: genes 6 Torsion [C]-CA--N-[C] |==|  0.71396
USER: genes 7 Torsion [N]-CA--C-[N] |==|  0.74938
USER: genes 8 Torsion [C]-N--CA-[CB] |==|  0.16667
USER: genes 9 Torsion [N]-CA--CB-[CG2] |==|  0.70631
USER: genes 10 Torsion [CA]-CB--OG1-[HG1] |==|  0.17983
USER: genes 11 Torsion [N]-CA--C-[N] |==|  0.12539
USER: genes 12 Torsion [C]-N--CA-[C] |==|  0.71804
USER: genes 13 Torsion [N]-CA--C-[N] |==|  0.15918
USER: genes 14 Torsion [N]-CA--CB-[CG] |==|  0.89386
USER: genes 15 Torsion [CA]-CB--CG-[ND1] |==|  0.33222
ROOT
ATOM      1  CA  HIS C   2      25.521   0.838  43.678  1.00 11.69 LIG 0.18  C 
ENDROOT
BRANCH 1 2
ATOM      2  N   HIS C   2      25.246   0.247  42.368  1.00 10.87 LIG-0.35  N 
ATOM      3 H    HIS C   2      24.747  -0.452  42.385  1.00 10.87 LIG 0.16  HD
ATOM      4  C   PHE C   1      25.751   0.783  41.263  1.00 11.47 LIG 0.24  C 
ATOM      5 O    PHE C   1      26.363   1.866  41.256  1.00 12.97 LIG-0.27  OA
BRANCH 4 6
ATOM      6  CA  PHE C   1      25.495   0.006  39.969  1.00 11.05 LIG 0.18  C 
BRANCH 6 7
ATOM      7  CB  PHE C   1      24.104   0.337  39.419  1.00 10.09 LIG 0.07  C 
BRANCH 7 8
ATOM      8  CG  PHE C   1      23.750  -0.437  38.186  1.00  8.73 LIG-0.06  A 
ATOM      9  CD2 PHE C   1      22.444  -0.780  37.922  1.00  8.91 LIG 0.01  A 
ATOM     10  CE2 PHE C   1      22.130  -1.502  36.790  1.00  8.44 LIG 0.00  A 
ATOM     11  CZ  PHE C   1      23.130  -1.897  35.923  1.00  8.32 LIG 0.00  A 
ATOM     12  CE1 PHE C   1      24.439  -1.548  36.175  1.00  8.07 LIG 0.00  A 
ATOM     13  CD1 PHE C   1      24.742  -0.836  37.309  1.00  8.33 LIG 0.01  A 
ENDBRANCH 7 8
ENDBRANCH 6 7
BRANCH 6 14
ATOM     14  N   PHE C   1      25.618  -1.418  40.186  1.00 11.54 LIG-0.35  N 
ATOM     15 H    PHE C   1      24.934  -1.761  40.579  1.00 11.54 LIG 0.16  HD
ATOM     16  C   ACE C   0      26.668  -2.137  39.822  1.00 13.21 LIG 0.21  C 
ATOM     17  CH3 ACE C   0      26.755  -3.565  40.279  1.00 13.47 LIG 0.12  C 
ATOM     18 O    ACE C   0      27.609  -1.529  39.315  1.00 14.75 LIG-0.27  OA
ENDBRANCH 6 14
ENDBRANCH 4 6
ENDBRANCH 1 2
BRANCH 1 19
ATOM     19  C   HIS C   2      24.797   2.154  43.758  1.00 11.19 LIG 0.24  C 
ATOM     20  N   THR C   3      25.468   3.221  43.345  1.00 11.67 LIG-0.34  N 
ATOM     21 H    THR C   3      26.287   3.211  43.080  1.00 11.67 LIG 0.16  HD
ATOM     22 O    HIS C   2      23.632   2.212  44.141  1.00 11.10 LIG-0.27  OA
BRANCH 20 23
ATOM     23  CA  THR C   3      24.832   4.521  43.316  1.00 11.71 LIG 0.20  C 
BRANCH 23 24
ATOM     24  CB  THR C   3      24.349   4.965  44.723  1.00 13.34 LIG 0.15  C 
ATOM     25  CG2 THR C   3      22.850   4.861  44.860  1.00 14.42 LIG 0.04  C 
BRANCH 24 26
ATOM     26 OG1  THR C   3      24.961   4.127  45.699  1.00 13.01 LIG-0.39  OA
ATOM     27 HG1  THR C   3      25.792   4.249  45.691  1.00 13.01 LIG 0.21  HD
ENDBRANCH 24 26
ENDBRANCH 23 24
BRANCH 23 28
ATOM     28  C   THR C   3      25.771   5.565  42.691  1.00 11.33 LIG 0.24  C 
ATOM     29  N   ALA C   4      26.403   5.205  41.576  1.00 10.31 LIG-0.35  N 
ATOM     30 H    ALA C   4      26.410   4.407  41.255  1.00 10.31 LIG 0.16  HD
ATOM     31 O    THR C   3      25.920   6.678  43.211  1.00 11.88 LIG-0.27  OA
BRANCH 29 32
ATOM     32  CA  ALA C   4      27.152   6.186  40.799  1.00 10.35 LIG 0.18  C 
ATOM     33  CB  ALA C   4      28.523   5.623  40.394  1.00 10.31 LIG 0.04  C 
BRANCH 32 34
ATOM     34  C   ALA C   4      26.347   6.648  39.557  1.00 10.99 LIG 0.28  C 
ATOM     35 O    ALA C   4      26.807   6.519  38.428  0.79 11.43 LIG-0.27  OA
ATOM     36  N   NH2 C   5      25.147   7.176  39.777  0.91 10.97 LIG-0.11  N 
ENDBRANCH 32 34
ENDBRANCH 29 32
ENDBRANCH 23 28
ENDBRANCH 20 23
ENDBRANCH 1 19
BRANCH 1 37
ATOM     37  CB  HIS C   2      27.001   1.132  43.874  1.00 14.08 LIG 0.10  C 
BRANCH 37 38
ATOM     38  CG  HIS C   2      27.904   0.100  43.300  1.00 15.42 LIG 0.06  A 
ATOM     39  CD2 HIS C   2      28.015  -1.215  43.578  1.00 15.59 LIG 0.14  A 
ATOM     40 NE2  HIS C   2      29.003  -1.721  42.767  1.00 17.02 LIG-0.25  NA
ATOM     41  CE1 HIS C   2      29.477  -0.747  42.013  1.00 16.99 LIG 0.23  A 
ATOM     42 ND1  HIS C   2      28.832   0.366  42.316  0.48 15.92 LIG-0.24  NA
ENDBRANCH 37 38
ENDBRANCH 1 37
TORSDOF 14
ENDMDL
MODEL 74
USER: ADFR SOLUTION from run 36
USER: SCORE 11.566985 LL:  -3.166 LR: -10.148 RR:   0.000 FEB:  -5.972
USER: RMSD 2.994097
USER: SEED 35
USER: STATUS no improvement in best in 10 clusters for 5 generations
USER: GENES 16
USER: genes 0 Translation |==|  0.54301 0.46124 0.56071
USER: genes 1 Rotation |==|  0.55623 0.49957 0.54211 0.99504
USER: genes 2 Torsion [C]-CA--N-[C] |==|  0.79074
USER: genes 3 Torsion [N]-C--CA-[N] |==|  0.13131
USER: genes 4 Torsion [C]-CA--CB-[CG] |==|  0.39611
USER: genes 5 Torsion [CA]-CB--CG-[CD2] |==|  0.40308
USER: genes 6 Torsion [C]-CA--N-[C] |==|  0.16667
USER: genes 7 Torsion [N]-CA--C-[N] |==|  0.33581
USER: genes 8 Torsion [C]-N--CA-[CB] |==|  0.44998
USER: genes 9 Torsion [N]-CA--CB-[CG2] |==|  0.61985
USER: genes 10 Torsion [CA]-CB--OG1-[HG1] |==|  0.77895
USER: genes 11 Torsion [N]-CA--C-[N] |==|  0.90173
USER: genes 12 Torsion [C]-N--CA-[C] |==|  0.17738
USER: genes 13 Torsion [N]-CA--C-[N] |==|  0.13057
USER: genes 14 Torsion [N]-CA--CB-[CG] |==|  0.07890
USER: genes 15 Torsion [CA]-CB--CG-[ND1] |==|  0.75740
ROOT
ATOM      1  CA  HIS C   2      25.616   1.947  44.156  1.00 11.69 LIG 0.18  C 
ENDROOT
BRANCH 1 2
ATOM      2  N   HIS C   2      25.568   1.927  42.695  1.00 10.87 LIG-0.35  N 
ATOM      3 H    HIS C   2      25.577   2.702  42.322  1.00 10.87 LIG 0.16  HD
ATOM      4  C   PHE C   1      25.517   0.776  42.034  1.00 11.47 LIG 0.24  C 
ATOM      5 O    PHE C   1      25.635  -0.329  42.591  1.00 12.97 LIG-0.27  OA
BRANCH 4 6
ATOM      6  CA  PHE C   1      25.348   0.887  40.517  1.00 11.05 LIG 0.18  C 
BRANCH 6 7
ATOM      7  CB  PHE C   1      25.562  -0.480  39.858  1.00 10.09 LIG 0.07  C 
BRANCH 7 8
ATOM      8  CG  PHE C   1      24.646  -0.736  38.700  1.00  8.73 LIG-0.06  A 
ATOM      9  CD2 PHE C   1      25.077  -1.454  37.609  1.00  8.91 LIG 0.01  A 
ATOM     10  CE2 PHE C   1      24.229  -1.674  36.543  1.00  8.44 LIG 0.00  A 
ATOM     11  CZ  PHE C   1      22.947  -1.160  36.562  1.00  8.32 LIG 0.00  A 
ATOM     12  CE1 PHE C   1      22.506  -0.449  37.656  1.00  8.07 LIG 0.00  A 
ATOM     13  CD1 PHE C   1      23.359  -0.228  38.709  1.00  8.33 LIG 0.01  A 
ENDBRANCH 7 8
ENDBRANCH 6 7
BRANCH 6 14
ATOM     14  N   PHE C   1      26.266   1.856  39.961  1.00 11.54 LIG-0.35  N 
ATOM     15 H    PHE C   1      25.871   2.504  39.557  1.00 11.54 LIG 0.16  HD
ATOM     16  C   ACE C   0      27.583   1.769  40.054  1.00 13.21 LIG 0.21  C 
ATOM     17  CH3 ACE C   0      28.425   2.732  39.268  1.00 13.47 LIG 0.12  C 
ATOM     18 O    ACE C   0      28.036   0.769  40.609  1.00 14.75 LIG-0.27  OA
ENDBRANCH 6 14
ENDBRANCH 4 6
ENDBRANCH 1 2
BRANCH 1 19
ATOM     19  C   HIS C   2      24.239   1.629  44.673  1.00 11.19 LIG 0.24  C 
ATOM     20  N   THR C   3      24.136   0.563  45.455  1.00 11.67 LIG-0.34  N 
ATOM     21 H    THR C   3      24.786   0.032  45.645  1.00 11.67 LIG 0.16  HD
ATOM     22 O    HIS C   2      23.284   2.356  44.415  1.00 11.10 LIG-0.27  OA
BRANCH 20 23
ATOM     23  CA  THR C   3      22.867   0.217  46.059  1.00 11.71 LIG 0.20  C 
BRANCH 23 24
ATOM     24  CB  THR C   3      22.836  -1.256  46.548  1.00 13.34 LIG 0.15  C 
ATOM     25  CG2 THR C   3      21.535  -1.936  46.200  1.00 14.42 LIG 0.04  C 
BRANCH 24 26
ATOM     26 OG1  THR C   3      23.907  -1.962  45.929  1.00 13.01 LIG-0.39  OA
ATOM     27 HG1  THR C   3      23.689  -2.169  45.144  1.00 13.01 LIG 0.21  HD
ENDBRANCH 24 26
ENDBRANCH 23 24
BRANCH 23 28
ATOM     28  C   THR C   3      22.531   1.193  47.197  1.00 11.33 LIG 0.24  C 
ATOM     29  N   ALA C   4      23.554   1.638  47.923  1.00 10.31 LIG-0.35  N 
ATOM     30 H    ALA C   4      24.356   1.333  47.872  1.00 10.31 LIG 0.16  HD
ATOM     31 O    THR C   3      21.362   1.537  47.415  1.00 11.88 LIG-0.27  OA
BRANCH 29 32
ATOM     32  CA  ALA C   4      23.367   2.716  48.886  1.00 10.35 LIG 0.18  C 
ATOM     33  CB  ALA C   4      22.869   3.989  48.185  1.00 10.31 LIG 0.04  C 
BRANCH 32 34
ATOM     34  C   ALA C   4      22.404   2.288  50.023  1.00 10.99 LIG 0.28  C 
ATOM     35 O    ALA C   4      21.485   3.020  50.375  0.79 11.43 LIG-0.27  OA
ATOM     36  N   NH2 C   5      22.618   1.102  50.583  0.91 10.97 LIG-0.11  N 
ENDBRANCH 32 34
ENDBRANCH 29 32
ENDBRANCH 23 28
ENDBRANCH 20 23
ENDBRANCH 1 19
BRANCH 1 37
ATOM     37  CB  HIS C   2      25.987   3.320  44.698  1.00 14.08 LIG 0.10  C 
BRANCH 37 38
ATOM     38  CG  HIS C   2      25.586   4.447  43.815  1.00 15.42 LIG 0.06  A 
ATOM     39  CD2 HIS C   2      24.464   5.197  43.809  1.00 15.59 LIG 0.14  A 
ATOM     40 NE2  HIS C   2      24.589   6.108  42.789  1.00 17.02 LIG-0.25  NA
ATOM     41  CE1 HIS C   2      25.752   5.926  42.192  1.00 16.99 LIG 0.23  A 
ATOM     42 ND1  HIS C   2      26.374   4.926  42.790  0.48 15.92 LIG-0.24  NA
ENDBRANCH 37 38
ENDBRANCH 1 37
TORSDOF 14
ENDMDL
MODEL 75
USER: ADFR SOLUTION from run 160
USER: SCORE 12.109116 LL:  -2.766 LR: -10.150 RR:   0.000 FEB:  -5.974
USER: RMSD 8.827935
USER: SEED 159
USER: STATUS no improvement in best in 33 clusters for 5 generations
USER: GENES 16
USER: genes 0 Translation |==|  0.49552 0.41181 0.56001
USER: genes 1 Rotation |==|  0.26438 0.09238 0.39814 0.63399
USER: genes 2 Torsion [C]-CA--N-[C] |==|  0.64412
USER: genes 3 Torsion [N]-C--CA-[N] |==|  0.42469
USER: genes 4 Torsion [C]-CA--CB-[CG] |==|  0.72626
USER: genes 5 Torsion [CA]-CB--CG-[CD2] |==|  0.26652
USER: genes 6 Torsion [C]-CA--N-[C] |==|  0.61167
USER: genes 7 Torsion [N]-CA--C-[N] |==|  0.49424
USER: genes 8 Torsion [C]-N--CA-[CB] |==|  0.85291
USER: genes 9 Torsion [N]-CA--CB-[CG2] |==|  0.52656
USER: genes 10 Torsion [CA]-CB--OG1-[HG1] |==|  0.32211
USER: genes 11 Torsion [N]-CA--C-[N] |==|  0.35000
USER: genes 12 Torsion [C]-N--CA-[C] |==|  0.69335
USER: genes 13 Torsion [N]-CA--C-[N] |==|  0.09429
USER: genes 14 Torsion [N]-CA--CB-[CG] |==|  0.64080
USER: genes 15 Torsion [CA]-CB--CG-[ND1] |==|  0.99093
ROOT
ATOM      1  CA  HIS C   2      24.690   1.132  44.142  1.00 11.69 LIG 0.18  C 
ENDROOT
BRANCH 1 2
ATOM      2  N   HIS C   2      24.775   0.089  45.164  1.00 10.87 LIG-0.35  N 
ATOM      3 H    HIS C   2      25.539  -0.302  45.219  1.00 10.87 LIG 0.16  HD
ATOM      4  C   PHE C   1      23.727  -0.200  45.927  1.00 11.47 LIG 0.24  C 
ATOM      5 O    PHE C   1      22.677   0.467  45.914  1.00 12.97 LIG-0.27  OA
BRANCH 4 6
ATOM      6  CA  PHE C   1      23.901  -1.390  46.874  1.00 11.05 LIG 0.18  C 
BRANCH 6 7
ATOM      7  CB  PHE C   1      23.586  -2.700  46.143  1.00 10.09 LIG 0.07  C 
BRANCH 7 8
ATOM      8  CG  PHE C   1      22.201  -3.210  46.400  1.00  8.73 LIG-0.06  A 
ATOM      9  CD2 PHE C   1      21.176  -2.934  45.525  1.00  8.91 LIG 0.01  A 
ATOM     10  CE2 PHE C   1      19.903  -3.400  45.778  1.00  8.44 LIG 0.00  A 
ATOM     11  CZ  PHE C   1      19.648  -4.133  46.920  1.00  8.32 LIG 0.00  A 
ATOM     12  CE1 PHE C   1      20.672  -4.421  47.796  1.00  8.07 LIG 0.00  A 
ATOM     13  CD1 PHE C   1      21.935  -3.947  47.540  1.00  8.33 LIG 0.01  A 
ENDBRANCH 7 8
ENDBRANCH 6 7
BRANCH 6 14
ATOM     14  N   PHE C   1      23.055  -1.255  48.039  1.00 11.54 LIG-0.35  N 
ATOM     15 H    PHE C   1      22.273  -0.947  47.855  1.00 11.54 LIG 0.16  HD
ATOM     16  C   ACE C   0      23.429  -1.570  49.269  1.00 13.21 LIG 0.21  C 
ATOM     17  CH3 ACE C   0      22.527  -1.199  50.411  1.00 13.47 LIG 0.12  C 
ATOM     18 O    ACE C   0      24.589  -1.952  49.416  1.00 14.75 LIG-0.27  OA
ENDBRANCH 6 14
ENDBRANCH 4 6
ENDBRANCH 1 2
BRANCH 1 19
ATOM     19  C   HIS C   2      25.166   0.550  42.839  1.00 11.19 LIG 0.24  C 
ATOM     20  N   THR C   3      25.116   1.352  41.784  1.00 11.67 LIG-0.34  N 
ATOM     21 H    THR C   3      24.797   2.151  41.792  1.00 11.67 LIG 0.16  HD
ATOM     22 O    HIS C   2      25.618  -0.590  42.784  1.00 11.10 LIG-0.27  OA
BRANCH 20 23
ATOM     23  CA  THR C   3      25.619   0.907  40.501  1.00 11.71 LIG 0.20  C 
BRANCH 23 24
ATOM     24  CB  THR C   3      27.074   0.376  40.598  1.00 13.34 LIG 0.15  C 
ATOM     25  CG2 THR C   3      27.674   0.132  39.236  1.00 14.42 LIG 0.04  C 
BRANCH 24 26
ATOM     26 OG1  THR C   3      27.865   1.342  41.284  1.00 13.01 LIG-0.39  OA
ATOM     27 HG1  THR C   3      28.143   1.015  42.006  1.00 13.01 LIG 0.21  HD
ENDBRANCH 24 26
ENDBRANCH 23 24
BRANCH 23 28
ATOM     28  C   THR C   3      24.678  -0.144  39.891  1.00 11.33 LIG 0.24  C 
ATOM     29  N   ALA C   4      24.235   0.096  38.659  1.00 10.31 LIG-0.35  N 
ATOM     30 H    ALA C   4      24.344   0.838  38.238  1.00 10.31 LIG 0.16  HD
ATOM     31 O    THR C   3      24.359  -1.157  40.527  1.00 11.88 LIG-0.27  OA
BRANCH 29 32
ATOM     32  CA  ALA C   4      23.508  -0.929  37.920  1.00 10.35 LIG 0.18  C 
ATOM     33  CB  ALA C   4      22.153  -0.389  37.438  1.00 10.31 LIG 0.04  C 
BRANCH 32 34
ATOM     34  C   ALA C   4      24.350  -1.468  36.735  1.00 10.99 LIG 0.28  C 
ATOM     35 O    ALA C   4      23.813  -1.806  35.687  0.79 11.43 LIG-0.27  OA
ATOM     36  N   NH2 C   5      25.666  -1.536  36.911  0.91 10.97 LIG-0.11  N 
ENDBRANCH 32 34
ENDBRANCH 29 32
ENDBRANCH 23 28
ENDBRANCH 20 23
ENDBRANCH 1 19
BRANCH 1 37
ATOM     37  CB  HIS C   2      25.592   2.316  44.457  1.00 14.08 LIG 0.10  C 
BRANCH 37 38
ATOM     38  CG  HIS C   2      24.907   3.633  44.392  1.00 15.42 LIG 0.06  A 
ATOM     39  CD2 HIS C   2      25.368   4.872  44.662  1.00 15.59 LIG 0.14  A 
ATOM     40 NE2  HIS C   2      24.331   5.748  44.446  1.00 17.02 LIG-0.25  NA
ATOM     41  CE1 HIS C   2      23.271   5.067  44.052  1.00 16.99 LIG 0.23  A 
ATOM     42 ND1  HIS C   2      23.590   3.786  44.014  0.48 15.92 LIG-0.24  NA
ENDBRANCH 37 38
ENDBRANCH 1 37
TORSDOF 14
ENDMDL
MODEL 76
USER: ADFR SOLUTION from run 15
USER: SCORE 11.860876 LL:  -3.415 LR: -10.134 RR:   0.000 FEB:  -5.958
USER: RMSD 2.520360
USER: SEED 939995
USER: STATUS no improvement in best in 28 clusters for 5 generations
USER: GENES 16
USER: genes 0 Translation |==|  0.48047 0.43335 0.55087
USER: genes 1 Rotation |==|  0.61590 0.41706 0.22157 0.89008
USER: genes 2 Torsion [C]-CA--N-[C] |==|  0.55844
USER: genes 3 Torsion [N]-C--CA-[N] |==|  0.15000
USER: genes 4 Torsion [C]-CA--CB-[CG] |==|  0.30952
USER: genes 5 Torsion [CA]-CB--CG-[CD2] |==|  0.92951
USER: genes 6 Torsion [C]-CA--N-[C] |==|  0.17675
USER: genes 7 Torsion [N]-CA--C-[N] |==|  0.44204
USER: genes 8 Torsion [C]-N--CA-[CB] |==|  0.18803
USER: genes 9 Torsion [N]-CA--CB-[CG2] |==|  0.39176
USER: genes 10 Torsion [CA]-CB--OG1-[HG1] |==|  0.10955
USER: genes 11 Torsion [N]-CA--C-[N] |==|  0.42118
USER: genes 12 Torsion [C]-N--CA-[C] |==|  0.56651
USER: genes 13 Torsion [N]-CA--C-[N] |==|  0.45250
USER: genes 14 Torsion [N]-CA--CB-[CG] |==|  0.07369
USER: genes 15 Torsion [CA]-CB--CG-[ND1] |==|  0.15032
ROOT
ATOM      1  CA  HIS C   2      24.396   1.487  43.957  1.00 11.69 LIG 0.18  C 
ENDROOT
BRANCH 1 2
ATOM      2  N   HIS C   2      24.838   1.723  42.583  1.00 10.87 LIG-0.35  N 
ATOM      3 H    HIS C   2      24.901   2.551  42.360  1.00 10.87 LIG 0.16  HD
ATOM      4  C   PHE C   1      25.110   0.705  41.775  1.00 11.47 LIG 0.24  C 
ATOM      5 O    PHE C   1      25.135  -0.478  42.161  1.00 12.97 LIG-0.27  OA
BRANCH 4 6
ATOM      6  CA  PHE C   1      25.444   1.075  40.327  1.00 11.05 LIG 0.18  C 
BRANCH 6 7
ATOM      7  CB  PHE C   1      25.825  -0.179  39.534  1.00 10.09 LIG 0.07  C 
BRANCH 7 8
ATOM      8  CG  PHE C   1      24.818  -0.554  38.489  1.00  8.73 LIG-0.06  A 
ATOM      9  CD2 PHE C   1      23.500  -0.181  38.616  1.00  8.91 LIG 0.01  A 
ATOM     10  CE2 PHE C   1      22.581  -0.541  37.653  1.00  8.44 LIG 0.00  A 
ATOM     11  CZ  PHE C   1      22.977  -1.291  36.564  1.00  8.32 LIG 0.00  A 
ATOM     12  CE1 PHE C   1      24.298  -1.659  36.425  1.00  8.07 LIG 0.00  A 
ATOM     13  CD1 PHE C   1      25.205  -1.303  37.392  1.00  8.33 LIG 0.01  A 
ENDBRANCH 7 8
ENDBRANCH 6 7
BRANCH 6 14
ATOM     14  N   PHE C   1      26.518   2.042  40.273  1.00 11.54 LIG-0.35  N 
ATOM     15 H    PHE C   1      26.278   2.796  39.935  1.00 11.54 LIG 0.16  HD
ATOM     16  C   ACE C   0      27.750   1.809  40.696  1.00 13.21 LIG 0.21  C 
ATOM     17  CH3 ACE C   0      28.815   2.826  40.404  1.00 13.47 LIG 0.12  C 
ATOM     18 O    ACE C   0      27.989   0.676  41.111  1.00 14.75 LIG-0.27  OA
ENDBRANCH 6 14
ENDBRANCH 4 6
ENDBRANCH 1 2
BRANCH 1 19
ATOM     19  C   HIS C   2      23.688   2.724  44.439  1.00 11.19 LIG 0.24  C 
ATOM     20  N   THR C   3      22.862   2.567  45.465  1.00 11.67 LIG-0.34  N 
ATOM     21 H    THR C   3      22.681   1.811  45.834  1.00 11.67 LIG 0.16  HD
ATOM     22 O    HIS C   2      23.911   3.819  43.930  1.00 11.10 LIG-0.27  OA
BRANCH 20 23
ATOM     23  CA  THR C   3      22.189   3.710  46.046  1.00 11.71 LIG 0.20  C 
BRANCH 23 24
ATOM     24  CB  THR C   3      21.148   4.329  45.075  1.00 13.34 LIG 0.15  C 
ATOM     25  CG2 THR C   3      19.901   4.772  45.798  1.00 14.42 LIG 0.04  C 
BRANCH 24 26
ATOM     26 OG1  THR C   3      21.738   5.457  44.436  1.00 13.01 LIG-0.39  OA
ATOM     27 HG1  THR C   3      22.540   5.288  44.253  1.00 13.01 LIG 0.21  HD
ENDBRANCH 24 26
ENDBRANCH 23 24
BRANCH 23 28
ATOM     28  C   THR C   3      21.547   3.329  47.388  1.00 11.33 LIG 0.24  C 
ATOM     29  N   ALA C   4      21.418   4.304  48.286  1.00 10.31 LIG-0.35  N 
ATOM     30 H    ALA C   4      21.768   5.086  48.209  1.00 10.31 LIG 0.16  HD
ATOM     31 O    THR C   3      21.174   2.169  47.608  1.00 11.88 LIG-0.27  OA
BRANCH 29 32
ATOM     32  CA  ALA C   4      20.642   4.095  49.503  1.00 10.35 LIG 0.18  C 
ATOM     33  CB  ALA C   4      21.467   3.324  50.544  1.00 10.31 LIG 0.04  C 
BRANCH 32 34
ATOM     34  C   ALA C   4      20.129   5.440  50.077  1.00 10.99 LIG 0.28  C 
ATOM     35 O    ALA C   4      20.621   6.504  49.716  0.79 11.43 LIG-0.27  OA
ATOM     36  N   NH2 C   5      19.139   5.381  50.961  0.91 10.97 LIG-0.11  N 
ENDBRANCH 32 34
ENDBRANCH 29 32
ENDBRANCH 23 28
ENDBRANCH 20 23
ENDBRANCH 1 19
BRANCH 1 37
ATOM     37  CB  HIS C   2      25.566   1.249  44.901  1.00 14.08 LIG 0.10  C 
BRANCH 37 38
ATOM     38  CG  HIS C   2      26.836   1.883  44.462  1.00 15.42 LIG 0.06  A 
ATOM     39  CD2 HIS C   2      28.060   1.347  44.269  1.00 15.59 LIG 0.14  A 
ATOM     40 NE2  HIS C   2      28.890   2.364  43.862  1.00 17.02 LIG-0.25  NA
ATOM     41  CE1 HIS C   2      28.195   3.484  43.802  1.00 16.99 LIG 0.23  A 
ATOM     42 ND1  HIS C   2      26.952   3.223  44.162  0.48 15.92 LIG-0.24  NA
ENDBRANCH 37 38
ENDBRANCH 1 37
TORSDOF 14
ENDMDL
MODEL 77
USER: ADFR SOLUTION from run 178
USER: SCORE 11.402774 LL:  -3.541 LR: -10.102 RR:   0.000 FEB:  -5.926
USER: RMSD 8.291352
USER: SEED 177
USER: STATUS no improvement in best in 6 clusters for 5 generations
USER: GENES 16
USER: genes 0 Translation |==|  0.67053 0.37516 0.38672
USER: genes 1 Rotation |==|  0.31350 0.45557 0.29228 0.91242
USER: genes 2 Torsion [C]-CA--N-[C] |==|  0.16520
USER: genes 3 Torsion [N]-C--CA-[N] |==|  0.01741
USER: genes 4 Torsion [C]-CA--CB-[CG] |==|  0.79123
USER: genes 5 Torsion [CA]-CB--CG-[CD2] |==|  0.60025
USER: genes 6 Torsion [C]-CA--N-[C] |==|  0.76947
USER: genes 7 Torsion [N]-CA--C-[N] |==|  0.67562
USER: genes 8 Torsion [C]-N--CA-[CB] |==|  0.25000
USER: genes 9 Torsion [N]-CA--CB-[CG2] |==|  0.51561
USER: genes 10 Torsion [CA]-CB--OG1-[HG1] |==|  0.84256
USER: genes 11 Torsion [N]-CA--C-[N] |==|  0.96750
USER: genes 12 Torsion [C]-N--CA-[C] |==|  0.57576
USER: genes 13 Torsion [N]-CA--C-[N] |==|  0.59259
USER: genes 14 Torsion [N]-CA--CB-[CG] |==|  0.88605
USER: genes 15 Torsion [CA]-CB--CG-[ND1] |==|  0.26674
ROOT
ATOM      1  CA  HIS C   2      28.102   0.527  40.633  1.00 11.69 LIG 0.18  C 
ENDROOT
BRANCH 1 2
ATOM      2  N   HIS C   2      27.566  -0.530  39.776  1.00 10.87 LIG-0.35  N 
ATOM      3 H    HIS C   2      27.256  -1.213  40.195  1.00 10.87 LIG 0.16  HD
ATOM      4  C   PHE C   1      27.576  -0.401  38.454  1.00 11.47 LIG 0.24  C 
ATOM      5 O    PHE C   1      27.911   0.650  37.880  1.00 12.97 LIG-0.27  OA
BRANCH 4 6
ATOM      6  CA  PHE C   1      27.101  -1.622  37.663  1.00 11.05 LIG 0.18  C 
BRANCH 6 7
ATOM      7  CB  PHE C   1      26.025  -1.213  36.652  1.00 10.09 LIG 0.07  C 
BRANCH 7 8
ATOM      8  CG  PHE C   1      24.690  -0.943  37.276  1.00  8.73 LIG-0.06  A 
ATOM      9  CD2 PHE C   1      23.527  -1.281  36.624  1.00  8.91 LIG 0.01  A 
ATOM     10  CE2 PHE C   1      22.303  -1.018  37.203  1.00  8.44 LIG 0.00  A 
ATOM     11  CZ  PHE C   1      22.241  -0.399  38.436  1.00  8.32 LIG 0.00  A 
ATOM     12  CE1 PHE C   1      23.401  -0.067  39.100  1.00  8.07 LIG 0.00  A 
ATOM     13  CD1 PHE C   1      24.615  -0.326  38.512  1.00  8.33 LIG 0.01  A 
ENDBRANCH 7 8
ENDBRANCH 6 7
BRANCH 6 14
ATOM     14  N   PHE C   1      26.589  -2.646  38.546  1.00 11.54 LIG-0.35  N 
ATOM     15 H    PHE C   1      25.733  -2.629  38.624  1.00 11.54 LIG 0.16  HD
ATOM     16  C   ACE C   0      27.346  -3.529  39.178  1.00 13.21 LIG 0.21  C 
ATOM     17  CH3 ACE C   0      26.711  -4.410  40.214  1.00 13.47 LIG 0.12  C 
ATOM     18 O    ACE C   0      28.563  -3.423  39.031  1.00 14.75 LIG-0.27  OA
ENDBRANCH 6 14
ENDBRANCH 4 6
ENDBRANCH 1 2
BRANCH 1 19
ATOM     19  C   HIS C   2      27.328   1.788  40.362  1.00 11.19 LIG 0.24  C 
ATOM     20  N   THR C   3      28.015   2.804  39.859  1.00 11.67 LIG-0.34  N 
ATOM     21 H    THR C   3      28.864   2.799  39.721  1.00 11.67 LIG 0.16  HD
ATOM     22 O    HIS C   2      26.116   1.839  40.556  1.00 11.10 LIG-0.27  OA
BRANCH 20 23
ATOM     23  CA  THR C   3      27.344   4.035  39.498  1.00 11.71 LIG 0.20  C 
BRANCH 23 24
ATOM     24  CB  THR C   3      27.293   5.040  40.680  1.00 13.34 LIG 0.15  C 
ATOM     25  CG2 THR C   3      26.476   6.263  40.343  1.00 14.42 LIG 0.04  C 
BRANCH 24 26
ATOM     26 OG1  THR C   3      26.707   4.389  41.804  1.00 13.01 LIG-0.39  OA
ATOM     27 HG1  THR C   3      25.947   4.098  41.594  1.00 13.01 LIG 0.21  HD
ENDBRANCH 24 26
ENDBRANCH 23 24
BRANCH 23 28
ATOM     28  C   THR C   3      28.002   4.661  38.259  1.00 11.33 LIG 0.24  C 
ATOM     29  N   ALA C   4      29.170   4.148  37.880  1.00 10.31 LIG-0.35  N 
ATOM     30 H    ALA C   4      29.625   3.581  38.340  1.00 10.31 LIG 0.16  HD
ATOM     31 O    THR C   3      27.459   5.596  37.655  1.00 11.88 LIG-0.27  OA
BRANCH 29 32
ATOM     32  CA  ALA C   4      29.772   4.531  36.608  1.00 10.35 LIG 0.18  C 
ATOM     33  CB  ALA C   4      30.545   5.850  36.752  1.00 10.31 LIG 0.04  C 
BRANCH 32 34
ATOM     34  C   ALA C   4      30.682   3.403  36.058  1.00 10.99 LIG 0.28  C 
ATOM     35 O    ALA C   4      30.406   2.225  36.250  0.79 11.43 LIG-0.27  OA
ATOM     36  N   NH2 C   5      31.758   3.776  35.372  0.91 10.97 LIG-0.11  N 
ENDBRANCH 32 34
ENDBRANCH 29 32
ENDBRANCH 23 28
ENDBRANCH 20 23
ENDBRANCH 1 19
BRANCH 1 37
ATOM     37  CB  HIS C   2      29.562   0.828  40.325  1.00 14.08 LIG 0.10  C 
BRANCH 37 38
ATOM     38  CG  HIS C   2      30.387  -0.382  40.067  1.00 15.42 LIG 0.06  A 
ATOM     39  CD2 HIS C   2      31.007  -1.216  40.928  1.00 15.59 LIG 0.14  A 
ATOM     40 NE2  HIS C   2      31.638  -2.179  40.177  1.00 17.02 LIG-0.25  NA
ATOM     41  CE1 HIS C   2      31.407  -1.944  38.899  1.00 16.99 LIG 0.23  A 
ATOM     42 ND1  HIS C   2      30.656  -0.862  38.804  0.48 15.92 LIG-0.24  NA
ENDBRANCH 37 38
ENDBRANCH 1 37
TORSDOF 14
ENDMDL
MODEL 78
USER: ADFR SOLUTION from run 180
USER: SCORE 11.327882 LL:  -2.889 LR: -10.098 RR:   0.000 FEB:  -5.922
USER: RMSD 8.700208
USER: SEED 179
USER: STATUS no improvement in best in 12 clusters for 5 generations
USER: GENES 16
USER: genes 0 Translation |==|  0.42246 0.44873 0.61724
USER: genes 1 Rotation |==|  0.44024 0.05742 0.35223 0.66944
USER: genes 2 Torsion [C]-CA--N-[C] |==|  0.60594
USER: genes 3 Torsion [N]-C--CA-[N] |==|  0.33903
USER: genes 4 Torsion [C]-CA--CB-[CG] |==|  0.84078
USER: genes 5 Torsion [CA]-CB--CG-[CD2] |==|  0.79201
USER: genes 6 Torsion [C]-CA--N-[C] |==|  0.83319
USER: genes 7 Torsion [N]-CA--C-[N] |==|  0.11321
USER: genes 8 Torsion [C]-N--CA-[CB] |==|  0.24087
USER: genes 9 Torsion [N]-CA--CB-[CG2] |==|  0.37939
USER: genes 10 Torsion [CA]-CB--OG1-[HG1] |==|  0.96124
USER: genes 11 Torsion [N]-CA--C-[N] |==|  0.33632
USER: genes 12 Torsion [C]-N--CA-[C] |==|  0.80052
USER: genes 13 Torsion [N]-CA--C-[N] |==|  0.42400
USER: genes 14 Torsion [N]-CA--CB-[CG] |==|  0.61085
USER: genes 15 Torsion [CA]-CB--CG-[ND1] |==|  0.83980
ROOT
ATOM      1  CA  HIS C   2      23.265   1.741  45.301  1.00 11.69 LIG 0.18  C 
ENDROOT
BRANCH 1 2
ATOM      2  N   HIS C   2      23.938   0.613  45.945  1.00 10.87 LIG-0.35  N 
ATOM      3 H    HIS C   2      24.796   0.635  45.908  1.00 10.87 LIG 0.16  HD
ATOM      4  C   PHE C   1      23.236  -0.351  46.530  1.00 11.47 LIG 0.24  C 
ATOM      5 O    PHE C   1      22.002  -0.293  46.680  1.00 12.97 LIG-0.27  OA
BRANCH 4 6
ATOM      6  CA  PHE C   1      24.046  -1.536  47.060  1.00 11.05 LIG 0.18  C 
BRANCH 6 7
ATOM      7  CB  PHE C   1      23.673  -2.814  46.302  1.00 10.09 LIG 0.07  C 
BRANCH 7 8
ATOM      8  CG  PHE C   1      22.215  -3.148  46.373  1.00  8.73 LIG-0.06  A 
ATOM      9  CD2 PHE C   1      21.667  -3.668  47.524  1.00  8.91 LIG 0.01  A 
ATOM     10  CE2 PHE C   1      20.325  -3.982  47.574  1.00  8.44 LIG 0.00  A 
ATOM     11  CZ  PHE C   1      19.527  -3.788  46.464  1.00  8.32 LIG 0.00  A 
ATOM     12  CE1 PHE C   1      20.066  -3.258  45.312  1.00  8.07 LIG 0.00  A 
ATOM     13  CD1 PHE C   1      21.405  -2.956  45.268  1.00  8.33 LIG 0.01  A 
ENDBRANCH 7 8
ENDBRANCH 6 7
BRANCH 6 14
ATOM     14  N   PHE C   1      23.832  -1.719  48.478  1.00 11.54 LIG-0.35  N 
ATOM     15 H    PHE C   1      23.503  -2.489  48.675  1.00 11.54 LIG 0.16  HD
ATOM     16  C   ACE C   0      24.108  -0.806  49.395  1.00 13.21 LIG 0.21  C 
ATOM     17  CH3 ACE C   0      23.657  -1.045  50.807  1.00 13.47 LIG 0.12  C 
ATOM     18 O    ACE C   0      24.526   0.278  48.991  1.00 14.75 LIG-0.27  OA
ENDBRANCH 6 14
ENDBRANCH 4 6
ENDBRANCH 1 2
BRANCH 1 19
ATOM     19  C   HIS C   2      24.027   2.089  44.052  1.00 11.19 LIG 0.24  C 
ATOM     20  N   THR C   3      24.470   1.069  43.330  1.00 11.67 LIG-0.34  N 
ATOM     21 H    THR C   3      24.386   0.242  43.550  1.00 11.67 LIG 0.16  HD
ATOM     22 O    HIS C   2      24.178   3.259  43.710  1.00 11.10 LIG-0.27  OA
BRANCH 20 23
ATOM     23  CA  THR C   3      25.152   1.302  42.074  1.00 11.71 LIG 0.20  C 
BRANCH 23 24
ATOM     24  CB  THR C   3      26.674   1.534  42.271  1.00 13.34 LIG 0.15  C 
ATOM     25  CG2 THR C   3      27.493   0.787  41.247  1.00 14.42 LIG 0.04  C 
BRANCH 24 26
ATOM     26 OG1  THR C   3      26.942   2.927  42.148  1.00 13.01 LIG-0.39  OA
ATOM     27 HG1  THR C   3      26.275   3.312  41.811  1.00 13.01 LIG 0.21  HD
ENDBRANCH 24 26
ENDBRANCH 23 24
BRANCH 23 28
ATOM     28  C   THR C   3      24.882   0.150  41.094  1.00 11.33 LIG 0.24  C 
ATOM     29  N   ALA C   4      24.306   0.472  39.938  1.00 10.31 LIG-0.35  N 
ATOM     30 H    ALA C   4      23.978   1.245  39.756  1.00 10.31 LIG 0.16  HD
ATOM     31 O    THR C   3      25.190  -1.014  41.382  1.00 11.88 LIG-0.27  OA
BRANCH 29 32
ATOM     32  CA  ALA C   4      24.195  -0.510  38.866  1.00 10.35 LIG 0.18  C 
ATOM     33  CB  ALA C   4      23.173  -0.051  37.815  1.00 10.31 LIG 0.04  C 
BRANCH 32 34
ATOM     34  C   ALA C   4      25.575  -0.792  38.220  1.00 10.99 LIG 0.28  C 
ATOM     35 O    ALA C   4      26.458   0.058  38.233  0.79 11.43 LIG-0.27  OA
ATOM     36  N   NH2 C   5      25.751  -1.988  37.667  0.91 10.97 LIG-0.11  N 
ENDBRANCH 32 34
ENDBRANCH 29 32
ENDBRANCH 23 28
ENDBRANCH 20 23
ENDBRANCH 1 19
BRANCH 1 37
ATOM     37  CB  HIS C   2      23.262   2.983  46.181  1.00 14.08 LIG 0.10  C 
BRANCH 37 38
ATOM     38  CG  HIS C   2      21.988   3.748  46.143  1.00 15.42 LIG 0.06  A 
ATOM     39  CD2 HIS C   2      21.146   4.093  47.139  1.00 15.59 LIG 0.14  A 
ATOM     40 NE2  HIS C   2      20.111   4.798  46.572  1.00 17.02 LIG-0.25  NA
ATOM     41  CE1 HIS C   2      20.317   4.885  45.271  1.00 16.99 LIG 0.23  A 
ATOM     42 ND1  HIS C   2      21.443   4.257  44.984  0.48 15.92 LIG-0.24  NA
ENDBRANCH 37 38
ENDBRANCH 1 37
TORSDOF 14
ENDMDL
MODEL 79
USER: ADFR SOLUTION from run 92
USER: SCORE 11.777145 LL:  -3.659 LR: -10.077 RR:   0.000 FEB:  -5.901
USER: RMSD 4.373754
USER: SEED 91
USER: STATUS no improvement in best in 11 clusters for 5 generations
USER: GENES 16
USER: genes 0 Translation |==|  0.65462 0.55676 0.38972
USER: genes 1 Rotation |==|  0.28752 0.73252 0.48947 0.88817
USER: genes 2 Torsion [C]-CA--N-[C] |==|  0.68435
USER: genes 3 Torsion [N]-C--CA-[N] |==|  0.70000
USER: genes 4 Torsion [C]-CA--CB-[CG] |==|  0.31831
USER: genes 5 Torsion [CA]-CB--CG-[CD2] |==|  0.93322
USER: genes 6 Torsion [C]-CA--N-[C] |==|  0.18795
USER: genes 7 Torsion [N]-CA--C-[N] |==|  0.95741
USER: genes 8 Torsion [C]-N--CA-[CB] |==|  0.19741
USER: genes 9 Torsion [N]-CA--CB-[CG2] |==|  0.40924
USER: genes 10 Torsion [CA]-CB--OG1-[HG1] |==|  0.08177
USER: genes 11 Torsion [N]-CA--C-[N] |==|  0.43360
USER: genes 12 Torsion [C]-N--CA-[C] |==|  0.84340
USER: genes 13 Torsion [N]-CA--C-[N] |==|  0.37121
USER: genes 14 Torsion [N]-CA--CB-[CG] |==|  0.31146
USER: genes 15 Torsion [CA]-CB--CG-[ND1] |==|  0.78191
ROOT
ATOM      1  CA  HIS C   2      27.792   3.523  40.694  1.00 11.69 LIG 0.18  C 
ENDROOT
BRANCH 1 2
ATOM      2  N   HIS C   2      26.817   2.433  40.686  1.00 10.87 LIG-0.35  N 
ATOM      3 H    HIS C   2      26.024   2.659  40.444  1.00 10.87 LIG 0.16  HD
ATOM      4  C   PHE C   1      27.174   1.202  41.034  1.00 11.47 LIG 0.24  C 
ATOM      5 O    PHE C   1      28.355   0.877  41.254  1.00 12.97 LIG-0.27  OA
BRANCH 4 6
ATOM      6  CA  PHE C   1      26.042   0.175  41.104  1.00 11.05 LIG 0.18  C 
BRANCH 6 7
ATOM      7  CB  PHE C   1      24.788   0.720  40.412  1.00 10.09 LIG 0.07  C 
BRANCH 7 8
ATOM      8  CG  PHE C   1      24.402  -0.045  39.183  1.00  8.73 LIG-0.06  A 
ATOM      9  CD2 PHE C   1      25.338  -0.773  38.485  1.00  8.91 LIG 0.01  A 
ATOM     10  CE2 PHE C   1      24.974  -1.465  37.349  1.00  8.44 LIG 0.00  A 
ATOM     11  CZ  PHE C   1      23.668  -1.418  36.899  1.00  8.32 LIG 0.00  A 
ATOM     12  CE1 PHE C   1      22.724  -0.700  37.600  1.00  8.07 LIG 0.00  A 
ATOM     13  CD1 PHE C   1      23.097  -0.008  38.725  1.00  8.33 LIG 0.01  A 
ENDBRANCH 7 8
ENDBRANCH 6 7
BRANCH 6 14
ATOM     14  N   PHE C   1      25.741  -0.174  42.474  1.00 11.54 LIG-0.35  N 
ATOM     15 H    PHE C   1      25.946  -0.986  42.670  1.00 11.54 LIG 0.16  HD
ATOM     16  C   ACE C   0      25.205   0.659  43.352  1.00 13.21 LIG 0.21  C 
ATOM     17  CH3 ACE C   0      24.763   0.116  44.681  1.00 13.47 LIG 0.12  C 
ATOM     18 O    ACE C   0      24.905   1.780  42.943  1.00 14.75 LIG-0.27  OA
ENDBRANCH 6 14
ENDBRANCH 4 6
ENDBRANCH 1 2
BRANCH 1 19
ATOM     19  C   HIS C   2      27.393   4.500  41.766  1.00 11.19 LIG 0.24  C 
ATOM     20  N   THR C   3      26.159   4.384  42.238  1.00 11.67 LIG-0.34  N 
ATOM     21 H    THR C   3      25.575   3.824  41.945  1.00 11.67 LIG 0.16  HD
ATOM     22 O    HIS C   2      28.195   5.321  42.203  1.00 11.10 LIG-0.27  OA
BRANCH 20 23
ATOM     23  CA  THR C   3      25.706   5.231  43.322  1.00 11.71 LIG 0.20  C 
BRANCH 23 24
ATOM     24  CB  THR C   3      25.510   6.702  42.868  1.00 13.34 LIG 0.15  C 
ATOM     25  CG2 THR C   3      24.383   7.373  43.614  1.00 14.42 LIG 0.04  C 
BRANCH 24 26
ATOM     26 OG1  THR C   3      26.717   7.418  43.113  1.00 13.01 LIG-0.39  OA
ATOM     27 HG1  THR C   3      27.370   6.892  43.058  1.00 13.01 LIG 0.21  HD
ENDBRANCH 24 26
ENDBRANCH 23 24
BRANCH 23 28
ATOM     28  C   THR C   3      24.424   4.661  43.948  1.00 11.33 LIG 0.24  C 
ATOM     29  N   ALA C   4      24.167   5.014  45.206  1.00 10.31 LIG-0.35  N 
ATOM     30 H    ALA C   4      24.717   5.434  45.716  1.00 10.31 LIG 0.16  HD
ATOM     31 O    THR C   3      23.679   3.913  43.302  1.00 11.88 LIG-0.27  OA
BRANCH 29 32
ATOM     32  CA  ALA C   4      22.883   4.694  45.819  1.00 10.35 LIG 0.18  C 
ATOM     33  CB  ALA C   4      22.837   5.194  47.270  1.00 10.31 LIG 0.04  C 
BRANCH 32 34
ATOM     34  C   ALA C   4      21.709   5.272  44.988  1.00 10.99 LIG 0.28  C 
ATOM     35 O    ALA C   4      21.742   6.425  44.573  0.79 11.43 LIG-0.27  OA
ATOM     36  N   NH2 C   5      20.683   4.462  44.748  0.91 10.97 LIG-0.11  N 
ENDBRANCH 32 34
ENDBRANCH 29 32
ENDBRANCH 23 28
ENDBRANCH 20 23
ENDBRANCH 1 19
BRANCH 1 37
ATOM     37  CB  HIS C   2      27.805   4.289  39.379  1.00 14.08 LIG 0.10  C 
BRANCH 37 38
ATOM     38  CG  HIS C   2      27.298   5.682  39.484  1.00 15.42 LIG 0.06  A 
ATOM     39  CD2 HIS C   2      27.966   6.853  39.543  1.00 15.59 LIG 0.14  A 
ATOM     40 NE2  HIS C   2      27.027   7.853  39.635  1.00 17.02 LIG-0.25  NA
ATOM     41  CE1 HIS C   2      25.824   7.310  39.629  1.00 16.99 LIG 0.23  A 
ATOM     42 ND1  HIS C   2      25.958   5.999  39.541  0.48 15.92 LIG-0.24  NA
ENDBRANCH 37 38
ENDBRANCH 1 37
TORSDOF 14
ENDMDL
MODEL 80
USER: ADFR SOLUTION from run 58
USER: SCORE 11.982701 LL:  -3.145 LR: -10.077 RR:   0.000 FEB:  -5.900
USER: RMSD 8.643032
USER: SEED 57
USER: STATUS no improvement in best in 24 clusters for 5 generations
USER: GENES 16
USER: genes 0 Translation |==|  0.40166 0.62084 0.56183
USER: genes 1 Rotation |==|  0.44998 0.97168 0.65022 0.54946
USER: genes 2 Torsion [C]-CA--N-[C] |==|  0.82866
USER: genes 3 Torsion [N]-C--CA-[N] |==|  0.04285
USER: genes 4 Torsion [C]-CA--CB-[CG] |==|  0.57292
USER: genes 5 Torsion [CA]-CB--CG-[CD2] |==|  0.34617
USER: genes 6 Torsion [C]-CA--N-[C] |==|  0.71005
USER: genes 7 Torsion [N]-CA--C-[N] |==|  0.35261
USER: genes 8 Torsion [C]-N--CA-[CB] |==|  0.25555
USER: genes 9 Torsion [N]-CA--CB-[CG2] |==|  0.78318
USER: genes 10 Torsion [CA]-CB--OG1-[HG1] |==|  0.97057
USER: genes 11 Torsion [N]-CA--C-[N] |==|  0.48283
USER: genes 12 Torsion [C]-N--CA-[C] |==|  0.84222
USER: genes 13 Torsion [N]-CA--C-[N] |==|  0.90064
USER: genes 14 Torsion [N]-CA--CB-[CG] |==|  0.86400
USER: genes 15 Torsion [CA]-CB--CG-[ND1] |==|  0.35287
ROOT
ATOM      1  CA  HIS C   2      22.859   4.581  44.179  1.00 11.69 LIG 0.18  C 
ENDROOT
BRANCH 1 2
ATOM      2  N   HIS C   2      22.840   3.488  45.151  1.00 10.87 LIG-0.35  N 
ATOM      3 H    HIS C   2      22.329   3.617  45.831  1.00 10.87 LIG 0.16  HD
ATOM      4  C   PHE C   1      23.572   2.397  44.959  1.00 11.47 LIG 0.24  C 
ATOM      5 O    PHE C   1      24.200   2.180  43.907  1.00 12.97 LIG-0.27  OA
BRANCH 4 6
ATOM      6  CA  PHE C   1      23.562   1.379  46.102  1.00 11.05 LIG 0.18  C 
BRANCH 6 7
ATOM      7  CB  PHE C   1      23.451  -0.044  45.545  1.00 10.09 LIG 0.07  C 
BRANCH 7 8
ATOM      8  CG  PHE C   1      22.826  -1.013  46.502  1.00  8.73 LIG-0.06  A 
ATOM      9  CD2 PHE C   1      21.723  -1.749  46.137  1.00  8.91 LIG 0.01  A 
ATOM     10  CE2 PHE C   1      21.150  -2.631  47.030  1.00  8.44 LIG 0.00  A 
ATOM     11  CZ  PHE C   1      21.674  -2.767  48.300  1.00  8.32 LIG 0.00  A 
ATOM     12  CE1 PHE C   1      22.785  -2.041  48.668  1.00  8.07 LIG 0.00  A 
ATOM     13  CD1 PHE C   1      23.344  -1.160  47.776  1.00  8.33 LIG 0.01  A 
ENDBRANCH 7 8
ENDBRANCH 6 7
BRANCH 6 14
ATOM     14  N   PHE C   1      22.476   1.640  47.021  1.00 11.54 LIG-0.35  N 
ATOM     15 H    PHE C   1      21.710   1.397  46.716  1.00 11.54 LIG 0.16  HD
ATOM     16  C   ACE C   0      22.628   2.194  48.213  1.00 13.21 LIG 0.21  C 
ATOM     17  CH3 ACE C   0      21.402   2.588  48.984  1.00 13.47 LIG 0.12  C 
ATOM     18 O    ACE C   0      23.766   2.548  48.520  1.00 14.75 LIG-0.27  OA
ENDBRANCH 6 14
ENDBRANCH 4 6
ENDBRANCH 1 2
BRANCH 1 19
ATOM     19  C   HIS C   2      24.263   5.116  44.105  1.00 11.19 LIG 0.24  C 
ATOM     20  N   THR C   3      24.804   5.185  42.896  1.00 11.67 LIG-0.34  N 
ATOM     21 H    THR C   3      24.424   4.909  42.175  1.00 11.67 LIG 0.16  HD
ATOM     22 O    HIS C   2      24.843   5.509  45.113  1.00 11.10 LIG-0.27  OA
BRANCH 20 23
ATOM     23  CA  THR C   3      26.123   5.753  42.714  1.00 11.71 LIG 0.20  C 
BRANCH 23 24
ATOM     24  CB  THR C   3      27.236   4.674  42.780  1.00 13.34 LIG 0.15  C 
ATOM     25  CG2 THR C   3      27.543   4.269  44.201  1.00 14.42 LIG 0.04  C 
BRANCH 24 26
ATOM     26 OG1  THR C   3      26.800   3.526  42.057  1.00 13.01 LIG-0.39  OA
ATOM     27 HG1  THR C   3      25.985   3.607  41.869  1.00 13.01 LIG 0.21  HD
ENDBRANCH 24 26
ENDBRANCH 23 24
BRANCH 23 28
ATOM     28  C   THR C   3      26.189   6.547  41.401  1.00 11.33 LIG 0.24  C 
ATOM     29  N   ALA C   4      27.309   7.229  41.171  1.00 10.31 LIG-0.35  N 
ATOM     30 H    ALA C   4      27.935   7.345  41.749  1.00 10.31 LIG 0.16  HD
ATOM     31 O    THR C   3      25.239   6.543  40.607  1.00 11.88 LIG-0.27  OA
BRANCH 29 32
ATOM     32  CA  ALA C   4      27.550   7.845  39.872  1.00 10.35 LIG 0.18  C 
ATOM     33  CB  ALA C   4      28.894   8.588  39.866  1.00 10.31 LIG 0.04  C 
BRANCH 32 34
ATOM     34  C   ALA C   4      27.485   6.793  38.735  1.00 10.99 LIG 0.28  C 
ATOM     35 O    ALA C   4      27.027   7.086  37.636  0.79 11.43 LIG-0.27  OA
ATOM     36  N   NH2 C   5      27.953   5.579  39.007  0.91 10.97 LIG-0.11  N 
ENDBRANCH 32 34
ENDBRANCH 29 32
ENDBRANCH 23 28
ENDBRANCH 20 23
ENDBRANCH 1 19
BRANCH 1 37
ATOM     37  CB  HIS C   2      21.964   5.737  44.601  1.00 14.08 LIG 0.10  C 
BRANCH 37 38
ATOM     38  CG  HIS C   2      20.596   5.325  45.011  1.00 15.42 LIG 0.06  A 
ATOM     39  CD2 HIS C   2      19.680   4.572  44.366  1.00 15.59 LIG 0.14  A 
ATOM     40 NE2  HIS C   2      18.576   4.490  45.180  1.00 17.02 LIG-0.25  NA
ATOM     41  CE1 HIS C   2      18.811   5.166  46.289  1.00 16.99 LIG 0.23  A 
ATOM     42 ND1  HIS C   2      20.024   5.683  46.212  0.48 15.92 LIG-0.24  NA
ENDBRANCH 37 38
ENDBRANCH 1 37
TORSDOF 14
ENDMDL
MODEL 81
USER: ADFR SOLUTION from run 194
USER: SCORE 12.248558 LL:  -3.235 LR: -10.073 RR:   0.000 FEB:  -5.897
USER: RMSD 8.680992
USER: SEED 193
USER: STATUS no improvement in best in 26 clusters for 5 generations
USER: GENES 16
USER: genes 0 Translation |==|  0.36731 0.49718 0.78001
USER: genes 1 Rotation |==|  0.79031 0.50415 0.88993 0.61688
USER: genes 2 Torsion [C]-CA--N-[C] |==|  0.74293
USER: genes 3 Torsion [N]-C--CA-[N] |==|  0.41476
USER: genes 4 Torsion [C]-CA--CB-[CG] |==|  0.89572
USER: genes 5 Torsion [CA]-CB--CG-[CD2] |==|  0.27946
USER: genes 6 Torsion [C]-CA--N-[C] |==|  0.83319
USER: genes 7 Torsion [N]-CA--C-[N] |==|  0.73279
USER: genes 8 Torsion [C]-N--CA-[CB] |==|  0.15981
USER: genes 9 Torsion [N]-CA--CB-[CG2] |==|  0.70459
USER: genes 10 Torsion [CA]-CB--OG1-[HG1] |==|  0.30452
USER: genes 11 Torsion [N]-CA--C-[N] |==|  0.08687
USER: genes 12 Torsion [C]-N--CA-[C] |==|  0.75280
USER: genes 13 Torsion [N]-CA--C-[N] |==|  0.41975
USER: genes 14 Torsion [N]-CA--CB-[CG] |==|  0.53277
USER: genes 15 Torsion [CA]-CB--CG-[ND1] |==|  0.16362
ROOT
ATOM      1  CA  HIS C   2      22.190   2.540  48.597  1.00 11.69 LIG 0.18  C 
ENDROOT
BRANCH 1 2
ATOM      2  N   HIS C   2      21.034   3.178  47.966  1.00 10.87 LIG-0.35  N 
ATOM      3 H    HIS C   2      20.340   2.677  47.893  1.00 10.87 LIG 0.16  HD
ATOM      4  C   PHE C   1      21.097   4.438  47.552  1.00 11.47 LIG 0.24  C 
ATOM      5 O    PHE C   1      22.069   5.179  47.786  1.00 12.97 LIG-0.27  OA
BRANCH 4 6
ATOM      6  CA  PHE C   1      19.868   4.954  46.800  1.00 11.05 LIG 0.18  C 
BRANCH 6 7
ATOM      7  CB  PHE C   1      20.002   4.659  45.302  1.00 10.09 LIG 0.07  C 
BRANCH 7 8
ATOM      8  CG  PHE C   1      21.399   4.815  44.784  1.00  8.73 LIG-0.06  A 
ATOM      9  CD2 PHE C   1      22.200   3.715  44.581  1.00  8.91 LIG 0.01  A 
ATOM     10  CE2 PHE C   1      23.489   3.870  44.115  1.00  8.44 LIG 0.00  A 
ATOM     11  CZ  PHE C   1      23.986   5.134  43.864  1.00  8.32 LIG 0.00  A 
ATOM     12  CE1 PHE C   1      23.185   6.240  44.055  1.00  8.07 LIG 0.00  A 
ATOM     13  CD1 PHE C   1      21.907   6.076  44.527  1.00  8.33 LIG 0.01  A 
ENDBRANCH 7 8
ENDBRANCH 6 7
BRANCH 6 14
ATOM     14  N   PHE C   1      19.686   6.373  47.013  1.00 11.54 LIG-0.35  N 
ATOM     15 H    PHE C   1      19.713   6.830  46.286  1.00 11.54 LIG 0.16  HD
ATOM     16  C   ACE C   0      19.495   6.927  48.199  1.00 13.21 LIG 0.21  C 
ATOM     17  CH3 ACE C   0      19.516   8.424  48.305  1.00 13.47 LIG 0.12  C 
ATOM     18 O    ACE C   0      19.528   6.177  49.174  1.00 14.75 LIG-0.27  OA
ENDBRANCH 6 14
ENDBRANCH 4 6
ENDBRANCH 1 2
BRANCH 1 19
ATOM     19  C   HIS C   2      22.980   1.840  47.526  1.00 11.19 LIG 0.24  C 
ATOM     20  N   THR C   3      22.738   0.545  47.368  1.00 11.67 LIG-0.34  N 
ATOM     21 H    THR C   3      22.200   0.086  47.857  1.00 11.67 LIG 0.16  HD
ATOM     22 O    HIS C   2      23.766   2.459  46.814  1.00 11.10 LIG-0.27  OA
BRANCH 20 23
ATOM     23  CA  THR C   3      23.396  -0.200  46.315  1.00 11.71 LIG 0.20  C 
BRANCH 23 24
ATOM     24  CB  THR C   3      24.942  -0.122  46.425  1.00 13.34 LIG 0.15  C 
ATOM     25  CG2 THR C   3      25.535   0.776  45.368  1.00 14.42 LIG 0.04  C 
BRANCH 24 26
ATOM     26 OG1  THR C   3      25.281   0.391  47.710  1.00 13.01 LIG-0.39  OA
ATOM     27 HG1  THR C   3      25.621  -0.220  48.175  1.00 13.01 LIG 0.21  HD
ENDBRANCH 24 26
ENDBRANCH 23 24
BRANCH 23 28
ATOM     28  C   THR C   3      22.907  -1.657  46.303  1.00 11.33 LIG 0.24  C 
ATOM     29  N   ALA C   4      21.652  -1.868  46.692  1.00 10.31 LIG-0.35  N 
ATOM     30 H    ALA C   4      21.147  -1.272  47.052  1.00 10.31 LIG 0.16  HD
ATOM     31 O    THR C   3      23.656  -2.575  45.946  1.00 11.88 LIG-0.27  OA
BRANCH 29 32
ATOM     32  CA  ALA C   4      21.033  -3.177  46.524  1.00 10.35 LIG 0.18  C 
ATOM     33  CB  ALA C   4      20.042  -3.458  47.663  1.00 10.31 LIG 0.04  C 
BRANCH 32 34
ATOM     34  C   ALA C   4      20.345  -3.297  45.140  1.00 10.99 LIG 0.28  C 
ATOM     35 O    ALA C   4      19.902  -2.304  44.572  0.79 11.43 LIG-0.27  OA
ATOM     36  N   NH2 C   5      20.270  -4.511  44.605  0.91 10.97 LIG-0.11  N 
ENDBRANCH 32 34
ENDBRANCH 29 32
ENDBRANCH 23 28
ENDBRANCH 20 23
ENDBRANCH 1 19
BRANCH 1 37
ATOM     37  CB  HIS C   2      21.777   1.482  49.609  1.00 14.08 LIG 0.10  C 
BRANCH 37 38
ATOM     38  CG  HIS C   2      22.889   1.004  50.472  1.00 15.42 LIG 0.06  A 
ATOM     39  CD2 HIS C   2      23.392  -0.237  50.641  1.00 15.59 LIG 0.14  A 
ATOM     40 NE2  HIS C   2      24.417  -0.140  51.552  1.00 17.02 LIG-0.25  NA
ATOM     41  CE1 HIS C   2      24.540   1.120  51.923  1.00 16.99 LIG 0.23  A 
ATOM     42 ND1  HIS C   2      23.627   1.833  51.288  0.48 15.92 LIG-0.24  NA
ENDBRANCH 37 38
ENDBRANCH 1 37
TORSDOF 14
ENDMDL
MODEL 82
USER: ADFR SOLUTION from run 193
USER: SCORE 12.270753 LL:  -2.847 LR: -10.056 RR:   0.000 FEB:  -5.880
USER: RMSD 9.514988
USER: SEED 192
USER: STATUS no improvement in best in 42 clusters for 5 generations
USER: GENES 16
USER: genes 0 Translation |==|  0.63863 0.46921 0.34805
USER: genes 1 Rotation |==|  0.41262 0.13329 0.20191 0.63794
USER: genes 2 Torsion [C]-CA--N-[C] |==|  0.80556
USER: genes 3 Torsion [N]-C--CA-[N] |==|  0.96856
USER: genes 4 Torsion [C]-CA--CB-[CG] |==|  0.05399
USER: genes 5 Torsion [CA]-CB--CG-[CD2] |==|  0.25650
USER: genes 6 Torsion [C]-CA--N-[C] |==|  0.71699
USER: genes 7 Torsion [N]-CA--C-[N] |==|  0.20425
USER: genes 8 Torsion [C]-N--CA-[CB] |==|  0.84729
USER: genes 9 Torsion [N]-CA--CB-[CG2] |==|  0.47807
USER: genes 10 Torsion [CA]-CB--OG1-[HG1] |==|  0.77194
USER: genes 11 Torsion [N]-CA--C-[N] |==|  0.37757
USER: genes 12 Torsion [C]-N--CA-[C] |==|  0.81744
USER: genes 13 Torsion [N]-CA--C-[N] |==|  0.37514
USER: genes 14 Torsion [N]-CA--CB-[CG] |==|  0.75904
USER: genes 15 Torsion [CA]-CB--CG-[ND1] |==|  0.62731
ROOT
ATOM      1  CA  HIS C   2      27.480   2.079  39.850  1.00 11.69 LIG 0.18  C 
ENDROOT
BRANCH 1 2
ATOM      2  N   HIS C   2      27.625   0.628  39.733  1.00 10.87 LIG-0.35  N 
ATOM      3 H    HIS C   2      27.948   0.240  40.429  1.00 10.87 LIG 0.16  HD
ATOM      4  C   PHE C   1      27.271  -0.001  38.619  1.00 11.47 LIG 0.24  C 
ATOM      5 O    PHE C   1      26.688   0.567  37.678  1.00 12.97 LIG-0.27  OA
BRANCH 4 6
ATOM      6  CA  PHE C   1      27.583  -1.499  38.572  1.00 11.05 LIG 0.18  C 
BRANCH 6 7
ATOM      7  CB  PHE C   1      26.286  -2.312  38.616  1.00 10.09 LIG 0.07  C 
BRANCH 7 8
ATOM      8  CG  PHE C   1      25.072  -1.522  38.232  1.00  8.73 LIG-0.06  A 
ATOM      9  CD2 PHE C   1      24.630  -1.499  36.930  1.00  8.91 LIG 0.01  A 
ATOM     10  CE2 PHE C   1      23.518  -0.760  36.586  1.00  8.44 LIG 0.00  A 
ATOM     11  CZ  PHE C   1      22.850  -0.026  37.548  1.00  8.32 LIG 0.00  A 
ATOM     12  CE1 PHE C   1      23.281  -0.053  38.856  1.00  8.07 LIG 0.00  A 
ATOM     13  CD1 PHE C   1      24.394  -0.785  39.187  1.00  8.33 LIG 0.01  A 
ENDBRANCH 7 8
ENDBRANCH 6 7
BRANCH 6 14
ATOM     14  N   PHE C   1      28.448  -1.884  39.665  1.00 11.54 LIG-0.35  N 
ATOM     15 H    PHE C   1      28.033  -1.963  40.414  1.00 11.54 LIG 0.16  HD
ATOM     16  C   ACE C   0      29.749  -2.097  39.544  1.00 13.21 LIG 0.21  C 
ATOM     17  CH3 ACE C   0      30.563  -2.299  40.788  1.00 13.47 LIG 0.12  C 
ATOM     18 O    ACE C   0      30.242  -1.902  38.434  1.00 14.75 LIG-0.27  OA
ENDBRANCH 6 14
ENDBRANCH 4 6
ENDBRANCH 1 2
BRANCH 1 19
ATOM     19  C   HIS C   2      28.495   2.724  38.947  1.00 11.19 LIG 0.24  C 
ATOM     20  N   THR C   3      28.247   2.666  37.646  1.00 11.67 LIG-0.34  N 
ATOM     21 H    THR C   3      27.578   2.255  37.294  1.00 11.67 LIG 0.16  HD
ATOM     22 O    HIS C   2      29.470   3.311  39.410  1.00 11.10 LIG-0.27  OA
BRANCH 20 23
ATOM     23  CA  THR C   3      29.129   3.321  36.702  1.00 11.71 LIG 0.20  C 
BRANCH 23 24
ATOM     24  CB  THR C   3      29.312   4.828  37.024  1.00 13.34 LIG 0.15  C 
ATOM     25  CG2 THR C   3      30.374   5.461  36.160  1.00 14.42 LIG 0.04  C 
BRANCH 24 26
ATOM     26 OG1  THR C   3      28.074   5.495  36.798  1.00 13.01 LIG-0.39  OA
ATOM     27 HG1  THR C   3      27.993   5.665  35.979  1.00 13.01 LIG 0.21  HD
ENDBRANCH 24 26
ENDBRANCH 23 24
BRANCH 23 28
ATOM     28  C   THR C   3      30.480   2.592  36.635  1.00 11.33 LIG 0.24  C 
ATOM     29  N   ALA C   4      30.990   2.390  35.422  1.00 10.31 LIG-0.35  N 
ATOM     30 H    ALA C   4      30.567   2.532  34.687  1.00 10.31 LIG 0.16  HD
ATOM     31 O    THR C   3      31.052   2.220  37.668  1.00 11.88 LIG-0.27  OA
BRANCH 29 32
ATOM     32  CA  ALA C   4      32.351   1.894  35.263  1.00 10.35 LIG 0.18  C 
ATOM     33  CB  ALA C   4      32.621   1.514  33.799  1.00 10.31 LIG 0.04  C 
BRANCH 32 34
ATOM     34  C   ALA C   4      33.386   2.929  35.774  1.00 10.99 LIG 0.28  C 
ATOM     35 O    ALA C   4      33.278   4.117  35.490  0.79 11.43 LIG-0.27  OA
ATOM     36  N   NH2 C   5      34.377   2.469  36.531  0.91 10.97 LIG-0.11  N 
ENDBRANCH 32 34
ENDBRANCH 29 32
ENDBRANCH 23 28
ENDBRANCH 20 23
ENDBRANCH 1 19
BRANCH 1 37
ATOM     37  CB  HIS C   2      27.765   2.570  41.262  1.00 14.08 LIG 0.10  C 
BRANCH 37 38
ATOM     38  CG  HIS C   2      26.583   2.537  42.163  1.00 15.42 LIG 0.06  A 
ATOM     39  CD2 HIS C   2      25.664   1.570  42.364  1.00 15.59 LIG 0.14  A 
ATOM     40 NE2  HIS C   2      24.777   2.039  43.303  1.00 17.02 LIG-0.25  NA
ATOM     41  CE1 HIS C   2      25.145   3.253  43.668  1.00 16.99 LIG 0.23  A 
ATOM     42 ND1  HIS C   2      26.232   3.580  42.993  0.48 15.92 LIG-0.24  NA
ENDBRANCH 37 38
ENDBRANCH 1 37
TORSDOF 14
ENDMDL
MODEL 83
USER: ADFR SOLUTION from run 194
USER: SCORE 12.127607 LL:  -2.956 LR: -10.055 RR:   0.000 FEB:  -5.879
USER: RMSD 9.006956
USER: SEED 193
USER: STATUS no improvement in best in 26 clusters for 5 generations
USER: GENES 16
USER: genes 0 Translation |==|  0.42152 0.52093 0.57749
USER: genes 1 Rotation |==|  0.74707 0.88484 0.48480 0.70155
USER: genes 2 Torsion [C]-CA--N-[C] |==|  0.17584
USER: genes 3 Torsion [N]-C--CA-[N] |==|  0.01524
USER: genes 4 Torsion [C]-CA--CB-[CG] |==|  0.41343
USER: genes 5 Torsion [CA]-CB--CG-[CD2] |==|  0.02277
USER: genes 6 Torsion [C]-CA--N-[C] |==|  0.70657
USER: genes 7 Torsion [N]-CA--C-[N] |==|  0.09479
USER: genes 8 Torsion [C]-N--CA-[CB] |==|  0.17778
USER: genes 9 Torsion [N]-CA--CB-[CG2] |==|  0.14291
USER: genes 10 Torsion [CA]-CB--OG1-[HG1] |==|  0.36435
USER: genes 11 Torsion [N]-CA--C-[N] |==|  0.19886
USER: genes 12 Torsion [C]-N--CA-[C] |==|  0.85819
USER: genes 13 Torsion [N]-CA--C-[N] |==|  0.38546
USER: genes 14 Torsion [N]-CA--CB-[CG] |==|  0.85745
USER: genes 15 Torsion [CA]-CB--CG-[ND1] |==|  0.07217
ROOT
ATOM      1  CA  HIS C   2      23.247   2.932  44.496  1.00 11.69 LIG 0.18  C 
ENDROOT
BRANCH 1 2
ATOM      2  N   HIS C   2      22.158   3.334  45.386  1.00 10.87 LIG-0.35  N 
ATOM      3 H    HIS C   2      21.376   3.326  45.028  1.00 10.87 LIG 0.16  HD
ATOM      4  C   PHE C   1      22.403   3.678  46.645  1.00 11.47 LIG 0.24  C 
ATOM      5 O    PHE C   1      23.523   3.557  47.173  1.00 12.97 LIG-0.27  OA
BRANCH 4 6
ATOM      6  CA  PHE C   1      21.202   4.196  47.440  1.00 11.05 LIG 0.18  C 
BRANCH 6 7
ATOM      7  CB  PHE C   1      21.066   3.425  48.757  1.00 10.09 LIG 0.07  C 
BRANCH 7 8
ATOM      8  CG  PHE C   1      20.486   4.242  49.871  1.00  8.73 LIG-0.06  A 
ATOM      9  CD2 PHE C   1      19.976   5.497  49.631  1.00  8.91 LIG 0.01  A 
ATOM     10  CE2 PHE C   1      19.455   6.244  50.666  1.00  8.44 LIG 0.00  A 
ATOM     11  CZ  PHE C   1      19.457   5.741  51.953  1.00  8.32 LIG 0.00  A 
ATOM     12  CE1 PHE C   1      19.957   4.481  52.198  1.00  8.07 LIG 0.00  A 
ATOM     13  CD1 PHE C   1      20.481   3.747  51.163  1.00  8.33 LIG 0.01  A 
ENDBRANCH 7 8
ENDBRANCH 6 7
BRANCH 6 14
ATOM     14  N   PHE C   1      19.983   4.084  46.671  1.00 11.54 LIG-0.35  N 
ATOM     15 H    PHE C   1      19.693   3.277  46.610  1.00 11.54 LIG 0.16  HD
ATOM     16  C   ACE C   0      19.362   5.110  46.110  1.00 13.21 LIG 0.21  C 
ATOM     17  CH3 ACE C   0      18.218   4.835  45.177  1.00 13.47 LIG 0.12  C 
ATOM     18 O    ACE C   0      19.899   6.211  46.219  1.00 14.75 LIG-0.27  OA
ENDBRANCH 6 14
ENDBRANCH 4 6
ENDBRANCH 1 2
BRANCH 1 19
ATOM     19  C   HIS C   2      23.864   1.677  45.049  1.00 11.19 LIG 0.24  C 
ATOM     20  N   THR C   3      23.040   0.835  45.657  1.00 11.67 LIG-0.34  N 
ATOM     21 H    THR C   3      22.202   0.980  45.787  1.00 11.67 LIG 0.16  HD
ATOM     22 O    HIS C   2      25.058   1.439  44.894  1.00 11.10 LIG-0.27  OA
BRANCH 20 23
ATOM     23  CA  THR C   3      23.527  -0.434  46.159  1.00 11.71 LIG 0.20  C 
BRANCH 23 24
ATOM     24  CB  THR C   3      24.573  -0.250  47.289  1.00 13.34 LIG 0.15  C 
ATOM     25  CG2 THR C   3      24.071   0.670  48.375  1.00 14.42 LIG 0.04  C 
BRANCH 24 26
ATOM     26 OG1  THR C   3      24.856  -1.525  47.859  1.00 13.01 LIG-0.39  OA
ATOM     27 HG1  THR C   3      25.688  -1.632  47.907  1.00 13.01 LIG 0.21  HD
ENDBRANCH 24 26
ENDBRANCH 23 24
BRANCH 23 28
ATOM     28  C   THR C   3      22.355  -1.315  46.617  1.00 11.33 LIG 0.24  C 
ATOM     29  N   ALA C   4      21.582  -1.826  45.660  1.00 10.31 LIG-0.35  N 
ATOM     30 H    ALA C   4      21.625  -1.605  44.830  1.00 10.31 LIG 0.16  HD
ATOM     31 O    THR C   3      22.153  -1.529  47.819  1.00 11.88 LIG-0.27  OA
BRANCH 29 32
ATOM     32  CA  ALA C   4      20.576  -2.832  45.977  1.00 10.35 LIG 0.18  C 
ATOM     33  CB  ALA C   4      19.904  -3.347  44.696  1.00 10.31 LIG 0.04  C 
BRANCH 32 34
ATOM     34  C   ALA C   4      21.188  -3.996  46.797  1.00 10.99 LIG 0.28  C 
ATOM     35 O    ALA C   4      22.296  -4.442  46.521  0.79 11.43 LIG-0.27  OA
ATOM     36  N   NH2 C   5      20.463  -4.473  47.804  0.91 10.97 LIG-0.11  N 
ENDBRANCH 32 34
ENDBRANCH 29 32
ENDBRANCH 23 28
ENDBRANCH 20 23
ENDBRANCH 1 19
BRANCH 1 37
ATOM     37  CB  HIS C   2      24.349   3.979  44.433  1.00 14.08 LIG 0.10  C 
BRANCH 37 38
ATOM     38  CG  HIS C   2      23.863   5.352  44.137  1.00 15.42 LIG 0.06  A 
ATOM     39  CD2 HIS C   2      24.494   6.397  43.560  1.00 15.59 LIG 0.14  A 
ATOM     40 NE2  HIS C   2      23.600   7.440  43.521  1.00 17.02 LIG-0.25  NA
ATOM     41  CE1 HIS C   2      22.458   7.045  44.051  1.00 16.99 LIG 0.23  A 
ATOM     42 ND1  HIS C   2      22.590   5.787  44.435  0.48 15.92 LIG-0.24  NA
ENDBRANCH 37 38
ENDBRANCH 1 37
TORSDOF 14
ENDMDL
MODEL 84
USER: ADFR SOLUTION from run 73
USER: SCORE 11.420617 LL:  -3.136 LR: -10.054 RR:   0.000 FEB:  -5.877
USER: RMSD 6.032894
USER: SEED 72
USER: STATUS no improvement in best in 17 clusters for 5 generations
USER: GENES 16
USER: genes 0 Translation |==|  0.38869 0.45845 0.67097
USER: genes 1 Rotation |==|  0.71731 0.28681 0.18799 0.74491
USER: genes 2 Torsion [C]-CA--N-[C] |==|  0.84444
USER: genes 3 Torsion [N]-C--CA-[N] |==|  0.34934
USER: genes 4 Torsion [C]-CA--CB-[CG] |==|  0.72120
USER: genes 5 Torsion [CA]-CB--CG-[CD2] |==|  0.76207
USER: genes 6 Torsion [C]-CA--N-[C] |==|  0.75937
USER: genes 7 Torsion [N]-CA--C-[N] |==|  0.38508
USER: genes 8 Torsion [C]-N--CA-[CB] |==|  0.46936
USER: genes 9 Torsion [N]-CA--CB-[CG2] |==|  0.65031
USER: genes 10 Torsion [CA]-CB--OG1-[HG1] |==|  0.21832
USER: genes 11 Torsion [N]-CA--C-[N] |==|  0.93437
USER: genes 12 Torsion [C]-N--CA-[C] |==|  0.60375
USER: genes 13 Torsion [N]-CA--C-[N] |==|  0.46933
USER: genes 14 Torsion [N]-CA--CB-[CG] |==|  0.78022
USER: genes 15 Torsion [CA]-CB--CG-[ND1] |==|  0.93766
ROOT
ATOM      1  CA  HIS C   2      22.606   1.901  46.389  1.00 11.69 LIG 0.18  C 
ENDROOT
BRANCH 1 2
ATOM      2  N   HIS C   2      23.901   1.882  45.709  1.00 10.87 LIG-0.35  N 
ATOM      3 H    HIS C   2      24.491   1.369  46.068  1.00 10.87 LIG 0.16  HD
ATOM      4  C   PHE C   1      24.107   2.615  44.621  1.00 11.47 LIG 0.24  C 
ATOM      5 O    PHE C   1      23.200   3.247  44.050  1.00 12.97 LIG-0.27  OA
BRANCH 4 6
ATOM      6  CA  PHE C   1      25.535   2.605  44.072  1.00 11.05 LIG 0.18  C 
BRANCH 6 7
ATOM      7  CB  PHE C   1      26.183   3.982  44.252  1.00 10.09 LIG 0.07  C 
BRANCH 7 8
ATOM      8  CG  PHE C   1      26.179   4.812  43.004  1.00  8.73 LIG-0.06  A 
ATOM      9  CD2 PHE C   1      27.181   4.684  42.071  1.00  8.91 LIG 0.01  A 
ATOM     10  CE2 PHE C   1      27.173   5.461  40.931  1.00  8.44 LIG 0.00  A 
ATOM     11  CZ  PHE C   1      26.165   6.383  40.730  1.00  8.32 LIG 0.00  A 
ATOM     12  CE1 PHE C   1      25.152   6.509  41.655  1.00  8.07 LIG 0.00  A 
ATOM     13  CD1 PHE C   1      25.172   5.737  42.790  1.00  8.33 LIG 0.01  A 
ENDBRANCH 7 8
ENDBRANCH 6 7
BRANCH 6 14
ATOM     14  N   PHE C   1      25.552   2.227  42.676  1.00 11.54 LIG-0.35  N 
ATOM     15 H    PHE C   1      25.529   2.900  42.142  1.00 11.54 LIG 0.16  HD
ATOM     16  C   ACE C   0      25.599   0.976  42.246  1.00 13.21 LIG 0.21  C 
ATOM     17  CH3 ACE C   0      25.414   0.712  40.780  1.00 13.47 LIG 0.12  C 
ATOM     18 O    ACE C   0      25.576   0.093  43.103  1.00 14.75 LIG-0.27  OA
ENDBRANCH 6 14
ENDBRANCH 4 6
ENDBRANCH 1 2
BRANCH 1 19
ATOM     19  C   HIS C   2      22.286   3.328  46.743  1.00 11.19 LIG 0.24  C 
ATOM     20  N   THR C   3      21.030   3.712  46.559  1.00 11.67 LIG-0.34  N 
ATOM     21 H    THR C   3      20.414   3.218  46.217  1.00 11.67 LIG 0.16  HD
ATOM     22 O    HIS C   2      23.141   4.067  47.223  1.00 11.10 LIG-0.27  OA
BRANCH 20 23
ATOM     23  CA  THR C   3      20.608   5.044  46.938  1.00 11.71 LIG 0.20  C 
BRANCH 23 24
ATOM     24  CB  THR C   3      19.195   5.385  46.394  1.00 13.34 LIG 0.15  C 
ATOM     25  CG2 THR C   3      19.194   6.667  45.599  1.00 14.42 LIG 0.04  C 
BRANCH 24 26
ATOM     26 OG1  THR C   3      18.763   4.319  45.553  1.00 13.01 LIG-0.39  OA
ATOM     27 HG1  THR C   3      18.492   3.681  46.027  1.00 13.01 LIG 0.21  HD
ENDBRANCH 24 26
ENDBRANCH 23 24
BRANCH 23 28
ATOM     28  C   THR C   3      20.679   5.216  48.463  1.00 11.33 LIG 0.24  C 
ATOM     29  N   ALA C   4      20.614   4.103  49.192  1.00 10.31 LIG-0.35  N 
ATOM     30 H    ALA C   4      20.422   3.326  48.878  1.00 10.31 LIG 0.16  HD
ATOM     31 O    THR C   3      20.790   6.338  48.972  1.00 11.88 LIG-0.27  OA
BRANCH 29 32
ATOM     32  CA  ALA C   4      20.875   4.139  50.626  1.00 10.35 LIG 0.18  C 
ATOM     33  CB  ALA C   4      19.566   4.315  51.410  1.00 10.31 LIG 0.04  C 
BRANCH 32 34
ATOM     34  C   ALA C   4      21.639   2.872  51.087  1.00 10.99 LIG 0.28  C 
ATOM     35 O    ALA C   4      21.777   1.915  50.334  0.79 11.43 LIG-0.27  OA
ATOM     36  N   NH2 C   5      22.136   2.881  52.320  0.91 10.97 LIG-0.11  N 
ENDBRANCH 32 34
ENDBRANCH 29 32
ENDBRANCH 23 28
ENDBRANCH 20 23
ENDBRANCH 1 19
BRANCH 1 37
ATOM     37  CB  HIS C   2      22.633   1.115  47.691  1.00 14.08 LIG 0.10  C 
BRANCH 37 38
ATOM     38  CG  HIS C   2      22.527  -0.357  47.511  1.00 15.42 LIG 0.06  A 
ATOM     39  CD2 HIS C   2      22.903  -1.366  48.325  1.00 15.59 LIG 0.14  A 
ATOM     40 NE2  HIS C   2      22.584  -2.542  47.689  1.00 17.02 LIG-0.25  NA
ATOM     41  CE1 HIS C   2      22.026  -2.261  46.526  1.00 16.99 LIG 0.23  A 
ATOM     42 ND1  HIS C   2      21.982  -0.947  46.392  0.48 15.92 LIG-0.24  NA
ENDBRANCH 37 38
ENDBRANCH 1 37
TORSDOF 14
ENDMDL
MODEL 85
USER: ADFR SOLUTION from run 19
USER: SCORE 12.604014 LL:  -3.211 LR: -10.033 RR:   0.000 FEB:  -5.857
USER: RMSD 2.228744
USER: SEED 18
USER: STATUS no improvement in best in 13 clusters for 5 generations
USER: GENES 16
USER: genes 0 Translation |==|  0.49601 0.40135 0.53393
USER: genes 1 Rotation |==|  0.63526 0.44765 0.18823 0.86299
USER: genes 2 Torsion [C]-CA--N-[C] |==|  0.56082
USER: genes 3 Torsion [N]-C--CA-[N] |==|  0.12695
USER: genes 4 Torsion [C]-CA--CB-[CG] |==|  0.26634
USER: genes 5 Torsion [CA]-CB--CG-[CD2] |==|  0.95978
USER: genes 6 Torsion [C]-CA--N-[C] |==|  0.17712
USER: genes 7 Torsion [N]-CA--C-[N] |==|  0.42886
USER: genes 8 Torsion [C]-N--CA-[CB] |==|  0.83661
USER: genes 9 Torsion [N]-CA--CB-[CG2] |==|  0.50092
USER: genes 10 Torsion [CA]-CB--OG1-[HG1] |==|  0.98645
USER: genes 11 Torsion [N]-CA--C-[N] |==|  0.32778
USER: genes 12 Torsion [C]-N--CA-[C] |==|  0.80934
USER: genes 13 Torsion [N]-CA--C-[N] |==|  0.38221
USER: genes 14 Torsion [N]-CA--CB-[CG] |==|  0.07766
USER: genes 15 Torsion [CA]-CB--CG-[ND1] |==|  0.14586
ROOT
ATOM      1  CA  HIS C   2      24.699   0.959  43.614  1.00 11.69 LIG 0.18  C 
ENDROOT
BRANCH 1 2
ATOM      2  N   HIS C   2      25.093   1.383  42.271  1.00 10.87 LIG-0.35  N 
ATOM      3 H    HIS C   2      25.260   2.223  42.191  1.00 10.87 LIG 0.16  HD
ATOM      4  C   PHE C   1      25.172   0.504  41.279  1.00 11.47 LIG 0.24  C 
ATOM      5 O    PHE C   1      25.049  -0.722  41.450  1.00 12.97 LIG-0.27  OA
BRANCH 4 6
ATOM      6  CA  PHE C   1      25.474   1.087  39.896  1.00 11.05 LIG 0.18  C 
BRANCH 6 7
ATOM      7  CB  PHE C   1      25.830  -0.034  38.914  1.00 10.09 LIG 0.07  C 
BRANCH 7 8
ATOM      8  CG  PHE C   1      24.668  -0.499  38.090  1.00  8.73 LIG-0.06  A 
ATOM      9  CD2 PHE C   1      23.381  -0.159  38.434  1.00  8.91 LIG 0.01  A 
ATOM     10  CE2 PHE C   1      22.318  -0.601  37.674  1.00  8.44 LIG 0.00  A 
ATOM     11  CZ  PHE C   1      22.543  -1.401  36.570  1.00  8.32 LIG 0.00  A 
ATOM     12  CE1 PHE C   1      23.830  -1.736  36.214  1.00  8.07 LIG 0.00  A 
ATOM     13  CD1 PHE C   1      24.881  -1.298  36.981  1.00  8.33 LIG 0.01  A 
ENDBRANCH 7 8
ENDBRANCH 6 7
BRANCH 6 14
ATOM     14  N   PHE C   1      26.550   2.050  39.961  1.00 11.54 LIG-0.35  N 
ATOM     15 H    PHE C   1      26.306   2.846  39.748  1.00 11.54 LIG 0.16  HD
ATOM     16  C   ACE C   0      27.791   1.754  40.313  1.00 13.21 LIG 0.21  C 
ATOM     17  CH3 ACE C   0      28.854   2.803  40.152  1.00 13.47 LIG 0.12  C 
ATOM     18 O    ACE C   0      28.035   0.571  40.546  1.00 14.75 LIG-0.27  OA
ENDBRANCH 6 14
ENDBRANCH 4 6
ENDBRANCH 1 2
BRANCH 1 19
ATOM     19  C   HIS C   2      24.182   2.164  44.352  1.00 11.19 LIG 0.24  C 
ATOM     20  N   THR C   3      23.323   1.928  45.334  1.00 11.67 LIG-0.34  N 
ATOM     21 H    THR C   3      23.020   1.150  45.541  1.00 11.67 LIG 0.16  HD
ATOM     22 O    HIS C   2      24.583   3.292  44.079  1.00 11.10 LIG-0.27  OA
BRANCH 20 23
ATOM     23  CA  THR C   3      22.825   3.016  46.149  1.00 11.71 LIG 0.20  C 
BRANCH 23 24
ATOM     24  CB  THR C   3      23.971   3.779  46.866  1.00 13.34 LIG 0.15  C 
ATOM     25  CG2 THR C   3      23.446   4.907  47.720  1.00 14.42 LIG 0.04  C 
BRANCH 24 26
ATOM     26 OG1  THR C   3      24.677   2.862  47.696  1.00 13.01 LIG-0.39  OA
ATOM     27 HG1  THR C   3      24.292   2.116  47.680  1.00 13.01 LIG 0.21  HD
ENDBRANCH 24 26
ENDBRANCH 23 24
BRANCH 23 28
ATOM     28  C   THR C   3      21.960   3.966  45.306  1.00 11.33 LIG 0.24  C 
ATOM     29  N   ALA C   4      20.684   4.087  45.664  1.00 10.31 LIG-0.35  N 
ATOM     30 H    ALA C   4      20.293   3.592  46.249  1.00 10.31 LIG 0.16  HD
ATOM     31 O    THR C   3      22.442   4.579  44.345  1.00 11.88 LIG-0.27  OA
BRANCH 29 32
ATOM     32  CA  ALA C   4      19.837   5.109  45.060  1.00 10.35 LIG 0.18  C 
ATOM     33  CB  ALA C   4      18.359   4.852  45.390  1.00 10.31 LIG 0.04  C 
BRANCH 32 34
ATOM     34  C   ALA C   4      20.273   6.529  45.504  1.00 10.99 LIG 0.28  C 
ATOM     35 O    ALA C   4      20.582   6.755  46.668  0.79 11.43 LIG-0.27  OA
ATOM     36  N   NH2 C   5      20.300   7.473  44.568  0.91 10.97 LIG-0.11  N 
ENDBRANCH 32 34
ENDBRANCH 29 32
ENDBRANCH 23 28
ENDBRANCH 20 23
ENDBRANCH 1 19
BRANCH 1 37
ATOM     37  CB  HIS C   2      25.878   0.421  44.412  1.00 14.08 LIG 0.10  C 
BRANCH 37 38
ATOM     38  CG  HIS C   2      27.190   0.996  44.015  1.00 15.42 LIG 0.06  A 
ATOM     39  CD2 HIS C   2      28.342   0.386  43.668  1.00 15.59 LIG 0.14  A 
ATOM     40 NE2  HIS C   2      29.258   1.373  43.391  1.00 17.02 LIG-0.25  NA
ATOM     41  CE1 HIS C   2      28.683   2.548  43.558  1.00 16.99 LIG 0.23  A 
ATOM     42 ND1  HIS C   2      27.433   2.351  43.938  0.48 15.92 LIG-0.24  NA
ENDBRANCH 37 38
ENDBRANCH 1 37
TORSDOF 14
ENDMDL
MODEL 86
USER: ADFR SOLUTION from run 23
USER: SCORE 12.127043 LL:  -2.815 LR: -10.030 RR:   0.000 FEB:  -5.854
USER: RMSD 9.736915
USER: SEED 22
USER: STATUS no improvement in best in 22 clusters for 5 generations
USER: GENES 16
USER: genes 0 Translation |==|  0.41711 0.34414 0.68193
USER: genes 1 Rotation |==|  0.14167 0.78467 0.30362 0.54470
USER: genes 2 Torsion [C]-CA--N-[C] |==|  0.82198
USER: genes 3 Torsion [N]-C--CA-[N] |==|  0.41995
USER: genes 4 Torsion [C]-CA--CB-[CG] |==|  0.51724
USER: genes 5 Torsion [CA]-CB--CG-[CD2] |==|  0.44386
USER: genes 6 Torsion [C]-CA--N-[C] |==|  0.78647
USER: genes 7 Torsion [N]-CA--C-[N] |==|  0.93370
USER: genes 8 Torsion [C]-N--CA-[CB] |==|  0.53333
USER: genes 9 Torsion [N]-CA--CB-[CG2] |==|  0.47355
USER: genes 10 Torsion [CA]-CB--OG1-[HG1] |==|  0.17409
USER: genes 11 Torsion [N]-CA--C-[N] |==|  0.34816
USER: genes 12 Torsion [C]-N--CA-[C] |==|  0.72030
USER: genes 13 Torsion [N]-CA--C-[N] |==|  0.00682
USER: genes 14 Torsion [N]-CA--CB-[CG] |==|  0.85948
USER: genes 15 Torsion [CA]-CB--CG-[ND1] |==|  0.95123
ROOT
ATOM      1  CA  HIS C   2      23.161   0.015  46.611  1.00 11.69 LIG 0.18  C 
ENDROOT
BRANCH 1 2
ATOM      2  N   HIS C   2      22.464   0.653  47.728  1.00 10.87 LIG-0.35  N 
ATOM      3 H    HIS C   2      21.662   0.372  47.862  1.00 10.87 LIG 0.16  HD
ATOM      4  C   PHE C   1      23.062   1.590  48.454  1.00 11.47 LIG 0.24  C 
ATOM      5 O    PHE C   1      24.263   1.885  48.320  1.00 12.97 LIG-0.27  OA
BRANCH 4 6
ATOM      6  CA  PHE C   1      22.191   2.268  49.515  1.00 11.05 LIG 0.18  C 
BRANCH 6 7
ATOM      7  CB  PHE C   1      21.427   3.445  48.901  1.00 10.09 LIG 0.07  C 
BRANCH 7 8
ATOM      8  CG  PHE C   1      20.664   4.253  49.906  1.00  8.73 LIG-0.06  A 
ATOM      9  CD2 PHE C   1      20.275   5.541  49.624  1.00  8.91 LIG 0.01  A 
ATOM     10  CE2 PHE C   1      19.583   6.279  50.562  1.00  8.44 LIG 0.00  A 
ATOM     11  CZ  PHE C   1      19.290   5.730  51.795  1.00  8.32 LIG 0.00  A 
ATOM     12  CE1 PHE C   1      19.668   4.437  52.080  1.00  8.07 LIG 0.00  A 
ATOM     13  CD1 PHE C   1      20.364   3.712  51.144  1.00  8.33 LIG 0.01  A 
ENDBRANCH 7 8
ENDBRANCH 6 7
BRANCH 6 14
ATOM     14  N   PHE C   1      22.991   2.722  50.631  1.00 11.54 LIG-0.35  N 
ATOM     15 H    PHE C   1      23.132   3.569  50.623  1.00 11.54 LIG 0.16  HD
ATOM     16  C   ACE C   0      23.464   1.927  51.577  1.00 13.21 LIG 0.21  C 
ATOM     17  CH3 ACE C   0      24.440   2.491  52.568  1.00 13.47 LIG 0.12  C 
ATOM     18 O    ACE C   0      23.241   0.723  51.455  1.00 14.75 LIG-0.27  OA
ENDBRANCH 6 14
ENDBRANCH 4 6
ENDBRANCH 1 2
BRANCH 1 19
ATOM     19  C   HIS C   2      23.437   1.066  45.571  1.00 11.19 LIG 0.24  C 
ATOM     20  N   THR C   3      22.644   2.129  45.583  1.00 11.67 LIG-0.34  N 
ATOM     21 H    THR C   3      21.972   2.230  46.110  1.00 11.67 LIG 0.16  HD
ATOM     22 O    HIS C   2      24.381   0.953  44.794  1.00 11.10 LIG-0.27  OA
BRANCH 20 23
ATOM     23  CA  THR C   3      22.876   3.227  44.668  1.00 11.71 LIG 0.20  C 
BRANCH 23 24
ATOM     24  CB  THR C   3      22.039   4.480  45.037  1.00 13.34 LIG 0.15  C 
ATOM     25  CG2 THR C   3      22.450   5.687  44.231  1.00 14.42 LIG 0.04  C 
BRANCH 24 26
ATOM     26 OG1  THR C   3      20.666   4.201  44.783  1.00 13.01 LIG-0.39  OA
ATOM     27 HG1  THR C   3      20.412   3.570  45.276  1.00 13.01 LIG 0.21  HD
ENDBRANCH 24 26
ENDBRANCH 23 24
BRANCH 23 28
ATOM     28  C   THR C   3      24.375   3.555  44.593  1.00 11.33 LIG 0.24  C 
ATOM     29  N   ALA C   4      24.927   3.554  43.382  1.00 10.31 LIG-0.35  N 
ATOM     30 H    ALA C   4      24.535   3.275  42.669  1.00 10.31 LIG 0.16  HD
ATOM     31 O    THR C   3      25.023   3.806  45.618  1.00 11.88 LIG-0.27  OA
BRANCH 29 32
ATOM     32  CA  ALA C   4      26.284   4.049  43.183  1.00 10.35 LIG 0.18  C 
ATOM     33  CB  ALA C   4      27.080   3.096  42.279  1.00 10.31 LIG 0.04  C 
BRANCH 32 34
ATOM     34  C   ALA C   4      26.276   5.490  42.612  1.00 10.99 LIG 0.28  C 
ATOM     35 O    ALA C   4      27.325   6.057  42.330  0.79 11.43 LIG-0.27  OA
ATOM     36  N   NH2 C   5      25.091   6.065  42.441  0.91 10.97 LIG-0.11  N 
ENDBRANCH 32 34
ENDBRANCH 29 32
ENDBRANCH 23 28
ENDBRANCH 20 23
ENDBRANCH 1 19
BRANCH 1 37
ATOM     37  CB  HIS C   2      22.311  -1.057  45.944  1.00 14.08 LIG 0.10  C 
BRANCH 37 38
ATOM     38  CG  HIS C   2      21.728  -2.043  46.892  1.00 15.42 LIG 0.06  A 
ATOM     39  CD2 HIS C   2      20.707  -2.910  46.732  1.00 15.59 LIG 0.14  A 
ATOM     40 NE2  HIS C   2      20.567  -3.597  47.914  1.00 17.02 LIG-0.25  NA
ATOM     41  CE1 HIS C   2      21.477  -3.166  48.768  1.00 16.99 LIG 0.23  A 
ATOM     42 ND1  HIS C   2      22.190  -2.224  48.178  0.48 15.92 LIG-0.24  NA
ENDBRANCH 37 38
ENDBRANCH 1 37
TORSDOF 14
ENDMDL
MODEL 87
USER: ADFR SOLUTION from run 26
USER: SCORE 12.333009 LL:  -3.308 LR: -10.034 RR:   0.000 FEB:  -5.858
USER: RMSD 6.299358
USER: SEED 25
USER: STATUS no improvement in best in 18 clusters for 5 generations
USER: GENES 16
USER: genes 0 Translation |==|  0.42240 0.34725 0.66561
USER: genes 1 Rotation |==|  0.74506 0.40757 0.11401 0.68004
USER: genes 2 Torsion [C]-CA--N-[C] |==|  0.78889
USER: genes 3 Torsion [N]-C--CA-[N] |==|  0.33467
USER: genes 4 Torsion [C]-CA--CB-[CG] |==|  0.91832
USER: genes 5 Torsion [CA]-CB--CG-[CD2] |==|  0.27875
USER: genes 6 Torsion [C]-CA--N-[C] |==|  0.79034
USER: genes 7 Torsion [N]-CA--C-[N] |==|  0.52978
USER: genes 8 Torsion [C]-N--CA-[CB] |==|  0.78475
USER: genes 9 Torsion [N]-CA--CB-[CG2] |==|  0.49709
USER: genes 10 Torsion [CA]-CB--OG1-[HG1] |==|  0.23586
USER: genes 11 Torsion [N]-CA--C-[N] |==|  0.17876
USER: genes 12 Torsion [C]-N--CA-[C] |==|  0.76509
USER: genes 13 Torsion [N]-CA--C-[N] |==|  0.00911
USER: genes 14 Torsion [N]-CA--CB-[CG] |==|  0.61108
USER: genes 15 Torsion [CA]-CB--CG-[ND1] |==|  0.61288
ROOT
ATOM      1  CA  HIS C   2      23.264   0.067  46.281  1.00 11.69 LIG 0.18  C 
ENDROOT
BRANCH 1 2
ATOM      2  N   HIS C   2      24.423   0.448  45.474  1.00 10.87 LIG-0.35  N 
ATOM      3 H    HIS C   2      25.116  -0.049  45.579  1.00 10.87 LIG 0.16  HD
ATOM      4  C   PHE C   1      24.365   1.492  44.655  1.00 11.47 LIG 0.24  C 
ATOM      5 O    PHE C   1      23.312   2.114  44.427  1.00 12.97 LIG-0.27  OA
BRANCH 4 6
ATOM      6  CA  PHE C   1      25.676   1.864  43.958  1.00 11.05 LIG 0.18  C 
BRANCH 6 7
ATOM      7  CB  PHE C   1      26.121   3.268  44.381  1.00 10.09 LIG 0.07  C 
BRANCH 7 8
ATOM      8  CG  PHE C   1      24.981   4.175  44.736  1.00  8.73 LIG-0.06  A 
ATOM      9  CD2 PHE C   1      24.647   4.403  46.051  1.00  8.91 LIG 0.01  A 
ATOM     10  CE2 PHE C   1      23.590   5.231  46.365  1.00  8.44 LIG 0.00  A 
ATOM     11  CZ  PHE C   1      22.852   5.823  45.359  1.00  8.32 LIG 0.00  A 
ATOM     12  CE1 PHE C   1      23.188   5.607  44.040  1.00  8.07 LIG 0.00  A 
ATOM     13  CD1 PHE C   1      24.237   4.775  43.736  1.00  8.33 LIG 0.01  A 
ENDBRANCH 7 8
ENDBRANCH 6 7
BRANCH 6 14
ATOM     14  N   PHE C   1      25.536   1.800  42.520  1.00 11.54 LIG-0.35  N 
ATOM     15 H    PHE C   1      25.478   2.574  42.150  1.00 11.54 LIG 0.16  HD
ATOM     16  C   ACE C   0      25.501   0.673  41.827  1.00 13.21 LIG 0.21  C 
ATOM     17  CH3 ACE C   0      25.156   0.737  40.367  1.00 13.47 LIG 0.12  C 
ATOM     18 O    ACE C   0      25.540  -0.376  42.470  1.00 14.75 LIG-0.27  OA
ENDBRANCH 6 14
ENDBRANCH 4 6
ENDBRANCH 1 2
BRANCH 1 19
ATOM     19  C   HIS C   2      23.152   1.034  47.426  1.00 11.19 LIG 0.24  C 
ATOM     20  N   THR C   3      22.292   0.716  48.384  1.00 11.67 LIG-0.34  N 
ATOM     21 H    THR C   3      21.777   0.027  48.369  1.00 11.67 LIG 0.16  HD
ATOM     22 O    HIS C   2      23.862   2.035  47.480  1.00 11.10 LIG-0.27  OA
BRANCH 20 23
ATOM     23  CA  THR C   3      22.166   1.548  49.563  1.00 11.71 LIG 0.20  C 
BRANCH 23 24
ATOM     24  CB  THR C   3      23.328   1.317  50.566  1.00 13.34 LIG 0.15  C 
ATOM     25  CG2 THR C   3      23.206   2.204  51.780  1.00 14.42 LIG 0.04  C 
BRANCH 24 26
ATOM     26 OG1  THR C   3      23.303  -0.044  50.984  1.00 13.01 LIG-0.39  OA
ATOM     27 HG1  THR C   3      23.719  -0.516  50.428  1.00 13.01 LIG 0.21  HD
ENDBRANCH 24 26
ENDBRANCH 23 24
BRANCH 23 28
ATOM     28  C   THR C   3      22.054   3.028  49.165  1.00 11.33 LIG 0.24  C 
ATOM     29  N   ALA C   4      20.976   3.377  48.466  1.00 10.31 LIG-0.35  N 
ATOM     30 H    ALA C   4      20.412   2.822  48.131  1.00 10.31 LIG 0.16  HD
ATOM     31 O    THR C   3      22.930   3.840  49.487  1.00 11.88 LIG-0.27  OA
BRANCH 29 32
ATOM     32  CA  ALA C   4      20.677   4.783  48.218  1.00 10.35 LIG 0.18  C 
ATOM     33  CB  ALA C   4      19.902   4.947  46.902  1.00 10.31 LIG 0.04  C 
BRANCH 32 34
ATOM     34  C   ALA C   4      19.902   5.408  49.406  1.00 10.99 LIG 0.28  C 
ATOM     35 O    ALA C   4      19.503   6.565  49.355  0.79 11.43 LIG-0.27  OA
ATOM     36  N   NH2 C   5      19.691   4.632  50.465  0.91 10.97 LIG-0.11  N 
ENDBRANCH 32 34
ENDBRANCH 29 32
ENDBRANCH 23 28
ENDBRANCH 20 23
ENDBRANCH 1 19
BRANCH 1 37
ATOM     37  CB  HIS C   2      23.419  -1.321  46.885  1.00 14.08 LIG 0.10  C 
BRANCH 37 38
ATOM     38  CG  HIS C   2      22.172  -2.130  46.870  1.00 15.42 LIG 0.06  A 
ATOM     39  CD2 HIS C   2      21.226  -2.260  45.917  1.00 15.59 LIG 0.14  A 
ATOM     40 NE2  HIS C   2      20.277  -3.129  46.401  1.00 17.02 LIG-0.25  NA
ATOM     41  CE1 HIS C   2      20.635  -3.521  47.610  1.00 16.99 LIG 0.23  A 
ATOM     42 ND1  HIS C   2      21.775  -2.931  47.919  0.48 15.92 LIG-0.24  NA
ENDBRANCH 37 38
ENDBRANCH 1 37
TORSDOF 14
ENDMDL
MODEL 88
USER: ADFR SOLUTION from run 144
USER: SCORE 12.129949 LL:  -3.289 LR: -10.019 RR:   0.000 FEB:  -5.843
USER: RMSD 9.124480
USER: SEED 143
USER: STATUS no improvement in best in 22 clusters for 5 generations
USER: GENES 16
USER: genes 0 Translation |==|  0.66790 0.50413 0.30013
USER: genes 1 Rotation |==|  0.41516 0.06644 0.26645 0.51669
USER: genes 2 Torsion [C]-CA--N-[C] |==|  0.75684
USER: genes 3 Torsion [N]-C--CA-[N] |==|  0.91918
USER: genes 4 Torsion [C]-CA--CB-[CG] |==|  0.12486
USER: genes 5 Torsion [CA]-CB--CG-[CD2] |==|  0.15862
USER: genes 6 Torsion [C]-CA--N-[C] |==|  0.75671
USER: genes 7 Torsion [N]-CA--C-[N] |==|  0.43760
USER: genes 8 Torsion [C]-N--CA-[CB] |==|  0.20079
USER: genes 9 Torsion [N]-CA--CB-[CG2] |==|  0.71191
USER: genes 10 Torsion [CA]-CB--OG1-[HG1] |==|  0.31622
USER: genes 11 Torsion [N]-CA--C-[N] |==|  0.98889
USER: genes 12 Torsion [C]-N--CA-[C] |==|  0.59919
USER: genes 13 Torsion [N]-CA--C-[N] |==|  0.20018
USER: genes 14 Torsion [N]-CA--CB-[CG] |==|  0.59691
USER: genes 15 Torsion [CA]-CB--CG-[ND1] |==|  0.39044
ROOT
ATOM      1  CA  HIS C   2      28.051   2.655  38.880  1.00 11.69 LIG 0.18  C 
ENDROOT
BRANCH 1 2
ATOM      2  N   HIS C   2      27.874   1.296  39.391  1.00 10.87 LIG-0.35  N 
ATOM      3 H    HIS C   2      28.073   1.193  40.221  1.00 10.87 LIG 0.16  HD
ATOM      4  C   PHE C   1      27.435   0.326  38.598  1.00 11.47 LIG 0.24  C 
ATOM      5 O    PHE C   1      27.033   0.529  37.439  1.00 12.97 LIG-0.27  OA
BRANCH 4 6
ATOM      6  CA  PHE C   1      27.408  -1.076  39.214  1.00 11.05 LIG 0.18  C 
BRANCH 6 7
ATOM      7  CB  PHE C   1      26.029  -1.362  39.818  1.00 10.09 LIG 0.07  C 
BRANCH 7 8
ATOM      8  CG  PHE C   1      24.892  -0.959  38.930  1.00  8.73 LIG-0.06  A 
ATOM      9  CD2 PHE C   1      24.780  -1.465  37.656  1.00  8.91 LIG 0.01  A 
ATOM     10  CE2 PHE C   1      23.735  -1.078  36.844  1.00  8.44 LIG 0.00  A 
ATOM     11  CZ  PHE C   1      22.802  -0.169  37.302  1.00  8.32 LIG 0.00  A 
ATOM     12  CE1 PHE C   1      22.902   0.335  38.581  1.00  8.07 LIG 0.00  A 
ATOM     13  CD1 PHE C   1      23.950  -0.050  39.380  1.00  8.33 LIG 0.01  A 
ENDBRANCH 7 8
ENDBRANCH 6 7
BRANCH 6 14
ATOM     14  N   PHE C   1      28.433  -1.220  40.224  1.00 11.54 LIG-0.35  N 
ATOM     15 H    PHE C   1      28.156  -1.033  41.016  1.00 11.54 LIG 0.16  HD
ATOM     16  C   ACE C   0      29.675  -1.599  39.972  1.00 13.21 LIG 0.21  C 
ATOM     17  CH3 ACE C   0      30.689  -1.520  41.076  1.00 13.47 LIG 0.12  C 
ATOM     18 O    ACE C   0      29.970  -1.789  38.792  1.00 14.75 LIG-0.27  OA
ENDBRANCH 6 14
ENDBRANCH 4 6
ENDBRANCH 1 2
BRANCH 1 19
ATOM     19  C   HIS C   2      29.435   2.759  38.299  1.00 11.19 LIG 0.24  C 
ATOM     20  N   THR C   3      29.626   3.718  37.402  1.00 11.67 LIG-0.34  N 
ATOM     21 H    THR C   3      29.010   4.243  37.110  1.00 11.67 LIG 0.16  HD
ATOM     22 O    HIS C   2      30.338   2.021  38.682  1.00 11.10 LIG-0.27  OA
BRANCH 20 23
ATOM     23  CA  THR C   3      30.941   3.943  36.839  1.00 11.71 LIG 0.20  C 
BRANCH 23 24
ATOM     24  CB  THR C   3      31.351   2.821  35.849  1.00 13.34 LIG 0.15  C 
ATOM     25  CG2 THR C   3      32.348   1.869  36.463  1.00 14.42 LIG 0.04  C 
BRANCH 24 26
ATOM     26 OG1  THR C   3      30.185   2.092  35.479  1.00 13.01 LIG-0.39  OA
ATOM     27 HG1  THR C   3      30.027   2.212  34.663  1.00 13.01 LIG 0.21  HD
ENDBRANCH 24 26
ENDBRANCH 23 24
BRANCH 23 28
ATOM     28  C   THR C   3      31.011   5.328  36.177  1.00 11.33 LIG 0.24  C 
ATOM     29  N   ALA C   4      29.882   6.034  36.150  1.00 10.31 LIG-0.35  N 
ATOM     30 H    ALA C   4      29.110   5.726  36.369  1.00 10.31 LIG 0.16  HD
ATOM     31 O    THR C   3      32.071   5.751  35.698  1.00 11.88 LIG-0.27  OA
BRANCH 29 32
ATOM     32  CA  ALA C   4      29.890   7.431  35.731  1.00 10.35 LIG 0.18  C 
ATOM     33  CB  ALA C   4      29.631   7.544  34.222  1.00 10.31 LIG 0.04  C 
BRANCH 32 34
ATOM     34  C   ALA C   4      28.864   8.263  36.541  1.00 10.99 LIG 0.28  C 
ATOM     35 O    ALA C   4      27.827   8.658  36.020  0.79 11.43 LIG-0.27  OA
ATOM     36  N   NH2 C   5      29.158   8.515  37.812  0.91 10.97 LIG-0.11  N 
ENDBRANCH 32 34
ENDBRANCH 29 32
ENDBRANCH 23 28
ENDBRANCH 20 23
ENDBRANCH 1 19
BRANCH 1 37
ATOM     37  CB  HIS C   2      27.952   3.699  39.983  1.00 14.08 LIG 0.10  C 
BRANCH 37 38
ATOM     38  CG  HIS C   2      27.323   4.975  39.553  1.00 15.42 LIG 0.06  A 
ATOM     39  CD2 HIS C   2      27.445   5.665  38.400  1.00 15.59 LIG 0.14  A 
ATOM     40 NE2  HIS C   2      26.652   6.782  38.508  1.00 17.02 LIG-0.25  NA
ATOM     41  CE1 HIS C   2      26.060   6.773  39.687  1.00 16.99 LIG 0.23  A 
ATOM     42 ND1  HIS C   2      26.450   5.693  40.341  0.48 15.92 LIG-0.24  NA
ENDBRANCH 37 38
ENDBRANCH 1 37
TORSDOF 14
ENDMDL
MODEL 89
USER: ADFR SOLUTION from run 76
USER: SCORE 11.578406 LL:  -3.151 LR: -10.003 RR:   0.000 FEB:  -5.826
USER: RMSD 6.791744
USER: SEED 75
USER: STATUS no improvement in best in 20 clusters for 5 generations
USER: GENES 16
USER: genes 0 Translation |==|  0.36655 0.44045 0.80848
USER: genes 1 Rotation |==|  0.45055 0.35737 0.20218 0.87217
USER: genes 2 Torsion [C]-CA--N-[C] |==|  0.19811
USER: genes 3 Torsion [N]-C--CA-[N] |==|  0.47001
USER: genes 4 Torsion [C]-CA--CB-[CG] |==|  0.24591
USER: genes 5 Torsion [CA]-CB--CG-[CD2] |==|  0.67762
USER: genes 6 Torsion [C]-CA--N-[C] |==|  0.80637
USER: genes 7 Torsion [N]-CA--C-[N] |==|  0.30802
USER: genes 8 Torsion [C]-N--CA-[CB] |==|  0.78230
USER: genes 9 Torsion [N]-CA--CB-[CG2] |==|  0.66163
USER: genes 10 Torsion [CA]-CB--OG1-[HG1] |==|  0.17495
USER: genes 11 Torsion [N]-CA--C-[N] |==|  0.18384
USER: genes 12 Torsion [C]-N--CA-[C] |==|  0.83497
USER: genes 13 Torsion [N]-CA--C-[N] |==|  0.37092
USER: genes 14 Torsion [N]-CA--CB-[CG] |==|  0.84125
USER: genes 15 Torsion [CA]-CB--CG-[ND1] |==|  0.80118
ROOT
ATOM      1  CA  HIS C   2      22.175   1.604  49.174  1.00 11.69 LIG 0.18  C 
ENDROOT
BRANCH 1 2
ATOM      2  N   HIS C   2      22.283   0.887  47.903  1.00 10.87 LIG-0.35  N 
ATOM      3 H    HIS C   2      21.635   0.347  47.737  1.00 10.87 LIG 0.16  HD
ATOM      4  C   PHE C   1      23.320   1.086  47.099  1.00 11.47 LIG 0.24  C 
ATOM      5 O    PHE C   1      24.176   1.966  47.303  1.00 12.97 LIG-0.27  OA
BRANCH 4 6
ATOM      6  CA  PHE C   1      23.383   0.190  45.859  1.00 11.05 LIG 0.18  C 
BRANCH 6 7
ATOM      7  CB  PHE C   1      23.664  -1.260  46.267  1.00 10.09 LIG 0.07  C 
BRANCH 7 8
ATOM      8  CG  PHE C   1      22.425  -2.049  46.561  1.00  8.73 LIG-0.06  A 
ATOM      9  CD2 PHE C   1      22.187  -2.540  47.824  1.00  8.91 LIG 0.01  A 
ATOM     10  CE2 PHE C   1      21.048  -3.276  48.080  1.00  8.44 LIG 0.00  A 
ATOM     11  CZ  PHE C   1      20.149  -3.534  47.064  1.00  8.32 LIG 0.00  A 
ATOM     12  CE1 PHE C   1      20.376  -3.037  45.800  1.00  8.07 LIG 0.00  A 
ATOM     13  CD1 PHE C   1      21.516  -2.313  45.552  1.00  8.33 LIG 0.01  A 
ENDBRANCH 7 8
ENDBRANCH 6 7
BRANCH 6 14
ATOM     14  N   PHE C   1      24.395   0.652  44.935  1.00 11.54 LIG-0.35  N 
ATOM     15 H    PHE C   1      25.072   0.125  44.884  1.00 11.54 LIG 0.16  HD
ATOM     16  C   ACE C   0      24.303   1.769  44.231  1.00 13.21 LIG 0.21  C 
ATOM     17  CH3 ACE C   0      25.505   2.232  43.459  1.00 13.47 LIG 0.12  C 
ATOM     18 O    ACE C   0      23.311   2.469  44.427  1.00 14.75 LIG-0.27  OA
ENDBRANCH 6 14
ENDBRANCH 4 6
ENDBRANCH 1 2
BRANCH 1 19
ATOM     19  C   HIS C   2      21.864   3.045  48.873  1.00 11.19 LIG 0.24  C 
ATOM     20  N   THR C   3      20.652   3.467  49.206  1.00 11.67 LIG-0.34  N 
ATOM     21 H    THR C   3      20.035   2.968  49.537  1.00 11.67 LIG 0.16  HD
ATOM     22 O    HIS C   2      22.715   3.787  48.390  1.00 11.10 LIG-0.27  OA
BRANCH 20 23
ATOM     23  CA  THR C   3      20.283   4.856  49.022  1.00 11.71 LIG 0.20  C 
BRANCH 23 24
ATOM     24  CB  THR C   3      20.858   5.764  50.141  1.00 13.34 LIG 0.15  C 
ATOM     25  CG2 THR C   3      19.769   6.506  50.876  1.00 14.42 LIG 0.04  C 
BRANCH 24 26
ATOM     26 OG1  THR C   3      21.568   4.949  51.068  1.00 13.01 LIG-0.39  OA
ATOM     27 HG1  THR C   3      22.218   4.585  50.680  1.00 13.01 LIG 0.21  HD
ENDBRANCH 24 26
ENDBRANCH 23 24
BRANCH 23 28
ATOM     28  C   THR C   3      20.709   5.344  47.629  1.00 11.33 LIG 0.24  C 
ATOM     29  N   ALA C   4      20.091   4.789  46.588  1.00 10.31 LIG-0.35  N 
ATOM     30 H    ALA C   4      19.567   4.110  46.638  1.00 10.31 LIG 0.16  HD
ATOM     31 O    THR C   3      21.584   6.209  47.499  1.00 11.88 LIG-0.27  OA
BRANCH 29 32
ATOM     32  CA  ALA C   4      20.276   5.324  45.244  1.00 10.35 LIG 0.18  C 
ATOM     33  CB  ALA C   4      19.532   4.464  44.212  1.00 10.31 LIG 0.04  C 
BRANCH 32 34
ATOM     34  C   ALA C   4      19.829   6.807  45.166  1.00 10.99 LIG 0.28  C 
ATOM     35 O    ALA C   4      18.765   7.167  45.658  0.79 11.43 LIG-0.27  OA
ATOM     36  N   NH2 C   5      20.649   7.654  44.555  0.91 10.97 LIG-0.11  N 
ENDBRANCH 32 34
ENDBRANCH 29 32
ENDBRANCH 23 28
ENDBRANCH 20 23
ENDBRANCH 1 19
BRANCH 1 37
ATOM     37  CB  HIS C   2      23.481   1.585  49.954  1.00 14.08 LIG 0.10  C 
BRANCH 37 38
ATOM     38  CG  HIS C   2      23.992   0.220  50.244  1.00 15.42 LIG 0.06  A 
ATOM     39  CD2 HIS C   2      25.050  -0.444  49.732  1.00 15.59 LIG 0.14  A 
ATOM     40 NE2  HIS C   2      25.087  -1.678  50.336  1.00 17.02 LIG-0.25  NA
ATOM     41  CE1 HIS C   2      24.087  -1.764  51.194  1.00 16.99 LIG 0.23  A 
ATOM     42 ND1  HIS C   2      23.407  -0.632  51.156  0.48 15.92 LIG-0.24  NA
ENDBRANCH 37 38
ENDBRANCH 1 37
TORSDOF 14
ENDMDL
MODEL 90
USER: ADFR SOLUTION from run 196
USER: SCORE 12.672524 LL:  -3.227 LR:  -9.998 RR:   0.000 FEB:  -5.822
USER: RMSD 6.164732
USER: SEED 195
USER: STATUS no improvement in best in 22 clusters for 5 generations
USER: GENES 16
USER: genes 0 Translation |==|  0.38481 0.57226 0.61877
USER: genes 1 Rotation |==|  0.28119 0.69416 0.75605 0.81442
USER: genes 2 Torsion [C]-CA--N-[C] |==|  0.79512
USER: genes 3 Torsion [N]-C--CA-[N] |==|  0.36697
USER: genes 4 Torsion [C]-CA--CB-[CG] |==|  0.35245
USER: genes 5 Torsion [CA]-CB--CG-[CD2] |==|  0.85864
USER: genes 6 Torsion [C]-CA--N-[C] |==|  0.81667
USER: genes 7 Torsion [N]-CA--C-[N] |==|  0.84590
USER: genes 8 Torsion [C]-N--CA-[CB] |==|  0.82774
USER: genes 9 Torsion [N]-CA--CB-[CG2] |==|  0.47541
USER: genes 10 Torsion [CA]-CB--OG1-[HG1] |==|  0.97941
USER: genes 11 Torsion [N]-CA--C-[N] |==|  0.43625
USER: genes 12 Torsion [C]-N--CA-[C] |==|  0.85294
USER: genes 13 Torsion [N]-CA--C-[N] |==|  0.35373
USER: genes 14 Torsion [N]-CA--CB-[CG] |==|  0.41334
USER: genes 15 Torsion [CA]-CB--CG-[ND1] |==|  0.19775
ROOT
ATOM      1  CA  HIS C   2      22.531   3.779  45.332  1.00 11.69 LIG 0.18  C 
ENDROOT
BRANCH 1 2
ATOM      2  N   HIS C   2      22.791   2.377  45.010  1.00 10.87 LIG-0.35  N 
ATOM      3 H    HIS C   2      22.152   1.975  44.600  1.00 10.87 LIG 0.16  HD
ATOM      4  C   PHE C   1      23.943   1.807  45.346  1.00 11.47 LIG 0.24  C 
ATOM      5 O    PHE C   1      24.899   2.444  45.822  1.00 12.97 LIG-0.27  OA
BRANCH 4 6
ATOM      6  CA  PHE C   1      24.049   0.306  45.065  1.00 11.05 LIG 0.18  C 
BRANCH 6 7
ATOM      7  CB  PHE C   1      23.944  -0.487  46.372  1.00 10.09 LIG 0.07  C 
BRANCH 7 8
ATOM      8  CG  PHE C   1      22.894  -1.555  46.341  1.00  8.73 LIG-0.06  A 
ATOM      9  CD2 PHE C   1      21.610  -1.268  45.938  1.00  8.91 LIG 0.01  A 
ATOM     10  CE2 PHE C   1      20.649  -2.257  45.923  1.00  8.44 LIG 0.00  A 
ATOM     11  CZ  PHE C   1      20.969  -3.539  46.327  1.00  8.32 LIG 0.00  A 
ATOM     12  CE1 PHE C   1      22.255  -3.835  46.721  1.00  8.07 LIG 0.00  A 
ATOM     13  CD1 PHE C   1      23.203  -2.843  46.740  1.00  8.33 LIG 0.01  A 
ENDBRANCH 7 8
ENDBRANCH 6 7
BRANCH 6 14
ATOM     14  N   PHE C   1      25.290  -0.010  44.392  1.00 11.54 LIG-0.35  N 
ATOM     15 H    PHE C   1      25.820  -0.491  44.867  1.00 11.54 LIG 0.16  HD
ATOM     16  C   ACE C   0      25.593   0.392  43.168  1.00 13.21 LIG 0.21  C 
ATOM     17  CH3 ACE C   0      26.988   0.162  42.661  1.00 13.47 LIG 0.12  C 
ATOM     18 O    ACE C   0      24.778   1.120  42.604  1.00 14.75 LIG-0.27  OA
ENDBRANCH 6 14
ENDBRANCH 4 6
ENDBRANCH 1 2
BRANCH 1 19
ATOM     19  C   HIS C   2      22.271   3.880  46.810  1.00 11.19 LIG 0.24  C 
ATOM     20  N   THR C   3      21.302   3.113  47.291  1.00 11.67 LIG-0.34  N 
ATOM     21 H    THR C   3      20.798   2.605  46.813  1.00 11.67 LIG 0.16  HD
ATOM     22 O    HIS C   2      22.961   4.601  47.525  1.00 11.10 LIG-0.27  OA
BRANCH 20 23
ATOM     23  CA  THR C   3      21.025   3.086  48.712  1.00 11.71 LIG 0.20  C 
BRANCH 23 24
ATOM     24  CB  THR C   3      22.236   2.566  49.532  1.00 13.34 LIG 0.15  C 
ATOM     25  CG2 THR C   3      22.026   2.740  51.016  1.00 14.42 LIG 0.04  C 
BRANCH 24 26
ATOM     26 OG1  THR C   3      22.415   1.181  49.250  1.00 13.01 LIG-0.39  OA
ATOM     27 HG1  THR C   3      21.774   0.906  48.782  1.00 13.01 LIG 0.21  HD
ENDBRANCH 24 26
ENDBRANCH 23 24
BRANCH 23 28
ATOM     28  C   THR C   3      20.573   4.472  49.197  1.00 11.33 LIG 0.24  C 
ATOM     29  N   ALA C   4      19.853   4.507  50.316  1.00 10.31 LIG-0.35  N 
ATOM     30 H    ALA C   4      19.534   3.813  50.711  1.00 10.31 LIG 0.16  HD
ATOM     31 O    THR C   3      20.872   5.494  48.567  1.00 11.88 LIG-0.27  OA
BRANCH 29 32
ATOM     32  CA  ALA C   4      19.551   5.777  50.965  1.00 10.35 LIG 0.18  C 
ATOM     33  CB  ALA C   4      18.776   5.547  52.270  1.00 10.31 LIG 0.04  C 
BRANCH 32 34
ATOM     34  C   ALA C   4      20.843   6.597  51.217  1.00 10.99 LIG 0.28  C 
ATOM     35 O    ALA C   4      21.799   6.097  51.798  0.79 11.43 LIG-0.27  OA
ATOM     36  N   NH2 C   5      20.861   7.848  50.770  0.91 10.97 LIG-0.11  N 
ENDBRANCH 32 34
ENDBRANCH 29 32
ENDBRANCH 23 28
ENDBRANCH 20 23
ENDBRANCH 1 19
BRANCH 1 37
ATOM     37  CB  HIS C   2      21.290   4.307  44.626  1.00 14.08 LIG 0.10  C 
BRANCH 37 38
ATOM     38  CG  HIS C   2      20.563   5.357  45.386  1.00 15.42 LIG 0.06  A 
ATOM     39  CD2 HIS C   2      19.374   5.309  46.023  1.00 15.59 LIG 0.14  A 
ATOM     40 NE2  HIS C   2      19.154   6.551  46.569  1.00 17.02 LIG-0.25  NA
ATOM     41  CE1 HIS C   2      20.178   7.331  46.280  1.00 16.99 LIG 0.23  A 
ATOM     42 ND1  HIS C   2      21.043   6.636  45.564  0.48 15.92 LIG-0.24  NA
ENDBRANCH 37 38
ENDBRANCH 1 37
TORSDOF 14
ENDMDL
MODEL 91
USER: ADFR SOLUTION from run 194
USER: SCORE 12.119258 LL:  -3.145 LR:  -9.992 RR:   0.000 FEB:  -5.816
USER: RMSD 8.878259
USER: SEED 193
USER: STATUS no improvement in best in 26 clusters for 5 generations
USER: GENES 16
USER: genes 0 Translation |==|  0.47794 0.65429 0.51697
USER: genes 1 Rotation |==|  0.71579 0.91422 0.46974 0.67591
USER: genes 2 Torsion [C]-CA--N-[C] |==|  0.84365
USER: genes 3 Torsion [N]-C--CA-[N] |==|  0.36917
USER: genes 4 Torsion [C]-CA--CB-[CG] |==|  0.50053
USER: genes 5 Torsion [CA]-CB--CG-[CD2] |==|  0.39619
USER: genes 6 Torsion [C]-CA--N-[C] |==|  0.67222
USER: genes 7 Torsion [N]-CA--C-[N] |==|  0.30622
USER: genes 8 Torsion [C]-N--CA-[CB] |==|  0.17902
USER: genes 9 Torsion [N]-CA--CB-[CG2] |==|  0.15984
USER: genes 10 Torsion [CA]-CB--OG1-[HG1] |==|  0.92034
USER: genes 11 Torsion [N]-CA--C-[N] |==|  0.02066
USER: genes 12 Torsion [C]-N--CA-[C] |==|  0.80995
USER: genes 13 Torsion [N]-CA--C-[N] |==|  0.37465
USER: genes 14 Torsion [N]-CA--CB-[CG] |==|  0.61247
USER: genes 15 Torsion [CA]-CB--CG-[ND1] |==|  0.31238
ROOT
ATOM      1  CA  HIS C   2      24.347   5.133  43.271  1.00 11.69 LIG 0.18  C 
ENDROOT
BRANCH 1 2
ATOM      2  N   HIS C   2      23.368   5.444  44.312  1.00 10.87 LIG-0.35  N 
ATOM      3 H    HIS C   2      23.377   6.259  44.585  1.00 10.87 LIG 0.16  HD
ATOM      4  C   PHE C   1      22.546   4.508  44.771  1.00 11.47 LIG 0.24  C 
ATOM      5 O    PHE C   1      22.466   3.372  44.269  1.00 12.97 LIG-0.27  OA
BRANCH 4 6
ATOM      6  CA  PHE C   1      21.653   4.923  45.943  1.00 11.05 LIG 0.18  C 
BRANCH 6 7
ATOM      7  CB  PHE C   1      22.172   4.312  47.248  1.00 10.09 LIG 0.07  C 
BRANCH 7 8
ATOM      8  CG  PHE C   1      21.346   4.669  48.446  1.00  8.73 LIG-0.06  A 
ATOM      9  CD2 PHE C   1      21.122   3.751  49.445  1.00  8.91 LIG 0.01  A 
ATOM     10  CE2 PHE C   1      20.351   4.087  50.538  1.00  8.44 LIG 0.00  A 
ATOM     11  CZ  PHE C   1      19.786   5.344  50.626  1.00  8.32 LIG 0.00  A 
ATOM     12  CE1 PHE C   1      20.015   6.272  49.633  1.00  8.07 LIG 0.00  A 
ATOM     13  CD1 PHE C   1      20.777   5.926  48.546  1.00  8.33 LIG 0.01  A 
ENDBRANCH 7 8
ENDBRANCH 6 7
BRANCH 6 14
ATOM     14  N   PHE C   1      20.281   4.522  45.718  1.00 11.54 LIG-0.35  N 
ATOM     15 H    PHE C   1      20.184   3.670  45.652  1.00 11.54 LIG 0.16  HD
ATOM     16  C   ACE C   0      19.267   5.366  45.621  1.00 13.21 LIG 0.21  C 
ATOM     17  CH3 ACE C   0      17.929   4.837  45.192  1.00 13.47 LIG 0.12  C 
ATOM     18 O    ACE C   0      19.535   6.566  45.679  1.00 14.75 LIG-0.27  OA
ENDBRANCH 6 14
ENDBRANCH 4 6
ENDBRANCH 1 2
BRANCH 1 19
ATOM     19  C   HIS C   2      25.200   3.994  43.757  1.00 11.19 LIG 0.24  C 
ATOM     20  N   THR C   3      25.034   2.830  43.142  1.00 11.67 LIG-0.34  N 
ATOM     21 H    THR C   3      24.453   2.682  42.526  1.00 11.67 LIG 0.16  HD
ATOM     22 O    HIS C   2      26.035   4.162  44.642  1.00 11.10 LIG-0.27  OA
BRANCH 20 23
ATOM     23  CA  THR C   3      25.860   1.693  43.490  1.00 11.71 LIG 0.20  C 
BRANCH 23 24
ATOM     24  CB  THR C   3      25.626   1.228  44.952  1.00 13.34 LIG 0.15  C 
ATOM     25  CG2 THR C   3      24.181   0.874  45.204  1.00 14.42 LIG 0.04  C 
BRANCH 24 26
ATOM     26 OG1  THR C   3      26.432   0.080  45.199  1.00 13.01 LIG-0.39  OA
ATOM     27 HG1  THR C   3      26.550  -0.339  44.480  1.00 13.01 LIG 0.21  HD
ENDBRANCH 24 26
ENDBRANCH 23 24
BRANCH 23 28
ATOM     28  C   THR C   3      25.639   0.544  42.494  1.00 11.33 LIG 0.24  C 
ATOM     29  N   ALA C   4      24.885   0.814  41.431  1.00 10.31 LIG-0.35  N 
ATOM     30 H    ALA C   4      24.429   1.535  41.327  1.00 10.31 LIG 0.16  HD
ATOM     31 O    THR C   3      26.145  -0.569  42.686  1.00 11.88 LIG-0.27  OA
BRANCH 29 32
ATOM     32  CA  ALA C   4      24.783  -0.140  40.332  1.00 10.35 LIG 0.18  C 
ATOM     33  CB  ALA C   4      23.636   0.244  39.387  1.00 10.31 LIG 0.04  C 
BRANCH 32 34
ATOM     34  C   ALA C   4      26.126  -0.256  39.567  1.00 10.99 LIG 0.28  C 
ATOM     35 O    ALA C   4      26.764   0.746  39.264  0.79 11.43 LIG-0.27  OA
ATOM     36  N   NH2 C   5      26.547  -1.481  39.268  0.91 10.97 LIG-0.11  N 
ENDBRANCH 32 34
ENDBRANCH 29 32
ENDBRANCH 23 28
ENDBRANCH 20 23
ENDBRANCH 1 19
BRANCH 1 37
ATOM     37  CB  HIS C   2      25.281   6.302  42.996  1.00 14.08 LIG 0.10  C 
BRANCH 37 38
ATOM     38  CG  HIS C   2      25.584   6.509  41.555  1.00 15.42 LIG 0.06  A 
ATOM     39  CD2 HIS C   2      26.281   5.742  40.691  1.00 15.59 LIG 0.14  A 
ATOM     40 NE2  HIS C   2      26.267   6.384  39.475  1.00 17.02 LIG-0.25  NA
ATOM     41  CE1 HIS C   2      25.579   7.504  39.592  1.00 16.99 LIG 0.23  A 
ATOM     42 ND1  HIS C   2      25.156   7.606  40.839  0.48 15.92 LIG-0.24  NA
ENDBRANCH 37 38
ENDBRANCH 1 37
TORSDOF 14
ENDMDL
MODEL 92
USER: ADFR SOLUTION from run 39
USER: SCORE 12.203798 LL:  -3.025 LR:  -9.969 RR:   0.000 FEB:  -5.793
USER: RMSD 7.650475
USER: SEED 38
USER: STATUS no improvement in best in 12 clusters for 5 generations
USER: GENES 16
USER: genes 0 Translation |==|  0.32696 0.51129 0.73810
USER: genes 1 Rotation |==|  0.42931 0.21632 0.19081 0.76254
USER: genes 2 Torsion [C]-CA--N-[C] |==|  0.17401
USER: genes 3 Torsion [N]-C--CA-[N] |==|  0.44890
USER: genes 4 Torsion [C]-CA--CB-[CG] |==|  0.31203
USER: genes 5 Torsion [CA]-CB--CG-[CD2] |==|  0.53722
USER: genes 6 Torsion [C]-CA--N-[C] |==|  0.82726
USER: genes 7 Torsion [N]-CA--C-[N] |==|  0.08333
USER: genes 8 Torsion [C]-N--CA-[CB] |==|  0.86643
USER: genes 9 Torsion [N]-CA--CB-[CG2] |==|  0.49891
USER: genes 10 Torsion [CA]-CB--OG1-[HG1] |==|  0.42751
USER: genes 11 Torsion [N]-CA--C-[N] |==|  0.35698
USER: genes 12 Torsion [C]-N--CA-[C] |==|  0.61718
USER: genes 13 Torsion [N]-CA--C-[N] |==|  0.27322
USER: genes 14 Torsion [N]-CA--CB-[CG] |==|  0.60396
USER: genes 15 Torsion [CA]-CB--CG-[ND1] |==|  0.41314
ROOT
ATOM      1  CA  HIS C   2      21.403   2.773  47.748  1.00 11.69 LIG 0.18  C 
ENDROOT
BRANCH 1 2
ATOM      2  N   HIS C   2      21.761   1.538  47.051  1.00 10.87 LIG-0.35  N 
ATOM      3 H    HIS C   2      21.099   1.022  46.866  1.00 10.87 LIG 0.16  HD
ATOM      4  C   PHE C   1      23.026   1.275  46.746  1.00 11.47 LIG 0.24  C 
ATOM      5 O    PHE C   1      23.946   2.095  46.909  1.00 12.97 LIG-0.27  OA
BRANCH 4 6
ATOM      6  CA  PHE C   1      23.289  -0.101  46.127  1.00 11.05 LIG 0.18  C 
BRANCH 6 7
ATOM      7  CB  PHE C   1      23.238  -1.186  47.208  1.00 10.09 LIG 0.07  C 
BRANCH 7 8
ATOM      8  CG  PHE C   1      22.075  -2.119  47.064  1.00  8.73 LIG-0.06  A 
ATOM      9  CD2 PHE C   1      21.725  -2.969  48.087  1.00  8.91 LIG 0.01  A 
ATOM     10  CE2 PHE C   1      20.658  -3.832  47.940  1.00  8.44 LIG 0.00  A 
ATOM     11  CZ  PHE C   1      19.946  -3.855  46.756  1.00  8.32 LIG 0.00  A 
ATOM     12  CE1 PHE C   1      20.285  -2.999  45.732  1.00  8.07 LIG 0.00  A 
ATOM     13  CD1 PHE C   1      21.352  -2.150  45.884  1.00  8.33 LIG 0.01  A 
ENDBRANCH 7 8
ENDBRANCH 6 7
BRANCH 6 14
ATOM     14  N   PHE C   1      24.567  -0.131  45.452  1.00 11.54 LIG-0.35  N 
ATOM     15 H    PHE C   1      25.116  -0.698  45.792  1.00 11.54 LIG 0.16  HD
ATOM     16  C   ACE C   0      24.876   0.629  44.413  1.00 13.21 LIG 0.21  C 
ATOM     17  CH3 ACE C   0      26.297   0.641  43.929  1.00 13.47 LIG 0.12  C 
ATOM     18 O    ACE C   0      24.027   1.440  44.046  1.00 14.75 LIG-0.27  OA
ENDBRANCH 6 14
ENDBRANCH 4 6
ENDBRANCH 1 2
BRANCH 1 19
ATOM     19  C   HIS C   2      21.774   3.933  46.866  1.00 11.19 LIG 0.24  C 
ATOM     20  N   THR C   3      21.728   3.717  45.559  1.00 11.67 LIG-0.34  N 
ATOM     21 H    THR C   3      21.543   2.959  45.195  1.00 11.67 LIG 0.16  HD
ATOM     22 O    HIS C   2      22.054   5.028  47.347  1.00 11.10 LIG-0.27  OA
BRANCH 20 23
ATOM     23  CA  THR C   3      21.998   4.792  44.627  1.00 11.71 LIG 0.20  C 
BRANCH 23 24
ATOM     24  CB  THR C   3      21.212   6.082  44.983  1.00 13.34 LIG 0.15  C 
ATOM     25  CG2 THR C   3      21.504   7.202  44.015  1.00 14.42 LIG 0.04  C 
BRANCH 24 26
ATOM     26 OG1  THR C   3      19.818   5.790  44.943  1.00 13.01 LIG-0.39  OA
ATOM     27 HG1  THR C   3      19.406   6.317  45.451  1.00 13.01 LIG 0.21  HD
ENDBRANCH 24 26
ENDBRANCH 23 24
BRANCH 23 28
ATOM     28  C   THR C   3      23.508   5.062  44.543  1.00 11.33 LIG 0.24  C 
ATOM     29  N   ALA C   4      24.042   5.087  43.323  1.00 10.31 LIG-0.35  N 
ATOM     30 H    ALA C   4      23.629   4.853  42.606  1.00 10.31 LIG 0.16  HD
ATOM     31 O    THR C   3      24.180   5.243  45.566  1.00 11.88 LIG-0.27  OA
BRANCH 29 32
ATOM     32  CA  ALA C   4      25.416   5.533  43.124  1.00 10.35 LIG 0.18  C 
ATOM     33  CB  ALA C   4      26.366   4.331  43.023  1.00 10.31 LIG 0.04  C 
BRANCH 32 34
ATOM     34  C   ALA C   4      25.532   6.446  41.876  1.00 10.99 LIG 0.28  C 
ATOM     35 O    ALA C   4      25.607   5.964  40.751  0.79 11.43 LIG-0.27  OA
ATOM     36  N   NH2 C   5      25.538   7.758  42.086  0.91 10.97 LIG-0.11  N 
ENDBRANCH 32 34
ENDBRANCH 29 32
ENDBRANCH 23 28
ENDBRANCH 20 23
ENDBRANCH 1 19
BRANCH 1 37
ATOM     37  CB  HIS C   2      22.174   2.940  49.049  1.00 14.08 LIG 0.10  C 
BRANCH 37 38
ATOM     38  CG  HIS C   2      21.378   3.539  50.152  1.00 15.42 LIG 0.06  A 
ATOM     39  CD2 HIS C   2      20.365   4.430  50.115  1.00 15.59 LIG 0.14  A 
ATOM     40 NE2  HIS C   2      19.975   4.657  51.413  1.00 17.02 LIG-0.25  NA
ATOM     41  CE1 HIS C   2      20.721   3.924  52.218  1.00 16.99 LIG 0.23  A 
ATOM     42 ND1  HIS C   2      21.580   3.240  51.483  0.48 15.92 LIG-0.24  NA
ENDBRANCH 37 38
ENDBRANCH 1 37
TORSDOF 14
ENDMDL
MODEL 93
USER: ADFR SOLUTION from run 75
USER: SCORE 12.097060 LL:  -3.408 LR:  -9.972 RR:   0.000 FEB:  -5.796
USER: RMSD 8.315847
USER: SEED 74
USER: STATUS no improvement in best in 15 clusters for 5 generations
USER: GENES 16
USER: genes 0 Translation |==|  0.30808 0.53929 0.78727
USER: genes 1 Rotation |==|  0.43420 0.17499 0.23541 0.76463
USER: genes 2 Torsion [C]-CA--N-[C] |==|  0.16111
USER: genes 3 Torsion [N]-C--CA-[N] |==|  0.86899
USER: genes 4 Torsion [C]-CA--CB-[CG] |==|  0.62693
USER: genes 5 Torsion [CA]-CB--CG-[CD2] |==|  0.30628
USER: genes 6 Torsion [C]-CA--N-[C] |==|  0.68421
USER: genes 7 Torsion [N]-CA--C-[N] |==|  0.15443
USER: genes 8 Torsion [C]-N--CA-[CB] |==|  0.86535
USER: genes 9 Torsion [N]-CA--CB-[CG2] |==|  0.51686
USER: genes 10 Torsion [CA]-CB--OG1-[HG1] |==|  0.40530
USER: genes 11 Torsion [N]-CA--C-[N] |==|  0.95824
USER: genes 12 Torsion [C]-N--CA-[C] |==|  0.80965
USER: genes 13 Torsion [N]-CA--C-[N] |==|  0.43182
USER: genes 14 Torsion [N]-CA--CB-[CG] |==|  0.62715
USER: genes 15 Torsion [CA]-CB--CG-[ND1] |==|  0.30953
ROOT
ATOM      1  CA  HIS C   2      21.035   3.235  48.744  1.00 11.69 LIG 0.18  C 
ENDROOT
BRANCH 1 2
ATOM      2  N   HIS C   2      21.600   1.954  48.322  1.00 10.87 LIG-0.35  N 
ATOM      3 H    HIS C   2      21.034   1.310  48.266  1.00 10.87 LIG 0.16  HD
ATOM      4  C   PHE C   1      22.896   1.840  48.057  1.00 11.47 LIG 0.24  C 
ATOM      5 O    PHE C   1      23.668   2.815  48.022  1.00 12.97 LIG-0.27  OA
BRANCH 4 6
ATOM      6  CA  PHE C   1      23.390   0.425  47.744  1.00 11.05 LIG 0.18  C 
BRANCH 6 7
ATOM      7  CB  PHE C   1      22.961   0.014  46.332  1.00 10.09 LIG 0.07  C 
BRANCH 7 8
ATOM      8  CG  PHE C   1      22.387  -1.368  46.261  1.00  8.73 LIG-0.06  A 
ATOM      9  CD2 PHE C   1      21.048  -1.562  46.012  1.00  8.91 LIG 0.01  A 
ATOM     10  CE2 PHE C   1      20.528  -2.839  45.960  1.00  8.44 LIG 0.00  A 
ATOM     11  CZ  PHE C   1      21.350  -3.929  46.171  1.00  8.32 LIG 0.00  A 
ATOM     12  CE1 PHE C   1      22.694  -3.742  46.409  1.00  8.07 LIG 0.00  A 
ATOM     13  CD1 PHE C   1      23.200  -2.468  46.468  1.00  8.33 LIG 0.01  A 
ENDBRANCH 7 8
ENDBRANCH 6 7
BRANCH 6 14
ATOM     14  N   PHE C   1      22.889  -0.525  48.712  1.00 11.54 LIG-0.35  N 
ATOM     15 H    PHE C   1      22.037  -0.626  48.678  1.00 11.54 LIG 0.16  HD
ATOM     16  C   ACE C   0      23.653  -1.182  49.571  1.00 13.21 LIG 0.21  C 
ATOM     17  CH3 ACE C   0      22.990  -1.989  50.650  1.00 13.47 LIG 0.12  C 
ATOM     18 O    ACE C   0      24.854  -0.916  49.563  1.00 14.75 LIG-0.27  OA
ENDBRANCH 6 14
ENDBRANCH 4 6
ENDBRANCH 1 2
BRANCH 1 19
ATOM     19  C   HIS C   2      21.328   4.251  47.675  1.00 11.19 LIG 0.24  C 
ATOM     20  N   THR C   3      20.915   3.952  46.450  1.00 11.67 LIG-0.34  N 
ATOM     21 H    THR C   3      20.536   3.212  46.230  1.00 11.67 LIG 0.16  HD
ATOM     22 O    HIS C   2      21.876   5.315  47.947  1.00 11.10 LIG-0.27  OA
BRANCH 20 23
ATOM     23  CA  THR C   3      21.086   4.898  45.368  1.00 11.71 LIG 0.20  C 
BRANCH 23 24
ATOM     24  CB  THR C   3      20.602   6.321  45.755  1.00 13.34 LIG 0.15  C 
ATOM     25  CG2 THR C   3      20.646   7.268  44.581  1.00 14.42 LIG 0.04  C 
BRANCH 24 26
ATOM     26 OG1  THR C   3      19.261   6.232  46.227  1.00 13.01 LIG-0.39  OA
ATOM     27 HG1  THR C   3      19.139   6.801  46.833  1.00 13.01 LIG 0.21  HD
ENDBRANCH 24 26
ENDBRANCH 23 24
BRANCH 23 28
ATOM     28  C   THR C   3      22.548   4.912  44.894  1.00 11.33 LIG 0.24  C 
ATOM     29  N   ALA C   4      23.441   4.343  45.700  1.00 10.31 LIG-0.35  N 
ATOM     30 H    ALA C   4      23.276   4.078  46.501  1.00 10.31 LIG 0.16  HD
ATOM     31 O    THR C   3      22.861   5.432  43.815  1.00 11.88 LIG-0.27  OA
BRANCH 29 32
ATOM     32  CA  ALA C   4      24.812   4.124  45.252  1.00 10.35 LIG 0.18  C 
ATOM     33  CB  ALA C   4      25.716   3.752  46.436  1.00 10.31 LIG 0.04  C 
BRANCH 32 34
ATOM     34  C   ALA C   4      24.871   3.046  44.140  1.00 10.99 LIG 0.28  C 
ATOM     35 O    ALA C   4      23.990   2.199  44.041  0.79 11.43 LIG-0.27  OA
ATOM     36  N   NH2 C   5      25.907   3.091  43.309  0.91 10.97 LIG-0.11  N 
ENDBRANCH 32 34
ENDBRANCH 29 32
ENDBRANCH 23 28
ENDBRANCH 20 23
ENDBRANCH 1 19
BRANCH 1 37
ATOM     37  CB  HIS C   2      21.671   3.746  50.029  1.00 14.08 LIG 0.10  C 
BRANCH 37 38
ATOM     38  CG  HIS C   2      20.693   4.246  51.031  1.00 15.42 LIG 0.06  A 
ATOM     39  CD2 HIS C   2      19.896   5.334  51.006  1.00 15.59 LIG 0.14  A 
ATOM     40 NE2  HIS C   2      19.182   5.342  52.180  1.00 17.02 LIG-0.25  NA
ATOM     41  CE1 HIS C   2      19.528   4.290  52.898  1.00 16.99 LIG 0.23  A 
ATOM     42 ND1  HIS C   2      20.442   3.611  52.228  0.48 15.92 LIG-0.24  NA
ENDBRANCH 37 38
ENDBRANCH 1 37
TORSDOF 14
ENDMDL
MODEL 94
USER: ADFR SOLUTION from run 125
USER: SCORE 11.461849 LL:  -3.837 LR:  -9.967 RR:   0.000 FEB:  -5.791
USER: RMSD 8.741730
USER: SEED 124
USER: STATUS no improvement in best in 31 clusters for 5 generations
USER: GENES 16
USER: genes 0 Translation |==|  0.42516 0.63858 0.55567
USER: genes 1 Rotation |==|  0.45466 0.98738 0.59816 0.52780
USER: genes 2 Torsion [C]-CA--N-[C] |==|  0.76666
USER: genes 3 Torsion [N]-C--CA-[N] |==|  0.88518
USER: genes 4 Torsion [C]-CA--CB-[CG] |==|  0.74617
USER: genes 5 Torsion [CA]-CB--CG-[CD2] |==|  0.23576
USER: genes 6 Torsion [C]-CA--N-[C] |==|  0.83067
USER: genes 7 Torsion [N]-CA--C-[N] |==|  0.25628
USER: genes 8 Torsion [C]-N--CA-[CB] |==|  0.45139
USER: genes 9 Torsion [N]-CA--CB-[CG2] |==|  0.86348
USER: genes 10 Torsion [CA]-CB--OG1-[HG1] |==|  0.96491
USER: genes 11 Torsion [N]-CA--C-[N] |==|  0.89119
USER: genes 12 Torsion [C]-N--CA-[C] |==|  0.19691
USER: genes 13 Torsion [N]-CA--C-[N] |==|  0.62109
USER: genes 14 Torsion [N]-CA--CB-[CG] |==|  0.84539
USER: genes 15 Torsion [CA]-CB--CG-[ND1] |==|  0.92818
ROOT
ATOM      1  CA  HIS C   2      23.318   4.874  44.054  1.00 11.69 LIG 0.18  C 
ENDROOT
BRANCH 1 2
ATOM      2  N   HIS C   2      23.359   4.022  45.243  1.00 10.87 LIG-0.35  N 
ATOM      3 H    HIS C   2      23.174   4.422  45.981  1.00 10.87 LIG 0.16  HD
ATOM      4  C   PHE C   1      23.665   2.734  45.144  1.00 11.47 LIG 0.24  C 
ATOM      5 O    PHE C   1      23.803   2.154  44.052  1.00 12.97 LIG-0.27  OA
BRANCH 4 6
ATOM      6  CA  PHE C   1      23.796   1.977  46.468  1.00 11.05 LIG 0.18  C 
BRANCH 6 7
ATOM      7  CB  PHE C   1      22.412   1.580  46.990  1.00 10.09 LIG 0.07  C 
BRANCH 7 8
ATOM      8  CG  PHE C   1      21.804   2.597  47.907  1.00  8.73 LIG-0.06  A 
ATOM      9  CD2 PHE C   1      21.103   3.668  47.403  1.00  8.91 LIG 0.01  A 
ATOM     10  CE2 PHE C   1      20.558   4.605  48.256  1.00  8.44 LIG 0.00  A 
ATOM     11  CZ  PHE C   1      20.726   4.478  49.621  1.00  8.32 LIG 0.00  A 
ATOM     12  CE1 PHE C   1      21.418   3.402  50.133  1.00  8.07 LIG 0.00  A 
ATOM     13  CD1 PHE C   1      21.964   2.479  49.276  1.00  8.33 LIG 0.01  A 
ENDBRANCH 7 8
ENDBRANCH 6 7
BRANCH 6 14
ATOM     14  N   PHE C   1      24.490   2.773  47.455  1.00 11.54 LIG-0.35  N 
ATOM     15 H    PHE C   1      24.014   2.939  48.152  1.00 11.54 LIG 0.16  HD
ATOM     16  C   ACE C   0      25.732   3.211  47.318  1.00 13.21 LIG 0.21  C 
ATOM     17  CH3 ACE C   0      26.265   4.189  48.324  1.00 13.47 LIG 0.12  C 
ATOM     18 O    ACE C   0      26.296   2.955  46.255  1.00 14.75 LIG-0.27  OA
ENDBRANCH 6 14
ENDBRANCH 4 6
ENDBRANCH 1 2
BRANCH 1 19
ATOM     19  C   HIS C   2      24.717   5.342  43.765  1.00 11.19 LIG 0.24  C 
ATOM     20  N   THR C   3      25.426   4.598  42.927  1.00 11.67 LIG-0.34  N 
ATOM     21 H    THR C   3      25.153   3.859  42.580  1.00 11.67 LIG 0.16  HD
ATOM     22 O    HIS C   2      25.147   6.386  44.249  1.00 11.10 LIG-0.27  OA
BRANCH 20 23
ATOM     23  CA  THR C   3      26.758   5.005  42.531  1.00 11.71 LIG 0.20  C 
BRANCH 23 24
ATOM     24  CB  THR C   3      27.569   3.831  41.921  1.00 13.34 LIG 0.15  C 
ATOM     25  CG2 THR C   3      27.511   2.598  42.788  1.00 14.42 LIG 0.04  C 
BRANCH 24 26
ATOM     26 OG1  THR C   3      27.027   3.522  40.641  1.00 13.01 LIG-0.39  OA
ATOM     27 HG1  THR C   3      26.287   3.907  40.549  1.00 13.01 LIG 0.21  HD
ENDBRANCH 24 26
ENDBRANCH 23 24
BRANCH 23 28
ATOM     28  C   THR C   3      26.689   6.200  41.567  1.00 11.33 LIG 0.24  C 
ATOM     29  N   ALA C   4      25.712   6.181  40.663  1.00 10.31 LIG-0.35  N 
ATOM     30 H    ALA C   4      25.202   5.506  40.511  1.00 10.31 LIG 0.16  HD
ATOM     31 O    THR C   3      27.508   7.125  41.642  1.00 11.88 LIG-0.27  OA
BRANCH 29 32
ATOM     32  CA  ALA C   4      25.438   7.355  39.842  1.00 10.35 LIG 0.18  C 
ATOM     33  CB  ALA C   4      25.233   8.596  40.723  1.00 10.31 LIG 0.04  C 
BRANCH 32 34
ATOM     34  C   ALA C   4      26.564   7.585  38.802  1.00 10.99 LIG 0.28  C 
ATOM     35 O    ALA C   4      27.027   6.647  38.162  0.79 11.43 LIG-0.27  OA
ATOM     36  N   NH2 C   5      26.989   8.833  38.637  0.91 10.97 LIG-0.11  N 
ENDBRANCH 32 34
ENDBRANCH 29 32
ENDBRANCH 23 28
ENDBRANCH 20 23
ENDBRANCH 1 19
BRANCH 1 37
ATOM     37  CB  HIS C   2      22.469   6.117  44.271  1.00 14.08 LIG 0.10  C 
BRANCH 37 38
ATOM     38  CG  HIS C   2      21.077   5.831  44.709  1.00 15.42 LIG 0.06  A 
ATOM     39  CD2 HIS C   2      20.211   6.586  45.416  1.00 15.59 LIG 0.14  A 
ATOM     40 NE2  HIS C   2      19.053   5.857  45.552  1.00 17.02 LIG-0.25  NA
ATOM     41  CE1 HIS C   2      19.205   4.697  44.943  1.00 16.99 LIG 0.23  A 
ATOM     42 ND1  HIS C   2      20.420   4.653  44.427  0.48 15.92 LIG-0.24  NA
ENDBRANCH 37 38
ENDBRANCH 1 37
TORSDOF 14
ENDMDL
MODEL 95
USER: ADFR SOLUTION from run 165
USER: SCORE 12.343514 LL:  -3.314 LR:  -9.959 RR:   0.000 FEB:  -5.782
USER: RMSD 8.794145
USER: SEED 164
USER: STATUS no improvement in best in 21 clusters for 5 generations
USER: GENES 16
USER: genes 0 Translation |==|  0.41307 0.56464 0.57245
USER: genes 1 Rotation |==|  0.47761 0.96739 0.61153 0.63640
USER: genes 2 Torsion [C]-CA--N-[C] |==|  0.85886
USER: genes 3 Torsion [N]-C--CA-[N] |==|  0.42126
USER: genes 4 Torsion [C]-CA--CB-[CG] |==|  0.26206
USER: genes 5 Torsion [CA]-CB--CG-[CD2] |==|  0.92098
USER: genes 6 Torsion [C]-CA--N-[C] |==|  0.67607
USER: genes 7 Torsion [N]-CA--C-[N] |==|  0.38356
USER: genes 8 Torsion [C]-N--CA-[CB] |==|  0.19105
USER: genes 9 Torsion [N]-CA--CB-[CG2] |==|  0.14593
USER: genes 10 Torsion [CA]-CB--OG1-[HG1] |==|  0.90872
USER: genes 11 Torsion [N]-CA--C-[N] |==|  0.03528
USER: genes 12 Torsion [C]-N--CA-[C] |==|  0.61668
USER: genes 13 Torsion [N]-CA--C-[N] |==|  0.00953
USER: genes 14 Torsion [N]-CA--CB-[CG] |==|  0.90875
USER: genes 15 Torsion [CA]-CB--CG-[ND1] |==|  0.30894
ROOT
ATOM      1  CA  HIS C   2      23.082   3.654  44.394  1.00 11.69 LIG 0.18  C 
ENDROOT
BRANCH 1 2
ATOM      2  N   HIS C   2      22.523   2.721  45.372  1.00 10.87 LIG-0.35  N 
ATOM      3 H    HIS C   2      21.791   2.980  45.742  1.00 10.87 LIG 0.16  HD
ATOM      4  C   PHE C   1      23.132   1.572  45.639  1.00 11.47 LIG 0.24  C 
ATOM      5 O    PHE C   1      24.117   1.164  44.997  1.00 12.97 LIG-0.27  OA
BRANCH 4 6
ATOM      6  CA  PHE C   1      22.518   0.738  46.766  1.00 11.05 LIG 0.18  C 
BRANCH 6 7
ATOM      7  CB  PHE C   1      23.076   1.185  48.121  1.00 10.09 LIG 0.07  C 
BRANCH 7 8
ATOM      8  CG  PHE C   1      22.219   2.199  48.816  1.00  8.73 LIG-0.06  A 
ATOM      9  CD2 PHE C   1      21.429   3.064  48.096  1.00  8.91 LIG 0.01  A 
ATOM     10  CE2 PHE C   1      20.652   4.000  48.747  1.00  8.44 LIG 0.00  A 
ATOM     11  CZ  PHE C   1      20.676   4.082  50.125  1.00  8.32 LIG 0.00  A 
ATOM     12  CE1 PHE C   1      21.458   3.211  50.853  1.00  8.07 LIG 0.00  A 
ATOM     13  CD1 PHE C   1      22.234   2.288  50.197  1.00  8.33 LIG 0.01  A 
ENDBRANCH 7 8
ENDBRANCH 6 7
BRANCH 6 14
ATOM     14  N   PHE C   1      22.769  -0.672  46.566  1.00 11.54 LIG-0.35  N 
ATOM     15 H    PHE C   1      23.604  -0.873  46.589  1.00 11.54 LIG 0.16  HD
ATOM     16  C   ACE C   0      21.821  -1.574  46.367  1.00 13.21 LIG 0.21  C 
ATOM     17  CH3 ACE C   0      22.225  -2.967  45.978  1.00 13.47 LIG 0.12  C 
ATOM     18 O    ACE C   0      20.664  -1.160  46.302  1.00 14.75 LIG-0.27  OA
ENDBRANCH 6 14
ENDBRANCH 4 6
ENDBRANCH 1 2
BRANCH 1 19
ATOM     19  C   HIS C   2      24.529   3.879  44.737  1.00 11.19 LIG 0.24  C 
ATOM     20  N   THR C   3      25.378   3.906  43.718  1.00 11.67 LIG-0.34  N 
ATOM     21 H    THR C   3      25.160   3.765  42.898  1.00 11.67 LIG 0.16  HD
ATOM     22 O    HIS C   2      24.881   4.073  45.897  1.00 11.10 LIG-0.27  OA
BRANCH 20 23
ATOM     23  CA  THR C   3      26.780   4.188  43.940  1.00 11.71 LIG 0.20  C 
BRANCH 23 24
ATOM     24  CB  THR C   3      27.492   3.039  44.702  1.00 13.34 LIG 0.15  C 
ATOM     25  CG2 THR C   3      27.268   1.703  44.039  1.00 14.42 LIG 0.04  C 
BRANCH 24 26
ATOM     26 OG1  THR C   3      28.890   3.312  44.732  1.00 13.01 LIG-0.39  OA
ATOM     27 HG1  THR C   3      29.112   3.713  44.029  1.00 13.01 LIG 0.21  HD
ENDBRANCH 24 26
ENDBRANCH 23 24
BRANCH 23 28
ATOM     28  C   THR C   3      27.483   4.498  42.609  1.00 11.33 LIG 0.24  C 
ATOM     29  N   ALA C   4      26.697   4.718  41.557  1.00 10.31 LIG-0.35  N 
ATOM     30 H    ALA C   4      25.847   4.586  41.548  1.00 10.31 LIG 0.16  HD
ATOM     31 O    THR C   3      28.718   4.537  42.536  1.00 11.88 LIG-0.27  OA
BRANCH 29 32
ATOM     32  CA  ALA C   4      27.255   5.216  40.305  1.00 10.35 LIG 0.18  C 
ATOM     33  CB  ALA C   4      27.493   4.061  39.321  1.00 10.31 LIG 0.04  C 
BRANCH 32 34
ATOM     34  C   ALA C   4      26.345   6.305  39.682  1.00 10.99 LIG 0.28  C 
ATOM     35 O    ALA C   4      26.612   6.796  38.591  0.79 11.43 LIG-0.27  OA
ATOM     36  N   NH2 C   5      25.272   6.668  40.379  0.91 10.97 LIG-0.11  N 
ENDBRANCH 32 34
ENDBRANCH 29 32
ENDBRANCH 23 28
ENDBRANCH 20 23
ENDBRANCH 1 19
BRANCH 1 37
ATOM     37  CB  HIS C   2      22.397   5.012  44.442  1.00 14.08 LIG 0.10  C 
BRANCH 37 38
ATOM     38  CG  HIS C   2      20.956   4.950  44.800  1.00 15.42 LIG 0.06  A 
ATOM     39  CD2 HIS C   2      19.905   4.461  44.110  1.00 15.59 LIG 0.14  A 
ATOM     40 NE2  HIS C   2      18.786   4.647  44.887  1.00 17.02 LIG-0.25  NA
ATOM     41  CE1 HIS C   2      19.143   5.227  46.017  1.00 16.99 LIG 0.23  A 
ATOM     42 ND1  HIS C   2      20.448   5.424  45.990  0.48 15.92 LIG-0.24  NA
ENDBRANCH 37 38
ENDBRANCH 1 37
TORSDOF 14
ENDMDL
MODEL 96
USER: ADFR SOLUTION from run 90
USER: SCORE 12.513174 LL:  -3.393 LR:  -9.960 RR:   0.000 FEB:  -5.784
USER: RMSD 3.470823
USER: SEED 89
USER: STATUS no improvement in best in 24 clusters for 5 generations
USER: GENES 16
USER: genes 0 Translation |==|  0.57906 0.67934 0.46331
USER: genes 1 Rotation |==|  0.29039 0.58840 0.71053 0.89233
USER: genes 2 Torsion [C]-CA--N-[C] |==|  0.81356
USER: genes 3 Torsion [N]-C--CA-[N] |==|  0.66225
USER: genes 4 Torsion [C]-CA--CB-[CG] |==|  0.55727
USER: genes 5 Torsion [CA]-CB--CG-[CD2] |==|  0.85550
USER: genes 6 Torsion [C]-CA--N-[C] |==|  0.16134
USER: genes 7 Torsion [N]-CA--C-[N] |==|  0.92778
USER: genes 8 Torsion [C]-N--CA-[CB] |==|  0.84853
USER: genes 9 Torsion [N]-CA--CB-[CG2] |==|  0.52873
USER: genes 10 Torsion [CA]-CB--OG1-[HG1] |==|  0.16591
USER: genes 11 Torsion [N]-CA--C-[N] |==|  0.38555
USER: genes 12 Torsion [C]-N--CA-[C] |==|  0.72843
USER: genes 13 Torsion [N]-CA--C-[N] |==|  0.92785
USER: genes 14 Torsion [N]-CA--CB-[CG] |==|  0.84790
USER: genes 15 Torsion [CA]-CB--CG-[ND1] |==|  0.10459
ROOT
ATOM      1  CA  HIS C   2      26.319   5.546  42.184  1.00 11.69 LIG 0.18  C 
ENDROOT
BRANCH 1 2
ATOM      2  N   HIS C   2      26.652   4.260  41.573  1.00 10.87 LIG-0.35  N 
ATOM      3 H    HIS C   2      26.322   4.135  40.790  1.00 10.87 LIG 0.16  HD
ATOM      4  C   PHE C   1      27.411   3.380  42.217  1.00 11.47 LIG 0.24  C 
ATOM      5 O    PHE C   1      27.981   3.638  43.292  1.00 12.97 LIG-0.27  OA
BRANCH 4 6
ATOM      6  CA  PHE C   1      27.589   2.025  41.528  1.00 11.05 LIG 0.18  C 
BRANCH 6 7
ATOM      7  CB  PHE C   1      26.833   2.004  40.196  1.00 10.09 LIG 0.07  C 
BRANCH 7 8
ATOM      8  CG  PHE C   1      26.537   0.622  39.698  1.00  8.73 LIG-0.06  A 
ATOM      9  CD2 PHE C   1      27.537  -0.316  39.590  1.00  8.91 LIG 0.01  A 
ATOM     10  CE2 PHE C   1      27.255  -1.582  39.120  1.00  8.44 LIG 0.00  A 
ATOM     11  CZ  PHE C   1      25.968  -1.909  38.742  1.00  8.32 LIG 0.00  A 
ATOM     12  CE1 PHE C   1      24.959  -0.977  38.858  1.00  8.07 LIG 0.00  A 
ATOM     13  CD1 PHE C   1      25.250   0.282  39.319  1.00  8.33 LIG 0.01  A 
ENDBRANCH 7 8
ENDBRANCH 6 7
BRANCH 6 14
ATOM     14  N   PHE C   1      27.130   0.947  42.377  1.00 11.54 LIG-0.35  N 
ATOM     15 H    PHE C   1      27.740   0.365  42.544  1.00 11.54 LIG 0.16  HD
ATOM     16  C   ACE C   0      25.900   0.851  42.857  1.00 13.21 LIG 0.21  C 
ATOM     17  CH3 ACE C   0      25.499  -0.412  43.561  1.00 13.47 LIG 0.12  C 
ATOM     18 O    ACE C   0      25.099   1.717  42.507  1.00 14.75 LIG-0.27  OA
ENDBRANCH 6 14
ENDBRANCH 4 6
ENDBRANCH 1 2
BRANCH 1 19
ATOM     19  C   HIS C   2      25.430   5.285  43.369  1.00 11.19 LIG 0.24  C 
ATOM     20  N   THR C   3      24.712   4.170  43.333  1.00 11.67 LIG-0.34  N 
ATOM     21 H    THR C   3      24.694   3.623  42.669  1.00 11.67 LIG 0.16  HD
ATOM     22 O    HIS C   2      25.419   6.048  44.331  1.00 11.10 LIG-0.27  OA
BRANCH 20 23
ATOM     23  CA  THR C   3      23.882   3.796  44.458  1.00 11.71 LIG 0.20  C 
BRANCH 23 24
ATOM     24  CB  THR C   3      24.687   3.739  45.783  1.00 13.34 LIG 0.15  C 
ATOM     25  CG2 THR C   3      23.888   3.113  46.899  1.00 14.42 LIG 0.04  C 
BRANCH 24 26
ATOM     26 OG1  THR C   3      25.864   2.966  45.567  1.00 13.01 LIG-0.39  OA
ATOM     27 HG1  THR C   3      26.326   3.322  44.963  1.00 13.01 LIG 0.21  HD
ENDBRANCH 24 26
ENDBRANCH 23 24
BRANCH 23 28
ATOM     28  C   THR C   3      22.677   4.743  44.574  1.00 11.33 LIG 0.24  C 
ATOM     29  N   ALA C   4      21.506   4.184  44.871  1.00 10.31 LIG-0.35  N 
ATOM     30 H    ALA C   4      21.361   3.336  44.887  1.00 10.31 LIG 0.16  HD
ATOM     31 O    THR C   3      22.806   5.961  44.396  1.00 11.88 LIG-0.27  OA
BRANCH 29 32
ATOM     32  CA  ALA C   4      20.352   5.011  45.202  1.00 10.35 LIG 0.18  C 
ATOM     33  CB  ALA C   4      19.083   4.462  44.533  1.00 10.31 LIG 0.04  C 
BRANCH 32 34
ATOM     34  C   ALA C   4      20.170   5.130  46.737  1.00 10.99 LIG 0.28  C 
ATOM     35 O    ALA C   4      19.599   6.097  47.228  0.79 11.43 LIG-0.27  OA
ATOM     36  N   NH2 C   5      20.652   4.139  47.481  0.91 10.97 LIG-0.11  N 
ENDBRANCH 32 34
ENDBRANCH 29 32
ENDBRANCH 23 28
ENDBRANCH 20 23
ENDBRANCH 1 19
BRANCH 1 37
ATOM     37  CB  HIS C   2      25.541   6.445  41.235  1.00 14.08 LIG 0.10  C 
BRANCH 37 38
ATOM     38  CG  HIS C   2      26.214   6.673  39.929  1.00 15.42 LIG 0.06  A 
ATOM     39  CD2 HIS C   2      26.282   7.781  39.162  1.00 15.59 LIG 0.14  A 
ATOM     40 NE2  HIS C   2      27.026   7.462  38.051  1.00 17.02 LIG-0.25  NA
ATOM     41  CE1 HIS C   2      27.404   6.201  38.138  1.00 16.99 LIG 0.23  A 
ATOM     42 ND1  HIS C   2      26.925   5.698  39.262  0.48 15.92 LIG-0.24  NA
ENDBRANCH 37 38
ENDBRANCH 1 37
TORSDOF 14
ENDMDL
MODEL 97
USER: ADFR SOLUTION from run 194
USER: SCORE 12.520424 LL:  -3.586 LR:  -9.946 RR:   0.000 FEB:  -5.770
USER: RMSD 8.387564
USER: SEED 193
USER: STATUS no improvement in best in 26 clusters for 5 generations
USER: GENES 16
USER: genes 0 Translation |==|  0.41342 0.37869 0.63066
USER: genes 1 Rotation |==|  0.84050 0.80206 0.42654 0.69345
USER: genes 2 Torsion [C]-CA--N-[C] |==|  0.15692
USER: genes 3 Torsion [N]-C--CA-[N] |==|  0.49795
USER: genes 4 Torsion [C]-CA--CB-[CG] |==|  0.25423
USER: genes 5 Torsion [CA]-CB--CG-[CD2] |==|  0.20342
USER: genes 6 Torsion [C]-CA--N-[C] |==|  0.55919
USER: genes 7 Torsion [N]-CA--C-[N] |==|  0.11097
USER: genes 8 Torsion [C]-N--CA-[CB] |==|  0.77778
USER: genes 9 Torsion [N]-CA--CB-[CG2] |==|  0.60814
USER: genes 10 Torsion [CA]-CB--OG1-[HG1] |==|  0.38636
USER: genes 11 Torsion [N]-CA--C-[N] |==|  0.12841
USER: genes 12 Torsion [C]-N--CA-[C] |==|  0.57670
USER: genes 13 Torsion [N]-CA--C-[N] |==|  0.43560
USER: genes 14 Torsion [N]-CA--CB-[CG] |==|  0.82251
USER: genes 15 Torsion [CA]-CB--CG-[ND1] |==|  0.93966
ROOT
ATOM      1  CA  HIS C   2      23.089   0.585  45.573  1.00 11.69 LIG 0.18  C 
ENDROOT
BRANCH 1 2
ATOM      2  N   HIS C   2      22.375   1.520  46.443  1.00 10.87 LIG-0.35  N 
ATOM      3 H    HIS C   2      21.764   1.983  46.053  1.00 10.87 LIG 0.16  HD
ATOM      4  C   PHE C   1      22.680   1.614  47.732  1.00 11.47 LIG 0.24  C 
ATOM      5 O    PHE C   1      23.477   0.843  48.296  1.00 12.97 LIG-0.27  OA
BRANCH 4 6
ATOM      6  CA  PHE C   1      21.950   2.711  48.510  1.00 11.05 LIG 0.18  C 
BRANCH 6 7
ATOM      7  CB  PHE C   1      22.229   4.081  47.884  1.00 10.09 LIG 0.07  C 
BRANCH 7 8
ATOM      8  CG  PHE C   1      21.222   4.482  46.849  1.00  8.73 LIG-0.06  A 
ATOM      9  CD2 PHE C   1      19.954   4.871  47.215  1.00  8.91 LIG 0.01  A 
ATOM     10  CE2 PHE C   1      19.032   5.227  46.253  1.00  8.44 LIG 0.00  A 
ATOM     11  CZ  PHE C   1      19.374   5.180  44.915  1.00  8.32 LIG 0.00  A 
ATOM     12  CE1 PHE C   1      20.645   4.801  44.543  1.00  8.07 LIG 0.00  A 
ATOM     13  CD1 PHE C   1      21.554   4.440  45.506  1.00  8.33 LIG 0.01  A 
ENDBRANCH 7 8
ENDBRANCH 6 7
BRANCH 6 14
ATOM     14  N   PHE C   1      22.344   2.711  49.901  1.00 11.54 LIG-0.35  N 
ATOM     15 H    PHE C   1      23.102   2.330  50.038  1.00 11.54 LIG 0.16  HD
ATOM     16  C   ACE C   0      21.624   3.240  50.878  1.00 13.21 LIG 0.21  C 
ATOM     17  CH3 ACE C   0      22.051   3.001  52.297  1.00 13.47 LIG 0.12  C 
ATOM     18 O    ACE C   0      20.531   3.712  50.568  1.00 14.75 LIG-0.27  OA
ENDBRANCH 6 14
ENDBRANCH 4 6
ENDBRANCH 1 2
BRANCH 1 19
ATOM     19  C   HIS C   2      22.955  -0.794  46.158  1.00 11.19 LIG 0.24  C 
ATOM     20  N   THR C   3      21.771  -1.104  46.668  1.00 11.67 LIG-0.34  N 
ATOM     21 H    THR C   3      21.105  -0.563  46.721  1.00 11.67 LIG 0.16  HD
ATOM     22 O    HIS C   2      23.887  -1.592  46.113  1.00 11.10 LIG-0.27  OA
BRANCH 20 23
ATOM     23  CA  THR C   3      21.523  -2.432  47.190  1.00 11.71 LIG 0.20  C 
BRANCH 23 24
ATOM     24  CB  THR C   3      21.216  -3.453  46.062  1.00 13.34 LIG 0.15  C 
ATOM     25  CG2 THR C   3      20.133  -4.424  46.464  1.00 14.42 LIG 0.04  C 
BRANCH 24 26
ATOM     26 OG1  THR C   3      20.789  -2.738  44.906  1.00 13.01 LIG-0.39  OA
ATOM     27 HG1  THR C   3      21.132  -3.082  44.221  1.00 13.01 LIG 0.21  HD
ENDBRANCH 24 26
ENDBRANCH 23 24
BRANCH 23 28
ATOM     28  C   THR C   3      22.702  -2.896  48.060  1.00 11.33 LIG 0.24  C 
ATOM     29  N   ALA C   4      23.168  -2.020  48.948  1.00 10.31 LIG-0.35  N 
ATOM     30 H    ALA C   4      22.936  -1.193  48.984  1.00 10.31 LIG 0.16  HD
ATOM     31 O    THR C   3      23.181  -4.029  47.929  1.00 11.88 LIG-0.27  OA
BRANCH 29 32
ATOM     32  CA  ALA C   4      24.143  -2.429  49.952  1.00 10.35 LIG 0.18  C 
ATOM     33  CB  ALA C   4      25.565  -2.394  49.374  1.00 10.31 LIG 0.04  C 
BRANCH 32 34
ATOM     34  C   ALA C   4      24.033  -1.554  51.226  1.00 10.99 LIG 0.28  C 
ATOM     35 O    ALA C   4      23.538  -0.433  51.176  0.79 11.43 LIG-0.27  OA
ATOM     36  N   NH2 C   5      24.490  -2.076  52.360  0.91 10.97 LIG-0.11  N 
ENDBRANCH 32 34
ENDBRANCH 29 32
ENDBRANCH 23 28
ENDBRANCH 20 23
ENDBRANCH 1 19
BRANCH 1 37
ATOM     37  CB  HIS C   2      24.577   0.895  45.500  1.00 14.08 LIG 0.10  C 
BRANCH 37 38
ATOM     38  CG  HIS C   2      24.891   2.213  44.889  1.00 15.42 LIG 0.06  A 
ATOM     39  CD2 HIS C   2      25.992   2.986  44.998  1.00 15.59 LIG 0.14  A 
ATOM     40 NE2  HIS C   2      25.778   4.109  44.234  1.00 17.02 LIG-0.25  NA
ATOM     41  CE1 HIS C   2      24.586   4.023  43.673  1.00 16.99 LIG 0.23  A 
ATOM     42 ND1  HIS C   2      24.027   2.889  44.055  0.48 15.92 LIG-0.24  NA
ENDBRANCH 37 38
ENDBRANCH 1 37
TORSDOF 14
ENDMDL
MODEL 98
USER: ADFR SOLUTION from run 150
USER: SCORE 12.271640 LL:  -3.298 LR:  -9.942 RR:   0.000 FEB:  -5.766
USER: RMSD 7.809660
USER: SEED 149
USER: STATUS no improvement in best in 12 clusters for 5 generations
USER: GENES 16
USER: genes 0 Translation |==|  0.40411 0.40735 0.65496
USER: genes 1 Rotation |==|  0.66440 0.61472 0.06636 0.64754
USER: genes 2 Torsion [C]-CA--N-[C] |==|  0.84054
USER: genes 3 Torsion [N]-C--CA-[N] |==|  0.98146
USER: genes 4 Torsion [C]-CA--CB-[CG] |==|  0.06574
USER: genes 5 Torsion [CA]-CB--CG-[CD2] |==|  0.22612
USER: genes 6 Torsion [C]-CA--N-[C] |==|  0.77129
USER: genes 7 Torsion [N]-CA--C-[N] |==|  0.42972
USER: genes 8 Torsion [C]-N--CA-[CB] |==|  0.25556
USER: genes 9 Torsion [N]-CA--CB-[CG2] |==|  0.02915
USER: genes 10 Torsion [CA]-CB--OG1-[HG1] |==|  0.54225
USER: genes 11 Torsion [N]-CA--C-[N] |==|  0.96288
USER: genes 12 Torsion [C]-N--CA-[C] |==|  0.81680
USER: genes 13 Torsion [N]-CA--C-[N] |==|  0.37837
USER: genes 14 Torsion [N]-CA--CB-[CG] |==|  0.56446
USER: genes 15 Torsion [CA]-CB--CG-[ND1] |==|  0.12616
ROOT
ATOM      1  CA  HIS C   2      22.907   1.058  46.065  1.00 11.69 LIG 0.18  C 
ENDROOT
BRANCH 1 2
ATOM      2  N   HIS C   2      23.351   2.171  45.226  1.00 10.87 LIG-0.35  N 
ATOM      3 H    HIS C   2      23.744   1.941  44.497  1.00 10.87 LIG 0.16  HD
ATOM      4  C   PHE C   1      23.141   3.428  45.600  1.00 11.47 LIG 0.24  C 
ATOM      5 O    PHE C   1      22.457   3.732  46.594  1.00 12.97 LIG-0.27  OA
BRANCH 4 6
ATOM      6  CA  PHE C   1      23.758   4.502  44.701  1.00 11.05 LIG 0.18  C 
BRANCH 6 7
ATOM      7  CB  PHE C   1      22.656   5.347  44.053  1.00 10.09 LIG 0.07  C 
BRANCH 7 8
ATOM      8  CG  PHE C   1      21.368   5.340  44.819  1.00  8.73 LIG-0.06  A 
ATOM      9  CD2 PHE C   1      21.193   6.162  45.908  1.00  8.91 LIG 0.01  A 
ATOM     10  CE2 PHE C   1      20.007   6.139  46.612  1.00  8.44 LIG 0.00  A 
ATOM     11  CZ  PHE C   1      18.995   5.278  46.234  1.00  8.32 LIG 0.00  A 
ATOM     12  CE1 PHE C   1      19.160   4.460  45.138  1.00  8.07 LIG 0.00  A 
ATOM     13  CD1 PHE C   1      20.347   4.483  44.448  1.00  8.33 LIG 0.01  A 
ENDBRANCH 7 8
ENDBRANCH 6 7
BRANCH 6 14
ATOM     14  N   PHE C   1      24.594   3.909  43.681  1.00 11.54 LIG-0.35  N 
ATOM     15 H    PHE C   1      24.194   3.819  42.926  1.00 11.54 LIG 0.16  HD
ATOM     16  C   ACE C   0      25.849   3.536  43.874  1.00 13.21 LIG 0.21  C 
ATOM     17  CH3 ACE C   0      26.541   2.756  42.794  1.00 13.47 LIG 0.12  C 
ATOM     18 O    ACE C   0      26.298   3.665  45.012  1.00 14.75 LIG-0.27  OA
ENDBRANCH 6 14
ENDBRANCH 4 6
ENDBRANCH 1 2
BRANCH 1 19
ATOM     19  C   HIS C   2      23.546   1.209  47.418  1.00 11.19 LIG 0.24  C 
ATOM     20  N   THR C   3      22.908   0.648  48.436  1.00 11.67 LIG-0.34  N 
ATOM     21 H    THR C   3      22.148   0.250  48.376  1.00 11.67 LIG 0.16  HD
ATOM     22 O    HIS C   2      24.625   1.781  47.547  1.00 11.10 LIG-0.27  OA
BRANCH 20 23
ATOM     23  CA  THR C   3      23.480   0.678  49.766  1.00 11.71 LIG 0.20  C 
BRANCH 23 24
ATOM     24  CB  THR C   3      22.998   1.907  50.581  1.00 13.34 LIG 0.15  C 
ATOM     25  CG2 THR C   3      21.866   2.628  49.892  1.00 14.42 LIG 0.04  C 
BRANCH 24 26
ATOM     26 OG1  THR C   3      22.551   1.459  51.858  1.00 13.01 LIG-0.39  OA
ATOM     27 HG1  THR C   3      22.102   2.066  52.226  1.00 13.01 LIG 0.21  HD
ENDBRANCH 24 26
ENDBRANCH 23 24
BRANCH 23 28
ATOM     28  C   THR C   3      23.185  -0.636  50.506  1.00 11.33 LIG 0.24  C 
ATOM     29  N   ALA C   4      22.266  -1.433  49.964  1.00 10.31 LIG-0.35  N 
ATOM     30 H    ALA C   4      21.756  -1.212  49.308  1.00 10.31 LIG 0.16  HD
ATOM     31 O    THR C   3      23.782  -0.924  51.552  1.00 11.88 LIG-0.27  OA
BRANCH 29 32
ATOM     32  CA  ALA C   4      22.062  -2.784  50.473  1.00 10.35 LIG 0.18  C 
ATOM     33  CB  ALA C   4      20.798  -3.407  49.863  1.00 10.31 LIG 0.04  C 
BRANCH 32 34
ATOM     34  C   ALA C   4      23.306  -3.672  50.216  1.00 10.99 LIG 0.28  C 
ATOM     35 O    ALA C   4      23.887  -3.640  49.137  0.79 11.43 LIG-0.27  OA
ATOM     36  N   NH2 C   5      23.709  -4.452  51.214  0.91 10.97 LIG-0.11  N 
ENDBRANCH 32 34
ENDBRANCH 29 32
ENDBRANCH 23 28
ENDBRANCH 20 23
ENDBRANCH 1 19
BRANCH 1 37
ATOM     37  CB  HIS C   2      23.351  -0.288  45.511  1.00 14.08 LIG 0.10  C 
BRANCH 37 38
ATOM     38  CG  HIS C   2      22.519  -1.433  45.965  1.00 15.42 LIG 0.06  A 
ATOM     39  CD2 HIS C   2      22.881  -2.648  46.425  1.00 15.59 LIG 0.14  A 
ATOM     40 NE2  HIS C   2      21.726  -3.337  46.708  1.00 17.02 LIG-0.25  NA
ATOM     41  CE1 HIS C   2      20.691  -2.565  46.436  1.00 16.99 LIG 0.23  A 
ATOM     42 ND1  HIS C   2      21.141  -1.409  45.982  0.48 15.92 LIG-0.24  NA
ENDBRANCH 37 38
ENDBRANCH 1 37
TORSDOF 14
ENDMDL
MODEL 99
USER: ADFR SOLUTION from run 32
USER: SCORE 11.918626 LL:  -2.681 LR:  -9.940 RR:   0.000 FEB:  -5.764
USER: RMSD 10.378517
USER: SEED 31
USER: STATUS no improvement in best in 22 clusters for 5 generations
USER: GENES 16
USER: genes 0 Translation |==|  0.54311 0.26369 0.31085
USER: genes 1 Rotation |==|  0.42506 0.09962 0.78965 0.51359
USER: genes 2 Torsion [C]-CA--N-[C] |==|  0.17416
USER: genes 3 Torsion [N]-C--CA-[N] |==|  0.15556
USER: genes 4 Torsion [C]-CA--CB-[CG] |==|  0.34772
USER: genes 5 Torsion [CA]-CB--CG-[CD2] |==|  0.12885
USER: genes 6 Torsion [C]-CA--N-[C] |==|  0.76065
USER: genes 7 Torsion [N]-CA--C-[N] |==|  0.12120
USER: genes 8 Torsion [C]-N--CA-[CB] |==|  0.82962
USER: genes 9 Torsion [N]-CA--CB-[CG2] |==|  0.64219
USER: genes 10 Torsion [CA]-CB--OG1-[HG1] |==|  0.37689
USER: genes 11 Torsion [N]-CA--C-[N] |==|  0.44232
USER: genes 12 Torsion [C]-N--CA-[C] |==|  0.78189
USER: genes 13 Torsion [N]-CA--C-[N] |==|  0.95824
USER: genes 14 Torsion [N]-CA--CB-[CG] |==|  0.72534
USER: genes 15 Torsion [CA]-CB--CG-[ND1] |==|  0.69805
ROOT
ATOM      1  CA  HIS C   2      25.618  -1.312  39.097  1.00 11.69 LIG 0.18  C 
ENDROOT
BRANCH 1 2
ATOM      2  N   HIS C   2      25.932  -0.123  39.888  1.00 10.87 LIG-0.35  N 
ATOM      3 H    HIS C   2      25.463  -0.029  40.602  1.00 10.87 LIG 0.16  HD
ATOM      4  C   PHE C   1      26.879   0.722  39.495  1.00 11.47 LIG 0.24  C 
ATOM      5 O    PHE C   1      27.629   0.495  38.528  1.00 12.97 LIG-0.27  OA
BRANCH 4 6
ATOM      6  CA  PHE C   1      27.032   1.990  40.339  1.00 11.05 LIG 0.18  C 
BRANCH 6 7
ATOM      7  CB  PHE C   1      28.181   2.849  39.802  1.00 10.09 LIG 0.07  C 
BRANCH 7 8
ATOM      8  CG  PHE C   1      27.777   4.256  39.483  1.00  8.73 LIG-0.06  A 
ATOM      9  CD2 PHE C   1      27.021   4.988  40.368  1.00  8.91 LIG 0.01  A 
ATOM     10  CE2 PHE C   1      26.645   6.279  40.059  1.00  8.44 LIG 0.00  A 
ATOM     11  CZ  PHE C   1      27.016   6.837  38.851  1.00  8.32 LIG 0.00  A 
ATOM     12  CE1 PHE C   1      27.782   6.113  37.965  1.00  8.07 LIG 0.00  A 
ATOM     13  CD1 PHE C   1      28.144   4.826  38.277  1.00  8.33 LIG 0.01  A 
ENDBRANCH 7 8
ENDBRANCH 6 7
BRANCH 6 14
ATOM     14  N   PHE C   1      27.263   1.664  41.729  1.00 11.54 LIG-0.35  N 
ATOM     15 H    PHE C   1      28.097   1.632  41.935  1.00 11.54 LIG 0.16  HD
ATOM     16  C   ACE C   0      26.300   1.434  42.608  1.00 13.21 LIG 0.21  C 
ATOM     17  CH3 ACE C   0      26.675   0.916  43.966  1.00 13.47 LIG 0.12  C 
ATOM     18 O    ACE C   0      25.145   1.456  42.185  1.00 14.75 LIG-0.27  OA
ENDBRANCH 6 14
ENDBRANCH 4 6
ENDBRANCH 1 2
BRANCH 1 19
ATOM     19  C   HIS C   2      26.840  -2.188  39.062  1.00 11.19 LIG 0.24  C 
ATOM     20  N   THR C   3      27.487  -2.342  40.209  1.00 11.67 LIG-0.34  N 
ATOM     21 H    THR C   3      27.277  -1.947  40.945  1.00 11.67 LIG 0.16  HD
ATOM     22 O    HIS C   2      27.178  -2.760  38.029  1.00 11.10 LIG-0.27  OA
BRANCH 20 23
ATOM     23  CA  THR C   3      28.633  -3.223  40.292  1.00 11.71 LIG 0.20  C 
BRANCH 23 24
ATOM     24  CB  THR C   3      28.264  -4.692  39.956  1.00 13.34 LIG 0.15  C 
ATOM     25  CG2 THR C   3      28.746  -5.649  41.019  1.00 14.42 LIG 0.04  C 
BRANCH 24 26
ATOM     26 OG1  THR C   3      26.847  -4.792  39.853  1.00 13.01 LIG-0.39  OA
ATOM     27 HG1  THR C   3      26.646  -5.249  39.177  1.00 13.01 LIG 0.21  HD
ENDBRANCH 24 26
ENDBRANCH 23 24
BRANCH 23 28
ATOM     28  C   THR C   3      29.769  -2.710  39.395  1.00 11.33 LIG 0.24  C 
ATOM     29  N   ALA C   4      30.996  -3.145  39.678  1.00 10.31 LIG-0.35  N 
ATOM     30 H    ALA C   4      31.204  -3.589  40.384  1.00 10.31 LIG 0.16  HD
ATOM     31 O    THR C   3      29.539  -1.933  38.459  1.00 11.88 LIG-0.27  OA
BRANCH 29 32
ATOM     32  CA  ALA C   4      32.105  -2.881  38.769  1.00 10.35 LIG 0.18  C 
ATOM     33  CB  ALA C   4      33.445  -2.956  39.515  1.00 10.31 LIG 0.04  C 
BRANCH 32 34
ATOM     34  C   ALA C   4      32.080  -3.852  37.561  1.00 10.99 LIG 0.28  C 
ATOM     35 O    ALA C   4      32.756  -3.628  36.563  0.79 11.43 LIG-0.27  OA
ATOM     36  N   NH2 C   5      31.306  -4.927  37.665  0.91 10.97 LIG-0.11  N 
ENDBRANCH 32 34
ENDBRANCH 29 32
ENDBRANCH 23 28
ENDBRANCH 20 23
ENDBRANCH 1 19
BRANCH 1 37
ATOM     37  CB  HIS C   2      25.277  -0.966  37.654  1.00 14.08 LIG 0.10  C 
BRANCH 37 38
ATOM     38  CG  HIS C   2      23.819  -0.912  37.374  1.00 15.42 LIG 0.06  A 
ATOM     39  CD2 HIS C   2      22.889  -0.009  37.751  1.00 15.59 LIG 0.14  A 
ATOM     40 NE2  HIS C   2      21.687  -0.420  37.228  1.00 17.02 LIG-0.25  NA
ATOM     41  CE1 HIS C   2      21.876  -1.536  36.548  1.00 16.99 LIG 0.23  A 
ATOM     42 ND1  HIS C   2      23.155  -1.858  36.622  0.48 15.92 LIG-0.24  NA
ENDBRANCH 37 38
ENDBRANCH 1 37
TORSDOF 14
ENDMDL
MODEL 100
USER: ADFR SOLUTION from run 166
USER: SCORE 12.561442 LL:  -3.490 LR:  -9.942 RR:   0.000 FEB:  -5.766
USER: RMSD 7.119938
USER: SEED 165
USER: STATUS no improvement in best in 14 clusters for 5 generations
USER: GENES 16
USER: genes 0 Translation |==|  0.43661 0.38386 0.68161
USER: genes 1 Rotation |==|  0.36938 0.76267 0.48442 0.90460
USER: genes 2 Torsion [C]-CA--N-[C] |==|  0.64444
USER: genes 3 Torsion [N]-C--CA-[N] |==|  0.42361
USER: genes 4 Torsion [C]-CA--CB-[CG] |==|  0.90766
USER: genes 5 Torsion [CA]-CB--CG-[CD2] |==|  0.80743
USER: genes 6 Torsion [C]-CA--N-[C] |==|  0.57869
USER: genes 7 Torsion [N]-CA--C-[N] |==|  0.02771
USER: genes 8 Torsion [C]-N--CA-[CB] |==|  0.86374
USER: genes 9 Torsion [N]-CA--CB-[CG2] |==|  0.42604
USER: genes 10 Torsion [CA]-CB--OG1-[HG1] |==|  0.33865
USER: genes 11 Torsion [N]-CA--C-[N] |==|  0.91004
USER: genes 12 Torsion [C]-N--CA-[C] |==|  0.69768
USER: genes 13 Torsion [N]-CA--C-[N] |==|  0.38933
USER: genes 14 Torsion [N]-CA--CB-[CG] |==|  0.74872
USER: genes 15 Torsion [CA]-CB--CG-[ND1] |==|  0.50084
ROOT
ATOM      1  CA  HIS C   2      23.541   0.671  46.605  1.00 11.69 LIG 0.18  C 
ENDROOT
BRANCH 1 2
ATOM      2  N   HIS C   2      22.350  -0.148  46.382  1.00 10.87 LIG-0.35  N 
ATOM      3 H    HIS C   2      21.603   0.270  46.463  1.00 10.87 LIG 0.16  HD
ATOM      4  C   PHE C   1      22.459  -1.436  46.080  1.00 11.47 LIG 0.24  C 
ATOM      5 O    PHE C   1      23.550  -1.985  45.842  1.00 12.97 LIG-0.27  OA
BRANCH 4 6
ATOM      6  CA  PHE C   1      21.143  -2.213  45.991  1.00 11.05 LIG 0.18  C 
BRANCH 6 7
ATOM      7  CB  PHE C   1      20.721  -2.701  47.381  1.00 10.09 LIG 0.07  C 
BRANCH 7 8
ATOM      8  CG  PHE C   1      21.877  -3.043  48.271  1.00  8.73 LIG-0.06  A 
ATOM      9  CD2 PHE C   1      22.663  -4.142  48.012  1.00  8.91 LIG 0.01  A 
ATOM     10  CE2 PHE C   1      23.718  -4.454  48.844  1.00  8.44 LIG 0.00  A 
ATOM     11  CZ  PHE C   1      23.980  -3.671  49.951  1.00  8.32 LIG 0.00  A 
ATOM     12  CE1 PHE C   1      23.203  -2.563  50.211  1.00  8.07 LIG 0.00  A 
ATOM     13  CD1 PHE C   1      22.150  -2.265  49.382  1.00  8.33 LIG 0.01  A 
ENDBRANCH 7 8
ENDBRANCH 6 7
BRANCH 6 14
ATOM     14  N   PHE C   1      21.262  -3.335  45.086  1.00 11.54 LIG-0.35  N 
ATOM     15 H    PHE C   1      22.062  -3.645  45.034  1.00 11.54 LIG 0.16  HD
ATOM     16  C   ACE C   0      20.253  -3.845  44.399  1.00 13.21 LIG 0.21  C 
ATOM     17  CH3 ACE C   0      20.546  -4.878  43.350  1.00 13.47 LIG 0.12  C 
ATOM     18 O    ACE C   0      19.163  -3.285  44.514  1.00 14.75 LIG-0.27  OA
ENDBRANCH 6 14
ENDBRANCH 4 6
ENDBRANCH 1 2
BRANCH 1 19
ATOM     19  C   HIS C   2      23.386   1.374  47.925  1.00 11.19 LIG 0.24  C 
ATOM     20  N   THR C   3      22.373   0.980  48.686  1.00 11.67 LIG-0.34  N 
ATOM     21 H    THR C   3      21.790   0.391  48.456  1.00 11.67 LIG 0.16  HD
ATOM     22 O    HIS C   2      24.191   2.229  48.284  1.00 11.10 LIG-0.27  OA
BRANCH 20 23
ATOM     23  CA  THR C   3      22.184   1.547  50.005  1.00 11.71 LIG 0.20  C 
BRANCH 23 24
ATOM     24  CB  THR C   3      23.493   1.534  50.838  1.00 13.34 LIG 0.15  C 
ATOM     25  CG2 THR C   3      23.510   2.630  51.875  1.00 14.42 LIG 0.04  C 
BRANCH 24 26
ATOM     26 OG1  THR C   3      23.601   0.275  51.496  1.00 13.01 LIG-0.39  OA
ATOM     27 HG1  THR C   3      24.318  -0.099  51.269  1.00 13.01 LIG 0.21  HD
ENDBRANCH 24 26
ENDBRANCH 23 24
BRANCH 23 28
ATOM     28  C   THR C   3      21.599   2.964  49.901  1.00 11.33 LIG 0.24  C 
ATOM     29  N   ALA C   4      21.959   3.682  48.839  1.00 10.31 LIG-0.35  N 
ATOM     30 H    ALA C   4      22.573   3.453  48.283  1.00 10.31 LIG 0.16  HD
ATOM     31 O    THR C   3      20.833   3.400  50.770  1.00 11.88 LIG-0.27  OA
BRANCH 29 32
ATOM     32  CA  ALA C   4      21.305   4.951  48.545  1.00 10.35 LIG 0.18  C 
ATOM     33  CB  ALA C   4      22.344   6.068  48.372  1.00 10.31 LIG 0.04  C 
BRANCH 32 34
ATOM     34  C   ALA C   4      20.393   4.834  47.297  1.00 10.99 LIG 0.28  C 
ATOM     35 O    ALA C   4      20.746   4.178  46.323  0.79 11.43 LIG-0.27  OA
ATOM     36  N   NH2 C   5      19.225   5.466  47.340  0.91 10.97 LIG-0.11  N 
ENDBRANCH 32 34
ENDBRANCH 29 32
ENDBRANCH 23 28
ENDBRANCH 20 23
ENDBRANCH 1 19
BRANCH 1 37
ATOM     37  CB  HIS C   2      23.700   1.749  45.543  1.00 14.08 LIG 0.10  C 
BRANCH 37 38
ATOM     38  CG  HIS C   2      24.503   1.325  44.366  1.00 15.42 LIG 0.06  A 
ATOM     39  CD2 HIS C   2      25.098   0.145  44.094  1.00 15.59 LIG 0.14  A 
ATOM     40 NE2  HIS C   2      25.716   0.273  42.873  1.00 17.02 LIG-0.25  NA
ATOM     41  CE1 HIS C   2      25.501   1.491  42.411  1.00 16.99 LIG 0.23  A 
ATOM     42 ND1  HIS C   2      24.773   2.149  43.295  0.48 15.92 LIG-0.24  NA
ENDBRANCH 37 38
ENDBRANCH 1 37
TORSDOF 14
ENDMDL
MODEL 101
USER: ADFR SOLUTION from run 107
USER: SCORE 11.623742 LL:  -2.790 LR:  -9.945 RR:   0.000 FEB:  -5.769
USER: RMSD 10.077097
USER: SEED 106
USER: STATUS no improvement in best in 18 clusters for 5 generations
USER: GENES 16
USER: genes 0 Translation |==|  0.54082 0.31755 0.37600
USER: genes 1 Rotation |==|  0.58469 0.90198 0.21756 0.53834
USER: genes 2 Torsion [C]-CA--N-[C] |==|  0.81055
USER: genes 3 Torsion [N]-C--CA-[N] |==|  0.92781
USER: genes 4 Torsion [C]-CA--CB-[CG] |==|  0.24097
USER: genes 5 Torsion [CA]-CB--CG-[CD2] |==|  0.39075
USER: genes 6 Torsion [C]-CA--N-[C] |==|  0.77449
USER: genes 7 Torsion [N]-CA--C-[N] |==|  0.46419
USER: genes 8 Torsion [C]-N--CA-[CB] |==|  0.47110
USER: genes 9 Torsion [N]-CA--CB-[CG2] |==|  0.67023
USER: genes 10 Torsion [CA]-CB--OG1-[HG1] |==|  0.40433
USER: genes 11 Torsion [N]-CA--C-[N] |==|  0.43265
USER: genes 12 Torsion [C]-N--CA-[C] |==|  0.76536
USER: genes 13 Torsion [N]-CA--C-[N] |==|  0.98193
USER: genes 14 Torsion [N]-CA--CB-[CG] |==|  0.70640
USER: genes 15 Torsion [CA]-CB--CG-[ND1] |==|  0.65750
ROOT
ATOM      1  CA  HIS C   2      25.573  -0.423  40.416  1.00 11.69 LIG 0.18  C 
ENDROOT
BRANCH 1 2
ATOM      2  N   HIS C   2      25.623   0.787  41.236  1.00 10.87 LIG-0.35  N 
ATOM      3 H    HIS C   2      25.679   1.522  40.793  1.00 10.87 LIG 0.16  HD
ATOM      4  C   PHE C   1      25.583   0.710  42.561  1.00 11.47 LIG 0.24  C 
ATOM      5 O    PHE C   1      25.372  -0.354  43.171  1.00 12.97 LIG-0.27  OA
BRANCH 4 6
ATOM      6  CA  PHE C   1      25.766   2.032  43.310  1.00 11.05 LIG 0.18  C 
BRANCH 6 7
ATOM      7  CB  PHE C   1      24.402   2.627  43.677  1.00 10.09 LIG 0.07  C 
BRANCH 7 8
ATOM      8  CG  PHE C   1      23.859   2.119  44.978  1.00  8.73 LIG-0.06  A 
ATOM      9  CD2 PHE C   1      23.202   2.963  45.843  1.00  8.91 LIG 0.01  A 
ATOM     10  CE2 PHE C   1      22.716   2.488  47.043  1.00  8.44 LIG 0.00  A 
ATOM     11  CZ  PHE C   1      22.900   1.163  47.388  1.00  8.32 LIG 0.00  A 
ATOM     12  CE1 PHE C   1      23.548   0.310  46.521  1.00  8.07 LIG 0.00  A 
ATOM     13  CD1 PHE C   1      24.035   0.793  45.333  1.00  8.33 LIG 0.01  A 
ENDBRANCH 7 8
ENDBRANCH 6 7
BRANCH 6 14
ATOM     14  N   PHE C   1      26.523   2.977  42.520  1.00 11.54 LIG-0.35  N 
ATOM     15 H    PHE C   1      26.029   3.549  42.111  1.00 11.54 LIG 0.16  HD
ATOM     16  C   ACE C   0      27.843   2.976  42.425  1.00 13.21 LIG 0.21  C 
ATOM     17  CH3 ACE C   0      28.493   3.883  41.420  1.00 13.47 LIG 0.12  C 
ATOM     18 O    ACE C   0      28.442   2.076  43.014  1.00 14.75 LIG-0.27  OA
ENDBRANCH 6 14
ENDBRANCH 4 6
ENDBRANCH 1 2
BRANCH 1 19
ATOM     19  C   HIS C   2      26.852  -1.186  40.629  1.00 11.19 LIG 0.24  C 
ATOM     20  N   THR C   3      26.876  -2.432  40.176  1.00 11.67 LIG-0.34  N 
ATOM     21 H    THR C   3      26.206  -2.834  39.815  1.00 11.67 LIG 0.16  HD
ATOM     22 O    HIS C   2      27.826  -0.652  41.151  1.00 11.10 LIG-0.27  OA
BRANCH 20 23
ATOM     23  CA  THR C   3      28.086  -3.223  40.270  1.00 11.71 LIG 0.20  C 
BRANCH 23 24
ATOM     24  CB  THR C   3      27.834  -4.716  39.928  1.00 13.34 LIG 0.15  C 
ATOM     25  CG2 THR C   3      28.152  -5.620  41.093  1.00 14.42 LIG 0.04  C 
BRANCH 24 26
ATOM     26 OG1  THR C   3      26.463  -4.877  39.579  1.00 13.01 LIG-0.39  OA
ATOM     27 HG1  THR C   3      26.392  -5.465  38.983  1.00 13.01 LIG 0.21  HD
ENDBRANCH 24 26
ENDBRANCH 23 24
BRANCH 23 28
ATOM     28  C   THR C   3      29.189  -2.622  39.385  1.00 11.33 LIG 0.24  C 
ATOM     29  N   ALA C   4      30.445  -2.904  39.724  1.00 10.31 LIG-0.35  N 
ATOM     30 H    ALA C   4      30.676  -3.294  40.455  1.00 10.31 LIG 0.16  HD
ATOM     31 O    THR C   3      28.906  -1.914  38.410  1.00 11.88 LIG-0.27  OA
BRANCH 29 32
ATOM     32  CA  ALA C   4      31.549  -2.555  38.838  1.00 10.35 LIG 0.18  C 
ATOM     33  CB  ALA C   4      32.832  -2.303  39.645  1.00 10.31 LIG 0.04  C 
BRANCH 32 34
ATOM     34  C   ALA C   4      31.769  -3.647  37.761  1.00 10.99 LIG 0.28  C 
ATOM     35 O    ALA C   4      32.579  -3.481  36.856  0.79 11.43 LIG-0.27  OA
ATOM     36  N   NH2 C   5      31.050  -4.760  37.873  0.91 10.97 LIG-0.11  N 
ENDBRANCH 32 34
ENDBRANCH 29 32
ENDBRANCH 23 28
ENDBRANCH 20 23
ENDBRANCH 1 19
BRANCH 1 37
ATOM     37  CB  HIS C   2      25.488  -0.105  38.931  1.00 14.08 LIG 0.10  C 
BRANCH 37 38
ATOM     38  CG  HIS C   2      24.143  -0.334  38.339  1.00 15.42 LIG 0.06  A 
ATOM     39  CD2 HIS C   2      22.941   0.173  38.680  1.00 15.59 LIG 0.14  A 
ATOM     40 NE2  HIS C   2      22.014  -0.360  37.816  1.00 17.02 LIG-0.25  NA
ATOM     41  CE1 HIS C   2      22.632  -1.163  36.970  1.00 16.99 LIG 0.23  A 
ATOM     42 ND1  HIS C   2      23.919  -1.169  37.266  0.48 15.92 LIG-0.24  NA
ENDBRANCH 37 38
ENDBRANCH 1 37
TORSDOF 14
ENDMDL
MODEL 102
USER: ADFR SOLUTION from run 193
USER: SCORE 11.936844 LL:  -3.663 LR:  -9.931 RR:   0.000 FEB:  -5.754
USER: RMSD 9.484379
USER: SEED 192
USER: STATUS no improvement in best in 42 clusters for 5 generations
USER: GENES 16
USER: genes 0 Translation |==|  0.49394 0.33108 0.31824
USER: genes 1 Rotation |==|  0.53129 0.06396 0.73840 0.54535
USER: genes 2 Torsion [C]-CA--N-[C] |==|  0.77422
USER: genes 3 Torsion [N]-C--CA-[N] |==|  0.42444
USER: genes 4 Torsion [C]-CA--CB-[CG] |==|  0.27626
USER: genes 5 Torsion [CA]-CB--CG-[CD2] |==|  0.71507
USER: genes 6 Torsion [C]-CA--N-[C] |==|  0.69626
USER: genes 7 Torsion [N]-CA--C-[N] |==|  0.97297
USER: genes 8 Torsion [C]-N--CA-[CB] |==|  0.47637
USER: genes 9 Torsion [N]-CA--CB-[CG2] |==|  0.37464
USER: genes 10 Torsion [CA]-CB--OG1-[HG1] |==|  0.16993
USER: genes 11 Torsion [N]-CA--C-[N] |==|  0.93623
USER: genes 12 Torsion [C]-N--CA-[C] |==|  0.76669
USER: genes 13 Torsion [N]-CA--C-[N] |==|  0.93908
USER: genes 14 Torsion [N]-CA--CB-[CG] |==|  0.51076
USER: genes 15 Torsion [CA]-CB--CG-[ND1] |==|  0.25974
ROOT
ATOM      1  CA  HIS C   2      24.659  -0.200  39.246  1.00 11.69 LIG 0.18  C 
ENDROOT
BRANCH 1 2
ATOM      2  N   HIS C   2      24.943   0.818  40.257  1.00 10.87 LIG-0.35  N 
ATOM      3 H    HIS C   2      24.816   1.629  40.000  1.00 10.87 LIG 0.16  HD
ATOM      4  C   PHE C   1      25.364   0.473  41.468  1.00 11.47 LIG 0.24  C 
ATOM      5 O    PHE C   1      25.416  -0.708  41.854  1.00 12.97 LIG-0.27  OA
BRANCH 4 6
ATOM      6  CA  PHE C   1      25.744   1.630  42.396  1.00 11.05 LIG 0.18  C 
BRANCH 6 7
ATOM      7  CB  PHE C   1      27.192   2.060  42.141  1.00 10.09 LIG 0.07  C 
BRANCH 7 8
ATOM      8  CG  PHE C   1      27.311   3.273  41.271  1.00  8.73 LIG-0.06  A 
ATOM      9  CD2 PHE C   1      27.660   3.156  39.945  1.00  8.91 LIG 0.01  A 
ATOM     10  CE2 PHE C   1      27.777   4.281  39.156  1.00  8.44 LIG 0.00  A 
ATOM     11  CZ  PHE C   1      27.559   5.532  39.698  1.00  8.32 LIG 0.00  A 
ATOM     12  CE1 PHE C   1      27.200   5.656  41.022  1.00  8.07 LIG 0.00  A 
ATOM     13  CD1 PHE C   1      27.093   4.532  41.802  1.00  8.33 LIG 0.01  A 
ENDBRANCH 7 8
ENDBRANCH 6 7
BRANCH 6 14
ATOM     14  N   PHE C   1      25.571   1.261  43.783  1.00 11.54 LIG-0.35  N 
ATOM     15 H    PHE C   1      26.152   0.689  44.056  1.00 11.54 LIG 0.16  HD
ATOM     16  C   ACE C   0      24.622   1.744  44.568  1.00 13.21 LIG 0.21  C 
ATOM     17  CH3 ACE C   0      24.432   1.135  45.927  1.00 13.47 LIG 0.12  C 
ATOM     18 O    ACE C   0      23.815   2.517  44.053  1.00 14.75 LIG-0.27  OA
ENDBRANCH 6 14
ENDBRANCH 4 6
ENDBRANCH 1 2
BRANCH 1 19
ATOM     19  C   HIS C   2      25.962  -0.612  38.618  1.00 11.19 LIG 0.24  C 
ATOM     20  N   THR C   3      27.022   0.124  38.925  1.00 11.67 LIG-0.34  N 
ATOM     21 H    THR C   3      27.000   0.830  39.417  1.00 11.67 LIG 0.16  HD
ATOM     22 O    HIS C   2      26.031  -1.607  37.902  1.00 11.10 LIG-0.27  OA
BRANCH 20 23
ATOM     23  CA  THR C   3      28.333  -0.236  38.427  1.00 11.71 LIG 0.20  C 
BRANCH 23 24
ATOM     24  CB  THR C   3      29.390   0.861  38.723  1.00 13.34 LIG 0.15  C 
ATOM     25  CG2 THR C   3      30.675   0.275  39.254  1.00 14.42 LIG 0.04  C 
BRANCH 24 26
ATOM     26 OG1  THR C   3      29.667   1.562  37.514  1.00 13.01 LIG-0.39  OA
ATOM     27 HG1  THR C   3      28.965   1.928  37.235  1.00 13.01 LIG 0.21  HD
ENDBRANCH 24 26
ENDBRANCH 23 24
BRANCH 23 28
ATOM     28  C   THR C   3      28.766  -1.598  38.992  1.00 11.33 LIG 0.24  C 
ATOM     29  N   ALA C   4      28.186  -1.985  40.126  1.00 10.31 LIG-0.35  N 
ATOM     30 H    ALA C   4      27.684  -1.484  40.612  1.00 10.31 LIG 0.16  HD
ATOM     31 O    THR C   3      29.612  -2.288  38.408  1.00 11.88 LIG-0.27  OA
BRANCH 29 32
ATOM     32  CA  ALA C   4      28.375  -3.340  40.631  1.00 10.35 LIG 0.18  C 
ATOM     33  CB  ALA C   4      28.249  -3.370  42.161  1.00 10.31 LIG 0.04  C 
BRANCH 32 34
ATOM     34  C   ALA C   4      27.382  -4.328  39.967  1.00 10.99 LIG 0.28  C 
ATOM     35 O    ALA C   4      27.617  -5.531  39.943  0.79 11.43 LIG-0.27  OA
ATOM     36  N   NH2 C   5      26.277  -3.811  39.439  0.91 10.97 LIG-0.11  N 
ENDBRANCH 32 34
ENDBRANCH 29 32
ENDBRANCH 23 28
ENDBRANCH 20 23
ENDBRANCH 1 19
BRANCH 1 37
ATOM     37  CB  HIS C   2      23.776   0.334  38.128  1.00 14.08 LIG 0.10  C 
BRANCH 37 38
ATOM     38  CG  HIS C   2      23.385  -0.690  37.124  1.00 15.42 LIG 0.06  A 
ATOM     39  CD2 HIS C   2      24.024  -1.113  36.014  1.00 15.59 LIG 0.14  A 
ATOM     40 NE2  HIS C   2      23.236  -2.078  35.433  1.00 17.02 LIG-0.25  NA
ATOM     41  CE1 HIS C   2      22.152  -2.243  36.168  1.00 16.99 LIG 0.23  A 
ATOM     42 ND1  HIS C   2      22.215  -1.415  37.195  0.48 15.92 LIG-0.24  NA
ENDBRANCH 37 38
ENDBRANCH 1 37
TORSDOF 14
ENDMDL
MODEL 103
USER: ADFR SOLUTION from run 195
USER: SCORE 12.078941 LL:  -4.078 LR:  -9.930 RR:   0.000 FEB:  -5.754
USER: RMSD 6.498737
USER: SEED 194
USER: STATUS no improvement in best in 3 clusters for 5 generations
USER: GENES 16
USER: genes 0 Translation |==|  0.40668 0.34388 0.64873
USER: genes 1 Rotation |==|  0.73097 0.37884 0.12511 0.70354
USER: genes 2 Torsion [C]-CA--N-[C] |==|  0.84866
USER: genes 3 Torsion [N]-C--CA-[N] |==|  0.30110
USER: genes 4 Torsion [C]-CA--CB-[CG] |==|  0.10832
USER: genes 5 Torsion [CA]-CB--CG-[CD2] |==|  0.68200
USER: genes 6 Torsion [C]-CA--N-[C] |==|  0.76030
USER: genes 7 Torsion [N]-CA--C-[N] |==|  0.43704
USER: genes 8 Torsion [C]-N--CA-[CB] |==|  0.83889
USER: genes 9 Torsion [N]-CA--CB-[CG2] |==|  0.55818
USER: genes 10 Torsion [CA]-CB--OG1-[HG1] |==|  0.94845
USER: genes 11 Torsion [N]-CA--C-[N] |==|  0.10769
USER: genes 12 Torsion [C]-N--CA-[C] |==|  0.66372
USER: genes 13 Torsion [N]-CA--C-[N] |==|  0.98493
USER: genes 14 Torsion [N]-CA--CB-[CG] |==|  0.63261
USER: genes 15 Torsion [CA]-CB--CG-[ND1] |==|  0.57212
ROOT
ATOM      1  CA  HIS C   2      22.957   0.011  45.939  1.00 11.69 LIG 0.18  C 
ENDROOT
BRANCH 1 2
ATOM      2  N   HIS C   2      24.111   0.282  45.081  1.00 10.87 LIG-0.35  N 
ATOM      3 H    HIS C   2      24.699  -0.345  45.058  1.00 10.87 LIG 0.16  HD
ATOM      4  C   PHE C   1      24.202   1.422  44.408  1.00 11.47 LIG 0.24  C 
ATOM      5 O    PHE C   1      23.279   2.254  44.358  1.00 12.97 LIG-0.27  OA
BRANCH 4 6
ATOM      6  CA  PHE C   1      25.511   1.641  43.644  1.00 11.05 LIG 0.18  C 
BRANCH 6 7
ATOM      7  CB  PHE C   1      26.098   3.015  43.980  1.00 10.09 LIG 0.07  C 
BRANCH 7 8
ATOM      8  CG  PHE C   1      25.947   3.393  45.422  1.00  8.73 LIG-0.06  A 
ATOM      9  CD2 PHE C   1      25.154   4.454  45.793  1.00  8.91 LIG 0.01  A 
ATOM     10  CE2 PHE C   1      25.032   4.800  47.122  1.00  8.44 LIG 0.00  A 
ATOM     11  CZ  PHE C   1      25.717   4.088  48.088  1.00  8.32 LIG 0.00  A 
ATOM     12  CE1 PHE C   1      26.505   3.018  47.725  1.00  8.07 LIG 0.00  A 
ATOM     13  CD1 PHE C   1      26.627   2.686  46.398  1.00  8.33 LIG 0.01  A 
ENDBRANCH 7 8
ENDBRANCH 6 7
BRANCH 6 14
ATOM     14  N   PHE C   1      25.304   1.525  42.217  1.00 11.54 LIG-0.35  N 
ATOM     15 H    PHE C   1      25.153   2.279  41.834  1.00 11.54 LIG 0.16  HD
ATOM     16  C   ACE C   0      25.342   0.381  41.552  1.00 13.21 LIG 0.21  C 
ATOM     17  CH3 ACE C   0      24.918   0.373  40.111  1.00 13.47 LIG 0.12  C 
ATOM     18 O    ACE C   0      25.515  -0.641  42.214  1.00 14.75 LIG-0.27  OA
ENDBRANCH 6 14
ENDBRANCH 4 6
ENDBRANCH 1 2
BRANCH 1 19
ATOM     19  C   HIS C   2      22.820   1.150  46.912  1.00 11.19 LIG 0.24  C 
ATOM     20  N   THR C   3      21.618   1.330  47.441  1.00 11.67 LIG-0.34  N 
ATOM     21 H    THR C   3      20.919   0.872  47.234  1.00 11.67 LIG 0.16  HD
ATOM     22 O    HIS C   2      23.791   1.834  47.225  1.00 11.10 LIG-0.27  OA
BRANCH 20 23
ATOM     23  CA  THR C   3      21.403   2.355  48.441  1.00 11.71 LIG 0.20  C 
BRANCH 23 24
ATOM     24  CB  THR C   3      22.319   2.160  49.680  1.00 13.34 LIG 0.15  C 
ATOM     25  CG2 THR C   3      21.777   2.871  50.895  1.00 14.42 LIG 0.04  C 
BRANCH 24 26
ATOM     26 OG1  THR C   3      22.411   0.767  49.962  1.00 13.01 LIG-0.39  OA
ATOM     27 HG1  THR C   3      21.777   0.363  49.587  1.00 13.01 LIG 0.21  HD
ENDBRANCH 24 26
ENDBRANCH 23 24
BRANCH 23 28
ATOM     28  C   THR C   3      21.581   3.751  47.826  1.00 11.33 LIG 0.24  C 
ATOM     29  N   ALA C   4      21.112   3.924  46.592  1.00 10.31 LIG-0.35  N 
ATOM     30 H    ALA C   4      20.828   3.289  46.086  1.00 10.31 LIG 0.16  HD
ATOM     31 O    THR C   3      22.136   4.659  48.459  1.00 11.88 LIG-0.27  OA
BRANCH 29 32
ATOM     32  CA  ALA C   4      21.049   5.255  46.001  1.00 10.35 LIG 0.18  C 
ATOM     33  CB  ALA C   4      21.996   5.358  44.797  1.00 10.31 LIG 0.04  C 
BRANCH 32 34
ATOM     34  C   ALA C   4      19.596   5.623  45.606  1.00 10.99 LIG 0.28  C 
ATOM     35 O    ALA C   4      19.327   6.740  45.178  0.79 11.43 LIG-0.27  OA
ATOM     36  N   NH2 C   5      18.674   4.676  45.745  0.91 10.97 LIG-0.11  N 
ENDBRANCH 32 34
ENDBRANCH 29 32
ENDBRANCH 23 28
ENDBRANCH 20 23
ENDBRANCH 1 19
BRANCH 1 37
ATOM     37  CB  HIS C   2      23.140  -1.256  46.761  1.00 14.08 LIG 0.10  C 
BRANCH 37 38
ATOM     38  CG  HIS C   2      21.970  -2.172  46.728  1.00 15.42 LIG 0.06  A 
ATOM     39  CD2 HIS C   2      21.010  -2.331  45.793  1.00 15.59 LIG 0.14  A 
ATOM     40 NE2  HIS C   2      20.157  -3.309  46.247  1.00 17.02 LIG-0.25  NA
ATOM     41  CE1 HIS C   2      20.585  -3.738  47.419  1.00 16.99 LIG 0.23  A 
ATOM     42 ND1  HIS C   2      21.677  -3.066  47.736  0.48 15.92 LIG-0.24  NA
ENDBRANCH 37 38
ENDBRANCH 1 37
TORSDOF 14
ENDMDL
MODEL 104
USER: ADFR SOLUTION from run 16
USER: SCORE 12.579744 LL:  -3.636 LR:  -9.934 RR:   0.000 FEB:  -5.758
USER: RMSD 9.848935
USER: SEED 523018
USER: STATUS no improvement in best in 25 clusters for 5 generations
USER: GENES 16
USER: genes 0 Translation |==|  0.32790 0.49187 0.74068
USER: genes 1 Rotation |==|  0.35474 0.02602 0.51940 0.56215
USER: genes 2 Torsion [C]-CA--N-[C] |==|  0.17702
USER: genes 3 Torsion [N]-C--CA-[N] |==|  0.38134
USER: genes 4 Torsion [C]-CA--CB-[CG] |==|  0.10976
USER: genes 5 Torsion [CA]-CB--CG-[CD2] |==|  0.22427
USER: genes 6 Torsion [C]-CA--N-[C] |==|  0.76480
USER: genes 7 Torsion [N]-CA--C-[N] |==|  0.13333
USER: genes 8 Torsion [C]-N--CA-[CB] |==|  0.23549
USER: genes 9 Torsion [N]-CA--CB-[CG2] |==|  0.63114
USER: genes 10 Torsion [CA]-CB--OG1-[HG1] |==|  0.75016
USER: genes 11 Torsion [N]-CA--C-[N] |==|  0.02472
USER: genes 12 Torsion [C]-N--CA-[C] |==|  0.75727
USER: genes 13 Torsion [N]-CA--C-[N] |==|  0.95294
USER: genes 14 Torsion [N]-CA--CB-[CG] |==|  0.58728
USER: genes 15 Torsion [CA]-CB--CG-[ND1] |==|  0.24525
ROOT
ATOM      1  CA  HIS C   2      21.421   2.453  47.801  1.00 11.69 LIG 0.18  C 
ENDROOT
BRANCH 1 2
ATOM      2  N   HIS C   2      21.670   2.131  49.206  1.00 10.87 LIG-0.35  N 
ATOM      3 H    HIS C   2      21.027   1.719  49.602  1.00 10.87 LIG 0.16  HD
ATOM      4  C   PHE C   1      22.815   2.468  49.786  1.00 11.47 LIG 0.24  C 
ATOM      5 O    PHE C   1      23.777   2.946  49.158  1.00 12.97 LIG-0.27  OA
BRANCH 4 6
ATOM      6  CA  PHE C   1      22.909   2.187  51.288  1.00 11.05 LIG 0.18  C 
BRANCH 6 7
ATOM      7  CB  PHE C   1      22.666   3.473  52.084  1.00 10.09 LIG 0.07  C 
BRANCH 7 8
ATOM      8  CG  PHE C   1      21.584   4.336  51.510  1.00  8.73 LIG-0.06  A 
ATOM      9  CD2 PHE C   1      20.259   4.060  51.756  1.00  8.91 LIG 0.01  A 
ATOM     10  CE2 PHE C   1      19.271   4.854  51.213  1.00  8.44 LIG 0.00  A 
ATOM     11  CZ  PHE C   1      19.608   5.924  50.407  1.00  8.32 LIG 0.00  A 
ATOM     12  CE1 PHE C   1      20.933   6.212  50.165  1.00  8.07 LIG 0.00  A 
ATOM     13  CD1 PHE C   1      21.910   5.411  50.703  1.00  8.33 LIG 0.01  A 
ENDBRANCH 7 8
ENDBRANCH 6 7
BRANCH 6 14
ATOM     14  N   PHE C   1      24.196   1.625  51.632  1.00 11.54 LIG-0.35  N 
ATOM     15 H    PHE C   1      24.762   2.214  51.901  1.00 11.54 LIG 0.16  HD
ATOM     16  C   ACE C   0      24.491   0.338  51.548  1.00 13.21 LIG 0.21  C 
ATOM     17  CH3 ACE C   0      25.918  -0.087  51.747  1.00 13.47 LIG 0.12  C 
ATOM     18 O    ACE C   0      23.618  -0.404  51.100  1.00 14.75 LIG-0.27  OA
ENDBRANCH 6 14
ENDBRANCH 4 6
ENDBRANCH 1 2
BRANCH 1 19
ATOM     19  C   HIS C   2      22.420   1.700  46.965  1.00 11.19 LIG 0.24  C 
ATOM     20  N   THR C   3      22.565   0.411  47.240  1.00 11.67 LIG-0.34  N 
ATOM     21 H    THR C   3      22.162   0.000  47.879  1.00 11.67 LIG 0.16  HD
ATOM     22 O    HIS C   2      23.022   2.254  46.049  1.00 11.10 LIG-0.27  OA
BRANCH 20 23
ATOM     23  CA  THR C   3      23.449  -0.413  46.443  1.00 11.71 LIG 0.20  C 
BRANCH 23 24
ATOM     24  CB  THR C   3      24.920  -0.331  46.930  1.00 13.34 LIG 0.15  C 
ATOM     25  CG2 THR C   3      25.879  -0.114  45.786  1.00 14.42 LIG 0.04  C 
BRANCH 24 26
ATOM     26 OG1  THR C   3      25.036   0.758  47.842  1.00 13.01 LIG-0.39  OA
ATOM     27 HG1  THR C   3      25.230   1.458  47.420  1.00 13.01 LIG 0.21  HD
ENDBRANCH 24 26
ENDBRANCH 23 24
BRANCH 23 28
ATOM     28  C   THR C   3      22.948  -1.866  46.414  1.00 11.33 LIG 0.24  C 
ATOM     29  N   ALA C   4      21.744  -2.092  46.936  1.00 10.31 LIG-0.35  N 
ATOM     30 H    ALA C   4      21.290  -1.513  47.382  1.00 10.31 LIG 0.16  HD
ATOM     31 O    THR C   3      23.642  -2.768  45.927  1.00 11.88 LIG-0.27  OA
BRANCH 29 32
ATOM     32  CA  ALA C   4      21.098  -3.389  46.776  1.00 10.35 LIG 0.18  C 
ATOM     33  CB  ALA C   4      20.211  -3.705  47.990  1.00 10.31 LIG 0.04  C 
BRANCH 32 34
ATOM     34  C   ALA C   4      20.285  -3.449  45.457  1.00 10.99 LIG 0.28  C 
ATOM     35 O    ALA C   4      19.924  -4.524  44.992  0.79 11.43 LIG-0.27  OA
ATOM     36  N   NH2 C   5      19.999  -2.291  44.870  0.91 10.97 LIG-0.11  N 
ENDBRANCH 32 34
ENDBRANCH 29 32
ENDBRANCH 23 28
ENDBRANCH 20 23
ENDBRANCH 1 19
BRANCH 1 37
ATOM     37  CB  HIS C   2      21.622   3.933  47.509  1.00 14.08 LIG 0.10  C 
BRANCH 37 38
ATOM     38  CG  HIS C   2      20.746   4.461  46.430  1.00 15.42 LIG 0.06  A 
ATOM     39  CD2 HIS C   2      20.961   4.563  45.102  1.00 15.59 LIG 0.14  A 
ATOM     40 NE2  HIS C   2      19.833   5.122  44.550  1.00 17.02 LIG-0.25  NA
ATOM     41  CE1 HIS C   2      18.956   5.350  45.509  1.00 16.99 LIG 0.23  A 
ATOM     42 ND1  HIS C   2      19.483   4.963  46.656  0.48 15.92 LIG-0.24  NA
ENDBRANCH 37 38
ENDBRANCH 1 37
TORSDOF 14
ENDMDL
MODEL 105
USER: ADFR SOLUTION from run 162
USER: SCORE 11.950653 LL:  -3.471 LR:  -9.929 RR:   0.000 FEB:  -5.753
USER: RMSD 9.359462
USER: SEED 161
USER: STATUS no improvement in best in 5 clusters for 5 generations
USER: GENES 16
USER: genes 0 Translation |==|  0.49467 0.29904 0.35278
USER: genes 1 Rotation |==|  0.47716 0.04028 0.69517 0.50689
USER: genes 2 Torsion [C]-CA--N-[C] |==|  0.15436
USER: genes 3 Torsion [N]-C--CA-[N] |==|  0.09875
USER: genes 4 Torsion [C]-CA--CB-[CG] |==|  0.21989
USER: genes 5 Torsion [CA]-CB--CG-[CD2] |==|  0.21890
USER: genes 6 Torsion [C]-CA--N-[C] |==|  0.65012
USER: genes 7 Torsion [N]-CA--C-[N] |==|  0.12953
USER: genes 8 Torsion [C]-N--CA-[CB] |==|  0.79878
USER: genes 9 Torsion [N]-CA--CB-[CG2] |==|  0.60669
USER: genes 10 Torsion [CA]-CB--OG1-[HG1] |==|  0.47817
USER: genes 11 Torsion [N]-CA--C-[N] |==|  0.12943
USER: genes 12 Torsion [C]-N--CA-[C] |==|  0.21629
USER: genes 13 Torsion [N]-CA--C-[N] |==|  0.07810
USER: genes 14 Torsion [N]-CA--CB-[CG] |==|  0.56461
USER: genes 15 Torsion [CA]-CB--CG-[ND1] |==|  0.27996
ROOT
ATOM      1  CA  HIS C   2      24.673  -0.729  39.946  1.00 11.69 LIG 0.18  C 
ENDROOT
BRANCH 1 2
ATOM      2  N   HIS C   2      24.815   0.049  41.176  1.00 10.87 LIG-0.35  N 
ATOM      3 H    HIS C   2      24.321  -0.214  41.829  1.00 10.87 LIG 0.16  HD
ATOM      4  C   PHE C   1      25.654   1.076  41.236  1.00 11.47 LIG 0.24  C 
ATOM      5 O    PHE C   1      26.449   1.354  40.321  1.00 12.97 LIG-0.27  OA
BRANCH 4 6
ATOM      6  CA  PHE C   1      25.624   1.885  42.535  1.00 11.05 LIG 0.18  C 
BRANCH 6 7
ATOM      7  CB  PHE C   1      26.942   2.645  42.717  1.00 10.09 LIG 0.07  C 
BRANCH 7 8
ATOM      8  CG  PHE C   1      27.028   3.897  41.897  1.00  8.73 LIG-0.06  A 
ATOM      9  CD2 PHE C   1      26.390   5.047  42.301  1.00  8.91 LIG 0.01  A 
ATOM     10  CE2 PHE C   1      26.467   6.190  41.532  1.00  8.44 LIG 0.00  A 
ATOM     11  CZ  PHE C   1      27.173   6.180  40.346  1.00  8.32 LIG 0.00  A 
ATOM     12  CE1 PHE C   1      27.823   5.034  39.941  1.00  8.07 LIG 0.00  A 
ATOM     13  CD1 PHE C   1      27.735   3.899  40.708  1.00  8.33 LIG 0.01  A 
ENDBRANCH 7 8
ENDBRANCH 6 7
BRANCH 6 14
ATOM     14  N   PHE C   1      25.384   1.029  43.676  1.00 11.54 LIG-0.35  N 
ATOM     15 H    PHE C   1      25.938   0.374  43.730  1.00 11.54 LIG 0.16  HD
ATOM     16  C   ACE C   0      24.415   1.219  44.556  1.00 13.21 LIG 0.21  C 
ATOM     17  CH3 ACE C   0      24.152   0.152  45.579  1.00 13.47 LIG 0.12  C 
ATOM     18 O    ACE C   0      23.651   2.161  44.347  1.00 14.75 LIG-0.27  OA
ENDBRANCH 6 14
ENDBRANCH 4 6
ENDBRANCH 1 2
BRANCH 1 19
ATOM     19  C   HIS C   2      26.035  -1.229  39.549  1.00 11.19 LIG 0.24  C 
ATOM     20  N   THR C   3      26.766  -1.773  40.513  1.00 11.67 LIG-0.34  N 
ATOM     21 H    THR C   3      26.529  -1.818  41.339  1.00 11.67 LIG 0.16  HD
ATOM     22 O    HIS C   2      26.413  -1.174  38.382  1.00 11.10 LIG-0.27  OA
BRANCH 20 23
ATOM     23  CA  THR C   3      28.061  -2.348  40.215  1.00 11.71 LIG 0.20  C 
BRANCH 23 24
ATOM     24  CB  THR C   3      27.939  -3.688  39.442  1.00 13.34 LIG 0.15  C 
ATOM     25  CG2 THR C   3      28.970  -4.693  39.894  1.00 14.42 LIG 0.04  C 
BRANCH 24 26
ATOM     26 OG1  THR C   3      26.640  -4.227  39.668  1.00 13.01 LIG-0.39  OA
ATOM     27 HG1  THR C   3      26.523  -4.894  39.172  1.00 13.01 LIG 0.21  HD
ENDBRANCH 24 26
ENDBRANCH 23 24
BRANCH 23 28
ATOM     28  C   THR C   3      28.934  -1.339  39.454  1.00 11.33 LIG 0.24  C 
ATOM     29  N   ALA C   4      28.972  -0.099  39.938  1.00 10.31 LIG-0.35  N 
ATOM     30 H    ALA C   4      28.461   0.195  40.564  1.00 10.31 LIG 0.16  HD
ATOM     31 O    THR C   3      29.563  -1.678  38.444  1.00 11.88 LIG-0.27  OA
BRANCH 29 32
ATOM     32  CA  ALA C   4      29.922   0.874  39.412  1.00 10.35 LIG 0.18  C 
ATOM     33  CB  ALA C   4      31.322   0.254  39.294  1.00 10.31 LIG 0.04  C 
BRANCH 32 34
ATOM     34  C   ALA C   4      29.444   1.444  38.052  1.00 10.99 LIG 0.28  C 
ATOM     35 O    ALA C   4      30.253   1.837  37.219  0.79 11.43 LIG-0.27  OA
ATOM     36  N   NH2 C   5      28.133   1.476  37.837  0.91 10.97 LIG-0.11  N 
ENDBRANCH 32 34
ENDBRANCH 29 32
ENDBRANCH 23 28
ENDBRANCH 20 23
ENDBRANCH 1 19
BRANCH 1 37
ATOM     37  CB  HIS C   2      24.157   0.117  38.791  1.00 14.08 LIG 0.10  C 
BRANCH 37 38
ATOM     38  CG  HIS C   2      23.489  -0.667  37.719  1.00 15.42 LIG 0.06  A 
ATOM     39  CD2 HIS C   2      24.015  -1.397  36.714  1.00 15.59 LIG 0.14  A 
ATOM     40 NE2  HIS C   2      22.964  -1.921  35.999  1.00 17.02 LIG-0.25  NA
ATOM     41  CE1 HIS C   2      21.833  -1.528  36.552  1.00 16.99 LIG 0.23  A 
ATOM     42 ND1  HIS C   2      22.120  -0.766  37.592  0.48 15.92 LIG-0.24  NA
ENDBRANCH 37 38
ENDBRANCH 1 37
TORSDOF 14
ENDMDL
MODEL 106
USER: ADFR SOLUTION from run 109
USER: SCORE 12.491895 LL:  -3.230 LR:  -9.918 RR:   0.000 FEB:  -5.742
USER: RMSD 8.816388
USER: SEED 108
USER: STATUS no improvement in best in 38 clusters for 5 generations
USER: GENES 16
USER: genes 0 Translation |==|  0.41318 0.48325 0.70387
USER: genes 1 Rotation |==|  0.16243 0.58755 0.14225 0.51995
USER: genes 2 Torsion [C]-CA--N-[C] |==|  0.73333
USER: genes 3 Torsion [N]-C--CA-[N] |==|  0.49223
USER: genes 4 Torsion [C]-CA--CB-[CG] |==|  0.79494
USER: genes 5 Torsion [CA]-CB--CG-[CD2] |==|  0.24713
USER: genes 6 Torsion [C]-CA--N-[C] |==|  0.77637
USER: genes 7 Torsion [N]-CA--C-[N] |==|  0.35761
USER: genes 8 Torsion [C]-N--CA-[CB] |==|  0.83529
USER: genes 9 Torsion [N]-CA--CB-[CG2] |==|  0.90475
USER: genes 10 Torsion [CA]-CB--OG1-[HG1] |==|  0.12113
USER: genes 11 Torsion [N]-CA--C-[N] |==|  0.33650
USER: genes 12 Torsion [C]-N--CA-[C] |==|  0.72429
USER: genes 13 Torsion [N]-CA--C-[N] |==|  0.41734
USER: genes 14 Torsion [N]-CA--CB-[CG] |==|  0.74043
USER: genes 15 Torsion [CA]-CB--CG-[ND1] |==|  0.60542
ROOT
ATOM      1  CA  HIS C   2      23.084   2.311  47.055  1.00 11.69 LIG 0.18  C 
ENDROOT
BRANCH 1 2
ATOM      2  N   HIS C   2      21.759   2.929  47.043  1.00 10.87 LIG-0.35  N 
ATOM      3 H    HIS C   2      21.140   2.452  46.684  1.00 10.87 LIG 0.16  HD
ATOM      4  C   PHE C   1      21.570   4.138  47.559  1.00 11.47 LIG 0.24  C 
ATOM      5 O    PHE C   1      22.452   4.750  48.187  1.00 12.97 LIG-0.27  OA
BRANCH 4 6
ATOM      6  CA  PHE C   1      20.169   4.727  47.378  1.00 11.05 LIG 0.18  C 
BRANCH 6 7
ATOM      7  CB  PHE C   1      19.840   4.865  45.888  1.00 10.09 LIG 0.07  C 
BRANCH 7 8
ATOM      8  CG  PHE C   1      20.567   5.990  45.217  1.00  8.73 LIG-0.06  A 
ATOM      9  CD2 PHE C   1      21.808   5.792  44.657  1.00  8.91 LIG 0.01  A 
ATOM     10  CE2 PHE C   1      22.472   6.838  44.052  1.00  8.44 LIG 0.00  A 
ATOM     11  CZ  PHE C   1      21.900   8.094  44.018  1.00  8.32 LIG 0.00  A 
ATOM     12  CE1 PHE C   1      20.653   8.298  44.568  1.00  8.07 LIG 0.00  A 
ATOM     13  CD1 PHE C   1      20.003   7.253  45.176  1.00  8.33 LIG 0.01  A 
ENDBRANCH 7 8
ENDBRANCH 6 7
BRANCH 6 14
ATOM     14  N   PHE C   1      20.057   6.012  48.032  1.00 11.54 LIG-0.35  N 
ATOM     15 H    PHE C   1      20.141   6.676  47.492  1.00 11.54 LIG 0.16  HD
ATOM     16  C   ACE C   0      19.849   6.169  49.330  1.00 13.21 LIG 0.21  C 
ATOM     17  CH3 ACE C   0      19.949   7.550  49.912  1.00 13.47 LIG 0.12  C 
ATOM     18 O    ACE C   0      19.798   5.147  50.012  1.00 14.75 LIG-0.27  OA
ENDBRANCH 6 14
ENDBRANCH 4 6
ENDBRANCH 1 2
BRANCH 1 19
ATOM     19  C   HIS C   2      23.736   2.576  45.726  1.00 11.19 LIG 0.24  C 
ATOM     20  N   THR C   3      24.958   3.091  45.763  1.00 11.67 LIG-0.34  N 
ATOM     21 H    THR C   3      25.372   3.315  46.483  1.00 11.67 LIG 0.16  HD
ATOM     22 O    HIS C   2      23.173   2.281  44.676  1.00 11.10 LIG-0.27  OA
BRANCH 20 23
ATOM     23  CA  THR C   3      25.696   3.315  44.537  1.00 11.71 LIG 0.20  C 
BRANCH 23 24
ATOM     24  CB  THR C   3      25.905   2.003  43.735  1.00 13.34 LIG 0.15  C 
ATOM     25  CG2 THR C   3      26.085   0.812  44.644  1.00 14.42 LIG 0.04  C 
BRANCH 24 26
ATOM     26 OG1  THR C   3      24.763   1.787  42.912  1.00 13.01 LIG-0.39  OA
ATOM     27 HG1  THR C   3      24.538   2.510  42.549  1.00 13.01 LIG 0.21  HD
ENDBRANCH 24 26
ENDBRANCH 23 24
BRANCH 23 28
ATOM     28  C   THR C   3      25.005   4.390  43.684  1.00 11.33 LIG 0.24  C 
ATOM     29  N   ALA C   4      25.725   5.470  43.387  1.00 10.31 LIG-0.35  N 
ATOM     30 H    ALA C   4      26.492   5.653  43.731  1.00 10.31 LIG 0.16  HD
ATOM     31 O    THR C   3      23.837   4.244  43.300  1.00 11.88 LIG-0.27  OA
BRANCH 29 32
ATOM     32  CA  ALA C   4      25.236   6.446  42.421  1.00 10.35 LIG 0.18  C 
ATOM     33  CB  ALA C   4      25.474   7.876  42.928  1.00 10.31 LIG 0.04  C 
BRANCH 32 34
ATOM     34  C   ALA C   4      25.883   6.229  41.030  1.00 10.99 LIG 0.28  C 
ATOM     35 O    ALA C   4      27.009   5.753  40.930  0.79 11.43 LIG-0.27  OA
ATOM     36  N   NH2 C   5      25.163   6.573  39.967  0.91 10.97 LIG-0.11  N 
ENDBRANCH 32 34
ENDBRANCH 29 32
ENDBRANCH 23 28
ENDBRANCH 20 23
ENDBRANCH 1 19
BRANCH 1 37
ATOM     37  CB  HIS C   2      23.009   0.800  47.219  1.00 14.08 LIG 0.10  C 
BRANCH 37 38
ATOM     38  CG  HIS C   2      23.115   0.338  48.628  1.00 15.42 LIG 0.06  A 
ATOM     39  CD2 HIS C   2      22.618   0.873  49.763  1.00 15.59 LIG 0.14  A 
ATOM     40 NE2  HIS C   2      23.003   0.058  50.800  1.00 17.02 LIG-0.25  NA
ATOM     41  CE1 HIS C   2      23.709  -0.946  50.315  1.00 16.99 LIG 0.23  A 
ATOM     42 ND1  HIS C   2      23.795  -0.800  49.005  0.48 15.92 LIG-0.24  NA
ENDBRANCH 37 38
ENDBRANCH 1 37
TORSDOF 14
ENDMDL
MODEL 107
USER: ADFR SOLUTION from run 169
USER: SCORE 11.910012 LL:  -3.057 LR:  -9.913 RR:   0.000 FEB:  -5.737
USER: RMSD 6.062146
USER: SEED 168
USER: STATUS no improvement in best in 26 clusters for 5 generations
USER: GENES 16
USER: genes 0 Translation |==|  0.51829 0.38369 0.46814
USER: genes 1 Rotation |==|  0.44782 0.25741 0.07573 0.59179
USER: genes 2 Torsion [C]-CA--N-[C] |==|  0.83434
USER: genes 3 Torsion [N]-C--CA-[N] |==|  0.37027
USER: genes 4 Torsion [C]-CA--CB-[CG] |==|  0.29076
USER: genes 5 Torsion [CA]-CB--CG-[CD2] |==|  0.54408
USER: genes 6 Torsion [C]-CA--N-[C] |==|  0.84922
USER: genes 7 Torsion [N]-CA--C-[N] |==|  0.35845
USER: genes 8 Torsion [C]-N--CA-[CB] |==|  0.21667
USER: genes 9 Torsion [N]-CA--CB-[CG2] |==|  0.75151
USER: genes 10 Torsion [CA]-CB--OG1-[HG1] |==|  0.00634
USER: genes 11 Torsion [N]-CA--C-[N] |==|  0.86417
USER: genes 12 Torsion [C]-N--CA-[C] |==|  0.70059
USER: genes 13 Torsion [N]-CA--C-[N] |==|  0.07927
USER: genes 14 Torsion [N]-CA--CB-[CG] |==|  0.60416
USER: genes 15 Torsion [CA]-CB--CG-[ND1] |==|  0.97221
ROOT
ATOM      1  CA  HIS C   2      25.134   0.668  42.282  1.00 11.69 LIG 0.18  C 
ENDROOT
BRANCH 1 2
ATOM      2  N   HIS C   2      25.069  -0.384  41.268  1.00 10.87 LIG-0.35  N 
ATOM      3 H    HIS C   2      25.011  -1.184  41.579  1.00 10.87 LIG 0.16  HD
ATOM      4  C   PHE C   1      25.100  -0.082  39.975  1.00 11.47 LIG 0.24  C 
ATOM      5 O    PHE C   1      25.053   1.087  39.552  1.00 12.97 LIG-0.27  OA
BRANCH 4 6
ATOM      6  CA  PHE C   1      25.149  -1.273  39.014  1.00 11.05 LIG 0.18  C 
BRANCH 6 7
ATOM      7  CB  PHE C   1      26.561  -1.435  38.443  1.00 10.09 LIG 0.07  C 
BRANCH 7 8
ATOM      8  CG  PHE C   1      27.323  -2.576  39.046  1.00  8.73 LIG-0.06  A 
ATOM      9  CD2 PHE C   1      28.687  -2.669  38.896  1.00  8.91 LIG 0.01  A 
ATOM     10  CE2 PHE C   1      29.376  -3.729  39.446  1.00  8.44 LIG 0.00  A 
ATOM     11  CZ  PHE C   1      28.696  -4.711  40.139  1.00  8.32 LIG 0.00  A 
ATOM     12  CE1 PHE C   1      27.331  -4.619  40.302  1.00  8.07 LIG 0.00  A 
ATOM     13  CD1 PHE C   1      26.652  -3.565  39.744  1.00  8.33 LIG 0.01  A 
ENDBRANCH 7 8
ENDBRANCH 6 7
BRANCH 6 14
ATOM     14  N   PHE C   1      24.193  -1.114  37.941  1.00 11.54 LIG-0.35  N 
ATOM     15 H    PHE C   1      24.547  -1.180  37.160  1.00 11.54 LIG 0.16  HD
ATOM     16  C   ACE C   0      22.902  -0.890  38.123  1.00 13.21 LIG 0.21  C 
ATOM     17  CH3 ACE C   0      22.056  -0.550  36.930  1.00 13.47 LIG 0.12  C 
ATOM     18 O    ACE C   0      22.519  -0.763  39.285  1.00 14.75 LIG-0.27  OA
ENDBRANCH 6 14
ENDBRANCH 4 6
ENDBRANCH 1 2
BRANCH 1 19
ATOM     19  C   HIS C   2      26.423   1.419  42.095  1.00 11.19 LIG 0.24  C 
ATOM     20  N   THR C   3      26.330   2.740  42.021  1.00 11.67 LIG-0.34  N 
ATOM     21 H    THR C   3      25.590   3.178  42.031  1.00 11.67 LIG 0.16  HD
ATOM     22 O    HIS C   2      27.500   0.828  42.064  1.00 11.10 LIG-0.27  OA
BRANCH 20 23
ATOM     23  CA  THR C   3      27.523   3.554  41.914  1.00 11.71 LIG 0.20  C 
BRANCH 23 24
ATOM     24  CB  THR C   3      28.102   3.551  40.474  1.00 13.34 LIG 0.15  C 
ATOM     25  CG2 THR C   3      29.090   2.430  40.269  1.00 14.42 LIG 0.04  C 
BRANCH 24 26
ATOM     26 OG1  THR C   3      27.028   3.394  39.552  1.00 13.01 LIG-0.39  OA
ATOM     27 HG1  THR C   3      26.300   3.367  39.971  1.00 13.01 LIG 0.21  HD
ENDBRANCH 24 26
ENDBRANCH 23 24
BRANCH 23 28
ATOM     28  C   THR C   3      27.242   4.983  42.403  1.00 11.33 LIG 0.24  C 
ATOM     29  N   ALA C   4      26.155   5.578  41.916  1.00 10.31 LIG-0.35  N 
ATOM     30 H    ALA C   4      25.676   5.266  41.273  1.00 10.31 LIG 0.16  HD
ATOM     31 O    THR C   3      27.999   5.539  43.209  1.00 11.88 LIG-0.27  OA
BRANCH 29 32
ATOM     32  CA  ALA C   4      25.693   6.846  42.468  1.00 10.35 LIG 0.18  C 
ATOM     33  CB  ALA C   4      25.485   7.879  41.350  1.00 10.31 LIG 0.04  C 
BRANCH 32 34
ATOM     34  C   ALA C   4      24.401   6.655  43.302  1.00 10.99 LIG 0.28  C 
ATOM     35 O    ALA C   4      23.581   7.561  43.404  0.79 11.43 LIG-0.27  OA
ATOM     36  N   NH2 C   5      24.227   5.473  43.885  0.91 10.97 LIG-0.11  N 
ENDBRANCH 32 34
ENDBRANCH 29 32
ENDBRANCH 23 28
ENDBRANCH 20 23
ENDBRANCH 1 19
BRANCH 1 37
ATOM     37  CB  HIS C   2      25.150   0.101  43.694  1.00 14.08 LIG 0.10  C 
BRANCH 37 38
ATOM     38  CG  HIS C   2      24.377   0.905  44.677  1.00 15.42 LIG 0.06  A 
ATOM     39  CD2 HIS C   2      24.025   0.625  45.949  1.00 15.59 LIG 0.14  A 
ATOM     40 NE2  HIS C   2      23.314   1.703  46.421  1.00 17.02 LIG-0.25  NA
ATOM     41  CE1 HIS C   2      23.239   2.615  45.469  1.00 16.99 LIG 0.23  A 
ATOM     42 ND1  HIS C   2      23.871   2.157  44.403  0.48 15.92 LIG-0.24  NA
ENDBRANCH 37 38
ENDBRANCH 1 37
TORSDOF 14
ENDMDL
MODEL 108
USER: ADFR SOLUTION from run 188
USER: SCORE 12.129377 LL:  -3.532 LR:  -9.905 RR:   0.000 FEB:  -5.729
USER: RMSD 9.439884
USER: SEED 187
USER: STATUS no improvement in best in 32 clusters for 5 generations
USER: GENES 16
USER: genes 0 Translation |==|  0.41402 0.68413 0.56729
USER: genes 1 Rotation |==|  0.65321 0.95535 0.55271 0.62807
USER: genes 2 Torsion [C]-CA--N-[C] |==|  0.67130
USER: genes 3 Torsion [N]-C--CA-[N] |==|  0.95857
USER: genes 4 Torsion [C]-CA--CB-[CG] |==|  0.78791
USER: genes 5 Torsion [CA]-CB--CG-[CD2] |==|  0.25199
USER: genes 6 Torsion [C]-CA--N-[C] |==|  0.75120
USER: genes 7 Torsion [N]-CA--C-[N] |==|  0.43887
USER: genes 8 Torsion [C]-N--CA-[CB] |==|  0.23658
USER: genes 9 Torsion [N]-CA--CB-[CG2] |==|  0.68365
USER: genes 10 Torsion [CA]-CB--OG1-[HG1] |==|  0.07475
USER: genes 11 Torsion [N]-CA--C-[N] |==|  0.86593
USER: genes 12 Torsion [C]-N--CA-[C] |==|  0.65000
USER: genes 13 Torsion [N]-CA--C-[N] |==|  0.04307
USER: genes 14 Torsion [N]-CA--CB-[CG] |==|  0.78605
USER: genes 15 Torsion [CA]-CB--CG-[ND1] |==|  0.53781
ROOT
ATOM      1  CA  HIS C   2      23.100   5.625  44.290  1.00 11.69 LIG 0.18  C 
ENDROOT
BRANCH 1 2
ATOM      2  N   HIS C   2      22.230   5.260  45.407  1.00 10.87 LIG-0.35  N 
ATOM      3 H    HIS C   2      22.553   5.426  46.186  1.00 10.87 LIG 0.16  HD
ATOM      4  C   PHE C   1      21.039   4.716  45.189  1.00 11.47 LIG 0.24  C 
ATOM      5 O    PHE C   1      20.544   4.605  44.053  1.00 12.97 LIG-0.27  OA
BRANCH 4 6
ATOM      6  CA  PHE C   1      20.274   4.266  46.436  1.00 11.05 LIG 0.18  C 
BRANCH 6 7
ATOM      7  CB  PHE C   1      19.102   5.214  46.710  1.00 10.09 LIG 0.07  C 
BRANCH 7 8
ATOM      8  CG  PHE C   1      19.519   6.519  47.317  1.00  8.73 LIG-0.06  A 
ATOM      9  CD2 PHE C   1      19.822   7.600  46.521  1.00  8.91 LIG 0.01  A 
ATOM     10  CE2 PHE C   1      20.215   8.793  47.090  1.00  8.44 LIG 0.00  A 
ATOM     11  CZ  PHE C   1      20.319   8.904  48.463  1.00  8.32 LIG 0.00  A 
ATOM     12  CE1 PHE C   1      20.006   7.829  49.266  1.00  8.07 LIG 0.00  A 
ATOM     13  CD1 PHE C   1      19.624   6.642  48.691  1.00  8.33 LIG 0.01  A 
ENDBRANCH 7 8
ENDBRANCH 6 7
BRANCH 6 14
ATOM     14  N   PHE C   1      21.147   4.208  47.588  1.00 11.54 LIG-0.35  N 
ATOM     15 H    PHE C   1      21.175   4.946  48.028  1.00 11.54 LIG 0.16  HD
ATOM     16  C   ACE C   0      21.838   3.137  47.944  1.00 13.21 LIG 0.21  C 
ATOM     17  CH3 ACE C   0      22.853   3.269  49.042  1.00 13.47 LIG 0.12  C 
ATOM     18 O    ACE C   0      21.758   2.155  47.207  1.00 14.75 LIG-0.27  OA
ENDBRANCH 6 14
ENDBRANCH 4 6
ENDBRANCH 1 2
BRANCH 1 19
ATOM     19  C   HIS C   2      24.365   4.819  44.399  1.00 11.19 LIG 0.24  C 
ATOM     20  N   THR C   3      25.064   4.665  43.282  1.00 11.67 LIG-0.34  N 
ATOM     21 H    THR C   3      24.820   4.956  42.510  1.00 11.67 LIG 0.16  HD
ATOM     22 O    HIS C   2      24.741   4.377  45.482  1.00 11.10 LIG-0.27  OA
BRANCH 20 23
ATOM     23  CA  THR C   3      26.332   3.966  43.301  1.00 11.71 LIG 0.20  C 
BRANCH 23 24
ATOM     24  CB  THR C   3      26.152   2.429  43.175  1.00 13.34 LIG 0.15  C 
ATOM     25  CG2 THR C   3      26.578   1.710  44.431  1.00 14.42 LIG 0.04  C 
BRANCH 24 26
ATOM     26 OG1  THR C   3      24.777   2.152  42.927  1.00 13.01 LIG-0.39  OA
ATOM     27 HG1  THR C   3      24.423   2.810  42.545  1.00 13.01 LIG 0.21  HD
ENDBRANCH 24 26
ENDBRANCH 23 24
BRANCH 23 28
ATOM     28  C   THR C   3      27.262   4.513  42.208  1.00 11.33 LIG 0.24  C 
ATOM     29  N   ALA C   4      26.741   4.641  40.990  1.00 10.31 LIG-0.35  N 
ATOM     30 H    ALA C   4      25.972   4.336  40.754  1.00 10.31 LIG 0.16  HD
ATOM     31 O    THR C   3      28.435   4.815  42.464  1.00 11.88 LIG-0.27  OA
BRANCH 29 32
ATOM     32  CA  ALA C   4      27.474   5.337  39.938  1.00 10.35 LIG 0.18  C 
ATOM     33  CB  ALA C   4      27.954   4.347  38.867  1.00 10.31 LIG 0.04  C 
BRANCH 32 34
ATOM     34  C   ALA C   4      26.616   6.467  39.314  1.00 10.99 LIG 0.28  C 
ATOM     35 O    ALA C   4      26.929   6.971  38.241  0.79 11.43 LIG-0.27  OA
ATOM     36  N   NH2 C   5      25.537   6.850  39.988  0.91 10.97 LIG-0.11  N 
ENDBRANCH 32 34
ENDBRANCH 29 32
ENDBRANCH 23 28
ENDBRANCH 20 23
ENDBRANCH 1 19
BRANCH 1 37
ATOM     37  CB  HIS C   2      23.503   7.092  44.334  1.00 14.08 LIG 0.10  C 
BRANCH 37 38
ATOM     38  CG  HIS C   2      22.438   8.025  43.881  1.00 15.42 LIG 0.06  A 
ATOM     39  CD2 HIS C   2      21.121   7.815  43.677  1.00 15.59 LIG 0.14  A 
ATOM     40 NE2  HIS C   2      20.578   9.007  43.260  1.00 17.02 LIG-0.25  NA
ATOM     41  CE1 HIS C   2      21.532   9.918  43.215  1.00 16.99 LIG 0.23  A 
ATOM     42 ND1  HIS C   2      22.667   9.351  43.583  0.48 15.92 LIG-0.24  NA
ENDBRANCH 37 38
ENDBRANCH 1 37
TORSDOF 14
ENDMDL
MODEL 109
USER: ADFR SOLUTION from run 65
USER: SCORE 11.705333 LL:  -3.408 LR:  -9.910 RR:   0.000 FEB:  -5.734
USER: RMSD 8.664827
USER: SEED 64
USER: STATUS no improvement in best in 28 clusters for 5 generations
USER: GENES 16
USER: genes 0 Translation |==|  0.53021 0.40690 0.47438
USER: genes 1 Rotation |==|  0.12246 0.19333 0.43951 0.59879
USER: genes 2 Torsion [C]-CA--N-[C] |==|  0.65000
USER: genes 3 Torsion [N]-C--CA-[N] |==|  0.31346
USER: genes 4 Torsion [C]-CA--CB-[CG] |==|  0.36663
USER: genes 5 Torsion [CA]-CB--CG-[CD2] |==|  0.07232
USER: genes 6 Torsion [C]-CA--N-[C] |==|  0.77680
USER: genes 7 Torsion [N]-CA--C-[N] |==|  0.40791
USER: genes 8 Torsion [C]-N--CA-[CB] |==|  0.43910
USER: genes 9 Torsion [N]-CA--CB-[CG2] |==|  0.52358
USER: genes 10 Torsion [CA]-CB--OG1-[HG1] |==|  0.85981
USER: genes 11 Torsion [N]-CA--C-[N] |==|  0.93517
USER: genes 12 Torsion [C]-N--CA-[C] |==|  0.80626
USER: genes 13 Torsion [N]-CA--C-[N] |==|  0.91413
USER: genes 14 Torsion [N]-CA--CB-[CG] |==|  0.59218
USER: genes 15 Torsion [CA]-CB--CG-[ND1] |==|  0.74543
ROOT
ATOM      1  CA  HIS C   2      25.366   1.051  42.408  1.00 11.69 LIG 0.18  C 
ENDROOT
BRANCH 1 2
ATOM      2  N   HIS C   2      25.105   0.403  43.693  1.00 10.87 LIG-0.35  N 
ATOM      3 H    HIS C   2      25.515  -0.344  43.812  1.00 10.87 LIG 0.16  HD
ATOM      4  C   PHE C   1      24.290   0.961  44.581  1.00 11.47 LIG 0.24  C 
ATOM      5 O    PHE C   1      23.813   2.101  44.438  1.00 12.97 LIG-0.27  OA
BRANCH 4 6
ATOM      6  CA  PHE C   1      24.001   0.130  45.834  1.00 11.05 LIG 0.18  C 
BRANCH 6 7
ATOM      7  CB  PHE C   1      22.491  -0.052  46.012  1.00 10.09 LIG 0.07  C 
BRANCH 7 8
ATOM      8  CG  PHE C   1      22.088  -1.469  46.286  1.00  8.73 LIG-0.06  A 
ATOM      9  CD2 PHE C   1      22.966  -2.349  46.874  1.00  8.91 LIG 0.01  A 
ATOM     10  CE2 PHE C   1      22.588  -3.654  47.112  1.00  8.44 LIG 0.00  A 
ATOM     11  CZ  PHE C   1      21.329  -4.087  46.746  1.00  8.32 LIG 0.00  A 
ATOM     12  CE1 PHE C   1      20.440  -3.208  46.167  1.00  8.07 LIG 0.00  A 
ATOM     13  CD1 PHE C   1      20.827  -1.913  45.927  1.00  8.33 LIG 0.01  A 
ENDBRANCH 7 8
ENDBRANCH 6 7
BRANCH 6 14
ATOM     14  N   PHE C   1      24.570   0.750  47.010  1.00 11.54 LIG-0.35  N 
ATOM     15 H    PHE C   1      23.994   1.193  47.471  1.00 11.54 LIG 0.16  HD
ATOM     16  C   ACE C   0      25.843   0.656  47.358  1.00 13.21 LIG 0.21  C 
ATOM     17  CH3 ACE C   0      26.344   1.505  48.490  1.00 13.47 LIG 0.12  C 
ATOM     18 O    ACE C   0      26.583   0.039  46.593  1.00 14.75 LIG-0.27  OA
ENDBRANCH 6 14
ENDBRANCH 4 6
ENDBRANCH 1 2
BRANCH 1 19
ATOM     19  C   HIS C   2      25.066   0.061  41.316  1.00 11.19 LIG 0.24  C 
ATOM     20  N   THR C   3      24.585   0.561  40.185  1.00 11.67 LIG-0.34  N 
ATOM     21 H    THR C   3      24.400   1.391  40.058  1.00 11.67 LIG 0.16  HD
ATOM     22 O    HIS C   2      25.305  -1.134  41.463  1.00 11.10 LIG-0.27  OA
BRANCH 20 23
ATOM     23  CA  THR C   3      24.332  -0.303  39.051  1.00 11.71 LIG 0.20  C 
BRANCH 23 24
ATOM     24  CB  THR C   3      23.306   0.315  38.065  1.00 13.34 LIG 0.15  C 
ATOM     25  CG2 THR C   3      22.891  -0.668  36.998  1.00 14.42 LIG 0.04  C 
BRANCH 24 26
ATOM     26 OG1  THR C   3      22.152   0.712  38.800  1.00 13.01 LIG-0.39  OA
ATOM     27 HG1  THR C   3      21.893   0.074  39.281  1.00 13.01 LIG 0.21  HD
ENDBRANCH 24 26
ENDBRANCH 23 24
BRANCH 23 28
ATOM     28  C   THR C   3      25.649  -0.656  38.342  1.00 11.33 LIG 0.24  C 
ATOM     29  N   ALA C   4      26.664   0.188  38.515  1.00 10.31 LIG-0.35  N 
ATOM     30 H    ALA C   4      26.599   0.957  38.892  1.00 10.31 LIG 0.16  HD
ATOM     31 O    THR C   3      25.744  -1.677  37.649  1.00 11.88 LIG-0.27  OA
BRANCH 29 32
ATOM     32  CA  ALA C   4      28.004  -0.160  38.056  1.00 10.35 LIG 0.18  C 
ATOM     33  CB  ALA C   4      28.912   1.079  38.051  1.00 10.31 LIG 0.04  C 
BRANCH 32 34
ATOM     34  C   ALA C   4      28.612  -1.298  38.914  1.00 10.99 LIG 0.28  C 
ATOM     35 O    ALA C   4      29.405  -2.095  38.427  0.79 11.43 LIG-0.27  OA
ATOM     36  N   NH2 C   5      28.239  -1.359  40.189  0.91 10.97 LIG-0.11  N 
ENDBRANCH 32 34
ENDBRANCH 29 32
ENDBRANCH 23 28
ENDBRANCH 20 23
ENDBRANCH 1 19
BRANCH 1 37
ATOM     37  CB  HIS C   2      26.826   1.452  42.256  1.00 14.08 LIG 0.10  C 
BRANCH 37 38
ATOM     38  CG  HIS C   2      27.033   2.695  41.467  1.00 15.42 LIG 0.06  A 
ATOM     39  CD2 HIS C   2      27.064   3.985  41.862  1.00 15.59 LIG 0.14  A 
ATOM     40 NE2  HIS C   2      27.286   4.748  40.741  1.00 17.02 LIG-0.25  NA
ATOM     41  CE1 HIS C   2      27.393   3.950  39.695  1.00 16.99 LIG 0.23  A 
ATOM     42 ND1  HIS C   2      27.241   2.703  40.105  0.48 15.92 LIG-0.24  NA
ENDBRANCH 37 38
ENDBRANCH 1 37
TORSDOF 14
ENDMDL
MODEL 110
USER: ADFR SOLUTION from run 90
USER: SCORE 11.776346 LL:  -3.423 LR:  -9.906 RR:   0.000 FEB:  -5.730
USER: RMSD 7.076607
USER: SEED 89
USER: STATUS no improvement in best in 24 clusters for 5 generations
USER: GENES 16
USER: genes 0 Translation |==|  0.43012 0.30595 0.63441
USER: genes 1 Rotation |==|  0.71855 0.44457 0.06749 0.61002
USER: genes 2 Torsion [C]-CA--N-[C] |==|  0.79237
USER: genes 3 Torsion [N]-C--CA-[N] |==|  0.31147
USER: genes 4 Torsion [C]-CA--CB-[CG] |==|  0.76114
USER: genes 5 Torsion [CA]-CB--CG-[CD2] |==|  0.21471
USER: genes 6 Torsion [C]-CA--N-[C] |==|  0.77187
USER: genes 7 Torsion [N]-CA--C-[N] |==|  0.41254
USER: genes 8 Torsion [C]-N--CA-[CB] |==|  0.40673
USER: genes 9 Torsion [N]-CA--CB-[CG2] |==|  0.63251
USER: genes 10 Torsion [CA]-CB--OG1-[HG1] |==|  0.31676
USER: genes 11 Torsion [N]-CA--C-[N] |==|  0.93598
USER: genes 12 Torsion [C]-N--CA-[C] |==|  0.77455
USER: genes 13 Torsion [N]-CA--C-[N] |==|  0.92526
USER: genes 14 Torsion [N]-CA--CB-[CG] |==|  0.60944
USER: genes 15 Torsion [CA]-CB--CG-[ND1] |==|  0.24300
ROOT
ATOM      1  CA  HIS C   2      23.414  -0.615  45.649  1.00 11.69 LIG 0.18  C 
ENDROOT
BRANCH 1 2
ATOM      2  N   HIS C   2      24.504  -0.280  44.733  1.00 10.87 LIG-0.35  N 
ATOM      3 H    HIS C   2      25.051  -0.923  44.570  1.00 10.87 LIG 0.16  HD
ATOM      4  C   PHE C   1      24.604   0.939  44.215  1.00 11.47 LIG 0.24  C 
ATOM      5 O    PHE C   1      23.730   1.811  44.365  1.00 12.97 LIG-0.27  OA
BRANCH 4 6
ATOM      6  CA  PHE C   1      25.853   1.203  43.369  1.00 11.05 LIG 0.18  C 
BRANCH 6 7
ATOM      7  CB  PHE C   1      26.597   2.435  43.892  1.00 10.09 LIG 0.07  C 
BRANCH 7 8
ATOM      8  CG  PHE C   1      26.085   3.726  43.329  1.00  8.73 LIG-0.06  A 
ATOM      9  CD2 PHE C   1      24.918   4.285  43.797  1.00  8.91 LIG 0.01  A 
ATOM     10  CE2 PHE C   1      24.451   5.467  43.263  1.00  8.44 LIG 0.00  A 
ATOM     11  CZ  PHE C   1      25.147   6.089  42.245  1.00  8.32 LIG 0.00  A 
ATOM     12  CE1 PHE C   1      26.322   5.541  41.779  1.00  8.07 LIG 0.00  A 
ATOM     13  CD1 PHE C   1      26.775   4.359  42.311  1.00  8.33 LIG 0.01  A 
ENDBRANCH 7 8
ENDBRANCH 6 7
BRANCH 6 14
ATOM     14  N   PHE C   1      25.508   1.384  41.977  1.00 11.54 LIG-0.35  N 
ATOM     15 H    PHE C   1      25.451   2.211  41.747  1.00 11.54 LIG 0.16  HD
ATOM     16  C   ACE C   0      25.298   0.391  41.128  1.00 13.21 LIG 0.21  C 
ATOM     17  CH3 ACE C   0      24.756   0.712  39.765  1.00 13.47 LIG 0.12  C 
ATOM     18 O    ACE C   0      25.356  -0.751  41.583  1.00 14.75 LIG-0.27  OA
ENDBRANCH 6 14
ENDBRANCH 4 6
ENDBRANCH 1 2
BRANCH 1 19
ATOM     19  C   HIS C   2      23.711   0.019  46.980  1.00 11.19 LIG 0.24  C 
ATOM     20  N   THR C   3      22.662   0.394  47.700  1.00 11.67 LIG-0.34  N 
ATOM     21 H    THR C   3      21.845   0.336  47.439  1.00 11.67 LIG 0.16  HD
ATOM     22 O    HIS C   2      24.865   0.130  47.384  1.00 11.10 LIG-0.27  OA
BRANCH 20 23
ATOM     23  CA  THR C   3      22.843   0.948  49.026  1.00 11.71 LIG 0.20  C 
BRANCH 23 24
ATOM     24  CB  THR C   3      21.777   2.025  49.358  1.00 13.34 LIG 0.15  C 
ATOM     25  CG2 THR C   3      22.400   3.272  49.937  1.00 14.42 LIG 0.04  C 
BRANCH 24 26
ATOM     26 OG1  THR C   3      21.088   2.368  48.159  1.00 13.01 LIG-0.39  OA
ATOM     27 HG1  THR C   3      20.286   2.125  48.217  1.00 13.01 LIG 0.21  HD
ENDBRANCH 24 26
ENDBRANCH 23 24
BRANCH 23 28
ATOM     28  C   THR C   3      22.856  -0.172  50.078  1.00 11.33 LIG 0.24  C 
ATOM     29  N   ALA C   4      22.256  -1.312  49.742  1.00 10.31 LIG-0.35  N 
ATOM     30 H    ALA C   4      21.773  -1.420  49.039  1.00 10.31 LIG 0.16  HD
ATOM     31 O    THR C   3      23.400  -0.006  51.177  1.00 11.88 LIG-0.27  OA
BRANCH 29 32
ATOM     32  CA  ALA C   4      22.388  -2.496  50.583  1.00 10.35 LIG 0.18  C 
ATOM     33  CB  ALA C   4      21.189  -3.436  50.387  1.00 10.31 LIG 0.04  C 
BRANCH 32 34
ATOM     34  C   ALA C   4      23.726  -3.229  50.310  1.00 10.99 LIG 0.28  C 
ATOM     35 O    ALA C   4      24.254  -3.914  51.179  0.79 11.43 LIG-0.27  OA
ATOM     36  N   NH2 C   5      24.259  -3.084  49.101  0.91 10.97 LIG-0.11  N 
ENDBRANCH 32 34
ENDBRANCH 29 32
ENDBRANCH 23 28
ENDBRANCH 20 23
ENDBRANCH 1 19
BRANCH 1 37
ATOM     37  CB  HIS C   2      23.306  -2.114  45.884  1.00 14.08 LIG 0.10  C 
BRANCH 37 38
ATOM     38  CG  HIS C   2      21.908  -2.616  45.954  1.00 15.42 LIG 0.06  A 
ATOM     39  CD2 HIS C   2      21.095  -2.791  47.016  1.00 15.59 LIG 0.14  A 
ATOM     40 NE2  HIS C   2      19.902  -3.281  46.538  1.00 17.02 LIG-0.25  NA
ATOM     41  CE1 HIS C   2      19.983  -3.396  45.226  1.00 16.99 LIG 0.23  A 
ATOM     42 ND1  HIS C   2      21.185  -3.004  44.846  0.48 15.92 LIG-0.24  NA
ENDBRANCH 37 38
ENDBRANCH 1 37
TORSDOF 14
ENDMDL
MODEL 111
USER: ADFR SOLUTION from run 95
USER: SCORE 11.564937 LL:  -3.550 LR:  -9.903 RR:   0.000 FEB:  -5.727
USER: RMSD 8.559675
USER: SEED 94
USER: STATUS no improvement in best in 8 clusters for 5 generations
USER: GENES 16
USER: genes 0 Translation |==|  0.41483 0.31159 0.68354
USER: genes 1 Rotation |==|  0.22522 0.90814 0.43222 0.55764
USER: genes 2 Torsion [C]-CA--N-[C] |==|  0.75240
USER: genes 3 Torsion [N]-C--CA-[N] |==|  0.95164
USER: genes 4 Torsion [C]-CA--CB-[CG] |==|  0.92358
USER: genes 5 Torsion [CA]-CB--CG-[CD2] |==|  0.79346
USER: genes 6 Torsion [C]-CA--N-[C] |==|  0.64444
USER: genes 7 Torsion [N]-CA--C-[N] |==|  0.76769
USER: genes 8 Torsion [C]-N--CA-[CB] |==|  0.22599
USER: genes 9 Torsion [N]-CA--CB-[CG2] |==|  0.55396
USER: genes 10 Torsion [CA]-CB--OG1-[HG1] |==|  0.61936
USER: genes 11 Torsion [N]-CA--C-[N] |==|  0.87081
USER: genes 12 Torsion [C]-N--CA-[C] |==|  0.81276
USER: genes 13 Torsion [N]-CA--C-[N] |==|  0.94651
USER: genes 14 Torsion [N]-CA--CB-[CG] |==|  0.74150
USER: genes 15 Torsion [CA]-CB--CG-[ND1] |==|  0.49315
ROOT
ATOM      1  CA  HIS C   2      23.116  -0.522  46.644  1.00 11.69 LIG 0.18  C 
ENDROOT
BRANCH 1 2
ATOM      2  N   HIS C   2      22.958  -0.434  48.095  1.00 10.87 LIG-0.35  N 
ATOM      3 H    HIS C   2      22.216  -0.089  48.358  1.00 10.87 LIG 0.16  HD
ATOM      4  C   PHE C   1      23.915  -0.867  48.908  1.00 11.47 LIG 0.24  C 
ATOM      5 O    PHE C   1      24.920  -1.479  48.505  1.00 12.97 LIG-0.27  OA
BRANCH 4 6
ATOM      6  CA  PHE C   1      23.687  -0.610  50.400  1.00 11.05 LIG 0.18  C 
BRANCH 6 7
ATOM      7  CB  PHE C   1      23.281  -1.909  51.105  1.00 10.09 LIG 0.07  C 
BRANCH 7 8
ATOM      8  CG  PHE C   1      22.587  -2.886  50.206  1.00  8.73 LIG-0.06  A 
ATOM      9  CD2 PHE C   1      21.285  -2.678  49.815  1.00  8.91 LIG 0.01  A 
ATOM     10  CE2 PHE C   1      20.652  -3.590  48.996  1.00  8.44 LIG 0.00  A 
ATOM     11  CZ  PHE C   1      21.319  -4.724  48.577  1.00  8.32 LIG 0.00  A 
ATOM     12  CE1 PHE C   1      22.627  -4.933  48.958  1.00  8.07 LIG 0.00  A 
ATOM     13  CD1 PHE C   1      23.247  -4.024  49.779  1.00  8.33 LIG 0.01  A 
ENDBRANCH 7 8
ENDBRANCH 6 7
BRANCH 6 14
ATOM     14  N   PHE C   1      22.675   0.403  50.604  1.00 11.54 LIG-0.35  N 
ATOM     15 H    PHE C   1      21.945   0.243  50.179  1.00 11.54 LIG 0.16  HD
ATOM     16  C   ACE C   0      22.840   1.474  51.365  1.00 13.21 LIG 0.21  C 
ATOM     17  CH3 ACE C   0      21.787   2.544  51.337  1.00 13.47 LIG 0.12  C 
ATOM     18 O    ACE C   0      23.946   1.623  51.882  1.00 14.75 LIG-0.27  OA
ENDBRANCH 6 14
ENDBRANCH 4 6
ENDBRANCH 1 2
BRANCH 1 19
ATOM     19  C   HIS C   2      23.785   0.739  46.169  1.00 11.19 LIG 0.24  C 
ATOM     20  N   THR C   3      22.994   1.783  45.961  1.00 11.67 LIG-0.34  N 
ATOM     21 H    THR C   3      22.137   1.769  46.041  1.00 11.67 LIG 0.16  HD
ATOM     22 O    HIS C   2      25.004   0.795  46.033  1.00 11.10 LIG-0.27  OA
BRANCH 20 23
ATOM     23  CA  THR C   3      23.553   3.061  45.573  1.00 11.71 LIG 0.20  C 
BRANCH 23 24
ATOM     24  CB  THR C   3      23.855   3.126  44.052  1.00 13.34 LIG 0.15  C 
ATOM     25  CG2 THR C   3      24.840   4.221  43.722  1.00 14.42 LIG 0.04  C 
BRANCH 24 26
ATOM     26 OG1  THR C   3      24.402   1.876  43.644  1.00 13.01 LIG-0.39  OA
ATOM     27 HG1  THR C   3      25.051   2.009  43.127  1.00 13.01 LIG 0.21  HD
ENDBRANCH 24 26
ENDBRANCH 23 24
BRANCH 23 28
ATOM     28  C   THR C   3      22.627   4.207  46.010  1.00 11.33 LIG 0.24  C 
ATOM     29  N   ALA C   4      21.331   4.060  45.747  1.00 10.31 LIG-0.35  N 
ATOM     30 H    ALA C   4      21.001   3.435  45.256  1.00 10.31 LIG 0.16  HD
ATOM     31 O    THR C   3      23.081   5.209  46.578  1.00 11.88 LIG-0.27  OA
BRANCH 29 32
ATOM     32  CA  ALA C   4      20.352   4.989  46.298  1.00 10.35 LIG 0.18  C 
ATOM     33  CB  ALA C   4      18.982   4.790  45.633  1.00 10.31 LIG 0.04  C 
BRANCH 32 34
ATOM     34  C   ALA C   4      20.253   4.848  47.838  1.00 10.99 LIG 0.28  C 
ATOM     35 O    ALA C   4      19.764   5.742  48.520  0.79 11.43 LIG-0.27  OA
ATOM     36  N   NH2 C   5      20.712   3.721  48.373  0.91 10.97 LIG-0.11  N 
ENDBRANCH 32 34
ENDBRANCH 29 32
ENDBRANCH 23 28
ENDBRANCH 20 23
ENDBRANCH 1 19
BRANCH 1 37
ATOM     37  CB  HIS C   2      21.777  -0.611  45.927  1.00 14.08 LIG 0.10  C 
BRANCH 37 38
ATOM     38  CG  HIS C   2      21.323  -2.002  45.665  1.00 15.42 LIG 0.06  A 
ATOM     39  CD2 HIS C   2      21.927  -3.181  45.922  1.00 15.59 LIG 0.14  A 
ATOM     40 NE2  HIS C   2      21.084  -4.175  45.483  1.00 17.02 LIG-0.25  NA
ATOM     41  CE1 HIS C   2      19.998  -3.620  44.978  1.00 16.99 LIG 0.23  A 
ATOM     42 ND1  HIS C   2      20.117  -2.308  45.073  0.48 15.92 LIG-0.24  NA
ENDBRANCH 37 38
ENDBRANCH 1 37
TORSDOF 14
ENDMDL
MODEL 112
USER: ADFR SOLUTION from run 16
USER: SCORE 12.693009 LL:  -3.620 LR:  -9.885 RR:   0.000 FEB:  -5.709
USER: RMSD 7.159890
USER: SEED 523018
USER: STATUS no improvement in best in 25 clusters for 5 generations
USER: GENES 16
USER: genes 0 Translation |==|  0.38210 0.53132 0.71213
USER: genes 1 Rotation |==|  0.40786 0.72128 0.86852 0.73821
USER: genes 2 Torsion [C]-CA--N-[C] |==|  0.84444
USER: genes 3 Torsion [N]-C--CA-[N] |==|  0.39870
USER: genes 4 Torsion [C]-CA--CB-[CG] |==|  0.32984
USER: genes 5 Torsion [CA]-CB--CG-[CD2] |==|  0.39006
USER: genes 6 Torsion [C]-CA--N-[C] |==|  0.85997
USER: genes 7 Torsion [N]-CA--C-[N] |==|  0.87603
USER: genes 8 Torsion [C]-N--CA-[CB] |==|  0.17257
USER: genes 9 Torsion [N]-CA--CB-[CG2] |==|  0.13822
USER: genes 10 Torsion [CA]-CB--OG1-[HG1] |==|  0.85428
USER: genes 11 Torsion [N]-CA--C-[N] |==|  0.00405
USER: genes 12 Torsion [C]-N--CA-[C] |==|  0.79593
USER: genes 13 Torsion [N]-CA--C-[N] |==|  0.44072
USER: genes 14 Torsion [N]-CA--CB-[CG] |==|  0.73964
USER: genes 15 Torsion [CA]-CB--CG-[ND1] |==|  0.31765
ROOT
ATOM      1  CA  HIS C   2      22.478   3.104  47.223  1.00 11.69 LIG 0.18  C 
ENDROOT
BRANCH 1 2
ATOM      2  N   HIS C   2      22.595   1.936  46.350  1.00 10.87 LIG-0.35  N 
ATOM      3 H    HIS C   2      21.846   1.614  46.075  1.00 10.87 LIG 0.16  HD
ATOM      4  C   PHE C   1      23.786   1.444  46.031  1.00 11.47 LIG 0.24  C 
ATOM      5 O    PHE C   1      24.853   2.005  46.337  1.00 12.97 LIG-0.27  OA
BRANCH 4 6
ATOM      6  CA  PHE C   1      23.775   0.150  45.213  1.00 11.05 LIG 0.18  C 
BRANCH 6 7
ATOM      7  CB  PHE C   1      23.883  -1.064  46.140  1.00 10.09 LIG 0.07  C 
BRANCH 7 8
ATOM      8  CG  PHE C   1      22.702  -1.983  46.061  1.00  8.73 LIG-0.06  A 
ATOM      9  CD2 PHE C   1      22.868  -3.348  46.098  1.00  8.91 LIG 0.01  A 
ATOM     10  CE2 PHE C   1      21.775  -4.184  46.013  1.00  8.44 LIG 0.00  A 
ATOM     11  CZ  PHE C   1      20.507  -3.653  45.877  1.00  8.32 LIG 0.00  A 
ATOM     12  CE1 PHE C   1      20.332  -2.287  45.850  1.00  8.07 LIG 0.00  A 
ATOM     13  CD1 PHE C   1      21.427  -1.462  45.927  1.00  8.33 LIG 0.01  A 
ENDBRANCH 7 8
ENDBRANCH 6 7
BRANCH 6 14
ATOM     14  N   PHE C   1      24.853   0.137  44.249  1.00 11.54 LIG-0.35  N 
ATOM     15 H    PHE C   1      25.321  -0.584  44.274  1.00 11.54 LIG 0.16  HD
ATOM     16  C   ACE C   0      25.107   1.124  43.405  1.00 13.21 LIG 0.21  C 
ATOM     17  CH3 ACE C   0      26.369   1.069  42.593  1.00 13.47 LIG 0.12  C 
ATOM     18 O    ACE C   0      24.402   2.128  43.496  1.00 14.75 LIG-0.27  OA
ENDBRANCH 6 14
ENDBRANCH 4 6
ENDBRANCH 1 2
BRANCH 1 19
ATOM     19  C   HIS C   2      23.196   2.800  48.509  1.00 11.19 LIG 0.24  C 
ATOM     20  N   THR C   3      22.974   1.604  49.038  1.00 11.67 LIG-0.34  N 
ATOM     21 H    THR C   3      22.425   1.023  48.719  1.00 11.67 LIG 0.16  HD
ATOM     22 O    HIS C   2      23.978   3.607  49.002  1.00 11.10 LIG-0.27  OA
BRANCH 20 23
ATOM     23  CA  THR C   3      23.674   1.192  50.237  1.00 11.71 LIG 0.20  C 
BRANCH 23 24
ATOM     24  CB  THR C   3      23.345   2.105  51.447  1.00 13.34 LIG 0.15  C 
ATOM     25  CG2 THR C   3      21.858   2.291  51.622  1.00 14.42 LIG 0.04  C 
BRANCH 24 26
ATOM     26 OG1  THR C   3      23.877   1.507  52.626  1.00 13.01 LIG-0.39  OA
ATOM     27 HG1  THR C   3      23.610   0.712  52.681  1.00 13.01 LIG 0.21  HD
ENDBRANCH 24 26
ENDBRANCH 23 24
BRANCH 23 28
ATOM     28  C   THR C   3      23.379  -0.283  50.550  1.00 11.33 LIG 0.24  C 
ATOM     29  N   ALA C   4      22.589  -0.928  49.694  1.00 10.31 LIG-0.35  N 
ATOM     30 H    ALA C   4      22.150  -0.551  49.058  1.00 10.31 LIG 0.16  HD
ATOM     31 O    THR C   3      23.860  -0.829  51.552  1.00 11.88 LIG-0.27  OA
BRANCH 29 32
ATOM     32  CA  ALA C   4      22.414  -2.373  49.790  1.00 10.35 LIG 0.18  C 
ATOM     33  CB  ALA C   4      21.165  -2.819  49.016  1.00 10.31 LIG 0.04  C 
BRANCH 32 34
ATOM     34  C   ALA C   4      23.678  -3.122  49.296  1.00 10.99 LIG 0.28  C 
ATOM     35 O    ALA C   4      24.485  -2.571  48.557  0.79 11.43 LIG-0.27  OA
ATOM     36  N   NH2 C   5      23.842  -4.372  49.717  0.91 10.97 LIG-0.11  N 
ENDBRANCH 32 34
ENDBRANCH 29 32
ENDBRANCH 23 28
ENDBRANCH 20 23
ENDBRANCH 1 19
BRANCH 1 37
ATOM     37  CB  HIS C   2      21.031   3.407  47.582  1.00 14.08 LIG 0.10  C 
BRANCH 37 38
ATOM     38  CG  HIS C   2      20.380   4.399  46.687  1.00 15.42 LIG 0.06  A 
ATOM     39  CD2 HIS C   2      20.642   5.709  46.497  1.00 15.59 LIG 0.14  A 
ATOM     40 NE2  HIS C   2      19.750   6.171  45.559  1.00 17.02 LIG-0.25  NA
ATOM     41  CE1 HIS C   2      18.971   5.174  45.183  1.00 16.99 LIG 0.23  A 
ATOM     42 ND1  HIS C   2      19.328   4.092  45.851  0.48 15.92 LIG-0.24  NA
ENDBRANCH 37 38
ENDBRANCH 1 37
TORSDOF 14
ENDMDL
MODEL 113
USER: ADFR SOLUTION from run 19
USER: SCORE 12.356794 LL:  -3.551 LR:  -9.870 RR:   0.000 FEB:  -5.694
USER: RMSD 8.347956
USER: SEED 18
USER: STATUS no improvement in best in 13 clusters for 5 generations
USER: GENES 16
USER: genes 0 Translation |==|  0.37373 0.56809 0.62222
USER: genes 1 Rotation |==|  0.69920 0.86563 0.33089 0.71918
USER: genes 2 Torsion [C]-CA--N-[C] |==|  0.66932
USER: genes 3 Torsion [N]-C--CA-[N] |==|  0.94100
USER: genes 4 Torsion [C]-CA--CB-[CG] |==|  0.82432
USER: genes 5 Torsion [CA]-CB--CG-[CD2] |==|  0.75790
USER: genes 6 Torsion [C]-CA--N-[C] |==|  0.83005
USER: genes 7 Torsion [N]-CA--C-[N] |==|  0.33333
USER: genes 8 Torsion [C]-N--CA-[CB] |==|  0.19806
USER: genes 9 Torsion [N]-CA--CB-[CG2] |==|  0.68423
USER: genes 10 Torsion [CA]-CB--OG1-[HG1] |==|  0.19395
USER: genes 11 Torsion [N]-CA--C-[N] |==|  0.69382
USER: genes 12 Torsion [C]-N--CA-[C] |==|  0.82650
USER: genes 13 Torsion [N]-CA--C-[N] |==|  0.94292
USER: genes 14 Torsion [N]-CA--CB-[CG] |==|  0.45138
USER: genes 15 Torsion [CA]-CB--CG-[ND1] |==|  0.13392
ROOT
ATOM      1  CA  HIS C   2      22.315   3.710  45.402  1.00 11.69 LIG 0.18  C 
ENDROOT
BRANCH 1 2
ATOM      2  N   HIS C   2      21.514   4.734  46.074  1.00 10.87 LIG-0.35  N 
ATOM      3 H    HIS C   2      21.960   5.268  46.578  1.00 10.87 LIG 0.16  HD
ATOM      4  C   PHE C   1      20.201   4.796  45.889  1.00 11.47 LIG 0.24  C 
ATOM      5 O    PHE C   1      19.601   4.094  45.056  1.00 12.97 LIG-0.27  OA
BRANCH 4 6
ATOM      6  CA  PHE C   1      19.458   5.830  46.739  1.00 11.05 LIG 0.18  C 
BRANCH 6 7
ATOM      7  CB  PHE C   1      19.150   7.079  45.906  1.00 10.09 LIG 0.07  C 
BRANCH 7 8
ATOM      8  CG  PHE C   1      20.375   7.797  45.431  1.00  8.73 LIG-0.06  A 
ATOM      9  CD2 PHE C   1      20.982   8.750  46.217  1.00  8.91 LIG 0.01  A 
ATOM     10  CE2 PHE C   1      22.103   9.413  45.764  1.00  8.44 LIG 0.00  A 
ATOM     11  CZ  PHE C   1      22.614   9.133  44.512  1.00  8.32 LIG 0.00  A 
ATOM     12  CE1 PHE C   1      22.018   8.173  43.724  1.00  8.07 LIG 0.00  A 
ATOM     13  CD1 PHE C   1      20.898   7.523  44.179  1.00  8.33 LIG 0.01  A 
ENDBRANCH 7 8
ENDBRANCH 6 7
BRANCH 6 14
ATOM     14  N   PHE C   1      20.227   6.191  47.909  1.00 11.54 LIG-0.35  N 
ATOM     15 H    PHE C   1      20.434   7.025  47.934  1.00 11.54 LIG 0.16  HD
ATOM     16  C   ACE C   0      20.586   5.337  48.854  1.00 13.21 LIG 0.21  C 
ATOM     17  CH3 ACE C   0      21.546   5.798  49.912  1.00 13.47 LIG 0.12  C 
ATOM     18 O    ACE C   0      20.278   4.158  48.684  1.00 14.75 LIG-0.27  OA
ENDBRANCH 6 14
ENDBRANCH 4 6
ENDBRANCH 1 2
BRANCH 1 19
ATOM     19  C   HIS C   2      22.971   2.863  46.457  1.00 11.19 LIG 0.24  C 
ATOM     20  N   THR C   3      22.673   1.571  46.443  1.00 11.67 LIG-0.34  N 
ATOM     21 H    THR C   3      22.109   1.205  45.906  1.00 11.67 LIG 0.16  HD
ATOM     22 O    HIS C   2      23.774   3.349  47.249  1.00 11.10 LIG-0.27  OA
BRANCH 20 23
ATOM     23  CA  THR C   3      23.310   0.662  47.373  1.00 11.71 LIG 0.20  C 
BRANCH 23 24
ATOM     24  CB  THR C   3      22.806   0.867  48.826  1.00 13.34 LIG 0.15  C 
ATOM     25  CG2 THR C   3      23.896   1.389  49.730  1.00 14.42 LIG 0.04  C 
BRANCH 24 26
ATOM     26 OG1  THR C   3      21.734   1.805  48.807  1.00 13.01 LIG-0.39  OA
ATOM     27 HG1  THR C   3      21.063   1.456  48.442  1.00 13.01 LIG 0.21  HD
ENDBRANCH 24 26
ENDBRANCH 23 24
BRANCH 23 28
ATOM     28  C   THR C   3      23.123  -0.793  46.915  1.00 11.33 LIG 0.24  C 
ATOM     29  N   ALA C   4      22.314  -1.551  47.652  1.00 10.31 LIG-0.35  N 
ATOM     30 H    ALA C   4      21.990  -1.319  48.415  1.00 10.31 LIG 0.16  HD
ATOM     31 O    THR C   3      23.703  -1.222  45.909  1.00 11.88 LIG-0.27  OA
BRANCH 29 32
ATOM     32  CA  ALA C   4      21.913  -2.875  47.191  1.00 10.35 LIG 0.18  C 
ATOM     33  CB  ALA C   4      21.119  -3.610  48.281  1.00 10.31 LIG 0.04  C 
BRANCH 32 34
ATOM     34  C   ALA C   4      21.105  -2.786  45.871  1.00 10.99 LIG 0.28  C 
ATOM     35 O    ALA C   4      20.995  -3.762  45.137  0.79 11.43 LIG-0.27  OA
ATOM     36  N   NH2 C   5      20.541  -1.617  45.586  0.91 10.97 LIG-0.11  N 
ENDBRANCH 32 34
ENDBRANCH 29 32
ENDBRANCH 23 28
ENDBRANCH 20 23
ENDBRANCH 1 19
BRANCH 1 37
ATOM     37  CB  HIS C   2      23.429   4.316  44.562  1.00 14.08 LIG 0.10  C 
BRANCH 37 38
ATOM     38  CG  HIS C   2      24.503   3.355  44.198  1.00 15.42 LIG 0.06  A 
ATOM     39  CD2 HIS C   2      25.845   3.470  44.285  1.00 15.59 LIG 0.14  A 
ATOM     40 NE2  HIS C   2      26.385   2.296  43.817  1.00 17.02 LIG-0.25  NA
ATOM     41  CE1 HIS C   2      25.405   1.487  43.460  1.00 16.99 LIG 0.23  A 
ATOM     42 ND1  HIS C   2      24.257   2.103  43.677  0.48 15.92 LIG-0.24  NA
ENDBRANCH 37 38
ENDBRANCH 1 37
TORSDOF 14
ENDMDL
MODEL 114
USER: ADFR SOLUTION from run 3
USER: SCORE 11.822979 LL:  -3.246 LR:  -9.866 RR:   0.000 FEB:  -5.690
USER: RMSD 4.894928
USER: SEED 583094
USER: STATUS no improvement in best in 13 clusters for 5 generations
USER: GENES 16
USER: genes 0 Translation |==|  0.55527 0.44780 0.46357
USER: genes 1 Rotation |==|  0.56104 0.25811 0.09961 0.66569
USER: genes 2 Torsion [C]-CA--N-[C] |==|  0.54446
USER: genes 3 Torsion [N]-C--CA-[N] |==|  0.40192
USER: genes 4 Torsion [C]-CA--CB-[CG] |==|  0.81157
USER: genes 5 Torsion [CA]-CB--CG-[CD2] |==|  0.70830
USER: genes 6 Torsion [C]-CA--N-[C] |==|  0.67480
USER: genes 7 Torsion [N]-CA--C-[N] |==|  0.39929
USER: genes 8 Torsion [C]-N--CA-[CB] |==|  0.22536
USER: genes 9 Torsion [N]-CA--CB-[CG2] |==|  0.74847
USER: genes 10 Torsion [CA]-CB--OG1-[HG1] |==|  0.88186
USER: genes 11 Torsion [N]-CA--C-[N] |==|  0.93027
USER: genes 12 Torsion [C]-N--CA-[C] |==|  0.81661
USER: genes 13 Torsion [N]-CA--C-[N] |==|  0.41421
USER: genes 14 Torsion [N]-CA--CB-[CG] |==|  0.57870
USER: genes 15 Torsion [CA]-CB--CG-[ND1] |==|  0.95872
ROOT
ATOM      1  CA  HIS C   2      25.855   1.726  42.189  1.00 11.69 LIG 0.18  C 
ENDROOT
BRANCH 1 2
ATOM      2  N   HIS C   2      26.509   0.897  41.177  1.00 10.87 LIG-0.35  N 
ATOM      3 H    HIS C   2      27.312   1.133  40.981  1.00 10.87 LIG 0.16  HD
ATOM      4  C   PHE C   1      25.874  -0.132  40.630  1.00 11.47 LIG 0.24  C 
ATOM      5 O    PHE C   1      24.763  -0.529  41.024  1.00 12.97 LIG-0.27  OA
BRANCH 4 6
ATOM      6  CA  PHE C   1      26.616  -0.847  39.498  1.00 11.05 LIG 0.18  C 
BRANCH 6 7
ATOM      7  CB  PHE C   1      26.209  -0.260  38.143  1.00 10.09 LIG 0.07  C 
BRANCH 7 8
ATOM      8  CG  PHE C   1      24.787  -0.548  37.770  1.00  8.73 LIG-0.06  A 
ATOM      9  CD2 PHE C   1      24.487  -1.492  36.815  1.00  8.91 LIG 0.01  A 
ATOM     10  CE2 PHE C   1      23.174  -1.741  36.472  1.00  8.44 LIG 0.00  A 
ATOM     11  CZ  PHE C   1      22.155  -1.031  37.076  1.00  8.32 LIG 0.00  A 
ATOM     12  CE1 PHE C   1      22.447  -0.091  38.040  1.00  8.07 LIG 0.00  A 
ATOM     13  CD1 PHE C   1      23.757   0.156  38.369  1.00  8.33 LIG 0.01  A 
ENDBRANCH 7 8
ENDBRANCH 6 7
BRANCH 6 14
ATOM     14  N   PHE C   1      26.354  -2.269  39.522  1.00 11.54 LIG-0.35  N 
ATOM     15 H    PHE C   1      25.527  -2.464  39.391  1.00 11.54 LIG 0.16  HD
ATOM     16  C   ACE C   0      27.282  -3.192  39.723  1.00 13.21 LIG 0.21  C 
ATOM     17  CH3 ACE C   0      26.849  -4.616  39.919  1.00 13.47 LIG 0.12  C 
ATOM     18 O    ACE C   0      28.423  -2.792  39.951  1.00 14.75 LIG-0.27  OA
ENDBRANCH 6 14
ENDBRANCH 4 6
ENDBRANCH 1 2
BRANCH 1 19
ATOM     19  C   HIS C   2      26.637   3.004  42.324  1.00 11.19 LIG 0.24  C 
ATOM     20  N   THR C   3      25.931   4.104  42.548  1.00 11.67 LIG-0.34  N 
ATOM     21 H    THR C   3      25.072   4.136  42.577  1.00 11.67 LIG 0.16  HD
ATOM     22 O    HIS C   2      27.864   3.001  42.276  1.00 11.10 LIG-0.27  OA
BRANCH 20 23
ATOM     23  CA  THR C   3      26.598   5.371  42.763  1.00 11.71 LIG 0.20  C 
BRANCH 23 24
ATOM     24  CB  THR C   3      27.024   6.040  41.429  1.00 13.34 LIG 0.15  C 
ATOM     25  CG2 THR C   3      28.417   5.632  41.016  1.00 14.42 LIG 0.04  C 
BRANCH 24 26
ATOM     26 OG1  THR C   3      26.108   5.648  40.411  1.00 13.01 LIG-0.39  OA
ATOM     27 HG1  THR C   3      25.940   4.828  40.487  1.00 13.01 LIG 0.21  HD
ENDBRANCH 24 26
ENDBRANCH 23 24
BRANCH 23 28
ATOM     28  C   THR C   3      25.715   6.307  43.602  1.00 11.33 LIG 0.24  C 
ATOM     29  N   ALA C   4      24.402   6.090  43.554  1.00 10.31 LIG-0.35  N 
ATOM     30 H    ALA C   4      24.018   5.549  43.007  1.00 10.31 LIG 0.16  HD
ATOM     31 O    THR C   3      26.214   7.212  44.284  1.00 11.88 LIG-0.27  OA
BRANCH 29 32
ATOM     32  CA  ALA C   4      23.501   6.786  44.465  1.00 10.35 LIG 0.18  C 
ATOM     33  CB  ALA C   4      22.038   6.564  44.053  1.00 10.31 LIG 0.04  C 
BRANCH 32 34
ATOM     34  C   ALA C   4      23.743   6.350  45.932  1.00 10.99 LIG 0.28  C 
ATOM     35 O    ALA C   4      24.137   5.219  46.193  0.79 11.43 LIG-0.27  OA
ATOM     36  N   NH2 C   5      23.512   7.255  46.878  0.91 10.97 LIG-0.11  N 
ENDBRANCH 32 34
ENDBRANCH 29 32
ENDBRANCH 23 28
ENDBRANCH 20 23
ENDBRANCH 1 19
BRANCH 1 37
ATOM     37  CB  HIS C   2      25.850   1.061  43.558  1.00 14.08 LIG 0.10  C 
BRANCH 37 38
ATOM     38  CG  HIS C   2      24.708   1.461  44.421  1.00 15.42 LIG 0.06  A 
ATOM     39  CD2 HIS C   2      24.232   0.903  45.553  1.00 15.59 LIG 0.14  A 
ATOM     40 NE2  HIS C   2      23.158   1.659  45.959  1.00 17.02 LIG-0.25  NA
ATOM     41  CE1 HIS C   2      22.987   2.650  45.104  1.00 16.99 LIG 0.23  A 
ATOM     42 ND1  HIS C   2      23.908   2.553  44.163  0.48 15.92 LIG-0.24  NA
ENDBRANCH 37 38
ENDBRANCH 1 37
TORSDOF 14
ENDMDL
MODEL 115
USER: ADFR SOLUTION from run 95
USER: SCORE 12.248442 LL:  -3.531 LR:  -9.870 RR:   0.000 FEB:  -5.693
USER: RMSD 8.570069
USER: SEED 94
USER: STATUS no improvement in best in 8 clusters for 5 generations
USER: GENES 16
USER: genes 0 Translation |==|  0.40640 0.39039 0.64833
USER: genes 1 Rotation |==|  0.87769 0.79740 0.36613 0.53129
USER: genes 2 Torsion [C]-CA--N-[C] |==|  0.77074
USER: genes 3 Torsion [N]-C--CA-[N] |==|  0.96023
USER: genes 4 Torsion [C]-CA--CB-[CG] |==|  0.01965
USER: genes 5 Torsion [CA]-CB--CG-[CD2] |==|  0.76870
USER: genes 6 Torsion [C]-CA--N-[C] |==|  0.73340
USER: genes 7 Torsion [N]-CA--C-[N] |==|  0.20948
USER: genes 8 Torsion [C]-N--CA-[CB] |==|  0.80743
USER: genes 9 Torsion [N]-CA--CB-[CG2] |==|  0.50492
USER: genes 10 Torsion [CA]-CB--OG1-[HG1] |==|  0.55559
USER: genes 11 Torsion [N]-CA--C-[N] |==|  0.19067
USER: genes 12 Torsion [C]-N--CA-[C] |==|  0.66654
USER: genes 13 Torsion [N]-CA--C-[N] |==|  0.42540
USER: genes 14 Torsion [N]-CA--CB-[CG] |==|  0.82454
USER: genes 15 Torsion [CA]-CB--CG-[ND1] |==|  0.74506
ROOT
ATOM      1  CA  HIS C   2      22.952   0.778  45.931  1.00 11.69 LIG 0.18  C 
ENDROOT
BRANCH 1 2
ATOM      2  N   HIS C   2      23.095   1.392  47.251  1.00 10.87 LIG-0.35  N 
ATOM      3 H    HIS C   2      23.903   1.449  47.537  1.00 10.87 LIG 0.16  HD
ATOM      4  C   PHE C   1      22.029   1.814  47.921  1.00 11.47 LIG 0.24  C 
ATOM      5 O    PHE C   1      20.886   1.837  47.430  1.00 12.97 LIG-0.27  OA
BRANCH 4 6
ATOM      6  CA  PHE C   1      22.294   2.326  49.339  1.00 11.05 LIG 0.18  C 
BRANCH 6 7
ATOM      7  CB  PHE C   1      22.145   3.849  49.390  1.00 10.09 LIG 0.07  C 
BRANCH 7 8
ATOM      8  CG  PHE C   1      21.622   4.442  48.117  1.00  8.73 LIG-0.06  A 
ATOM      9  CD2 PHE C   1      22.469   4.714  47.068  1.00  8.91 LIG 0.01  A 
ATOM     10  CE2 PHE C   1      21.978   5.270  45.905  1.00  8.44 LIG 0.00  A 
ATOM     11  CZ  PHE C   1      20.634   5.568  45.794  1.00  8.32 LIG 0.00  A 
ATOM     12  CE1 PHE C   1      19.778   5.288  46.837  1.00  8.07 LIG 0.00  A 
ATOM     13  CD1 PHE C   1      20.277   4.743  47.994  1.00  8.33 LIG 0.01  A 
ENDBRANCH 7 8
ENDBRANCH 6 7
BRANCH 6 14
ATOM     14  N   PHE C   1      23.612   1.940  49.793  1.00 11.54 LIG-0.35  N 
ATOM     15 H    PHE C   1      24.231   2.477  49.532  1.00 11.54 LIG 0.16  HD
ATOM     16  C   ACE C   0      23.860   0.872  50.534  1.00 13.21 LIG 0.21  C 
ATOM     17  CH3 ACE C   0      25.289   0.477  50.772  1.00 13.47 LIG 0.12  C 
ATOM     18 O    ACE C   0      22.902   0.148  50.802  1.00 14.75 LIG-0.27  OA
ENDBRANCH 6 14
ENDBRANCH 4 6
ENDBRANCH 1 2
BRANCH 1 19
ATOM     19  C   HIS C   2      22.598  -0.671  46.124  1.00 11.19 LIG 0.24  C 
ATOM     20  N   THR C   3      21.350  -0.927  46.491  1.00 11.67 LIG-0.34  N 
ATOM     21 H    THR C   3      20.757  -0.327  46.661  1.00 11.67 LIG 0.16  HD
ATOM     22 O    HIS C   2      23.419  -1.557  45.903  1.00 11.10 LIG-0.27  OA
BRANCH 20 23
ATOM     23  CA  THR C   3      20.894  -2.295  46.633  1.00 11.71 LIG 0.20  C 
BRANCH 23 24
ATOM     24  CB  THR C   3      20.793  -3.020  45.264  1.00 13.34 LIG 0.15  C 
ATOM     25  CG2 THR C   3      20.277  -4.430  45.413  1.00 14.42 LIG 0.04  C 
BRANCH 24 26
ATOM     26 OG1  THR C   3      19.902  -2.288  44.427  1.00 13.01 LIG-0.39  OA
ATOM     27 HG1  THR C   3      19.624  -2.786  43.811  1.00 13.01 LIG 0.21  HD
ENDBRANCH 24 26
ENDBRANCH 23 24
BRANCH 23 28
ATOM     28  C   THR C   3      21.798  -3.063  47.609  1.00 11.33 LIG 0.24  C 
ATOM     29  N   ALA C   4      21.737  -2.701  48.889  1.00 10.31 LIG-0.35  N 
ATOM     30 H    ALA C   4      21.323  -2.005  49.179  1.00 10.31 LIG 0.16  HD
ATOM     31 O    THR C   3      22.539  -3.970  47.210  1.00 11.88 LIG-0.27  OA
BRANCH 29 32
ATOM     32  CA  ALA C   4      22.397  -3.496  49.918  1.00 10.35 LIG 0.18  C 
ATOM     33  CB  ALA C   4      23.517  -2.689  50.591  1.00 10.31 LIG 0.04  C 
BRANCH 32 34
ATOM     34  C   ALA C   4      21.376  -4.018  50.961  1.00 10.99 LIG 0.28  C 
ATOM     35 O    ALA C   4      20.332  -3.412  51.173  0.79 11.43 LIG-0.27  OA
ATOM     36  N   NH2 C   5      21.685  -5.143  51.599  0.91 10.97 LIG-0.11  N 
ENDBRANCH 32 34
ENDBRANCH 29 32
ENDBRANCH 23 28
ENDBRANCH 20 23
ENDBRANCH 1 19
BRANCH 1 37
ATOM     37  CB  HIS C   2      24.250   0.817  45.139  1.00 14.08 LIG 0.10  C 
BRANCH 37 38
ATOM     38  CG  HIS C   2      24.728   2.189  44.826  1.00 15.42 LIG 0.06  A 
ATOM     39  CD2 HIS C   2      25.520   3.021  45.535  1.00 15.59 LIG 0.14  A 
ATOM     40 NE2  HIS C   2      25.657   4.175  44.801  1.00 17.02 LIG-0.25  NA
ATOM     41  CE1 HIS C   2      24.976   4.051  43.678  1.00 16.99 LIG 0.23  A 
ATOM     42 ND1  HIS C   2      24.402   2.861  43.668  0.48 15.92 LIG-0.24  NA
ENDBRANCH 37 38
ENDBRANCH 1 37
TORSDOF 14
ENDMDL
MODEL 116
USER: ADFR SOLUTION from run 146
USER: SCORE 11.375380 LL:  -2.960 LR:  -9.867 RR:   0.000 FEB:  -5.691
USER: RMSD 9.513017
USER: SEED 145
USER: STATUS no improvement in best in 22 clusters for 5 generations
USER: GENES 16
USER: genes 0 Translation |==|  0.41223 0.37589 0.69209
USER: genes 1 Rotation |==|  0.27235 0.77136 0.15243 0.56108
USER: genes 2 Torsion [C]-CA--N-[C] |==|  0.82281
USER: genes 3 Torsion [N]-C--CA-[N] |==|  0.93892
USER: genes 4 Torsion [C]-CA--CB-[CG] |==|  0.42380
USER: genes 5 Torsion [CA]-CB--CG-[CD2] |==|  0.03144
USER: genes 6 Torsion [C]-CA--N-[C] |==|  0.70249
USER: genes 7 Torsion [N]-CA--C-[N] |==|  0.89449
USER: genes 8 Torsion [C]-N--CA-[CB] |==|  0.19755
USER: genes 9 Torsion [N]-CA--CB-[CG2] |==|  0.09137
USER: genes 10 Torsion [CA]-CB--OG1-[HG1] |==|  0.83863
USER: genes 11 Torsion [N]-CA--C-[N] |==|  0.46035
USER: genes 12 Torsion [C]-N--CA-[C] |==|  0.65386
USER: genes 13 Torsion [N]-CA--C-[N] |==|  0.44978
USER: genes 14 Torsion [N]-CA--CB-[CG] |==|  0.73951
USER: genes 15 Torsion [CA]-CB--CG-[ND1] |==|  0.93502
ROOT
ATOM      1  CA  HIS C   2      23.065   0.539  46.817  1.00 11.69 LIG 0.18  C 
ENDROOT
BRANCH 1 2
ATOM      2  N   HIS C   2      22.131   1.635  47.074  1.00 10.87 LIG-0.35  N 
ATOM      3 H    HIS C   2      21.368   1.559  46.685  1.00 10.87 LIG 0.16  HD
ATOM      4  C   PHE C   1      22.477   2.651  47.855  1.00 11.47 LIG 0.24  C 
ATOM      5 O    PHE C   1      23.536   2.673  48.507  1.00 12.97 LIG-0.27  OA
BRANCH 4 6
ATOM      6  CA  PHE C   1      21.462   3.794  47.950  1.00 11.05 LIG 0.18  C 
BRANCH 6 7
ATOM      7  CB  PHE C   1      20.652   3.677  49.245  1.00 10.09 LIG 0.07  C 
BRANCH 7 8
ATOM      8  CG  PHE C   1      20.141   4.992  49.750  1.00  8.73 LIG-0.06  A 
ATOM      9  CD2 PHE C   1      20.204   6.120  48.965  1.00  8.91 LIG 0.01  A 
ATOM     10  CE2 PHE C   1      19.740   7.327  49.445  1.00  8.44 LIG 0.00  A 
ATOM     11  CZ  PHE C   1      19.224   7.411  50.723  1.00  8.32 LIG 0.00  A 
ATOM     12  CE1 PHE C   1      19.149   6.283  51.511  1.00  8.07 LIG 0.00  A 
ATOM     13  CD1 PHE C   1      19.620   5.088  51.028  1.00  8.33 LIG 0.01  A 
ENDBRANCH 7 8
ENDBRANCH 6 7
BRANCH 6 14
ATOM     14  N   PHE C   1      20.576   3.797  46.807  1.00 11.54 LIG-0.35  N 
ATOM     15 H    PHE C   1      20.001   3.157  46.823  1.00 11.54 LIG 0.16  HD
ATOM     16  C   ACE C   0      20.629   4.685  45.828  1.00 13.21 LIG 0.21  C 
ATOM     17  CH3 ACE C   0      19.784   4.462  44.608  1.00 13.47 LIG 0.12  C 
ATOM     18 O    ACE C   0      21.528   5.523  45.887  1.00 14.75 LIG-0.27  OA
ENDBRANCH 6 14
ENDBRANCH 4 6
ENDBRANCH 1 2
BRANCH 1 19
ATOM     19  C   HIS C   2      24.252   1.099  46.081  1.00 11.19 LIG 0.24  C 
ATOM     20  N   THR C   3      23.996   2.037  45.179  1.00 11.67 LIG-0.34  N 
ATOM     21 H    THR C   3      23.208   2.307  44.965  1.00 11.67 LIG 0.16  HD
ATOM     22 O    HIS C   2      25.393   0.731  46.349  1.00 11.10 LIG-0.27  OA
BRANCH 20 23
ATOM     23  CA  THR C   3      25.079   2.687  44.470  1.00 11.71 LIG 0.20  C 
BRANCH 23 24
ATOM     24  CB  THR C   3      25.759   1.738  43.448  1.00 13.34 LIG 0.15  C 
ATOM     25  CG2 THR C   3      24.777   0.762  42.848  1.00 14.42 LIG 0.04  C 
BRANCH 24 26
ATOM     26 OG1  THR C   3      26.323   2.525  42.403  1.00 13.01 LIG-0.39  OA
ATOM     27 HG1  THR C   3      25.721   2.985  42.042  1.00 13.01 LIG 0.21  HD
ENDBRANCH 24 26
ENDBRANCH 23 24
BRANCH 23 28
ATOM     28  C   THR C   3      24.581   3.974  43.795  1.00 11.33 LIG 0.24  C 
ATOM     29  N   ALA C   4      25.514   4.820  43.362  1.00 10.31 LIG-0.35  N 
ATOM     30 H    ALA C   4      26.354   4.749  43.535  1.00 10.31 LIG 0.16  HD
ATOM     31 O    THR C   3      23.370   4.199  43.670  1.00 11.88 LIG-0.27  OA
BRANCH 29 32
ATOM     32  CA  ALA C   4      25.152   5.963  42.533  1.00 10.35 LIG 0.18  C 
ATOM     33  CB  ALA C   4      25.356   7.276  43.303  1.00 10.31 LIG 0.04  C 
BRANCH 32 34
ATOM     34  C   ALA C   4      25.948   5.963  41.203  1.00 10.99 LIG 0.28  C 
ATOM     35 O    ALA C   4      26.968   5.293  41.082  0.79 11.43 LIG-0.27  OA
ATOM     36  N   NH2 C   5      25.471   6.711  40.213  0.91 10.97 LIG-0.11  N 
ENDBRANCH 32 34
ENDBRANCH 29 32
ENDBRANCH 23 28
ENDBRANCH 20 23
ENDBRANCH 1 19
BRANCH 1 37
ATOM     37  CB  HIS C   2      22.457  -0.535  45.927  1.00 14.08 LIG 0.10  C 
BRANCH 37 38
ATOM     38  CG  HIS C   2      21.832  -1.657  46.675  1.00 15.42 LIG 0.06  A 
ATOM     39  CD2 HIS C   2      20.873  -2.529  46.301  1.00 15.59 LIG 0.14  A 
ATOM     40 NE2  HIS C   2      20.652  -3.372  47.364  1.00 17.02 LIG-0.25  NA
ATOM     41  CE1 HIS C   2      21.453  -3.028  48.355  1.00 16.99 LIG 0.23  A 
ATOM     42 ND1  HIS C   2      22.176  -1.993  47.967  0.48 15.92 LIG-0.24  NA
ENDBRANCH 37 38
ENDBRANCH 1 37
TORSDOF 14
ENDMDL
MODEL 117
USER: ADFR SOLUTION from run 2
USER: SCORE 12.174045 LL:  -3.827 LR:  -9.866 RR:   0.000 FEB:  -5.690
USER: RMSD 9.220249
USER: SEED 687100
USER: STATUS no improvement in best in 39 clusters for 5 generations
USER: GENES 16
USER: genes 0 Translation |==|  0.48174 0.32726 0.34734
USER: genes 1 Rotation |==|  0.53764 0.05909 0.72516 0.55905
USER: genes 2 Torsion [C]-CA--N-[C] |==|  0.81606
USER: genes 3 Torsion [N]-C--CA-[N] |==|  0.86748
USER: genes 4 Torsion [C]-CA--CB-[CG] |==|  0.20176
USER: genes 5 Torsion [CA]-CB--CG-[CD2] |==|  0.51256
USER: genes 6 Torsion [C]-CA--N-[C] |==|  0.80056
USER: genes 7 Torsion [N]-CA--C-[N] |==|  0.92619
USER: genes 8 Torsion [C]-N--CA-[CB] |==|  0.50000
USER: genes 9 Torsion [N]-CA--CB-[CG2] |==|  0.34372
USER: genes 10 Torsion [CA]-CB--OG1-[HG1] |==|  0.62706
USER: genes 11 Torsion [N]-CA--C-[N] |==|  0.92152
USER: genes 12 Torsion [C]-N--CA-[C] |==|  0.78123
USER: genes 13 Torsion [N]-CA--C-[N] |==|  0.40463
USER: genes 14 Torsion [N]-CA--CB-[CG] |==|  0.47117
USER: genes 15 Torsion [CA]-CB--CG-[ND1] |==|  0.28517
ROOT
ATOM      1  CA  HIS C   2      24.421  -0.263  39.836  1.00 11.69 LIG 0.18  C 
ENDROOT
BRANCH 1 2
ATOM      2  N   HIS C   2      24.778   0.696  40.880  1.00 10.87 LIG-0.35  N 
ATOM      3 H    HIS C   2      24.464   1.489  40.766  1.00 10.87 LIG 0.16  HD
ATOM      4  C   PHE C   1      25.532   0.328  41.909  1.00 11.47 LIG 0.24  C 
ATOM      5 O    PHE C   1      25.865  -0.852  42.116  1.00 12.97 LIG-0.27  OA
BRANCH 4 6
ATOM      6  CA  PHE C   1      25.939   1.448  42.871  1.00 11.05 LIG 0.18  C 
BRANCH 6 7
ATOM      7  CB  PHE C   1      24.747   1.856  43.743  1.00 10.09 LIG 0.07  C 
BRANCH 7 8
ATOM      8  CG  PHE C   1      24.398   0.842  44.789  1.00  8.73 LIG-0.06  A 
ATOM      9  CD2 PHE C   1      23.296   1.014  45.595  1.00  8.91 LIG 0.01  A 
ATOM     10  CE2 PHE C   1      22.990   0.079  46.562  1.00  8.44 LIG 0.00  A 
ATOM     11  CZ  PHE C   1      23.798  -1.027  46.735  1.00  8.32 LIG 0.00  A 
ATOM     12  CE1 PHE C   1      24.897  -1.211  45.925  1.00  8.07 LIG 0.00  A 
ATOM     13  CD1 PHE C   1      25.199  -0.271  44.970  1.00  8.33 LIG 0.01  A 
ENDBRANCH 7 8
ENDBRANCH 6 7
BRANCH 6 14
ATOM     14  N   PHE C   1      26.442   2.596  42.148  1.00 11.54 LIG-0.35  N 
ATOM     15 H    PHE C   1      25.902   3.265  42.158  1.00 11.54 LIG 0.16  HD
ATOM     16  C   ACE C   0      27.611   2.630  41.530  1.00 13.21 LIG 0.21  C 
ATOM     17  CH3 ACE C   0      27.928   3.808  40.655  1.00 13.47 LIG 0.12  C 
ATOM     18 O    ACE C   0      28.275   1.594  41.540  1.00 14.75 LIG-0.27  OA
ENDBRANCH 6 14
ENDBRANCH 4 6
ENDBRANCH 1 2
BRANCH 1 19
ATOM     19  C   HIS C   2      25.678  -0.651  39.107  1.00 11.19 LIG 0.24  C 
ATOM     20  N   THR C   3      26.659   0.241  39.110  1.00 11.67 LIG-0.34  N 
ATOM     21 H    THR C   3      26.605   1.025  39.460  1.00 11.67 LIG 0.16  HD
ATOM     22 O    HIS C   2      25.791  -1.757  38.585  1.00 11.10 LIG-0.27  OA
BRANCH 20 23
ATOM     23  CA  THR C   3      27.934  -0.069  38.497  1.00 11.71 LIG 0.20  C 
BRANCH 23 24
ATOM     24  CB  THR C   3      28.938   1.110  38.612  1.00 13.34 LIG 0.15  C 
ATOM     25  CG2 THR C   3      30.219   0.691  39.289  1.00 14.42 LIG 0.04  C 
BRANCH 24 26
ATOM     26 OG1  THR C   3      29.239   1.579  37.301  1.00 13.01 LIG-0.39  OA
ATOM     27 HG1  THR C   3      30.069   1.687  37.226  1.00 13.01 LIG 0.21  HD
ENDBRANCH 24 26
ENDBRANCH 23 24
BRANCH 23 28
ATOM     28  C   THR C   3      28.515  -1.360  39.092  1.00 11.33 LIG 0.24  C 
ATOM     29  N   ALA C   4      28.168  -1.650  40.344  1.00 10.31 LIG-0.35  N 
ATOM     30 H    ALA C   4      27.744  -1.115  40.868  1.00 10.31 LIG 0.16  HD
ATOM     31 O    THR C   3      29.268  -2.084  38.427  1.00 11.88 LIG-0.27  OA
BRANCH 29 32
ATOM     32  CA  ALA C   4      28.499  -2.945  40.926  1.00 10.35 LIG 0.18  C 
ATOM     33  CB  ALA C   4      28.527  -2.859  42.459  1.00 10.31 LIG 0.04  C 
BRANCH 32 34
ATOM     34  C   ALA C   4      27.515  -4.042  40.444  1.00 10.99 LIG 0.28  C 
ATOM     35 O    ALA C   4      26.338  -3.777  40.228  0.79 11.43 LIG-0.27  OA
ATOM     36  N   NH2 C   5      28.009  -5.264  40.273  0.91 10.97 LIG-0.11  N 
ENDBRANCH 32 34
ENDBRANCH 29 32
ENDBRANCH 23 28
ENDBRANCH 20 23
ENDBRANCH 1 19
BRANCH 1 37
ATOM     37  CB  HIS C   2      23.477   0.338  38.805  1.00 14.08 LIG 0.10  C 
BRANCH 37 38
ATOM     38  CG  HIS C   2      23.278  -0.509  37.600  1.00 15.42 LIG 0.06  A 
ATOM     39  CD2 HIS C   2      24.078  -0.710  36.531  1.00 15.59 LIG 0.14  A 
ATOM     40 NE2  HIS C   2      23.427  -1.586  35.695  1.00 17.02 LIG-0.25  NA
ATOM     41  CE1 HIS C   2      22.269  -1.914  36.238  1.00 16.99 LIG 0.23  A 
ATOM     42 ND1  HIS C   2      22.152  -1.275  37.388  0.48 15.92 LIG-0.24  NA
ENDBRANCH 37 38
ENDBRANCH 1 37
TORSDOF 14
ENDMDL
