MODEL 1
USER: ADFR SOLUTION from run 96
USER: SCORE 21.549294 LL:  -1.393 LR: -22.563 RR:   0.000 FEB: -13.912
USER: RMSD 7.049978
USER: SEED 95
USER: STATUS 1 or 2 clusters left
USER: GENES 31
USER: genes 0 Translation |==|  0.50043 0.57891 0.46470
USER: genes 1 Rotation |==|  0.02293 0.35819 0.48410 0.54522
USER: genes 2 Torsion [CB]-CA--N-[C] |==|  0.33485
USER: genes 3 Torsion [N]-C--CA-[N] |==|  0.18498
USER: genes 4 Torsion [C]-CA--CB-[CG] |==|  0.51147
USER: genes 5 Torsion [CA]-CB--CG-[CD] |==|  0.32752
USER: genes 6 Torsion [CB]-CG--CD-[CE] |==|  0.28935
USER: genes 7 Torsion [CG]-CD--CE-[NZ] |==|  0.37077
USER: genes 8 Torsion [CD]-CE--NZ-[HZ3] |==|  0.67409
USER: genes 9 Torsion [C]-CA--N-[C] |==|  0.68757
USER: genes 10 Torsion [N]-C--CA-[N] |==|  0.90825
USER: genes 11 Torsion [C]-CA--CB-[CG] |==|  0.12740
USER: genes 12 Torsion [CA]-CB--CG-[CD] |==|  0.70175
USER: genes 13 Torsion [CB]-CG--CD-[CE] |==|  0.44758
USER: genes 14 Torsion [CG]-CD--CE-[NZ] |==|  0.49854
USER: genes 15 Torsion [CD]-CE--NZ-[HZ3] |==|  0.37449
USER: genes 16 Torsion [N]-CA--CB-[CG] |==|  0.52698
USER: genes 17 Torsion [CA]-CB--CG-[CD] |==|  0.44402
USER: genes 18 Torsion [CB]-CG--CD-[NE] |==|  0.68474
USER: genes 19 Torsion [CG]-CD--NE-[HE] |==|  0.20717
USER: genes 20 Torsion [N]-CA--C-[N] |==|  0.22654
USER: genes 21 Torsion [C]-N--CA-[C] |==|  0.72028
USER: genes 22 Torsion [N]-CA--CB-[CG] |==|  0.18325
USER: genes 23 Torsion [CA]-CB--CG-[CD] |==|  0.36881
USER: genes 24 Torsion [CB]-CG--CD-[CE] |==|  0.73804
USER: genes 25 Torsion [CG]-CD--CE-[NZ] |==|  0.74267
USER: genes 26 Torsion [CD]-CE--NZ-[HZ1] |==|  0.83458
USER: genes 27 Torsion [N]-CA--C-[N] |==|  0.45556
USER: genes 28 Torsion [C]-N--CA-[C] |==|  0.31464
USER: genes 29 Torsion [N]-CA--C-[O] |==|  0.23079
USER: genes 30 Torsion [N]-CA--CB-[CG2] |==|  0.63462
ROOT
ATOM      1  CA  ARG C 130      22.180   4.968  13.278  1.00 44.25 LIG 0.18  C 
ENDROOT
BRANCH 1 2
ATOM      2  N   ARG C 130      20.754   4.713  13.381  1.00 44.77 LIG-0.35  N 
ATOM      3  C   LYS C 129      20.234   3.514  13.157  1.00 47.82 LIG 0.24  C 
ATOM      4 O    LYS C 129      20.918   2.516  12.923  1.00 51.43 LIG-0.27  OA
ATOM      5 H    ARG C 130      20.288   5.403  13.598  1.00 44.77 LIG 0.16  HD
BRANCH 3 6
ATOM      6  CA  LYS C 129      18.712   3.435  13.191  1.00 47.52 LIG 0.18  C 
BRANCH 6 7
ATOM      7  CB  LYS C 129      18.262   1.983  13.146  1.00 47.19 LIG 0.04  C 
BRANCH 7 8
ATOM      8  CG  LYS C 129      16.768   1.812  13.077  1.00 46.82 LIG 0.00  C 
BRANCH 8 9
ATOM      9  CD  LYS C 129      16.326   1.118  11.811  1.00 42.25 LIG 0.03  C 
BRANCH 9 10
ATOM     10  CE  LYS C 129      15.953  -0.320  12.117  1.00 38.25 LIG 0.23  C 
BRANCH 10 11
ATOM     11  NZ  LYS C 129      14.658  -0.761  11.510  1.00 36.45 LIG-0.08  N 
ATOM     12 HZ3  LYS C 129      14.084  -0.974  12.156  1.00 36.45 LIG 0.27  HD
ATOM     13 HZ2  LYS C 129      14.800  -1.472  10.993  1.00 36.45 LIG 0.27  HD
ATOM     14 HZ1  LYS C 129      14.320  -0.101  11.019  1.00 36.45 LIG 0.27  HD
ENDBRANCH 10 11
ENDBRANCH 9 10
ENDBRANCH 8 9
ENDBRANCH 7 8
ENDBRANCH 6 7
BRANCH 6 15
ATOM     15  N   LYS C 129      18.160   4.194  12.073  1.00 50.72 LIG-0.35  N 
ATOM     16 H    LYS C 129      18.323   3.858  11.298  1.00 50.72 LIG 0.16  HD
ATOM     17  C   LYS C 128      17.464   5.314  12.273  1.00 53.52 LIG 0.26  C 
ATOM     18 O    LYS C 128      17.125   5.719  13.401  1.00 51.22 LIG-0.27  OA
BRANCH 17 19
ATOM     19  CA  LYS C 128      17.054   6.090  11.016  1.00 56.35 LIG 0.40  C 
ATOM     20  N   LYS C 128      18.041   5.983   9.941  1.00 59.98 LIG 0.61  N 
BRANCH 19 21
ATOM     21  CB  LYS C 128      15.702   5.584  10.544  1.00 54.38 LIG 0.05  C 
BRANCH 21 22
ATOM     22  CG  LYS C 128      14.710   5.443  11.660  1.00 63.27 LIG 0.00  C 
BRANCH 22 23
ATOM     23  CD  LYS C 128      14.450   4.000  12.008  1.00 66.98 LIG 0.03  C 
BRANCH 23 24
ATOM     24  CE  LYS C 128      13.832   3.835  13.392  1.00 66.03 LIG 0.23  C 
BRANCH 24 25
ATOM     25  NZ  LYS C 128      13.583   2.390  13.683  1.00 67.41 LIG-0.08  N 
ATOM     26 HZ3  LYS C 128      13.858   2.202  14.508  1.00 67.41 LIG 0.27  HD
ATOM     27 HZ2  LYS C 128      14.030   1.889  13.099  1.00 67.41 LIG 0.27  HD
ATOM     28 HZ1  LYS C 128      12.712   2.219  13.614  1.00 67.41 LIG 0.27  HD
ENDBRANCH 24 25
ENDBRANCH 23 24
ENDBRANCH 22 23
ENDBRANCH 21 22
ENDBRANCH 19 21
ENDBRANCH 17 19
ENDBRANCH 6 15
ENDBRANCH 3 6
ENDBRANCH 1 2
BRANCH 1 29
ATOM     29  CB  ARG C 130      22.426   6.041  12.223  1.00 44.07 LIG 0.04  C 
BRANCH 29 30
ATOM     30  CG  ARG C 130      23.886   6.228  11.858  1.00 48.13 LIG 0.02  C 
BRANCH 30 31
ATOM     31  CD  ARG C 130      24.005   6.913  10.506  1.00 53.98 LIG 0.14  C 
BRANCH 31 32
ATOM     32  NE  ARG C 130      24.587   6.017   9.525  1.00 57.03 LIG-0.23  N 
ATOM     33  CZ  ARG C 130      25.829   6.092   9.064  1.00 53.36 LIG 0.67  C 
ATOM     34  NH1 ARG C 130      26.660   7.041   9.474  1.00 46.68 LIG-0.23  N 
ATOM     35  NH2 ARG C 130      26.239   5.203   8.171  1.00 54.86 LIG-0.23  N 
ATOM     36 1HH1 ARG C 130      26.397   7.623  10.049  1.00 46.68 LIG 0.17  HD
ATOM     37 2HH1 ARG C 130      27.461   7.073   9.164  1.00 46.68 LIG 0.17  HD
ATOM     38 1HH2 ARG C 130      25.702   4.588   7.898  1.00 54.86 LIG 0.17  HD
ATOM     39 2HH2 ARG C 130      27.041   5.240   7.864  1.00 54.86 LIG 0.17  HD
ATOM     40 HE   ARG C 130      24.087   5.388   9.218  1.00 57.03 LIG 0.18  HD
ENDBRANCH 31 32
ENDBRANCH 30 31
ENDBRANCH 29 30
ENDBRANCH 1 29
BRANCH 1 41
ATOM     41  C   ARG C 130      22.716   5.460  14.600  1.00 43.16 LIG 0.24  C 
ATOM     42  N   LYS C 131      22.988   4.523  15.512  1.00 46.51 LIG-0.35  N 
ATOM     43 H    LYS C 131      22.844   3.685  15.379  1.00 46.51 LIG 0.16  HD
ATOM     44 O    ARG C 130      22.897   6.663  14.769  1.00 41.50 LIG-0.27  OA
BRANCH 42 45
ATOM     45  CA  LYS C 131      23.557   4.815  16.830  1.00 53.22 LIG 0.18  C 
BRANCH 45 46
ATOM     46  CB  LYS C 131      22.894   3.948  17.910  1.00 55.01 LIG 0.04  C 
BRANCH 46 47
ATOM     47  CG  LYS C 131      23.161   2.459  17.798  1.00 52.38 LIG 0.00  C 
BRANCH 47 48
ATOM     48  CD  LYS C 131      23.560   1.864  19.131  1.00 48.84 LIG 0.03  C 
BRANCH 48 49
ATOM     49  CE  LYS C 131      25.057   1.816  19.282  1.00 46.73 LIG 0.23  C 
BRANCH 49 50
ATOM     50  NZ  LYS C 131      25.544   0.502  18.814  1.00 43.41 LIG-0.08  N 
ATOM     51 HZ1  LYS C 131      25.168  -0.143  19.297  1.00 43.41 LIG 0.27  HD
ATOM     52 HZ3  LYS C 131      26.429   0.463  18.906  1.00 43.41 LIG 0.27  HD
ATOM     53 HZ2  LYS C 131      25.331   0.394  17.956  1.00 43.41 LIG 0.27  HD
ENDBRANCH 49 50
ENDBRANCH 48 49
ENDBRANCH 47 48
ENDBRANCH 46 47
ENDBRANCH 45 46
BRANCH 45 54
ATOM     54  C   LYS C 131      25.048   4.531  16.855  1.00 59.91 LIG 0.24  C 
ATOM     55  N   VAL C 132      25.707   5.069  17.879  1.00 72.80 LIG-0.35  N 
ATOM     56 H    VAL C 132      25.348   5.655  18.397  1.00 72.80 LIG 0.16  HD
ATOM     57 O    LYS C 131      25.567   3.858  15.971  1.00 55.62 LIG-0.27  OA
BRANCH 55 58
ATOM     58  CA  VAL C 132      27.088   4.749  18.252  1.00 46.38 LIG 0.17  C 
BRANCH 58 59
ATOM     59  C   VAL C 132      28.029   5.936  18.046  1.00 55.18 LIG 0.22  C 
ATOM     60 O    VAL C 132      28.117   6.814  18.917  1.00 55.70 LIG-0.29  OA
ENDBRANCH 58 59
BRANCH 58 61
ATOM     61  CB  VAL C 132      27.611   3.447  17.579  1.00 53.16 LIG 0.01  C 
ATOM     62  CG2 VAL C 132      28.253   2.573  18.630  1.00 49.68 LIG 0.01  C 
ATOM     63  CG1 VAL C 132      28.568   3.733  16.431  1.00 55.70 LIG 0.01  C 
ENDBRANCH 58 61
ENDBRANCH 55 58
ENDBRANCH 45 54
ENDBRANCH 42 45
ENDBRANCH 1 41
TORSDOF 29
ENDMDL
MODEL 2
USER: ADFR SOLUTION from run 163
USER: SCORE 22.597812 LL:  -2.509 LR: -22.056 RR:   0.000 FEB: -13.405
USER: RMSD 7.989487
USER: SEED 162
USER: STATUS no improvement in best in 3 clusters for 5 generations
USER: GENES 31
USER: genes 0 Translation |==|  0.38193 0.53005 0.52597
USER: genes 1 Rotation |==|  0.82413 0.22603 0.58730 0.74952
USER: genes 2 Torsion [CB]-CA--N-[C] |==|  0.42342
USER: genes 3 Torsion [N]-C--CA-[N] |==|  0.38031
USER: genes 4 Torsion [C]-CA--CB-[CG] |==|  0.42677
USER: genes 5 Torsion [CA]-CB--CG-[CD] |==|  0.83684
USER: genes 6 Torsion [CB]-CG--CD-[CE] |==|  0.51139
USER: genes 7 Torsion [CG]-CD--CE-[NZ] |==|  0.56939
USER: genes 8 Torsion [CD]-CE--NZ-[HZ3] |==|  0.89519
USER: genes 9 Torsion [C]-CA--N-[C] |==|  0.68539
USER: genes 10 Torsion [N]-C--CA-[N] |==|  0.39135
USER: genes 11 Torsion [C]-CA--CB-[CG] |==|  0.06780
USER: genes 12 Torsion [CA]-CB--CG-[CD] |==|  0.56568
USER: genes 13 Torsion [CB]-CG--CD-[CE] |==|  0.63892
USER: genes 14 Torsion [CG]-CD--CE-[NZ] |==|  0.56269
USER: genes 15 Torsion [CD]-CE--NZ-[HZ3] |==|  0.71940
USER: genes 16 Torsion [N]-CA--CB-[CG] |==|  0.94409
USER: genes 17 Torsion [CA]-CB--CG-[CD] |==|  0.79110
USER: genes 18 Torsion [CB]-CG--CD-[NE] |==|  0.76105
USER: genes 19 Torsion [CG]-CD--NE-[HE] |==|  0.04857
USER: genes 20 Torsion [N]-CA--C-[N] |==|  0.62989
USER: genes 21 Torsion [C]-N--CA-[C] |==|  0.78913
USER: genes 22 Torsion [N]-CA--CB-[CG] |==|  0.44905
USER: genes 23 Torsion [CA]-CB--CG-[CD] |==|  0.69559
USER: genes 24 Torsion [CB]-CG--CD-[CE] |==|  0.42068
USER: genes 25 Torsion [CG]-CD--CE-[NZ] |==|  0.37958
USER: genes 26 Torsion [CD]-CE--NZ-[HZ1] |==|  0.07036
USER: genes 27 Torsion [N]-CA--C-[N] |==|  0.88750
USER: genes 28 Torsion [C]-N--CA-[C] |==|  0.14121
USER: genes 29 Torsion [N]-CA--C-[O] |==|  0.18036
USER: genes 30 Torsion [N]-CA--CB-[CG2] |==|  0.24516
ROOT
ATOM      1  CA  ARG C 130      18.980   4.198  14.611  1.00 44.25 LIG 0.18  C 
ENDROOT
BRANCH 1 2
ATOM      2  N   ARG C 130      19.105   4.984  13.396  1.00 44.77 LIG-0.35  N 
ATOM      3  C   LYS C 129      18.399   6.089  13.196  1.00 47.82 LIG 0.24  C 
ATOM      4 O    LYS C 129      17.649   6.573  14.045  1.00 51.43 LIG-0.27  OA
ATOM      5 H    ARG C 130      19.670   4.669  12.829  1.00 44.77 LIG 0.16  HD
BRANCH 3 6
ATOM      6  CA  LYS C 129      18.556   6.736  11.824  1.00 47.52 LIG 0.18  C 
BRANCH 6 7
ATOM      7  CB  LYS C 129      19.513   7.915  11.909  1.00 47.19 LIG 0.04  C 
BRANCH 7 8
ATOM      8  CG  LYS C 129      20.215   8.220  10.613  1.00 46.82 LIG 0.00  C 
BRANCH 8 9
ATOM      9  CD  LYS C 129      21.020   7.048  10.104  1.00 42.25 LIG 0.03  C 
BRANCH 9 10
ATOM     10  CE  LYS C 129      21.780   7.452   8.855  1.00 38.25 LIG 0.23  C 
BRANCH 10 11
ATOM     11  NZ  LYS C 129      22.120   6.311   7.947  1.00 36.45 LIG-0.08  N 
ATOM     12 HZ3  LYS C 129      22.334   5.597   8.434  1.00 36.45 LIG 0.27  HD
ATOM     13 HZ2  LYS C 129      22.810   6.536   7.432  1.00 36.45 LIG 0.27  HD
ATOM     14 HZ1  LYS C 129      21.418   6.119   7.435  1.00 36.45 LIG 0.27  HD
ENDBRANCH 10 11
ENDBRANCH 9 10
ENDBRANCH 8 9
ENDBRANCH 7 8
ENDBRANCH 6 7
BRANCH 6 15
ATOM     15  N   LYS C 129      17.248   7.150  11.329  1.00 50.72 LIG-0.35  N 
ATOM     16 H    LYS C 129      16.880   7.785  11.777  1.00 50.72 LIG 0.16  HD
ATOM     17  C   LYS C 128      16.695   6.569  10.263  1.00 53.52 LIG 0.26  C 
ATOM     18 O    LYS C 128      17.290   5.742   9.546  1.00 51.22 LIG-0.27  OA
BRANCH 17 19
ATOM     19  CA  LYS C 128      15.263   6.998   9.923  1.00 56.35 LIG 0.40  C 
ATOM     20  N   LYS C 128      15.039   7.125   8.483  1.00 59.98 LIG 0.61  N 
BRANCH 19 21
ATOM     21  CB  LYS C 128      14.293   5.993  10.522  1.00 54.38 LIG 0.05  C 
BRANCH 21 22
ATOM     22  CG  LYS C 128      14.868   5.257  11.697  1.00 63.27 LIG 0.00  C 
BRANCH 22 23
ATOM     23  CD  LYS C 128      14.190   3.931  11.921  1.00 66.98 LIG 0.03  C 
BRANCH 23 24
ATOM     24  CE  LYS C 128      13.748   3.737  13.368  1.00 66.03 LIG 0.23  C 
BRANCH 24 25
ATOM     25  NZ  LYS C 128      13.598   2.283  13.677  1.00 67.41 LIG-0.08  N 
ATOM     26 HZ3  LYS C 128      12.736   2.063  13.652  1.00 67.41 LIG 0.27  HD
ATOM     27 HZ2  LYS C 128      13.923   2.117  14.489  1.00 67.41 LIG 0.27  HD
ATOM     28 HZ1  LYS C 128      14.044   1.803  13.075  1.00 67.41 LIG 0.27  HD
ENDBRANCH 24 25
ENDBRANCH 23 24
ENDBRANCH 22 23
ENDBRANCH 21 22
ENDBRANCH 19 21
ENDBRANCH 17 19
ENDBRANCH 6 15
ENDBRANCH 3 6
ENDBRANCH 1 2
BRANCH 1 29
ATOM     29  CB  ARG C 130      19.323   2.744  14.308  1.00 44.07 LIG 0.04  C 
BRANCH 29 30
ATOM     30  CG  ARG C 130      19.226   2.377  12.840  1.00 48.13 LIG 0.02  C 
BRANCH 30 31
ATOM     31  CD  ARG C 130      17.769   2.242  12.428  1.00 53.98 LIG 0.14  C 
BRANCH 31 32
ATOM     32  NE  ARG C 130      17.278   0.905  12.702  1.00 57.03 LIG-0.23  N 
ATOM     33  CZ  ARG C 130      16.184   0.370  12.175  1.00 53.36 LIG 0.67  C 
ATOM     34  NH1 ARG C 130      15.419   1.053  11.334  1.00 46.68 LIG-0.23  N 
ATOM     35  NH2 ARG C 130      15.851  -0.869  12.506  1.00 54.86 LIG-0.23  N 
ATOM     36 1HH1 ARG C 130      15.629   1.859  11.121  1.00 46.68 LIG 0.17  HD
ATOM     37 2HH1 ARG C 130      14.714   0.689  11.003  1.00 46.68 LIG 0.17  HD
ATOM     38 1HH2 ARG C 130      16.340  -1.314  13.056  1.00 54.86 LIG 0.17  HD
ATOM     39 2HH2 ARG C 130      15.144  -1.227  12.172  1.00 54.86 LIG 0.17  HD
ATOM     40 HE   ARG C 130      17.732   0.422  13.250  1.00 57.03 LIG 0.18  HD
ENDBRANCH 31 32
ENDBRANCH 30 31
ENDBRANCH 29 30
ENDBRANCH 1 29
BRANCH 1 41
ATOM     41  C   ARG C 130      19.935   4.711  15.661  1.00 43.16 LIG 0.24  C 
ATOM     42  N   LYS C 131      20.657   3.788  16.302  1.00 46.51 LIG-0.35  N 
ATOM     43 H    LYS C 131      20.573   2.944  16.156  1.00 46.51 LIG 0.16  HD
ATOM     44 O    ARG C 130      20.023   5.919  15.860  1.00 41.50 LIG-0.27  OA
BRANCH 42 45
ATOM     45  CA  LYS C 131      21.664   4.107  17.317  1.00 53.22 LIG 0.18  C 
BRANCH 45 46
ATOM     46  CB  LYS C 131      22.032   2.856  18.128  1.00 55.01 LIG 0.04  C 
BRANCH 46 47
ATOM     47  CG  LYS C 131      23.339   2.941  18.891  1.00 52.38 LIG 0.00  C 
BRANCH 47 48
ATOM     48  CD  LYS C 131      24.398   2.045  18.286  1.00 48.84 LIG 0.03  C 
BRANCH 48 49
ATOM     49  CE  LYS C 131      25.779   2.588  18.533  1.00 46.73 LIG 0.23  C 
BRANCH 49 50
ATOM     50  NZ  LYS C 131      26.667   1.475  18.929  1.00 43.41 LIG-0.08  N 
ATOM     51 HZ1  LYS C 131      26.349   0.711  18.602  1.00 43.41 LIG 0.27  HD
ATOM     52 HZ3  LYS C 131      26.703   1.425  19.817  1.00 43.41 LIG 0.27  HD
ATOM     53 HZ2  LYS C 131      27.485   1.618  18.608  1.00 43.41 LIG 0.27  HD
ENDBRANCH 49 50
ENDBRANCH 48 49
ENDBRANCH 47 48
ENDBRANCH 46 47
ENDBRANCH 45 46
BRANCH 45 54
ATOM     54  C   LYS C 131      22.935   4.636  16.676  1.00 59.91 LIG 0.24  C 
ATOM     55  N   VAL C 132      23.305   4.010  15.561  1.00 72.80 LIG-0.35  N 
ATOM     56 H    VAL C 132      22.944   3.272  15.308  1.00 72.80 LIG 0.16  HD
ATOM     57 O    LYS C 131      23.548   5.566  17.187  1.00 55.62 LIG-0.27  OA
BRANCH 55 58
ATOM     58  CA  VAL C 132      24.347   4.478  14.640  1.00 46.38 LIG 0.17  C 
BRANCH 58 59
ATOM     59  C   VAL C 132      25.649   4.811  15.369  1.00 55.18 LIG 0.22  C 
ATOM     60 O    VAL C 132      26.288   3.913  15.937  1.00 55.70 LIG-0.29  OA
ENDBRANCH 58 59
BRANCH 58 61
ATOM     61  CB  VAL C 132      23.865   5.633  13.717  1.00 53.16 LIG 0.01  C 
ATOM     62  CG2 VAL C 132      24.101   6.952  14.413  1.00 49.68 LIG 0.01  C 
ATOM     63  CG1 VAL C 132      22.409   5.474  13.303  1.00 55.70 LIG 0.01  C 
ENDBRANCH 58 61
ENDBRANCH 55 58
ENDBRANCH 45 54
ENDBRANCH 42 45
ENDBRANCH 1 41
TORSDOF 29
ENDMDL
MODEL 3
USER: ADFR SOLUTION from run 26
USER: SCORE 22.471660 LL:  -1.375 LR: -21.673 RR:   0.000 FEB: -13.022
USER: RMSD 7.134154
USER: SEED 25
USER: STATUS no improvement in best in 4 clusters for 5 generations
USER: GENES 31
USER: genes 0 Translation |==|  0.40778 0.49991 0.57168
USER: genes 1 Rotation |==|  0.98005 0.56817 0.40281 0.57391
USER: genes 2 Torsion [CB]-CA--N-[C] |==|  0.52781
USER: genes 3 Torsion [N]-C--CA-[N] |==|  0.01641
USER: genes 4 Torsion [C]-CA--CB-[CG] |==|  0.49944
USER: genes 5 Torsion [CA]-CB--CG-[CD] |==|  0.29134
USER: genes 6 Torsion [CB]-CG--CD-[CE] |==|  0.24579
USER: genes 7 Torsion [CG]-CD--CE-[NZ] |==|  0.56879
USER: genes 8 Torsion [CD]-CE--NZ-[HZ3] |==|  0.69674
USER: genes 9 Torsion [C]-CA--N-[C] |==|  0.76006
USER: genes 10 Torsion [N]-C--CA-[N] |==|  0.61838
USER: genes 11 Torsion [C]-CA--CB-[CG] |==|  0.35324
USER: genes 12 Torsion [CA]-CB--CG-[CD] |==|  0.80519
USER: genes 13 Torsion [CB]-CG--CD-[CE] |==|  0.57317
USER: genes 14 Torsion [CG]-CD--CE-[NZ] |==|  0.96103
USER: genes 15 Torsion [CD]-CE--NZ-[HZ3] |==|  0.48863
USER: genes 16 Torsion [N]-CA--CB-[CG] |==|  0.70935
USER: genes 17 Torsion [CA]-CB--CG-[CD] |==|  0.29417
USER: genes 18 Torsion [CB]-CG--CD-[NE] |==|  0.64260
USER: genes 19 Torsion [CG]-CD--NE-[HE] |==|  0.02156
USER: genes 20 Torsion [N]-CA--C-[N] |==|  0.38744
USER: genes 21 Torsion [C]-N--CA-[C] |==|  0.63400
USER: genes 22 Torsion [N]-CA--CB-[CG] |==|  0.09258
USER: genes 23 Torsion [CA]-CB--CG-[CD] |==|  0.20490
USER: genes 24 Torsion [CB]-CG--CD-[CE] |==|  0.18662
USER: genes 25 Torsion [CG]-CD--CE-[NZ] |==|  0.41979
USER: genes 26 Torsion [CD]-CE--NZ-[HZ1] |==|  0.94748
USER: genes 27 Torsion [N]-CA--C-[N] |==|  0.43087
USER: genes 28 Torsion [C]-N--CA-[C] |==|  0.17688
USER: genes 29 Torsion [N]-CA--C-[O] |==|  0.83304
USER: genes 30 Torsion [N]-CA--CB-[CG2] |==|  0.83296
ROOT
ATOM      1  CA  ARG C 130      19.678   3.724  15.605  1.00 44.25 LIG 0.18  C 
ENDROOT
BRANCH 1 2
ATOM      2  N   ARG C 130      18.376   4.048  16.158  1.00 44.77 LIG-0.35  N 
ATOM      3  C   LYS C 129      18.160   4.107  17.466  1.00 47.82 LIG 0.24  C 
ATOM      4 O    LYS C 129      19.053   3.970  18.303  1.00 51.43 LIG-0.27  OA
ATOM      5 H    ARG C 130      17.768   4.195  15.567  1.00 44.77 LIG 0.16  HD
BRANCH 3 6
ATOM      6  CA  LYS C 129      16.714   4.345  17.888  1.00 47.52 LIG 0.18  C 
BRANCH 6 7
ATOM      7  CB  LYS C 129      16.290   3.300  18.909  1.00 47.19 LIG 0.04  C 
BRANCH 7 8
ATOM      8  CG  LYS C 129      14.872   3.462  19.388  1.00 46.82 LIG 0.00  C 
BRANCH 8 9
ATOM      9  CD  LYS C 129      13.940   2.438  18.787  1.00 42.25 LIG 0.03  C 
BRANCH 9 10
ATOM     10  CE  LYS C 129      13.920   1.192  19.652  1.00 38.25 LIG 0.23  C 
BRANCH 10 11
ATOM     11  NZ  LYS C 129      13.538  -0.058  18.921  1.00 36.45 LIG-0.08  N 
ATOM     12 HZ3  LYS C 129      12.728  -0.319  19.181  1.00 36.45 LIG 0.27  HD
ATOM     13 HZ2  LYS C 129      14.128  -0.699  19.102  1.00 36.45 LIG 0.27  HD
ATOM     14 HZ1  LYS C 129      13.532   0.100  18.045  1.00 36.45 LIG 0.27  HD
ENDBRANCH 10 11
ENDBRANCH 9 10
ENDBRANCH 8 9
ENDBRANCH 7 8
ENDBRANCH 6 7
BRANCH 6 15
ATOM     15  N   LYS C 129      15.852   4.316  16.712  1.00 50.72 LIG-0.35  N 
ATOM     16 H    LYS C 129      15.502   3.548  16.544  1.00 50.72 LIG 0.16  HD
ATOM     17  C   LYS C 128      15.646   5.411  15.978  1.00 53.52 LIG 0.26  C 
ATOM     18 O    LYS C 128      16.053   6.542  16.302  1.00 51.22 LIG-0.27  OA
BRANCH 17 19
ATOM     19  CA  LYS C 128      14.831   5.220  14.693  1.00 56.35 LIG 0.40  C 
ATOM     20  N   LYS C 128      15.390   5.954  13.557  1.00 59.98 LIG 0.61  N 
BRANCH 19 21
ATOM     21  CB  LYS C 128      14.753   3.736  14.375  1.00 54.38 LIG 0.05  C 
BRANCH 21 22
ATOM     22  CG  LYS C 128      13.346   3.258  14.170  1.00 63.27 LIG 0.00  C 
BRANCH 22 23
ATOM     23  CD  LYS C 128      12.559   3.247  15.455  1.00 66.98 LIG 0.03  C 
BRANCH 23 24
ATOM     24  CE  LYS C 128      11.428   2.224  15.438  1.00 66.03 LIG 0.23  C 
BRANCH 24 25
ATOM     25  NZ  LYS C 128      11.181   1.741  14.046  1.00 67.41 LIG-0.08  N 
ATOM     26 HZ3  LYS C 128      10.561   1.103  14.059  1.00 67.41 LIG 0.27  HD
ATOM     27 HZ2  LYS C 128      11.937   1.414  13.707  1.00 67.41 LIG 0.27  HD
ATOM     28 HZ1  LYS C 128      10.899   2.419  13.542  1.00 67.41 LIG 0.27  HD
ENDBRANCH 24 25
ENDBRANCH 23 24
ENDBRANCH 22 23
ENDBRANCH 21 22
ENDBRANCH 19 21
ENDBRANCH 17 19
ENDBRANCH 6 15
ENDBRANCH 3 6
ENDBRANCH 1 2
BRANCH 1 29
ATOM     29  CB  ARG C 130      19.665   3.978  14.101  1.00 44.07 LIG 0.04  C 
BRANCH 29 30
ATOM     30  CG  ARG C 130      19.590   2.718  13.260  1.00 48.13 LIG 0.02  C 
BRANCH 30 31
ATOM     31  CD  ARG C 130      18.199   2.565  12.667  1.00 53.98 LIG 0.14  C 
BRANCH 31 32
ATOM     32  NE  ARG C 130      17.666   1.243  12.940  1.00 57.03 LIG-0.23  N 
ATOM     33  CZ  ARG C 130      16.541   0.753  12.434  1.00 53.36 LIG 0.67  C 
ATOM     34  NH1 ARG C 130      15.782   1.473  11.619  1.00 46.68 LIG-0.23  N 
ATOM     35  NH2 ARG C 130      16.171  -0.476  12.760  1.00 54.86 LIG-0.23  N 
ATOM     36 1HH1 ARG C 130      16.016   2.274  11.409  1.00 46.68 LIG 0.17  HD
ATOM     37 2HH1 ARG C 130      15.057   1.139  11.300  1.00 46.68 LIG 0.17  HD
ATOM     38 1HH2 ARG C 130      16.657  -0.945  13.293  1.00 54.86 LIG 0.17  HD
ATOM     39 2HH2 ARG C 130      15.444  -0.805  12.439  1.00 54.86 LIG 0.17  HD
ATOM     40 HE   ARG C 130      18.115   0.738  13.472  1.00 57.03 LIG 0.18  HD
ENDBRANCH 31 32
ENDBRANCH 30 31
ENDBRANCH 29 30
ENDBRANCH 1 29
BRANCH 1 41
ATOM     41  C   ARG C 130      20.740   4.594  16.232  1.00 43.16 LIG 0.24  C 
ATOM     42  N   LYS C 131      21.896   3.993  16.527  1.00 46.51 LIG-0.35  N 
ATOM     43 H    LYS C 131      22.032   3.153  16.400  1.00 46.51 LIG 0.16  HD
ATOM     44 O    ARG C 130      20.513   5.786  16.417  1.00 41.50 LIG-0.27  OA
BRANCH 42 45
ATOM     45  CA  LYS C 131      23.050   4.692  17.097  1.00 53.22 LIG 0.18  C 
BRANCH 45 46
ATOM     46  CB  LYS C 131      23.254   4.294  18.566  1.00 55.01 LIG 0.04  C 
BRANCH 46 47
ATOM     47  CG  LYS C 131      22.881   2.864  18.906  1.00 52.38 LIG 0.00  C 
BRANCH 47 48
ATOM     48  CD  LYS C 131      23.902   1.881  18.374  1.00 48.84 LIG 0.03  C 
BRANCH 48 49
ATOM     49  CE  LYS C 131      25.222   2.029  19.081  1.00 46.73 LIG 0.23  C 
BRANCH 49 50
ATOM     50  NZ  LYS C 131      25.914   0.723  19.081  1.00 43.41 LIG-0.08  N 
ATOM     51 HZ1  LYS C 131      25.325   0.075  18.923  1.00 43.41 LIG 0.27  HD
ATOM     52 HZ3  LYS C 131      26.296   0.588  19.874  1.00 43.41 LIG 0.27  HD
ATOM     53 HZ2  LYS C 131      26.539   0.717  18.447  1.00 43.41 LIG 0.27  HD
ENDBRANCH 49 50
ENDBRANCH 48 49
ENDBRANCH 47 48
ENDBRANCH 46 47
ENDBRANCH 45 46
BRANCH 45 54
ATOM     54  C   LYS C 131      24.322   4.349  16.341  1.00 59.91 LIG 0.24  C 
ATOM     55  N   VAL C 132      25.284   5.267  16.412  1.00 72.80 LIG-0.35  N 
ATOM     56 H    VAL C 132      25.144   6.054  16.729  1.00 72.80 LIG 0.16  HD
ATOM     57 O    LYS C 131      24.409   3.298  15.717  1.00 55.62 LIG-0.27  OA
BRANCH 55 58
ATOM     58  CA  VAL C 132      26.669   5.068  15.974  1.00 46.38 LIG 0.17  C 
BRANCH 58 59
ATOM     59  C   VAL C 132      26.764   4.815  14.469  1.00 55.18 LIG 0.22  C 
ATOM     60 O    VAL C 132      26.187   3.839  13.968  1.00 55.70 LIG-0.29  OA
ENDBRANCH 58 59
BRANCH 58 61
ATOM     61  CB  VAL C 132      27.421   3.995  16.811  1.00 53.16 LIG 0.01  C 
ATOM     62  CG2 VAL C 132      27.451   4.429  18.257  1.00 49.68 LIG 0.01  C 
ATOM     63  CG1 VAL C 132      28.822   3.725  16.281  1.00 55.70 LIG 0.01  C 
ENDBRANCH 58 61
ENDBRANCH 55 58
ENDBRANCH 45 54
ENDBRANCH 42 45
ENDBRANCH 1 41
TORSDOF 29
ENDMDL
MODEL 4
USER: ADFR SOLUTION from run 21
USER: SCORE 22.100900 LL:  -1.686 LR: -21.538 RR:   0.000 FEB: -12.888
USER: RMSD 5.814224
USER: SEED 20
USER: STATUS no improvement in best in 2 clusters for 5 generations
USER: GENES 31
USER: genes 0 Translation |==|  0.42828 0.52243 0.51595
USER: genes 1 Rotation |==|  0.16528 0.35312 0.82948 0.58849
USER: genes 2 Torsion [CB]-CA--N-[C] |==|  0.83829
USER: genes 3 Torsion [N]-C--CA-[N] |==|  0.72549
USER: genes 4 Torsion [C]-CA--CB-[CG] |==|  0.27990
USER: genes 5 Torsion [CA]-CB--CG-[CD] |==|  0.52349
USER: genes 6 Torsion [CB]-CG--CD-[CE] |==|  0.55329
USER: genes 7 Torsion [CG]-CD--CE-[NZ] |==|  0.45087
USER: genes 8 Torsion [CD]-CE--NZ-[HZ3] |==|  0.25656
USER: genes 9 Torsion [C]-CA--N-[C] |==|  0.69094
USER: genes 10 Torsion [N]-C--CA-[N] |==|  0.67230
USER: genes 11 Torsion [C]-CA--CB-[CG] |==|  0.52682
USER: genes 12 Torsion [CA]-CB--CG-[CD] |==|  0.59343
USER: genes 13 Torsion [CB]-CG--CD-[CE] |==|  0.57767
USER: genes 14 Torsion [CG]-CD--CE-[NZ] |==|  0.41823
USER: genes 15 Torsion [CD]-CE--NZ-[HZ3] |==|  0.11166
USER: genes 16 Torsion [N]-CA--CB-[CG] |==|  0.64407
USER: genes 17 Torsion [CA]-CB--CG-[CD] |==|  0.16532
USER: genes 18 Torsion [CB]-CG--CD-[NE] |==|  0.51692
USER: genes 19 Torsion [CG]-CD--NE-[HE] |==|  0.19171
USER: genes 20 Torsion [N]-CA--C-[N] |==|  0.45481
USER: genes 21 Torsion [C]-N--CA-[C] |==|  0.12778
USER: genes 22 Torsion [N]-CA--CB-[CG] |==|  0.64681
USER: genes 23 Torsion [CA]-CB--CG-[CD] |==|  0.98460
USER: genes 24 Torsion [CB]-CG--CD-[CE] |==|  0.34283
USER: genes 25 Torsion [CG]-CD--CE-[NZ] |==|  0.56706
USER: genes 26 Torsion [CD]-CE--NZ-[HZ1] |==|  0.77130
USER: genes 27 Torsion [N]-CA--C-[N] |==|  0.13556
USER: genes 28 Torsion [C]-N--CA-[C] |==|  0.21669
USER: genes 29 Torsion [N]-CA--C-[O] |==|  0.21032
USER: genes 30 Torsion [N]-CA--CB-[CG2] |==|  0.83457
ROOT
ATOM      1  CA  ARG C 130      20.231   4.078  14.393  1.00 44.25 LIG 0.18  C 
ENDROOT
BRANCH 1 2
ATOM      2  N   ARG C 130      20.353   3.725  15.796  1.00 44.77 LIG-0.35  N 
ATOM      3  C   LYS C 129      20.270   4.631  16.761  1.00 47.82 LIG 0.24  C 
ATOM      4 O    LYS C 129      20.009   5.817  16.551  1.00 51.43 LIG-0.27  OA
ATOM      5 H    ARG C 130      20.481   2.886  15.938  1.00 44.77 LIG 0.16  HD
BRANCH 3 6
ATOM      6  CA  LYS C 129      20.533   4.121  18.173  1.00 47.52 LIG 0.18  C 
BRANCH 6 7
ATOM      7  CB  LYS C 129      21.384   2.861  18.124  1.00 47.19 LIG 0.04  C 
BRANCH 7 8
ATOM      8  CG  LYS C 129      22.839   3.100  18.425  1.00 46.82 LIG 0.00  C 
BRANCH 8 9
ATOM      9  CD  LYS C 129      23.688   1.878  18.171  1.00 42.25 LIG 0.03  C 
BRANCH 9 10
ATOM     10  CE  LYS C 129      25.005   2.005  18.912  1.00 38.25 LIG 0.23  C 
BRANCH 10 11
ATOM     11  NZ  LYS C 129      25.742   0.712  19.081  1.00 36.45 LIG-0.08  N 
ATOM     12 HZ3  LYS C 129      26.310   0.603  18.405  1.00 36.45 LIG 0.27  HD
ATOM     13 HZ2  LYS C 129      25.161   0.038  19.093  1.00 36.45 LIG 0.27  HD
ATOM     14 HZ1  LYS C 129      26.194   0.726  19.848  1.00 36.45 LIG 0.27  HD
ENDBRANCH 10 11
ENDBRANCH 9 10
ENDBRANCH 8 9
ENDBRANCH 7 8
ENDBRANCH 6 7
BRANCH 6 15
ATOM     15  N   LYS C 129      19.262   3.876  18.847  1.00 50.72 LIG-0.35  N 
ATOM     16 H    LYS C 129      18.813   3.213  18.531  1.00 50.72 LIG 0.16  HD
ATOM     17  C   LYS C 128      18.861   4.636  19.866  1.00 53.52 LIG 0.26  C 
ATOM     18 O    LYS C 128      19.575   5.508  20.396  1.00 51.22 LIG-0.27  OA
BRANCH 17 19
ATOM     19  CA  LYS C 128      17.449   4.364  20.400  1.00 56.35 LIG 0.40  C 
ATOM     20  N   LYS C 128      16.561   5.517  20.258  1.00 59.98 LIG 0.61  N 
BRANCH 19 21
ATOM     21  CB  LYS C 128      16.873   3.160  19.672  1.00 54.38 LIG 0.05  C 
BRANCH 21 22
ATOM     22  CG  LYS C 128      15.414   2.952  19.955  1.00 63.27 LIG 0.00  C 
BRANCH 22 23
ATOM     23  CD  LYS C 128      15.043   1.492  19.968  1.00 66.98 LIG 0.03  C 
BRANCH 23 24
ATOM     24  CE  LYS C 128      13.589   1.256  19.574  1.00 66.03 LIG 0.23  C 
BRANCH 24 25
ATOM     25  NZ  LYS C 128      13.435  -0.079  18.921  1.00 67.41 LIG-0.08  N 
ATOM     26 HZ3  LYS C 128      13.939  -0.677  19.346  1.00 67.41 LIG 0.27  HD
ATOM     27 HZ2  LYS C 128      13.694  -0.025  18.071  1.00 67.41 LIG 0.27  HD
ATOM     28 HZ1  LYS C 128      12.582  -0.331  18.956  1.00 67.41 LIG 0.27  HD
ENDBRANCH 24 25
ENDBRANCH 23 24
ENDBRANCH 22 23
ENDBRANCH 21 22
ENDBRANCH 19 21
ENDBRANCH 17 19
ENDBRANCH 6 15
ENDBRANCH 3 6
ENDBRANCH 1 2
BRANCH 1 29
ATOM     29  CB  ARG C 130      18.885   4.754  14.157  1.00 44.07 LIG 0.04  C 
BRANCH 29 30
ATOM     30  CG  ARG C 130      18.076   4.146  13.027  1.00 48.13 LIG 0.02  C 
BRANCH 30 31
ATOM     31  CD  ARG C 130      17.796   2.680  13.312  1.00 53.98 LIG 0.14  C 
BRANCH 31 32
ATOM     32  NE  ARG C 130      17.148   2.050  12.177  1.00 57.03 LIG-0.23  N 
ATOM     33  CZ  ARG C 130      15.890   1.628  12.153  1.00 53.36 LIG 0.67  C 
ATOM     34  NH1 ARG C 130      15.104   1.743  13.216  1.00 46.68 LIG-0.23  N 
ATOM     35  NH2 ARG C 130      15.418   1.074  11.046  1.00 54.86 LIG-0.23  N 
ATOM     36 1HH1 ARG C 130      15.408   2.096  13.938  1.00 46.68 LIG 0.17  HD
ATOM     37 2HH1 ARG C 130      14.292   1.464  13.181  1.00 46.68 LIG 0.17  HD
ATOM     38 1HH2 ARG C 130      15.925   0.992  10.356  1.00 54.86 LIG 0.17  HD
ATOM     39 2HH2 ARG C 130      14.605   0.796  11.017  1.00 54.86 LIG 0.17  HD
ATOM     40 HE   ARG C 130      17.616   1.941  11.464  1.00 57.03 LIG 0.18  HD
ENDBRANCH 31 32
ENDBRANCH 30 31
ENDBRANCH 29 30
ENDBRANCH 1 29
BRANCH 1 41
ATOM     41  C   ARG C 130      21.328   5.039  14.003  1.00 43.16 LIG 0.24  C 
ATOM     42  N   LYS C 131      21.545   5.185  12.693  1.00 46.51 LIG-0.35  N 
ATOM     43 H    LYS C 131      21.113   4.743  12.095  1.00 46.51 LIG 0.16  HD
ATOM     44 O    ARG C 130      21.940   5.645  14.878  1.00 41.50 LIG-0.27  OA
BRANCH 42 45
ATOM     45  CA  LYS C 131      22.536   6.108  12.134  1.00 53.22 LIG 0.18  C 
BRANCH 45 46
ATOM     46  CB  LYS C 131      22.052   7.561  12.254  1.00 55.01 LIG 0.04  C 
BRANCH 46 47
ATOM     47  CG  LYS C 131      22.066   8.356  10.963  1.00 52.38 LIG 0.00  C 
BRANCH 47 48
ATOM     48  CD  LYS C 131      22.693   7.570   9.832  1.00 48.84 LIG 0.03  C 
BRANCH 48 49
ATOM     49  CE  LYS C 131      21.751   7.445   8.666  1.00 46.73 LIG 0.23  C 
BRANCH 49 50
ATOM     50  NZ  LYS C 131      22.120   6.251   7.877  1.00 43.41 LIG-0.08  N 
ATOM     51 HZ1  LYS C 131      22.790   6.454   7.327  1.00 43.41 LIG 0.27  HD
ATOM     52 HZ3  LYS C 131      21.418   5.980   7.401  1.00 43.41 LIG 0.27  HD
ATOM     53 HZ2  LYS C 131      22.375   5.599   8.427  1.00 43.41 LIG 0.27  HD
ENDBRANCH 49 50
ENDBRANCH 48 49
ENDBRANCH 47 48
ENDBRANCH 46 47
ENDBRANCH 45 46
BRANCH 45 54
ATOM     54  C   LYS C 131      23.859   5.998  12.871  1.00 59.91 LIG 0.24  C 
ATOM     55  N   VAL C 132      24.310   4.756  13.035  1.00 72.80 LIG-0.35  N 
ATOM     56 H    VAL C 132      23.822   4.066  12.875  1.00 72.80 LIG 0.16  HD
ATOM     57 O    LYS C 131      24.430   7.003  13.276  1.00 55.62 LIG-0.27  OA
BRANCH 55 58
ATOM     58  CA  VAL C 132      25.657   4.404  13.496  1.00 46.38 LIG 0.17  C 
BRANCH 58 59
ATOM     59  C   VAL C 132      25.806   4.564  15.010  1.00 55.18 LIG 0.22  C 
ATOM     60 O    VAL C 132      25.311   3.722  15.772  1.00 55.70 LIG-0.29  OA
ENDBRANCH 58 59
BRANCH 58 61
ATOM     61  CB  VAL C 132      26.779   5.135  12.704  1.00 53.16 LIG 0.01  C 
ATOM     62  CG2 VAL C 132      26.667   4.771  11.242  1.00 49.68 LIG 0.01  C 
ATOM     63  CG1 VAL C 132      28.166   4.830  13.250  1.00 55.70 LIG 0.01  C 
ENDBRANCH 58 61
ENDBRANCH 55 58
ENDBRANCH 45 54
ENDBRANCH 42 45
ENDBRANCH 1 41
TORSDOF 29
ENDMDL
MODEL 5
USER: ADFR SOLUTION from run 141
USER: SCORE 21.013976 LL:  -1.770 LR: -21.259 RR:   0.000 FEB: -12.608
USER: RMSD 11.047212
USER: SEED 140
USER: STATUS no improvement in best in 4 clusters for 5 generations
USER: GENES 31
USER: genes 0 Translation |==|  0.39521 0.54392 0.59758
USER: genes 1 Rotation |==|  0.54762 0.00557 0.52141 0.55307
USER: genes 2 Torsion [CB]-CA--N-[C] |==|  0.51667
USER: genes 3 Torsion [N]-C--CA-[N] |==|  0.20466
USER: genes 4 Torsion [C]-CA--CB-[CG] |==|  0.19106
USER: genes 5 Torsion [CA]-CB--CG-[CD] |==|  0.14823
USER: genes 6 Torsion [CB]-CG--CD-[CE] |==|  0.19022
USER: genes 7 Torsion [CG]-CD--CE-[NZ] |==|  0.34360
USER: genes 8 Torsion [CD]-CE--NZ-[HZ3] |==|  0.76628
USER: genes 9 Torsion [C]-CA--N-[C] |==|  0.61416
USER: genes 10 Torsion [N]-C--CA-[N] |==|  0.48450
USER: genes 11 Torsion [C]-CA--CB-[CG] |==|  0.48492
USER: genes 12 Torsion [CA]-CB--CG-[CD] |==|  0.43502
USER: genes 13 Torsion [CB]-CG--CD-[CE] |==|  0.57908
USER: genes 14 Torsion [CG]-CD--CE-[NZ] |==|  0.40226
USER: genes 15 Torsion [CD]-CE--NZ-[HZ3] |==|  0.18330
USER: genes 16 Torsion [N]-CA--CB-[CG] |==|  0.90263
USER: genes 17 Torsion [CA]-CB--CG-[CD] |==|  0.40944
USER: genes 18 Torsion [CB]-CG--CD-[NE] |==|  0.25211
USER: genes 19 Torsion [CG]-CD--NE-[HE] |==|  0.14634
USER: genes 20 Torsion [N]-CA--C-[N] |==|  0.41086
USER: genes 21 Torsion [C]-N--CA-[C] |==|  0.18801
USER: genes 22 Torsion [N]-CA--CB-[CG] |==|  0.49580
USER: genes 23 Torsion [CA]-CB--CG-[CD] |==|  0.31807
USER: genes 24 Torsion [CB]-CG--CD-[CE] |==|  0.10891
USER: genes 25 Torsion [CG]-CD--CE-[NZ] |==|  0.27071
USER: genes 26 Torsion [CD]-CE--NZ-[HZ1] |==|  0.12514
USER: genes 27 Torsion [N]-CA--C-[N] |==|  0.41591
USER: genes 28 Torsion [C]-N--CA-[C] |==|  0.18281
USER: genes 29 Torsion [N]-CA--C-[O] |==|  0.99592
USER: genes 30 Torsion [N]-CA--CB-[CG2] |==|  0.80693
ROOT
ATOM      1  CA  ARG C 130      19.339   4.417  16.168  1.00 44.25 LIG 0.18  C 
ENDROOT
BRANCH 1 2
ATOM      2  N   ARG C 130      20.752   4.097  16.077  1.00 44.77 LIG-0.35  N 
ATOM      3  C   LYS C 129      21.641   4.580  16.935  1.00 47.82 LIG 0.24  C 
ATOM      4 O    LYS C 129      21.332   5.266  17.911  1.00 51.43 LIG-0.27  OA
ATOM      5 H    ARG C 130      20.953   3.574  15.425  1.00 44.77 LIG 0.16  HD
BRANCH 3 6
ATOM      6  CA  LYS C 129      23.098   4.246  16.637  1.00 47.52 LIG 0.18  C 
BRANCH 6 7
ATOM      7  CB  LYS C 129      23.955   4.497  17.869  1.00 47.19 LIG 0.04  C 
BRANCH 7 8
ATOM      8  CG  LYS C 129      23.693   3.534  18.996  1.00 46.82 LIG 0.00  C 
BRANCH 8 9
ATOM      9  CD  LYS C 129      23.801   2.092  18.559  1.00 42.25 LIG 0.03  C 
BRANCH 9 10
ATOM     10  CE  LYS C 129      25.245   1.764  18.229  1.00 38.25 LIG 0.23  C 
BRANCH 10 11
ATOM     11  NZ  LYS C 129      25.803   0.608  18.999  1.00 36.45 LIG-0.08  N 
ATOM     12 HZ3  LYS C 129      26.095   0.891  19.791  1.00 36.45 LIG 0.27  HD
ATOM     13 HZ2  LYS C 129      26.479   0.247  18.546  1.00 36.45 LIG 0.27  HD
ATOM     14 HZ1  LYS C 129      25.168  -0.004  19.120  1.00 36.45 LIG 0.27  HD
ENDBRANCH 10 11
ENDBRANCH 9 10
ENDBRANCH 8 9
ENDBRANCH 7 8
ENDBRANCH 6 7
BRANCH 6 15
ATOM     15  N   LYS C 129      23.557   5.040  15.503  1.00 50.72 LIG-0.35  N 
ATOM     16 H    LYS C 129      23.289   5.857  15.506  1.00 50.72 LIG 0.16  HD
ATOM     17  C   LYS C 128      24.331   4.510  14.554  1.00 53.52 LIG 0.26  C 
ATOM     18 O    LYS C 128      24.818   3.366  14.625  1.00 51.22 LIG-0.27  OA
BRANCH 17 19
ATOM     19  CA  LYS C 128      24.634   5.407  13.348  1.00 56.35 LIG 0.40  C 
ATOM     20  N   LYS C 128      25.590   4.800  12.421  1.00 59.98 LIG 0.61  N 
BRANCH 19 21
ATOM     21  CB  LYS C 128      23.332   5.724  12.631  1.00 54.38 LIG 0.05  C 
BRANCH 21 22
ATOM     22  CG  LYS C 128      23.508   6.704  11.509  1.00 63.27 LIG 0.00  C 
BRANCH 22 23
ATOM     23  CD  LYS C 128      22.410   6.592  10.483  1.00 66.98 LIG 0.03  C 
BRANCH 23 24
ATOM     24  CE  LYS C 128      22.870   7.006   9.089  1.00 66.03 LIG 0.23  C 
BRANCH 24 25
ATOM     25  NZ  LYS C 128      22.203   6.166   8.049  1.00 67.41 LIG-0.08  N 
ATOM     26 HZ3  LYS C 128      21.329   6.334   8.047  1.00 67.41 LIG 0.27  HD
ATOM     27 HZ2  LYS C 128      22.340   5.306   8.230  1.00 67.41 LIG 0.27  HD
ATOM     28 HZ1  LYS C 128      22.543   6.358   7.249  1.00 67.41 LIG 0.27  HD
ENDBRANCH 24 25
ENDBRANCH 23 24
ENDBRANCH 22 23
ENDBRANCH 21 22
ENDBRANCH 19 21
ENDBRANCH 17 19
ENDBRANCH 6 15
ENDBRANCH 3 6
ENDBRANCH 1 2
BRANCH 1 29
ATOM     29  CB  ARG C 130      18.568   3.596  15.140  1.00 44.07 LIG 0.04  C 
BRANCH 29 30
ATOM     30  CG  ARG C 130      19.320   3.363  13.843  1.00 48.13 LIG 0.02  C 
BRANCH 30 31
ATOM     31  CD  ARG C 130      18.949   2.010  13.257  1.00 53.98 LIG 0.14  C 
BRANCH 31 32
ATOM     32  NE  ARG C 130      17.821   2.134  12.354  1.00 57.03 LIG-0.23  N 
ATOM     33  CZ  ARG C 130      16.707   1.415  12.419  1.00 53.36 LIG 0.67  C 
ATOM     34  NH1 ARG C 130      16.543   0.481  13.347  1.00 46.68 LIG-0.23  N 
ATOM     35  NH2 ARG C 130      15.747   1.634  11.533  1.00 54.86 LIG-0.23  N 
ATOM     36 1HH1 ARG C 130      17.166   0.332  13.921  1.00 46.68 LIG 0.17  HD
ATOM     37 2HH1 ARG C 130      15.814   0.026  13.374  1.00 46.68 LIG 0.17  HD
ATOM     38 1HH2 ARG C 130      15.850   2.234  10.926  1.00 54.86 LIG 0.17  HD
ATOM     39 2HH2 ARG C 130      15.020   1.175  11.565  1.00 54.86 LIG 0.17  HD
ATOM     40 HE   ARG C 130      17.878   2.718  11.726  1.00 57.03 LIG 0.18  HD
ENDBRANCH 31 32
ENDBRANCH 30 31
ENDBRANCH 29 30
ENDBRANCH 1 29
BRANCH 1 41
ATOM     41  C   ARG C 130      18.817   4.079  17.544  1.00 43.16 LIG 0.24  C 
ATOM     42  N   LYS C 131      17.835   4.856  18.009  1.00 46.51 LIG-0.35  N 
ATOM     43 H    LYS C 131      17.527   5.531  17.574  1.00 46.51 LIG 0.16  HD
ATOM     44 O    ARG C 130      19.287   3.120  18.150  1.00 41.50 LIG-0.27  OA
BRANCH 42 45
ATOM     45  CA  LYS C 131      17.180   4.646  19.302  1.00 53.22 LIG 0.18  C 
BRANCH 45 46
ATOM     46  CB  LYS C 131      16.690   3.196  19.432  1.00 55.01 LIG 0.04  C 
BRANCH 46 47
ATOM     47  CG  LYS C 131      16.025   2.853  20.751  1.00 52.38 LIG 0.00  C 
BRANCH 47 48
ATOM     48  CD  LYS C 131      14.561   2.520  20.566  1.00 48.84 LIG 0.03  C 
BRANCH 48 49
ATOM     49  CE  LYS C 131      14.338   1.716  19.313  1.00 46.73 LIG 0.23  C 
BRANCH 49 50
ATOM     50  NZ  LYS C 131      14.264   0.283  19.671  1.00 43.41 LIG-0.08  N 
ATOM     51 HZ1  LYS C 131      13.744   0.183  20.387  1.00 43.41 LIG 0.27  HD
ATOM     52 HZ3  LYS C 131      15.081  -0.020  19.853  1.00 43.41 LIG 0.27  HD
ATOM     53 HZ2  LYS C 131      13.922  -0.176  18.989  1.00 43.41 LIG 0.27  HD
ENDBRANCH 49 50
ENDBRANCH 48 49
ENDBRANCH 47 48
ENDBRANCH 46 47
ENDBRANCH 45 46
BRANCH 45 54
ATOM     54  C   LYS C 131      18.137   4.918  20.448  1.00 59.91 LIG 0.24  C 
ATOM     55  N   VAL C 132      17.567   5.370  21.563  1.00 72.80 LIG-0.35  N 
ATOM     56 H    VAL C 132      16.748   5.631  21.586  1.00 72.80 LIG 0.16  HD
ATOM     57 O    LYS C 131      19.341   4.731  20.310  1.00 55.62 LIG-0.27  OA
BRANCH 55 58
ATOM     58  CA  VAL C 132      18.235   5.479  22.864  1.00 46.38 LIG 0.17  C 
BRANCH 58 59
ATOM     59  C   VAL C 132      19.361   6.513  22.846  1.00 55.18 LIG 0.22  C 
ATOM     60 O    VAL C 132      19.628   7.120  21.799  1.00 55.70 LIG-0.29  OA
ENDBRANCH 58 59
BRANCH 58 61
ATOM     61  CB  VAL C 132      18.693   4.104  23.428  1.00 53.16 LIG 0.01  C 
ATOM     62  CG2 VAL C 132      17.475   3.300  23.818  1.00 49.68 LIG 0.01  C 
ATOM     63  CG1 VAL C 132      19.661   4.249  24.593  1.00 55.70 LIG 0.01  C 
ENDBRANCH 58 61
ENDBRANCH 55 58
ENDBRANCH 45 54
ENDBRANCH 42 45
ENDBRANCH 1 41
TORSDOF 29
ENDMDL
MODEL 6
USER: ADFR SOLUTION from run 53
USER: SCORE 20.844322 LL:  -1.274 LR: -21.244 RR:   0.000 FEB: -12.594
USER: RMSD 10.569903
USER: SEED 52
USER: STATUS no improvement in best in 3 clusters for 5 generations
USER: GENES 31
USER: genes 0 Translation |==|  0.42370 0.59081 0.51680
USER: genes 1 Rotation |==|  0.56354 0.98108 0.41536 0.58579
USER: genes 2 Torsion [CB]-CA--N-[C] |==|  0.46103
USER: genes 3 Torsion [N]-C--CA-[N] |==|  0.35159
USER: genes 4 Torsion [C]-CA--CB-[CG] |==|  0.36319
USER: genes 5 Torsion [CA]-CB--CG-[CD] |==|  0.12234
USER: genes 6 Torsion [CB]-CG--CD-[CE] |==|  0.29166
USER: genes 7 Torsion [CG]-CD--CE-[NZ] |==|  0.41017
USER: genes 8 Torsion [CD]-CE--NZ-[HZ3] |==|  0.20678
USER: genes 9 Torsion [C]-CA--N-[C] |==|  0.70919
USER: genes 10 Torsion [N]-C--CA-[N] |==|  0.92362
USER: genes 11 Torsion [C]-CA--CB-[CG] |==|  0.96765
USER: genes 12 Torsion [CA]-CB--CG-[CD] |==|  0.68214
USER: genes 13 Torsion [CB]-CG--CD-[CE] |==|  0.75382
USER: genes 14 Torsion [CG]-CD--CE-[NZ] |==|  0.85270
USER: genes 15 Torsion [CD]-CE--NZ-[HZ3] |==|  0.68726
USER: genes 16 Torsion [N]-CA--CB-[CG] |==|  0.18381
USER: genes 17 Torsion [CA]-CB--CG-[CD] |==|  0.45730
USER: genes 18 Torsion [CB]-CG--CD-[NE] |==|  0.47518
USER: genes 19 Torsion [CG]-CD--NE-[HE] |==|  0.89629
USER: genes 20 Torsion [N]-CA--C-[N] |==|  0.91007
USER: genes 21 Torsion [C]-N--CA-[C] |==|  0.58663
USER: genes 22 Torsion [N]-CA--CB-[CG] |==|  0.90144
USER: genes 23 Torsion [CA]-CB--CG-[CD] |==|  0.58707
USER: genes 24 Torsion [CB]-CG--CD-[CE] |==|  0.62277
USER: genes 25 Torsion [CG]-CD--CE-[NZ] |==|  0.30208
USER: genes 26 Torsion [CD]-CE--NZ-[HZ1] |==|  0.64345
USER: genes 27 Torsion [N]-CA--C-[N] |==|  0.48329
USER: genes 28 Torsion [C]-N--CA-[C] |==|  0.67800
USER: genes 29 Torsion [N]-CA--C-[O] |==|  0.12614
USER: genes 30 Torsion [N]-CA--CB-[CG2] |==|  0.86362
ROOT
ATOM      1  CA  ARG C 130      20.108   5.155  14.411  1.00 44.25 LIG 0.18  C 
ENDROOT
BRANCH 1 2
ATOM      2  N   ARG C 130      21.082   4.436  15.213  1.00 44.77 LIG-0.35  N 
ATOM      3  C   LYS C 129      21.819   5.039  16.135  1.00 47.82 LIG 0.24  C 
ATOM      4 O    LYS C 129      21.683   6.227  16.437  1.00 51.43 LIG-0.27  OA
ATOM      5 H    ARG C 130      21.133   3.596  15.034  1.00 44.77 LIG 0.16  HD
BRANCH 3 6
ATOM      6  CA  LYS C 129      22.876   4.172  16.810  1.00 47.52 LIG 0.18  C 
BRANCH 6 7
ATOM      7  CB  LYS C 129      22.498   3.919  18.261  1.00 47.19 LIG 0.04  C 
BRANCH 7 8
ATOM      8  CG  LYS C 129      22.571   2.471  18.663  1.00 46.82 LIG 0.00  C 
BRANCH 8 9
ATOM      9  CD  LYS C 129      23.820   1.794  18.152  1.00 42.25 LIG 0.03  C 
BRANCH 9 10
ATOM     10  CE  LYS C 129      24.803   1.602  19.292  1.00 38.25 LIG 0.23  C 
BRANCH 10 11
ATOM     11  NZ  LYS C 129      25.652   0.374  19.171  1.00 36.45 LIG-0.08  N 
ATOM     12 HZ3  LYS C 129      26.273   0.503  18.546  1.00 36.45 LIG 0.27  HD
ATOM     13 HZ2  LYS C 129      25.141  -0.318  18.944  1.00 36.45 LIG 0.27  HD
ATOM     14 HZ1  LYS C 129      26.047   0.208  19.951  1.00 36.45 LIG 0.27  HD
ENDBRANCH 10 11
ENDBRANCH 9 10
ENDBRANCH 8 9
ENDBRANCH 7 8
ENDBRANCH 6 7
BRANCH 6 15
ATOM     15  N   LYS C 129      24.177   4.824  16.708  1.00 50.72 LIG-0.35  N 
ATOM     16 H    LYS C 129      24.286   5.491  17.242  1.00 50.72 LIG 0.16  HD
ATOM     17  C   LYS C 128      25.102   4.396  15.847  1.00 53.52 LIG 0.26  C 
ATOM     18 O    LYS C 128      24.983   3.355  15.174  1.00 51.22 LIG-0.27  OA
BRANCH 17 19
ATOM     19  CA  LYS C 128      26.373   5.246  15.740  1.00 56.35 LIG 0.40  C 
ATOM     20  N   LYS C 128      26.140   6.652  16.069  1.00 59.98 LIG 0.61  N 
BRANCH 19 21
ATOM     21  CB  LYS C 128      27.436   4.659  16.654  1.00 54.38 LIG 0.05  C 
BRANCH 21 22
ATOM     22  CG  LYS C 128      26.890   3.623  17.592  1.00 63.27 LIG 0.00  C 
BRANCH 22 23
ATOM     23  CD  LYS C 128      26.971   4.063  19.030  1.00 66.98 LIG 0.03  C 
BRANCH 23 24
ATOM     24  CE  LYS C 128      28.296   3.684  19.683  1.00 66.03 LIG 0.23  C 
BRANCH 24 25
ATOM     25  NZ  LYS C 128      28.565   2.225  19.510  1.00 67.41 LIG-0.08  N 
ATOM     26 HZ3  LYS C 128      28.525   1.820  20.301  1.00 67.41 LIG 0.27  HD
ATOM     27 HZ2  LYS C 128      29.375   2.112  19.158  1.00 67.41 LIG 0.27  HD
ATOM     28 HZ1  LYS C 128      27.954   1.873  18.966  1.00 67.41 LIG 0.27  HD
ENDBRANCH 24 25
ENDBRANCH 23 24
ENDBRANCH 22 23
ENDBRANCH 21 22
ENDBRANCH 19 21
ENDBRANCH 17 19
ENDBRANCH 6 15
ENDBRANCH 3 6
ENDBRANCH 1 2
BRANCH 1 29
ATOM     29  CB  ARG C 130      19.686   4.287  13.231  1.00 44.07 LIG 0.04  C 
BRANCH 29 30
ATOM     30  CG  ARG C 130      18.922   3.037  13.623  1.00 48.13 LIG 0.02  C 
BRANCH 30 31
ATOM     31  CD  ARG C 130      18.226   2.446  12.407  1.00 53.98 LIG 0.14  C 
BRANCH 31 32
ATOM     32  NE  ARG C 130      17.667   1.144  12.718  1.00 57.03 LIG-0.23  N 
ATOM     33  CZ  ARG C 130      16.512   0.678  12.258  1.00 53.36 LIG 0.67  C 
ATOM     34  NH1 ARG C 130      15.745   1.407  11.458  1.00 46.68 LIG-0.23  N 
ATOM     35  NH2 ARG C 130      16.119  -0.535  12.615  1.00 54.86 LIG-0.23  N 
ATOM     36 1HH1 ARG C 130      15.993   2.198  11.229  1.00 46.68 LIG 0.17  HD
ATOM     37 2HH1 ARG C 130      15.000   1.089  11.170  1.00 46.68 LIG 0.17  HD
ATOM     38 1HH2 ARG C 130      16.610  -1.010  13.138  1.00 54.86 LIG 0.17  HD
ATOM     39 2HH2 ARG C 130      15.373  -0.849  12.325  1.00 54.86 LIG 0.17  HD
ATOM     40 HE   ARG C 130      18.119   0.633  13.242  1.00 57.03 LIG 0.18  HD
ENDBRANCH 31 32
ENDBRANCH 30 31
ENDBRANCH 29 30
ENDBRANCH 1 29
BRANCH 1 41
ATOM     41  C   ARG C 130      18.885   5.471  15.239  1.00 43.16 LIG 0.24  C 
ATOM     42  N   LYS C 131      18.567   4.581  16.182  1.00 46.51 LIG-0.35  N 
ATOM     43 H    LYS C 131      19.005   3.851  16.305  1.00 46.51 LIG 0.16  HD
ATOM     44 O    ARG C 130      18.268   6.512  15.032  1.00 41.50 LIG-0.27  OA
BRANCH 42 45
ATOM     45  CA  LYS C 131      17.442   4.748  17.106  1.00 53.22 LIG 0.18  C 
BRANCH 45 46
ATOM     46  CB  LYS C 131      16.171   4.101  16.535  1.00 55.01 LIG 0.04  C 
BRANCH 46 47
ATOM     47  CG  LYS C 131      16.014   4.201  15.030  1.00 52.38 LIG 0.00  C 
BRANCH 47 48
ATOM     48  CD  LYS C 131      14.558   4.274  14.626  1.00 48.84 LIG 0.03  C 
BRANCH 48 49
ATOM     49  CE  LYS C 131      14.271   3.378  13.451  1.00 46.73 LIG 0.23  C 
BRANCH 49 50
ATOM     50  NZ  LYS C 131      13.470   2.225  13.912  1.00 43.41 LIG-0.08  N 
ATOM     51 HZ1  LYS C 131      13.854   1.469  13.641  1.00 43.41 LIG 0.27  HD
ATOM     52 HZ3  LYS C 131      12.649   2.279  13.573  1.00 43.41 LIG 0.27  HD
ATOM     53 HZ2  LYS C 131      13.424   2.232  14.802  1.00 43.41 LIG 0.27  HD
ENDBRANCH 49 50
ENDBRANCH 48 49
ENDBRANCH 47 48
ENDBRANCH 46 47
ENDBRANCH 45 46
BRANCH 45 54
ATOM     54  C   LYS C 131      17.735   4.093  18.444  1.00 59.91 LIG 0.24  C 
ATOM     55  N   VAL C 132      16.818   4.304  19.387  1.00 72.80 LIG-0.35  N 
ATOM     56 H    VAL C 132      16.191   4.886  19.294  1.00 72.80 LIG 0.16  HD
ATOM     57 O    LYS C 131      18.757   3.437  18.605  1.00 55.62 LIG-0.27  OA
BRANCH 55 58
ATOM     58  CA  VAL C 132      16.752   3.596  20.669  1.00 46.38 LIG 0.17  C 
BRANCH 58 59
ATOM     59  C   VAL C 132      15.479   2.760  20.799  1.00 55.18 LIG 0.22  C 
ATOM     60 O    VAL C 132      15.106   2.049  19.855  1.00 55.70 LIG-0.29  OA
ENDBRANCH 58 59
BRANCH 58 61
ATOM     61  CB  VAL C 132      16.981   4.532  21.890  1.00 53.16 LIG 0.01  C 
ATOM     62  CG2 VAL C 132      18.218   5.365  21.648  1.00 49.68 LIG 0.01  C 
ATOM     63  CG1 VAL C 132      17.076   3.763  23.200  1.00 55.70 LIG 0.01  C 
ENDBRANCH 58 61
ENDBRANCH 55 58
ENDBRANCH 45 54
ENDBRANCH 42 45
ENDBRANCH 1 41
TORSDOF 29
ENDMDL
MODEL 7
USER: ADFR SOLUTION from run 112
USER: SCORE 22.288455 LL:  -1.970 LR: -21.189 RR:   0.000 FEB: -12.538
USER: RMSD 9.289804
USER: SEED 111
USER: STATUS no improvement in best in 4 clusters for 5 generations
USER: GENES 31
USER: genes 0 Translation |==|  0.43135 0.51024 0.50151
USER: genes 1 Rotation |==|  0.69661 0.84334 0.29289 0.72487
USER: genes 2 Torsion [CB]-CA--N-[C] |==|  0.50556
USER: genes 3 Torsion [N]-C--CA-[N] |==|  0.28626
USER: genes 4 Torsion [C]-CA--CB-[CG] |==|  0.32582
USER: genes 5 Torsion [CA]-CB--CG-[CD] |==|  0.68920
USER: genes 6 Torsion [CB]-CG--CD-[CE] |==|  0.21595
USER: genes 7 Torsion [CG]-CD--CE-[NZ] |==|  0.36484
USER: genes 8 Torsion [CD]-CE--NZ-[HZ3] |==|  0.48388
USER: genes 9 Torsion [C]-CA--N-[C] |==|  0.75434
USER: genes 10 Torsion [N]-C--CA-[N] |==|  0.52625
USER: genes 11 Torsion [C]-CA--CB-[CG] |==|  0.62180
USER: genes 12 Torsion [CA]-CB--CG-[CD] |==|  0.71088
USER: genes 13 Torsion [CB]-CG--CD-[CE] |==|  0.28166
USER: genes 14 Torsion [CG]-CD--CE-[NZ] |==|  0.24369
USER: genes 15 Torsion [CD]-CE--NZ-[HZ3] |==|  0.71197
USER: genes 16 Torsion [N]-CA--CB-[CG] |==|  0.15346
USER: genes 17 Torsion [CA]-CB--CG-[CD] |==|  0.39019
USER: genes 18 Torsion [CB]-CG--CD-[NE] |==|  0.40963
USER: genes 19 Torsion [CG]-CD--NE-[HE] |==|  0.88215
USER: genes 20 Torsion [N]-CA--C-[N] |==|  0.46702
USER: genes 21 Torsion [C]-N--CA-[C] |==|  0.75255
USER: genes 22 Torsion [N]-CA--CB-[CG] |==|  0.90771
USER: genes 23 Torsion [CA]-CB--CG-[CD] |==|  0.29105
USER: genes 24 Torsion [CB]-CG--CD-[CE] |==|  0.21897
USER: genes 25 Torsion [CG]-CD--CE-[NZ] |==|  0.63512
USER: genes 26 Torsion [CD]-CE--NZ-[HZ1] |==|  0.55190
USER: genes 27 Torsion [N]-CA--C-[N] |==|  0.19789
USER: genes 28 Torsion [C]-N--CA-[C] |==|  0.86506
USER: genes 29 Torsion [N]-CA--C-[O] |==|  0.21894
USER: genes 30 Torsion [N]-CA--CB-[CG2] |==|  0.86210
ROOT
ATOM      1  CA  ARG C 130      20.314   3.886  14.079  1.00 44.25 LIG 0.18  C 
ENDROOT
BRANCH 1 2
ATOM      2  N   ARG C 130      20.109   3.612  15.490  1.00 44.77 LIG-0.35  N 
ATOM      3  C   LYS C 129      20.309   4.533  16.423  1.00 47.82 LIG 0.24  C 
ATOM      4 O    LYS C 129      20.606   5.701  16.166  1.00 51.43 LIG-0.27  OA
ATOM      5 H    ARG C 130      19.850   2.809  15.658  1.00 44.77 LIG 0.16  HD
BRANCH 3 6
ATOM      6  CA  LYS C 129      20.164   4.057  17.865  1.00 47.52 LIG 0.18  C 
BRANCH 6 7
ATOM      7  CB  LYS C 129      19.333   5.051  18.662  1.00 47.19 LIG 0.04  C 
BRANCH 7 8
ATOM      8  CG  LYS C 129      18.046   4.479  19.191  1.00 46.82 LIG 0.00  C 
BRANCH 8 9
ATOM      9  CD  LYS C 129      16.831   5.082  18.526  1.00 42.25 LIG 0.03  C 
BRANCH 9 10
ATOM     10  CE  LYS C 129      16.640   4.466  17.153  1.00 38.25 LIG 0.23  C 
BRANCH 10 11
ATOM     11  NZ  LYS C 129      15.244   3.998  16.879  1.00 36.45 LIG-0.08  N 
ATOM     12 HZ3  LYS C 129      15.182   3.727  16.034  1.00 36.45 LIG 0.27  HD
ATOM     13 HZ2  LYS C 129      14.674   4.667  17.019  1.00 36.45 LIG 0.27  HD
ATOM     14 HZ1  LYS C 129      15.045   3.321  17.422  1.00 36.45 LIG 0.27  HD
ENDBRANCH 10 11
ENDBRANCH 9 10
ENDBRANCH 8 9
ENDBRANCH 7 8
ENDBRANCH 6 7
BRANCH 6 15
ATOM     15  N   LYS C 129      21.486   3.879  18.454  1.00 50.72 LIG-0.35  N 
ATOM     16 H    LYS C 129      21.793   4.573  18.861  1.00 50.72 LIG 0.16  HD
ATOM     17  C   LYS C 128      22.140   2.721  18.352  1.00 53.52 LIG 0.26  C 
ATOM     18 O    LYS C 128      21.636   1.688  17.874  1.00 51.22 LIG-0.27  OA
BRANCH 17 19
ATOM     19  CA  LYS C 128      23.574   2.703  18.894  1.00 56.35 LIG 0.40  C 
ATOM     20  N   LYS C 128      24.292   1.476  18.548  1.00 59.98 LIG 0.61  N 
BRANCH 19 21
ATOM     21  CB  LYS C 128      24.317   3.917  18.361  1.00 54.38 LIG 0.05  C 
BRANCH 21 22
ATOM     22  CG  LYS C 128      25.703   3.591  17.887  1.00 63.27 LIG 0.00  C 
BRANCH 22 23
ATOM     23  CD  LYS C 128      26.756   4.042  18.865  1.00 66.98 LIG 0.03  C 
BRANCH 23 24
ATOM     24  CE  LYS C 128      27.294   2.896  19.715  1.00 66.03 LIG 0.23  C 
BRANCH 24 25
ATOM     25  NZ  LYS C 128      28.436   2.225  19.023  1.00 67.41 LIG-0.08  N 
ATOM     26 HZ3  LYS C 128      28.160   1.453  18.676  1.00 67.41 LIG 0.27  HD
ATOM     27 HZ2  LYS C 128      29.089   2.071  19.608  1.00 67.41 LIG 0.27  HD
ATOM     28 HZ1  LYS C 128      28.740   2.751  18.372  1.00 67.41 LIG 0.27  HD
ENDBRANCH 24 25
ENDBRANCH 23 24
ENDBRANCH 22 23
ENDBRANCH 21 22
ENDBRANCH 19 21
ENDBRANCH 17 19
ENDBRANCH 6 15
ENDBRANCH 3 6
ENDBRANCH 1 2
BRANCH 1 29
ATOM     29  CB  ARG C 130      19.954   2.647  13.267  1.00 44.07 LIG 0.04  C 
BRANCH 29 30
ATOM     30  CG  ARG C 130      18.551   2.128  13.517  1.00 48.13 LIG 0.02  C 
BRANCH 30 31
ATOM     31  CD  ARG C 130      17.922   1.667  12.212  1.00 53.98 LIG 0.14  C 
BRANCH 31 32
ATOM     32  NE  ARG C 130      17.023   0.551  12.441  1.00 57.03 LIG-0.23  N 
ATOM     33  CZ  ARG C 130      15.829   0.405  11.881  1.00 53.36 LIG 0.67  C 
ATOM     34  NH1 ARG C 130      15.343   1.314  11.046  1.00 46.68 LIG-0.23  N 
ATOM     35  NH2 ARG C 130      15.109  -0.668  12.171  1.00 54.86 LIG-0.23  N 
ATOM     36 1HH1 ARG C 130      15.805   2.016  10.859  1.00 46.68 LIG 0.17  HD
ATOM     37 2HH1 ARG C 130      14.568   1.202  10.693  1.00 46.68 LIG 0.17  HD
ATOM     38 1HH2 ARG C 130      15.416  -1.258  12.716  1.00 54.86 LIG 0.17  HD
ATOM     39 2HH2 ARG C 130      14.334  -0.775  11.815  1.00 54.86 LIG 0.17  HD
ATOM     40 HE   ARG C 130      17.284  -0.063  12.983  1.00 57.03 LIG 0.18  HD
ENDBRANCH 31 32
ENDBRANCH 30 31
ENDBRANCH 29 30
ENDBRANCH 1 29
BRANCH 1 41
ATOM     41  C   ARG C 130      19.430   5.027  13.637  1.00 43.16 LIG 0.24  C 
ATOM     42  N   LYS C 131      19.691   5.543  12.434  1.00 46.51 LIG-0.35  N 
ATOM     43 H    LYS C 131      20.341   5.272  11.939  1.00 46.51 LIG 0.16  HD
ATOM     44 O    ARG C 130      18.520   5.405  14.370  1.00 41.50 LIG-0.27  OA
BRANCH 42 45
ATOM     45  CA  LYS C 131      18.907   6.622  11.827  1.00 53.22 LIG 0.18  C 
BRANCH 45 46
ATOM     46  CB  LYS C 131      19.778   7.458  10.878  1.00 55.01 LIG 0.04  C 
BRANCH 46 47
ATOM     47  CG  LYS C 131      21.231   7.597  11.288  1.00 52.38 LIG 0.00  C 
BRANCH 47 48
ATOM     48  CD  LYS C 131      22.134   6.727  10.440  1.00 48.84 LIG 0.03  C 
BRANCH 48 49
ATOM     49  CE  LYS C 131      22.398   7.356   9.099  1.00 46.73 LIG 0.23  C 
BRANCH 49 50
ATOM     50  NZ  LYS C 131      22.169   6.347   8.043  1.00 43.41 LIG-0.08  N 
ATOM     51 HZ1  LYS C 131      22.570   6.608   7.293  1.00 43.41 LIG 0.27  HD
ATOM     52 HZ3  LYS C 131      21.295   6.262   7.898  1.00 43.41 LIG 0.27  HD
ATOM     53 HZ2  LYS C 131      22.504   5.564   8.303  1.00 43.41 LIG 0.27  HD
ENDBRANCH 49 50
ENDBRANCH 48 49
ENDBRANCH 47 48
ENDBRANCH 46 47
ENDBRANCH 45 46
BRANCH 45 54
ATOM     54  C   LYS C 131      17.746   6.065  11.023  1.00 59.91 LIG 0.24  C 
ATOM     55  N   VAL C 132      16.761   5.537  11.747  1.00 72.80 LIG-0.35  N 
ATOM     56 H    VAL C 132      16.842   5.386  12.590  1.00 72.80 LIG 0.16  HD
ATOM     57 O    LYS C 131      17.761   6.108   9.798  1.00 55.62 LIG-0.27  OA
BRANCH 55 58
ATOM     58  CA  VAL C 132      15.445   5.155  11.224  1.00 46.38 LIG 0.17  C 
BRANCH 58 59
ATOM     59  C   VAL C 132      14.821   6.263  10.375  1.00 55.18 LIG 0.22  C 
ATOM     60 O    VAL C 132      15.193   6.430   9.204  1.00 55.70 LIG-0.29  OA
ENDBRANCH 58 59
BRANCH 58 61
ATOM     61  CB  VAL C 132      14.482   4.634  12.329  1.00 53.16 LIG 0.01  C 
ATOM     62  CG2 VAL C 132      15.195   3.586  13.150  1.00 49.68 LIG 0.01  C 
ATOM     63  CG1 VAL C 132      13.177   4.100  11.756  1.00 55.70 LIG 0.01  C 
ENDBRANCH 58 61
ENDBRANCH 55 58
ENDBRANCH 45 54
ENDBRANCH 42 45
ENDBRANCH 1 41
TORSDOF 29
ENDMDL
MODEL 8
USER: ADFR SOLUTION from run 66
USER: SCORE 20.953247 LL:  -2.101 LR: -21.180 RR:   0.000 FEB: -12.530
USER: RMSD 11.787131
USER: SEED 65
USER: STATUS no improvement in best in 4 clusters for 5 generations
USER: GENES 31
USER: genes 0 Translation |==|  0.40199 0.54683 0.55382
USER: genes 1 Rotation |==|  0.52405 0.01641 0.62002 0.53404
USER: genes 2 Torsion [CB]-CA--N-[C] |==|  0.39196
USER: genes 3 Torsion [N]-C--CA-[N] |==|  0.41139
USER: genes 4 Torsion [C]-CA--CB-[CG] |==|  0.25299
USER: genes 5 Torsion [CA]-CB--CG-[CD] |==|  0.25136
USER: genes 6 Torsion [CB]-CG--CD-[CE] |==|  0.32686
USER: genes 7 Torsion [CG]-CD--CE-[NZ] |==|  0.43522
USER: genes 8 Torsion [CD]-CE--NZ-[HZ3] |==|  0.11797
USER: genes 9 Torsion [C]-CA--N-[C] |==|  0.63371
USER: genes 10 Torsion [N]-C--CA-[N] |==|  0.35778
USER: genes 11 Torsion [C]-CA--CB-[CG] |==|  0.60318
USER: genes 12 Torsion [CA]-CB--CG-[CD] |==|  0.39950
USER: genes 13 Torsion [CB]-CG--CD-[CE] |==|  0.31049
USER: genes 14 Torsion [CG]-CD--CE-[NZ] |==|  0.81729
USER: genes 15 Torsion [CD]-CE--NZ-[HZ3] |==|  0.96821
USER: genes 16 Torsion [N]-CA--CB-[CG] |==|  0.84203
USER: genes 17 Torsion [CA]-CB--CG-[CD] |==|  0.59115
USER: genes 18 Torsion [CB]-CG--CD-[NE] |==|  0.81243
USER: genes 19 Torsion [CG]-CD--NE-[HE] |==|  0.93733
USER: genes 20 Torsion [N]-CA--C-[N] |==|  0.86310
USER: genes 21 Torsion [C]-N--CA-[C] |==|  0.17778
USER: genes 22 Torsion [N]-CA--CB-[CG] |==|  0.59212
USER: genes 23 Torsion [CA]-CB--CG-[CD] |==|  0.66608
USER: genes 24 Torsion [CB]-CG--CD-[CE] |==|  0.57799
USER: genes 25 Torsion [CG]-CD--CE-[NZ] |==|  0.64719
USER: genes 26 Torsion [CD]-CE--NZ-[HZ1] |==|  0.01083
USER: genes 27 Torsion [N]-CA--C-[N] |==|  0.47684
USER: genes 28 Torsion [C]-N--CA-[C] |==|  0.64225
USER: genes 29 Torsion [N]-CA--C-[O] |==|  0.88643
USER: genes 30 Torsion [N]-CA--CB-[CG2] |==|  0.97299
ROOT
ATOM      1  CA  ARG C 130      19.522   4.463  15.217  1.00 44.25 LIG 0.18  C 
ENDROOT
BRANCH 1 2
ATOM      2  N   ARG C 130      20.913   4.103  15.424  1.00 44.77 LIG-0.35  N 
ATOM      3  C   LYS C 129      21.896   4.984  15.295  1.00 47.82 LIG 0.24  C 
ATOM      4 O    LYS C 129      21.703   6.180  15.068  1.00 51.43 LIG-0.27  OA
ATOM      5 H    ARG C 130      21.036   3.278  15.634  1.00 44.77 LIG 0.16  HD
BRANCH 3 6
ATOM      6  CA  LYS C 129      23.308   4.426  15.430  1.00 47.52 LIG 0.18  C 
BRANCH 6 7
ATOM      7  CB  LYS C 129      23.749   4.466  16.885  1.00 47.19 LIG 0.04  C 
BRANCH 7 8
ATOM      8  CG  LYS C 129      23.430   3.208  17.649  1.00 46.82 LIG 0.00  C 
BRANCH 8 9
ATOM      9  CD  LYS C 129      24.552   2.199  17.591  1.00 42.25 LIG 0.03  C 
BRANCH 9 10
ATOM     10  CE  LYS C 129      25.086   1.944  18.987  1.00 38.25 LIG 0.23  C 
BRANCH 10 11
ATOM     11  NZ  LYS C 129      25.776   0.625  19.150  1.00 36.45 LIG-0.08  N 
ATOM     12 HZ3  LYS C 129      26.295   0.472  18.443  1.00 36.45 LIG 0.27  HD
ATOM     13 HZ2  LYS C 129      25.168  -0.021  19.218  1.00 36.45 LIG 0.27  HD
ATOM     14 HZ1  LYS C 129      26.276   0.640  19.886  1.00 36.45 LIG 0.27  HD
ENDBRANCH 10 11
ENDBRANCH 9 10
ENDBRANCH 8 9
ENDBRANCH 7 8
ENDBRANCH 6 7
BRANCH 6 15
ATOM     15  N   LYS C 129      24.216   5.190  14.581  1.00 50.72 LIG-0.35  N 
ATOM     16 H    LYS C 129      24.144   6.044  14.657  1.00 50.72 LIG 0.16  HD
ATOM     17  C   LYS C 128      25.078   4.581  13.764  1.00 53.52 LIG 0.26  C 
ATOM     18 O    LYS C 128      25.264   3.350  13.757  1.00 51.22 LIG-0.27  OA
BRANCH 17 19
ATOM     19  CA  LYS C 128      25.881   5.491  12.827  1.00 56.35 LIG 0.40  C 
ATOM     20  N   LYS C 128      27.320   5.234  12.890  1.00 59.98 LIG 0.61  N 
BRANCH 19 21
ATOM     21  CB  LYS C 128      25.373   5.306  11.407  1.00 54.38 LIG 0.05  C 
BRANCH 21 22
ATOM     22  CG  LYS C 128      26.470   5.359  10.385  1.00 63.27 LIG 0.00  C 
BRANCH 22 23
ATOM     23  CD  LYS C 128      26.232   4.399   9.249  1.00 66.98 LIG 0.03  C 
BRANCH 23 24
ATOM     24  CE  LYS C 128      25.933   5.111   7.934  1.00 66.03 LIG 0.23  C 
BRANCH 24 25
ATOM     25  NZ  LYS C 128      24.636   5.847   8.022  1.00 67.41 LIG-0.08  N 
ATOM     26 HZ3  LYS C 128      24.204   5.599   8.760  1.00 67.41 LIG 0.27  HD
ATOM     27 HZ2  LYS C 128      24.138   5.658   7.309  1.00 67.41 LIG 0.27  HD
ATOM     28 HZ1  LYS C 128      24.792   6.723   8.051  1.00 67.41 LIG 0.27  HD
ENDBRANCH 24 25
ENDBRANCH 23 24
ENDBRANCH 22 23
ENDBRANCH 21 22
ENDBRANCH 19 21
ENDBRANCH 17 19
ENDBRANCH 6 15
ENDBRANCH 3 6
ENDBRANCH 1 2
BRANCH 1 29
ATOM     29  CB  ARG C 130      18.808   3.322  14.499  1.00 44.07 LIG 0.04  C 
BRANCH 29 30
ATOM     30  CG  ARG C 130      19.435   2.934  13.174  1.00 48.13 LIG 0.02  C 
BRANCH 30 31
ATOM     31  CD  ARG C 130      18.364   2.467  12.202  1.00 53.98 LIG 0.14  C 
BRANCH 31 32
ATOM     32  NE  ARG C 130      17.778   1.216  12.645  1.00 57.03 LIG-0.23  N 
ATOM     33  CZ  ARG C 130      16.580   0.766  12.294  1.00 53.36 LIG 0.67  C 
ATOM     34  NH1 ARG C 130      15.791   1.465  11.489  1.00 46.68 LIG-0.23  N 
ATOM     35  NH2 ARG C 130      16.167  -0.401  12.766  1.00 54.86 LIG-0.23  N 
ATOM     36 1HH1 ARG C 130      16.053   2.225  11.184  1.00 46.68 LIG 0.17  HD
ATOM     37 2HH1 ARG C 130      15.018   1.157  11.272  1.00 46.68 LIG 0.17  HD
ATOM     38 1HH2 ARG C 130      16.672  -0.855  13.293  1.00 54.86 LIG 0.17  HD
ATOM     39 2HH2 ARG C 130      15.393  -0.704  12.547  1.00 54.86 LIG 0.17  HD
ATOM     40 HE   ARG C 130      18.244   0.728  13.178  1.00 57.03 LIG 0.18  HD
ENDBRANCH 31 32
ENDBRANCH 30 31
ENDBRANCH 29 30
ENDBRANCH 1 29
BRANCH 1 41
ATOM     41  C   ARG C 130      18.843   4.697  16.544  1.00 43.16 LIG 0.24  C 
ATOM     42  N   LYS C 131      19.015   3.749  17.469  1.00 46.51 LIG-0.35  N 
ATOM     43 H    LYS C 131      19.459   3.028  17.323  1.00 46.51 LIG 0.16  HD
ATOM     44 O    ARG C 130      18.200   5.728  16.720  1.00 41.50 LIG-0.27  OA
BRANCH 42 45
ATOM     45  CA  LYS C 131      18.468   3.833  18.826  1.00 53.22 LIG 0.18  C 
BRANCH 45 46
ATOM     46  CB  LYS C 131      18.932   5.123  19.518  1.00 55.01 LIG 0.04  C 
BRANCH 46 47
ATOM     47  CG  LYS C 131      19.141   5.014  21.016  1.00 52.38 LIG 0.00  C 
BRANCH 47 48
ATOM     48  CD  LYS C 131      18.249   5.973  21.774  1.00 48.84 LIG 0.03  C 
BRANCH 48 49
ATOM     49  CE  LYS C 131      18.869   6.376  23.085  1.00 46.73 LIG 0.23  C 
BRANCH 49 50
ATOM     50  NZ  LYS C 131      17.898   6.127  24.171  1.00 43.41 LIG-0.08  N 
ATOM     51 HZ1  LYS C 131      17.171   5.739  23.835  1.00 43.41 LIG 0.27  HD
ATOM     52 HZ3  LYS C 131      17.673   6.899  24.551  1.00 43.41 LIG 0.27  HD
ATOM     53 HZ2  LYS C 131      18.265   5.592  24.781  1.00 43.41 LIG 0.27  HD
ENDBRANCH 49 50
ENDBRANCH 48 49
ENDBRANCH 47 48
ENDBRANCH 46 47
ENDBRANCH 45 46
BRANCH 45 54
ATOM     54  C   LYS C 131      16.950   3.839  18.801  1.00 59.91 LIG 0.24  C 
ATOM     55  N   VAL C 132      16.367   3.738  19.994  1.00 72.80 LIG-0.35  N 
ATOM     56 H    VAL C 132      16.808   3.533  20.704  1.00 72.80 LIG 0.16  HD
ATOM     57 O    LYS C 131      16.346   3.922  17.738  1.00 55.62 LIG-0.27  OA
BRANCH 55 58
ATOM     58  CA  VAL C 132      14.940   3.956  20.255  1.00 46.38 LIG 0.17  C 
BRANCH 58 59
ATOM     59  C   VAL C 132      14.710   4.937  21.405  1.00 55.18 LIG 0.22  C 
ATOM     60 O    VAL C 132      15.421   4.881  22.419  1.00 55.70 LIG-0.29  OA
ENDBRANCH 58 59
BRANCH 58 61
ATOM     61  CB  VAL C 132      14.147   2.630  20.431  1.00 53.16 LIG 0.01  C 
ATOM     62  CG2 VAL C 132      15.034   1.470  20.046  1.00 49.68 LIG 0.01  C 
ATOM     63  CG1 VAL C 132      12.847   2.624  19.639  1.00 55.70 LIG 0.01  C 
ENDBRANCH 58 61
ENDBRANCH 55 58
ENDBRANCH 45 54
ENDBRANCH 42 45
ENDBRANCH 1 41
TORSDOF 29
ENDMDL
MODEL 9
USER: ADFR SOLUTION from run 122
USER: SCORE 22.275292 LL:  -1.755 LR: -21.162 RR:   0.000 FEB: -12.511
USER: RMSD 10.983720
USER: SEED 121
USER: STATUS no improvement in best in 3 clusters for 5 generations
USER: GENES 31
USER: genes 0 Translation |==|  0.29375 0.60225 0.59901
USER: genes 1 Rotation |==|  0.48981 0.01336 0.53702 0.60819
USER: genes 2 Torsion [CB]-CA--N-[C] |==|  0.18889
USER: genes 3 Torsion [N]-C--CA-[N] |==|  0.93545
USER: genes 4 Torsion [C]-CA--CB-[CG] |==|  0.97044
USER: genes 5 Torsion [CA]-CB--CG-[CD] |==|  0.42063
USER: genes 6 Torsion [CB]-CG--CD-[CE] |==|  0.48255
USER: genes 7 Torsion [CG]-CD--CE-[NZ] |==|  0.34052
USER: genes 8 Torsion [CD]-CE--NZ-[HZ3] |==|  0.02898
USER: genes 9 Torsion [C]-CA--N-[C] |==|  0.81430
USER: genes 10 Torsion [N]-C--CA-[N] |==|  0.89478
USER: genes 11 Torsion [C]-CA--CB-[CG] |==|  0.71374
USER: genes 12 Torsion [CA]-CB--CG-[CD] |==|  0.68536
USER: genes 13 Torsion [CB]-CG--CD-[CE] |==|  0.76435
USER: genes 14 Torsion [CG]-CD--CE-[NZ] |==|  0.70137
USER: genes 15 Torsion [CD]-CE--NZ-[HZ3] |==|  0.54561
USER: genes 16 Torsion [N]-CA--CB-[CG] |==|  0.48036
USER: genes 17 Torsion [CA]-CB--CG-[CD] |==|  0.67785
USER: genes 18 Torsion [CB]-CG--CD-[NE] |==|  0.67093
USER: genes 19 Torsion [CG]-CD--NE-[HE] |==|  0.73851
USER: genes 20 Torsion [N]-CA--C-[N] |==|  0.83695
USER: genes 21 Torsion [C]-N--CA-[C] |==|  0.81673
USER: genes 22 Torsion [N]-CA--CB-[CG] |==|  0.63283
USER: genes 23 Torsion [CA]-CB--CG-[CD] |==|  0.17678
USER: genes 24 Torsion [CB]-CG--CD-[CE] |==|  0.18473
USER: genes 25 Torsion [CG]-CD--CE-[NZ] |==|  0.11439
USER: genes 26 Torsion [CD]-CE--NZ-[HZ1] |==|  0.76322
USER: genes 27 Torsion [N]-CA--C-[N] |==|  0.39391
USER: genes 28 Torsion [C]-N--CA-[C] |==|  0.15265
USER: genes 29 Torsion [N]-CA--C-[O] |==|  0.04712
USER: genes 30 Torsion [N]-CA--CB-[CG2] |==|  0.84742
ROOT
ATOM      1  CA  ARG C 130      16.599   5.335  16.200  1.00 44.25 LIG 0.18  C 
ENDROOT
BRANCH 1 2
ATOM      2  N   ARG C 130      17.857   4.684  15.884  1.00 44.77 LIG-0.35  N 
ATOM      3  C   LYS C 129      18.399   4.743  14.675  1.00 47.82 LIG 0.24  C 
ATOM      4 O    LYS C 129      17.923   5.412  13.755  1.00 51.43 LIG-0.27  OA
ATOM      5 H    ARG C 130      18.212   4.263  16.545  1.00 44.77 LIG 0.16  HD
BRANCH 3 6
ATOM      6  CA  LYS C 129      19.660   3.912  14.471  1.00 47.52 LIG 0.18  C 
BRANCH 6 7
ATOM      7  CB  LYS C 129      19.318   2.604  13.775  1.00 47.19 LIG 0.04  C 
BRANCH 7 8
ATOM      8  CG  LYS C 129      17.841   2.331  13.688  1.00 46.82 LIG 0.00  C 
BRANCH 8 9
ATOM      9  CD  LYS C 129      17.479   1.491  12.487  1.00 42.25 LIG 0.03  C 
BRANCH 9 10
ATOM     10  CE  LYS C 129      16.008   1.125  12.541  1.00 38.25 LIG 0.23  C 
BRANCH 10 11
ATOM     11  NZ  LYS C 129      15.222   1.559  11.343  1.00 36.45 LIG-0.08  N 
ATOM     12 HZ3  LYS C 129      15.778   1.840  10.708  1.00 36.45 LIG 0.27  HD
ATOM     13 HZ2  LYS C 129      14.674   2.223  11.572  1.00 36.45 LIG 0.27  HD
ATOM     14 HZ1  LYS C 129      14.744   0.874  11.037  1.00 36.45 LIG 0.27  HD
ENDBRANCH 10 11
ENDBRANCH 9 10
ENDBRANCH 8 9
ENDBRANCH 7 8
ENDBRANCH 6 7
BRANCH 6 15
ATOM     15  N   LYS C 129      20.299   3.673  15.761  1.00 50.72 LIG-0.35  N 
ATOM     16 H    LYS C 129      20.293   2.852  16.017  1.00 50.72 LIG 0.16  HD
ATOM     17  C   LYS C 128      20.838   4.672  16.462  1.00 53.52 LIG 0.26  C 
ATOM     18 O    LYS C 128      20.954   5.832  16.026  1.00 51.22 LIG-0.27  OA
BRANCH 17 19
ATOM     19  CA  LYS C 128      21.356   4.315  17.861  1.00 56.35 LIG 0.40  C 
ATOM     20  N   LYS C 128      20.500   3.349  18.549  1.00 59.98 LIG 0.61  N 
BRANCH 19 21
ATOM     21  CB  LYS C 128      22.771   3.773  17.737  1.00 54.38 LIG 0.05  C 
BRANCH 21 22
ATOM     22  CG  LYS C 128      22.836   2.280  17.863  1.00 63.27 LIG 0.00  C 
BRANCH 22 23
ATOM     23  CD  LYS C 128      23.561   1.847  19.110  1.00 66.98 LIG 0.03  C 
BRANCH 23 24
ATOM     24  CE  LYS C 128      25.073   1.795  18.918  1.00 66.03 LIG 0.23  C 
BRANCH 24 25
ATOM     25  NZ  LYS C 128      25.543   0.377  18.865  1.00 67.41 LIG-0.08  N 
ATOM     26 HZ3  LYS C 128      26.424   0.352  18.992  1.00 67.41 LIG 0.27  HD
ATOM     27 HZ2  LYS C 128      25.348   0.030  18.069  1.00 67.41 LIG 0.27  HD
ATOM     28 HZ1  LYS C 128      25.138  -0.094  19.502  1.00 67.41 LIG 0.27  HD
ENDBRANCH 24 25
ENDBRANCH 23 24
ENDBRANCH 22 23
ENDBRANCH 21 22
ENDBRANCH 19 21
ENDBRANCH 17 19
ENDBRANCH 6 15
ENDBRANCH 3 6
ENDBRANCH 1 2
BRANCH 1 29
ATOM     29  CB  ARG C 130      15.468   4.637  15.453  1.00 44.07 LIG 0.04  C 
BRANCH 29 30
ATOM     30  CG  ARG C 130      14.082   5.121  15.833  1.00 48.13 LIG 0.02  C 
BRANCH 30 31
ATOM     31  CD  ARG C 130      13.293   3.995  16.481  1.00 53.98 LIG 0.14  C 
BRANCH 31 32
ATOM     32  NE  ARG C 130      12.111   3.681  15.701  1.00 57.03 LIG-0.23  N 
ATOM     33  CZ  ARG C 130      12.075   2.846  14.670  1.00 53.36 LIG 0.67  C 
ATOM     34  NH1 ARG C 130      13.168   2.223  14.250  1.00 46.68 LIG-0.23  N 
ATOM     35  NH2 ARG C 130      10.924   2.642  14.046  1.00 54.86 LIG-0.23  N 
ATOM     36 1HH1 ARG C 130      13.919   2.357  14.648  1.00 46.68 LIG 0.17  HD
ATOM     37 2HH1 ARG C 130      13.126   1.686  13.580  1.00 46.68 LIG 0.17  HD
ATOM     38 1HH2 ARG C 130      10.214   3.048  14.310  1.00 54.86 LIG 0.17  HD
ATOM     39 2HH2 ARG C 130      10.888   2.104  13.376  1.00 54.86 LIG 0.17  HD
ATOM     40 HE   ARG C 130      11.375   4.066  15.924  1.00 57.03 LIG 0.18  HD
ENDBRANCH 31 32
ENDBRANCH 30 31
ENDBRANCH 29 30
ENDBRANCH 1 29
BRANCH 1 41
ATOM     41  C   ARG C 130      16.326   5.247  17.682  1.00 43.16 LIG 0.24  C 
ATOM     42  N   LYS C 131      16.258   4.017  18.196  1.00 46.51 LIG-0.35  N 
ATOM     43 H    LYS C 131      16.335   3.305  17.719  1.00 46.51 LIG 0.16  HD
ATOM     44 O    ARG C 130      16.204   6.279  18.336  1.00 41.50 LIG-0.27  OA
BRANCH 42 45
ATOM     45  CA  LYS C 131      16.046   3.744  19.619  1.00 53.22 LIG 0.18  C 
BRANCH 45 46
ATOM     46  CB  LYS C 131      15.878   2.237  19.864  1.00 55.01 LIG 0.04  C 
BRANCH 46 47
ATOM     47  CG  LYS C 131      14.700   1.850  20.736  1.00 52.38 LIG 0.00  C 
BRANCH 47 48
ATOM     48  CD  LYS C 131      13.383   2.227  20.091  1.00 48.84 LIG 0.03  C 
BRANCH 48 49
ATOM     49  CE  LYS C 131      13.136   1.421  18.844  1.00 46.73 LIG 0.23  C 
BRANCH 49 50
ATOM     50  NZ  LYS C 131      13.543   0.021  19.089  1.00 43.41 LIG-0.08  N 
ATOM     51 HZ1  LYS C 131      14.415  -0.065  18.935  1.00 43.41 LIG 0.27  HD
ATOM     52 HZ3  LYS C 131      13.091  -0.519  18.545  1.00 43.41 LIG 0.27  HD
ATOM     53 HZ2  LYS C 131      13.368  -0.195  19.935  1.00 43.41 LIG 0.27  HD
ENDBRANCH 49 50
ENDBRANCH 48 49
ENDBRANCH 47 48
ENDBRANCH 46 47
ENDBRANCH 45 46
BRANCH 45 54
ATOM     54  C   LYS C 131      17.227   4.220  20.446  1.00 59.91 LIG 0.24  C 
ATOM     55  N   VAL C 132      16.911   4.761  21.622  1.00 72.80 LIG-0.35  N 
ATOM     56 H    VAL C 132      16.101   4.964  21.829  1.00 72.80 LIG 0.16  HD
ATOM     57 O    LYS C 131      18.371   4.105  20.020  1.00 55.62 LIG-0.27  OA
BRANCH 55 58
ATOM     58  CA  VAL C 132      17.867   5.074  22.688  1.00 46.38 LIG 0.17  C 
BRANCH 58 59
ATOM     59  C   VAL C 132      19.001   5.974  22.197  1.00 55.18 LIG 0.22  C 
ATOM     60 O    VAL C 132      18.877   6.601  21.134  1.00 55.70 LIG-0.29  OA
ENDBRANCH 58 59
BRANCH 58 61
ATOM     61  CB  VAL C 132      18.386   3.807  23.427  1.00 53.16 LIG 0.01  C 
ATOM     62  CG2 VAL C 132      17.205   3.019  23.943  1.00 49.68 LIG 0.01  C 
ATOM     63  CG1 VAL C 132      19.359   4.148  24.546  1.00 55.70 LIG 0.01  C 
ENDBRANCH 58 61
ENDBRANCH 55 58
ENDBRANCH 45 54
ENDBRANCH 42 45
ENDBRANCH 1 41
TORSDOF 29
ENDMDL
MODEL 10
USER: ADFR SOLUTION from run 76
USER: SCORE 21.794527 LL:  -2.384 LR: -21.113 RR:   0.000 FEB: -12.463
USER: RMSD 8.559400
USER: SEED 75
USER: STATUS 1 or 2 clusters left
USER: GENES 31
USER: genes 0 Translation |==|  0.42442 0.50459 0.51653
USER: genes 1 Rotation |==|  0.66360 0.80500 0.16632 0.63737
USER: genes 2 Torsion [CB]-CA--N-[C] |==|  0.48006
USER: genes 3 Torsion [N]-C--CA-[N] |==|  0.92379
USER: genes 4 Torsion [C]-CA--CB-[CG] |==|  0.74605
USER: genes 5 Torsion [CA]-CB--CG-[CD] |==|  0.59698
USER: genes 6 Torsion [CB]-CG--CD-[CE] |==|  0.84489
USER: genes 7 Torsion [CG]-CD--CE-[NZ] |==|  0.59918
USER: genes 8 Torsion [CD]-CE--NZ-[HZ3] |==|  0.12583
USER: genes 9 Torsion [C]-CA--N-[C] |==|  0.66816
USER: genes 10 Torsion [N]-C--CA-[N] |==|  0.47734
USER: genes 11 Torsion [C]-CA--CB-[CG] |==|  0.35099
USER: genes 12 Torsion [CA]-CB--CG-[CD] |==|  0.22745
USER: genes 13 Torsion [CB]-CG--CD-[CE] |==|  0.39952
USER: genes 14 Torsion [CG]-CD--CE-[NZ] |==|  0.27917
USER: genes 15 Torsion [CD]-CE--NZ-[HZ3] |==|  0.00472
USER: genes 16 Torsion [N]-CA--CB-[CG] |==|  0.58957
USER: genes 17 Torsion [CA]-CB--CG-[CD] |==|  0.66404
USER: genes 18 Torsion [CB]-CG--CD-[NE] |==|  0.72278
USER: genes 19 Torsion [CG]-CD--NE-[HE] |==|  0.02141
USER: genes 20 Torsion [N]-CA--C-[N] |==|  0.39656
USER: genes 21 Torsion [C]-N--CA-[C] |==|  0.71789
USER: genes 22 Torsion [N]-CA--CB-[CG] |==|  0.93290
USER: genes 23 Torsion [CA]-CB--CG-[CD] |==|  0.37304
USER: genes 24 Torsion [CB]-CG--CD-[CE] |==|  0.06923
USER: genes 25 Torsion [CG]-CD--CE-[NZ] |==|  0.60337
USER: genes 26 Torsion [CD]-CE--NZ-[HZ1] |==|  0.01131
USER: genes 27 Torsion [N]-CA--C-[N] |==|  0.15845
USER: genes 28 Torsion [C]-N--CA-[C] |==|  0.81190
USER: genes 29 Torsion [N]-CA--C-[O] |==|  0.23152
USER: genes 30 Torsion [N]-CA--CB-[CG2] |==|  0.44085
ROOT
ATOM      1  CA  ARG C 130      20.127   3.797  14.405  1.00 44.25 LIG 0.18  C 
ENDROOT
BRANCH 1 2
ATOM      2  N   ARG C 130      20.532   3.978  15.788  1.00 44.77 LIG-0.35  N 
ATOM      3  C   LYS C 129      21.496   4.820  16.136  1.00 47.82 LIG 0.24  C 
ATOM      4 O    LYS C 129      22.064   5.564  15.334  1.00 51.43 LIG-0.27  OA
ATOM      5 H    ARG C 130      20.094   3.495  16.349  1.00 44.77 LIG 0.16  HD
BRANCH 3 6
ATOM      6  CA  LYS C 129      21.883   4.810  17.611  1.00 47.52 LIG 0.18  C 
BRANCH 6 7
ATOM      7  CB  LYS C 129      23.076   3.894  17.833  1.00 47.19 LIG 0.04  C 
BRANCH 7 8
ATOM      8  CG  LYS C 129      22.698   2.477  18.172  1.00 46.82 LIG 0.00  C 
BRANCH 8 9
ATOM      9  CD  LYS C 129      23.660   1.841  19.147  1.00 42.25 LIG 0.03  C 
BRANCH 9 10
ATOM     10  CE  LYS C 129      25.071   1.912  18.595  1.00 38.25 LIG 0.23  C 
BRANCH 10 11
ATOM     11  NZ  LYS C 129      25.918   0.721  18.921  1.00 36.45 LIG-0.08  N 
ATOM     12 HZ3  LYS C 129      25.452  -0.024  18.778  1.00 36.45 LIG 0.27  HD
ATOM     13 HZ2  LYS C 129      26.165   0.756  19.776  1.00 36.45 LIG 0.27  HD
ATOM     14 HZ1  LYS C 129      26.642   0.720  18.404  1.00 36.45 LIG 0.27  HD
ENDBRANCH 10 11
ENDBRANCH 9 10
ENDBRANCH 8 9
ENDBRANCH 7 8
ENDBRANCH 6 7
BRANCH 6 15
ATOM     15  N   LYS C 129      20.738   4.391  18.412  1.00 50.72 LIG-0.35  N 
ATOM     16 H    LYS C 129      20.445   3.602  18.232  1.00 50.72 LIG 0.16  HD
ATOM     17  C   LYS C 128      20.212   5.191  19.341  1.00 53.52 LIG 0.26  C 
ATOM     18 O    LYS C 128      20.721   6.275  19.681  1.00 51.22 LIG-0.27  OA
BRANCH 17 19
ATOM     19  CA  LYS C 128      18.931   4.691  20.019  1.00 56.35 LIG 0.40  C 
ATOM     20  N   LYS C 128      18.528   5.529  21.148  1.00 59.98 LIG 0.61  N 
BRANCH 19 21
ATOM     21  CB  LYS C 128      17.819   4.629  18.984  1.00 54.38 LIG 0.05  C 
BRANCH 21 22
ATOM     22  CG  LYS C 128      17.157   3.284  18.921  1.00 63.27 LIG 0.00  C 
BRANCH 22 23
ATOM     23  CD  LYS C 128      16.114   3.116  19.996  1.00 66.98 LIG 0.03  C 
BRANCH 23 24
ATOM     24  CE  LYS C 128      14.909   2.311  19.519  1.00 66.03 LIG 0.23  C 
BRANCH 24 25
ATOM     25  NZ  LYS C 128      15.003   0.899  19.999  1.00 67.41 LIG-0.08  N 
ATOM     26 HZ3  LYS C 128      15.736   0.802  20.495  1.00 67.41 LIG 0.27  HD
ATOM     27 HZ2  LYS C 128      15.043   0.350  19.299  1.00 67.41 LIG 0.27  HD
ATOM     28 HZ1  LYS C 128      14.286   0.703  20.489  1.00 67.41 LIG 0.27  HD
ENDBRANCH 24 25
ENDBRANCH 23 24
ENDBRANCH 22 23
ENDBRANCH 21 22
ENDBRANCH 19 21
ENDBRANCH 17 19
ENDBRANCH 6 15
ENDBRANCH 3 6
ENDBRANCH 1 2
BRANCH 1 29
ATOM     29  CB  ARG C 130      19.133   2.645  14.317  1.00 44.07 LIG 0.04  C 
BRANCH 29 30
ATOM     30  CG  ARG C 130      19.208   1.859  13.023  1.00 48.13 LIG 0.02  C 
BRANCH 30 31
ATOM     31  CD  ARG C 130      17.868   1.900  12.305  1.00 53.98 LIG 0.14  C 
BRANCH 31 32
ATOM     32  NE  ARG C 130      17.121   0.679  12.541  1.00 57.03 LIG-0.23  N 
ATOM     33  CZ  ARG C 130      15.985   0.350  11.939  1.00 53.36 LIG 0.67  C 
ATOM     34  NH1 ARG C 130      15.418   1.156  11.051  1.00 46.68 LIG-0.23  N 
ATOM     35  NH2 ARG C 130      15.406  -0.802  12.243  1.00 54.86 LIG-0.23  N 
ATOM     36 1HH1 ARG C 130      15.787   1.907  10.855  1.00 46.68 LIG 0.17  HD
ATOM     37 2HH1 ARG C 130      14.682   0.926  10.671  1.00 46.68 LIG 0.17  HD
ATOM     38 1HH2 ARG C 130      15.766  -1.325  12.822  1.00 54.86 LIG 0.17  HD
ATOM     39 2HH2 ARG C 130      14.669  -1.027  11.860  1.00 54.86 LIG 0.17  HD
ATOM     40 HE   ARG C 130      17.439   0.125  13.117  1.00 57.03 LIG 0.18  HD
ENDBRANCH 31 32
ENDBRANCH 30 31
ENDBRANCH 29 30
ENDBRANCH 1 29
BRANCH 1 41
ATOM     41  C   ARG C 130      19.460   5.050  13.891  1.00 43.16 LIG 0.24  C 
ATOM     42  N   LYS C 131      19.715   5.374  12.621  1.00 46.51 LIG-0.35  N 
ATOM     43 H    LYS C 131      20.248   4.922  12.120  1.00 46.51 LIG 0.16  HD
ATOM     44 O    ARG C 130      18.717   5.687  14.633  1.00 41.50 LIG-0.27  OA
BRANCH 42 45
ATOM     45  CA  LYS C 131      19.118   6.528  11.945  1.00 53.22 LIG 0.18  C 
BRANCH 45 46
ATOM     46  CB  LYS C 131      20.161   7.245  11.074  1.00 55.01 LIG 0.04  C 
BRANCH 46 47
ATOM     47  CG  LYS C 131      21.604   7.040  11.493  1.00 52.38 LIG 0.00  C 
BRANCH 47 48
ATOM     48  CD  LYS C 131      22.489   6.725  10.306  1.00 48.84 LIG 0.03  C 
BRANCH 48 49
ATOM     49  CE  LYS C 131      21.904   7.269   9.030  1.00 46.73 LIG 0.23  C 
BRANCH 49 50
ATOM     50  NZ  LYS C 131      22.168   6.311   7.936  1.00 43.41 LIG-0.08  N 
ATOM     51 HZ1  LYS C 131      22.564   5.585   8.266  1.00 43.41 LIG 0.27  HD
ATOM     52 HZ3  LYS C 131      22.700   6.689   7.331  1.00 43.41 LIG 0.27  HD
ATOM     53 HZ2  LYS C 131      21.399   6.080   7.551  1.00 43.41 LIG 0.27  HD
ENDBRANCH 49 50
ENDBRANCH 48 49
ENDBRANCH 47 48
ENDBRANCH 46 47
ENDBRANCH 45 46
BRANCH 45 54
ATOM     54  C   LYS C 131      17.975   6.100  11.041  1.00 59.91 LIG 0.24  C 
ATOM     55  N   VAL C 132      16.998   5.429  11.649  1.00 72.80 LIG-0.35  N 
ATOM     56 H    VAL C 132      17.078   5.131  12.452  1.00 72.80 LIG 0.16  HD
ATOM     57 O    LYS C 131      17.997   6.363   9.845  1.00 55.62 LIG-0.27  OA
BRANCH 55 58
ATOM     58  CA  VAL C 132      15.695   5.119  11.053  1.00 46.38 LIG 0.17  C 
BRANCH 58 59
ATOM     59  C   VAL C 132      14.850   6.374  10.835  1.00 55.18 LIG 0.22  C 
ATOM     60 O    VAL C 132      15.018   7.065   9.819  1.00 55.70 LIG-0.29  OA
ENDBRANCH 58 59
BRANCH 58 61
ATOM     61  CB  VAL C 132      14.927   4.006  11.822  1.00 53.16 LIG 0.01  C 
ATOM     62  CG2 VAL C 132      13.455   4.110  11.500  1.00 49.68 LIG 0.01  C 
ATOM     63  CG1 VAL C 132      15.175   4.063  13.322  1.00 55.70 LIG 0.01  C 
ENDBRANCH 58 61
ENDBRANCH 55 58
ENDBRANCH 45 54
ENDBRANCH 42 45
ENDBRANCH 1 41
TORSDOF 29
ENDMDL
MODEL 11
USER: ADFR SOLUTION from run 192
USER: SCORE 22.150535 LL:  -1.761 LR: -21.092 RR:   0.000 FEB: -12.441
USER: RMSD 8.845836
USER: SEED 191
USER: STATUS searching
USER: GENES 31
USER: genes 0 Translation |==|  0.36838 0.53199 0.52805
USER: genes 1 Rotation |==|  0.88025 0.28834 0.63862 0.70345
USER: genes 2 Torsion [CB]-CA--N-[C] |==|  0.84420
USER: genes 3 Torsion [N]-C--CA-[N] |==|  0.02079
USER: genes 4 Torsion [C]-CA--CB-[CG] |==|  0.36887
USER: genes 5 Torsion [CA]-CB--CG-[CD] |==|  0.96747
USER: genes 6 Torsion [CB]-CG--CD-[CE] |==|  0.62520
USER: genes 7 Torsion [CG]-CD--CE-[NZ] |==|  0.48389
USER: genes 8 Torsion [CD]-CE--NZ-[HZ3] |==|  0.07314
USER: genes 9 Torsion [C]-CA--N-[C] |==|  0.69183
USER: genes 10 Torsion [N]-C--CA-[N] |==|  0.31296
USER: genes 11 Torsion [C]-CA--CB-[CG] |==|  0.34187
USER: genes 12 Torsion [CA]-CB--CG-[CD] |==|  0.72746
USER: genes 13 Torsion [CB]-CG--CD-[CE] |==|  0.49787
USER: genes 14 Torsion [CG]-CD--CE-[NZ] |==|  0.29834
USER: genes 15 Torsion [CD]-CE--NZ-[HZ3] |==|  0.73458
USER: genes 16 Torsion [N]-CA--CB-[CG] |==|  0.88982
USER: genes 17 Torsion [CA]-CB--CG-[CD] |==|  0.88325
USER: genes 18 Torsion [CB]-CG--CD-[NE] |==|  0.72929
USER: genes 19 Torsion [CG]-CD--NE-[HE] |==|  0.06666
USER: genes 20 Torsion [N]-CA--C-[N] |==|  0.47222
USER: genes 21 Torsion [C]-N--CA-[C] |==|  0.72890
USER: genes 22 Torsion [N]-CA--CB-[CG] |==|  0.60331
USER: genes 23 Torsion [CA]-CB--CG-[CD] |==|  0.57066
USER: genes 24 Torsion [CB]-CG--CD-[CE] |==|  0.42534
USER: genes 25 Torsion [CG]-CD--CE-[NZ] |==|  0.42876
USER: genes 26 Torsion [CD]-CE--NZ-[HZ1] |==|  0.63062
USER: genes 27 Torsion [N]-CA--C-[N] |==|  0.96571
USER: genes 28 Torsion [C]-N--CA-[C] |==|  0.19236
USER: genes 29 Torsion [N]-CA--C-[O] |==|  0.07829
USER: genes 30 Torsion [N]-CA--CB-[CG2] |==|  0.80211
ROOT
ATOM      1  CA  ARG C 130      18.614   4.229  14.656  1.00 44.25 LIG 0.18  C 
ENDROOT
BRANCH 1 2
ATOM      2  N   ARG C 130      18.468   5.101  13.505  1.00 44.77 LIG-0.35  N 
ATOM      3  C   LYS C 129      19.512   5.653  12.901  1.00 47.82 LIG 0.24  C 
ATOM      4 O    LYS C 129      20.679   5.411  13.217  1.00 51.43 LIG-0.27  OA
ATOM      5 H    ARG C 130      17.654   5.224  13.257  1.00 44.77 LIG 0.16  HD
BRANCH 3 6
ATOM      6  CA  LYS C 129      19.187   6.636  11.781  1.00 47.52 LIG 0.18  C 
BRANCH 6 7
ATOM      7  CB  LYS C 129      19.960   7.931  11.981  1.00 47.19 LIG 0.04  C 
BRANCH 7 8
ATOM      8  CG  LYS C 129      20.646   8.425  10.736  1.00 46.82 LIG 0.00  C 
BRANCH 8 9
ATOM      9  CD  LYS C 129      20.655   7.393   9.635  1.00 42.25 LIG 0.03  C 
BRANCH 9 10
ATOM     10  CE  LYS C 129      22.034   7.327   9.005  1.00 38.25 LIG 0.23  C 
BRANCH 10 11
ATOM     11  NZ  LYS C 129      22.195   6.238   7.990  1.00 36.45 LIG-0.08  N 
ATOM     12 HZ3  LYS C 129      21.402   6.044   7.634  1.00 36.45 LIG 0.27  HD
ATOM     13 HZ2  LYS C 129      22.528   5.513   8.384  1.00 36.45 LIG 0.27  HD
ATOM     14 HZ1  LYS C 129      22.749   6.508   7.349  1.00 36.45 LIG 0.27  HD
ENDBRANCH 10 11
ENDBRANCH 9 10
ENDBRANCH 8 9
ENDBRANCH 7 8
ENDBRANCH 6 7
BRANCH 6 15
ATOM     15  N   LYS C 129      17.749   6.877  11.748  1.00 50.72 LIG-0.35  N 
ATOM     16 H    LYS C 129      17.445   7.319  12.421  1.00 50.72 LIG 0.16  HD
ATOM     17  C   LYS C 128      16.996   6.434  10.741  1.00 53.52 LIG 0.26  C 
ATOM     18 O    LYS C 128      17.463   5.909   9.713  1.00 51.22 LIG-0.27  OA
BRANCH 17 19
ATOM     19  CA  LYS C 128      15.482   6.633  10.888  1.00 56.35 LIG 0.40  C 
ATOM     20  N   LYS C 128      14.944   7.591   9.922  1.00 59.98 LIG 0.61  N 
BRANCH 19 21
ATOM     21  CB  LYS C 128      14.792   5.287  10.738  1.00 54.38 LIG 0.05  C 
BRANCH 21 22
ATOM     22  CG  LYS C 128      13.947   4.930  11.925  1.00 63.27 LIG 0.00  C 
BRANCH 22 23
ATOM     23  CD  LYS C 128      14.663   4.004  12.873  1.00 66.98 LIG 0.03  C 
BRANCH 23 24
ATOM     24  CE  LYS C 128      13.820   3.649  14.093  1.00 66.03 LIG 0.23  C 
BRANCH 24 25
ATOM     25  NZ  LYS C 128      13.343   2.236  14.004  1.00 67.41 LIG-0.08  N 
ATOM     26 HZ3  LYS C 128      12.524   2.220  13.657  1.00 67.41 LIG 0.27  HD
ATOM     27 HZ2  LYS C 128      13.328   1.876  14.818  1.00 67.41 LIG 0.27  HD
ATOM     28 HZ1  LYS C 128      13.894   1.769  13.484  1.00 67.41 LIG 0.27  HD
ENDBRANCH 24 25
ENDBRANCH 23 24
ENDBRANCH 22 23
ENDBRANCH 21 22
ENDBRANCH 19 21
ENDBRANCH 17 19
ENDBRANCH 6 15
ENDBRANCH 3 6
ENDBRANCH 1 2
BRANCH 1 29
ATOM     29  CB  ARG C 130      19.542   3.073  14.298  1.00 44.07 LIG 0.04  C 
BRANCH 29 30
ATOM     30  CG  ARG C 130      19.338   2.524  12.899  1.00 48.13 LIG 0.02  C 
BRANCH 30 31
ATOM     31  CD  ARG C 130      17.853   2.423  12.587  1.00 53.98 LIG 0.14  C 
BRANCH 31 32
ATOM     32  NE  ARG C 130      17.371   1.074  12.815  1.00 57.03 LIG-0.23  N 
ATOM     33  CZ  ARG C 130      16.301   0.538  12.240  1.00 53.36 LIG 0.67  C 
ATOM     34  NH1 ARG C 130      15.555   1.232  11.391  1.00 46.68 LIG-0.23  N 
ATOM     35  NH2 ARG C 130      15.972  -0.712  12.532  1.00 54.86 LIG-0.23  N 
ATOM     36 1HH1 ARG C 130      15.761   2.045  11.203  1.00 46.68 LIG 0.17  HD
ATOM     37 2HH1 ARG C 130      14.866   0.867  11.028  1.00 46.68 LIG 0.17  HD
ATOM     38 1HH2 ARG C 130      16.450  -1.164  13.086  1.00 54.86 LIG 0.17  HD
ATOM     39 2HH2 ARG C 130      15.282  -1.071  12.167  1.00 54.86 LIG 0.17  HD
ATOM     40 HE   ARG C 130      17.812   0.584  13.366  1.00 57.03 LIG 0.18  HD
ENDBRANCH 31 32
ENDBRANCH 30 31
ENDBRANCH 29 30
ENDBRANCH 1 29
BRANCH 1 41
ATOM     41  C   ARG C 130      19.217   4.990  15.812  1.00 43.16 LIG 0.24  C 
ATOM     42  N   LYS C 131      19.215   4.367  16.993  1.00 46.51 LIG-0.35  N 
ATOM     43 H    LYS C 131      18.869   3.588  17.111  1.00 46.51 LIG 0.16  HD
ATOM     44 O    ARG C 130      19.689   6.107  15.619  1.00 41.50 LIG-0.27  OA
BRANCH 42 45
ATOM     45  CA  LYS C 131      19.798   4.936  18.210  1.00 53.22 LIG 0.18  C 
BRANCH 45 46
ATOM     46  CB  LYS C 131      18.945   4.580  19.437  1.00 55.01 LIG 0.04  C 
BRANCH 46 47
ATOM     47  CG  LYS C 131      18.833   5.669  20.486  1.00 52.38 LIG 0.00  C 
BRANCH 47 48
ATOM     48  CD  LYS C 131      18.548   5.095  21.857  1.00 48.84 LIG 0.03  C 
BRANCH 48 49
ATOM     49  CE  LYS C 131      19.061   5.998  22.945  1.00 46.73 LIG 0.23  C 
BRANCH 49 50
ATOM     50  NZ  LYS C 131      18.271   5.767  24.172  1.00 43.41 LIG-0.08  N 
ATOM     51 HZ1  LYS C 131      18.026   6.550  24.520  1.00 43.41 LIG 0.27  HD
ATOM     52 HZ3  LYS C 131      18.764   5.322  24.765  1.00 43.41 LIG 0.27  HD
ATOM     53 HZ2  LYS C 131      17.545   5.291  23.973  1.00 43.41 LIG 0.27  HD
ENDBRANCH 49 50
ENDBRANCH 48 49
ENDBRANCH 47 48
ENDBRANCH 46 47
ENDBRANCH 45 46
BRANCH 45 54
ATOM     54  C   LYS C 131      21.198   4.400  18.446  1.00 59.91 LIG 0.24  C 
ATOM     55  N   VAL C 132      21.535   3.355  17.692  1.00 72.80 LIG-0.35  N 
ATOM     56 H    VAL C 132      20.958   2.924  17.222  1.00 72.80 LIG 0.16  HD
ATOM     57 O    LYS C 131      21.928   4.914  19.286  1.00 55.62 LIG-0.27  OA
BRANCH 55 58
ATOM     58  CA  VAL C 132      22.892   2.813  17.564  1.00 46.38 LIG 0.17  C 
BRANCH 58 59
ATOM     59  C   VAL C 132      23.366   2.141  18.854  1.00 55.18 LIG 0.22  C 
ATOM     60 O    VAL C 132      22.540   1.636  19.628  1.00 55.70 LIG-0.29  OA
ENDBRANCH 58 59
BRANCH 58 61
ATOM     61  CB  VAL C 132      23.912   3.855  17.023  1.00 53.16 LIG 0.01  C 
ATOM     62  CG2 VAL C 132      23.626   4.110  15.562  1.00 49.68 LIG 0.01  C 
ATOM     63  CG1 VAL C 132      25.354   3.421  17.241  1.00 55.70 LIG 0.01  C 
ENDBRANCH 58 61
ENDBRANCH 55 58
ENDBRANCH 45 54
ENDBRANCH 42 45
ENDBRANCH 1 41
TORSDOF 29
ENDMDL
MODEL 12
USER: ADFR SOLUTION from run 12
USER: SCORE 22.187729 LL:  -1.567 LR: -21.070 RR:   0.000 FEB: -12.419
USER: RMSD 7.713699
USER: SEED 192859
USER: STATUS no improvement in best in 4 clusters for 5 generations
USER: GENES 31
USER: genes 0 Translation |==|  0.35477 0.52232 0.57238
USER: genes 1 Rotation |==|  0.02107 0.40661 0.52687 0.60575
USER: genes 2 Torsion [CB]-CA--N-[C] |==|  0.85798
USER: genes 3 Torsion [N]-C--CA-[N] |==|  0.88149
USER: genes 4 Torsion [C]-CA--CB-[CG] |==|  0.58055
USER: genes 5 Torsion [CA]-CB--CG-[CD] |==|  0.48050
USER: genes 6 Torsion [CB]-CG--CD-[CE] |==|  0.69163
USER: genes 7 Torsion [CG]-CD--CE-[NZ] |==|  0.88981
USER: genes 8 Torsion [CD]-CE--NZ-[HZ3] |==|  0.87638
USER: genes 9 Torsion [C]-CA--N-[C] |==|  0.84769
USER: genes 10 Torsion [N]-C--CA-[N] |==|  0.31499
USER: genes 11 Torsion [C]-CA--CB-[CG] |==|  0.14487
USER: genes 12 Torsion [CA]-CB--CG-[CD] |==|  0.27065
USER: genes 13 Torsion [CB]-CG--CD-[CE] |==|  0.18511
USER: genes 14 Torsion [CG]-CD--CE-[NZ] |==|  0.67158
USER: genes 15 Torsion [CD]-CE--NZ-[HZ3] |==|  0.39445
USER: genes 16 Torsion [N]-CA--CB-[CG] |==|  0.45521
USER: genes 17 Torsion [CA]-CB--CG-[CD] |==|  0.21920
USER: genes 18 Torsion [CB]-CG--CD-[NE] |==|  0.88007
USER: genes 19 Torsion [CG]-CD--NE-[HE] |==|  0.78683
USER: genes 20 Torsion [N]-CA--C-[N] |==|  0.38613
USER: genes 21 Torsion [C]-N--CA-[C] |==|  0.71065
USER: genes 22 Torsion [N]-CA--CB-[CG] |==|  0.33344
USER: genes 23 Torsion [CA]-CB--CG-[CD] |==|  0.25163
USER: genes 24 Torsion [CB]-CG--CD-[CE] |==|  0.47258
USER: genes 25 Torsion [CG]-CD--CE-[NZ] |==|  0.79035
USER: genes 26 Torsion [CD]-CE--NZ-[HZ1] |==|  0.27047
USER: genes 27 Torsion [N]-CA--C-[N] |==|  0.91692
USER: genes 28 Torsion [C]-N--CA-[C] |==|  0.26640
USER: genes 29 Torsion [N]-CA--C-[O] |==|  0.04871
USER: genes 30 Torsion [N]-CA--CB-[CG2] |==|  0.77340
ROOT
ATOM      1  CA  ARG C 130      18.247   4.077  15.620  1.00 44.25 LIG 0.18  C 
ENDROOT
BRANCH 1 2
ATOM      2  N   ARG C 130      16.862   4.005  16.049  1.00 44.77 LIG-0.35  N 
ATOM      3  C   LYS C 129      16.238   5.040  16.596  1.00 47.82 LIG 0.24  C 
ATOM      4 O    LYS C 129      16.754   6.153  16.711  1.00 51.43 LIG-0.27  OA
ATOM      5 H    ARG C 130      16.491   3.240  15.916  1.00 44.77 LIG 0.16  HD
BRANCH 3 6
ATOM      6  CA  LYS C 129      14.824   4.771  17.098  1.00 47.52 LIG 0.18  C 
BRANCH 6 7
ATOM      7  CB  LYS C 129      14.872   4.087  18.455  1.00 47.19 LIG 0.04  C 
BRANCH 7 8
ATOM      8  CG  LYS C 129      13.693   3.191  18.724  1.00 46.82 LIG 0.00  C 
BRANCH 8 9
ATOM      9  CD  LYS C 129      13.851   2.398  20.000  1.00 42.25 LIG 0.03  C 
BRANCH 9 10
ATOM     10  CE  LYS C 129      14.039   0.929  19.671  1.00 38.25 LIG 0.23  C 
BRANCH 10 11
ATOM     11  NZ  LYS C 129      13.181   0.437  18.546  1.00 36.45 LIG-0.08  N 
ATOM     12 HZ3  LYS C 129      12.353   0.746  18.647  1.00 36.45 LIG 0.27  HD
ATOM     13 HZ2  LYS C 129      13.168  -0.453  18.550  1.00 36.45 LIG 0.27  HD
ATOM     14 HZ1  LYS C 129      13.512   0.725  17.772  1.00 36.45 LIG 0.27  HD
ENDBRANCH 10 11
ENDBRANCH 9 10
ENDBRANCH 8 9
ENDBRANCH 7 8
ENDBRANCH 6 7
BRANCH 6 15
ATOM     15  N   LYS C 129      14.106   3.960  16.121  1.00 50.72 LIG-0.35  N 
ATOM     16 H    LYS C 129      13.770   3.234  16.437  1.00 50.72 LIG 0.16  HD
ATOM     17  C   LYS C 128      14.000   4.342  14.847  1.00 53.52 LIG 0.26  C 
ATOM     18 O    LYS C 128      14.379   5.452  14.430  1.00 51.22 LIG-0.27  OA
BRANCH 17 19
ATOM     19  CA  LYS C 128      13.341   3.340  13.892  1.00 56.35 LIG 0.40  C 
ATOM     20  N   LYS C 128      12.056   3.814  13.378  1.00 59.98 LIG 0.61  N 
BRANCH 19 21
ATOM     21  CB  LYS C 128      14.295   3.052  12.746  1.00 54.38 LIG 0.05  C 
BRANCH 21 22
ATOM     22  CG  LYS C 128      15.662   2.647  13.213  1.00 63.27 LIG 0.00  C 
BRANCH 22 23
ATOM     23  CD  LYS C 128      15.837   1.151  13.221  1.00 66.98 LIG 0.03  C 
BRANCH 23 24
ATOM     24  CE  LYS C 128      15.811   0.551  11.819  1.00 66.03 LIG 0.23  C 
BRANCH 24 25
ATOM     25  NZ  LYS C 128      14.668  -0.400  11.680  1.00 67.41 LIG-0.08  N 
ATOM     26 HZ3  LYS C 128      14.315  -0.322  10.866  1.00 67.41 LIG 0.27  HD
ATOM     27 HZ2  LYS C 128      14.049  -0.212  12.291  1.00 67.41 LIG 0.27  HD
ATOM     28 HZ1  LYS C 128      14.958  -1.233  11.798  1.00 67.41 LIG 0.27  HD
ENDBRANCH 24 25
ENDBRANCH 23 24
ENDBRANCH 22 23
ENDBRANCH 21 22
ENDBRANCH 19 21
ENDBRANCH 17 19
ENDBRANCH 6 15
ENDBRANCH 3 6
ENDBRANCH 1 2
BRANCH 1 29
ATOM     29  CB  ARG C 130      18.437   5.299  14.729  1.00 44.07 LIG 0.04  C 
BRANCH 29 30
ATOM     30  CG  ARG C 130      19.885   5.704  14.532  1.00 48.13 LIG 0.02  C 
BRANCH 30 31
ATOM     31  CD  ARG C 130      20.546   4.804  13.501  1.00 53.98 LIG 0.14  C 
BRANCH 31 32
ATOM     32  NE  ARG C 130      20.176   3.418  13.716  1.00 57.03 LIG-0.23  N 
ATOM     33  CZ  ARG C 130      19.289   2.743  12.995  1.00 53.36 LIG 0.67  C 
ATOM     34  NH1 ARG C 130      18.638   3.316  11.991  1.00 46.68 LIG-0.23  N 
ATOM     35  NH2 ARG C 130      19.049   1.475  13.293  1.00 54.86 LIG-0.23  N 
ATOM     36 1HH1 ARG C 130      18.787   4.140  11.797  1.00 46.68 LIG 0.17  HD
ATOM     37 2HH1 ARG C 130      18.067   2.863  11.535  1.00 46.68 LIG 0.17  HD
ATOM     38 1HH2 ARG C 130      19.464   1.100  13.947  1.00 54.86 LIG 0.17  HD
ATOM     39 2HH2 ARG C 130      18.476   1.027  12.834  1.00 54.86 LIG 0.17  HD
ATOM     40 HE   ARG C 130      20.562   3.001  14.361  1.00 57.03 LIG 0.18  HD
ENDBRANCH 31 32
ENDBRANCH 30 31
ENDBRANCH 29 30
ENDBRANCH 1 29
BRANCH 1 41
ATOM     41  C   ARG C 130      19.155   4.208  16.819  1.00 43.16 LIG 0.24  C 
ATOM     42  N   LYS C 131      20.284   3.495  16.784  1.00 46.51 LIG-0.35  N 
ATOM     43 H    LYS C 131      20.482   2.965  16.137  1.00 46.51 LIG 0.16  HD
ATOM     44 O    ARG C 130      18.839   4.960  17.737  1.00 41.50 LIG-0.27  OA
BRANCH 42 45
ATOM     45  CA  LYS C 131      21.301   3.537  17.837  1.00 53.22 LIG 0.18  C 
BRANCH 45 46
ATOM     46  CB  LYS C 131      21.793   2.120  18.171  1.00 55.01 LIG 0.04  C 
BRANCH 46 47
ATOM     47  CG  LYS C 131      23.276   1.884  17.959  1.00 52.38 LIG 0.00  C 
BRANCH 47 48
ATOM     48  CD  LYS C 131      24.071   2.184  19.211  1.00 48.84 LIG 0.03  C 
BRANCH 48 49
ATOM     49  CE  LYS C 131      25.498   1.725  19.075  1.00 46.73 LIG 0.23  C 
BRANCH 49 50
ATOM     50  NZ  LYS C 131      25.543   0.254  19.214  1.00 43.41 LIG-0.08  N 
ATOM     51 HZ1  LYS C 131      25.554  -0.120  18.406  1.00 43.41 LIG 0.27  HD
ATOM     52 HZ3  LYS C 131      24.825  -0.025  19.659  1.00 43.41 LIG 0.27  HD
ATOM     53 HZ2  LYS C 131      26.277   0.020  19.660  1.00 43.41 LIG 0.27  HD
ENDBRANCH 49 50
ENDBRANCH 48 49
ENDBRANCH 47 48
ENDBRANCH 46 47
ENDBRANCH 45 46
BRANCH 45 54
ATOM     54  C   LYS C 131      22.503   4.356  17.402  1.00 59.91 LIG 0.24  C 
ATOM     55  N   VAL C 132      22.744   4.349  16.093  1.00 72.80 LIG-0.35  N 
ATOM     56 H    VAL C 132      22.348   3.806  15.556  1.00 72.80 LIG 0.16  HD
ATOM     57 O    LYS C 131      23.180   4.954  18.230  1.00 55.62 LIG-0.27  OA
BRANCH 55 58
ATOM     58  CA  VAL C 132      23.688   5.238  15.407  1.00 46.38 LIG 0.17  C 
BRANCH 58 59
ATOM     59  C   VAL C 132      25.054   4.581  15.206  1.00 55.18 LIG 0.22  C 
ATOM     60 O    VAL C 132      25.168   3.350  15.301  1.00 55.70 LIG-0.29  OA
ENDBRANCH 58 59
BRANCH 58 61
ATOM     61  CB  VAL C 132      23.791   6.641  16.072  1.00 53.16 LIG 0.01  C 
ATOM     62  CG2 VAL C 132      22.639   7.496  15.599  1.00 49.68 LIG 0.01  C 
ATOM     63  CG1 VAL C 132      25.130   7.311  15.805  1.00 55.70 LIG 0.01  C 
ENDBRANCH 58 61
ENDBRANCH 55 58
ENDBRANCH 45 54
ENDBRANCH 42 45
ENDBRANCH 1 41
TORSDOF 29
ENDMDL
MODEL 13
USER: ADFR SOLUTION from run 172
USER: SCORE 20.407086 LL:  -1.765 LR: -20.979 RR:   0.000 FEB: -12.328
USER: RMSD 9.303662
USER: SEED 171
USER: STATUS no improvement in best in 1 clusters for 5 generations
USER: GENES 31
USER: genes 0 Translation |==|  0.55235 0.50495 0.65715
USER: genes 1 Rotation |==|  0.14907 0.36323 0.17500 0.55021
USER: genes 2 Torsion [CB]-CA--N-[C] |==|  0.17778
USER: genes 3 Torsion [N]-C--CA-[N] |==|  0.98970
USER: genes 4 Torsion [C]-CA--CB-[CG] |==|  0.21149
USER: genes 5 Torsion [CA]-CB--CG-[CD] |==|  0.38949
USER: genes 6 Torsion [CB]-CG--CD-[CE] |==|  0.59428
USER: genes 7 Torsion [CG]-CD--CE-[NZ] |==|  0.55055
USER: genes 8 Torsion [CD]-CE--NZ-[HZ3] |==|  0.27860
USER: genes 9 Torsion [C]-CA--N-[C] |==|  0.42533
USER: genes 10 Torsion [N]-C--CA-[N] |==|  0.48355
USER: genes 11 Torsion [C]-CA--CB-[CG] |==|  0.43668
USER: genes 12 Torsion [CA]-CB--CG-[CD] |==|  0.44073
USER: genes 13 Torsion [CB]-CG--CD-[CE] |==|  0.58739
USER: genes 14 Torsion [CG]-CD--CE-[NZ] |==|  0.31446
USER: genes 15 Torsion [CD]-CE--NZ-[HZ3] |==|  0.62417
USER: genes 16 Torsion [N]-CA--CB-[CG] |==|  0.47797
USER: genes 17 Torsion [CA]-CB--CG-[CD] |==|  0.19994
USER: genes 18 Torsion [CB]-CG--CD-[NE] |==|  0.82473
USER: genes 19 Torsion [CG]-CD--NE-[HE] |==|  0.99547
USER: genes 20 Torsion [N]-CA--C-[N] |==|  0.80073
USER: genes 21 Torsion [C]-N--CA-[C] |==|  0.78241
USER: genes 22 Torsion [N]-CA--CB-[CG] |==|  0.49388
USER: genes 23 Torsion [CA]-CB--CG-[CD] |==|  0.24873
USER: genes 24 Torsion [CB]-CG--CD-[CE] |==|  0.56276
USER: genes 25 Torsion [CG]-CD--CE-[NZ] |==|  0.53988
USER: genes 26 Torsion [CD]-CE--NZ-[HZ1] |==|  0.75255
USER: genes 27 Torsion [N]-CA--C-[N] |==|  0.43409
USER: genes 28 Torsion [C]-N--CA-[C] |==|  0.81888
USER: genes 29 Torsion [N]-CA--C-[O] |==|  0.84107
USER: genes 30 Torsion [N]-CA--CB-[CG2] |==|  0.48195
ROOT
ATOM      1  CA  ARG C 130      23.581   3.803  17.464  1.00 44.25 LIG 0.18  C 
ENDROOT
BRANCH 1 2
ATOM      2  N   ARG C 130      23.133   3.875  16.085  1.00 44.77 LIG-0.35  N 
ATOM      3  C   LYS C 129      23.983   3.916  15.068  1.00 47.82 LIG 0.24  C 
ATOM      4 O    LYS C 129      25.204   3.819  15.206  1.00 51.43 LIG-0.27  OA
ATOM      5 H    ARG C 130      22.278   3.888  15.993  1.00 44.77 LIG 0.16  HD
BRANCH 3 6
ATOM      6  CA  LYS C 129      23.360   4.107  13.690  1.00 47.52 LIG 0.18  C 
BRANCH 6 7
ATOM      7  CB  LYS C 129      23.868   5.394  13.060  1.00 47.19 LIG 0.04  C 
BRANCH 7 8
ATOM      8  CG  LYS C 129      25.271   5.294  12.524  1.00 46.82 LIG 0.00  C 
BRANCH 8 9
ATOM      9  CD  LYS C 129      25.439   6.018  11.209  1.00 42.25 LIG 0.03  C 
BRANCH 9 10
ATOM     10  CE  LYS C 129      26.438   5.279  10.340  1.00 38.25 LIG 0.23  C 
BRANCH 10 11
ATOM     11  NZ  LYS C 129      27.006   6.099   9.223  1.00 36.45 LIG-0.08  N 
ATOM     12 HZ3  LYS C 129      27.814   6.393   9.451  1.00 36.45 LIG 0.27  HD
ATOM     13 HZ2  LYS C 129      26.472   6.793   9.063  1.00 36.45 LIG 0.27  HD
ATOM     14 HZ1  LYS C 129      27.069   5.599   8.489  1.00 36.45 LIG 0.27  HD
ENDBRANCH 10 11
ENDBRANCH 9 10
ENDBRANCH 8 9
ENDBRANCH 7 8
ENDBRANCH 6 7
BRANCH 6 15
ATOM     15  N   LYS C 129      21.906   4.115  13.811  1.00 50.72 LIG-0.35  N 
ATOM     16 H    LYS C 129      21.600   3.675  14.484  1.00 50.72 LIG 0.16  HD
ATOM     17  C   LYS C 128      21.142   4.764  12.930  1.00 53.52 LIG 0.26  C 
ATOM     18 O    LYS C 128      21.598   5.502  12.037  1.00 51.22 LIG-0.27  OA
BRANCH 17 19
ATOM     19  CA  LYS C 128      19.627   4.585  13.088  1.00 56.35 LIG 0.40  C 
ATOM     20  N   LYS C 128      18.862   5.434  12.175  1.00 59.98 LIG 0.61  N 
BRANCH 19 21
ATOM     21  CB  LYS C 128      19.278   3.123  12.866  1.00 54.38 LIG 0.05  C 
BRANCH 21 22
ATOM     22  CG  LYS C 128      17.980   2.729  13.505  1.00 63.27 LIG 0.00  C 
BRANCH 22 23
ATOM     23  CD  LYS C 128      17.394   1.490  12.880  1.00 66.98 LIG 0.03  C 
BRANCH 23 24
ATOM     24  CE  LYS C 128      15.869   1.486  12.909  1.00 66.03 LIG 0.23  C 
BRANCH 24 25
ATOM     25  NZ  LYS C 128      15.321   1.582  11.523  1.00 67.41 LIG-0.08  N 
ATOM     26 HZ3  LYS C 128      14.657   2.174  11.507  1.00 67.41 LIG 0.27  HD
ATOM     27 HZ2  LYS C 128      15.015   0.786  11.269  1.00 67.41 LIG 0.27  HD
ATOM     28 HZ1  LYS C 128      15.964   1.844  10.966  1.00 67.41 LIG 0.27  HD
ENDBRANCH 24 25
ENDBRANCH 23 24
ENDBRANCH 22 23
ENDBRANCH 21 22
ENDBRANCH 19 21
ENDBRANCH 17 19
ENDBRANCH 6 15
ENDBRANCH 3 6
ENDBRANCH 1 2
BRANCH 1 29
ATOM     29  CB  ARG C 130      24.350   5.074  17.811  1.00 44.07 LIG 0.04  C 
BRANCH 29 30
ATOM     30  CG  ARG C 130      24.706   5.201  19.280  1.00 48.13 LIG 0.02  C 
BRANCH 30 31
ATOM     31  CD  ARG C 130      25.803   4.212  19.641  1.00 53.98 LIG 0.14  C 
BRANCH 31 32
ATOM     32  NE  ARG C 130      25.347   2.848  19.458  1.00 57.03 LIG-0.23  N 
ATOM     33  CZ  ARG C 130      26.083   1.762  19.659  1.00 53.36 LIG 0.67  C 
ATOM     34  NH1 ARG C 130      27.349   1.850  20.045  1.00 46.68 LIG-0.23  N 
ATOM     35  NH2 ARG C 130      25.539   0.570  19.462  1.00 54.86 LIG-0.23  N 
ATOM     36 1HH1 ARG C 130      27.707   2.622  20.169  1.00 46.68 LIG 0.17  HD
ATOM     37 2HH1 ARG C 130      27.810   1.135  20.170  1.00 46.68 LIG 0.17  HD
ATOM     38 1HH2 ARG C 130      24.720   0.507  19.206  1.00 54.86 LIG 0.17  HD
ATOM     39 2HH2 ARG C 130      26.005  -0.141  19.588  1.00 54.86 LIG 0.17  HD
ATOM     40 HE   ARG C 130      24.535   2.733  19.198  1.00 57.03 LIG 0.18  HD
ENDBRANCH 31 32
ENDBRANCH 30 31
ENDBRANCH 29 30
ENDBRANCH 1 29
BRANCH 1 41
ATOM     41  C   ARG C 130      22.395   3.688  18.391  1.00 43.16 LIG 0.24  C 
ATOM     42  N   LYS C 131      21.650   4.787  18.532  1.00 46.51 LIG-0.35  N 
ATOM     43 H    LYS C 131      21.838   5.533  18.147  1.00 46.51 LIG 0.16  HD
ATOM     44 O    ARG C 130      22.160   2.616  18.941  1.00 41.50 LIG-0.27  OA
BRANCH 42 45
ATOM     45  CA  LYS C 131      20.438   4.843  19.354  1.00 53.22 LIG 0.18  C 
BRANCH 45 46
ATOM     46  CB  LYS C 131      20.068   6.300  19.674  1.00 55.01 LIG 0.04  C 
BRANCH 46 47
ATOM     47  CG  LYS C 131      18.796   6.482  20.479  1.00 52.38 LIG 0.00  C 
BRANCH 47 48
ATOM     48  CD  LYS C 131      19.072   6.464  21.967  1.00 48.84 LIG 0.03  C 
BRANCH 48 49
ATOM     49  CE  LYS C 131      17.838   6.097  22.747  1.00 46.73 LIG 0.23  C 
BRANCH 49 50
ATOM     50  NZ  LYS C 131      18.056   6.426  24.171  1.00 43.41 LIG-0.08  N 
ATOM     51 HZ1  LYS C 131      18.422   5.729  24.584  1.00 43.41 LIG 0.27  HD
ATOM     52 HZ3  LYS C 131      17.276   6.621  24.554  1.00 43.41 LIG 0.27  HD
ATOM     53 HZ2  LYS C 131      18.599   7.129  24.234  1.00 43.41 LIG 0.27  HD
ENDBRANCH 49 50
ENDBRANCH 48 49
ENDBRANCH 47 48
ENDBRANCH 46 47
ENDBRANCH 45 46
BRANCH 45 54
ATOM     54  C   LYS C 131      19.261   4.213  18.632  1.00 59.91 LIG 0.24  C 
ATOM     55  N   VAL C 132      18.286   3.770  19.424  1.00 72.80 LIG-0.35  N 
ATOM     56 H    VAL C 132      18.381   3.707  20.276  1.00 72.80 LIG 0.16  HD
ATOM     57 O    LYS C 131      19.254   4.129  17.409  1.00 55.62 LIG-0.27  OA
BRANCH 55 58
ATOM     58  CA  VAL C 132      16.959   3.345  18.966  1.00 46.38 LIG 0.17  C 
BRANCH 58 59
ATOM     59  C   VAL C 132      16.161   4.502  18.365  1.00 55.18 LIG 0.22  C 
ATOM     60 O    VAL C 132      15.941   5.519  19.040  1.00 55.70 LIG-0.29  OA
ENDBRANCH 58 59
BRANCH 58 61
ATOM     61  CB  VAL C 132      16.163   2.570  20.055  1.00 53.16 LIG 0.01  C 
ATOM     62  CG2 VAL C 132      14.762   2.315  19.553  1.00 49.68 LIG 0.01  C 
ATOM     63  CG1 VAL C 132      16.153   3.297  21.392  1.00 55.70 LIG 0.01  C 
ENDBRANCH 58 61
ENDBRANCH 55 58
ENDBRANCH 45 54
ENDBRANCH 42 45
ENDBRANCH 1 41
TORSDOF 29
ENDMDL
MODEL 14
USER: ADFR SOLUTION from run 98
USER: SCORE 22.055708 LL:  -2.213 LR: -20.980 RR:   0.000 FEB: -12.329
USER: RMSD 8.910397
USER: SEED 97
USER: STATUS no improvement in best in 3 clusters for 5 generations
USER: GENES 31
USER: genes 0 Translation |==|  0.42272 0.46082 0.64863
USER: genes 1 Rotation |==|  0.49191 0.49540 0.99742 0.54984
USER: genes 2 Torsion [CB]-CA--N-[C] |==|  0.16260
USER: genes 3 Torsion [N]-C--CA-[N] |==|  0.04686
USER: genes 4 Torsion [C]-CA--CB-[CG] |==|  0.42271
USER: genes 5 Torsion [CA]-CB--CG-[CD] |==|  0.88346
USER: genes 6 Torsion [CB]-CG--CD-[CE] |==|  0.81471
USER: genes 7 Torsion [CG]-CD--CE-[NZ] |==|  0.39495
USER: genes 8 Torsion [CD]-CE--NZ-[HZ3] |==|  0.88771
USER: genes 9 Torsion [C]-CA--N-[C] |==|  0.70627
USER: genes 10 Torsion [N]-C--CA-[N] |==|  0.23717
USER: genes 11 Torsion [C]-CA--CB-[CG] |==|  0.49358
USER: genes 12 Torsion [CA]-CB--CG-[CD] |==|  0.32743
USER: genes 13 Torsion [CB]-CG--CD-[CE] |==|  0.47360
USER: genes 14 Torsion [CG]-CD--CE-[NZ] |==|  0.72117
USER: genes 15 Torsion [CD]-CE--NZ-[HZ3] |==|  0.23121
USER: genes 16 Torsion [N]-CA--CB-[CG] |==|  0.09679
USER: genes 17 Torsion [CA]-CB--CG-[CD] |==|  0.49585
USER: genes 18 Torsion [CB]-CG--CD-[NE] |==|  0.09992
USER: genes 19 Torsion [CG]-CD--NE-[HE] |==|  0.96738
USER: genes 20 Torsion [N]-CA--C-[N] |==|  0.12612
USER: genes 21 Torsion [C]-N--CA-[C] |==|  0.18548
USER: genes 22 Torsion [N]-CA--CB-[CG] |==|  0.71204
USER: genes 23 Torsion [CA]-CB--CG-[CD] |==|  0.42408
USER: genes 24 Torsion [CB]-CG--CD-[CE] |==|  0.49597
USER: genes 25 Torsion [CG]-CD--CE-[NZ] |==|  0.61473
USER: genes 26 Torsion [CD]-CE--NZ-[HZ1] |==|  0.27623
USER: genes 27 Torsion [N]-CA--C-[N] |==|  0.43511
USER: genes 28 Torsion [C]-N--CA-[C] |==|  0.64422
USER: genes 29 Torsion [N]-CA--C-[O] |==|  0.91109
USER: genes 30 Torsion [N]-CA--CB-[CG2] |==|  0.17145
ROOT
ATOM      1  CA  ARG C 130      20.082   3.108  17.279  1.00 44.25 LIG 0.18  C 
ENDROOT
BRANCH 1 2
ATOM      2  N   ARG C 130      21.494   3.423  17.168  1.00 44.77 LIG-0.35  N 
ATOM      3  C   LYS C 129      22.360   3.129  18.130  1.00 47.82 LIG 0.24  C 
ATOM      4 O    LYS C 129      22.051   2.503  19.146  1.00 51.43 LIG-0.27  OA
ATOM      5 H    ARG C 130      21.712   3.812  16.433  1.00 44.77 LIG 0.16  HD
BRANCH 3 6
ATOM      6  CA  LYS C 129      23.784   3.628  17.915  1.00 47.52 LIG 0.18  C 
BRANCH 6 7
ATOM      7  CB  LYS C 129      24.358   4.153  19.222  1.00 47.19 LIG 0.04  C 
BRANCH 7 8
ATOM      8  CG  LYS C 129      25.856   4.046  19.313  1.00 46.82 LIG 0.00  C 
BRANCH 8 9
ATOM      9  CD  LYS C 129      26.374   2.732  18.778  1.00 42.25 LIG 0.03  C 
BRANCH 9 10
ATOM     10  CE  LYS C 129      25.911   1.597  19.671  1.00 38.25 LIG 0.23  C 
BRANCH 10 11
ATOM     11  NZ  LYS C 129      25.543   0.346  18.934  1.00 36.45 LIG-0.08  N 
ATOM     12 HZ3  LYS C 129      25.100   0.558  18.192  1.00 36.45 LIG 0.27  HD
ATOM     13 HZ2  LYS C 129      25.028  -0.163  19.452  1.00 36.45 LIG 0.27  HD
ATOM     14 HZ1  LYS C 129      26.282  -0.101  18.719  1.00 36.45 LIG 0.27  HD
ENDBRANCH 10 11
ENDBRANCH 9 10
ENDBRANCH 8 9
ENDBRANCH 7 8
ENDBRANCH 6 7
BRANCH 6 15
ATOM     15  N   LYS C 129      23.788   4.660  16.883  1.00 50.72 LIG-0.35  N 
ATOM     16 H    LYS C 129      23.473   5.420  17.136  1.00 50.72 LIG 0.16  HD
ATOM     17  C   LYS C 128      24.249   4.411  15.656  1.00 53.52 LIG 0.26  C 
ATOM     18 O    LYS C 128      24.818   3.350  15.339  1.00 51.22 LIG-0.27  OA
BRANCH 17 19
ATOM     19  CA  LYS C 128      24.074   5.534  14.626  1.00 56.35 LIG 0.40  C 
ATOM     20  N   LYS C 128      25.160   6.513  14.672  1.00 59.98 LIG 0.61  N 
BRANCH 19 21
ATOM     21  CB  LYS C 128      23.975   4.918  13.240  1.00 54.38 LIG 0.05  C 
BRANCH 21 22
ATOM     22  CG  LYS C 128      23.746   5.939  12.165  1.00 63.27 LIG 0.00  C 
BRANCH 22 23
ATOM     23  CD  LYS C 128      24.875   5.974  11.168  1.00 66.98 LIG 0.03  C 
BRANCH 23 24
ATOM     24  CE  LYS C 128      24.553   6.834   9.950  1.00 66.03 LIG 0.23  C 
BRANCH 24 25
ATOM     25  NZ  LYS C 128      24.141   5.975   8.800  1.00 67.41 LIG-0.08  N 
ATOM     26 HZ3  LYS C 128      23.277   5.775   8.873  1.00 67.41 LIG 0.27  HD
ATOM     27 HZ2  LYS C 128      24.621   5.225   8.803  1.00 67.41 LIG 0.27  HD
ATOM     28 HZ1  LYS C 128      24.280   6.413   8.037  1.00 67.41 LIG 0.27  HD
ENDBRANCH 24 25
ENDBRANCH 23 24
ENDBRANCH 22 23
ENDBRANCH 21 22
ENDBRANCH 19 21
ENDBRANCH 17 19
ENDBRANCH 6 15
ENDBRANCH 3 6
ENDBRANCH 1 2
BRANCH 1 29
ATOM     29  CB  ARG C 130      19.507   3.794  18.513  1.00 44.07 LIG 0.04  C 
BRANCH 29 30
ATOM     30  CG  ARG C 130      20.118   5.149  18.811  1.00 48.13 LIG 0.02  C 
BRANCH 30 31
ATOM     31  CD  ARG C 130      19.457   5.767  20.033  1.00 53.98 LIG 0.14  C 
BRANCH 31 32
ATOM     32  NE  ARG C 130      19.128   4.746  21.010  1.00 57.03 LIG-0.23  N 
ATOM     33  CZ  ARG C 130      18.751   4.980  22.261  1.00 53.36 LIG 0.67  C 
ATOM     34  NH1 ARG C 130      18.657   6.216  22.732  1.00 46.68 LIG-0.23  N 
ATOM     35  NH2 ARG C 130      18.472   3.953  23.050  1.00 54.86 LIG-0.23  N 
ATOM     36 1HH1 ARG C 130      18.842   6.884  22.225  1.00 46.68 LIG 0.17  HD
ATOM     37 2HH1 ARG C 130      18.410   6.347  23.546  1.00 46.68 LIG 0.17  HD
ATOM     38 1HH2 ARG C 130      18.536   3.150  22.751  1.00 54.86 LIG 0.17  HD
ATOM     39 2HH2 ARG C 130      18.226   4.091  23.863  1.00 54.86 LIG 0.17  HD
ATOM     40 HE   ARG C 130      19.183   3.926  20.759  1.00 57.03 LIG 0.18  HD
ENDBRANCH 31 32
ENDBRANCH 30 31
ENDBRANCH 29 30
ENDBRANCH 1 29
BRANCH 1 41
ATOM     41  C   ARG C 130      19.342   3.607  16.061  1.00 43.16 LIG 0.24  C 
ATOM     42  N   LYS C 131      19.910   3.350  14.880  1.00 46.51 LIG-0.35  N 
ATOM     43 H    LYS C 131      20.668   2.951  14.802  1.00 46.51 LIG 0.16  HD
ATOM     44 O    ARG C 130      18.270   4.189  16.202  1.00 41.50 LIG-0.27  OA
BRANCH 42 45
ATOM     45  CA  LYS C 131      19.310   3.719  13.596  1.00 53.22 LIG 0.18  C 
BRANCH 45 46
ATOM     46  CB  LYS C 131      17.872   3.189  13.497  1.00 55.01 LIG 0.04  C 
BRANCH 46 47
ATOM     47  CG  LYS C 131      17.693   1.963  12.623  1.00 52.38 LIG 0.00  C 
BRANCH 47 48
ATOM     48  CD  LYS C 131      16.508   1.133  13.065  1.00 48.84 LIG 0.03  C 
BRANCH 48 49
ATOM     49  CE  LYS C 131      16.315  -0.063  12.171  1.00 46.73 LIG 0.23  C 
BRANCH 49 50
ATOM     50  NZ  LYS C 131      14.871  -0.240  11.912  1.00 43.41 LIG-0.08  N 
ATOM     51 HZ1  LYS C 131      14.668   0.103  11.116  1.00 43.41 LIG 0.27  HD
ATOM     52 HZ3  LYS C 131      14.402   0.178  12.543  1.00 43.41 LIG 0.27  HD
ATOM     53 HZ2  LYS C 131      14.671  -1.108  11.922  1.00 43.41 LIG 0.27  HD
ENDBRANCH 49 50
ENDBRANCH 48 49
ENDBRANCH 47 48
ENDBRANCH 46 47
ENDBRANCH 45 46
BRANCH 45 54
ATOM     54  C   LYS C 131      19.261   5.228  13.431  1.00 59.91 LIG 0.24  C 
ATOM     55  N   VAL C 132      19.203   5.655  12.171  1.00 72.80 LIG-0.35  N 
ATOM     56 H    VAL C 132      19.337   5.130  11.503  1.00 72.80 LIG 0.16  HD
ATOM     57 O    LYS C 131      19.286   5.961  14.412  1.00 55.62 LIG-0.27  OA
BRANCH 55 58
ATOM     58  CA  VAL C 132      18.913   7.033  11.763  1.00 46.38 LIG 0.17  C 
BRANCH 58 59
ATOM     59  C   VAL C 132      17.785   7.102  10.733  1.00 55.18 LIG 0.22  C 
ATOM     60 O    VAL C 132      17.632   6.178   9.920  1.00 55.70 LIG-0.29  OA
ENDBRANCH 58 59
BRANCH 58 61
ATOM     61  CB  VAL C 132      20.182   7.812  11.314  1.00 53.16 LIG 0.01  C 
ATOM     62  CG2 VAL C 132      20.783   7.124  10.111  1.00 49.68 LIG 0.01  C 
ATOM     63  CG1 VAL C 132      21.199   7.959  12.437  1.00 55.70 LIG 0.01  C 
ENDBRANCH 58 61
ENDBRANCH 55 58
ENDBRANCH 45 54
ENDBRANCH 42 45
ENDBRANCH 1 41
TORSDOF 29
ENDMDL
MODEL 15
USER: ADFR SOLUTION from run 77
USER: SCORE 20.302490 LL:  -1.123 LR: -20.849 RR:   0.000 FEB: -12.198
USER: RMSD 10.134329
USER: SEED 76
USER: STATUS no improvement in best in 3 clusters for 5 generations
USER: GENES 31
USER: genes 0 Translation |==|  0.43491 0.47196 0.65334
USER: genes 1 Rotation |==|  0.88684 0.56470 0.79695 0.58937
USER: genes 2 Torsion [CB]-CA--N-[C] |==|  0.79444
USER: genes 3 Torsion [N]-C--CA-[N] |==|  0.62329
USER: genes 4 Torsion [C]-CA--CB-[CG] |==|  0.39214
USER: genes 5 Torsion [CA]-CB--CG-[CD] |==|  0.76695
USER: genes 6 Torsion [CB]-CG--CD-[CE] |==|  0.48131
USER: genes 7 Torsion [CG]-CD--CE-[NZ] |==|  0.96897
USER: genes 8 Torsion [CD]-CE--NZ-[HZ3] |==|  0.21437
USER: genes 9 Torsion [C]-CA--N-[C] |==|  0.15903
USER: genes 10 Torsion [N]-C--CA-[N] |==|  0.14059
USER: genes 11 Torsion [C]-CA--CB-[CG] |==|  0.33739
USER: genes 12 Torsion [CA]-CB--CG-[CD] |==|  0.20457
USER: genes 13 Torsion [CB]-CG--CD-[CE] |==|  0.73545
USER: genes 14 Torsion [CG]-CD--CE-[NZ] |==|  0.79189
USER: genes 15 Torsion [CD]-CE--NZ-[HZ3] |==|  0.51636
USER: genes 16 Torsion [N]-CA--CB-[CG] |==|  0.58292
USER: genes 17 Torsion [CA]-CB--CG-[CD] |==|  0.32585
USER: genes 18 Torsion [CB]-CG--CD-[NE] |==|  0.62289
USER: genes 19 Torsion [CG]-CD--NE-[HE] |==|  0.13234
USER: genes 20 Torsion [N]-CA--C-[N] |==|  0.24138
USER: genes 21 Torsion [C]-N--CA-[C] |==|  0.83331
USER: genes 22 Torsion [N]-CA--CB-[CG] |==|  0.64351
USER: genes 23 Torsion [CA]-CB--CG-[CD] |==|  0.34497
USER: genes 24 Torsion [CB]-CG--CD-[CE] |==|  0.21002
USER: genes 25 Torsion [CG]-CD--CE-[NZ] |==|  0.58178
USER: genes 26 Torsion [CD]-CE--NZ-[HZ1] |==|  0.52709
USER: genes 27 Torsion [N]-CA--C-[N] |==|  0.50392
USER: genes 28 Torsion [C]-N--CA-[C] |==|  0.14656
USER: genes 29 Torsion [N]-CA--C-[O] |==|  0.18079
USER: genes 30 Torsion [N]-CA--CB-[CG2] |==|  0.25613
ROOT
ATOM      1  CA  ARG C 130      20.411   3.283  17.381  1.00 44.25 LIG 0.18  C 
ENDROOT
BRANCH 1 2
ATOM      2  N   ARG C 130      19.916   3.289  16.016  1.00 44.77 LIG-0.35  N 
ATOM      3  C   LYS C 129      19.478   4.394  15.429  1.00 47.82 LIG 0.24  C 
ATOM      4 O    LYS C 129      19.529   5.505  15.960  1.00 51.43 LIG-0.27  OA
ATOM      5 H    ARG C 130      19.934   2.519  15.632  1.00 44.77 LIG 0.16  HD
BRANCH 3 6
ATOM      6  CA  LYS C 129      18.884   4.214  14.036  1.00 47.52 LIG 0.18  C 
BRANCH 6 7
ATOM      7  CB  LYS C 129      19.219   2.831  13.500  1.00 47.19 LIG 0.04  C 
BRANCH 7 8
ATOM      8  CG  LYS C 129      18.095   2.191  12.730  1.00 46.82 LIG 0.00  C 
BRANCH 8 9
ATOM      9  CD  LYS C 129      17.103   1.496  13.632  1.00 42.25 LIG 0.03  C 
BRANCH 9 10
ATOM     10  CE  LYS C 129      15.916   1.018  12.816  1.00 38.25 LIG 0.23  C 
BRANCH 10 11
ATOM     11  NZ  LYS C 129      15.872   1.560  11.421  1.00 36.45 LIG-0.08  N 
ATOM     12 HZ3  LYS C 129      16.457   1.122  10.914  1.00 36.45 LIG 0.27  HD
ATOM     13 HZ2  LYS C 129      16.077   2.425  11.431  1.00 36.45 LIG 0.27  HD
ATOM     14 HZ1  LYS C 129      15.053   1.453  11.087  1.00 36.45 LIG 0.27  HD
ENDBRANCH 10 11
ENDBRANCH 9 10
ENDBRANCH 8 9
ENDBRANCH 7 8
ENDBRANCH 6 7
BRANCH 6 15
ATOM     15  N   LYS C 129      19.389   5.261  13.153  1.00 50.72 LIG-0.35  N 
ATOM     16 H    LYS C 129      18.779   5.742  12.784  1.00 50.72 LIG 0.16  HD
ATOM     17  C   LYS C 128      20.697   5.430  12.957  1.00 53.52 LIG 0.26  C 
ATOM     18 O    LYS C 128      21.573   4.814  13.594  1.00 51.22 LIG-0.27  OA
BRANCH 17 19
ATOM     19  CA  LYS C 128      21.095   6.472  11.905  1.00 56.35 LIG 0.40  C 
ATOM     20  N   LYS C 128      20.429   7.759  12.107  1.00 59.98 LIG 0.61  N 
BRANCH 19 21
ATOM     21  CB  LYS C 128      22.604   6.649  11.934  1.00 54.38 LIG 0.05  C 
BRANCH 21 22
ATOM     22  CG  LYS C 128      23.251   6.351  10.614  1.00 63.27 LIG 0.00  C 
BRANCH 22 23
ATOM     23  CD  LYS C 128      23.000   7.438   9.602  1.00 66.98 LIG 0.03  C 
BRANCH 23 24
ATOM     24  CE  LYS C 128      21.807   7.134   8.701  1.00 66.03 LIG 0.23  C 
BRANCH 24 25
ATOM     25  NZ  LYS C 128      22.167   6.091   7.694  1.00 67.41 LIG-0.08  N 
ATOM     26 HZ3  LYS C 128      21.493   5.985   7.123  1.00 67.41 LIG 0.27  HD
ATOM     27 HZ2  LYS C 128      22.328   5.320   8.110  1.00 67.41 LIG 0.27  HD
ATOM     28 HZ1  LYS C 128      22.895   6.346   7.249  1.00 67.41 LIG 0.27  HD
ENDBRANCH 24 25
ENDBRANCH 23 24
ENDBRANCH 22 23
ENDBRANCH 21 22
ENDBRANCH 19 21
ENDBRANCH 17 19
ENDBRANCH 6 15
ENDBRANCH 3 6
ENDBRANCH 1 2
BRANCH 1 29
ATOM     29  CB  ARG C 130      21.790   3.932  17.420  1.00 44.07 LIG 0.04  C 
BRANCH 29 30
ATOM     30  CG  ARG C 130      22.696   3.397  18.514  1.00 48.13 LIG 0.02  C 
BRANCH 30 31
ATOM     31  CD  ARG C 130      23.921   2.736  17.903  1.00 53.98 LIG 0.14  C 
BRANCH 31 32
ATOM     32  NE  ARG C 130      24.207   1.475  18.562  1.00 57.03 LIG-0.23  N 
ATOM     33  CZ  ARG C 130      25.401   1.094  18.996  1.00 53.36 LIG 0.67  C 
ATOM     34  NH1 ARG C 130      26.470   1.864  18.839  1.00 46.68 LIG-0.23  N 
ATOM     35  NH2 ARG C 130      25.524  -0.085  19.589  1.00 54.86 LIG-0.23  N 
ATOM     36 1HH1 ARG C 130      26.396   2.627  18.449  1.00 46.68 LIG 0.17  HD
ATOM     37 2HH1 ARG C 130      27.236   1.600  19.127  1.00 46.68 LIG 0.17  HD
ATOM     38 1HH2 ARG C 130      24.836  -0.591  19.688  1.00 54.86 LIG 0.17  HD
ATOM     39 2HH2 ARG C 130      26.293  -0.344  19.874  1.00 54.86 LIG 0.17  HD
ATOM     40 HE   ARG C 130      23.550   0.933  18.680  1.00 57.03 LIG 0.18  HD
ENDBRANCH 31 32
ENDBRANCH 30 31
ENDBRANCH 29 30
ENDBRANCH 1 29
BRANCH 1 41
ATOM     41  C   ARG C 130      19.482   4.071  18.273  1.00 43.16 LIG 0.24  C 
ATOM     42  N   LYS C 131      18.453   3.397  18.794  1.00 46.51 LIG-0.35  N 
ATOM     43 H    LYS C 131      18.299   2.570  18.618  1.00 46.51 LIG 0.16  HD
ATOM     44 O    ARG C 130      19.717   5.256  18.494  1.00 41.50 LIG-0.27  OA
BRANCH 42 45
ATOM     45  CA  LYS C 131      17.481   3.990  19.716  1.00 53.22 LIG 0.18  C 
BRANCH 45 46
ATOM     46  CB  LYS C 131      16.430   2.951  20.136  1.00 55.01 LIG 0.04  C 
BRANCH 46 47
ATOM     47  CG  LYS C 131      14.987   3.384  19.963  1.00 52.38 LIG 0.00  C 
BRANCH 47 48
ATOM     48  CD  LYS C 131      14.213   2.409  19.101  1.00 48.84 LIG 0.03  C 
BRANCH 48 49
ATOM     49  CE  LYS C 131      13.876   1.156  19.862  1.00 46.73 LIG 0.23  C 
BRANCH 49 50
ATOM     50  NZ  LYS C 131      13.796   0.025  18.913  1.00 43.41 LIG-0.08  N 
ATOM     51 HZ1  LYS C 131      13.461  -0.687  19.328  1.00 43.41 LIG 0.27  HD
ATOM     52 HZ3  LYS C 131      14.611  -0.165  18.609  1.00 43.41 LIG 0.27  HD
ATOM     53 HZ2  LYS C 131      13.270   0.247  18.231  1.00 43.41 LIG 0.27  HD
ENDBRANCH 49 50
ENDBRANCH 48 49
ENDBRANCH 47 48
ENDBRANCH 46 47
ENDBRANCH 45 46
BRANCH 45 54
ATOM     54  C   LYS C 131      18.162   4.496  20.974  1.00 59.91 LIG 0.24  C 
ATOM     55  N   VAL C 132      17.344   5.026  21.883  1.00 72.80 LIG-0.35  N 
ATOM     56 H    VAL C 132      16.521   5.205  21.709  1.00 72.80 LIG 0.16  HD
ATOM     57 O    LYS C 131      19.378   4.414  21.099  1.00 55.62 LIG-0.27  OA
BRANCH 55 58
ATOM     58  CA  VAL C 132      17.722   5.363  23.259  1.00 46.38 LIG 0.17  C 
BRANCH 58 59
ATOM     59  C   VAL C 132      18.965   6.252  23.311  1.00 55.18 LIG 0.22  C 
ATOM     60 O    VAL C 132      18.926   7.399  22.842  1.00 55.70 LIG-0.29  OA
ENDBRANCH 58 59
BRANCH 58 61
ATOM     61  CB  VAL C 132      17.841   4.114  24.178  1.00 53.16 LIG 0.01  C 
ATOM     62  CG2 VAL C 132      19.270   3.625  24.164  1.00 49.68 LIG 0.01  C 
ATOM     63  CG1 VAL C 132      16.870   3.010  23.782  1.00 55.70 LIG 0.01  C 
ENDBRANCH 58 61
ENDBRANCH 55 58
ENDBRANCH 45 54
ENDBRANCH 42 45
ENDBRANCH 1 41
TORSDOF 29
ENDMDL
MODEL 16
USER: ADFR SOLUTION from run 198
USER: SCORE 21.717381 LL:  -2.315 LR: -20.851 RR:   0.000 FEB: -12.200
USER: RMSD 9.516969
USER: SEED 197
USER: STATUS 1 or 2 clusters left
USER: GENES 31
USER: genes 0 Translation |==|  0.52797 0.56240 0.53270
USER: genes 1 Rotation |==|  0.53698 0.62503 0.98046 0.54649
USER: genes 2 Torsion [CB]-CA--N-[C] |==|  0.28823
USER: genes 3 Torsion [N]-C--CA-[N] |==|  0.99006
USER: genes 4 Torsion [C]-CA--CB-[CG] |==|  0.08156
USER: genes 5 Torsion [CA]-CB--CG-[CD] |==|  0.32525
USER: genes 6 Torsion [CB]-CG--CD-[CE] |==|  0.47861
USER: genes 7 Torsion [CG]-CD--CE-[NZ] |==|  0.36503
USER: genes 8 Torsion [CD]-CE--NZ-[HZ3] |==|  0.95550
USER: genes 9 Torsion [C]-CA--N-[C] |==|  0.67778
USER: genes 10 Torsion [N]-C--CA-[N] |==|  0.32700
USER: genes 11 Torsion [C]-CA--CB-[CG] |==|  0.41360
USER: genes 12 Torsion [CA]-CB--CG-[CD] |==|  0.74912
USER: genes 13 Torsion [CB]-CG--CD-[CE] |==|  0.60366
USER: genes 14 Torsion [CG]-CD--CE-[NZ] |==|  0.11620
USER: genes 15 Torsion [CD]-CE--NZ-[HZ3] |==|  0.45478
USER: genes 16 Torsion [N]-CA--CB-[CG] |==|  0.73085
USER: genes 17 Torsion [CA]-CB--CG-[CD] |==|  0.88024
USER: genes 18 Torsion [CB]-CG--CD-[NE] |==|  0.34231
USER: genes 19 Torsion [CG]-CD--NE-[HE] |==|  0.06329
USER: genes 20 Torsion [N]-CA--C-[N] |==|  0.39934
USER: genes 21 Torsion [C]-N--CA-[C] |==|  0.77791
USER: genes 22 Torsion [N]-CA--CB-[CG] |==|  0.44116
USER: genes 23 Torsion [CA]-CB--CG-[CD] |==|  0.39778
USER: genes 24 Torsion [CB]-CG--CD-[CE] |==|  0.43956
USER: genes 25 Torsion [CG]-CD--CE-[NZ] |==|  0.14183
USER: genes 26 Torsion [CD]-CE--NZ-[HZ1] |==|  0.68462
USER: genes 27 Torsion [N]-CA--C-[N] |==|  0.39463
USER: genes 28 Torsion [C]-N--CA-[C] |==|  0.73524
USER: genes 29 Torsion [N]-CA--C-[O] |==|  0.94425
USER: genes 30 Torsion [N]-CA--CB-[CG2] |==|  0.01405
ROOT
ATOM      1  CA  ARG C 130      22.923   4.708  14.757  1.00 44.25 LIG 0.18  C 
ENDROOT
BRANCH 1 2
ATOM      2  N   ARG C 130      24.256   4.850  14.201  1.00 44.77 LIG-0.35  N 
ATOM      3  C   LYS C 129      25.298   4.187  14.685  1.00 47.82 LIG 0.24  C 
ATOM      4 O    LYS C 129      25.204   3.349  15.584  1.00 51.43 LIG-0.27  OA
ATOM      5 H    ARG C 130      24.305   5.397  13.538  1.00 44.77 LIG 0.16  HD
BRANCH 3 6
ATOM      6  CA  LYS C 129      26.649   4.532  14.069  1.00 47.52 LIG 0.18  C 
BRANCH 6 7
ATOM      7  CB  LYS C 129      27.586   5.078  15.135  1.00 47.19 LIG 0.04  C 
BRANCH 7 8
ATOM      8  CG  LYS C 129      27.315   4.539  16.514  1.00 46.82 LIG 0.00  C 
BRANCH 8 9
ATOM      9  CD  LYS C 129      28.478   3.745  17.060  1.00 42.25 LIG 0.03  C 
BRANCH 9 10
ATOM     10  CE  LYS C 129      28.222   3.394  18.513  1.00 38.25 LIG 0.23  C 
BRANCH 10 11
ATOM     11  NZ  LYS C 129      28.455   1.952  18.847  1.00 36.45 LIG-0.08  N 
ATOM     12 HZ3  LYS C 129      28.486   1.475  18.096  1.00 36.45 LIG 0.27  HD
ATOM     13 HZ2  LYS C 129      27.791   1.655  19.360  1.00 36.45 LIG 0.27  HD
ATOM     14 HZ1  LYS C 129      29.226   1.869  19.283  1.00 36.45 LIG 0.27  HD
ENDBRANCH 10 11
ENDBRANCH 9 10
ENDBRANCH 8 9
ENDBRANCH 7 8
ENDBRANCH 6 7
BRANCH 6 15
ATOM     15  N   LYS C 129      26.459   5.493  12.988  1.00 50.72 LIG-0.35  N 
ATOM     16 H    LYS C 129      26.148   6.255  13.237  1.00 50.72 LIG 0.16  HD
ATOM     17  C   LYS C 128      26.754   5.181  11.725  1.00 53.52 LIG 0.26  C 
ATOM     18 O    LYS C 128      27.323   4.124  11.393  1.00 51.22 LIG-0.27  OA
BRANCH 17 19
ATOM     19  CA  LYS C 128      26.384   6.227  10.665  1.00 56.35 LIG 0.40  C 
ATOM     20  N   LYS C 128      27.552   6.745   9.953  1.00 59.98 LIG 0.61  N 
BRANCH 19 21
ATOM     21  CB  LYS C 128      25.401   5.607   9.686  1.00 54.38 LIG 0.05  C 
BRANCH 21 22
ATOM     22  CG  LYS C 128      24.440   6.607   9.115  1.00 63.27 LIG 0.00  C 
BRANCH 22 23
ATOM     23  CD  LYS C 128      23.188   6.728   9.944  1.00 66.98 LIG 0.03  C 
BRANCH 23 24
ATOM     24  CE  LYS C 128      21.939   6.927   9.092  1.00 66.03 LIG 0.23  C 
BRANCH 24 25
ATOM     25  NZ  LYS C 128      21.978   6.036   7.893  1.00 67.41 LIG-0.08  N 
ATOM     26 HZ3  LYS C 128      21.164   5.982   7.537  1.00 67.41 LIG 0.27  HD
ATOM     27 HZ2  LYS C 128      22.251   5.224   8.135  1.00 67.41 LIG 0.27  HD
ATOM     28 HZ1  LYS C 128      22.543   6.371   7.292  1.00 67.41 LIG 0.27  HD
ENDBRANCH 24 25
ENDBRANCH 23 24
ENDBRANCH 22 23
ENDBRANCH 21 22
ENDBRANCH 19 21
ENDBRANCH 17 19
ENDBRANCH 6 15
ENDBRANCH 3 6
ENDBRANCH 1 2
BRANCH 1 29
ATOM     29  CB  ARG C 130      22.597   5.933  15.605  1.00 44.07 LIG 0.04  C 
BRANCH 29 30
ATOM     30  CG  ARG C 130      22.843   5.742  17.090  1.00 48.13 LIG 0.02  C 
BRANCH 30 31
ATOM     31  CD  ARG C 130      22.333   4.381  17.535  1.00 53.98 LIG 0.14  C 
BRANCH 31 32
ATOM     32  NE  ARG C 130      23.396   3.611  18.155  1.00 57.03 LIG-0.23  N 
ATOM     33  CZ  ARG C 130      23.421   2.288  18.258  1.00 53.36 LIG 0.67  C 
ATOM     34  NH1 ARG C 130      22.426   1.543  17.796  1.00 46.68 LIG-0.23  N 
ATOM     35  NH2 ARG C 130      24.458   1.708  18.843  1.00 54.86 LIG-0.23  N 
ATOM     36 1HH1 ARG C 130      21.748   1.915  17.421  1.00 46.68 LIG 0.17  HD
ATOM     37 2HH1 ARG C 130      22.459   0.687  17.872  1.00 46.68 LIG 0.17  HD
ATOM     38 1HH2 ARG C 130      25.103   2.187  19.149  1.00 54.86 LIG 0.17  HD
ATOM     39 2HH2 ARG C 130      24.486   0.852  18.916  1.00 54.86 LIG 0.17  HD
ATOM     40 HE   ARG C 130      24.062   4.047  18.480  1.00 57.03 LIG 0.18  HD
ENDBRANCH 31 32
ENDBRANCH 30 31
ENDBRANCH 29 30
ENDBRANCH 1 29
BRANCH 1 41
ATOM     41  C   ARG C 130      21.905   4.605  13.648  1.00 43.16 LIG 0.24  C 
ATOM     42  N   LYS C 131      20.875   3.783  13.867  1.00 46.51 LIG-0.35  N 
ATOM     43 H    LYS C 131      20.797   3.311  14.582  1.00 46.51 LIG 0.16  HD
ATOM     44 O    ARG C 130      22.050   5.277  12.630  1.00 41.50 LIG-0.27  OA
BRANCH 42 45
ATOM     45  CA  LYS C 131      19.773   3.596  12.921  1.00 53.22 LIG 0.18  C 
BRANCH 45 46
ATOM     46  CB  LYS C 131      19.031   2.282  13.207  1.00 55.01 LIG 0.04  C 
BRANCH 46 47
ATOM     47  CG  LYS C 131      17.617   2.205  12.664  1.00 52.38 LIG 0.00  C 
BRANCH 47 48
ATOM     48  CD  LYS C 131      17.287   0.815  12.166  1.00 48.84 LIG 0.03  C 
BRANCH 48 49
ATOM     49  CE  LYS C 131      15.800   0.588  12.127  1.00 46.73 LIG 0.23  C 
BRANCH 49 50
ATOM     50  NZ  LYS C 131      15.164   1.703  11.393  1.00 43.41 LIG-0.08  N 
ATOM     51 HZ1  LYS C 131      14.659   2.177  11.953  1.00 43.41 LIG 0.27  HD
ATOM     52 HZ3  LYS C 131      14.656   1.378  10.739  1.00 43.41 LIG 0.27  HD
ATOM     53 HZ2  LYS C 131      15.794   2.228  11.046  1.00 43.41 LIG 0.27  HD
ENDBRANCH 49 50
ENDBRANCH 48 49
ENDBRANCH 47 48
ENDBRANCH 46 47
ENDBRANCH 45 46
BRANCH 45 54
ATOM     54  C   LYS C 131      18.768   4.729  13.025  1.00 59.91 LIG 0.24  C 
ATOM     55  N   VAL C 132      18.246   5.126  11.866  1.00 72.80 LIG-0.35  N 
ATOM     56 H    VAL C 132      18.563   4.870  11.108  1.00 72.80 LIG 0.16  HD
ATOM     57 O    LYS C 131      18.494   5.220  14.114  1.00 55.62 LIG-0.27  OA
BRANCH 55 58
ATOM     58  CA  VAL C 132      17.097   6.027  11.726  1.00 46.38 LIG 0.17  C 
BRANCH 58 59
ATOM     59  C   VAL C 132      15.785   5.260  11.552  1.00 55.18 LIG 0.22  C 
ATOM     60 O    VAL C 132      15.803   4.080  11.173  1.00 55.70 LIG-0.29  OA
ENDBRANCH 58 59
BRANCH 58 61
ATOM     61  CB  VAL C 132      17.306   7.111  10.631  1.00 53.16 LIG 0.01  C 
ATOM     62  CG2 VAL C 132      18.614   6.849   9.922  1.00 49.68 LIG 0.01  C 
ATOM     63  CG1 VAL C 132      17.252   8.523  11.197  1.00 55.70 LIG 0.01  C 
ENDBRANCH 58 61
ENDBRANCH 55 58
ENDBRANCH 45 54
ENDBRANCH 42 45
ENDBRANCH 1 41
TORSDOF 29
ENDMDL
MODEL 17
USER: ADFR SOLUTION from run 13
USER: SCORE 21.584099 LL:  -1.806 LR: -20.842 RR:   0.000 FEB: -12.192
USER: RMSD 9.458049
USER: SEED 986319
USER: STATUS no improvement in best in 2 clusters for 5 generations
USER: GENES 31
USER: genes 0 Translation |==|  0.41377 0.47486 0.64211
USER: genes 1 Rotation |==|  0.48398 0.51430 0.99644 0.55557
USER: genes 2 Torsion [CB]-CA--N-[C] |==|  0.16399
USER: genes 3 Torsion [N]-C--CA-[N] |==|  0.02022
USER: genes 4 Torsion [C]-CA--CB-[CG] |==|  0.37506
USER: genes 5 Torsion [CA]-CB--CG-[CD] |==|  0.98926
USER: genes 6 Torsion [CB]-CG--CD-[CE] |==|  0.67876
USER: genes 7 Torsion [CG]-CD--CE-[NZ] |==|  0.39221
USER: genes 8 Torsion [CD]-CE--NZ-[HZ3] |==|  0.17433
USER: genes 9 Torsion [C]-CA--N-[C] |==|  0.70337
USER: genes 10 Torsion [N]-C--CA-[N] |==|  0.94586
USER: genes 11 Torsion [C]-CA--CB-[CG] |==|  0.27895
USER: genes 12 Torsion [CA]-CB--CG-[CD] |==|  0.33349
USER: genes 13 Torsion [CB]-CG--CD-[CE] |==|  0.61388
USER: genes 14 Torsion [CG]-CD--CE-[NZ] |==|  0.61758
USER: genes 15 Torsion [CD]-CE--NZ-[HZ3] |==|  0.21690
USER: genes 16 Torsion [N]-CA--CB-[CG] |==|  0.61504
USER: genes 17 Torsion [CA]-CB--CG-[CD] |==|  0.68762
USER: genes 18 Torsion [CB]-CG--CD-[NE] |==|  0.39221
USER: genes 19 Torsion [CG]-CD--NE-[HE] |==|  0.69399
USER: genes 20 Torsion [N]-CA--C-[N] |==|  0.13208
USER: genes 21 Torsion [C]-N--CA-[C] |==|  0.18911
USER: genes 22 Torsion [N]-CA--CB-[CG] |==|  0.73274
USER: genes 23 Torsion [CA]-CB--CG-[CD] |==|  0.52510
USER: genes 24 Torsion [CB]-CG--CD-[CE] |==|  0.98972
USER: genes 25 Torsion [CG]-CD--CE-[NZ] |==|  0.60791
USER: genes 26 Torsion [CD]-CE--NZ-[HZ1] |==|  0.64228
USER: genes 27 Torsion [N]-CA--C-[N] |==|  0.50010
USER: genes 28 Torsion [C]-N--CA-[C] |==|  0.57109
USER: genes 29 Torsion [N]-CA--C-[O] |==|  0.90328
USER: genes 30 Torsion [N]-CA--CB-[CG2] |==|  0.60127
ROOT
ATOM      1  CA  ARG C 130      19.840   3.329  17.137  1.00 44.25 LIG 0.18  C 
ENDROOT
BRANCH 1 2
ATOM      2  N   ARG C 130      21.262   3.601  17.038  1.00 44.77 LIG-0.35  N 
ATOM      3  C   LYS C 129      22.099   3.353  18.037  1.00 47.82 LIG 0.24  C 
ATOM      4 O    LYS C 129      21.753   2.808  19.086  1.00 51.43 LIG-0.27  OA
ATOM      5 H    ARG C 130      21.506   3.932  16.282  1.00 44.77 LIG 0.16  HD
BRANCH 3 6
ATOM      6  CA  LYS C 129      23.540   3.801  17.820  1.00 47.52 LIG 0.18  C 
BRANCH 6 7
ATOM      7  CB  LYS C 129      24.022   4.610  19.015  1.00 47.19 LIG 0.04  C 
BRANCH 7 8
ATOM      8  CG  LYS C 129      25.399   4.231  19.488  1.00 46.82 LIG 0.00  C 
BRANCH 8 9
ATOM      9  CD  LYS C 129      25.968   3.058  18.726  1.00 42.25 LIG 0.03  C 
BRANCH 9 10
ATOM     10  CE  LYS C 129      26.159   1.881  19.663  1.00 38.25 LIG 0.23  C 
BRANCH 10 11
ATOM     11  NZ  LYS C 129      25.822   0.553  19.058  1.00 36.45 LIG-0.08  N 
ATOM     12 HZ3  LYS C 129      26.367   0.391  18.374  1.00 36.45 LIG 0.27  HD
ATOM     13 HZ2  LYS C 129      24.980   0.563  18.771  1.00 36.45 LIG 0.27  HD
ATOM     14 HZ1  LYS C 129      25.918  -0.085  19.671  1.00 36.45 LIG 0.27  HD
ENDBRANCH 10 11
ENDBRANCH 9 10
ENDBRANCH 8 9
ENDBRANCH 7 8
ENDBRANCH 6 7
BRANCH 6 15
ATOM     15  N   LYS C 129      23.629   4.575  16.586  1.00 50.72 LIG-0.35  N 
ATOM     16 H    LYS C 129      23.292   5.365  16.635  1.00 50.72 LIG 0.16  HD
ATOM     17  C   LYS C 128      24.195   4.067  15.490  1.00 53.52 LIG 0.26  C 
ATOM     18 O    LYS C 128      24.793   2.975  15.469  1.00 51.22 LIG-0.27  OA
BRANCH 17 19
ATOM     19  CA  LYS C 128      24.106   4.926  14.223  1.00 56.35 LIG 0.40  C 
ATOM     20  N   LYS C 128      23.046   5.932  14.297  1.00 59.98 LIG 0.61  N 
BRANCH 19 21
ATOM     21  CB  LYS C 128      25.451   5.592  13.985  1.00 54.38 LIG 0.05  C 
BRANCH 21 22
ATOM     22  CG  LYS C 128      26.270   4.894  12.940  1.00 63.27 LIG 0.00  C 
BRANCH 22 23
ATOM     23  CD  LYS C 128      26.594   5.797  11.778  1.00 66.98 LIG 0.03  C 
BRANCH 23 24
ATOM     24  CE  LYS C 128      26.480   5.084  10.435  1.00 66.03 LIG 0.23  C 
BRANCH 24 25
ATOM     25  NZ  LYS C 128      27.620   5.460   9.546  1.00 67.41 LIG-0.08  N 
ATOM     26 HZ3  LYS C 128      28.348   5.009   9.790  1.00 67.41 LIG 0.27  HD
ATOM     27 HZ2  LYS C 128      27.775   6.334   9.616  1.00 67.41 LIG 0.27  HD
ATOM     28 HZ1  LYS C 128      27.418   5.262   8.702  1.00 67.41 LIG 0.27  HD
ENDBRANCH 24 25
ENDBRANCH 23 24
ENDBRANCH 22 23
ENDBRANCH 21 22
ENDBRANCH 19 21
ENDBRANCH 17 19
ENDBRANCH 6 15
ENDBRANCH 3 6
ENDBRANCH 1 2
BRANCH 1 29
ATOM     29  CB  ARG C 130      19.254   4.123  18.300  1.00 44.07 LIG 0.04  C 
BRANCH 29 30
ATOM     30  CG  ARG C 130      18.251   3.351  19.135  1.00 48.13 LIG 0.02  C 
BRANCH 30 31
ATOM     31  CD  ARG C 130      16.861   3.942  18.965  1.00 53.98 LIG 0.14  C 
BRANCH 31 32
ATOM     32  NE  ARG C 130      15.859   2.895  18.916  1.00 57.03 LIG-0.23  N 
ATOM     33  CZ  ARG C 130      15.497   2.135  19.943  1.00 53.36 LIG 0.67  C 
ATOM     34  NH1 ARG C 130      16.060   2.275  21.136  1.00 46.68 LIG-0.23  N 
ATOM     35  NH2 ARG C 130      14.560   1.216  19.764  1.00 54.86 LIG-0.23  N 
ATOM     36 1HH1 ARG C 130      16.672   2.867  21.255  1.00 46.68 LIG 0.17  HD
ATOM     37 2HH1 ARG C 130      15.812   1.774  21.789  1.00 46.68 LIG 0.17  HD
ATOM     38 1HH2 ARG C 130      14.196   1.117  18.991  1.00 54.86 LIG 0.17  HD
ATOM     39 2HH2 ARG C 130      14.317   0.717  20.421  1.00 54.86 LIG 0.17  HD
ATOM     40 HE   ARG C 130      15.469   2.755  18.163  1.00 57.03 LIG 0.18  HD
ENDBRANCH 31 32
ENDBRANCH 30 31
ENDBRANCH 29 30
ENDBRANCH 1 29
BRANCH 1 41
ATOM     41  C   ARG C 130      19.141   3.749  15.866  1.00 43.16 LIG 0.24  C 
ATOM     42  N   LYS C 131      19.705   3.349  14.724  1.00 46.51 LIG-0.35  N 
ATOM     43 H    LYS C 131      20.440   2.903  14.696  1.00 46.51 LIG 0.16  HD
ATOM     44 O    ARG C 130      18.102   4.400  15.935  1.00 41.50 LIG-0.27  OA
BRANCH 42 45
ATOM     45  CA  LYS C 131      19.140   3.626  13.401  1.00 53.22 LIG 0.18  C 
BRANCH 45 46
ATOM     46  CB  LYS C 131      17.666   3.198  13.342  1.00 55.01 LIG 0.04  C 
BRANCH 46 47
ATOM     47  CG  LYS C 131      17.415   1.822  12.756  1.00 52.38 LIG 0.00  C 
BRANCH 47 48
ATOM     48  CD  LYS C 131      15.938   1.573  12.533  1.00 48.84 LIG 0.03  C 
BRANCH 48 49
ATOM     49  CE  LYS C 131      15.109   2.723  13.037  1.00 46.73 LIG 0.23  C 
BRANCH 49 50
ATOM     50  NZ  LYS C 131      13.885   2.189  13.671  1.00 43.41 LIG-0.08  N 
ATOM     51 HZ1  LYS C 131      13.172   2.600  13.332  1.00 43.41 LIG 0.27  HD
ATOM     52 HZ3  LYS C 131      13.918   2.331  14.549  1.00 43.41 LIG 0.27  HD
ATOM     53 HZ2  LYS C 131      13.826   1.315  13.514  1.00 43.41 LIG 0.27  HD
ENDBRANCH 49 50
ENDBRANCH 48 49
ENDBRANCH 47 48
ENDBRANCH 46 47
ENDBRANCH 45 46
BRANCH 45 54
ATOM     54  C   LYS C 131      19.206   5.108  13.079  1.00 59.91 LIG 0.24  C 
ATOM     55  N   VAL C 132      18.711   5.449  11.891  1.00 72.80 LIG-0.35  N 
ATOM     56 H    VAL C 132      18.511   4.864  11.293  1.00 72.80 LIG 0.16  HD
ATOM     57 O    LYS C 131      19.698   5.896  13.879  1.00 55.62 LIG-0.27  OA
BRANCH 55 58
ATOM     58  CA  VAL C 132      18.447   6.824  11.454  1.00 46.38 LIG 0.17  C 
BRANCH 58 59
ATOM     59  C   VAL C 132      17.357   6.886  10.383  1.00 55.18 LIG 0.22  C 
ATOM     60 O    VAL C 132      17.258   5.976   9.547  1.00 55.70 LIG-0.29  OA
ENDBRANCH 58 59
BRANCH 58 61
ATOM     61  CB  VAL C 132      19.738   7.586  11.038  1.00 53.16 LIG 0.01  C 
ATOM     62  CG2 VAL C 132      19.615   9.030  11.462  1.00 49.68 LIG 0.01  C 
ATOM     63  CG1 VAL C 132      20.028   7.464   9.549  1.00 55.70 LIG 0.01  C 
ENDBRANCH 58 61
ENDBRANCH 55 58
ENDBRANCH 45 54
ENDBRANCH 42 45
ENDBRANCH 1 41
TORSDOF 29
ENDMDL
MODEL 18
USER: ADFR SOLUTION from run 98
USER: SCORE 20.840699 LL:  -1.859 LR: -20.808 RR:   0.000 FEB: -12.158
USER: RMSD 10.891449
USER: SEED 97
USER: STATUS no improvement in best in 3 clusters for 5 generations
USER: GENES 31
USER: genes 0 Translation |==|  0.41211 0.50353 0.68066
USER: genes 1 Rotation |==|  0.56482 0.44072 0.98748 0.56820
USER: genes 2 Torsion [CB]-CA--N-[C] |==|  0.21032
USER: genes 3 Torsion [N]-C--CA-[N] |==|  0.90742
USER: genes 4 Torsion [C]-CA--CB-[CG] |==|  0.37763
USER: genes 5 Torsion [CA]-CB--CG-[CD] |==|  0.94209
USER: genes 6 Torsion [CB]-CG--CD-[CE] |==|  0.80723
USER: genes 7 Torsion [CG]-CD--CE-[NZ] |==|  0.47877
USER: genes 8 Torsion [CD]-CE--NZ-[HZ3] |==|  0.16545
USER: genes 9 Torsion [C]-CA--N-[C] |==|  0.64644
USER: genes 10 Torsion [N]-C--CA-[N] |==|  0.09979
USER: genes 11 Torsion [C]-CA--CB-[CG] |==|  0.51195
USER: genes 12 Torsion [CA]-CB--CG-[CD] |==|  0.52847
USER: genes 13 Torsion [CB]-CG--CD-[CE] |==|  0.40560
USER: genes 14 Torsion [CG]-CD--CE-[NZ] |==|  0.37641
USER: genes 15 Torsion [CD]-CE--NZ-[HZ3] |==|  0.31508
USER: genes 16 Torsion [N]-CA--CB-[CG] |==|  0.30908
USER: genes 17 Torsion [CA]-CB--CG-[CD] |==|  0.50812
USER: genes 18 Torsion [CB]-CG--CD-[NE] |==|  0.89230
USER: genes 19 Torsion [CG]-CD--NE-[HE] |==|  0.02068
USER: genes 20 Torsion [N]-CA--C-[N] |==|  0.42865
USER: genes 21 Torsion [C]-N--CA-[C] |==|  0.63866
USER: genes 22 Torsion [N]-CA--CB-[CG] |==|  0.93557
USER: genes 23 Torsion [CA]-CB--CG-[CD] |==|  0.52918
USER: genes 24 Torsion [CB]-CG--CD-[CE] |==|  0.66596
USER: genes 25 Torsion [CG]-CD--CE-[NZ] |==|  0.62172
USER: genes 26 Torsion [CD]-CE--NZ-[HZ1] |==|  0.27920
USER: genes 27 Torsion [N]-CA--C-[N] |==|  0.89339
USER: genes 28 Torsion [C]-N--CA-[C] |==|  0.89570
USER: genes 29 Torsion [N]-CA--C-[O] |==|  0.76048
USER: genes 30 Torsion [N]-CA--CB-[CG2] |==|  0.10631
ROOT
ATOM      1  CA  ARG C 130      19.795   3.781  17.975  1.00 44.25 LIG 0.18  C 
ENDROOT
BRANCH 1 2
ATOM      2  N   ARG C 130      21.158   4.062  17.561  1.00 44.77 LIG-0.35  N 
ATOM      3  C   LYS C 129      22.174   3.282  17.904  1.00 47.82 LIG 0.24  C 
ATOM      4 O    LYS C 129      22.034   2.227  18.526  1.00 51.43 LIG-0.27  OA
ATOM      5 H    ARG C 130      21.241   4.771  17.081  1.00 44.77 LIG 0.16  HD
BRANCH 3 6
ATOM      6  CA  LYS C 129      23.556   3.774  17.490  1.00 47.52 LIG 0.18  C 
BRANCH 6 7
ATOM      7  CB  LYS C 129      24.145   4.658  18.579  1.00 47.19 LIG 0.04  C 
BRANCH 7 8
ATOM      8  CG  LYS C 129      25.592   4.370  18.877  1.00 46.82 LIG 0.00  C 
BRANCH 8 9
ATOM      9  CD  LYS C 129      26.009   2.991  18.428  1.00 42.25 LIG 0.03  C 
BRANCH 9 10
ATOM     10  CE  LYS C 129      25.342   1.944  19.299  1.00 38.25 LIG 0.23  C 
BRANCH 10 11
ATOM     11  NZ  LYS C 129      25.543   0.535  18.831  1.00 36.45 LIG-0.08  N 
ATOM     12 HZ3  LYS C 129      26.413   0.350  18.811  1.00 36.45 LIG 0.27  HD
ATOM     13 HZ2  LYS C 129      25.202   0.443  18.014  1.00 36.45 LIG 0.27  HD
ATOM     14 HZ1  LYS C 129      25.133  -0.025  19.388  1.00 36.45 LIG 0.27  HD
ENDBRANCH 10 11
ENDBRANCH 9 10
ENDBRANCH 8 9
ENDBRANCH 7 8
ENDBRANCH 6 7
BRANCH 6 15
ATOM     15  N   LYS C 129      23.458   4.490  16.222  1.00 50.72 LIG-0.35  N 
ATOM     16 H    LYS C 129      22.870   5.118  16.211  1.00 50.72 LIG 0.16  HD
ATOM     17  C   LYS C 128      24.234   4.171  15.185  1.00 53.52 LIG 0.26  C 
ATOM     18 O    LYS C 128      25.168   3.350  15.253  1.00 51.22 LIG-0.27  OA
BRANCH 17 19
ATOM     19  CA  LYS C 128      23.943   4.905  13.871  1.00 56.35 LIG 0.40  C 
ATOM     20  N   LYS C 128      23.534   6.294  14.080  1.00 59.98 LIG 0.61  N 
BRANCH 19 21
ATOM     21  CB  LYS C 128      25.179   4.845  12.989  1.00 54.38 LIG 0.05  C 
BRANCH 21 22
ATOM     22  CG  LYS C 128      25.027   5.626  11.718  1.00 63.27 LIG 0.00  C 
BRANCH 22 23
ATOM     23  CD  LYS C 128      26.151   5.359  10.751  1.00 66.98 LIG 0.03  C 
BRANCH 23 24
ATOM     24  CE  LYS C 128      25.694   5.403   9.297  1.00 66.03 LIG 0.23  C 
BRANCH 24 25
ATOM     25  NZ  LYS C 128      26.668   6.175   8.467  1.00 67.41 LIG-0.08  N 
ATOM     26 HZ3  LYS C 128      27.065   5.627   7.889  1.00 67.41 LIG 0.27  HD
ATOM     27 HZ2  LYS C 128      27.282   6.543   8.996  1.00 67.41 LIG 0.27  HD
ATOM     28 HZ1  LYS C 128      26.238   6.814   8.021  1.00 67.41 LIG 0.27  HD
ENDBRANCH 24 25
ENDBRANCH 23 24
ENDBRANCH 22 23
ENDBRANCH 21 22
ENDBRANCH 19 21
ENDBRANCH 17 19
ENDBRANCH 6 15
ENDBRANCH 3 6
ENDBRANCH 1 2
BRANCH 1 29
ATOM     29  CB  ARG C 130      19.627   4.152  19.445  1.00 44.07 LIG 0.04  C 
BRANCH 29 30
ATOM     30  CG  ARG C 130      18.729   5.351  19.683  1.00 48.13 LIG 0.02  C 
BRANCH 30 31
ATOM     31  CD  ARG C 130      18.683   5.685  21.165  1.00 53.98 LIG 0.14  C 
BRANCH 31 32
ATOM     32  NE  ARG C 130      18.656   4.475  21.965  1.00 57.03 LIG-0.23  N 
ATOM     33  CZ  ARG C 130      18.474   4.431  23.279  1.00 53.36 LIG 0.67  C 
ATOM     34  NH1 ARG C 130      18.311   5.539  23.989  1.00 46.68 LIG-0.23  N 
ATOM     35  NH2 ARG C 130      18.465   3.255  23.888  1.00 54.86 LIG-0.23  N 
ATOM     36 1HH1 ARG C 130      18.322   6.305  23.598  1.00 46.68 LIG 0.17  HD
ATOM     37 2HH1 ARG C 130      18.194   5.491  24.839  1.00 46.68 LIG 0.17  HD
ATOM     38 1HH2 ARG C 130      18.576   2.533  23.433  1.00 54.86 LIG 0.17  HD
ATOM     39 2HH2 ARG C 130      18.348   3.212  24.739  1.00 54.86 LIG 0.17  HD
ATOM     40 HE   ARG C 130      18.767   3.727  21.555  1.00 57.03 LIG 0.18  HD
ENDBRANCH 31 32
ENDBRANCH 30 31
ENDBRANCH 29 30
ENDBRANCH 1 29
BRANCH 1 41
ATOM     41  C   ARG C 130      18.824   4.598  17.158  1.00 43.16 LIG 0.24  C 
ATOM     42  N   LYS C 131      17.593   4.097  17.031  1.00 46.51 LIG-0.35  N 
ATOM     43 H    LYS C 131      17.359   3.340  17.365  1.00 46.51 LIG 0.16  HD
ATOM     44 O    ARG C 130      19.190   5.667  16.677  1.00 41.50 LIG-0.27  OA
BRANCH 42 45
ATOM     45  CA  LYS C 131      16.512   4.777  16.313  1.00 53.22 LIG 0.18  C 
BRANCH 45 46
ATOM     46  CB  LYS C 131      16.175   4.032  15.012  1.00 55.01 LIG 0.04  C 
BRANCH 46 47
ATOM     47  CG  LYS C 131      17.285   3.162  14.457  1.00 52.38 LIG 0.00  C 
BRANCH 47 48
ATOM     48  CD  LYS C 131      16.966   2.675  13.061  1.00 48.84 LIG 0.03  C 
BRANCH 48 49
ATOM     49  CE  LYS C 131      16.930   1.172  13.002  1.00 46.73 LIG 0.23  C 
BRANCH 49 50
ATOM     50  NZ  LYS C 131      17.644   0.723  11.788  1.00 43.41 LIG-0.08  N 
ATOM     51 HZ1  LYS C 131      18.463   0.453  12.008  1.00 43.41 LIG 0.27  HD
ATOM     52 HZ3  LYS C 131      17.700   1.397  11.209  1.00 43.41 LIG 0.27  HD
ATOM     53 HZ2  LYS C 131      17.200   0.048  11.414  1.00 43.41 LIG 0.27  HD
ENDBRANCH 49 50
ENDBRANCH 48 49
ENDBRANCH 47 48
ENDBRANCH 46 47
ENDBRANCH 45 46
BRANCH 45 54
ATOM     54  C   LYS C 131      15.251   4.835  17.155  1.00 59.91 LIG 0.24  C 
ATOM     55  N   VAL C 132      15.006   3.745  17.880  1.00 72.80 LIG-0.35  N 
ATOM     56 H    VAL C 132      15.441   3.011  17.765  1.00 72.80 LIG 0.16  HD
ATOM     57 O    LYS C 131      14.533   5.828  17.132  1.00 55.62 LIG-0.27  OA
BRANCH 55 58
ATOM     58  CA  VAL C 132      13.996   3.648  18.939  1.00 46.38 LIG 0.17  C 
BRANCH 58 59
ATOM     59  C   VAL C 132      13.896   4.936  19.756  1.00 55.18 LIG 0.22  C 
ATOM     60 O    VAL C 132      14.651   5.116  20.724  1.00 55.70 LIG-0.29  OA
ENDBRANCH 58 59
BRANCH 58 61
ATOM     61  CB  VAL C 132      14.172   2.385  19.830  1.00 53.16 LIG 0.01  C 
ATOM     62  CG2 VAL C 132      15.646   2.138  20.049  1.00 49.68 LIG 0.01  C 
ATOM     63  CG1 VAL C 132      13.483   1.162  19.242  1.00 55.70 LIG 0.01  C 
ENDBRANCH 58 61
ENDBRANCH 55 58
ENDBRANCH 45 54
ENDBRANCH 42 45
ENDBRANCH 1 41
TORSDOF 29
ENDMDL
MODEL 19
USER: ADFR SOLUTION from run 169
USER: SCORE 20.360203 LL:  -1.583 LR: -20.798 RR:   0.000 FEB: -12.147
USER: RMSD 6.855355
USER: SEED 168
USER: STATUS no improvement in best in 3 clusters for 5 generations
USER: GENES 31
USER: genes 0 Translation |==|  0.60105 0.58259 0.47177
USER: genes 1 Rotation |==|  0.03486 0.43146 0.65486 0.57050
USER: genes 2 Torsion [CB]-CA--N-[C] |==|  0.46304
USER: genes 3 Torsion [N]-C--CA-[N] |==|  0.18204
USER: genes 4 Torsion [C]-CA--CB-[CG] |==|  0.18358
USER: genes 5 Torsion [CA]-CB--CG-[CD] |==|  0.54722
USER: genes 6 Torsion [CB]-CG--CD-[CE] |==|  0.28405
USER: genes 7 Torsion [CG]-CD--CE-[NZ] |==|  0.57572
USER: genes 8 Torsion [CD]-CE--NZ-[HZ3] |==|  0.99643
USER: genes 9 Torsion [C]-CA--N-[C] |==|  0.77778
USER: genes 10 Torsion [N]-C--CA-[N] |==|  0.64353
USER: genes 11 Torsion [C]-CA--CB-[CG] |==|  0.56993
USER: genes 12 Torsion [CA]-CB--CG-[CD] |==|  0.65157
USER: genes 13 Torsion [CB]-CG--CD-[CE] |==|  0.46674
USER: genes 14 Torsion [CG]-CD--CE-[NZ] |==|  0.60465
USER: genes 15 Torsion [CD]-CE--NZ-[HZ3] |==|  0.35104
USER: genes 16 Torsion [N]-CA--CB-[CG] |==|  0.49290
USER: genes 17 Torsion [CA]-CB--CG-[CD] |==|  0.46747
USER: genes 18 Torsion [CB]-CG--CD-[NE] |==|  0.71676
USER: genes 19 Torsion [CG]-CD--NE-[HE] |==|  0.27036
USER: genes 20 Torsion [N]-CA--C-[N] |==|  0.27814
USER: genes 21 Torsion [C]-N--CA-[C] |==|  0.63238
USER: genes 22 Torsion [N]-CA--CB-[CG] |==|  0.92873
USER: genes 23 Torsion [CA]-CB--CG-[CD] |==|  0.52260
USER: genes 24 Torsion [CB]-CG--CD-[CE] |==|  0.98541
USER: genes 25 Torsion [CG]-CD--CE-[NZ] |==|  0.71864
USER: genes 26 Torsion [CD]-CE--NZ-[HZ1] |==|  0.68581
USER: genes 27 Torsion [N]-CA--C-[N] |==|  0.12940
USER: genes 28 Torsion [C]-N--CA-[C] |==|  0.85809
USER: genes 29 Torsion [N]-CA--C-[O] |==|  0.38516
USER: genes 30 Torsion [N]-CA--CB-[CG2] |==|  0.39669
ROOT
ATOM      1  CA  ARG C 130      24.896   5.026  13.432  1.00 44.25 LIG 0.18  C 
ENDROOT
BRANCH 1 2
ATOM      2  N   ARG C 130      23.883   5.086  14.469  1.00 44.77 LIG-0.35  N 
ATOM      3  C   LYS C 129      23.790   4.166  15.420  1.00 47.82 LIG 0.24  C 
ATOM      4 O    LYS C 129      24.595   3.241  15.543  1.00 51.43 LIG-0.27  OA
ATOM      5 H    ARG C 130      23.357   5.765  14.409  1.00 44.77 LIG 0.16  HD
BRANCH 3 6
ATOM      6  CA  LYS C 129      22.603   4.307  16.366  1.00 47.52 LIG 0.18  C 
BRANCH 6 7
ATOM      7  CB  LYS C 129      22.730   3.319  17.515  1.00 47.19 LIG 0.04  C 
BRANCH 7 8
ATOM      8  CG  LYS C 129      23.895   3.596  18.427  1.00 46.82 LIG 0.00  C 
BRANCH 8 9
ATOM      9  CD  LYS C 129      24.245   2.408  19.291  1.00 42.25 LIG 0.03  C 
BRANCH 9 10
ATOM     10  CE  LYS C 129      25.467   1.707  18.728  1.00 38.25 LIG 0.23  C 
BRANCH 10 11
ATOM     11  NZ  LYS C 129      25.540   0.247  19.051  1.00 36.45 LIG-0.08  N 
ATOM     12 HZ3  LYS C 129      24.842   0.018  19.553  1.00 36.45 LIG 0.27  HD
ATOM     13 HZ2  LYS C 129      26.293   0.078  19.495  1.00 36.45 LIG 0.27  HD
ATOM     14 HZ1  LYS C 129      25.530  -0.225  18.296  1.00 36.45 LIG 0.27  HD
ENDBRANCH 10 11
ENDBRANCH 9 10
ENDBRANCH 8 9
ENDBRANCH 7 8
ENDBRANCH 6 7
BRANCH 6 15
ATOM     15  N   LYS C 129      21.363   4.100  15.625  1.00 50.72 LIG-0.35  N 
ATOM     16 H    LYS C 129      21.021   3.315  15.711  1.00 50.72 LIG 0.16  HD
ATOM     17  C   LYS C 128      20.830   5.072  14.882  1.00 53.52 LIG 0.26  C 
ATOM     18 O    LYS C 128      21.262   6.240  14.867  1.00 51.22 LIG-0.27  OA
BRANCH 17 19
ATOM     19  CA  LYS C 128      19.603   4.689  14.046  1.00 56.35 LIG 0.40  C 
ATOM     20  N   LYS C 128      19.742   5.063  12.638  1.00 59.98 LIG 0.61  N 
BRANCH 19 21
ATOM     21  CB  LYS C 128      19.367   3.194  14.174  1.00 54.38 LIG 0.05  C 
BRANCH 21 22
ATOM     22  CG  LYS C 128      18.632   2.616  13.001  1.00 63.27 LIG 0.00  C 
BRANCH 22 23
ATOM     23  CD  LYS C 128      17.395   1.866  13.422  1.00 66.98 LIG 0.03  C 
BRANCH 23 24
ATOM     24  CE  LYS C 128      16.488   1.527  12.243  1.00 66.03 LIG 0.23  C 
BRANCH 24 25
ATOM     25  NZ  LYS C 128      15.053   1.658  12.635  1.00 67.41 LIG-0.08  N 
ATOM     26 HZ3  LYS C 128      14.636   2.197  12.063  1.00 67.41 LIG 0.27  HD
ATOM     27 HZ2  LYS C 128      14.999   1.998  13.456  1.00 67.41 LIG 0.27  HD
ATOM     28 HZ1  LYS C 128      14.666   0.856  12.621  1.00 67.41 LIG 0.27  HD
ENDBRANCH 24 25
ENDBRANCH 23 24
ENDBRANCH 22 23
ENDBRANCH 21 22
ENDBRANCH 19 21
ENDBRANCH 17 19
ENDBRANCH 6 15
ENDBRANCH 3 6
ENDBRANCH 1 2
BRANCH 1 29
ATOM     29  CB  ARG C 130      24.544   6.013  12.324  1.00 44.07 LIG 0.04  C 
BRANCH 29 30
ATOM     30  CG  ARG C 130      25.568   6.083  11.208  1.00 48.13 LIG 0.02  C 
BRANCH 30 31
ATOM     31  CD  ARG C 130      25.006   6.860  10.028  1.00 53.98 LIG 0.14  C 
BRANCH 31 32
ATOM     32  NE  ARG C 130      24.576   5.957   8.977  1.00 57.03 LIG-0.23  N 
ATOM     33  CZ  ARG C 130      25.370   5.418   8.061  1.00 53.36 LIG 0.67  C 
ATOM     34  NH1 ARG C 130      26.668   5.688   8.029  1.00 46.68 LIG-0.23  N 
ATOM     35  NH2 ARG C 130      24.848   4.601   7.157  1.00 54.86 LIG-0.23  N 
ATOM     36 1HH1 ARG C 130      27.010   6.222   8.610  1.00 46.68 LIG 0.17  HD
ATOM     37 2HH1 ARG C 130      27.167   5.329   7.428  1.00 46.68 LIG 0.17  HD
ATOM     38 1HH2 ARG C 130      24.006   4.427   7.170  1.00 54.86 LIG 0.17  HD
ATOM     39 2HH2 ARG C 130      25.352   4.245   6.558  1.00 54.86 LIG 0.17  HD
ATOM     40 HE   ARG C 130      23.740   5.756   8.945  1.00 57.03 LIG 0.18  HD
ENDBRANCH 31 32
ENDBRANCH 30 31
ENDBRANCH 29 30
ENDBRANCH 1 29
BRANCH 1 41
ATOM     41  C   ARG C 130      26.244   5.399  14.000  1.00 43.16 LIG 0.24  C 
ATOM     42  N   LYS C 131      27.060   4.385  14.296  1.00 46.51 LIG-0.35  N 
ATOM     43 H    LYS C 131      26.835   3.560  14.202  1.00 46.51 LIG 0.16  HD
ATOM     44 O    ARG C 130      26.533   6.584  14.141  1.00 41.50 LIG-0.27  OA
BRANCH 42 45
ATOM     45  CA  LYS C 131      28.420   4.563  14.812  1.00 53.22 LIG 0.18  C 
BRANCH 45 46
ATOM     46  CB  LYS C 131      28.491   4.173  16.296  1.00 55.01 LIG 0.04  C 
BRANCH 46 47
ATOM     47  CG  LYS C 131      27.186   4.288  17.059  1.00 52.38 LIG 0.00  C 
BRANCH 47 48
ATOM     48  CD  LYS C 131      27.389   4.078  18.544  1.00 48.84 LIG 0.03  C 
BRANCH 48 49
ATOM     49  CE  LYS C 131      28.809   3.685  18.851  1.00 46.73 LIG 0.23  C 
BRANCH 49 50
ATOM     50  NZ  LYS C 131      28.866   2.225  19.074  1.00 43.41 LIG-0.08  N 
ATOM     51 HZ1  LYS C 131      29.069   2.062  19.925  1.00 43.41 LIG 0.27  HD
ATOM     52 HZ3  LYS C 131      29.488   1.868  18.547  1.00 43.41 LIG 0.27  HD
ATOM     53 HZ2  LYS C 131      28.074   1.865  18.883  1.00 43.41 LIG 0.27  HD
ENDBRANCH 49 50
ENDBRANCH 48 49
ENDBRANCH 47 48
ENDBRANCH 46 47
ENDBRANCH 45 46
BRANCH 45 54
ATOM     54  C   LYS C 131      29.408   3.694  14.055  1.00 59.91 LIG 0.24  C 
ATOM     55  N   VAL C 132      29.290   3.731  12.729  1.00 72.80 LIG-0.35  N 
ATOM     56 H    VAL C 132      28.615   4.094  12.339  1.00 72.80 LIG 0.16  HD
ATOM     57 O    LYS C 131      30.230   3.016  14.661  1.00 55.62 LIG-0.27  OA
BRANCH 55 58
ATOM     58  CA  VAL C 132      30.262   3.174  11.783  1.00 46.38 LIG 0.17  C 
BRANCH 58 59
ATOM     59  C   VAL C 132      31.684   3.656  12.071  1.00 55.18 LIG 0.22  C 
ATOM     60 O    VAL C 132      32.634   2.863  11.995  1.00 55.70 LIG-0.29  OA
ENDBRANCH 58 59
BRANCH 58 61
ATOM     61  CB  VAL C 132      29.849   3.382  10.298  1.00 53.16 LIG 0.01  C 
ATOM     62  CG2 VAL C 132      31.085   3.670   9.478  1.00 49.68 LIG 0.01  C 
ATOM     63  CG1 VAL C 132      28.805   4.478  10.136  1.00 55.70 LIG 0.01  C 
ENDBRANCH 58 61
ENDBRANCH 55 58
ENDBRANCH 45 54
ENDBRANCH 42 45
ENDBRANCH 1 41
TORSDOF 29
ENDMDL
MODEL 20
USER: ADFR SOLUTION from run 47
USER: SCORE 21.065357 LL:  -1.391 LR: -20.759 RR:   0.000 FEB: -12.108
USER: RMSD 7.459714
USER: SEED 46
USER: STATUS no improvement in best in 4 clusters for 5 generations
USER: GENES 31
USER: genes 0 Translation |==|  0.44568 0.53925 0.50810
USER: genes 1 Rotation |==|  0.21191 0.28675 0.84858 0.50408
USER: genes 2 Torsion [CB]-CA--N-[C] |==|  0.84371
USER: genes 3 Torsion [N]-C--CA-[N] |==|  0.61914
USER: genes 4 Torsion [C]-CA--CB-[CG] |==|  0.32707
USER: genes 5 Torsion [CA]-CB--CG-[CD] |==|  0.45333
USER: genes 6 Torsion [CB]-CG--CD-[CE] |==|  0.42352
USER: genes 7 Torsion [CG]-CD--CE-[NZ] |==|  0.50581
USER: genes 8 Torsion [CD]-CE--NZ-[HZ3] |==|  0.44422
USER: genes 9 Torsion [C]-CA--N-[C] |==|  0.11545
USER: genes 10 Torsion [N]-C--CA-[N] |==|  0.24339
USER: genes 11 Torsion [C]-CA--CB-[CG] |==|  0.59680
USER: genes 12 Torsion [CA]-CB--CG-[CD] |==|  0.39935
USER: genes 13 Torsion [CB]-CG--CD-[CE] |==|  0.26972
USER: genes 14 Torsion [CG]-CD--CE-[NZ] |==|  0.58884
USER: genes 15 Torsion [CD]-CE--NZ-[HZ3] |==|  0.63212
USER: genes 16 Torsion [N]-CA--CB-[CG] |==|  0.81064
USER: genes 17 Torsion [CA]-CB--CG-[CD] |==|  0.79288
USER: genes 18 Torsion [CB]-CG--CD-[NE] |==|  0.72440
USER: genes 19 Torsion [CG]-CD--NE-[HE] |==|  0.27235
USER: genes 20 Torsion [N]-CA--C-[N] |==|  0.42860
USER: genes 21 Torsion [C]-N--CA-[C] |==|  0.68333
USER: genes 22 Torsion [N]-CA--CB-[CG] |==|  0.29020
USER: genes 23 Torsion [CA]-CB--CG-[CD] |==|  0.44467
USER: genes 24 Torsion [CB]-CG--CD-[CE] |==|  0.22923
USER: genes 25 Torsion [CG]-CD--CE-[NZ] |==|  0.52379
USER: genes 26 Torsion [CD]-CE--NZ-[HZ1] |==|  0.89312
USER: genes 27 Torsion [N]-CA--C-[N] |==|  0.00049
USER: genes 28 Torsion [C]-N--CA-[C] |==|  0.87216
USER: genes 29 Torsion [N]-CA--C-[O] |==|  0.84168
USER: genes 30 Torsion [N]-CA--CB-[CG2] |==|  0.41494
ROOT
ATOM      1  CA  ARG C 130      20.701   4.343  14.222  1.00 44.25 LIG 0.18  C 
ENDROOT
BRANCH 1 2
ATOM      2  N   ARG C 130      20.995   4.149  15.631  1.00 44.77 LIG-0.35  N 
ATOM      3  C   LYS C 129      20.495   4.939  16.571  1.00 47.82 LIG 0.24  C 
ATOM      4 O    LYS C 129      19.689   5.841  16.335  1.00 51.43 LIG-0.27  OA
ATOM      5 H    ARG C 130      21.515   3.483  15.793  1.00 44.77 LIG 0.16  HD
BRANCH 3 6
ATOM      6  CA  LYS C 129      20.989   4.676  17.989  1.00 47.52 LIG 0.18  C 
BRANCH 6 7
ATOM      7  CB  LYS C 129      21.685   3.326  18.059  1.00 47.19 LIG 0.04  C 
BRANCH 7 8
ATOM      8  CG  LYS C 129      23.139   3.413  18.440  1.00 46.82 LIG 0.00  C 
BRANCH 8 9
ATOM      9  CD  LYS C 129      23.696   2.085  18.893  1.00 42.25 LIG 0.03  C 
BRANCH 9 10
ATOM     10  CE  LYS C 129      25.186   2.032  18.616  1.00 38.25 LIG 0.23  C 
BRANCH 10 11
ATOM     11  NZ  LYS C 129      25.834   0.733  18.983  1.00 36.45 LIG-0.08  N 
ATOM     12 HZ3  LYS C 129      26.605   0.651  18.547  1.00 36.45 LIG 0.27  HD
ATOM     13 HZ2  LYS C 129      25.295   0.059  18.762  1.00 36.45 LIG 0.27  HD
ATOM     14 HZ1  LYS C 129      25.987   0.714  19.860  1.00 36.45 LIG 0.27  HD
ENDBRANCH 10 11
ENDBRANCH 9 10
ENDBRANCH 8 9
ENDBRANCH 7 8
ENDBRANCH 6 7
BRANCH 6 15
ATOM     15  N   LYS C 129      19.863   4.739  18.916  1.00 50.72 LIG-0.35  N 
ATOM     16 H    LYS C 129      20.031   5.147  19.655  1.00 50.72 LIG 0.16  HD
ATOM     17  C   LYS C 128      18.683   4.197  18.610  1.00 53.52 LIG 0.26  C 
ATOM     18 O    LYS C 128      18.415   3.724  17.490  1.00 51.22 LIG-0.27  OA
BRANCH 17 19
ATOM     19  CA  LYS C 128      17.624   4.211  19.719  1.00 56.35 LIG 0.40  C 
ATOM     20  N   LYS C 128      16.833   5.441  19.727  1.00 59.98 LIG 0.61  N 
BRANCH 19 21
ATOM     21  CB  LYS C 128      16.719   3.002  19.549  1.00 54.38 LIG 0.05  C 
BRANCH 21 22
ATOM     22  CG  LYS C 128      15.296   3.282  19.931  1.00 63.27 LIG 0.00  C 
BRANCH 22 23
ATOM     23  CD  LYS C 128      14.318   2.557  19.042  1.00 66.98 LIG 0.03  C 
BRANCH 23 24
ATOM     24  CE  LYS C 128      13.826   1.252  19.658  1.00 66.03 LIG 0.23  C 
BRANCH 24 25
ATOM     25  NZ  LYS C 128      13.544   0.246  18.590  1.00 67.41 LIG-0.08  N 
ATOM     26 HZ3  LYS C 128      12.748  -0.126  18.736  1.00 67.41 LIG 0.27  HD
ATOM     27 HZ2  LYS C 128      14.173  -0.384  18.602  1.00 67.41 LIG 0.27  HD
ATOM     28 HZ1  LYS C 128      13.542   0.648  17.796  1.00 67.41 LIG 0.27  HD
ENDBRANCH 24 25
ENDBRANCH 23 24
ENDBRANCH 22 23
ENDBRANCH 21 22
ENDBRANCH 19 21
ENDBRANCH 17 19
ENDBRANCH 6 15
ENDBRANCH 3 6
ENDBRANCH 1 2
BRANCH 1 29
ATOM     29  CB  ARG C 130      19.191   4.321  14.014  1.00 44.07 LIG 0.04  C 
BRANCH 29 30
ATOM     30  CG  ARG C 130      18.553   2.965  14.249  1.00 48.13 LIG 0.02  C 
BRANCH 30 31
ATOM     31  CD  ARG C 130      18.860   2.032  13.088  1.00 53.98 LIG 0.14  C 
BRANCH 31 32
ATOM     32  NE  ARG C 130      17.742   1.973  12.166  1.00 57.03 LIG-0.23  N 
ATOM     33  CZ  ARG C 130      16.664   1.214  12.321  1.00 53.36 LIG 0.67  C 
ATOM     34  NH1 ARG C 130      16.532   0.410  13.368  1.00 46.68 LIG-0.23  N 
ATOM     35  NH2 ARG C 130      15.708   1.259  11.405  1.00 54.86 LIG-0.23  N 
ATOM     36 1HH1 ARG C 130      17.153   0.373  13.962  1.00 46.68 LIG 0.17  HD
ATOM     37 2HH1 ARG C 130      15.827  -0.074  13.451  1.00 46.68 LIG 0.17  HD
ATOM     38 1HH2 ARG C 130      15.791   1.775  10.721  1.00 54.86 LIG 0.17  HD
ATOM     39 2HH2 ARG C 130      15.005   0.772  11.493  1.00 54.86 LIG 0.17  HD
ATOM     40 HE   ARG C 130      17.781   2.467  11.464  1.00 57.03 LIG 0.18  HD
ENDBRANCH 31 32
ENDBRANCH 30 31
ENDBRANCH 29 30
ENDBRANCH 1 29
BRANCH 1 41
ATOM     41  C   ARG C 130      21.232   5.679  13.761  1.00 43.16 LIG 0.24  C 
ATOM     42  N   LYS C 131      21.520   5.781  12.461  1.00 46.51 LIG-0.35  N 
ATOM     43 H    LYS C 131      21.441   5.125  11.911  1.00 46.51 LIG 0.16  HD
ATOM     44 O    ARG C 130      21.351   6.594  14.570  1.00 41.50 LIG-0.27  OA
BRANCH 42 45
ATOM     45  CA  LYS C 131      22.000   7.014  11.832  1.00 53.22 LIG 0.18  C 
BRANCH 45 46
ATOM     46  CB  LYS C 131      23.306   6.758  11.065  1.00 55.01 LIG 0.04  C 
BRANCH 46 47
ATOM     47  CG  LYS C 131      23.168   6.694   9.556  1.00 52.38 LIG 0.00  C 
BRANCH 47 48
ATOM     48  CD  LYS C 131      24.495   6.925   8.866  1.00 48.84 LIG 0.03  C 
BRANCH 48 49
ATOM     49  CE  LYS C 131      25.310   5.662   8.813  1.00 46.73 LIG 0.23  C 
BRANCH 49 50
ATOM     50  NZ  LYS C 131      26.666   5.986   8.321  1.00 43.41 LIG-0.08  N 
ATOM     51 HZ1  LYS C 131      26.610   6.602   7.681  1.00 43.41 LIG 0.27  HD
ATOM     52 HZ3  LYS C 131      27.047   5.252   7.992  1.00 43.41 LIG 0.27  HD
ATOM     53 HZ2  LYS C 131      27.159   6.300   8.993  1.00 43.41 LIG 0.27  HD
ENDBRANCH 49 50
ENDBRANCH 48 49
ENDBRANCH 47 48
ENDBRANCH 46 47
ENDBRANCH 45 46
BRANCH 45 54
ATOM     54  C   LYS C 131      20.981   7.556  10.846  1.00 59.91 LIG 0.24  C 
ATOM     55  N   VAL C 132      19.866   6.836  10.737  1.00 72.80 LIG-0.35  N 
ATOM     56 H    VAL C 132      19.792   6.050  11.079  1.00 72.80 LIG 0.16  HD
ATOM     57 O    LYS C 131      21.213   8.577  10.211  1.00 55.62 LIG-0.27  OA
BRANCH 55 58
ATOM     58  CA  VAL C 132      18.650   7.270  10.041  1.00 46.38 LIG 0.17  C 
BRANCH 58 59
ATOM     59  C   VAL C 132      18.259   8.702  10.406  1.00 55.18 LIG 0.22  C 
ATOM     60 O    VAL C 132      18.063   9.007  11.592  1.00 55.70 LIG-0.29  OA
ENDBRANCH 58 59
BRANCH 58 61
ATOM     61  CB  VAL C 132      17.471   6.268  10.200  1.00 53.16 LIG 0.01  C 
ATOM     62  CG2 VAL C 132      16.168   7.031  10.163  1.00 49.68 LIG 0.01  C 
ATOM     63  CG1 VAL C 132      17.590   5.430  11.465  1.00 55.70 LIG 0.01  C 
ENDBRANCH 58 61
ENDBRANCH 55 58
ENDBRANCH 45 54
ENDBRANCH 42 45
ENDBRANCH 1 41
TORSDOF 29
ENDMDL
MODEL 21
USER: ADFR SOLUTION from run 53
USER: SCORE 20.938858 LL:  -1.673 LR: -20.758 RR:   0.000 FEB: -12.108
USER: RMSD 10.821269
USER: SEED 52
USER: STATUS no improvement in best in 3 clusters for 5 generations
USER: GENES 31
USER: genes 0 Translation |==|  0.43376 0.56970 0.49883
USER: genes 1 Rotation |==|  0.54785 0.97484 0.37438 0.58034
USER: genes 2 Torsion [CB]-CA--N-[C] |==|  0.40434
USER: genes 3 Torsion [N]-C--CA-[N] |==|  0.39093
USER: genes 4 Torsion [C]-CA--CB-[CG] |==|  0.37189
USER: genes 5 Torsion [CA]-CB--CG-[CD] |==|  0.10346
USER: genes 6 Torsion [CB]-CG--CD-[CE] |==|  0.34987
USER: genes 7 Torsion [CG]-CD--CE-[NZ] |==|  0.34907
USER: genes 8 Torsion [CD]-CE--NZ-[HZ3] |==|  0.10862
USER: genes 9 Torsion [C]-CA--N-[C] |==|  0.76386
USER: genes 10 Torsion [N]-C--CA-[N] |==|  0.23141
USER: genes 11 Torsion [C]-CA--CB-[CG] |==|  0.16439
USER: genes 12 Torsion [CA]-CB--CG-[CD] |==|  0.47803
USER: genes 13 Torsion [CB]-CG--CD-[CE] |==|  0.11711
USER: genes 14 Torsion [CG]-CD--CE-[NZ] |==|  0.60418
USER: genes 15 Torsion [CD]-CE--NZ-[HZ3] |==|  0.45867
USER: genes 16 Torsion [N]-CA--CB-[CG] |==|  0.22694
USER: genes 17 Torsion [CA]-CB--CG-[CD] |==|  0.40573
USER: genes 18 Torsion [CB]-CG--CD-[NE] |==|  0.42142
USER: genes 19 Torsion [CG]-CD--NE-[HE] |==|  0.94671
USER: genes 20 Torsion [N]-CA--C-[N] |==|  0.90516
USER: genes 21 Torsion [C]-N--CA-[C] |==|  0.58182
USER: genes 22 Torsion [N]-CA--CB-[CG] |==|  0.86120
USER: genes 23 Torsion [CA]-CB--CG-[CD] |==|  0.57807
USER: genes 24 Torsion [CB]-CG--CD-[CE] |==|  0.62081
USER: genes 25 Torsion [CG]-CD--CE-[NZ] |==|  0.32576
USER: genes 26 Torsion [CD]-CE--NZ-[HZ1] |==|  0.64345
USER: genes 27 Torsion [N]-CA--C-[N] |==|  0.48333
USER: genes 28 Torsion [C]-N--CA-[C] |==|  0.67798
USER: genes 29 Torsion [N]-CA--C-[O] |==|  0.12614
USER: genes 30 Torsion [N]-CA--CB-[CG2] |==|  0.86362
ROOT
ATOM      1  CA  ARG C 130      20.380   4.823  14.021  1.00 44.25 LIG 0.18  C 
ENDROOT
BRANCH 1 2
ATOM      2  N   ARG C 130      21.410   4.271  14.882  1.00 44.77 LIG-0.35  N 
ATOM      3  C   LYS C 129      22.415   5.006  15.339  1.00 47.82 LIG 0.24  C 
ATOM      4 O    LYS C 129      22.511   6.217  15.136  1.00 51.43 LIG-0.27  OA
ATOM      5 H    ARG C 130      21.307   3.436  15.064  1.00 44.77 LIG 0.16  HD
BRANCH 3 6
ATOM      6  CA  LYS C 129      23.476   4.254  16.135  1.00 47.52 LIG 0.18  C 
BRANCH 6 7
ATOM      7  CB  LYS C 129      23.201   4.383  17.625  1.00 47.19 LIG 0.04  C 
BRANCH 7 8
ATOM      8  CG  LYS C 129      23.305   3.082  18.375  1.00 46.82 LIG 0.00  C 
BRANCH 8 9
ATOM      9  CD  LYS C 129      24.420   2.206  17.856  1.00 42.25 LIG 0.03  C 
BRANCH 9 10
ATOM     10  CE  LYS C 129      25.339   1.815  18.997  1.00 38.25 LIG 0.23  C 
BRANCH 10 11
ATOM     11  NZ  LYS C 129      25.543   0.338  19.144  1.00 36.45 LIG-0.08  N 
ATOM     12 HZ3  LYS C 129      25.606  -0.034  18.338  1.00 36.45 LIG 0.27  HD
ATOM     13 HZ2  LYS C 129      24.853  -0.015  19.581  1.00 36.45 LIG 0.27  HD
ATOM     14 HZ1  LYS C 129      26.292   0.185  19.600  1.00 36.45 LIG 0.27  HD
ENDBRANCH 10 11
ENDBRANCH 9 10
ENDBRANCH 8 9
ENDBRANCH 7 8
ENDBRANCH 6 7
BRANCH 6 15
ATOM     15  N   LYS C 129      24.797   4.773  15.794  1.00 50.72 LIG-0.35  N 
ATOM     16 H    LYS C 129      25.091   5.381  16.327  1.00 50.72 LIG 0.16  HD
ATOM     17  C   LYS C 128      25.467   4.317  14.734  1.00 53.52 LIG 0.26  C 
ATOM     18 O    LYS C 128      25.090   3.350  14.047  1.00 51.22 LIG-0.27  OA
BRANCH 17 19
ATOM     19  CA  LYS C 128      26.782   5.035  14.405  1.00 56.35 LIG 0.40  C 
ATOM     20  N   LYS C 128      27.908   4.538  15.195  1.00 59.98 LIG 0.61  N 
BRANCH 19 21
ATOM     21  CB  LYS C 128      27.068   4.879  12.921  1.00 54.38 LIG 0.05  C 
BRANCH 21 22
ATOM     22  CG  LYS C 128      25.981   5.443  12.055  1.00 63.27 LIG 0.00  C 
BRANCH 22 23
ATOM     23  CD  LYS C 128      26.366   5.453  10.598  1.00 66.98 LIG 0.03  C 
BRANCH 23 24
ATOM     24  CE  LYS C 128      27.072   4.171  10.171  1.00 66.03 LIG 0.23  C 
BRANCH 24 25
ATOM     25  NZ  LYS C 128      28.159   4.475   9.193  1.00 67.41 LIG-0.08  N 
ATOM     26 HZ3  LYS C 128      28.696   3.769   9.117  1.00 67.41 LIG 0.27  HD
ATOM     27 HZ2  LYS C 128      28.628   5.175   9.479  1.00 67.41 LIG 0.27  HD
ATOM     28 HZ1  LYS C 128      27.801   4.662   8.399  1.00 67.41 LIG 0.27  HD
ENDBRANCH 24 25
ENDBRANCH 23 24
ENDBRANCH 22 23
ENDBRANCH 21 22
ENDBRANCH 19 21
ENDBRANCH 17 19
ENDBRANCH 6 15
ENDBRANCH 3 6
ENDBRANCH 1 2
BRANCH 1 29
ATOM     29  CB  ARG C 130      19.930   3.758  13.026  1.00 44.07 LIG 0.04  C 
BRANCH 29 30
ATOM     30  CG  ARG C 130      18.916   2.778  13.584  1.00 48.13 LIG 0.02  C 
BRANCH 30 31
ATOM     31  CD  ARG C 130      17.945   2.351  12.494  1.00 53.98 LIG 0.14  C 
BRANCH 31 32
ATOM     32  NE  ARG C 130      17.434   1.019  12.754  1.00 57.03 LIG-0.23  N 
ATOM     33  CZ  ARG C 130      16.331   0.506  12.222  1.00 53.36 LIG 0.67  C 
ATOM     34  NH1 ARG C 130      15.576   1.210  11.390  1.00 46.68 LIG-0.23  N 
ATOM     35  NH2 ARG C 130      15.979  -0.731  12.539  1.00 54.86 LIG-0.23  N 
ATOM     36 1HH1 ARG C 130      15.798   2.016  11.186  1.00 46.68 LIG 0.17  HD
ATOM     37 2HH1 ARG C 130      14.865   0.861  11.055  1.00 46.68 LIG 0.17  HD
ATOM     38 1HH2 ARG C 130      16.462  -1.190  13.083  1.00 54.86 LIG 0.17  HD
ATOM     39 2HH2 ARG C 130      15.266  -1.075  12.202  1.00 54.86 LIG 0.17  HD
ATOM     40 HE   ARG C 130      17.880   0.522  13.296  1.00 57.03 LIG 0.18  HD
ENDBRANCH 31 32
ENDBRANCH 30 31
ENDBRANCH 29 30
ENDBRANCH 1 29
BRANCH 1 41
ATOM     41  C   ARG C 130      19.188   5.248  14.843  1.00 43.16 LIG 0.24  C 
ATOM     42  N   LYS C 131      18.917   4.503  15.918  1.00 46.51 LIG-0.35  N 
ATOM     43 H    LYS C 131      19.368   3.801  16.126  1.00 46.51 LIG 0.16  HD
ATOM     44 O    ARG C 130      18.550   6.245  14.513  1.00 41.50 LIG-0.27  OA
BRANCH 42 45
ATOM     45  CA  LYS C 131      17.828   4.796  16.853  1.00 53.22 LIG 0.18  C 
BRANCH 45 46
ATOM     46  CB  LYS C 131      16.532   4.100  16.410  1.00 55.01 LIG 0.04  C 
BRANCH 46 47
ATOM     47  CG  LYS C 131      16.146   4.313  14.959  1.00 52.38 LIG 0.00  C 
BRANCH 47 48
ATOM     48  CD  LYS C 131      14.648   4.226  14.763  1.00 48.84 LIG 0.03  C 
BRANCH 48 49
ATOM     49  CE  LYS C 131      14.304   3.422  13.538  1.00 46.73 LIG 0.23  C 
BRANCH 49 50
ATOM     50  NZ  LYS C 131      13.541   2.225  13.949  1.00 43.41 LIG-0.08  N 
ATOM     51 HZ1  LYS C 131      13.916   1.499  13.596  1.00 43.41 LIG 0.27  HD
ATOM     52 HZ3  LYS C 131      12.702   2.294  13.661  1.00 43.41 LIG 0.27  HD
ATOM     53 HZ2  LYS C 131      13.545   2.160  14.837  1.00 43.41 LIG 0.27  HD
ENDBRANCH 49 50
ENDBRANCH 48 49
ENDBRANCH 47 48
ENDBRANCH 46 47
ENDBRANCH 45 46
BRANCH 45 54
ATOM     54  C   LYS C 131      18.164   4.306  18.250  1.00 59.91 LIG 0.24  C 
ATOM     55  N   VAL C 132      17.284   4.642  19.191  1.00 72.80 LIG-0.35  N 
ATOM     56 H    VAL C 132      16.658   5.216  19.050  1.00 72.80 LIG 0.16  HD
ATOM     57 O    LYS C 131      19.186   3.662  18.454  1.00 55.62 LIG-0.27  OA
BRANCH 55 58
ATOM     58  CA  VAL C 132      17.259   4.097  20.552  1.00 46.38 LIG 0.17  C 
BRANCH 58 59
ATOM     59  C   VAL C 132      15.984   3.299  20.828  1.00 55.18 LIG 0.22  C 
ATOM     60 O    VAL C 132      15.571   2.483  19.992  1.00 55.70 LIG-0.29  OA
ENDBRANCH 58 59
BRANCH 58 61
ATOM     61  CB  VAL C 132      17.540   5.172  21.641  1.00 53.16 LIG 0.01  C 
ATOM     62  CG2 VAL C 132      18.774   5.953  21.255  1.00 49.68 LIG 0.01  C 
ATOM     63  CG1 VAL C 132      17.675   4.567  23.030  1.00 55.70 LIG 0.01  C 
ENDBRANCH 58 61
ENDBRANCH 55 58
ENDBRANCH 45 54
ENDBRANCH 42 45
ENDBRANCH 1 41
TORSDOF 29
ENDMDL
MODEL 22
USER: ADFR SOLUTION from run 86
USER: SCORE 21.101017 LL:  -2.038 LR: -20.715 RR:   0.000 FEB: -12.064
USER: RMSD 7.625483
USER: SEED 85
USER: STATUS 1 or 2 clusters left
USER: GENES 31
USER: genes 0 Translation |==|  0.43110 0.54091 0.48091
USER: genes 1 Rotation |==|  0.79562 0.24715 0.42329 0.80462
USER: genes 2 Torsion [CB]-CA--N-[C] |==|  0.28326
USER: genes 3 Torsion [N]-C--CA-[N] |==|  0.42636
USER: genes 4 Torsion [C]-CA--CB-[CG] |==|  0.27711
USER: genes 5 Torsion [CA]-CB--CG-[CD] |==|  0.03105
USER: genes 6 Torsion [CB]-CG--CD-[CE] |==|  0.43012
USER: genes 7 Torsion [CG]-CD--CE-[NZ] |==|  0.49605
USER: genes 8 Torsion [CD]-CE--NZ-[HZ3] |==|  0.83869
USER: genes 9 Torsion [C]-CA--N-[C] |==|  0.72611
USER: genes 10 Torsion [N]-C--CA-[N] |==|  0.28242
USER: genes 11 Torsion [C]-CA--CB-[CG] |==|  0.20565
USER: genes 12 Torsion [CA]-CB--CG-[CD] |==|  0.46701
USER: genes 13 Torsion [CB]-CG--CD-[CE] |==|  0.65334
USER: genes 14 Torsion [CG]-CD--CE-[NZ] |==|  0.57924
USER: genes 15 Torsion [CD]-CE--NZ-[HZ3] |==|  0.40299
USER: genes 16 Torsion [N]-CA--CB-[CG] |==|  0.65823
USER: genes 17 Torsion [CA]-CB--CG-[CD] |==|  0.22370
USER: genes 18 Torsion [CB]-CG--CD-[NE] |==|  0.20792
USER: genes 19 Torsion [CG]-CD--NE-[HE] |==|  0.84855
USER: genes 20 Torsion [N]-CA--C-[N] |==|  0.27412
USER: genes 21 Torsion [C]-N--CA-[C] |==|  0.12815
USER: genes 22 Torsion [N]-CA--CB-[CG] |==|  0.65659
USER: genes 23 Torsion [CA]-CB--CG-[CD] |==|  0.61618
USER: genes 24 Torsion [CB]-CG--CD-[CE] |==|  0.63002
USER: genes 25 Torsion [CG]-CD--CE-[NZ] |==|  0.41139
USER: genes 26 Torsion [CD]-CE--NZ-[HZ1] |==|  0.71860
USER: genes 27 Torsion [N]-CA--C-[N] |==|  0.10508
USER: genes 28 Torsion [C]-N--CA-[C] |==|  0.55211
USER: genes 29 Torsion [N]-CA--C-[O] |==|  0.39380
USER: genes 30 Torsion [N]-CA--CB-[CG2] |==|  0.70492
ROOT
ATOM      1  CA  ARG C 130      20.308   4.369  13.631  1.00 44.25 LIG 0.18  C 
ENDROOT
BRANCH 1 2
ATOM      2  N   ARG C 130      20.097   5.347  12.579  1.00 44.77 LIG-0.35  N 
ATOM      3  C   LYS C 129      19.072   6.189  12.594  1.00 47.82 LIG 0.24  C 
ATOM      4 O    LYS C 129      18.272   6.261  13.529  1.00 51.43 LIG-0.27  OA
ATOM      5 H    ARG C 130      20.690   5.328  11.956  1.00 44.77 LIG 0.16  HD
BRANCH 3 6
ATOM      6  CA  LYS C 129      18.924   7.075  11.362  1.00 47.52 LIG 0.18  C 
BRANCH 6 7
ATOM      7  CB  LYS C 129      19.816   8.300  11.488  1.00 47.19 LIG 0.04  C 
BRANCH 7 8
ATOM      8  CG  LYS C 129      21.108   8.191  10.725  1.00 46.82 LIG 0.00  C 
BRANCH 8 9
ATOM      9  CD  LYS C 129      21.124   7.009   9.785  1.00 42.25 LIG 0.03  C 
BRANCH 9 10
ATOM     10  CE  LYS C 129      22.093   7.270   8.648  1.00 38.25 LIG 0.23  C 
BRANCH 10 11
ATOM     11  NZ  LYS C 129      22.212   6.142   7.671  1.00 36.45 LIG-0.08  N 
ATOM     12 HZ3  LYS C 129      22.470   5.405   8.098  1.00 36.45 LIG 0.27  HD
ATOM     13 HZ2  LYS C 129      22.814   6.350   7.049  1.00 36.45 LIG 0.27  HD
ATOM     14 HZ1  LYS C 129      21.423   5.999   7.284  1.00 36.45 LIG 0.27  HD
ENDBRANCH 10 11
ENDBRANCH 9 10
ENDBRANCH 8 9
ENDBRANCH 7 8
ENDBRANCH 6 7
BRANCH 6 15
ATOM     15  N   LYS C 129      17.524   7.453  11.200  1.00 50.72 LIG-0.35  N 
ATOM     16 H    LYS C 129      17.273   8.112  11.693  1.00 50.72 LIG 0.16  HD
ATOM     17  C   LYS C 128      16.726   6.808  10.348  1.00 53.52 LIG 0.26  C 
ATOM     18 O    LYS C 128      17.131   5.943   9.549  1.00 51.22 LIG-0.27  OA
BRANCH 17 19
ATOM     19  CA  LYS C 128      15.247   7.211  10.369  1.00 56.35 LIG 0.40  C 
ATOM     20  N   LYS C 128      14.888   8.096   9.261  1.00 59.98 LIG 0.61  N 
BRANCH 19 21
ATOM     21  CB  LYS C 128      14.394   5.953  10.336  1.00 54.38 LIG 0.05  C 
BRANCH 21 22
ATOM     22  CG  LYS C 128      14.390   5.218  11.644  1.00 63.27 LIG 0.00  C 
BRANCH 22 23
ATOM     23  CD  LYS C 128      13.330   4.148  11.688  1.00 66.98 LIG 0.03  C 
BRANCH 23 24
ATOM     24  CE  LYS C 128      12.391   4.304  12.879  1.00 66.03 LIG 0.23  C 
BRANCH 24 25
ATOM     25  NZ  LYS C 128      11.851   2.975  13.296  1.00 67.41 LIG-0.08  N 
ATOM     26 HZ3  LYS C 128      11.756   2.958  14.181  1.00 67.41 LIG 0.27  HD
ATOM     27 HZ2  LYS C 128      12.416   2.334  13.046  1.00 67.41 LIG 0.27  HD
ATOM     28 HZ1  LYS C 128      11.061   2.841  12.910  1.00 67.41 LIG 0.27  HD
ENDBRANCH 24 25
ENDBRANCH 23 24
ENDBRANCH 22 23
ENDBRANCH 21 22
ENDBRANCH 19 21
ENDBRANCH 17 19
ENDBRANCH 6 15
ENDBRANCH 3 6
ENDBRANCH 1 2
BRANCH 1 29
ATOM     29  CB  ARG C 130      19.849   2.999  13.145  1.00 44.07 LIG 0.04  C 
BRANCH 29 30
ATOM     30  CG  ARG C 130      18.793   2.352  14.021  1.00 48.13 LIG 0.02  C 
BRANCH 30 31
ATOM     31  CD  ARG C 130      17.422   2.924  13.699  1.00 53.98 LIG 0.14  C 
BRANCH 31 32
ATOM     32  NE  ARG C 130      16.926   2.396  12.443  1.00 57.03 LIG-0.23  N 
ATOM     33  CZ  ARG C 130      15.758   1.788  12.277  1.00 53.36 LIG 0.67  C 
ATOM     34  NH1 ARG C 130      14.930   1.598  13.296  1.00 46.68 LIG-0.23  N 
ATOM     35  NH2 ARG C 130      15.422   1.358  11.070  1.00 54.86 LIG-0.23  N 
ATOM     36 1HH1 ARG C 130      15.147   1.871  14.082  1.00 46.68 LIG 0.17  HD
ATOM     37 2HH1 ARG C 130      14.177   1.202  13.169  1.00 46.68 LIG 0.17  HD
ATOM     38 1HH2 ARG C 130      15.957   1.474  10.407  1.00 54.86 LIG 0.17  HD
ATOM     39 2HH2 ARG C 130      14.668   0.963  10.950  1.00 54.86 LIG 0.17  HD
ATOM     40 HE   ARG C 130      17.429   2.484  11.751  1.00 57.03 LIG 0.18  HD
ENDBRANCH 31 32
ENDBRANCH 30 31
ENDBRANCH 29 30
ENDBRANCH 1 29
BRANCH 1 41
ATOM     41  C   ARG C 130      21.774   4.291  13.981  1.00 43.16 LIG 0.24  C 
ATOM     42  N   LYS C 131      22.160   4.980  15.058  1.00 46.51 LIG-0.35  N 
ATOM     43 H    LYS C 131      21.622   5.467  15.519  1.00 46.51 LIG 0.16  HD
ATOM     44 O    ARG C 130      22.523   3.601  13.295  1.00 41.50 LIG-0.27  OA
BRANCH 42 45
ATOM     45  CA  LYS C 131      23.533   4.981  15.569  1.00 53.22 LIG 0.18  C 
BRANCH 45 46
ATOM     46  CB  LYS C 131      23.856   3.646  16.257  1.00 55.01 LIG 0.04  C 
BRANCH 46 47
ATOM     47  CG  LYS C 131      24.322   3.756  17.696  1.00 52.38 LIG 0.00  C 
BRANCH 47 48
ATOM     48  CD  LYS C 131      25.474   2.817  17.981  1.00 48.84 LIG 0.03  C 
BRANCH 48 49
ATOM     49  CE  LYS C 131      25.256   2.058  19.262  1.00 46.73 LIG 0.23  C 
BRANCH 49 50
ATOM     50  NZ  LYS C 131      25.880   0.724  19.140  1.00 43.41 LIG-0.08  N 
ATOM     51 HZ1  LYS C 131      25.252   0.117  18.970  1.00 43.41 LIG 0.27  HD
ATOM     52 HZ3  LYS C 131      26.292   0.517  19.902  1.00 43.41 LIG 0.27  HD
ATOM     53 HZ2  LYS C 131      26.473   0.732  18.476  1.00 43.41 LIG 0.27  HD
ENDBRANCH 49 50
ENDBRANCH 48 49
ENDBRANCH 47 48
ENDBRANCH 46 47
ENDBRANCH 45 46
BRANCH 45 54
ATOM     54  C   LYS C 131      24.533   5.177  14.444  1.00 59.91 LIG 0.24  C 
ATOM     55  N   VAL C 132      24.152   6.030  13.494  1.00 72.80 LIG-0.35  N 
ATOM     56 H    VAL C 132      23.347   6.327  13.442  1.00 72.80 LIG 0.16  HD
ATOM     57 O    LYS C 131      25.596   4.568  14.444  1.00 55.62 LIG-0.27  OA
BRANCH 55 58
ATOM     58  CA  VAL C 132      25.025   6.562  12.443  1.00 46.38 LIG 0.17  C 
BRANCH 58 59
ATOM     59  C   VAL C 132      24.450   7.828  11.806  1.00 55.18 LIG 0.22  C 
ATOM     60 O    VAL C 132      25.205   8.759  11.489  1.00 55.70 LIG-0.29  OA
ENDBRANCH 58 59
BRANCH 58 61
ATOM     61  CB  VAL C 132      25.425   5.490  11.389  1.00 53.16 LIG 0.01  C 
ATOM     62  CG2 VAL C 132      26.868   5.099  11.607  1.00 49.68 LIG 0.01  C 
ATOM     63  CG1 VAL C 132      25.187   5.964   9.962  1.00 55.70 LIG 0.01  C 
ENDBRANCH 58 61
ENDBRANCH 55 58
ENDBRANCH 45 54
ENDBRANCH 42 45
ENDBRANCH 1 41
TORSDOF 29
ENDMDL
MODEL 23
USER: ADFR SOLUTION from run 43
USER: SCORE 22.066183 LL:  -1.886 LR: -20.705 RR:   0.000 FEB: -12.054
USER: RMSD 6.869861
USER: SEED 42
USER: STATUS no improvement in best in 2 clusters for 5 generations
USER: GENES 31
USER: genes 0 Translation |==|  0.43154 0.53727 0.50561
USER: genes 1 Rotation |==|  0.04655 0.30553 0.50613 0.58077
USER: genes 2 Torsion [CB]-CA--N-[C] |==|  0.15000
USER: genes 3 Torsion [N]-C--CA-[N] |==|  0.08143
USER: genes 4 Torsion [C]-CA--CB-[CG] |==|  0.27206
USER: genes 5 Torsion [CA]-CB--CG-[CD] |==|  0.95316
USER: genes 6 Torsion [CB]-CG--CD-[CE] |==|  0.34895
USER: genes 7 Torsion [CG]-CD--CE-[NZ] |==|  0.06314
USER: genes 8 Torsion [CD]-CE--NZ-[HZ3] |==|  0.97624
USER: genes 9 Torsion [C]-CA--N-[C] |==|  0.16437
USER: genes 10 Torsion [N]-C--CA-[N] |==|  0.47419
USER: genes 11 Torsion [C]-CA--CB-[CG] |==|  0.93372
USER: genes 12 Torsion [CA]-CB--CG-[CD] |==|  0.50159
USER: genes 13 Torsion [CB]-CG--CD-[CE] |==|  0.72524
USER: genes 14 Torsion [CG]-CD--CE-[NZ] |==|  0.76641
USER: genes 15 Torsion [CD]-CE--NZ-[HZ3] |==|  0.71548
USER: genes 16 Torsion [N]-CA--CB-[CG] |==|  0.53239
USER: genes 17 Torsion [CA]-CB--CG-[CD] |==|  0.44183
USER: genes 18 Torsion [CB]-CG--CD-[NE] |==|  0.57602
USER: genes 19 Torsion [CG]-CD--NE-[HE] |==|  0.87182
USER: genes 20 Torsion [N]-CA--C-[N] |==|  0.17397
USER: genes 21 Torsion [C]-N--CA-[C] |==|  0.84019
USER: genes 22 Torsion [N]-CA--CB-[CG] |==|  0.22350
USER: genes 23 Torsion [CA]-CB--CG-[CD] |==|  0.28375
USER: genes 24 Torsion [CB]-CG--CD-[CE] |==|  0.51912
USER: genes 25 Torsion [CG]-CD--CE-[NZ] |==|  0.73903
USER: genes 26 Torsion [CD]-CE--NZ-[HZ1] |==|  0.36026
USER: genes 27 Torsion [N]-CA--C-[N] |==|  0.90807
USER: genes 28 Torsion [C]-N--CA-[C] |==|  0.51809
USER: genes 29 Torsion [N]-CA--C-[O] |==|  0.96614
USER: genes 30 Torsion [N]-CA--CB-[CG2] |==|  0.59466
ROOT
ATOM      1  CA  ARG C 130      20.320   4.312  14.168  1.00 44.25 LIG 0.18  C 
ENDROOT
BRANCH 1 2
ATOM      2  N   ARG C 130      19.014   3.709  14.363  1.00 44.77 LIG-0.35  N 
ATOM      3  C   LYS C 129      18.253   3.329  13.346  1.00 47.82 LIG 0.24  C 
ATOM      4 O    LYS C 129      18.621   3.385  12.171  1.00 51.43 LIG-0.27  OA
ATOM      5 H    ARG C 130      18.785   3.623  15.188  1.00 44.77 LIG 0.16  HD
BRANCH 3 6
ATOM      6  CA  LYS C 129      16.862   2.821  13.711  1.00 47.52 LIG 0.18  C 
BRANCH 6 7
ATOM      7  CB  LYS C 129      15.895   3.073  12.564  1.00 47.19 LIG 0.04  C 
BRANCH 7 8
ATOM      8  CG  LYS C 129      15.677   1.874  11.681  1.00 46.82 LIG 0.00  C 
BRANCH 8 9
ATOM      9  CD  LYS C 129      16.744   0.822  11.863  1.00 42.25 LIG 0.03  C 
BRANCH 9 10
ATOM     10  CE  LYS C 129      16.100  -0.512  12.190  1.00 38.25 LIG 0.23  C 
BRANCH 10 11
ATOM     11  NZ  LYS C 129      14.675  -0.631  11.743  1.00 36.45 LIG-0.08  N 
ATOM     12 HZ3  LYS C 129      14.386   0.161  11.457  1.00 36.45 LIG 0.27  HD
ATOM     13 HZ2  LYS C 129      14.172  -0.902  12.425  1.00 36.45 LIG 0.27  HD
ATOM     14 HZ1  LYS C 129      14.620  -1.223  11.080  1.00 36.45 LIG 0.27  HD
ENDBRANCH 10 11
ENDBRANCH 9 10
ENDBRANCH 8 9
ENDBRANCH 7 8
ENDBRANCH 6 7
BRANCH 6 15
ATOM     15  N   LYS C 129      16.412   3.473  14.936  1.00 50.72 LIG-0.35  N 
ATOM     16 H    LYS C 129      16.234   2.935  15.583  1.00 50.72 LIG 0.16  HD
ATOM     17  C   LYS C 128      16.298   4.800  15.012  1.00 53.52 LIG 0.26  C 
ATOM     18 O    LYS C 128      16.681   5.575  14.116  1.00 51.22 LIG-0.27  OA
BRANCH 17 19
ATOM     19  CA  LYS C 128      15.688   5.354  16.305  1.00 56.35 LIG 0.40  C 
ATOM     20  N   LYS C 128      15.797   6.810  16.401  1.00 59.98 LIG 0.61  N 
BRANCH 19 21
ATOM     21  CB  LYS C 128      14.232   4.927  16.384  1.00 54.38 LIG 0.05  C 
BRANCH 21 22
ATOM     22  CG  LYS C 128      13.640   4.624  15.039  1.00 63.27 LIG 0.00  C 
BRANCH 22 23
ATOM     23  CD  LYS C 128      12.193   4.217  15.136  1.00 66.98 LIG 0.03  C 
BRANCH 23 24
ATOM     24  CE  LYS C 128      12.007   2.703  15.087  1.00 66.03 LIG 0.23  C 
BRANCH 24 25
ATOM     25  NZ  LYS C 128      11.977   2.227  13.672  1.00 67.41 LIG-0.08  N 
ATOM     26 HZ3  LYS C 128      11.136   2.063  13.432  1.00 67.41 LIG 0.27  HD
ATOM     27 HZ2  LYS C 128      12.458   1.481  13.599  1.00 67.41 LIG 0.27  HD
ATOM     28 HZ1  LYS C 128      12.320   2.853  13.140  1.00 67.41 LIG 0.27  HD
ENDBRANCH 24 25
ENDBRANCH 23 24
ENDBRANCH 22 23
ENDBRANCH 21 22
ENDBRANCH 19 21
ENDBRANCH 17 19
ENDBRANCH 6 15
ENDBRANCH 3 6
ENDBRANCH 1 2
BRANCH 1 29
ATOM     29  CB  ARG C 130      20.187   5.511  13.236  1.00 44.07 LIG 0.04  C 
BRANCH 29 30
ATOM     30  CG  ARG C 130      21.510   6.056  12.733  1.00 48.13 LIG 0.02  C 
BRANCH 30 31
ATOM     31  CD  ARG C 130      21.297   6.864  11.464  1.00 53.98 LIG 0.14  C 
BRANCH 31 32
ATOM     32  NE  ARG C 130      22.489   6.847  10.637  1.00 57.03 LIG-0.23  N 
ATOM     33  CZ  ARG C 130      22.509   6.627   9.329  1.00 53.36 LIG 0.67  C 
ATOM     34  NH1 ARG C 130      21.393   6.382   8.655  1.00 46.68 LIG-0.23  N 
ATOM     35  NH2 ARG C 130      23.669   6.647   8.690  1.00 54.86 LIG-0.23  N 
ATOM     36 1HH1 ARG C 130      20.638   6.363   9.066  1.00 46.68 LIG 0.17  HD
ATOM     37 2HH1 ARG C 130      21.425   6.242   7.807  1.00 46.68 LIG 0.17  HD
ATOM     38 1HH2 ARG C 130      24.397   6.800   9.123  1.00 54.86 LIG 0.17  HD
ATOM     39 2HH2 ARG C 130      23.696   6.506   7.842  1.00 54.86 LIG 0.17  HD
ATOM     40 HE   ARG C 130      23.243   6.991  11.026  1.00 57.03 LIG 0.18  HD
ENDBRANCH 31 32
ENDBRANCH 30 31
ENDBRANCH 29 30
ENDBRANCH 1 29
BRANCH 1 41
ATOM     41  C   ARG C 130      20.875   4.787  15.489  1.00 43.16 LIG 0.24  C 
ATOM     42  N   LYS C 131      21.099   3.843  16.407  1.00 46.51 LIG-0.35  N 
ATOM     43 H    LYS C 131      20.915   3.013  16.279  1.00 46.51 LIG 0.16  HD
ATOM     44 O    ARG C 130      21.113   5.981  15.650  1.00 41.50 LIG-0.27  OA
BRANCH 42 45
ATOM     45  CA  LYS C 131      21.677   4.117  17.725  1.00 53.22 LIG 0.18  C 
BRANCH 45 46
ATOM     46  CB  LYS C 131      21.868   2.813  18.514  1.00 55.01 LIG 0.04  C 
BRANCH 46 47
ATOM     47  CG  LYS C 131      23.105   2.014  18.154  1.00 52.38 LIG 0.00  C 
BRANCH 47 48
ATOM     48  CD  LYS C 131      24.204   2.199  19.178  1.00 48.84 LIG 0.03  C 
BRANCH 48 49
ATOM     49  CE  LYS C 131      25.482   1.540  18.733  1.00 46.73 LIG 0.23  C 
BRANCH 49 50
ATOM     50  NZ  LYS C 131      25.543   0.178  19.303  1.00 43.41 LIG-0.08  N 
ATOM     51 HZ1  LYS C 131      25.727  -0.406  18.657  1.00 43.41 LIG 0.27  HD
ATOM     52 HZ3  LYS C 131      24.759  -0.025  19.671  1.00 43.41 LIG 0.27  HD
ATOM     53 HZ2  LYS C 131      26.180   0.144  19.924  1.00 43.41 LIG 0.27  HD
ENDBRANCH 49 50
ENDBRANCH 48 49
ENDBRANCH 47 48
ENDBRANCH 46 47
ENDBRANCH 45 46
BRANCH 45 54
ATOM     54  C   LYS C 131      23.035   4.784  17.596  1.00 59.91 LIG 0.24  C 
ATOM     55  N   VAL C 132      23.749   4.409  16.536  1.00 72.80 LIG-0.35  N 
ATOM     56 H    VAL C 132      23.527   3.735  16.050  1.00 72.80 LIG 0.16  HD
ATOM     57 O    LYS C 131      23.411   5.595  18.435  1.00 55.62 LIG-0.27  OA
BRANCH 55 58
ATOM     58  CA  VAL C 132      24.970   5.072  16.068  1.00 46.38 LIG 0.17  C 
BRANCH 58 59
ATOM     59  C   VAL C 132      25.460   4.498  14.738  1.00 55.18 LIG 0.22  C 
ATOM     60 O    VAL C 132      24.977   3.442  14.304  1.00 55.70 LIG-0.29  OA
ENDBRANCH 58 59
BRANCH 58 61
ATOM     61  CB  VAL C 132      26.087   5.118  17.149  1.00 53.16 LIG 0.01  C 
ATOM     62  CG2 VAL C 132      26.870   6.400  16.994  1.00 49.68 LIG 0.01  C 
ATOM     63  CG1 VAL C 132      26.997   3.899  17.093  1.00 55.70 LIG 0.01  C 
ENDBRANCH 58 61
ENDBRANCH 55 58
ENDBRANCH 45 54
ENDBRANCH 42 45
ENDBRANCH 1 41
TORSDOF 29
ENDMDL
MODEL 24
USER: ADFR SOLUTION from run 168
USER: SCORE 22.048609 LL:  -2.523 LR: -20.679 RR:   0.000 FEB: -12.028
USER: RMSD 9.323504
USER: SEED 167
USER: STATUS no improvement in best in 5 clusters for 5 generations
USER: GENES 31
USER: genes 0 Translation |==|  0.42979 0.50423 0.46548
USER: genes 1 Rotation |==|  0.51697 0.82488 0.12044 0.50998
USER: genes 2 Torsion [CB]-CA--N-[C] |==|  0.48992
USER: genes 3 Torsion [N]-C--CA-[N] |==|  0.93381
USER: genes 4 Torsion [C]-CA--CB-[CG] |==|  0.32060
USER: genes 5 Torsion [CA]-CB--CG-[CD] |==|  0.69885
USER: genes 6 Torsion [CB]-CG--CD-[CE] |==|  0.59989
USER: genes 7 Torsion [CG]-CD--CE-[NZ] |==|  0.57142
USER: genes 8 Torsion [CD]-CE--NZ-[HZ3] |==|  0.05734
USER: genes 9 Torsion [C]-CA--N-[C] |==|  0.77929
USER: genes 10 Torsion [N]-C--CA-[N] |==|  0.52139
USER: genes 11 Torsion [C]-CA--CB-[CG] |==|  0.34610
USER: genes 12 Torsion [CA]-CB--CG-[CD] |==|  0.85487
USER: genes 13 Torsion [CB]-CG--CD-[CE] |==|  0.32537
USER: genes 14 Torsion [CG]-CD--CE-[NZ] |==|  0.31789
USER: genes 15 Torsion [CD]-CE--NZ-[HZ3] |==|  0.54694
USER: genes 16 Torsion [N]-CA--CB-[CG] |==|  0.46892
USER: genes 17 Torsion [CA]-CB--CG-[CD] |==|  0.23320
USER: genes 18 Torsion [CB]-CG--CD-[NE] |==|  0.35940
USER: genes 19 Torsion [CG]-CD--NE-[HE] |==|  0.79994
USER: genes 20 Torsion [N]-CA--C-[N] |==|  0.30096
USER: genes 21 Torsion [C]-N--CA-[C] |==|  0.77214
USER: genes 22 Torsion [N]-CA--CB-[CG] |==|  0.88690
USER: genes 23 Torsion [CA]-CB--CG-[CD] |==|  0.36232
USER: genes 24 Torsion [CB]-CG--CD-[CE] |==|  0.58636
USER: genes 25 Torsion [CG]-CD--CE-[NZ] |==|  0.43848
USER: genes 26 Torsion [CD]-CE--NZ-[HZ1] |==|  0.31043
USER: genes 27 Torsion [N]-CA--C-[N] |==|  0.97544
USER: genes 28 Torsion [C]-N--CA-[C] |==|  0.16186
USER: genes 29 Torsion [N]-CA--C-[O] |==|  0.02894
USER: genes 30 Torsion [N]-CA--CB-[CG2] |==|  0.93502
ROOT
ATOM      1  CA  ARG C 130      20.272   3.792  13.295  1.00 44.25 LIG 0.18  C 
ENDROOT
BRANCH 1 2
ATOM      2  N   ARG C 130      21.547   4.025  13.950  1.00 44.77 LIG-0.35  N 
ATOM      3  C   LYS C 129      22.425   4.907  13.490  1.00 47.82 LIG 0.24  C 
ATOM      4 O    LYS C 129      22.199   5.644  12.529  1.00 51.43 LIG-0.27  OA
ATOM      5 H    ARG C 130      21.676   3.545  14.652  1.00 44.77 LIG 0.16  HD
BRANCH 3 6
ATOM      6  CA  LYS C 129      23.763   4.953  14.220  1.00 47.52 LIG 0.18  C 
BRANCH 6 7
ATOM      7  CB  LYS C 129      24.804   4.153  13.452  1.00 47.19 LIG 0.04  C 
BRANCH 7 8
ATOM      8  CG  LYS C 129      25.937   4.988  12.919  1.00 46.82 LIG 0.00  C 
BRANCH 8 9
ATOM      9  CD  LYS C 129      25.880   5.145  11.418  1.00 42.25 LIG 0.03  C 
BRANCH 9 10
ATOM     10  CE  LYS C 129      27.286   5.152  10.849  1.00 38.25 LIG 0.23  C 
BRANCH 10 11
ATOM     11  NZ  LYS C 129      27.418   5.878   9.546  1.00 36.45 LIG-0.08  N 
ATOM     12 HZ3  LYS C 129      26.735   6.440   9.448  1.00 36.45 LIG 0.27  HD
ATOM     13 HZ2  LYS C 129      27.417   5.290   8.878  1.00 36.45 LIG 0.27  HD
ATOM     14 HZ1  LYS C 129      28.181   6.336   9.537  1.00 36.45 LIG 0.27  HD
ENDBRANCH 10 11
ENDBRANCH 9 10
ENDBRANCH 8 9
ENDBRANCH 7 8
ENDBRANCH 6 7
BRANCH 6 15
ATOM     15  N   LYS C 129      23.595   4.440  15.575  1.00 50.72 LIG-0.35  N 
ATOM     16 H    LYS C 129      23.853   3.626  15.685  1.00 50.72 LIG 0.16  HD
ATOM     17  C   LYS C 128      23.079   5.199  16.544  1.00 53.52 LIG 0.26  C 
ATOM     18 O    LYS C 128      22.830   6.411  16.407  1.00 51.22 LIG-0.27  OA
BRANCH 17 19
ATOM     19  CA  LYS C 128      22.829   4.504  17.888  1.00 56.35 LIG 0.40  C 
ATOM     20  N   LYS C 128      22.102   5.351  18.833  1.00 59.98 LIG 0.61  N 
BRANCH 19 21
ATOM     21  CB  LYS C 128      22.066   3.213  17.640  1.00 54.38 LIG 0.05  C 
BRANCH 21 22
ATOM     22  CG  LYS C 128      22.757   2.009  18.208  1.00 63.27 LIG 0.00  C 
BRANCH 22 23
ATOM     23  CD  LYS C 128      24.192   1.915  17.759  1.00 66.98 LIG 0.03  C 
BRANCH 23 24
ATOM     24  CE  LYS C 128      25.175   2.012  18.921  1.00 66.03 LIG 0.23  C 
BRANCH 24 25
ATOM     25  NZ  LYS C 128      25.915   0.725  19.087  1.00 67.41 LIG-0.08  N 
ATOM     26 HZ3  LYS C 128      26.293   0.702  19.893  1.00 67.41 LIG 0.27  HD
ATOM     27 HZ2  LYS C 128      26.544   0.661  18.462  1.00 67.41 LIG 0.27  HD
ATOM     28 HZ1  LYS C 128      25.347   0.044  19.007  1.00 67.41 LIG 0.27  HD
ENDBRANCH 24 25
ENDBRANCH 23 24
ENDBRANCH 22 23
ENDBRANCH 21 22
ENDBRANCH 19 21
ENDBRANCH 17 19
ENDBRANCH 6 15
ENDBRANCH 3 6
ENDBRANCH 1 2
BRANCH 1 29
ATOM     29  CB  ARG C 130      19.537   2.663  14.011  1.00 44.07 LIG 0.04  C 
BRANCH 29 30
ATOM     30  CG  ARG C 130      18.088   2.505  13.592  1.00 48.13 LIG 0.02  C 
BRANCH 30 31
ATOM     31  CD  ARG C 130      17.996   1.661  12.331  1.00 53.98 LIG 0.14  C 
BRANCH 31 32
ATOM     32  NE  ARG C 130      17.033   0.588  12.500  1.00 57.03 LIG-0.23  N 
ATOM     33  CZ  ARG C 130      15.841   0.534  11.920  1.00 53.36 LIG 0.67  C 
ATOM     34  NH1 ARG C 130      15.418   1.505  11.121  1.00 46.68 LIG-0.23  N 
ATOM     35  NH2 ARG C 130      15.059  -0.510  12.154  1.00 54.86 LIG-0.23  N 
ATOM     36 1HH1 ARG C 130      15.920   2.187  10.971  1.00 46.68 LIG 0.17  HD
ATOM     37 2HH1 ARG C 130      14.642   1.452  10.754  1.00 46.68 LIG 0.17  HD
ATOM     38 1HH2 ARG C 130      15.326  -1.140  12.675  1.00 54.86 LIG 0.17  HD
ATOM     39 2HH2 ARG C 130      14.284  -0.557  11.784  1.00 54.86 LIG 0.17  HD
ATOM     40 HE   ARG C 130      17.253  -0.063  13.016  1.00 57.03 LIG 0.18  HD
ENDBRANCH 31 32
ENDBRANCH 30 31
ENDBRANCH 29 30
ENDBRANCH 1 29
BRANCH 1 41
ATOM     41  C   ARG C 130      19.421   5.037  13.356  1.00 43.16 LIG 0.24  C 
ATOM     42  N   LYS C 131      19.257   5.695  12.205  1.00 46.51 LIG-0.35  N 
ATOM     43 H    LYS C 131      19.631   5.452  11.470  1.00 46.51 LIG 0.16  HD
ATOM     44 O    ARG C 130      18.912   5.370  14.423  1.00 41.50 LIG-0.27  OA
BRANCH 42 45
ATOM     45  CA  LYS C 131      18.427   6.895  12.070  1.00 53.22 LIG 0.18  C 
BRANCH 45 46
ATOM     46  CB  LYS C 131      18.846   7.706  10.835  1.00 55.01 LIG 0.04  C 
BRANCH 46 47
ATOM     47  CG  LYS C 131      20.341   7.805  10.602  1.00 52.38 LIG 0.00  C 
BRANCH 47 48
ATOM     48  CD  LYS C 131      20.706   7.457   9.175  1.00 48.84 LIG 0.03  C 
BRANCH 48 49
ATOM     49  CE  LYS C 131      22.071   6.829   9.098  1.00 46.73 LIG 0.23  C 
BRANCH 49 50
ATOM     50  NZ  LYS C 131      22.168   6.043   7.850  1.00 43.41 LIG-0.08  N 
ATOM     51 HZ1  LYS C 131      22.746   6.433   7.298  1.00 43.41 LIG 0.27  HD
ATOM     52 HZ3  LYS C 131      21.368   6.003   7.461  1.00 43.41 LIG 0.27  HD
ATOM     53 HZ2  LYS C 131      22.447   5.219   8.039  1.00 43.41 LIG 0.27  HD
ENDBRANCH 49 50
ENDBRANCH 48 49
ENDBRANCH 47 48
ENDBRANCH 46 47
ENDBRANCH 45 46
BRANCH 45 54
ATOM     54  C   LYS C 131      16.962   6.529  11.911  1.00 59.91 LIG 0.24  C 
ATOM     55  N   VAL C 132      16.722   5.231  11.737  1.00 72.80 LIG-0.35  N 
ATOM     56 H    VAL C 132      17.350   4.666  11.576  1.00 72.80 LIG 0.16  HD
ATOM     57 O    LYS C 131      16.099   7.398  11.935  1.00 55.62 LIG-0.27  OA
BRANCH 55 58
ATOM     58  CA  VAL C 132      15.396   4.606  11.796  1.00 46.38 LIG 0.17  C 
BRANCH 58 59
ATOM     59  C   VAL C 132      14.431   5.210  10.776  1.00 55.18 LIG 0.22  C 
ATOM     60 O    VAL C 132      14.856   5.977   9.900  1.00 55.70 LIG-0.29  OA
ENDBRANCH 58 59
BRANCH 58 61
ATOM     61  CB  VAL C 132      14.805   4.574  13.235  1.00 53.16 LIG 0.01  C 
ATOM     62  CG2 VAL C 132      15.935   4.654  14.234  1.00 49.68 LIG 0.01  C 
ATOM     63  CG1 VAL C 132      13.934   3.350  13.475  1.00 55.70 LIG 0.01  C 
ENDBRANCH 58 61
ENDBRANCH 55 58
ENDBRANCH 45 54
ENDBRANCH 42 45
ENDBRANCH 1 41
TORSDOF 29
ENDMDL
MODEL 25
USER: ADFR SOLUTION from run 89
USER: SCORE 21.043138 LL:  -2.299 LR: -20.571 RR:   0.000 FEB: -11.920
USER: RMSD 7.593023
USER: SEED 88
USER: STATUS no improvement in best in 3 clusters for 5 generations
USER: GENES 31
USER: genes 0 Translation |==|  0.54773 0.54819 0.49640
USER: genes 1 Rotation |==|  0.04239 0.42883 0.45866 0.68389
USER: genes 2 Torsion [CB]-CA--N-[C] |==|  0.16111
USER: genes 3 Torsion [N]-C--CA-[N] |==|  0.49402
USER: genes 4 Torsion [C]-CA--CB-[CG] |==|  0.71714
USER: genes 5 Torsion [CA]-CB--CG-[CD] |==|  0.72367
USER: genes 6 Torsion [CB]-CG--CD-[CE] |==|  0.58786
USER: genes 7 Torsion [CG]-CD--CE-[NZ] |==|  0.43939
USER: genes 8 Torsion [CD]-CE--NZ-[HZ3] |==|  0.85604
USER: genes 9 Torsion [C]-CA--N-[C] |==|  0.71292
USER: genes 10 Torsion [N]-C--CA-[N] |==|  0.49629
USER: genes 11 Torsion [C]-CA--CB-[CG] |==|  0.80772
USER: genes 12 Torsion [CA]-CB--CG-[CD] |==|  0.33429
USER: genes 13 Torsion [CB]-CG--CD-[CE] |==|  0.31100
USER: genes 14 Torsion [CG]-CD--CE-[NZ] |==|  0.71477
USER: genes 15 Torsion [CD]-CE--NZ-[HZ3] |==|  0.18452
USER: genes 16 Torsion [N]-CA--CB-[CG] |==|  0.60348
USER: genes 17 Torsion [CA]-CB--CG-[CD] |==|  0.32220
USER: genes 18 Torsion [CB]-CG--CD-[NE] |==|  0.63637
USER: genes 19 Torsion [CG]-CD--NE-[HE] |==|  0.23862
USER: genes 20 Torsion [N]-CA--C-[N] |==|  0.90544
USER: genes 21 Torsion [C]-N--CA-[C] |==|  0.19625
USER: genes 22 Torsion [N]-CA--CB-[CG] |==|  0.52858
USER: genes 23 Torsion [CA]-CB--CG-[CD] |==|  0.68111
USER: genes 24 Torsion [CB]-CG--CD-[CE] |==|  0.25322
USER: genes 25 Torsion [CG]-CD--CE-[NZ] |==|  0.57825
USER: genes 26 Torsion [CD]-CE--NZ-[HZ1] |==|  0.67337
USER: genes 27 Torsion [N]-CA--C-[N] |==|  0.81698
USER: genes 28 Torsion [C]-N--CA-[C] |==|  0.89929
USER: genes 29 Torsion [N]-CA--C-[O] |==|  0.27128
USER: genes 30 Torsion [N]-CA--CB-[CG2] |==|  0.14183
ROOT
ATOM      1  CA  ARG C 130      23.457   4.484  13.968  1.00 44.25 LIG 0.18  C 
ENDROOT
BRANCH 1 2
ATOM      2  N   ARG C 130      22.014   4.511  14.128  1.00 44.77 LIG-0.35  N 
ATOM      3  C   LYS C 129      21.205   4.920  13.160  1.00 47.82 LIG 0.24  C 
ATOM      4 O    LYS C 129      21.602   5.231  12.035  1.00 51.43 LIG-0.27  OA
ATOM      5 H    ARG C 130      21.740   4.241  14.897  1.00 44.77 LIG 0.16  HD
BRANCH 3 6
ATOM      6  CA  LYS C 129      19.726   4.999  13.522  1.00 47.52 LIG 0.18  C 
BRANCH 6 7
ATOM      7  CB  LYS C 129      19.218   3.631  13.951  1.00 47.19 LIG 0.04  C 
BRANCH 7 8
ATOM      8  CG  LYS C 129      18.431   2.916  12.886  1.00 46.82 LIG 0.00  C 
BRANCH 8 9
ATOM      9  CD  LYS C 129      16.940   3.041  13.090  1.00 42.25 LIG 0.03  C 
BRANCH 9 10
ATOM     10  CE  LYS C 129      16.245   1.795  12.577  1.00 38.25 LIG 0.23  C 
BRANCH 10 11
ATOM     11  NZ  LYS C 129      14.887   1.563  13.163  1.00 36.45 LIG-0.08  N 
ATOM     12 HZ3  LYS C 129      14.937   1.596  14.052  1.00 36.45 LIG 0.27  HD
ATOM     13 HZ2  LYS C 129      14.588   0.762  12.913  1.00 36.45 LIG 0.27  HD
ATOM     14 HZ1  LYS C 129      14.327   2.191  12.875  1.00 36.45 LIG 0.27  HD
ENDBRANCH 10 11
ENDBRANCH 9 10
ENDBRANCH 8 9
ENDBRANCH 7 8
ENDBRANCH 6 7
BRANCH 6 15
ATOM     15  N   LYS C 129      18.973   5.510  12.381  1.00 50.72 LIG-0.35  N 
ATOM     16 H    LYS C 129      18.841   4.936  11.754  1.00 50.72 LIG 0.16  HD
ATOM     17  C   LYS C 128      18.538   6.771  12.347  1.00 53.52 LIG 0.26  C 
ATOM     18 O    LYS C 128      18.622   7.553  13.312  1.00 51.22 LIG-0.27  OA
BRANCH 17 19
ATOM     19  CA  LYS C 128      17.879   7.224  11.039  1.00 56.35 LIG 0.40  C 
ATOM     20  N   LYS C 128      17.404   8.606  11.097  1.00 59.98 LIG 0.61  N 
BRANCH 19 21
ATOM     21  CB  LYS C 128      18.873   7.054   9.902  1.00 54.38 LIG 0.05  C 
BRANCH 21 22
ATOM     22  CG  LYS C 128      20.019   8.019   9.981  1.00 63.27 LIG 0.00  C 
BRANCH 22 23
ATOM     23  CD  LYS C 128      21.346   7.314  10.085  1.00 66.98 LIG 0.03  C 
BRANCH 23 24
ATOM     24  CE  LYS C 128      22.204   7.497   8.837  1.00 66.03 LIG 0.23  C 
BRANCH 24 25
ATOM     25  NZ  LYS C 128      22.165   6.266   7.992  1.00 67.41 LIG-0.08  N 
ATOM     26 HZ3  LYS C 128      21.344   6.155   7.668  1.00 67.41 LIG 0.27  HD
ATOM     27 HZ2  LYS C 128      22.388   5.560   8.485  1.00 67.41 LIG 0.27  HD
ATOM     28 HZ1  LYS C 128      22.740   6.350   7.317  1.00 67.41 LIG 0.27  HD
ENDBRANCH 24 25
ENDBRANCH 23 24
ENDBRANCH 22 23
ENDBRANCH 21 22
ENDBRANCH 19 21
ENDBRANCH 17 19
ENDBRANCH 6 15
ENDBRANCH 3 6
ENDBRANCH 1 2
BRANCH 1 29
ATOM     29  CB  ARG C 130      23.953   5.885  13.628  1.00 44.07 LIG 0.04  C 
BRANCH 29 30
ATOM     30  CG  ARG C 130      25.096   5.913  12.631  1.00 48.13 LIG 0.02  C 
BRANCH 30 31
ATOM     31  CD  ARG C 130      24.660   6.612  11.353  1.00 53.98 LIG 0.14  C 
BRANCH 31 32
ATOM     32  NE  ARG C 130      25.006   5.818  10.189  1.00 57.03 LIG-0.23  N 
ATOM     33  CZ  ARG C 130      26.117   5.953   9.475  1.00 53.36 LIG 0.67  C 
ATOM     34  NH1 ARG C 130      27.023   6.873   9.778  1.00 46.68 LIG-0.23  N 
ATOM     35  NH2 ARG C 130      26.314   5.155   8.436  1.00 54.86 LIG-0.23  N 
ATOM     36 1HH1 ARG C 130      26.896   7.396  10.448  1.00 46.68 LIG 0.17  HD
ATOM     37 2HH1 ARG C 130      27.736   6.945   9.304  1.00 46.68 LIG 0.17  HD
ATOM     38 1HH2 ARG C 130      25.727   4.561   8.232  1.00 54.86 LIG 0.17  HD
ATOM     39 2HH2 ARG C 130      27.030   5.232   7.965  1.00 54.86 LIG 0.17  HD
ATOM     40 HE   ARG C 130      24.448   5.212   9.942  1.00 57.03 LIG 0.18  HD
ENDBRANCH 31 32
ENDBRANCH 30 31
ENDBRANCH 29 30
ENDBRANCH 1 29
BRANCH 1 41
ATOM     41  C   ARG C 130      24.114   4.038  15.252  1.00 43.16 LIG 0.24  C 
ATOM     42  N   LYS C 131      23.512   4.415  16.383  1.00 46.51 LIG-0.35  N 
ATOM     43 H    LYS C 131      22.806   4.907  16.396  1.00 46.51 LIG 0.16  HD
ATOM     44 O    ARG C 130      25.130   3.350  15.204  1.00 41.50 LIG-0.27  OA
BRANCH 42 45
ATOM     45  CA  LYS C 131      23.983   4.034  17.716  1.00 53.22 LIG 0.18  C 
BRANCH 45 46
ATOM     46  CB  LYS C 131      24.248   2.523  17.787  1.00 55.01 LIG 0.04  C 
BRANCH 46 47
ATOM     47  CG  LYS C 131      24.505   1.975  19.177  1.00 52.38 LIG 0.00  C 
BRANCH 47 48
ATOM     48  CD  LYS C 131      25.916   1.445  19.314  1.00 48.84 LIG 0.03  C 
BRANCH 48 49
ATOM     49  CE  LYS C 131      26.855   2.512  19.809  1.00 46.73 LIG 0.23  C 
BRANCH 49 50
ATOM     50  NZ  LYS C 131      28.214   2.225  19.306  1.00 43.41 LIG-0.08  N 
ATOM     51 HZ1  LYS C 131      28.761   2.079  19.993  1.00 43.41 LIG 0.27  HD
ATOM     52 HZ3  LYS C 131      28.510   2.920  18.835  1.00 43.41 LIG 0.27  HD
ATOM     53 HZ2  LYS C 131      28.193   1.502  18.786  1.00 43.41 LIG 0.27  HD
ENDBRANCH 49 50
ENDBRANCH 48 49
ENDBRANCH 47 48
ENDBRANCH 46 47
ENDBRANCH 45 46
BRANCH 45 54
ATOM     54  C   LYS C 131      25.278   4.749  18.061  1.00 59.91 LIG 0.24  C 
ATOM     55  N   VAL C 132      26.325   4.411  17.311  1.00 72.80 LIG-0.35  N 
ATOM     56 H    VAL C 132      26.308   3.735  16.778  1.00 72.80 LIG 0.16  HD
ATOM     57 O    LYS C 131      25.314   5.562  18.977  1.00 55.62 LIG-0.27  OA
BRANCH 55 58
ATOM     58  CA  VAL C 132      27.608   5.120  17.289  1.00 46.38 LIG 0.17  C 
BRANCH 58 59
ATOM     59  C   VAL C 132      27.431   6.632  17.438  1.00 55.18 LIG 0.22  C 
ATOM     60 O    VAL C 132      27.572   7.165  18.548  1.00 55.70 LIG-0.29  OA
ENDBRANCH 58 59
BRANCH 58 61
ATOM     61  CB  VAL C 132      28.491   4.738  16.066  1.00 53.16 LIG 0.01  C 
ATOM     62  CG2 VAL C 132      27.670   4.872  14.805  1.00 49.68 LIG 0.01  C 
ATOM     63  CG1 VAL C 132      29.089   3.345  16.198  1.00 55.70 LIG 0.01  C 
ENDBRANCH 58 61
ENDBRANCH 55 58
ENDBRANCH 45 54
ENDBRANCH 42 45
ENDBRANCH 1 41
TORSDOF 29
ENDMDL
