MODEL 1
USER: ADFR SOLUTION from run 35
USER: SCORE 22.464039 LL:  -3.414 LR: -21.669 RR:   0.000 FEB: -12.720
USER: RMSD 7.015960
USER: SEED 34
USER: STATUS no improvement in best in 2 clusters for 5 generations
USER: GENES 32
USER: genes 0 Translation |==|  0.54411 0.53787 0.34776
USER: genes 1 Rotation |==|  0.46989 0.98720 0.43564 0.58708
USER: genes 2 Torsion [N]-CA--C-[N] |==|  0.14878
USER: genes 3 Torsion [C]-N--CA-[CB] |==|  0.16843
USER: genes 4 Torsion [N]-CA--CB-[CG] |==|  0.34436
USER: genes 5 Torsion [CA]-CB--CG-[CD] |==|  0.42544
USER: genes 6 Torsion [CB]-CG--CD-[CE] |==|  0.69371
USER: genes 7 Torsion [CG]-CD--CE-[NZ] |==|  0.58495
USER: genes 8 Torsion [CD]-CE--NZ-[HZ1] |==|  0.03926
USER: genes 9 Torsion [N]-CA--C-[N] |==|  0.40838
USER: genes 10 Torsion [C]-N--CA-[C] |==|  0.52765
USER: genes 11 Torsion [N]-CA--CB-[CG] |==|  0.52913
USER: genes 12 Torsion [CA]-CB--CG-[CD2] |==|  0.04716
USER: genes 13 Torsion [CE2]-CZ--OH-[HH] |==|  0.58236
USER: genes 14 Torsion [N]-CA--C-[O] |==|  0.57354
USER: genes 15 Torsion [C]-CA--CB-[CG] |==|  0.36049
USER: genes 16 Torsion [CA]-CB--CG-[CD] |==|  0.77346
USER: genes 17 Torsion [CB]-CG--CD-[NE] |==|  0.50387
USER: genes 18 Torsion [CG]-CD--NE-[HE] |==|  0.86809
USER: genes 19 Torsion [C]-CA--N-[C] |==|  0.77724
USER: genes 20 Torsion [N]-C--CA-[N] |==|  0.59673
USER: genes 21 Torsion [C]-CA--N-[C] |==|  0.67612
USER: genes 22 Torsion [N]-C--CA-[N] |==|  0.30059
USER: genes 23 Torsion [C]-CA--N-[C] |==|  0.79580
USER: genes 24 Torsion [N]-C--CA-[N] |==|  0.52806
USER: genes 25 Torsion [C]-CA--CB-[CG] |==|  0.82754
USER: genes 26 Torsion [CA]-CB--CG-[CD1] |==|  0.28537
USER: genes 27 Torsion [C]-CA--CB-[CG] |==|  0.55885
USER: genes 28 Torsion [CA]-CB--CG-[CD] |==|  0.80977
USER: genes 29 Torsion [CB]-CG--CD-[CE] |==|  0.63940
USER: genes 30 Torsion [CG]-CD--CE-[NZ] |==|  0.50837
USER: genes 31 Torsion [CD]-CE--NZ-[HZ2] |==|  0.63446
ROOT
ATOM      1  CA  ARG B   9       0.006   6.144   7.338  1.00 39.43 LIG 0.18  C 
ENDROOT
BRANCH 1 2
ATOM      2  C   ARG B   9       0.677   4.822   7.020  1.00 41.90 LIG 0.24  C 
ATOM      3  N   LYS B  10       1.385   4.272   8.007  1.00 39.13 LIG-0.35  N 
ATOM      4 H    LYS B  10       1.521   4.657   8.764  1.00 39.13 LIG 0.16  HD
ATOM      5 O    ARG B   9       0.553   4.305   5.902  1.00 39.79 LIG-0.27  OA
BRANCH 3 6
ATOM      6  CA  LYS B  10       1.999   2.951   7.893  1.00 38.99 LIG 0.18  C 
BRANCH 6 7
ATOM      7  CB  LYS B  10       3.027   2.897   6.739  1.00 41.38 LIG 0.04  C 
BRANCH 7 8
ATOM      8  CG  LYS B  10       4.449   2.456   7.122  1.00 61.81 LIG 0.00  C 
BRANCH 8 9
ATOM      9  CD  LYS B  10       5.208   1.802   5.949  1.00 75.86 LIG 0.03  C 
BRANCH 9 10
ATOM     10  CE  LYS B  10       5.443   0.310   6.108  1.00 87.18 LIG 0.23  C 
BRANCH 10 11
ATOM     11  NZ  LYS B  10       6.697  -0.128   5.440  1.00 91.96 LIG-0.08  N 
ATOM     12 HZ1  LYS B  10       7.193   0.584   5.240  1.00 91.96 LIG 0.27  HD
ATOM     13 HZ2  LYS B  10       7.154  -0.662   5.986  1.00 91.96 LIG 0.27  HD
ATOM     14 HZ3  LYS B  10       6.498  -0.568   4.692  1.00 91.96 LIG 0.27  HD
ENDBRANCH 10 11
ENDBRANCH 9 10
ENDBRANCH 8 9
ENDBRANCH 7 8
ENDBRANCH 6 7
BRANCH 6 15
ATOM     15  C   LYS B  10       2.617   2.600   9.267  1.00 41.93 LIG 0.24  C 
ATOM     16  N   TYR B  11       2.621   1.304   9.638  1.00 37.73 LIG-0.35  N 
ATOM     17 H    TYR B  11       2.288   0.686   9.141  1.00 37.73 LIG 0.16  HD
ATOM     18 O    LYS B  10       3.039   3.507   9.990  1.00 40.97 LIG-0.27  OA
BRANCH 16 19
ATOM     19  CA  TYR B  11       3.174   0.785  10.893  1.00 60.51 LIG 0.17  C 
BRANCH 19 20
ATOM     20  CB  TYR B  11       2.319   1.303  12.074  1.00 61.89 LIG 0.07  C 
BRANCH 20 21
ATOM     21  CG  TYR B  11       2.823   1.105  13.497  1.00 64.48 LIG-0.06  A 
ATOM     22  CD2 TYR B  11       4.156   0.800  13.745  1.00 66.36 LIG 0.01  A 
ATOM     23  CE2 TYR B  11       4.633   0.622  15.043  1.00 66.48 LIG 0.04  A 
ATOM     24  CZ  TYR B  11       3.764   0.710  16.113  1.00 73.62 LIG 0.07  A 
ATOM     25  CE1 TYR B  11       2.425   0.997  15.893  1.00 67.05 LIG 0.04  A 
ATOM     26  CD1 TYR B  11       1.958   1.173  14.587  1.00 65.84 LIG 0.01  A 
BRANCH 24 27
ATOM     27 OH   TYR B  11       4.253   0.522  17.384  1.00 74.96 LIG-0.36  OA
ATOM     28 HH   TYR B  11       3.648   0.202  17.872  1.00 74.96 LIG 0.22  HD
ENDBRANCH 24 27
ENDBRANCH 20 21
ENDBRANCH 19 20
BRANCH 19 29
ATOM     29  C   TYR B  11       3.219  -0.748  10.847  1.00 76.68 LIG 0.22  C 
ATOM     30 O    TYR B  11       3.172  -1.405  11.886  1.00 42.66 LIG-0.29  OA
ENDBRANCH 19 29
ENDBRANCH 16 19
ENDBRANCH 6 15
ENDBRANCH 3 6
ENDBRANCH 1 2
BRANCH 1 31
ATOM     31  CB  ARG B   9      -0.719   6.665   6.060  1.00 41.96 LIG 0.04  C 
BRANCH 31 32
ATOM     32  CG  ARG B   9      -2.190   7.098   6.200  1.00 54.96 LIG 0.02  C 
BRANCH 32 33
ATOM     33  CD  ARG B   9      -3.171   5.941   6.161  1.00 74.30 LIG 0.14  C 
BRANCH 33 34
ATOM     34  NE  ARG B   9      -4.561   6.397   6.265  1.00 92.04 LIG-0.23  N 
ATOM     35 HE   ARG B   9      -4.750   6.967   6.880  1.00 92.04 LIG 0.18  HD
ATOM     36  CZ  ARG B   9      -5.552   5.991   5.472  1.00114.26 LIG 0.67  C 
ATOM     37  NH2 ARG B   9      -6.783   6.456   5.646  1.00103.12 LIG-0.23  N 
ATOM     38  NH1 ARG B   9      -5.318   5.122   4.494  1.00104.54 LIG-0.23  N 
ATOM     39 1HH2 ARG B   9      -6.945   7.022   6.272  1.00103.12 LIG 0.17  HD
ATOM     40 2HH2 ARG B   9      -7.419   6.191   5.131  1.00103.12 LIG 0.17  HD
ATOM     41 1HH1 ARG B   9      -4.523   4.818   4.369  1.00104.54 LIG 0.17  HD
ATOM     42 2HH1 ARG B   9      -5.962   4.864   3.985  1.00104.54 LIG 0.17  HD
ENDBRANCH 33 34
ENDBRANCH 32 33
ENDBRANCH 31 32
ENDBRANCH 1 31
BRANCH 1 43
ATOM     43  N   ARG B   9       0.986   7.103   7.857  1.00 39.07 LIG-0.35  N 
ATOM     44 H    ARG B   9       1.262   7.667   7.268  1.00 39.07 LIG 0.16  HD
ATOM     45  C   LYS B   8       1.413   7.105   9.126  1.00 42.99 LIG 0.24  C 
ATOM     46 O    LYS B   8       0.997   6.314   9.981  1.00 42.25 LIG-0.27  OA
BRANCH 45 47
ATOM     47  CA  LYS B   8       2.437   8.169   9.498  1.00 40.35 LIG 0.18  C 
BRANCH 47 48
ATOM     48  N   LYS B   8       3.375   7.635  10.481  1.00 42.07 LIG-0.35  N 
ATOM     49 H    LYS B   8       3.837   6.980  10.170  1.00 42.07 LIG 0.16  HD
ATOM     50  C   GLY B   7       3.534   8.077  11.728  1.00 50.14 LIG 0.24  C 
ATOM     51 O    GLY B   7       2.860   8.985  12.226  1.00 49.17 LIG-0.27  OA
BRANCH 50 52
ATOM     52  CA  GLY B   7       4.602   7.372  12.529  1.00 52.80 LIG 0.23  C 
BRANCH 52 53
ATOM     53  N   GLY B   7       5.754   8.240  12.719  1.00 55.58 LIG-0.35  N 
ATOM     54  C   LEU B   6       6.643   8.559  11.782  1.00 62.88 LIG 0.26  C 
ATOM     55 O    LEU B   6       6.595   8.148  10.617  1.00 62.93 LIG-0.27  OA
ATOM     56 H    GLY B   7       5.812   8.541  13.523  1.00 55.58 LIG 0.16  HD
BRANCH 54 57
ATOM     57  CA  LEU B   6       7.749   9.527  12.261  1.00 62.75 LIG 0.40  C 
ATOM     58  N   LEU B   6       8.521   9.997  11.110  1.00 63.15 LIG 0.61  N 
BRANCH 57 59
ATOM     59  CB  LEU B   6       7.181  10.707  13.088  1.00 63.26 LIG 0.06  C 
BRANCH 59 60
ATOM     60  CG  LEU B   6       6.196  11.661  12.367  1.00 68.65 LIG-0.02  C 
ATOM     61  CD1 LEU B   6       4.757  11.375  12.776  1.00 69.18 LIG 0.01  C 
ATOM     62  CD2 LEU B   6       6.544  13.138  12.606  1.00 70.70 LIG 0.01  C 
ENDBRANCH 59 60
ENDBRANCH 57 59
ENDBRANCH 54 57
ENDBRANCH 52 53
ENDBRANCH 50 52
ENDBRANCH 47 48
BRANCH 47 63
ATOM     63  CB  LYS B   8       3.178   8.654   8.236  1.00 41.14 LIG 0.04  C 
BRANCH 63 64
ATOM     64  CG  LYS B   8       4.526   9.310   8.507  1.00 42.09 LIG 0.00  C 
BRANCH 64 65
ATOM     65  CD  LYS B   8       4.341  10.639   9.216  1.00 43.68 LIG 0.03  C 
BRANCH 65 66
ATOM     66  CE  LYS B   8       5.115  11.733   8.526  1.00 41.10 LIG 0.23  C 
BRANCH 66 67
ATOM     67  NZ  LYS B   8       5.018  13.039   9.231  1.00 37.84 LIG-0.08  N 
ATOM     68 HZ3  LYS B   8       4.382  12.995   9.851  1.00 37.84 LIG 0.27  HD
ATOM     69 HZ2  LYS B   8       4.817  13.678   8.646  1.00 37.84 LIG 0.27  HD
ATOM     70 HZ1  LYS B   8       5.797  13.226   9.618  1.00 37.84 LIG 0.27  HD
ENDBRANCH 66 67
ENDBRANCH 65 66
ENDBRANCH 64 65
ENDBRANCH 63 64
ENDBRANCH 47 63
ENDBRANCH 45 47
ENDBRANCH 1 43
TORSDOF 30
ENDMDL
MODEL 2
USER: ADFR SOLUTION from run 39
USER: SCORE 22.418777 LL:  -2.872 LR: -21.227 RR:   0.000 FEB: -12.278
USER: RMSD 8.502275
USER: SEED 38
USER: STATUS no improvement in best in 11 clusters for 5 generations
USER: GENES 32
USER: genes 0 Translation |==|  0.45586 0.71739 0.25178
USER: genes 1 Rotation |==|  0.60633 0.89411 0.21206 0.52162
USER: genes 2 Torsion [N]-CA--C-[N] |==|  0.88545
USER: genes 3 Torsion [C]-N--CA-[CB] |==|  0.25978
USER: genes 4 Torsion [N]-CA--CB-[CG] |==|  0.77543
USER: genes 5 Torsion [CA]-CB--CG-[CD] |==|  0.45851
USER: genes 6 Torsion [CB]-CG--CD-[CE] |==|  0.63079
USER: genes 7 Torsion [CG]-CD--CE-[NZ] |==|  0.57586
USER: genes 8 Torsion [CD]-CE--NZ-[HZ1] |==|  0.58018
USER: genes 9 Torsion [N]-CA--C-[N] |==|  0.34831
USER: genes 10 Torsion [C]-N--CA-[C] |==|  0.16884
USER: genes 11 Torsion [N]-CA--CB-[CG] |==|  0.66241
USER: genes 12 Torsion [CA]-CB--CG-[CD2] |==|  0.21563
USER: genes 13 Torsion [CE2]-CZ--OH-[HH] |==|  0.06983
USER: genes 14 Torsion [N]-CA--C-[O] |==|  0.19584
USER: genes 15 Torsion [C]-CA--CB-[CG] |==|  0.37763
USER: genes 16 Torsion [CA]-CB--CG-[CD] |==|  0.51965
USER: genes 17 Torsion [CB]-CG--CD-[NE] |==|  0.31196
USER: genes 18 Torsion [CG]-CD--NE-[HE] |==|  0.79650
USER: genes 19 Torsion [C]-CA--N-[C] |==|  0.75096
USER: genes 20 Torsion [N]-C--CA-[N] |==|  0.42929
USER: genes 21 Torsion [C]-CA--N-[C] |==|  0.78250
USER: genes 22 Torsion [N]-C--CA-[N] |==|  0.15000
USER: genes 23 Torsion [C]-CA--N-[C] |==|  0.16252
USER: genes 24 Torsion [N]-C--CA-[N] |==|  0.49772
USER: genes 25 Torsion [C]-CA--CB-[CG] |==|  0.44446
USER: genes 26 Torsion [CA]-CB--CG-[CD1] |==|  0.82948
USER: genes 27 Torsion [C]-CA--CB-[CG] |==|  0.57258
USER: genes 28 Torsion [CA]-CB--CG-[CD] |==|  0.26846
USER: genes 29 Torsion [CB]-CG--CD-[CE] |==|  0.58624
USER: genes 30 Torsion [CG]-CD--CE-[NZ] |==|  0.36594
USER: genes 31 Torsion [CD]-CE--NZ-[HZ2] |==|  0.20289
ROOT
ATOM      1  CA  ARG B   9      -1.913  10.991   4.963  1.00 39.43 LIG 0.18  C 
ENDROOT
BRANCH 1 2
ATOM      2  C   ARG B   9      -2.255   9.832   5.878  1.00 41.90 LIG 0.24  C 
ATOM      3  N   LYS B  10      -1.518   8.731   5.729  1.00 39.13 LIG-0.35  N 
ATOM      4 H    LYS B  10      -0.924   8.637   5.113  1.00 39.13 LIG 0.16  HD
ATOM      5 O    ARG B   9      -3.166   9.932   6.710  1.00 39.79 LIG-0.27  OA
BRANCH 3 6
ATOM      6  CA  LYS B  10      -1.652   7.570   6.606  1.00 38.99 LIG 0.18  C 
BRANCH 6 7
ATOM      7  CB  LYS B  10      -2.636   6.527   6.027  1.00 41.38 LIG 0.04  C 
BRANCH 7 8
ATOM      8  CG  LYS B  10      -4.129   6.810   6.250  1.00 61.81 LIG 0.00  C 
BRANCH 8 9
ATOM      9  CD  LYS B  10      -5.042   5.951   5.351  1.00 75.86 LIG 0.03  C 
BRANCH 9 10
ATOM     10  CE  LYS B  10      -6.142   6.727   4.649  1.00 87.18 LIG 0.23  C 
BRANCH 10 11
ATOM     11  NZ  LYS B  10      -7.324   5.872   4.356  1.00 91.96 LIG-0.08  N 
ATOM     12 HZ1  LYS B  10      -7.740   6.177   3.631  1.00 91.96 LIG 0.27  HD
ATOM     13 HZ2  LYS B  10      -7.057   5.035   4.214  1.00 91.96 LIG 0.27  HD
ATOM     14 HZ3  LYS B  10      -7.884   5.891   5.048  1.00 91.96 LIG 0.27  HD
ENDBRANCH 10 11
ENDBRANCH 9 10
ENDBRANCH 8 9
ENDBRANCH 7 8
ENDBRANCH 6 7
BRANCH 6 15
ATOM     15  C   LYS B  10      -0.235   6.995   6.843  1.00 41.93 LIG 0.24  C 
ATOM     16  N   TYR B  11       0.172   6.843   8.119  1.00 37.73 LIG-0.35  N 
ATOM     17 H    TYR B  11      -0.325   7.062   8.786  1.00 37.73 LIG 0.16  HD
ATOM     18 O    LYS B  10       0.484   6.739   5.873  1.00 40.97 LIG-0.27  OA
BRANCH 16 19
ATOM     19  CA  TYR B  11       1.471   6.304   8.534  1.00 60.51 LIG 0.17  C 
BRANCH 19 20
ATOM     20  CB  TYR B  11       1.592   4.842   8.041  1.00 61.89 LIG 0.07  C 
BRANCH 20 21
ATOM     21  CG  TYR B  11       1.823   3.734   9.059  1.00 64.48 LIG-0.06  A 
ATOM     22  CD2 TYR B  11       0.778   3.253   9.839  1.00 66.36 LIG 0.01  A 
ATOM     23  CE2 TYR B  11       0.973   2.234  10.770  1.00 66.48 LIG 0.04  A 
ATOM     24  CZ  TYR B  11       2.236   1.708  10.960  1.00 73.62 LIG 0.07  A 
ATOM     25  CE1 TYR B  11       3.301   2.182  10.207  1.00 67.05 LIG 0.04  A 
ATOM     26  CD1 TYR B  11       3.093   3.203   9.276  1.00 65.84 LIG 0.01  A 
BRANCH 24 27
ATOM     27 OH   TYR B  11       2.408   0.711  11.890  1.00 74.96 LIG-0.36  OA
ATOM     28 HH   TYR B  11       1.683   0.301  11.999  1.00 74.96 LIG 0.22  HD
ENDBRANCH 24 27
ENDBRANCH 20 21
ENDBRANCH 19 20
BRANCH 19 29
ATOM     29  C   TYR B  11       2.600   7.188   7.986  1.00 76.68 LIG 0.22  C 
ATOM     30 O    TYR B  11       2.785   8.315   8.442  1.00 42.66 LIG-0.29  OA
ENDBRANCH 19 29
ENDBRANCH 16 19
ENDBRANCH 6 15
ENDBRANCH 3 6
ENDBRANCH 1 2
BRANCH 1 31
ATOM     31  CB  ARG B   9      -2.616  10.777   3.587  1.00 41.96 LIG 0.04  C 
BRANCH 31 32
ATOM     32  CG  ARG B   9      -3.312  11.990   2.944  1.00 54.96 LIG 0.02  C 
BRANCH 32 33
ATOM     33  CD  ARG B   9      -4.108  11.645   1.698  1.00 74.30 LIG 0.14  C 
BRANCH 33 34
ATOM     34  NE  ARG B   9      -5.550  11.807   1.907  1.00 92.04 LIG-0.23  N 
ATOM     35 HE   ARG B   9      -5.952  11.221   2.392  1.00 92.04 LIG 0.18  HD
ATOM     36  CZ  ARG B   9      -6.282  12.797   1.399  1.00114.26 LIG 0.67  C 
ATOM     37  NH2 ARG B   9      -7.587  12.858   1.638  1.00103.12 LIG-0.23  N 
ATOM     38  NH1 ARG B   9      -5.715  13.739   0.653  1.00104.54 LIG-0.23  N 
ATOM     39 1HH2 ARG B   9      -7.963  12.256   2.124  1.00103.12 LIG 0.17  HD
ATOM     40 2HH2 ARG B   9      -8.055  13.499   1.308  1.00103.12 LIG 0.17  HD
ATOM     41 1HH1 ARG B   9      -4.869  13.712   0.496  1.00104.54 LIG 0.17  HD
ATOM     42 2HH1 ARG B   9      -6.193  14.376   0.328  1.00104.54 LIG 0.17  HD
ENDBRANCH 33 34
ENDBRANCH 32 33
ENDBRANCH 31 32
ENDBRANCH 1 31
BRANCH 1 43
ATOM     43  N   ARG B   9      -0.459  11.130   4.834  1.00 39.07 LIG-0.35  N 
ATOM     44 H    ARG B   9      -0.126  10.680   4.181  1.00 39.07 LIG 0.16  HD
ATOM     45  C   LYS B   8       0.282  11.885   5.654  1.00 42.99 LIG 0.24  C 
ATOM     46 O    LYS B   8      -0.197  12.556   6.576  1.00 42.25 LIG-0.27  OA
BRANCH 45 47
ATOM     47  CA  LYS B   8       1.780  11.916   5.381  1.00 40.35 LIG 0.18  C 
BRANCH 47 48
ATOM     48  N   LYS B   8       2.354  13.158   5.893  1.00 42.07 LIG-0.35  N 
ATOM     49 H    LYS B   8       2.760  13.046   6.642  1.00 42.07 LIG 0.16  HD
ATOM     50  C   GLY B   7       2.283  14.350   5.303  1.00 50.14 LIG 0.24  C 
ATOM     51 O    GLY B   7       1.672  14.560   4.249  1.00 49.17 LIG-0.27  OA
BRANCH 50 52
ATOM     52  CA  GLY B   7       2.996  15.468   6.025  1.00 52.80 LIG 0.23  C 
BRANCH 52 53
ATOM     53  N   GLY B   7       4.383  15.110   6.278  1.00 55.58 LIG-0.35  N 
ATOM     54  C   LEU B   6       5.279  14.789   5.350  1.00 62.88 LIG 0.26  C 
ATOM     55 O    LEU B   6       5.036  14.756   4.138  1.00 62.93 LIG-0.27  OA
ATOM     56 H    GLY B   7       4.580  15.126   7.116  1.00 55.58 LIG 0.16  HD
BRANCH 54 57
ATOM     57  CA  LEU B   6       6.688  14.482   5.907  1.00 62.75 LIG 0.40  C 
ATOM     58  N   LEU B   6       7.583  14.124   4.806  1.00 63.15 LIG 0.61  N 
BRANCH 57 59
ATOM     59  CB  LEU B   6       7.256  15.653   6.747  1.00 63.26 LIG 0.06  C 
BRANCH 59 60
ATOM     60  CG  LEU B   6       8.402  15.319   7.734  1.00 68.65 LIG-0.02  C 
ATOM     61  CD1 LEU B   6       7.947  14.313   8.784  1.00 69.18 LIG 0.01  C 
ATOM     62  CD2 LEU B   6       9.659  14.813   7.010  1.00 70.70 LIG 0.01  C 
ENDBRANCH 59 60
ENDBRANCH 57 59
ENDBRANCH 54 57
ENDBRANCH 52 53
ENDBRANCH 50 52
ENDBRANCH 47 48
BRANCH 47 63
ATOM     63  CB  LYS B   8       2.460  10.690   6.024  1.00 41.14 LIG 0.04  C 
BRANCH 63 64
ATOM     64  CG  LYS B   8       3.928  10.892   6.375  1.00 42.09 LIG 0.00  C 
BRANCH 64 65
ATOM     65  CD  LYS B   8       4.080  11.275   7.836  1.00 43.68 LIG 0.03  C 
BRANCH 65 66
ATOM     66  CE  LYS B   8       5.277  12.169   8.039  1.00 41.10 LIG 0.23  C 
BRANCH 66 67
ATOM     67  NZ  LYS B   8       4.964  13.372   8.856  1.00 37.84 LIG-0.08  N 
ATOM     68 HZ3  LYS B   8       5.633  13.956   8.793  1.00 37.84 LIG 0.27  HD
ATOM     69 HZ2  LYS B   8       4.859  13.134   9.707  1.00 37.84 LIG 0.27  HD
ATOM     70 HZ1  LYS B   8       4.214  13.747   8.558  1.00 37.84 LIG 0.27  HD
ENDBRANCH 66 67
ENDBRANCH 65 66
ENDBRANCH 64 65
ENDBRANCH 63 64
ENDBRANCH 47 63
ENDBRANCH 45 47
ENDBRANCH 1 43
TORSDOF 30
ENDMDL
MODEL 3
USER: ADFR SOLUTION from run 76
USER: SCORE 22.309043 LL:  -2.494 LR: -21.170 RR:   0.000 FEB: -12.221
USER: RMSD 5.951073
USER: SEED 75
USER: STATUS no improvement in best in 11 clusters for 5 generations
USER: GENES 32
USER: genes 0 Translation |==|  0.61519 0.51664 0.39234
USER: genes 1 Rotation |==|  0.48291 0.97053 0.35022 0.57669
USER: genes 2 Torsion [N]-CA--C-[N] |==|  0.38773
USER: genes 3 Torsion [C]-N--CA-[CB] |==|  0.86488
USER: genes 4 Torsion [N]-CA--CB-[CG] |==|  0.42646
USER: genes 5 Torsion [CA]-CB--CG-[CD] |==|  0.65667
USER: genes 6 Torsion [CB]-CG--CD-[CE] |==|  0.60532
USER: genes 7 Torsion [CG]-CD--CE-[NZ] |==|  0.51536
USER: genes 8 Torsion [CD]-CE--NZ-[HZ1] |==|  0.95422
USER: genes 9 Torsion [N]-CA--C-[N] |==|  0.33865
USER: genes 10 Torsion [C]-N--CA-[C] |==|  0.71124
USER: genes 11 Torsion [N]-CA--CB-[CG] |==|  0.51638
USER: genes 12 Torsion [CA]-CB--CG-[CD2] |==|  0.54578
USER: genes 13 Torsion [CE2]-CZ--OH-[HH] |==|  0.27636
USER: genes 14 Torsion [N]-CA--C-[O] |==|  0.87026
USER: genes 15 Torsion [C]-CA--CB-[CG] |==|  0.25948
USER: genes 16 Torsion [CA]-CB--CG-[CD] |==|  0.41790
USER: genes 17 Torsion [CB]-CG--CD-[NE] |==|  0.42138
USER: genes 18 Torsion [CG]-CD--NE-[HE] |==|  0.74402
USER: genes 19 Torsion [C]-CA--N-[C] |==|  0.68029
USER: genes 20 Torsion [N]-C--CA-[N] |==|  0.17368
USER: genes 21 Torsion [C]-CA--N-[C] |==|  0.77738
USER: genes 22 Torsion [N]-C--CA-[N] |==|  0.06660
USER: genes 23 Torsion [C]-CA--N-[C] |==|  0.37489
USER: genes 24 Torsion [N]-C--CA-[N] |==|  0.36781
USER: genes 25 Torsion [C]-CA--CB-[CG] |==|  0.30109
USER: genes 26 Torsion [CA]-CB--CG-[CD1] |==|  0.36494
USER: genes 27 Torsion [C]-CA--CB-[CG] |==|  0.57016
USER: genes 28 Torsion [CA]-CB--CG-[CD] |==|  0.60046
USER: genes 29 Torsion [CB]-CG--CD-[CE] |==|  0.46339
USER: genes 30 Torsion [CG]-CD--CE-[NZ] |==|  0.70731
USER: genes 31 Torsion [CD]-CE--NZ-[HZ2] |==|  0.33240
ROOT
ATOM      1  CA  ARG B   9       1.552   5.571   8.441  1.00 39.43 LIG 0.18  C 
ENDROOT
BRANCH 1 2
ATOM      2  C   ARG B   9       2.068   4.153   8.589  1.00 41.90 LIG 0.24  C 
ATOM      3  N   LYS B  10       1.275   3.307   9.247  1.00 39.13 LIG-0.35  N 
ATOM      4 H    LYS B  10       0.543   3.544   9.631  1.00 39.13 LIG 0.16  HD
ATOM      5 O    ARG B   9       3.162   3.827   8.110  1.00 39.79 LIG-0.27  OA
BRANCH 3 6
ATOM      6  CA  LYS B  10       1.581   1.884   9.379  1.00 38.99 LIG 0.18  C 
BRANCH 6 7
ATOM      7  CB  LYS B  10       1.954   1.251   8.018  1.00 41.38 LIG 0.04  C 
BRANCH 7 8
ATOM      8  CG  LYS B  10       2.868   0.017   8.076  1.00 61.81 LIG 0.00  C 
BRANCH 8 9
ATOM      9  CD  LYS B  10       4.158   0.190   7.247  1.00 75.86 LIG 0.03  C 
BRANCH 9 10
ATOM     10  CE  LYS B  10       4.610  -1.064   6.520  1.00 87.18 LIG 0.23  C 
BRANCH 10 11
ATOM     11  NZ  LYS B  10       5.924  -0.874   5.849  1.00 91.96 LIG-0.08  N 
ATOM     12 HZ1  LYS B  10       6.103  -0.004   5.787  1.00 91.96 LIG 0.27  HD
ATOM     13 HZ2  LYS B  10       6.561  -1.274   6.324  1.00 91.96 LIG 0.27  HD
ATOM     14 HZ3  LYS B  10       5.895  -1.228   5.033  1.00 91.96 LIG 0.27  HD
ENDBRANCH 10 11
ENDBRANCH 9 10
ENDBRANCH 8 9
ENDBRANCH 7 8
ENDBRANCH 6 7
BRANCH 6 15
ATOM     15  C   LYS B  10       2.700   1.740  10.437  1.00 41.93 LIG 0.24  C 
ATOM     16  N   TYR B  11       2.445   0.972  11.516  1.00 37.73 LIG-0.35  N 
ATOM     17 H    TYR B  11       1.689   0.578  11.628  1.00 37.73 LIG 0.16  HD
ATOM     18 O    LYS B  10       3.758   2.358  10.287  1.00 40.97 LIG-0.27  OA
BRANCH 16 19
ATOM     19  CA  TYR B  11       3.386   0.712  12.610  1.00 60.51 LIG 0.17  C 
BRANCH 19 20
ATOM     20  CB  TYR B  11       2.659   0.907  13.961  1.00 61.89 LIG 0.07  C 
BRANCH 20 21
ATOM     21  CG  TYR B  11       3.461   0.826  15.252  1.00 64.48 LIG-0.06  A 
ATOM     22  CD2 TYR B  11       2.826   0.654  16.477  1.00 66.36 LIG 0.01  A 
ATOM     23  CE2 TYR B  11       3.547   0.572  17.666  1.00 66.48 LIG 0.04  A 
ATOM     24  CZ  TYR B  11       4.922   0.701  17.648  1.00 73.62 LIG 0.07  A 
ATOM     25  CE1 TYR B  11       5.581   0.889  16.441  1.00 67.05 LIG 0.04  A 
ATOM     26  CD1 TYR B  11       4.847   0.970  15.254  1.00 65.84 LIG 0.01  A 
BRANCH 24 27
ATOM     27 OH   TYR B  11       5.614   0.626  18.833  1.00 74.96 LIG-0.36  OA
ATOM     28 HH   TYR B  11       5.938  -0.144  18.920  1.00 74.96 LIG 0.22  HD
ENDBRANCH 24 27
ENDBRANCH 20 21
ENDBRANCH 19 20
BRANCH 19 29
ATOM     29  C   TYR B  11       3.966  -0.703  12.470  1.00 76.68 LIG 0.22  C 
ATOM     30 O    TYR B  11       3.227  -1.660  12.244  1.00 42.66 LIG-0.29  OA
ENDBRANCH 19 29
ENDBRANCH 16 19
ENDBRANCH 6 15
ENDBRANCH 3 6
ENDBRANCH 1 2
BRANCH 1 31
ATOM     31  CB  ARG B   9       0.862   5.718   7.051  1.00 41.96 LIG 0.04  C 
BRANCH 31 32
ATOM     32  CG  ARG B   9      -0.659   5.489   6.980  1.00 54.96 LIG 0.02  C 
BRANCH 32 33
ATOM     33  CD  ARG B   9      -1.344   6.288   5.887  1.00 74.30 LIG 0.14  C 
BRANCH 33 34
ATOM     34  NE  ARG B   9      -2.554   5.619   5.396  1.00 92.04 LIG-0.23  N 
ATOM     35 HE   ARG B   9      -2.474   5.095   4.719  1.00 92.04 LIG 0.18  HD
ATOM     36  CZ  ARG B   9      -3.768   5.766   5.925  1.00114.26 LIG 0.67  C 
ATOM     37  NH2 ARG B   9      -4.807   5.123   5.407  1.00103.12 LIG-0.23  N 
ATOM     38  NH1 ARG B   9      -3.951   6.552   6.981  1.00104.54 LIG-0.23  N 
ATOM     39 1HH2 ARG B   9      -4.699   4.608   4.727  1.00103.12 LIG 0.17  HD
ATOM     40 2HH2 ARG B   9      -5.589   5.221   5.752  1.00103.12 LIG 0.17  HD
ATOM     41 1HH1 ARG B   9      -3.283   6.970   7.327  1.00104.54 LIG 0.17  HD
ATOM     42 2HH1 ARG B   9      -4.737   6.643   7.318  1.00104.54 LIG 0.17  HD
ENDBRANCH 33 34
ENDBRANCH 32 33
ENDBRANCH 31 32
ENDBRANCH 1 31
BRANCH 1 43
ATOM     43  N   ARG B   9       2.642   6.533   8.632  1.00 39.07 LIG-0.35  N 
ATOM     44 H    ARG B   9       3.253   6.486   8.028  1.00 39.07 LIG 0.16  HD
ATOM     45  C   LYS B   8       2.685   7.404   9.647  1.00 42.99 LIG 0.24  C 
ATOM     46 O    LYS B   8       1.794   7.494  10.501  1.00 42.25 LIG-0.27  OA
BRANCH 45 47
ATOM     47  CA  LYS B   8       3.891   8.332   9.697  1.00 40.35 LIG 0.18  C 
BRANCH 47 48
ATOM     48  N   LYS B   8       3.912   9.184   8.512  1.00 42.07 LIG-0.35  N 
ATOM     49 H    LYS B   8       3.603   9.971   8.669  1.00 42.07 LIG 0.16  HD
ATOM     50  C   GLY B   7       4.351   8.830   7.305  1.00 50.14 LIG 0.24  C 
ATOM     51 O    GLY B   7       4.762   7.698   7.028  1.00 49.17 LIG-0.27  OA
BRANCH 50 52
ATOM     52  CA  GLY B   7       4.299   9.916   6.257  1.00 52.80 LIG 0.23  C 
BRANCH 52 53
ATOM     53  N   GLY B   7       4.320  11.230   6.882  1.00 55.58 LIG-0.35  N 
ATOM     54  C   LEU B   6       5.065  12.260   6.489  1.00 62.88 LIG 0.26  C 
ATOM     55 O    LEU B   6       5.842  12.222   5.528  1.00 62.93 LIG-0.27  OA
ATOM     56 H    GLY B   7       3.787  11.284   7.555  1.00 55.58 LIG 0.16  HD
BRANCH 54 57
ATOM     57  CA  LEU B   6       4.861  13.545   7.322  1.00 62.75 LIG 0.40  C 
ATOM     58  N   LEU B   6       6.163  14.101   7.694  1.00 63.15 LIG 0.61  N 
BRANCH 57 59
ATOM     59  CB  LEU B   6       3.983  14.589   6.588  1.00 63.26 LIG 0.06  C 
BRANCH 59 60
ATOM     60  CG  LEU B   6       2.551  14.813   7.134  1.00 68.65 LIG-0.02  C 
ATOM     61  CD1 LEU B   6       2.256  16.298   7.307  1.00 69.18 LIG 0.01  C 
ATOM     62  CD2 LEU B   6       1.486  14.149   6.251  1.00 70.70 LIG 0.01  C 
ENDBRANCH 59 60
ENDBRANCH 57 59
ENDBRANCH 54 57
ENDBRANCH 52 53
ENDBRANCH 50 52
ENDBRANCH 47 48
BRANCH 47 63
ATOM     63  CB  LYS B   8       3.853   9.180  10.984  1.00 41.14 LIG 0.04  C 
BRANCH 63 64
ATOM     64  CG  LYS B   8       4.596  10.506  10.891  1.00 42.09 LIG 0.00  C 
BRANCH 64 65
ATOM     65  CD  LYS B   8       5.271  10.835  12.211  1.00 43.68 LIG 0.03  C 
BRANCH 65 66
ATOM     66  CE  LYS B   8       6.260  11.960  12.046  1.00 41.10 LIG 0.23  C 
BRANCH 66 67
ATOM     67  NZ  LYS B   8       7.672  11.492  12.069  1.00 37.84 LIG-0.08  N 
ATOM     68 HZ3  LYS B   8       8.105  11.887  12.739  1.00 37.84 LIG 0.27  HD
ATOM     69 HZ2  LYS B   8       8.066  11.699  11.299  1.00 37.84 LIG 0.27  HD
ATOM     70 HZ1  LYS B   8       7.690  10.609  12.183  1.00 37.84 LIG 0.27  HD
ENDBRANCH 66 67
ENDBRANCH 65 66
ENDBRANCH 64 65
ENDBRANCH 63 64
ENDBRANCH 47 63
ENDBRANCH 45 47
ENDBRANCH 1 43
TORSDOF 30
ENDMDL
MODEL 4
USER: ADFR SOLUTION from run 151
USER: SCORE 22.872136 LL:  -3.682 LR: -21.007 RR:   0.000 FEB: -12.058
USER: RMSD 7.420615
USER: SEED 150
USER: STATUS no improvement in best in 4 clusters for 5 generations
USER: GENES 32
USER: genes 0 Translation |==|  0.55096 0.56123 0.34870
USER: genes 1 Rotation |==|  0.50945 0.99776 0.49574 0.54617
USER: genes 2 Torsion [N]-CA--C-[N] |==|  0.03439
USER: genes 3 Torsion [C]-N--CA-[CB] |==|  0.45973
USER: genes 4 Torsion [N]-CA--CB-[CG] |==|  0.54790
USER: genes 5 Torsion [CA]-CB--CG-[CD] |==|  0.69186
USER: genes 6 Torsion [CB]-CG--CD-[CE] |==|  0.58867
USER: genes 7 Torsion [CG]-CD--CE-[NZ] |==|  0.60633
USER: genes 8 Torsion [CD]-CE--NZ-[HZ1] |==|  0.00918
USER: genes 9 Torsion [N]-CA--C-[N] |==|  0.87854
USER: genes 10 Torsion [C]-N--CA-[C] |==|  0.58658
USER: genes 11 Torsion [N]-CA--CB-[CG] |==|  0.73379
USER: genes 12 Torsion [CA]-CB--CG-[CD2] |==|  0.43437
USER: genes 13 Torsion [CE2]-CZ--OH-[HH] |==|  0.93372
USER: genes 14 Torsion [N]-CA--C-[O] |==|  0.09329
USER: genes 15 Torsion [C]-CA--CB-[CG] |==|  0.29713
USER: genes 16 Torsion [CA]-CB--CG-[CD] |==|  0.79914
USER: genes 17 Torsion [CB]-CG--CD-[NE] |==|  0.52131
USER: genes 18 Torsion [CG]-CD--NE-[HE] |==|  0.93085
USER: genes 19 Torsion [C]-CA--N-[C] |==|  0.75179
USER: genes 20 Torsion [N]-C--CA-[N] |==|  0.05470
USER: genes 21 Torsion [C]-CA--N-[C] |==|  0.67503
USER: genes 22 Torsion [N]-C--CA-[N] |==|  0.32948
USER: genes 23 Torsion [C]-CA--N-[C] |==|  0.80389
USER: genes 24 Torsion [N]-C--CA-[N] |==|  0.76193
USER: genes 25 Torsion [C]-CA--CB-[CG] |==|  0.39124
USER: genes 26 Torsion [CA]-CB--CG-[CD1] |==|  0.17945
USER: genes 27 Torsion [C]-CA--CB-[CG] |==|  0.48398
USER: genes 28 Torsion [CA]-CB--CG-[CD] |==|  0.31780
USER: genes 29 Torsion [CB]-CG--CD-[CE] |==|  0.52216
USER: genes 30 Torsion [CG]-CD--CE-[NZ] |==|  0.42752
USER: genes 31 Torsion [CD]-CE--NZ-[HZ2] |==|  0.88572
ROOT
ATOM      1  CA  ARG B   9       0.155   6.775   7.361  1.00 39.43 LIG 0.18  C 
ENDROOT
BRANCH 1 2
ATOM      2  C   ARG B   9       0.562   5.517   6.619  1.00 41.90 LIG 0.24  C 
ATOM      3  N   LYS B  10       1.815   5.104   6.808  1.00 39.13 LIG-0.35  N 
ATOM      4 H    LYS B  10       2.395   5.545   7.265  1.00 39.13 LIG 0.16  HD
ATOM      5 O    ARG B   9      -0.247   4.926   5.891  1.00 39.79 LIG-0.27  OA
BRANCH 3 6
ATOM      6  CA  LYS B  10       2.324   3.853   6.250  1.00 38.99 LIG 0.18  C 
BRANCH 6 7
ATOM      7  CB  LYS B  10       3.867   3.787   6.308  1.00 41.38 LIG 0.04  C 
BRANCH 7 8
ATOM      8  CG  LYS B  10       4.533   2.740   5.402  1.00 61.81 LIG 0.00  C 
BRANCH 8 9
ATOM      9  CD  LYS B  10       5.174   1.583   6.196  1.00 75.86 LIG 0.03  C 
BRANCH 9 10
ATOM     10  CE  LYS B  10       6.410   0.986   5.547  1.00 87.18 LIG 0.23  C 
BRANCH 10 11
ATOM     11  NZ  LYS B  10       6.465  -0.491   5.714  1.00 91.96 LIG-0.08  N 
ATOM     12 HZ1  LYS B  10       5.729  -0.771   6.129  1.00 91.96 LIG 0.27  HD
ATOM     13 HZ2  LYS B  10       6.519  -0.878   4.914  1.00 91.96 LIG 0.27  HD
ATOM     14 HZ3  LYS B  10       7.179  -0.709   6.198  1.00 91.96 LIG 0.27  HD
ENDBRANCH 10 11
ENDBRANCH 9 10
ENDBRANCH 8 9
ENDBRANCH 7 8
ENDBRANCH 6 7
BRANCH 6 15
ATOM     15  C   LYS B  10       1.643   2.690   7.009  1.00 41.93 LIG 0.24  C 
ATOM     16  N   TYR B  11       1.544   2.791   8.350  1.00 37.73 LIG-0.35  N 
ATOM     17 H    TYR B  11       1.852   3.469   8.780  1.00 37.73 LIG 0.16  HD
ATOM     18 O    LYS B  10       1.257   1.700   6.379  1.00 40.97 LIG-0.27  OA
BRANCH 16 19
ATOM     19  CA  TYR B  11       0.921   1.797   9.229  1.00 60.51 LIG 0.17  C 
BRANCH 19 20
ATOM     20  CB  TYR B  11       1.982   0.750   9.642  1.00 61.89 LIG 0.07  C 
BRANCH 20 21
ATOM     21  CG  TYR B  11       2.083  -0.551   8.859  1.00 64.48 LIG-0.06  A 
ATOM     22  CD2 TYR B  11       3.263  -1.285   8.843  1.00 66.36 LIG 0.01  A 
ATOM     23  CE2 TYR B  11       3.368  -2.481   8.135  1.00 66.48 LIG 0.04  A 
ATOM     24  CZ  TYR B  11       2.294  -2.941   7.398  1.00 73.62 LIG 0.07  A 
ATOM     25  CE1 TYR B  11       1.109  -2.220   7.383  1.00 67.05 LIG 0.04  A 
ATOM     26  CD1 TYR B  11       1.016  -1.022   8.096  1.00 65.84 LIG 0.01  A 
BRANCH 24 27
ATOM     27 OH   TYR B  11       2.422  -4.118   6.700  1.00 74.96 LIG-0.36  OA
ATOM     28 HH   TYR B  11       3.234  -4.262   6.541  1.00 74.96 LIG 0.22  HD
ENDBRANCH 24 27
ENDBRANCH 20 21
ENDBRANCH 19 20
BRANCH 19 29
ATOM     29  C   TYR B  11       0.301   2.496  10.448  1.00 76.68 LIG 0.22  C 
ATOM     30 O    TYR B  11      -0.185   3.621  10.340  1.00 42.66 LIG-0.29  OA
ENDBRANCH 19 29
ENDBRANCH 16 19
ENDBRANCH 6 15
ENDBRANCH 3 6
ENDBRANCH 1 2
BRANCH 1 31
ATOM     31  CB  ARG B   9      -0.654   7.695   6.396  1.00 41.96 LIG 0.04  C 
BRANCH 31 32
ATOM     32  CG  ARG B   9      -2.173   7.805   6.621  1.00 54.96 LIG 0.02  C 
BRANCH 32 33
ATOM     33  CD  ARG B   9      -2.939   6.557   6.223  1.00 74.30 LIG 0.14  C 
BRANCH 33 34
ATOM     34  NE  ARG B   9      -4.390   6.762   6.281  1.00 92.04 LIG-0.23  N 
ATOM     35 HE   ARG B   9      -4.687   7.373   6.808  1.00 92.04 LIG 0.18  HD
ATOM     36  CZ  ARG B   9      -5.282   6.069   5.573  1.00114.26 LIG 0.67  C 
ATOM     37  NH2 ARG B   9      -6.579   6.323   5.697  1.00103.12 LIG-0.23  N 
ATOM     38  NH1 ARG B   9      -4.883   5.122   4.731  1.00104.54 LIG-0.23  N 
ATOM     39 1HH2 ARG B   9      -6.848   6.937   6.236  1.00103.12 LIG 0.17  HD
ATOM     40 2HH2 ARG B   9      -7.150   5.874   5.238  1.00103.12 LIG 0.17  HD
ATOM     41 1HH1 ARG B   9      -4.044   4.953   4.640  1.00104.54 LIG 0.17  HD
ATOM     42 2HH1 ARG B   9      -5.463   4.678   4.277  1.00104.54 LIG 0.17  HD
ENDBRANCH 33 34
ENDBRANCH 32 33
ENDBRANCH 31 32
ENDBRANCH 1 31
BRANCH 1 43
ATOM     43  N   ARG B   9       1.335   7.445   7.917  1.00 39.07 LIG-0.35  N 
ATOM     44 H    ARG B   9       1.684   8.026   7.385  1.00 39.07 LIG 0.16  HD
ATOM     45  C   LYS B   8       1.826   7.181   9.133  1.00 42.99 LIG 0.24  C 
ATOM     46 O    LYS B   8       1.311   6.367   9.910  1.00 42.25 LIG-0.27  OA
BRANCH 45 47
ATOM     47  CA  LYS B   8       3.061   7.966   9.554  1.00 40.35 LIG 0.18  C 
BRANCH 47 48
ATOM     48  N   LYS B   8       3.188   9.170   8.737  1.00 42.07 LIG-0.35  N 
ATOM     49 H    LYS B   8       2.527   9.709   8.845  1.00 42.07 LIG 0.16  HD
ATOM     50  C   GLY B   7       4.191   9.446   7.905  1.00 50.14 LIG 0.24  C 
ATOM     51 O    GLY B   7       5.135   8.678   7.690  1.00 49.17 LIG-0.27  OA
BRANCH 50 52
ATOM     52  CA  GLY B   7       4.098  10.780   7.206  1.00 52.80 LIG 0.23  C 
BRANCH 52 53
ATOM     53  N   GLY B   7       5.232  11.622   7.558  1.00 55.58 LIG-0.35  N 
ATOM     54  C   LEU B   6       5.436  12.185   8.746  1.00 62.88 LIG 0.26  C 
ATOM     55 O    LEU B   6       4.672  12.057   9.710  1.00 62.93 LIG-0.27  OA
ATOM     56 H    GLY B   7       5.781  11.728   6.904  1.00 55.58 LIG 0.16  HD
BRANCH 54 57
ATOM     57  CA  LEU B   6       6.742  13.004   8.844  1.00 62.75 LIG 0.40  C 
ATOM     58  N   LEU B   6       7.853  12.118   9.193  1.00 63.15 LIG 0.61  N 
BRANCH 57 59
ATOM     59  CB  LEU B   6       7.034  13.803   7.549  1.00 63.26 LIG 0.06  C 
BRANCH 59 60
ATOM     60  CG  LEU B   6       7.613  15.229   7.717  1.00 68.65 LIG-0.02  C 
ATOM     61  CD1 LEU B   6       8.995  15.188   8.356  1.00 69.18 LIG 0.01  C 
ATOM     62  CD2 LEU B   6       7.653  15.997   6.388  1.00 70.70 LIG 0.01  C 
ENDBRANCH 59 60
ENDBRANCH 57 59
ENDBRANCH 54 57
ENDBRANCH 52 53
ENDBRANCH 50 52
ENDBRANCH 47 48
BRANCH 47 63
ATOM     63  CB  LYS B   8       2.976   8.324  11.051  1.00 41.14 LIG 0.04  C 
BRANCH 63 64
ATOM     64  CG  LYS B   8       4.223   8.992  11.615  1.00 42.09 LIG 0.00  C 
BRANCH 64 65
ATOM     65  CD  LYS B   8       3.922  10.419  12.035  1.00 43.68 LIG 0.03  C 
BRANCH 65 66
ATOM     66  CE  LYS B   8       5.186  11.150  12.412  1.00 41.10 LIG 0.23  C 
BRANCH 66 67
ATOM     67  NZ  LYS B   8       5.074  12.622  12.231  1.00 37.84 LIG-0.08  N 
ATOM     68 HZ3  LYS B   8       4.625  12.972  12.915  1.00 37.84 LIG 0.27  HD
ATOM     69 HZ2  LYS B   8       4.641  12.796  11.473  1.00 37.84 LIG 0.27  HD
ATOM     70 HZ1  LYS B   8       5.888  12.980  12.196  1.00 37.84 LIG 0.27  HD
ENDBRANCH 66 67
ENDBRANCH 65 66
ENDBRANCH 64 65
ENDBRANCH 63 64
ENDBRANCH 47 63
ENDBRANCH 45 47
ENDBRANCH 1 43
TORSDOF 30
ENDMDL
MODEL 5
USER: ADFR SOLUTION from run 35
USER: SCORE 22.347166 LL:  -3.417 LR: -20.900 RR:   0.000 FEB: -11.951
USER: RMSD 6.182254
USER: SEED 34
USER: STATUS no improvement in best in 2 clusters for 5 generations
USER: GENES 32
USER: genes 0 Translation |==|  0.55178 0.54067 0.35534
USER: genes 1 Rotation |==|  0.49903 0.98923 0.40361 0.53686
USER: genes 2 Torsion [N]-CA--C-[N] |==|  0.14782
USER: genes 3 Torsion [C]-N--CA-[CB] |==|  0.16989
USER: genes 4 Torsion [N]-CA--CB-[CG] |==|  0.31535
USER: genes 5 Torsion [CA]-CB--CG-[CD] |==|  0.42343
USER: genes 6 Torsion [CB]-CG--CD-[CE] |==|  0.64650
USER: genes 7 Torsion [CG]-CD--CE-[NZ] |==|  0.61662
USER: genes 8 Torsion [CD]-CE--NZ-[HZ1] |==|  0.10535
USER: genes 9 Torsion [N]-CA--C-[N] |==|  0.41671
USER: genes 10 Torsion [C]-N--CA-[C] |==|  0.56007
USER: genes 11 Torsion [N]-CA--CB-[CG] |==|  0.52444
USER: genes 12 Torsion [CA]-CB--CG-[CD2] |==|  0.54203
USER: genes 13 Torsion [CE2]-CZ--OH-[HH] |==|  0.41731
USER: genes 14 Torsion [N]-CA--C-[O] |==|  0.59859
USER: genes 15 Torsion [C]-CA--CB-[CG] |==|  0.31739
USER: genes 16 Torsion [CA]-CB--CG-[CD] |==|  0.71670
USER: genes 17 Torsion [CB]-CG--CD-[NE] |==|  0.51379
USER: genes 18 Torsion [CG]-CD--NE-[HE] |==|  0.92313
USER: genes 19 Torsion [C]-CA--N-[C] |==|  0.75616
USER: genes 20 Torsion [N]-C--CA-[N] |==|  0.10690
USER: genes 21 Torsion [C]-CA--N-[C] |==|  0.63333
USER: genes 22 Torsion [N]-C--CA-[N] |==|  0.38054
USER: genes 23 Torsion [C]-CA--N-[C] |==|  0.83176
USER: genes 24 Torsion [N]-C--CA-[N] |==|  0.26668
USER: genes 25 Torsion [C]-CA--CB-[CG] |==|  0.78106
USER: genes 26 Torsion [CA]-CB--CG-[CD1] |==|  0.37916
USER: genes 27 Torsion [C]-CA--CB-[CG] |==|  0.61122
USER: genes 28 Torsion [CA]-CB--CG-[CD] |==|  0.51081
USER: genes 29 Torsion [CB]-CG--CD-[CE] |==|  0.38762
USER: genes 30 Torsion [CG]-CD--CE-[NZ] |==|  0.18084
USER: genes 31 Torsion [CD]-CE--NZ-[HZ2] |==|  0.83311
ROOT
ATOM      1  CA  ARG B   9       0.173   6.220   7.526  1.00 39.43 LIG 0.18  C 
ENDROOT
BRANCH 1 2
ATOM      2  C   ARG B   9       0.568   4.778   7.275  1.00 41.90 LIG 0.24  C 
ATOM      3  N   LYS B  10       1.358   4.218   8.192  1.00 39.13 LIG-0.35  N 
ATOM      4 H    LYS B  10       1.690   4.650   8.858  1.00 39.13 LIG 0.16  HD
ATOM      5 O    ARG B   9       0.160   4.177   6.272  1.00 39.79 LIG-0.27  OA
BRANCH 3 6
ATOM      6  CA  LYS B  10       1.736   2.808   8.150  1.00 38.99 LIG 0.18  C 
BRANCH 6 7
ATOM      7  CB  LYS B  10       2.521   2.465   6.863  1.00 41.38 LIG 0.04  C 
BRANCH 7 8
ATOM      8  CG  LYS B  10       3.992   2.065   7.055  1.00 61.81 LIG 0.00  C 
BRANCH 8 9
ATOM      9  CD  LYS B  10       4.507   1.128   5.943  1.00 75.86 LIG 0.03  C 
BRANCH 9 10
ATOM     10  CE  LYS B  10       5.154  -0.150   6.448  1.00 87.18 LIG 0.23  C 
BRANCH 10 11
ATOM     11  NZ  LYS B  10       6.388  -0.485   5.689  1.00 91.96 LIG-0.08  N 
ATOM     12 HZ1  LYS B  10       6.832   0.262   5.498  1.00 91.96 LIG 0.27  HD
ATOM     13 HZ2  LYS B  10       6.903  -1.019   6.180  1.00 91.96 LIG 0.27  HD
ATOM     14 HZ3  LYS B  10       6.168  -0.899   4.932  1.00 91.96 LIG 0.27  HD
ENDBRANCH 10 11
ENDBRANCH 9 10
ENDBRANCH 8 9
ENDBRANCH 7 8
ENDBRANCH 6 7
BRANCH 6 15
ATOM     15  C   LYS B  10       2.530   2.496   9.441  1.00 41.93 LIG 0.24  C 
ATOM     16  N   TYR B  11       2.454   1.243   9.933  1.00 37.73 LIG-0.35  N 
ATOM     17 H    TYR B  11       1.979   0.633   9.558  1.00 37.73 LIG 0.16  HD
ATOM     18 O    LYS B  10       3.161   3.400   9.995  1.00 40.97 LIG-0.27  OA
BRANCH 16 19
ATOM     19  CA  TYR B  11       3.147   0.764  11.134  1.00 60.51 LIG 0.17  C 
BRANCH 19 20
ATOM     20  CB  TYR B  11       2.377   1.243  12.387  1.00 61.89 LIG 0.07  C 
BRANCH 20 21
ATOM     21  CG  TYR B  11       3.002   1.047  13.761  1.00 64.48 LIG-0.06  A 
ATOM     22  CD2 TYR B  11       2.238   1.167  14.916  1.00 66.36 LIG 0.01  A 
ATOM     23  CE2 TYR B  11       2.796   0.984  16.180  1.00 66.48 LIG 0.04  A 
ATOM     24  CZ  TYR B  11       4.146   0.716  16.305  1.00 73.62 LIG 0.07  A 
ATOM     25  CE1 TYR B  11       4.935   0.608  15.169  1.00 67.05 LIG 0.04  A 
ATOM     26  CD1 TYR B  11       4.364   0.793  13.907  1.00 65.84 LIG 0.01  A 
BRANCH 24 27
ATOM     27 OH   TYR B  11       4.677   0.549  17.561  1.00 74.96 LIG-0.36  OA
ATOM     28 HH   TYR B  11       5.331   0.023  17.521  1.00 74.96 LIG 0.22  HD
ENDBRANCH 24 27
ENDBRANCH 20 21
ENDBRANCH 19 20
BRANCH 19 29
ATOM     29  C   TYR B  11       3.271  -0.766  11.087  1.00 76.68 LIG 0.22  C 
ATOM     30 O    TYR B  11       3.189  -1.429  12.119  1.00 42.66 LIG-0.29  OA
ENDBRANCH 19 29
ENDBRANCH 16 19
ENDBRANCH 6 15
ENDBRANCH 3 6
ENDBRANCH 1 2
BRANCH 1 31
ATOM     31  CB  ARG B   9      -0.686   6.726   6.327  1.00 41.96 LIG 0.04  C 
BRANCH 31 32
ATOM     32  CG  ARG B   9      -2.160   7.077   6.602  1.00 54.96 LIG 0.02  C 
BRANCH 32 33
ATOM     33  CD  ARG B   9      -3.135   6.005   6.149  1.00 74.30 LIG 0.14  C 
BRANCH 33 34
ATOM     34  NE  ARG B   9      -4.530   6.425   6.322  1.00 92.04 LIG-0.23  N 
ATOM     35 HE   ARG B   9      -4.702   6.993   6.943  1.00 92.04 LIG 0.18  HD
ATOM     36  CZ  ARG B   9      -5.549   5.988   5.582  1.00114.26 LIG 0.67  C 
ATOM     37  NH2 ARG B   9      -6.781   6.422   5.817  1.00103.12 LIG-0.23  N 
ATOM     38  NH1 ARG B   9      -5.342   5.120   4.597  1.00104.54 LIG-0.23  N 
ATOM     39 1HH2 ARG B   9      -6.925   6.987   6.449  1.00103.12 LIG 0.17  HD
ATOM     40 2HH2 ARG B   9      -7.436   6.137   5.337  1.00103.12 LIG 0.17  HD
ATOM     41 1HH1 ARG B   9      -4.546   4.837   4.434  1.00104.54 LIG 0.17  HD
ATOM     42 2HH1 ARG B   9      -6.004   4.842   4.124  1.00104.54 LIG 0.17  HD
ENDBRANCH 33 34
ENDBRANCH 32 33
ENDBRANCH 31 32
ENDBRANCH 1 31
BRANCH 1 43
ATOM     43  N   ARG B   9       1.364   7.044   7.750  1.00 39.07 LIG-0.35  N 
ATOM     44 H    ARG B   9       1.671   7.409   7.033  1.00 39.07 LIG 0.16  HD
ATOM     45  C   LYS B   8       1.924   7.216   8.953  1.00 42.99 LIG 0.24  C 
ATOM     46 O    LYS B   8       1.470   6.716   9.989  1.00 42.25 LIG-0.27  OA
BRANCH 45 47
ATOM     47  CA  LYS B   8       3.161   8.103   9.008  1.00 40.35 LIG 0.18  C 
BRANCH 47 48
ATOM     48  N   LYS B   8       3.002   9.234   8.099  1.00 42.07 LIG-0.35  N 
ATOM     49 H    LYS B   8       2.241   9.623   8.189  1.00 42.07 LIG 0.16  HD
ATOM     50  C   GLY B   7       3.904   9.655   7.213  1.00 50.14 LIG 0.24  C 
ATOM     51 O    GLY B   7       4.991   9.098   7.021  1.00 49.17 LIG-0.27  OA
BRANCH 50 52
ATOM     52  CA  GLY B   7       3.505  10.875   6.418  1.00 52.80 LIG 0.23  C 
BRANCH 52 53
ATOM     53  N   GLY B   7       4.621  11.803   6.312  1.00 55.58 LIG-0.35  N 
ATOM     54  C   LEU B   6       5.239  12.389   7.334  1.00 62.88 LIG 0.26  C 
ATOM     55 O    LEU B   6       4.932  12.211   8.518  1.00 62.93 LIG-0.27  OA
ATOM     56 H    GLY B   7       4.856  11.945   5.496  1.00 55.58 LIG 0.16  HD
BRANCH 54 57
ATOM     57  CA  LEU B   6       6.413  13.306   6.924  1.00 62.75 LIG 0.40  C 
ATOM     58  N   LEU B   6       5.949  14.691   6.844  1.00 63.15 LIG 0.61  N 
BRANCH 57 59
ATOM     59  CB  LEU B   6       7.628  13.165   7.875  1.00 63.26 LIG 0.06  C 
BRANCH 59 60
ATOM     60  CG  LEU B   6       7.549  13.906   9.233  1.00 68.65 LIG-0.02  C 
ATOM     61  CD1 LEU B   6       8.045  13.023  10.370  1.00 69.18 LIG 0.01  C 
ATOM     62  CD2 LEU B   6       8.312  15.238   9.209  1.00 70.70 LIG 0.01  C 
ENDBRANCH 59 60
ENDBRANCH 57 59
ENDBRANCH 54 57
ENDBRANCH 52 53
ENDBRANCH 50 52
ENDBRANCH 47 48
BRANCH 47 63
ATOM     63  CB  LYS B   8       3.401   8.587  10.452  1.00 41.14 LIG 0.04  C 
BRANCH 63 64
ATOM     64  CG  LYS B   8       3.849  10.038  10.567  1.00 42.09 LIG 0.00  C 
BRANCH 64 65
ATOM     65  CD  LYS B   8       4.150  10.391  12.012  1.00 43.68 LIG 0.03  C 
BRANCH 65 66
ATOM     66  CE  LYS B   8       5.382  11.254  12.112  1.00 41.10 LIG 0.23  C 
BRANCH 66 67
ATOM     67  NZ  LYS B   8       5.204  12.586  11.474  1.00 37.84 LIG-0.08  N 
ATOM     68 HZ3  LYS B   8       4.535  13.018  11.870  1.00 37.84 LIG 0.27  HD
ATOM     69 HZ2  LYS B   8       5.018  12.479  10.610  1.00 37.84 LIG 0.27  HD
ATOM     70 HZ1  LYS B   8       5.954  13.059  11.559  1.00 37.84 LIG 0.27  HD
ENDBRANCH 66 67
ENDBRANCH 65 66
ENDBRANCH 64 65
ENDBRANCH 63 64
ENDBRANCH 47 63
ENDBRANCH 45 47
ENDBRANCH 1 43
TORSDOF 30
ENDMDL
MODEL 6
USER: ADFR SOLUTION from run 27
USER: SCORE 22.369229 LL:  -2.570 LR: -20.887 RR:   0.000 FEB: -11.938
USER: RMSD 6.183967
USER: SEED 26
USER: STATUS no improvement in best in 4 clusters for 5 generations
USER: GENES 32
USER: genes 0 Translation |==|  0.55948 0.55944 0.35723
USER: genes 1 Rotation |==|  0.52084 0.97177 0.35587 0.57887
USER: genes 2 Torsion [N]-CA--C-[N] |==|  0.87838
USER: genes 3 Torsion [C]-N--CA-[CB] |==|  0.51667
USER: genes 4 Torsion [N]-CA--CB-[CG] |==|  0.45740
USER: genes 5 Torsion [CA]-CB--CG-[CD] |==|  0.47211
USER: genes 6 Torsion [CB]-CG--CD-[CE] |==|  0.69807
USER: genes 7 Torsion [CG]-CD--CE-[NZ] |==|  0.69500
USER: genes 8 Torsion [CD]-CE--NZ-[HZ1] |==|  0.75918
USER: genes 9 Torsion [N]-CA--C-[N] |==|  0.34325
USER: genes 10 Torsion [C]-N--CA-[C] |==|  0.21294
USER: genes 11 Torsion [N]-CA--CB-[CG] |==|  0.46452
USER: genes 12 Torsion [CA]-CB--CG-[CD2] |==|  0.96167
USER: genes 13 Torsion [CE2]-CZ--OH-[HH] |==|  0.86697
USER: genes 14 Torsion [N]-CA--C-[O] |==|  0.00279
USER: genes 15 Torsion [C]-CA--CB-[CG] |==|  0.13020
USER: genes 16 Torsion [CA]-CB--CG-[CD] |==|  0.29179
USER: genes 17 Torsion [CB]-CG--CD-[NE] |==|  0.49704
USER: genes 18 Torsion [CG]-CD--NE-[HE] |==|  0.97137
USER: genes 19 Torsion [C]-CA--N-[C] |==|  0.83197
USER: genes 20 Torsion [N]-C--CA-[N] |==|  0.99830
USER: genes 21 Torsion [C]-CA--N-[C] |==|  0.79899
USER: genes 22 Torsion [N]-C--CA-[N] |==|  0.07958
USER: genes 23 Torsion [C]-CA--N-[C] |==|  0.71117
USER: genes 24 Torsion [N]-C--CA-[N] |==|  0.20557
USER: genes 25 Torsion [C]-CA--CB-[CG] |==|  0.83289
USER: genes 26 Torsion [CA]-CB--CG-[CD1] |==|  0.43280
USER: genes 27 Torsion [C]-CA--CB-[CG] |==|  0.38452
USER: genes 28 Torsion [CA]-CB--CG-[CD] |==|  0.29879
USER: genes 29 Torsion [CB]-CG--CD-[CE] |==|  0.38023
USER: genes 30 Torsion [CG]-CD--CE-[NZ] |==|  0.58602
USER: genes 31 Torsion [CD]-CE--NZ-[HZ2] |==|  0.44976
ROOT
ATOM      1  CA  ARG B   9       0.341   6.727   7.572  1.00 39.43 LIG 0.18  C 
ENDROOT
BRANCH 1 2
ATOM      2  C   ARG B   9       0.651   5.246   7.674  1.00 41.90 LIG 0.24  C 
ATOM      3  N   LYS B  10       1.793   4.847   7.115  1.00 39.13 LIG-0.35  N 
ATOM      4 H    LYS B  10       2.306   5.367   6.662  1.00 39.13 LIG 0.16  HD
ATOM      5 O    ARG B   9      -0.128   4.478   8.254  1.00 39.79 LIG-0.27  OA
BRANCH 3 6
ATOM      6  CA  LYS B  10       2.284   3.475   7.223  1.00 38.99 LIG 0.18  C 
BRANCH 6 7
ATOM      7  CB  LYS B  10       3.696   3.323   6.612  1.00 41.38 LIG 0.04  C 
BRANCH 7 8
ATOM      8  CG  LYS B  10       4.458   2.042   6.984  1.00 61.81 LIG 0.00  C 
BRANCH 8 9
ATOM      9  CD  LYS B  10       5.742   1.847   6.151  1.00 75.86 LIG 0.03  C 
BRANCH 9 10
ATOM     10  CE  LYS B  10       5.664   0.723   5.132  1.00 87.18 LIG 0.23  C 
BRANCH 10 11
ATOM     11  NZ  LYS B  10       6.523  -0.430   5.513  1.00 91.96 LIG-0.08  N 
ATOM     12 HZ1  LYS B  10       7.349  -0.300   5.207  1.00 91.96 LIG 0.27  HD
ATOM     13 HZ2  LYS B  10       6.544  -0.505   6.399  1.00 91.96 LIG 0.27  HD
ATOM     14 HZ3  LYS B  10       6.192  -1.177   5.159  1.00 91.96 LIG 0.27  HD
ENDBRANCH 10 11
ENDBRANCH 9 10
ENDBRANCH 8 9
ENDBRANCH 7 8
ENDBRANCH 6 7
BRANCH 6 15
ATOM     15  C   LYS B  10       2.226   3.071   8.715  1.00 41.93 LIG 0.24  C 
ATOM     16  N   TYR B  11       1.517   1.971   9.038  1.00 37.73 LIG-0.35  N 
ATOM     17 H    TYR B  11       1.101   1.506   8.447  1.00 37.73 LIG 0.16  HD
ATOM     18 O    LYS B  10       2.784   3.782   9.556  1.00 40.97 LIG-0.27  OA
BRANCH 16 19
ATOM     19  CA  TYR B  11       1.363   1.432  10.394  1.00 60.51 LIG 0.17  C 
BRANCH 19 20
ATOM     20  CB  TYR B  11       2.747   1.397  11.085  1.00 61.89 LIG 0.07  C 
BRANCH 20 21
ATOM     21  CG  TYR B  11       2.820   1.158  12.586  1.00 64.48 LIG-0.06  A 
ATOM     22  CD2 TYR B  11       1.683   1.256  13.380  1.00 66.36 LIG 0.01  A 
ATOM     23  CE2 TYR B  11       1.733   1.034  14.755  1.00 66.48 LIG 0.04  A 
ATOM     24  CZ  TYR B  11       2.941   0.748  15.362  1.00 73.62 LIG 0.07  A 
ATOM     25  CE1 TYR B  11       4.094   0.661  14.596  1.00 67.05 LIG 0.04  A 
ATOM     26  CD1 TYR B  11       4.031   0.886  13.218  1.00 65.84 LIG 0.01  A 
BRANCH 24 27
ATOM     27 OH   TYR B  11       2.970   0.542  16.720  1.00 74.96 LIG-0.36  OA
ATOM     28 HH   TYR B  11       2.545   1.156  17.106  1.00 74.96 LIG 0.22  HD
ENDBRANCH 24 27
ENDBRANCH 20 21
ENDBRANCH 19 20
BRANCH 19 29
ATOM     29  C   TYR B  11       0.352   2.281  11.178  1.00 76.68 LIG 0.22  C 
ATOM     30 O    TYR B  11      -0.205   3.238  10.644  1.00 42.66 LIG-0.29  OA
ENDBRANCH 19 29
ENDBRANCH 16 19
ENDBRANCH 6 15
ENDBRANCH 3 6
ENDBRANCH 1 2
BRANCH 1 31
ATOM     31  CB  ARG B   9      -0.245   7.027   6.159  1.00 41.96 LIG 0.04  C 
BRANCH 31 32
ATOM     32  CG  ARG B   9      -1.351   6.094   5.631  1.00 54.96 LIG 0.02  C 
BRANCH 32 33
ATOM     33  CD  ARG B   9      -2.737   6.711   5.673  1.00 74.30 LIG 0.14  C 
BRANCH 33 34
ATOM     34  NE  ARG B   9      -3.758   5.801   5.140  1.00 92.04 LIG-0.23  N 
ATOM     35 HE   ARG B   9      -3.489   5.090   4.738  1.00 92.04 LIG 0.18  HD
ATOM     36  CZ  ARG B   9      -5.072   6.000   5.234  1.00114.26 LIG 0.67  C 
ATOM     37  NH2 ARG B   9      -5.921   5.122   4.714  1.00103.12 LIG-0.23  N 
ATOM     38  NH1 ARG B   9      -5.548   7.074   5.856  1.00104.54 LIG-0.23  N 
ATOM     39 1HH2 ARG B   9      -5.624   4.421   4.314  1.00103.12 LIG 0.17  HD
ATOM     40 2HH2 ARG B   9      -6.768   5.254   4.778  1.00103.12 LIG 0.17  HD
ATOM     41 1HH1 ARG B   9      -5.006   7.646   6.200  1.00104.54 LIG 0.17  HD
ATOM     42 2HH1 ARG B   9      -6.397   7.196   5.913  1.00104.54 LIG 0.17  HD
ENDBRANCH 33 34
ENDBRANCH 32 33
ENDBRANCH 31 32
ENDBRANCH 1 31
BRANCH 1 43
ATOM     43  N   ARG B   9       1.538   7.521   7.863  1.00 39.07 LIG-0.35  N 
ATOM     44 H    ARG B   9       1.785   8.023   7.210  1.00 39.07 LIG 0.16  HD
ATOM     45  C   LYS B   8       2.187   7.471   9.033  1.00 42.99 LIG 0.24  C 
ATOM     46 O    LYS B   8       1.818   6.771   9.983  1.00 42.25 LIG-0.27  OA
BRANCH 45 47
ATOM     47  CA  LYS B   8       3.416   8.360   9.167  1.00 40.35 LIG 0.18  C 
BRANCH 47 48
ATOM     48  N   LYS B   8       3.635   9.097   7.926  1.00 42.07 LIG-0.35  N 
ATOM     49 H    LYS B   8       3.442   9.932   8.002  1.00 42.07 LIG 0.16  HD
ATOM     50  C   GLY B   7       4.081   8.581   6.781  1.00 50.14 LIG 0.24  C 
ATOM     51 O    GLY B   7       4.328   7.381   6.619  1.00 49.17 LIG-0.27  OA
BRANCH 50 52
ATOM     52  CA  GLY B   7       4.256   9.571   5.654  1.00 52.80 LIG 0.23  C 
BRANCH 52 53
ATOM     53  N   GLY B   7       4.554  10.895   6.179  1.00 55.58 LIG-0.35  N 
ATOM     54  C   LEU B   6       3.696  11.910   6.245  1.00 62.88 LIG 0.26  C 
ATOM     55 O    LEU B   6       2.522  11.847   5.861  1.00 62.93 LIG-0.27  OA
ATOM     56 H    GLY B   7       5.366  10.967   6.453  1.00 55.58 LIG 0.16  HD
BRANCH 54 57
ATOM     57  CA  LEU B   6       4.279  13.193   6.878  1.00 62.75 LIG 0.40  C 
ATOM     58  N   LEU B   6       5.191  13.836   5.931  1.00 63.15 LIG 0.61  N 
BRANCH 57 59
ATOM     59  CB  LEU B   6       3.174  14.168   7.357  1.00 63.26 LIG 0.06  C 
BRANCH 59 60
ATOM     60  CG  LEU B   6       2.192  14.699   6.283  1.00 68.65 LIG-0.02  C 
ATOM     61  CD1 LEU B   6       0.871  15.124   6.912  1.00 69.18 LIG 0.01  C 
ATOM     62  CD2 LEU B   6       2.797  15.849   5.466  1.00 70.70 LIG 0.01  C 
ENDBRANCH 59 60
ENDBRANCH 57 59
ENDBRANCH 54 57
ENDBRANCH 52 53
ENDBRANCH 50 52
ENDBRANCH 47 48
BRANCH 47 63
ATOM     63  CB  LYS B   8       3.243   9.326  10.357  1.00 41.14 LIG 0.04  C 
BRANCH 63 64
ATOM     64  CG  LYS B   8       4.492   9.510  11.209  1.00 42.09 LIG 0.00  C 
BRANCH 64 65
ATOM     65  CD  LYS B   8       5.099  10.882  10.978  1.00 43.68 LIG 0.03  C 
BRANCH 65 66
ATOM     66  CE  LYS B   8       5.522  11.513  12.280  1.00 41.10 LIG 0.23  C 
BRANCH 66 67
ATOM     67  NZ  LYS B   8       5.422  12.997  12.259  1.00 37.84 LIG-0.08  N 
ATOM     68 HZ3  LYS B   8       6.117  13.335  11.819  1.00 37.84 LIG 0.27  HD
ATOM     69 HZ2  LYS B   8       5.422  13.306  13.094  1.00 37.84 LIG 0.27  HD
ATOM     70 HZ1  LYS B   8       4.667  13.238  11.853  1.00 37.84 LIG 0.27  HD
ENDBRANCH 66 67
ENDBRANCH 65 66
ENDBRANCH 64 65
ENDBRANCH 63 64
ENDBRANCH 47 63
ENDBRANCH 45 47
ENDBRANCH 1 43
TORSDOF 30
ENDMDL
MODEL 7
USER: ADFR SOLUTION from run 97
USER: SCORE 22.928472 LL:  -3.566 LR: -20.820 RR:   0.000 FEB: -11.871
USER: RMSD 7.077526
USER: SEED 96
USER: STATUS no improvement in best in 4 clusters for 5 generations
USER: GENES 32
USER: genes 0 Translation |==|  0.53903 0.55206 0.33815
USER: genes 1 Rotation |==|  0.50561 0.99683 0.46110 0.54025
USER: genes 2 Torsion [N]-CA--C-[N] |==|  0.99325
USER: genes 3 Torsion [C]-N--CA-[CB] |==|  0.50748
USER: genes 4 Torsion [N]-CA--CB-[CG] |==|  0.35628
USER: genes 5 Torsion [CA]-CB--CG-[CD] |==|  0.35833
USER: genes 6 Torsion [CB]-CG--CD-[CE] |==|  0.63546
USER: genes 7 Torsion [CG]-CD--CE-[NZ] |==|  0.52689
USER: genes 8 Torsion [CD]-CE--NZ-[HZ1] |==|  0.94572
USER: genes 9 Torsion [N]-CA--C-[N] |==|  0.85083
USER: genes 10 Torsion [C]-N--CA-[C] |==|  0.60393
USER: genes 11 Torsion [N]-CA--CB-[CG] |==|  0.75906
USER: genes 12 Torsion [CA]-CB--CG-[CD2] |==|  0.94006
USER: genes 13 Torsion [CE2]-CZ--OH-[HH] |==|  0.60119
USER: genes 14 Torsion [N]-CA--C-[O] |==|  0.10571
USER: genes 15 Torsion [C]-CA--CB-[CG] |==|  0.15776
USER: genes 16 Torsion [CA]-CB--CG-[CD] |==|  0.12318
USER: genes 17 Torsion [CB]-CG--CD-[NE] |==|  0.35637
USER: genes 18 Torsion [CG]-CD--NE-[HE] |==|  0.72238
USER: genes 19 Torsion [C]-CA--N-[C] |==|  0.76155
USER: genes 20 Torsion [N]-C--CA-[N] |==|  0.00254
USER: genes 21 Torsion [C]-CA--N-[C] |==|  0.78879
USER: genes 22 Torsion [N]-C--CA-[N] |==|  0.07174
USER: genes 23 Torsion [C]-CA--N-[C] |==|  0.72069
USER: genes 24 Torsion [N]-C--CA-[N] |==|  0.04917
USER: genes 25 Torsion [C]-CA--CB-[CG] |==|  0.31884
USER: genes 26 Torsion [CA]-CB--CG-[CD1] |==|  0.37512
USER: genes 27 Torsion [C]-CA--CB-[CG] |==|  0.42097
USER: genes 28 Torsion [CA]-CB--CG-[CD] |==|  0.28012
USER: genes 29 Torsion [CB]-CG--CD-[CE] |==|  0.43287
USER: genes 30 Torsion [CG]-CD--CE-[NZ] |==|  0.58348
USER: genes 31 Torsion [CD]-CE--NZ-[HZ2] |==|  0.03165
ROOT
ATOM      1  CA  ARG B   9      -0.104   6.528   7.100  1.00 39.43 LIG 0.18  C 
ENDROOT
BRANCH 1 2
ATOM      2  C   ARG B   9       0.288   5.179   6.529  1.00 41.90 LIG 0.24  C 
ATOM      3  N   LYS B  10       1.596   4.927   6.465  1.00 39.13 LIG-0.35  N 
ATOM      4 H    LYS B  10       2.200   5.505   6.668  1.00 39.13 LIG 0.16  HD
ATOM      5 O    ARG B   9      -0.578   4.376   6.157  1.00 39.79 LIG-0.27  OA
BRANCH 3 6
ATOM      6  CA  LYS B  10       2.128   3.634   6.041  1.00 38.99 LIG 0.18  C 
BRANCH 6 7
ATOM      7  CB  LYS B  10       3.672   3.597   6.124  1.00 41.38 LIG 0.04  C 
BRANCH 7 8
ATOM      8  CG  LYS B  10       4.278   2.414   6.895  1.00 61.81 LIG 0.00  C 
BRANCH 8 9
ATOM      9  CD  LYS B  10       5.372   1.676   6.095  1.00 75.86 LIG 0.03  C 
BRANCH 9 10
ATOM     10  CE  LYS B  10       5.214   0.166   6.062  1.00 87.18 LIG 0.23  C 
BRANCH 10 11
ATOM     11  NZ  LYS B  10       6.408  -0.503   5.481  1.00 91.96 LIG-0.08  N 
ATOM     12 HZ1  LYS B  10       6.876   0.085   5.004  1.00 91.96 LIG 0.27  HD
ATOM     13 HZ2  LYS B  10       6.917  -0.824   6.136  1.00 91.96 LIG 0.27  HD
ATOM     14 HZ3  LYS B  10       6.148  -1.171   4.953  1.00 91.96 LIG 0.27  HD
ENDBRANCH 10 11
ENDBRANCH 9 10
ENDBRANCH 8 9
ENDBRANCH 7 8
ENDBRANCH 6 7
BRANCH 6 15
ATOM     15  C   LYS B  10       1.452   2.543   6.905  1.00 41.93 LIG 0.24  C 
ATOM     16  N   TYR B  11       1.516   2.677   8.245  1.00 37.73 LIG-0.35  N 
ATOM     17 H    TYR B  11       1.921   3.336   8.619  1.00 37.73 LIG 0.16  HD
ATOM     18 O    LYS B  10       0.923   1.575   6.350  1.00 40.97 LIG-0.27  OA
BRANCH 16 19
ATOM     19  CA  TYR B  11       0.923   1.752   9.216  1.00 60.51 LIG 0.17  C 
BRANCH 19 20
ATOM     20  CB  TYR B  11       1.994   0.725   9.655  1.00 61.89 LIG 0.07  C 
BRANCH 20 21
ATOM     21  CG  TYR B  11       2.191  -0.539   8.829  1.00 64.48 LIG-0.06  A 
ATOM     22  CD2 TYR B  11       1.186  -1.008   7.993  1.00 66.36 LIG 0.01  A 
ATOM     23  CE2 TYR B  11       1.354  -2.160   7.227  1.00 66.48 LIG 0.04  A 
ATOM     24  CZ  TYR B  11       2.528  -2.884   7.320  1.00 73.62 LIG 0.07  A 
ATOM     25  CE1 TYR B  11       3.542  -2.447   8.161  1.00 67.05 LIG 0.04  A 
ATOM     26  CD1 TYR B  11       3.361  -1.290   8.924  1.00 65.84 LIG 0.01  A 
BRANCH 24 27
ATOM     27 OH   TYR B  11       2.670  -4.022   6.564  1.00 74.96 LIG-0.36  OA
ATOM     28 HH   TYR B  11       3.096  -4.598   7.002  1.00 74.96 LIG 0.22  HD
ENDBRANCH 24 27
ENDBRANCH 20 21
ENDBRANCH 19 20
BRANCH 19 29
ATOM     29  C   TYR B  11       0.362   2.539  10.409  1.00 76.68 LIG 0.22  C 
ATOM     30 O    TYR B  11      -0.194   3.622  10.234  1.00 42.66 LIG-0.29  OA
ENDBRANCH 19 29
ENDBRANCH 16 19
ENDBRANCH 6 15
ENDBRANCH 3 6
ENDBRANCH 1 2
BRANCH 1 31
ATOM     31  CB  ARG B   9      -0.942   7.304   6.039  1.00 41.96 LIG 0.04  C 
BRANCH 31 32
ATOM     32  CG  ARG B   9      -2.217   6.628   5.501  1.00 54.96 LIG 0.02  C 
BRANCH 32 33
ATOM     33  CD  ARG B   9      -3.067   5.987   6.581  1.00 74.30 LIG 0.14  C 
BRANCH 33 34
ATOM     34  NE  ARG B   9      -4.466   6.422   6.509  1.00 92.04 LIG-0.23  N 
ATOM     35 HE   ARG B   9      -4.722   7.036   7.054  1.00 92.04 LIG 0.18  HD
ATOM     36  CZ  ARG B   9      -5.368   5.933   5.659  1.00114.26 LIG 0.67  C 
ATOM     37  NH2 ARG B   9      -6.615   6.386   5.672  1.00103.12 LIG-0.23  N 
ATOM     38  NH1 ARG B   9      -5.028   4.992   4.785  1.00104.54 LIG-0.23  N 
ATOM     39 1HH2 ARG B   9      -6.845   6.999   6.231  1.00103.12 LIG 0.17  HD
ATOM     40 2HH2 ARG B   9      -7.194   6.068   5.121  1.00103.12 LIG 0.17  HD
ATOM     41 1HH1 ARG B   9      -4.221   4.694   4.765  1.00104.54 LIG 0.17  HD
ATOM     42 2HH1 ARG B   9      -5.615   4.680   4.239  1.00104.54 LIG 0.17  HD
ENDBRANCH 33 34
ENDBRANCH 32 33
ENDBRANCH 31 32
ENDBRANCH 1 31
BRANCH 1 43
ATOM     43  N   ARG B   9       1.087   7.268   7.527  1.00 39.07 LIG-0.35  N 
ATOM     44 H    ARG B   9       1.391   7.806   6.927  1.00 39.07 LIG 0.16  HD
ATOM     45  C   LYS B   8       1.650   7.124   8.732  1.00 42.99 LIG 0.24  C 
ATOM     46 O    LYS B   8       1.198   6.374   9.605  1.00 42.25 LIG-0.27  OA
BRANCH 45 47
ATOM     47  CA  LYS B   8       2.886   7.969   9.011  1.00 40.35 LIG 0.18  C 
BRANCH 47 48
ATOM     48  N   LYS B   8       3.188   8.807   7.854  1.00 42.07 LIG-0.35  N 
ATOM     49 H    LYS B   8       2.960   9.627   7.974  1.00 42.07 LIG 0.16  HD
ATOM     50  C   GLY B   7       3.751   8.394   6.719  1.00 50.14 LIG 0.24  C 
ATOM     51 O    GLY B   7       4.053   7.218   6.490  1.00 49.17 LIG-0.27  OA
BRANCH 50 52
ATOM     52  CA  GLY B   7       3.990   9.473   5.690  1.00 52.80 LIG 0.23  C 
BRANCH 52 53
ATOM     53  N   GLY B   7       4.127  10.771   6.333  1.00 55.58 LIG-0.35  N 
ATOM     54  C   LEU B   6       3.176  11.697   6.413  1.00 62.88 LIG 0.26  C 
ATOM     55 O    LEU B   6       2.041  11.563   5.942  1.00 62.93 LIG-0.27  OA
ATOM     56 H    GLY B   7       4.909  10.891   6.671  1.00 55.58 LIG 0.16  HD
BRANCH 54 57
ATOM     57  CA  LEU B   6       3.593  12.971   7.182  1.00 62.75 LIG 0.40  C 
ATOM     58  N   LEU B   6       5.053  13.031   7.276  1.00 63.15 LIG 0.61  N 
BRANCH 57 59
ATOM     59  CB  LEU B   6       3.009  14.259   6.548  1.00 63.26 LIG 0.06  C 
BRANCH 59 60
ATOM     60  CG  LEU B   6       1.986  15.057   7.394  1.00 68.65 LIG-0.02  C 
ATOM     61  CD1 LEU B   6       2.286  16.550   7.352  1.00 69.18 LIG 0.01  C 
ATOM     62  CD2 LEU B   6       0.539  14.783   6.961  1.00 70.70 LIG 0.01  C 
ENDBRANCH 59 60
ENDBRANCH 57 59
ENDBRANCH 54 57
ENDBRANCH 52 53
ENDBRANCH 50 52
ENDBRANCH 47 48
BRANCH 47 63
ATOM     63  CB  LYS B   8       2.664   8.830  10.270  1.00 41.14 LIG 0.04  C 
BRANCH 63 64
ATOM     64  CG  LYS B   8       3.936   9.171  11.036  1.00 42.09 LIG 0.00  C 
BRANCH 64 65
ATOM     65  CD  LYS B   8       4.389  10.585  10.719  1.00 43.68 LIG 0.03  C 
BRANCH 65 66
ATOM     66  CE  LYS B   8       5.235  11.144  11.834  1.00 41.10 LIG 0.23  C 
BRANCH 66 67
ATOM     67  NZ  LYS B   8       5.117  12.622  11.959  1.00 37.84 LIG-0.08  N 
ATOM     68 HZ3  LYS B   8       4.968  12.837  12.810  1.00 37.84 LIG 0.27  HD
ATOM     69 HZ2  LYS B   8       4.439  12.909  11.458  1.00 37.84 LIG 0.27  HD
ATOM     70 HZ1  LYS B   8       5.872  13.005  11.684  1.00 37.84 LIG 0.27  HD
ENDBRANCH 66 67
ENDBRANCH 65 66
ENDBRANCH 64 65
ENDBRANCH 63 64
ENDBRANCH 47 63
ENDBRANCH 45 47
ENDBRANCH 1 43
TORSDOF 30
ENDMDL
MODEL 8
USER: ADFR SOLUTION from run 116
USER: SCORE 23.299267 LL:  -2.951 LR: -20.810 RR:   0.000 FEB: -11.861
USER: RMSD 7.213192
USER: SEED 115
USER: STATUS no improvement in best in 3 clusters for 5 generations
USER: GENES 32
USER: genes 0 Translation |==|  0.49424 0.59097 0.32827
USER: genes 1 Rotation |==|  0.71404 0.14209 0.77507 0.52062
USER: genes 2 Torsion [N]-CA--C-[N] |==|  0.42117
USER: genes 3 Torsion [C]-N--CA-[CB] |==|  0.85530
USER: genes 4 Torsion [N]-CA--CB-[CG] |==|  0.77794
USER: genes 5 Torsion [CA]-CB--CG-[CD] |==|  0.90960
USER: genes 6 Torsion [CB]-CG--CD-[CE] |==|  0.71524
USER: genes 7 Torsion [CG]-CD--CE-[NZ] |==|  0.55163
USER: genes 8 Torsion [CD]-CE--NZ-[HZ1] |==|  0.80676
USER: genes 9 Torsion [N]-CA--C-[N] |==|  0.39609
USER: genes 10 Torsion [C]-N--CA-[C] |==|  0.45571
USER: genes 11 Torsion [N]-CA--CB-[CG] |==|  0.45296
USER: genes 12 Torsion [CA]-CB--CG-[CD2] |==|  0.79328
USER: genes 13 Torsion [CE2]-CZ--OH-[HH] |==|  0.65198
USER: genes 14 Torsion [N]-CA--C-[O] |==|  0.91203
USER: genes 15 Torsion [C]-CA--CB-[CG] |==|  0.53806
USER: genes 16 Torsion [CA]-CB--CG-[CD] |==|  0.59882
USER: genes 17 Torsion [CB]-CG--CD-[NE] |==|  0.62767
USER: genes 18 Torsion [CG]-CD--NE-[HE] |==|  0.20804
USER: genes 19 Torsion [C]-CA--N-[C] |==|  0.61135
USER: genes 20 Torsion [N]-C--CA-[N] |==|  0.87222
USER: genes 21 Torsion [C]-CA--N-[C] |==|  0.79203
USER: genes 22 Torsion [N]-C--CA-[N] |==|  0.46501
USER: genes 23 Torsion [C]-CA--N-[C] |==|  0.25496
USER: genes 24 Torsion [N]-C--CA-[N] |==|  0.62428
USER: genes 25 Torsion [C]-CA--CB-[CG] |==|  0.23349
USER: genes 26 Torsion [CA]-CB--CG-[CD1] |==|  0.66744
USER: genes 27 Torsion [C]-CA--CB-[CG] |==|  0.17103
USER: genes 28 Torsion [CA]-CB--CG-[CD] |==|  0.62503
USER: genes 29 Torsion [CB]-CG--CD-[CE] |==|  0.61486
USER: genes 30 Torsion [CG]-CD--CE-[NZ] |==|  0.86620
USER: genes 31 Torsion [CD]-CE--NZ-[HZ2] |==|  0.87031
ROOT
ATOM      1  CA  ARG B   9      -1.078   7.578   6.856  1.00 39.43 LIG 0.18  C 
ENDROOT
BRANCH 1 2
ATOM      2  C   ARG B   9       0.268   7.035   7.294  1.00 41.90 LIG 0.24  C 
ATOM      3  N   LYS B  10       0.345   6.604   8.553  1.00 39.13 LIG-0.35  N 
ATOM      4 H    LYS B  10      -0.297   6.681   9.120  1.00 39.13 LIG 0.16  HD
ATOM      5 O    ARG B   9       1.221   7.001   6.504  1.00 39.79 LIG-0.27  OA
BRANCH 3 6
ATOM      6  CA  LYS B  10       1.538   5.956   9.091  1.00 38.99 LIG 0.18  C 
BRANCH 6 7
ATOM      7  CB  LYS B  10       2.002   4.781   8.199  1.00 41.38 LIG 0.04  C 
BRANCH 7 8
ATOM      8  CG  LYS B  10       1.238   3.460   8.371  1.00 61.81 LIG 0.00  C 
BRANCH 8 9
ATOM      9  CD  LYS B  10       0.744   3.239   9.816  1.00 75.86 LIG 0.03  C 
BRANCH 9 10
ATOM     10  CE  LYS B  10       1.577   2.258  10.621  1.00 87.18 LIG 0.23  C 
BRANCH 10 11
ATOM     11  NZ  LYS B  10       0.840   1.747  11.808  1.00 91.96 LIG-0.08  N 
ATOM     12 HZ1  LYS B  10       0.743   2.402  12.403  1.00 91.96 LIG 0.27  HD
ATOM     13 HZ2  LYS B  10       0.038   1.455  11.556  1.00 91.96 LIG 0.27  HD
ATOM     14 HZ3  LYS B  10       1.297   1.078  12.177  1.00 91.96 LIG 0.27  HD
ENDBRANCH 10 11
ENDBRANCH 9 10
ENDBRANCH 8 9
ENDBRANCH 7 8
ENDBRANCH 6 7
BRANCH 6 15
ATOM     15  C   LYS B  10       2.624   7.044   9.267  1.00 41.93 LIG 0.24  C 
ATOM     16  N   TYR B  11       3.429   6.955  10.345  1.00 37.73 LIG-0.35  N 
ATOM     17 H    TYR B  11       3.347   6.326  10.926  1.00 37.73 LIG 0.16  HD
ATOM     18 O    LYS B  10       2.691   7.969   8.453  1.00 40.97 LIG-0.27  OA
BRANCH 16 19
ATOM     19  CA  TYR B  11       4.517   7.883  10.667  1.00 60.51 LIG 0.17  C 
BRANCH 19 20
ATOM     20  CB  TYR B  11       4.052   9.329  10.372  1.00 61.89 LIG 0.07  C 
BRANCH 20 21
ATOM     21  CG  TYR B  11       4.827  10.494  10.971  1.00 64.48 LIG-0.06  A 
ATOM     22  CD2 TYR B  11       4.715  10.806  12.321  1.00 66.36 LIG 0.01  A 
ATOM     23  CE2 TYR B  11       5.423  11.866  12.885  1.00 66.48 LIG 0.04  A 
ATOM     24  CZ  TYR B  11       6.228  12.656  12.089  1.00 73.62 LIG 0.07  A 
ATOM     25  CE1 TYR B  11       6.346  12.378  10.735  1.00 67.05 LIG 0.04  A 
ATOM     26  CD1 TYR B  11       5.631  11.313  10.181  1.00 65.84 LIG 0.01  A 
BRANCH 24 27
ATOM     27 OH   TYR B  11       6.910  13.702  12.663  1.00 74.96 LIG-0.36  OA
ATOM     28 HH   TYR B  11       6.728  14.414  12.255  1.00 74.96 LIG 0.22  HD
ENDBRANCH 24 27
ENDBRANCH 20 21
ENDBRANCH 19 20
BRANCH 19 29
ATOM     29  C   TYR B  11       4.937   7.705  12.133  1.00 76.68 LIG 0.22  C 
ATOM     30 O    TYR B  11       4.112   7.371  12.981  1.00 42.66 LIG-0.29  OA
ENDBRANCH 19 29
ENDBRANCH 16 19
ENDBRANCH 6 15
ENDBRANCH 3 6
ENDBRANCH 1 2
BRANCH 1 31
ATOM     31  CB  ARG B   9      -1.983   6.390   6.406  1.00 41.96 LIG 0.04  C 
BRANCH 31 32
ATOM     32  CG  ARG B   9      -3.267   6.725   5.625  1.00 54.96 LIG 0.02  C 
BRANCH 32 33
ATOM     33  CD  ARG B   9      -4.430   5.805   5.944  1.00 74.30 LIG 0.14  C 
BRANCH 33 34
ATOM     34  NE  ARG B   9      -5.115   5.346   4.731  1.00 92.04 LIG-0.23  N 
ATOM     35 HE   ARG B   9      -4.725   4.745   4.256  1.00 92.04 LIG 0.18  HD
ATOM     36  CZ  ARG B   9      -6.298   5.794   4.313  1.00114.26 LIG 0.67  C 
ATOM     37  NH2 ARG B   9      -6.837   5.321   3.196  1.00103.12 LIG-0.23  N 
ATOM     38  NH1 ARG B   9      -6.955   6.713   5.013  1.00104.54 LIG-0.23  N 
ATOM     39 1HH2 ARG B   9      -6.423   4.723   2.738  1.00103.12 LIG 0.17  HD
ATOM     40 2HH2 ARG B   9      -7.602   5.613   2.931  1.00103.12 LIG 0.17  HD
ATOM     41 1HH1 ARG B   9      -6.617   7.022   5.741  1.00104.54 LIG 0.17  HD
ATOM     42 2HH1 ARG B   9      -7.718   6.998   4.738  1.00104.54 LIG 0.17  HD
ENDBRANCH 33 34
ENDBRANCH 32 33
ENDBRANCH 31 32
ENDBRANCH 1 31
BRANCH 1 43
ATOM     43  N   ARG B   9      -0.906   8.582   5.802  1.00 39.07 LIG-0.35  N 
ATOM     44 H    ARG B   9      -0.300   8.377   5.226  1.00 39.07 LIG 0.16  HD
ATOM     45  C   LYS B   8      -1.622   9.712   5.738  1.00 42.99 LIG 0.24  C 
ATOM     46 O    LYS B   8      -2.513   9.995   6.547  1.00 42.25 LIG-0.27  OA
BRANCH 45 47
ATOM     47  CA  LYS B   8      -1.313  10.648   4.577  1.00 40.35 LIG 0.18  C 
BRANCH 47 48
ATOM     48  N   LYS B   8       0.131  10.808   4.438  1.00 42.07 LIG-0.35  N 
ATOM     49 H    LYS B   8       0.446  10.372   3.768  1.00 42.07 LIG 0.16  HD
ATOM     50  C   GLY B   7       0.915  11.535   5.233  1.00 50.14 LIG 0.24  C 
ATOM     51 O    GLY B   7       0.509  12.141   6.231  1.00 49.17 LIG-0.27  OA
BRANCH 50 52
ATOM     52  CA  GLY B   7       2.374  11.565   4.846  1.00 52.80 LIG 0.23  C 
BRANCH 52 53
ATOM     53  N   GLY B   7       3.078  12.603   5.583  1.00 55.58 LIG-0.35  N 
ATOM     54  C   LEU B   6       3.704  12.437   6.744  1.00 62.88 LIG 0.26  C 
ATOM     55 O    LEU B   6       3.762  11.359   7.348  1.00 62.93 LIG-0.27  OA
ATOM     56 H    GLY B   7       3.053  13.365   5.184  1.00 55.58 LIG 0.16  HD
BRANCH 54 57
ATOM     57  CA  LEU B   6       4.392  13.711   7.283  1.00 62.75 LIG 0.40  C 
ATOM     58  N   LEU B   6       5.733  13.378   7.766  1.00 63.15 LIG 0.61  N 
BRANCH 57 59
ATOM     59  CB  LEU B   6       4.431  14.848   6.231  1.00 63.26 LIG 0.06  C 
BRANCH 59 60
ATOM     60  CG  LEU B   6       3.172  15.741   6.114  1.00 68.65 LIG-0.02  C 
ATOM     61  CD1 LEU B   6       2.572  15.663   4.715  1.00 69.18 LIG 0.01  C 
ATOM     62  CD2 LEU B   6       2.118  15.395   7.175  1.00 70.70 LIG 0.01  C 
ENDBRANCH 59 60
ENDBRANCH 57 59
ENDBRANCH 54 57
ENDBRANCH 52 53
ENDBRANCH 50 52
ENDBRANCH 47 48
BRANCH 47 63
ATOM     63  CB  LYS B   8      -1.934  10.101   3.277  1.00 41.14 LIG 0.04  C 
BRANCH 63 64
ATOM     64  CG  LYS B   8      -3.452   9.979   3.302  1.00 42.09 LIG 0.00  C 
BRANCH 64 65
ATOM     65  CD  LYS B   8      -3.891   8.644   2.727  1.00 43.68 LIG 0.03  C 
BRANCH 65 66
ATOM     66  CE  LYS B   8      -5.102   8.808   1.844  1.00 41.10 LIG 0.23  C 
BRANCH 66 67
ATOM     67  NZ  LYS B   8      -6.171   9.622   2.481  1.00 37.84 LIG-0.08  N 
ATOM     68 HZ3  LYS B   8      -5.927  10.478   2.490  1.00 37.84 LIG 0.27  HD
ATOM     69 HZ2  LYS B   8      -6.300   9.342   3.316  1.00 37.84 LIG 0.27  HD
ATOM     70 HZ1  LYS B   8      -6.927   9.534   2.019  1.00 37.84 LIG 0.27  HD
ENDBRANCH 66 67
ENDBRANCH 65 66
ENDBRANCH 64 65
ENDBRANCH 63 64
ENDBRANCH 47 63
ENDBRANCH 45 47
ENDBRANCH 1 43
TORSDOF 30
ENDMDL
MODEL 9
USER: ADFR SOLUTION from run 39
USER: SCORE 22.824499 LL:  -3.425 LR: -20.775 RR:   0.000 FEB: -11.826
USER: RMSD 8.940127
USER: SEED 38
USER: STATUS no improvement in best in 11 clusters for 5 generations
USER: GENES 32
USER: genes 0 Translation |==|  0.45919 0.72484 0.24669
USER: genes 1 Rotation |==|  0.60381 0.88393 0.19800 0.52485
USER: genes 2 Torsion [N]-CA--C-[N] |==|  0.90029
USER: genes 3 Torsion [C]-N--CA-[CB] |==|  0.24828
USER: genes 4 Torsion [N]-CA--CB-[CG] |==|  0.83689
USER: genes 5 Torsion [CA]-CB--CG-[CD] |==|  0.47796
USER: genes 6 Torsion [CB]-CG--CD-[CE] |==|  0.57821
USER: genes 7 Torsion [CG]-CD--CE-[NZ] |==|  0.60768
USER: genes 8 Torsion [CD]-CE--NZ-[HZ1] |==|  0.50777
USER: genes 9 Torsion [N]-CA--C-[N] |==|  0.43752
USER: genes 10 Torsion [C]-N--CA-[C] |==|  0.65326
USER: genes 11 Torsion [N]-CA--CB-[CG] |==|  0.67457
USER: genes 12 Torsion [CA]-CB--CG-[CD2] |==|  0.44624
USER: genes 13 Torsion [CE2]-CZ--OH-[HH] |==|  0.01476
USER: genes 14 Torsion [N]-CA--C-[O] |==|  0.89982
USER: genes 15 Torsion [C]-CA--CB-[CG] |==|  0.34409
USER: genes 16 Torsion [CA]-CB--CG-[CD] |==|  0.52399
USER: genes 17 Torsion [CB]-CG--CD-[NE] |==|  0.35807
USER: genes 18 Torsion [CG]-CD--NE-[HE] |==|  0.77032
USER: genes 19 Torsion [C]-CA--N-[C] |==|  0.78226
USER: genes 20 Torsion [N]-C--CA-[N] |==|  0.41378
USER: genes 21 Torsion [C]-CA--N-[C] |==|  0.78476
USER: genes 22 Torsion [N]-C--CA-[N] |==|  0.14444
USER: genes 23 Torsion [C]-CA--N-[C] |==|  0.16815
USER: genes 24 Torsion [N]-C--CA-[N] |==|  0.50874
USER: genes 25 Torsion [C]-CA--CB-[CG] |==|  0.44583
USER: genes 26 Torsion [CA]-CB--CG-[CD1] |==|  0.71209
USER: genes 27 Torsion [C]-CA--CB-[CG] |==|  0.58079
USER: genes 28 Torsion [CA]-CB--CG-[CD] |==|  0.26352
USER: genes 29 Torsion [CB]-CG--CD-[CE] |==|  0.57803
USER: genes 30 Torsion [CG]-CD--CE-[NZ] |==|  0.37081
USER: genes 31 Torsion [CD]-CE--NZ-[HZ2] |==|  0.20901
ROOT
ATOM      1  CA  ARG B   9      -1.841  11.193   4.837  1.00 39.43 LIG 0.18  C 
ENDROOT
BRANCH 1 2
ATOM      2  C   ARG B   9      -2.172  10.099   5.834  1.00 41.90 LIG 0.24  C 
ATOM      3  N   LYS B  10      -1.362   9.041   5.833  1.00 39.13 LIG-0.35  N 
ATOM      4 H    LYS B  10      -0.724   8.932   5.266  1.00 39.13 LIG 0.16  HD
ATOM      5 O    ARG B   9      -3.141  10.214   6.596  1.00 39.79 LIG-0.27  OA
BRANCH 3 6
ATOM      6  CA  LYS B  10      -1.484   7.956   6.805  1.00 38.99 LIG 0.18  C 
BRANCH 6 7
ATOM      7  CB  LYS B  10      -2.445   6.850   6.310  1.00 41.38 LIG 0.04  C 
BRANCH 7 8
ATOM      8  CG  LYS B  10      -3.882   7.294   5.999  1.00 61.81 LIG 0.00  C 
BRANCH 8 9
ATOM      9  CD  LYS B  10      -4.720   6.184   5.330  1.00 75.86 LIG 0.03  C 
BRANCH 9 10
ATOM     10  CE  LYS B  10      -5.828   6.694   4.425  1.00 87.18 LIG 0.23  C 
BRANCH 10 11
ATOM     11  NZ  LYS B  10      -7.062   5.872   4.544  1.00 91.96 LIG-0.08  N 
ATOM     12 HZ1  LYS B  10      -7.675   6.172   3.973  1.00 91.96 LIG 0.27  HD
ATOM     13 HZ2  LYS B  10      -6.873   5.023   4.357  1.00 91.96 LIG 0.27  HD
ATOM     14 HZ3  LYS B  10      -7.378   5.929   5.374  1.00 91.96 LIG 0.27  HD
ENDBRANCH 10 11
ENDBRANCH 9 10
ENDBRANCH 8 9
ENDBRANCH 7 8
ENDBRANCH 6 7
BRANCH 6 15
ATOM     15  C   LYS B  10      -0.060   7.428   7.100  1.00 41.93 LIG 0.24  C 
ATOM     16  N   TYR B  11       0.136   6.777   8.264  1.00 37.73 LIG-0.35  N 
ATOM     17 H    TYR B  11      -0.497   6.659   8.834  1.00 37.73 LIG 0.16  HD
ATOM     18 O    LYS B  10       0.848   7.656   6.296  1.00 40.97 LIG-0.27  OA
BRANCH 16 19
ATOM     19  CA  TYR B  11       1.409   6.198   8.705  1.00 60.51 LIG 0.17  C 
BRANCH 19 20
ATOM     20  CB  TYR B  11       1.932   6.995   9.924  1.00 61.89 LIG 0.07  C 
BRANCH 20 21
ATOM     21  CG  TYR B  11       3.252   7.744   9.809  1.00 64.48 LIG-0.06  A 
ATOM     22  CD2 TYR B  11       3.569   8.771  10.690  1.00 66.36 LIG 0.01  A 
ATOM     23  CE2 TYR B  11       4.776   9.462  10.600  1.00 66.48 LIG 0.04  A 
ATOM     24  CZ  TYR B  11       5.671   9.155   9.593  1.00 73.62 LIG 0.07  A 
ATOM     25  CE1 TYR B  11       5.372   8.146   8.689  1.00 67.05 LIG 0.04  A 
ATOM     26  CD1 TYR B  11       4.158   7.461   8.789  1.00 65.84 LIG 0.01  A 
BRANCH 24 27
ATOM     27 OH   TYR B  11       6.851   9.855   9.517  1.00 74.96 LIG-0.36  OA
ATOM     28 HH   TYR B  11       6.915  10.370  10.178  1.00 74.96 LIG 0.22  HD
ENDBRANCH 24 27
ENDBRANCH 20 21
ENDBRANCH 19 20
BRANCH 19 29
ATOM     29  C   TYR B  11       1.219   4.710   9.032  1.00 76.68 LIG 0.22  C 
ATOM     30 O    TYR B  11       0.175   4.314   9.547  1.00 42.66 LIG-0.29  OA
ENDBRANCH 19 29
ENDBRANCH 16 19
ENDBRANCH 6 15
ENDBRANCH 3 6
ENDBRANCH 1 2
BRANCH 1 31
ATOM     31  CB  ARG B   9      -2.550  10.878   3.484  1.00 41.96 LIG 0.04  C 
BRANCH 31 32
ATOM     32  CG  ARG B   9      -3.488  11.952   2.903  1.00 54.96 LIG 0.02  C 
BRANCH 32 33
ATOM     33  CD  ARG B   9      -4.287  11.477   1.703  1.00 74.30 LIG 0.14  C 
BRANCH 33 34
ATOM     34  NE  ARG B   9      -5.721  11.746   1.858  1.00 92.04 LIG-0.23  N 
ATOM     35 HE   ARG B   9      -6.185  11.184   2.314  1.00 92.04 LIG 0.18  HD
ATOM     36  CZ  ARG B   9      -6.353  12.798   1.341  1.00114.26 LIG 0.67  C 
ATOM     37  NH2 ARG B   9      -7.658  12.954   1.529  1.00103.12 LIG-0.23  N 
ATOM     38  NH1 ARG B   9      -5.686  13.707   0.638  1.00104.54 LIG-0.23  N 
ATOM     39 1HH2 ARG B   9      -8.099  12.375   1.987  1.00103.12 LIG 0.17  HD
ATOM     40 2HH2 ARG B   9      -8.062  13.635   1.194  1.00103.12 LIG 0.17  HD
ATOM     41 1HH1 ARG B   9      -4.839  13.618   0.514  1.00104.54 LIG 0.17  HD
ATOM     42 2HH1 ARG B   9      -6.100  14.384   0.307  1.00104.54 LIG 0.17  HD
ENDBRANCH 33 34
ENDBRANCH 32 33
ENDBRANCH 31 32
ENDBRANCH 1 31
BRANCH 1 43
ATOM     43  N   ARG B   9      -0.388  11.328   4.690  1.00 39.07 LIG-0.35  N 
ATOM     44 H    ARG B   9      -0.078  10.957   3.978  1.00 39.07 LIG 0.16  HD
ATOM     45  C   LYS B   8       0.384  11.966   5.578  1.00 42.99 LIG 0.24  C 
ATOM     46 O    LYS B   8      -0.063  12.524   6.587  1.00 42.25 LIG-0.27  OA
BRANCH 45 47
ATOM     47  CA  LYS B   8       1.875  12.012   5.274  1.00 40.35 LIG 0.18  C 
BRANCH 47 48
ATOM     48  N   LYS B   8       2.455  13.241   5.807  1.00 42.07 LIG-0.35  N 
ATOM     49 H    LYS B   8       2.887  13.109   6.539  1.00 42.07 LIG 0.16  HD
ATOM     50  C   GLY B   7       2.353  14.452   5.261  1.00 50.14 LIG 0.24  C 
ATOM     51 O    GLY B   7       1.706  14.691   4.237  1.00 49.17 LIG-0.27  OA
BRANCH 50 52
ATOM     52  CA  GLY B   7       3.080  15.552   5.996  1.00 52.80 LIG 0.23  C 
BRANCH 52 53
ATOM     53  N   GLY B   7       4.467  15.180   6.232  1.00 55.58 LIG-0.35  N 
ATOM     54  C   LEU B   6       5.364  14.905   5.289  1.00 62.88 LIG 0.26  C 
ATOM     55 O    LEU B   6       5.121  14.934   4.077  1.00 62.93 LIG-0.27  OA
ATOM     56 H    GLY B   7       4.663  15.152   7.070  1.00 55.58 LIG 0.16  HD
BRANCH 54 57
ATOM     57  CA  LEU B   6       6.771  14.568   5.831  1.00 62.75 LIG 0.40  C 
ATOM     58  N   LEU B   6       7.690  14.357   4.712  1.00 63.15 LIG 0.61  N 
BRANCH 57 59
ATOM     59  CB  LEU B   6       7.300  15.647   6.808  1.00 63.26 LIG 0.06  C 
BRANCH 59 60
ATOM     60  CG  LEU B   6       8.448  15.232   7.761  1.00 68.65 LIG-0.02  C 
ATOM     61  CD1 LEU B   6       7.929  14.993   9.173  1.00 69.18 LIG 0.01  C 
ATOM     62  CD2 LEU B   6       9.207  14.000   7.248  1.00 70.70 LIG 0.01  C 
ENDBRANCH 59 60
ENDBRANCH 57 59
ENDBRANCH 54 57
ENDBRANCH 52 53
ENDBRANCH 50 52
ENDBRANCH 47 48
BRANCH 47 63
ATOM     63  CB  LYS B   8       2.574  10.772   5.866  1.00 41.14 LIG 0.04  C 
BRANCH 63 64
ATOM     64  CG  LYS B   8       4.029  10.991   6.257  1.00 42.09 LIG 0.00  C 
BRANCH 64 65
ATOM     65  CD  LYS B   8       4.141  11.345   7.729  1.00 43.68 LIG 0.03  C 
BRANCH 65 66
ATOM     66  CE  LYS B   8       5.357  12.196   7.990  1.00 41.10 LIG 0.23  C 
BRANCH 66 67
ATOM     67  NZ  LYS B   8       5.062  13.372   8.851  1.00 37.84 LIG-0.08  N 
ATOM     68 HZ3  LYS B   8       5.734  13.954   8.800  1.00 37.84 LIG 0.27  HD
ATOM     69 HZ2  LYS B   8       4.965  13.106   9.695  1.00 37.84 LIG 0.27  HD
ATOM     70 HZ1  LYS B   8       4.311  13.761   8.575  1.00 37.84 LIG 0.27  HD
ENDBRANCH 66 67
ENDBRANCH 65 66
ENDBRANCH 64 65
ENDBRANCH 63 64
ENDBRANCH 47 63
ENDBRANCH 45 47
ENDBRANCH 1 43
TORSDOF 30
ENDMDL
MODEL 10
USER: ADFR SOLUTION from run 88
USER: SCORE 23.176376 LL:  -4.100 LR: -20.659 RR:   0.000 FEB: -11.710
USER: RMSD 8.066782
USER: SEED 87
USER: STATUS no improvement in best in 3 clusters for 5 generations
USER: GENES 32
USER: genes 0 Translation |==|  0.54597 0.55805 0.35347
USER: genes 1 Rotation |==|  0.50815 0.98191 0.38233 0.56202
USER: genes 2 Torsion [N]-CA--C-[N] |==|  0.86180
USER: genes 3 Torsion [C]-N--CA-[CB] |==|  0.55000
USER: genes 4 Torsion [N]-CA--CB-[CG] |==|  0.38810
USER: genes 5 Torsion [CA]-CB--CG-[CD] |==|  0.31303
USER: genes 6 Torsion [CB]-CG--CD-[CE] |==|  0.36732
USER: genes 7 Torsion [CG]-CD--CE-[NZ] |==|  0.43075
USER: genes 8 Torsion [CD]-CE--NZ-[HZ1] |==|  0.99379
USER: genes 9 Torsion [N]-CA--C-[N] |==|  0.30443
USER: genes 10 Torsion [C]-N--CA-[C] |==|  0.13772
USER: genes 11 Torsion [N]-CA--CB-[CG] |==|  0.83796
USER: genes 12 Torsion [CA]-CB--CG-[CD2] |==|  0.91523
USER: genes 13 Torsion [CE2]-CZ--OH-[HH] |==|  0.70927
USER: genes 14 Torsion [N]-CA--C-[O] |==|  0.17519
USER: genes 15 Torsion [C]-CA--CB-[CG] |==|  0.30605
USER: genes 16 Torsion [CA]-CB--CG-[CD] |==|  0.76331
USER: genes 17 Torsion [CB]-CG--CD-[NE] |==|  0.49191
USER: genes 18 Torsion [CG]-CD--NE-[HE] |==|  0.88408
USER: genes 19 Torsion [C]-CA--N-[C] |==|  0.79801
USER: genes 20 Torsion [N]-C--CA-[N] |==|  0.58095
USER: genes 21 Torsion [C]-CA--N-[C] |==|  0.16653
USER: genes 22 Torsion [N]-C--CA-[N] |==|  0.90406
USER: genes 23 Torsion [C]-CA--N-[C] |==|  0.83130
USER: genes 24 Torsion [N]-C--CA-[N] |==|  0.43320
USER: genes 25 Torsion [C]-CA--CB-[CG] |==|  0.24392
USER: genes 26 Torsion [CA]-CB--CG-[CD1] |==|  0.70355
USER: genes 27 Torsion [C]-CA--CB-[CG] |==|  0.39542
USER: genes 28 Torsion [CA]-CB--CG-[CD] |==|  0.05853
USER: genes 29 Torsion [CB]-CG--CD-[CE] |==|  0.44005
USER: genes 30 Torsion [CG]-CD--CE-[NZ] |==|  0.39132
USER: genes 31 Torsion [CD]-CE--NZ-[HZ2] |==|  0.01208
ROOT
ATOM      1  CA  ARG B   9       0.047   6.689   7.479  1.00 39.43 LIG 0.18  C 
ENDROOT
BRANCH 1 2
ATOM      2  C   ARG B   9       0.427   5.224   7.396  1.00 41.90 LIG 0.24  C 
ATOM      3  N   LYS B  10       1.463   4.931   6.610  1.00 39.13 LIG-0.35  N 
ATOM      4 H    LYS B  10       1.864   5.511   6.119  1.00 39.13 LIG 0.16  HD
ATOM      5 O    ARG B   9      -0.203   4.372   8.038  1.00 39.79 LIG-0.27  OA
BRANCH 3 6
ATOM      6  CA  LYS B  10       2.017   3.582   6.510  1.00 38.99 LIG 0.18  C 
BRANCH 6 7
ATOM      7  CB  LYS B  10       3.441   3.593   5.908  1.00 41.38 LIG 0.04  C 
BRANCH 7 8
ATOM      8  CG  LYS B  10       4.452   2.630   6.549  1.00 61.81 LIG 0.00  C 
BRANCH 8 9
ATOM      9  CD  LYS B  10       4.880   1.492   5.599  1.00 75.86 LIG 0.03  C 
BRANCH 9 10
ATOM     10  CE  LYS B  10       6.379   1.264   5.528  1.00 87.18 LIG 0.23  C 
BRANCH 10 11
ATOM     11  NZ  LYS B  10       6.710  -0.128   5.121  1.00 91.96 LIG-0.08  N 
ATOM     12 HZ1  LYS B  10       5.958  -0.595   5.021  1.00 91.96 LIG 0.27  HD
ATOM     13 HZ2  LYS B  10       7.154  -0.115   4.350  1.00 91.96 LIG 0.27  HD
ATOM     14 HZ3  LYS B  10       7.214  -0.509   5.747  1.00 91.96 LIG 0.27  HD
ENDBRANCH 10 11
ENDBRANCH 9 10
ENDBRANCH 8 9
ENDBRANCH 7 8
ENDBRANCH 6 7
BRANCH 6 15
ATOM     15  C   LYS B  10       1.963   2.947   7.919  1.00 41.93 LIG 0.24  C 
ATOM     16  N   TYR B  11       1.079   1.949   8.122  1.00 37.73 LIG-0.35  N 
ATOM     17 H    TYR B  11       0.553   1.672   7.501  1.00 37.73 LIG 0.16  HD
ATOM     18 O    LYS B  10       2.688   3.395   8.813  1.00 40.97 LIG-0.27  OA
BRANCH 16 19
ATOM     19  CA  TYR B  11       0.899   1.223   9.383  1.00 60.51 LIG 0.17  C 
BRANCH 19 20
ATOM     20  CB  TYR B  11       2.098   0.269   9.595  1.00 61.89 LIG 0.07  C 
BRANCH 20 21
ATOM     21  CG  TYR B  11       2.398  -0.789   8.543  1.00 64.48 LIG-0.06  A 
ATOM     22  CD2 TYR B  11       1.378  -1.349   7.783  1.00 66.36 LIG 0.01  A 
ATOM     23  CE2 TYR B  11       1.638  -2.315   6.813  1.00 66.48 LIG 0.04  A 
ATOM     24  CZ  TYR B  11       2.930  -2.764   6.618  1.00 73.62 LIG 0.07  A 
ATOM     25  CE1 TYR B  11       3.966  -2.234   7.374  1.00 67.05 LIG 0.04  A 
ATOM     26  CD1 TYR B  11       3.692  -1.266   8.344  1.00 65.84 LIG 0.01  A 
BRANCH 24 27
ATOM     27 OH   TYR B  11       3.163  -3.724   5.662  1.00 74.96 LIG-0.36  OA
ATOM     28 HH   TYR B  11       3.295  -4.465   6.036  1.00 74.96 LIG 0.22  HD
ENDBRANCH 24 27
ENDBRANCH 20 21
ENDBRANCH 19 20
BRANCH 19 29
ATOM     29  C   TYR B  11       0.748   2.220  10.540  1.00 76.68 LIG 0.22  C 
ATOM     30 O    TYR B  11      -0.203   2.999  10.572  1.00 42.66 LIG-0.29  OA
ENDBRANCH 19 29
ENDBRANCH 16 19
ENDBRANCH 6 15
ENDBRANCH 3 6
ENDBRANCH 1 2
BRANCH 1 31
ATOM     31  CB  ARG B   9      -0.666   7.105   6.156  1.00 41.96 LIG 0.04  C 
BRANCH 31 32
ATOM     32  CG  ARG B   9      -2.173   7.411   6.222  1.00 54.96 LIG 0.02  C 
BRANCH 32 33
ATOM     33  CD  ARG B   9      -3.050   6.179   6.097  1.00 74.30 LIG 0.14  C 
BRANCH 33 34
ATOM     34  NE  ARG B   9      -4.475   6.503   6.233  1.00 92.04 LIG-0.23  N 
ATOM     35 HE   ARG B   9      -4.699   7.067   6.843  1.00 92.04 LIG 0.18  HD
ATOM     36  CZ  ARG B   9      -5.444   5.987   5.479  1.00114.26 LIG 0.67  C 
ATOM     37  NH2 ARG B   9      -6.708   6.337   5.681  1.00103.12 LIG-0.23  N 
ATOM     38  NH1 ARG B   9      -5.157   5.122   4.512  1.00104.54 LIG-0.23  N 
ATOM     39 1HH2 ARG B   9      -6.905   6.900   6.301  1.00103.12 LIG 0.17  HD
ATOM     40 2HH2 ARG B   9      -7.331   6.002   5.191  1.00103.12 LIG 0.17  HD
ATOM     41 1HH1 ARG B   9      -4.340   4.892   4.370  1.00104.54 LIG 0.17  HD
ATOM     42 2HH1 ARG B   9      -5.787   4.792   4.029  1.00104.54 LIG 0.17  HD
ENDBRANCH 33 34
ENDBRANCH 32 33
ENDBRANCH 31 32
ENDBRANCH 1 31
BRANCH 1 43
ATOM     43  N   ARG B   9       1.229   7.509   7.761  1.00 39.07 LIG-0.35  N 
ATOM     44 H    ARG B   9       1.499   7.968   7.085  1.00 39.07 LIG 0.16  HD
ATOM     45  C   LYS B   8       1.835   7.541   8.954  1.00 42.99 LIG 0.24  C 
ATOM     46 O    LYS B   8       1.433   6.904   9.935  1.00 42.25 LIG-0.27  OA
BRANCH 45 47
ATOM     47  CA  LYS B   8       3.054   8.445   9.074  1.00 40.35 LIG 0.18  C 
BRANCH 47 48
ATOM     48  N   LYS B   8       3.973   7.911  10.075  1.00 42.07 LIG-0.35  N 
ATOM     49 H    LYS B   8       4.109   8.460  10.722  1.00 42.07 LIG 0.16  HD
ATOM     50  C   GLY B   7       4.560   6.715  10.035  1.00 50.14 LIG 0.24  C 
ATOM     51 O    GLY B   7       4.425   5.915   9.103  1.00 49.17 LIG-0.27  OA
BRANCH 50 52
ATOM     52  CA  GLY B   7       5.438   6.390  11.219  1.00 52.80 LIG 0.23  C 
BRANCH 52 53
ATOM     53  N   GLY B   7       6.103   7.589  11.707  1.00 55.58 LIG-0.35  N 
ATOM     54  C   LEU B   6       6.943   8.345  11.005  1.00 62.88 LIG 0.26  C 
ATOM     55 O    LEU B   6       7.264   8.115   9.834  1.00 62.93 LIG-0.27  OA
ATOM     56 H    GLY B   7       5.897   7.772  12.522  1.00 55.58 LIG 0.16  HD
BRANCH 54 57
ATOM     57  CA  LEU B   6       7.477   9.577  11.770  1.00 62.75 LIG 0.40  C 
ATOM     58  N   LEU B   6       8.755   9.997  11.193  1.00 63.15 LIG 0.61  N 
BRANCH 57 59
ATOM     59  CB  LEU B   6       6.454  10.740  11.799  1.00 63.26 LIG 0.06  C 
BRANCH 59 60
ATOM     60  CG  LEU B   6       5.425  10.743  12.956  1.00 68.65 LIG-0.02  C 
ATOM     61  CD1 LEU B   6       4.039  10.354  12.457  1.00 69.18 LIG 0.01  C 
ATOM     62  CD2 LEU B   6       5.857   9.834  14.116  1.00 70.70 LIG 0.01  C 
ENDBRANCH 59 60
ENDBRANCH 57 59
ENDBRANCH 54 57
ENDBRANCH 52 53
ENDBRANCH 50 52
ENDBRANCH 47 48
BRANCH 47 63
ATOM     63  CB  LYS B   8       3.750   8.580   7.705  1.00 41.14 LIG 0.04  C 
BRANCH 63 64
ATOM     64  CG  LYS B   8       4.309   9.966   7.412  1.00 42.09 LIG 0.00  C 
BRANCH 64 65
ATOM     65  CD  LYS B   8       4.514  10.742   8.700  1.00 43.68 LIG 0.03  C 
BRANCH 65 66
ATOM     66  CE  LYS B   8       5.516  11.853   8.507  1.00 41.10 LIG 0.23  C 
BRANCH 66 67
ATOM     67  NZ  LYS B   8       5.140  13.097   9.231  1.00 37.84 LIG-0.08  N 
ATOM     68 HZ3  LYS B   8       5.805  13.339   9.771  1.00 37.84 LIG 0.27  HD
ATOM     69 HZ2  LYS B   8       4.406  12.951   9.713  1.00 37.84 LIG 0.27  HD
ATOM     70 HZ1  LYS B   8       4.984  13.747   8.643  1.00 37.84 LIG 0.27  HD
ENDBRANCH 66 67
ENDBRANCH 65 66
ENDBRANCH 64 65
ENDBRANCH 63 64
ENDBRANCH 47 63
ENDBRANCH 45 47
ENDBRANCH 1 43
TORSDOF 30
ENDMDL
MODEL 11
USER: ADFR SOLUTION from run 36
USER: SCORE 22.082059 LL:  -3.495 LR: -20.470 RR:   0.000 FEB: -11.521
USER: RMSD 11.309730
USER: SEED 35
USER: STATUS 1 or 2 clusters left
USER: GENES 32
USER: genes 0 Translation |==|  0.60530 0.56908 0.38555
USER: genes 1 Rotation |==|  0.13426 0.19712 0.34363 0.50691
USER: genes 2 Torsion [N]-CA--C-[N] |==|  0.28853
USER: genes 3 Torsion [C]-N--CA-[CB] |==|  0.46235
USER: genes 4 Torsion [N]-CA--CB-[CG] |==|  0.74195
USER: genes 5 Torsion [CA]-CB--CG-[CD] |==|  0.54334
USER: genes 6 Torsion [CB]-CG--CD-[CE] |==|  0.30415
USER: genes 7 Torsion [CG]-CD--CE-[NZ] |==|  0.44110
USER: genes 8 Torsion [CD]-CE--NZ-[HZ1] |==|  0.72538
USER: genes 9 Torsion [N]-CA--C-[N] |==|  0.27254
USER: genes 10 Torsion [C]-N--CA-[C] |==|  0.58292
USER: genes 11 Torsion [N]-CA--CB-[CG] |==|  0.61021
USER: genes 12 Torsion [CA]-CB--CG-[CD2] |==|  0.64099
USER: genes 13 Torsion [CE2]-CZ--OH-[HH] |==|  0.71265
USER: genes 14 Torsion [N]-CA--C-[O] |==|  0.40821
USER: genes 15 Torsion [C]-CA--CB-[CG] |==|  0.37730
USER: genes 16 Torsion [CA]-CB--CG-[CD] |==|  0.44540
USER: genes 17 Torsion [CB]-CG--CD-[NE] |==|  0.32798
USER: genes 18 Torsion [CG]-CD--NE-[HE] |==|  0.13767
USER: genes 19 Torsion [C]-CA--N-[C] |==|  0.71357
USER: genes 20 Torsion [N]-C--CA-[N] |==|  0.97658
USER: genes 21 Torsion [C]-CA--N-[C] |==|  0.70587
USER: genes 22 Torsion [N]-C--CA-[N] |==|  0.37310
USER: genes 23 Torsion [C]-CA--N-[C] |==|  0.80309
USER: genes 24 Torsion [N]-C--CA-[N] |==|  0.17800
USER: genes 25 Torsion [C]-CA--CB-[CG] |==|  0.26944
USER: genes 26 Torsion [CA]-CB--CG-[CD1] |==|  0.69882
USER: genes 27 Torsion [C]-CA--CB-[CG] |==|  0.41336
USER: genes 28 Torsion [CA]-CB--CG-[CD] |==|  0.15149
USER: genes 29 Torsion [CB]-CG--CD-[CE] |==|  0.66550
USER: genes 30 Torsion [CG]-CD--CE-[NZ] |==|  0.16824
USER: genes 31 Torsion [CD]-CE--NZ-[HZ2] |==|  0.13494
ROOT
ATOM      1  CA  ARG B   9       1.337   6.987   8.273  1.00 39.43 LIG 0.18  C 
ENDROOT
BRANCH 1 2
ATOM      2  C   ARG B   9       0.580   7.375   7.018  1.00 41.90 LIG 0.24  C 
ATOM      3  N   LYS B  10      -0.742   7.492   7.144  1.00 39.13 LIG-0.35  N 
ATOM      4 H    LYS B  10      -1.168   7.299   7.866  1.00 39.13 LIG 0.16  HD
ATOM      5 O    ARG B   9       1.182   7.572   5.954  1.00 39.79 LIG-0.27  OA
BRANCH 3 6
ATOM      6  CA  LYS B  10      -1.597   7.963   6.057  1.00 38.99 LIG 0.18  C 
BRANCH 6 7
ATOM      7  CB  LYS B  10      -3.091   7.688   6.344  1.00 41.38 LIG 0.04  C 
BRANCH 7 8
ATOM      8  CG  LYS B  10      -3.653   6.369   5.793  1.00 61.81 LIG 0.00  C 
BRANCH 8 9
ATOM      9  CD  LYS B  10      -5.196   6.336   5.777  1.00 75.86 LIG 0.03  C 
BRANCH 9 10
ATOM     10  CE  LYS B  10      -5.810   6.400   4.390  1.00 87.18 LIG 0.23  C 
BRANCH 10 11
ATOM     11  NZ  LYS B  10      -7.200   5.870   4.374  1.00 91.96 LIG-0.08  N 
ATOM     12 HZ1  LYS B  10      -7.196   5.030   4.081  1.00 91.96 LIG 0.27  HD
ATOM     13 HZ2  LYS B  10      -7.536   5.894   5.198  1.00 91.96 LIG 0.27  HD
ATOM     14 HZ3  LYS B  10      -7.703   6.369   3.834  1.00 91.96 LIG 0.27  HD
ENDBRANCH 10 11
ENDBRANCH 9 10
ENDBRANCH 8 9
ENDBRANCH 7 8
ENDBRANCH 6 7
BRANCH 6 15
ATOM     15  C   LYS B  10      -1.293   9.464   5.837  1.00 41.93 LIG 0.24  C 
ATOM     16  N   TYR B  11      -0.445   9.790   4.840  1.00 37.73 LIG-0.35  N 
ATOM     17 H    TYR B  11      -0.073   9.194   4.343  1.00 37.73 LIG 0.16  HD
ATOM     18 O    LYS B  10      -1.791  10.300   6.595  1.00 40.97 LIG-0.27  OA
BRANCH 16 19
ATOM     19  CA  TYR B  11      -0.051  11.155   4.478  1.00 60.51 LIG 0.17  C 
BRANCH 19 20
ATOM     20  CB  TYR B  11       1.160  11.579   5.341  1.00 61.89 LIG 0.07  C 
BRANCH 20 21
ATOM     21  CG  TYR B  11       1.226  13.001   5.878  1.00 64.48 LIG-0.06  A 
ATOM     22  CD2 TYR B  11       2.365  13.779   5.702  1.00 66.36 LIG 0.01  A 
ATOM     23  CE2 TYR B  11       2.437  15.085   6.184  1.00 66.48 LIG 0.04  A 
ATOM     24  CZ  TYR B  11       1.375  15.618   6.887  1.00 73.62 LIG 0.07  A 
ATOM     25  CE1 TYR B  11       0.232  14.859   7.093  1.00 67.05 LIG 0.04  A 
ATOM     26  CD1 TYR B  11       0.171  13.550   6.605  1.00 65.84 LIG 0.01  A 
BRANCH 24 27
ATOM     27 OH   TYR B  11       1.470  16.905   7.361  1.00 74.96 LIG-0.36  OA
ATOM     28 HH   TYR B  11       1.623  16.888   8.187  1.00 74.96 LIG 0.22  HD
ENDBRANCH 24 27
ENDBRANCH 20 21
ENDBRANCH 19 20
BRANCH 19 29
ATOM     29  C   TYR B  11       0.262  11.224   2.977  1.00 76.68 LIG 0.22  C 
ATOM     30 O    TYR B  11       0.025  12.248   2.337  1.00 42.66 LIG-0.29  OA
ENDBRANCH 19 29
ENDBRANCH 16 19
ENDBRANCH 6 15
ENDBRANCH 3 6
ENDBRANCH 1 2
BRANCH 1 31
ATOM     31  CB  ARG B   9       2.558   7.943   8.445  1.00 41.96 LIG 0.04  C 
BRANCH 31 32
ATOM     32  CG  ARG B   9       2.832   8.505   9.852  1.00 54.96 LIG 0.02  C 
BRANCH 32 33
ATOM     33  CD  ARG B   9       4.249   9.015  10.037  1.00 74.30 LIG 0.14  C 
BRANCH 33 34
ATOM     34  NE  ARG B   9       4.280  10.450  10.340  1.00 92.04 LIG-0.23  N 
ATOM     35 HE   ARG B   9       3.765  10.738  10.965  1.00 92.04 LIG 0.18  HD
ATOM     36  CZ  ARG B   9       5.052  11.339   9.716  1.00114.26 LIG 0.67  C 
ATOM     37  NH2 ARG B   9       5.007  12.621  10.056  1.00103.12 LIG-0.23  N 
ATOM     38  NH1 ARG B   9       5.880  10.952   8.751  1.00104.54 LIG-0.23  N 
ATOM     39 1HH2 ARG B   9       4.478  12.882  10.682  1.00103.12 LIG 0.17  HD
ATOM     40 2HH2 ARG B   9       5.507  13.191   9.650  1.00103.12 LIG 0.17  HD
ATOM     41 1HH1 ARG B   9       5.920  10.122   8.526  1.00104.54 LIG 0.17  HD
ATOM     42 2HH1 ARG B   9       6.375  11.530   8.351  1.00104.54 LIG 0.17  HD
ENDBRANCH 33 34
ENDBRANCH 32 33
ENDBRANCH 31 32
ENDBRANCH 1 31
BRANCH 1 43
ATOM     43  N   ARG B   9       1.732   5.577   8.216  1.00 39.07 LIG-0.35  N 
ATOM     44 H    ARG B   9       2.408   5.429   7.705  1.00 39.07 LIG 0.16  HD
ATOM     45  C   LYS B   8       1.103   4.609   8.894  1.00 42.99 LIG 0.24  C 
ATOM     46 O    LYS B   8       0.150   4.823   9.652  1.00 42.25 LIG-0.27  OA
BRANCH 45 47
ATOM     47  CA  LYS B   8       1.642   3.195   8.719  1.00 40.35 LIG 0.18  C 
BRANCH 47 48
ATOM     48  N   LYS B   8       2.647   3.174   7.660  1.00 42.07 LIG-0.35  N 
ATOM     49 H    LYS B   8       3.391   3.527   7.907  1.00 42.07 LIG 0.16  HD
ATOM     50  C   GLY B   7       2.479   2.675   6.436  1.00 50.14 LIG 0.24  C 
ATOM     51 O    GLY B   7       1.414   2.199   6.028  1.00 49.17 LIG-0.27  OA
BRANCH 50 52
ATOM     52  CA  GLY B   7       3.694   2.743   5.541  1.00 52.80 LIG 0.23  C 
BRANCH 52 53
ATOM     53  N   GLY B   7       3.895   1.476   4.855  1.00 55.58 LIG-0.35  N 
ATOM     54  C   LEU B   6       4.302   0.345   5.426  1.00 62.88 LIG 0.26  C 
ATOM     55 O    LEU B   6       4.564   0.235   6.629  1.00 62.93 LIG-0.27  OA
ATOM     56 H    GLY B   7       3.719   1.524   4.014  1.00 55.58 LIG 0.16  HD
BRANCH 54 57
ATOM     57  CA  LEU B   6       4.399  -0.855   4.457  1.00 62.75 LIG 0.40  C 
ATOM     58  N   LEU B   6       5.422  -0.588   3.445  1.00 63.15 LIG 0.61  N 
BRANCH 57 59
ATOM     59  CB  LEU B   6       4.665  -2.189   5.199  1.00 63.26 LIG 0.06  C 
BRANCH 59 60
ATOM     60  CG  LEU B   6       3.437  -3.080   5.506  1.00 68.65 LIG-0.02  C 
ATOM     61  CD1 LEU B   6       3.112  -3.072   6.994  1.00 69.18 LIG 0.01  C 
ATOM     62  CD2 LEU B   6       2.207  -2.673   4.681  1.00 70.70 LIG 0.01  C 
ENDBRANCH 59 60
ENDBRANCH 57 59
ENDBRANCH 54 57
ENDBRANCH 52 53
ENDBRANCH 50 52
ENDBRANCH 47 48
BRANCH 47 63
ATOM     63  CB  LYS B   8       2.233   2.687  10.049  1.00 41.14 LIG 0.04  C 
BRANCH 63 64
ATOM     64  CG  LYS B   8       2.116   1.183  10.259  1.00 42.09 LIG 0.00  C 
BRANCH 64 65
ATOM     65  CD  LYS B   8       2.724   0.430   9.090  1.00 43.68 LIG 0.03  C 
BRANCH 65 66
ATOM     66  CE  LYS B   8       1.699  -0.452   8.423  1.00 41.10 LIG 0.23  C 
BRANCH 66 67
ATOM     67  NZ  LYS B   8       0.547   0.316   7.879  1.00 37.84 LIG-0.08  N 
ATOM     68 HZ3  LYS B   8       0.058  -0.213   7.357  1.00 37.84 LIG 0.27  HD
ATOM     69 HZ2  LYS B   8       0.847   1.006   7.403  1.00 37.84 LIG 0.27  HD
ATOM     70 HZ1  LYS B   8       0.046   0.615   8.551  1.00 37.84 LIG 0.27  HD
ENDBRANCH 66 67
ENDBRANCH 65 66
ENDBRANCH 64 65
ENDBRANCH 63 64
ENDBRANCH 47 63
ENDBRANCH 45 47
ENDBRANCH 1 43
TORSDOF 30
ENDMDL
MODEL 12
USER: ADFR SOLUTION from run 76
USER: SCORE 23.003798 LL:  -3.217 LR: -20.443 RR:   0.000 FEB: -11.494
USER: RMSD 6.588832
USER: SEED 75
USER: STATUS no improvement in best in 11 clusters for 5 generations
USER: GENES 32
USER: genes 0 Translation |==|  0.62938 0.52534 0.42210
USER: genes 1 Rotation |==|  0.49157 0.97642 0.38178 0.59475
USER: genes 2 Torsion [N]-CA--C-[N] |==|  0.39668
USER: genes 3 Torsion [C]-N--CA-[CB] |==|  0.84948
USER: genes 4 Torsion [N]-CA--CB-[CG] |==|  0.43841
USER: genes 5 Torsion [CA]-CB--CG-[CD] |==|  0.64539
USER: genes 6 Torsion [CB]-CG--CD-[CE] |==|  0.58736
USER: genes 7 Torsion [CG]-CD--CE-[NZ] |==|  0.51533
USER: genes 8 Torsion [CD]-CE--NZ-[HZ1] |==|  0.95321
USER: genes 9 Torsion [N]-CA--C-[N] |==|  0.34062
USER: genes 10 Torsion [C]-N--CA-[C] |==|  0.68740
USER: genes 11 Torsion [N]-CA--CB-[CG] |==|  0.54267
USER: genes 12 Torsion [CA]-CB--CG-[CD2] |==|  0.47571
USER: genes 13 Torsion [CE2]-CZ--OH-[HH] |==|  0.89525
USER: genes 14 Torsion [N]-CA--C-[O] |==|  0.85904
USER: genes 15 Torsion [C]-CA--CB-[CG] |==|  0.18968
USER: genes 16 Torsion [CA]-CB--CG-[CD] |==|  0.41621
USER: genes 17 Torsion [CB]-CG--CD-[NE] |==|  0.52459
USER: genes 18 Torsion [CG]-CD--NE-[HE] |==|  0.83892
USER: genes 19 Torsion [C]-CA--N-[C] |==|  0.66111
USER: genes 20 Torsion [N]-C--CA-[N] |==|  0.07468
USER: genes 21 Torsion [C]-CA--N-[C] |==|  0.70424
USER: genes 22 Torsion [N]-C--CA-[N] |==|  0.11337
USER: genes 23 Torsion [C]-CA--N-[C] |==|  0.15000
USER: genes 24 Torsion [N]-C--CA-[N] |==|  0.30401
USER: genes 25 Torsion [C]-CA--CB-[CG] |==|  0.72055
USER: genes 26 Torsion [CA]-CB--CG-[CD1] |==|  0.15777
USER: genes 27 Torsion [C]-CA--CB-[CG] |==|  0.46783
USER: genes 28 Torsion [CA]-CB--CG-[CD] |==|  0.90463
USER: genes 29 Torsion [CB]-CG--CD-[CE] |==|  0.49888
USER: genes 30 Torsion [CG]-CD--CE-[NZ] |==|  0.72534
USER: genes 31 Torsion [CD]-CE--NZ-[HZ2] |==|  0.34143
ROOT
ATOM      1  CA  ARG B   9       1.861   5.806   9.178  1.00 39.43 LIG 0.18  C 
ENDROOT
BRANCH 1 2
ATOM      2  C   ARG B   9       2.382   4.382   9.172  1.00 41.90 LIG 0.24  C 
ATOM      3  N   LYS B  10       1.532   3.445   9.592  1.00 39.13 LIG-0.35  N 
ATOM      4 H    LYS B  10       0.755   3.621   9.914  1.00 39.13 LIG 0.16  HD
ATOM      5 O    ARG B   9       3.533   4.134   8.787  1.00 39.79 LIG-0.27  OA
BRANCH 3 6
ATOM      6  CA  LYS B  10       1.847   2.019   9.543  1.00 38.99 LIG 0.18  C 
BRANCH 6 7
ATOM      7  CB  LYS B  10       2.265   1.574   8.122  1.00 41.38 LIG 0.04  C 
BRANCH 7 8
ATOM      8  CG  LYS B  10       3.103   0.289   8.037  1.00 61.81 LIG 0.00  C 
BRANCH 8 9
ATOM      9  CD  LYS B  10       4.402   0.476   7.224  1.00 75.86 LIG 0.03  C 
BRANCH 9 10
ATOM     10  CE  LYS B  10       4.861  -0.766   6.481  1.00 87.18 LIG 0.23  C 
BRANCH 10 11
ATOM     11  NZ  LYS B  10       6.181  -0.564   5.826  1.00 91.96 LIG-0.08  N 
ATOM     12 HZ1  LYS B  10       6.358   0.307   5.775  1.00 91.96 LIG 0.27  HD
ATOM     13 HZ2  LYS B  10       6.814  -0.967   6.303  1.00 91.96 LIG 0.27  HD
ATOM     14 HZ3  LYS B  10       6.162  -0.910   5.006  1.00 91.96 LIG 0.27  HD
ENDBRANCH 10 11
ENDBRANCH 9 10
ENDBRANCH 8 9
ENDBRANCH 7 8
ENDBRANCH 6 7
BRANCH 6 15
ATOM     15  C   LYS B  10       2.937   1.743  10.606  1.00 41.93 LIG 0.24  C 
ATOM     16  N   TYR B  11       2.665   0.827  11.557  1.00 37.73 LIG-0.35  N 
ATOM     17 H    TYR B  11       1.913   0.411  11.588  1.00 37.73 LIG 0.16  HD
ATOM     18 O    LYS B  10       3.988   2.390  10.577  1.00 40.97 LIG-0.27  OA
BRANCH 16 19
ATOM     19  CA  TYR B  11       3.579   0.427  12.632  1.00 60.51 LIG 0.17  C 
BRANCH 19 20
ATOM     20  CB  TYR B  11       2.875   0.628  13.995  1.00 61.89 LIG 0.07  C 
BRANCH 20 21
ATOM     21  CG  TYR B  11       3.710   0.626  15.268  1.00 64.48 LIG-0.06  A 
ATOM     22  CD2 TYR B  11       3.150   0.980  16.489  1.00 66.36 LIG 0.01  A 
ATOM     23  CE2 TYR B  11       3.901   0.977  17.663  1.00 66.48 LIG 0.04  A 
ATOM     24  CZ  TYR B  11       5.243   0.653  17.621  1.00 73.62 LIG 0.07  A 
ATOM     25  CE1 TYR B  11       5.832   0.312  16.412  1.00 67.05 LIG 0.04  A 
ATOM     26  CD1 TYR B  11       5.069   0.319  15.241  1.00 65.84 LIG 0.01  A 
BRANCH 24 27
ATOM     27 OH   TYR B  11       5.967   0.665  18.789  1.00 74.96 LIG-0.36  OA
ATOM     28 HH   TYR B  11       5.712   1.305  19.270  1.00 74.96 LIG 0.22  HD
ENDBRANCH 24 27
ENDBRANCH 20 21
ENDBRANCH 19 20
BRANCH 19 29
ATOM     29  C   TYR B  11       4.021  -1.028  12.424  1.00 76.68 LIG 0.22  C 
ATOM     30 O    TYR B  11       3.187  -1.911  12.231  1.00 42.66 LIG-0.29  OA
ENDBRANCH 19 29
ENDBRANCH 16 19
ENDBRANCH 6 15
ENDBRANCH 3 6
ENDBRANCH 1 2
BRANCH 1 31
ATOM     31  CB  ARG B   9       1.268   6.136   7.774  1.00 41.96 LIG 0.04  C 
BRANCH 31 32
ATOM     32  CG  ARG B   9      -0.021   5.405   7.353  1.00 54.96 LIG 0.02  C 
BRANCH 32 33
ATOM     33  CD  ARG B   9      -0.901   6.214   6.419  1.00 74.30 LIG 0.14  C 
BRANCH 33 34
ATOM     34  NE  ARG B   9      -2.206   5.578   6.208  1.00 92.04 LIG-0.23  N 
ATOM     35 HE   ARG B   9      -2.215   4.780   5.890  1.00 92.04 LIG 0.18  HD
ATOM     36  CZ  ARG B   9      -3.379   6.151   6.475  1.00114.26 LIG 0.67  C 
ATOM     37  NH2 ARG B   9      -4.512   5.498   6.244  1.00103.12 LIG-0.23  N 
ATOM     38  NH1 ARG B   9      -3.430   7.379   6.981  1.00104.54 LIG-0.23  N 
ATOM     39 1HH2 ARG B   9      -4.491   4.701   5.921  1.00103.12 LIG 0.17  HD
ATOM     40 2HH2 ARG B   9      -5.266   5.871   6.419  1.00103.12 LIG 0.17  HD
ATOM     41 1HH1 ARG B   9      -2.701   7.809   7.139  1.00104.54 LIG 0.17  HD
ATOM     42 2HH1 ARG B   9      -4.190   7.743   7.151  1.00104.54 LIG 0.17  HD
ENDBRANCH 33 34
ENDBRANCH 32 33
ENDBRANCH 31 32
ENDBRANCH 1 31
BRANCH 1 43
ATOM     43  N   ARG B   9       2.923   6.738   9.571  1.00 39.07 LIG-0.35  N 
ATOM     44 H    ARG B   9       3.616   6.704   9.063  1.00 39.07 LIG 0.16  HD
ATOM     45  C   LYS B   8       2.826   7.562  10.621  1.00 42.99 LIG 0.24  C 
ATOM     46 O    LYS B   8       1.819   7.632  11.337  1.00 42.25 LIG-0.27  OA
BRANCH 45 47
ATOM     47  CA  LYS B   8       4.023   8.463  10.892  1.00 40.35 LIG 0.18  C 
BRANCH 47 48
ATOM     48  N   LYS B   8       4.748   8.713   9.649  1.00 42.07 LIG-0.35  N 
ATOM     49 H    LYS B   8       4.330   9.255   9.129  1.00 42.07 LIG 0.16  HD
ATOM     50  C   GLY B   7       5.925   8.185   9.313  1.00 50.14 LIG 0.24  C 
ATOM     51 O    GLY B   7       6.536   7.370  10.011  1.00 49.17 LIG-0.27  OA
BRANCH 50 52
ATOM     52  CA  GLY B   7       6.477   8.640   7.983  1.00 52.80 LIG 0.23  C 
BRANCH 52 53
ATOM     53  N   GLY B   7       6.253  10.065   7.796  1.00 55.58 LIG-0.35  N 
ATOM     54  C   LEU B   6       6.620  11.022   8.644  1.00 62.88 LIG 0.26  C 
ATOM     55 O    LEU B   6       7.206  10.810   9.712  1.00 62.93 LIG-0.27  OA
ATOM     56 H    GLY B   7       5.846  10.241   7.059  1.00 55.58 LIG 0.16  HD
BRANCH 54 57
ATOM     57  CA  LEU B   6       6.278  12.453   8.172  1.00 62.75 LIG 0.40  C 
ATOM     58  N   LEU B   6       5.199  12.997   8.998  1.00 63.15 LIG 0.61  N 
BRANCH 57 59
ATOM     59  CB  LEU B   6       7.518  13.383   8.168  1.00 63.26 LIG 0.06  C 
BRANCH 59 60
ATOM     60  CG  LEU B   6       7.672  14.355   9.363  1.00 68.65 LIG-0.02  C 
ATOM     61  CD1 LEU B   6       7.688  13.600  10.686  1.00 69.18 LIG 0.01  C 
ATOM     62  CD2 LEU B   6       8.919  15.241   9.230  1.00 70.70 LIG 0.01  C 
ENDBRANCH 59 60
ENDBRANCH 57 59
ENDBRANCH 54 57
ENDBRANCH 52 53
ENDBRANCH 50 52
ENDBRANCH 47 48
BRANCH 47 63
ATOM     63  CB  LYS B   8       3.556   9.785  11.532  1.00 41.14 LIG 0.04  C 
BRANCH 63 64
ATOM     64  CG  LYS B   8       4.678  10.646  12.098  1.00 42.09 LIG 0.00  C 
BRANCH 64 65
ATOM     65  CD  LYS B   8       5.784   9.775  12.668  1.00 43.68 LIG 0.03  C 
BRANCH 65 66
ATOM     66  CE  LYS B   8       6.904  10.618  13.223  1.00 41.10 LIG 0.23  C 
BRANCH 66 67
ATOM     67  NZ  LYS B   8       8.047  10.747  12.279  1.00 37.84 LIG-0.08  N 
ATOM     68 HZ3  LYS B   8       8.773  10.381  12.641  1.00 37.84 LIG 0.27  HD
ATOM     69 HZ2  LYS B   8       8.201  11.608  12.115  1.00 37.84 LIG 0.27  HD
ATOM     70 HZ1  LYS B   8       7.852  10.330  11.518  1.00 37.84 LIG 0.27  HD
ENDBRANCH 66 67
ENDBRANCH 65 66
ENDBRANCH 64 65
ENDBRANCH 63 64
ENDBRANCH 47 63
ENDBRANCH 45 47
ENDBRANCH 1 43
TORSDOF 30
ENDMDL
MODEL 13
USER: ADFR SOLUTION from run 39
USER: SCORE 22.377929 LL:  -3.524 LR: -20.428 RR:   0.000 FEB: -11.479
USER: RMSD 8.093858
USER: SEED 38
USER: STATUS no improvement in best in 11 clusters for 5 generations
USER: GENES 32
USER: genes 0 Translation |==|  0.45616 0.71647 0.24201
USER: genes 1 Rotation |==|  0.60244 0.87757 0.19078 0.53650
USER: genes 2 Torsion [N]-CA--C-[N] |==|  0.87421
USER: genes 3 Torsion [C]-N--CA-[CB] |==|  0.24810
USER: genes 4 Torsion [N]-CA--CB-[CG] |==|  0.84464
USER: genes 5 Torsion [CA]-CB--CG-[CD] |==|  0.47537
USER: genes 6 Torsion [CB]-CG--CD-[CE] |==|  0.58513
USER: genes 7 Torsion [CG]-CD--CE-[NZ] |==|  0.55011
USER: genes 8 Torsion [CD]-CE--NZ-[HZ1] |==|  0.55293
USER: genes 9 Torsion [N]-CA--C-[N] |==|  0.36938
USER: genes 10 Torsion [C]-N--CA-[C] |==|  0.15811
USER: genes 11 Torsion [N]-CA--CB-[CG] |==|  0.65763
USER: genes 12 Torsion [CA]-CB--CG-[CD2] |==|  0.22242
USER: genes 13 Torsion [CE2]-CZ--OH-[HH] |==|  0.06829
USER: genes 14 Torsion [N]-CA--C-[O] |==|  0.10549
USER: genes 15 Torsion [C]-CA--CB-[CG] |==|  0.99046
USER: genes 16 Torsion [CA]-CB--CG-[CD] |==|  0.67967
USER: genes 17 Torsion [CB]-CG--CD-[NE] |==|  0.27455
USER: genes 18 Torsion [CG]-CD--NE-[HE] |==|  0.79056
USER: genes 19 Torsion [C]-CA--N-[C] |==|  0.78335
USER: genes 20 Torsion [N]-C--CA-[N] |==|  0.41620
USER: genes 21 Torsion [C]-CA--N-[C] |==|  0.77346
USER: genes 22 Torsion [N]-C--CA-[N] |==|  0.14991
USER: genes 23 Torsion [C]-CA--N-[C] |==|  0.16281
USER: genes 24 Torsion [N]-C--CA-[N] |==|  0.49764
USER: genes 25 Torsion [C]-CA--CB-[CG] |==|  0.45078
USER: genes 26 Torsion [CA]-CB--CG-[CD1] |==|  0.82775
USER: genes 27 Torsion [C]-CA--CB-[CG] |==|  0.57894
USER: genes 28 Torsion [CA]-CB--CG-[CD] |==|  0.26679
USER: genes 29 Torsion [CB]-CG--CD-[CE] |==|  0.57646
USER: genes 30 Torsion [CG]-CD--CE-[NZ] |==|  0.37070
USER: genes 31 Torsion [CD]-CE--NZ-[HZ2] |==|  0.20901
ROOT
ATOM      1  CA  ARG B   9      -1.906  10.967   4.721  1.00 39.43 LIG 0.18  C 
ENDROOT
BRANCH 1 2
ATOM      2  C   ARG B   9      -2.239   9.913   5.759  1.00 41.90 LIG 0.24  C 
ATOM      3  N   LYS B  10      -1.523   8.790   5.704  1.00 39.13 LIG-0.35  N 
ATOM      4 H    LYS B  10      -0.950   8.623   5.085  1.00 39.13 LIG 0.16  HD
ATOM      5 O    ARG B   9      -3.124  10.115   6.602  1.00 39.79 LIG-0.27  OA
BRANCH 3 6
ATOM      6  CA  LYS B  10      -1.649   7.727   6.699  1.00 38.99 LIG 0.18  C 
BRANCH 6 7
ATOM      7  CB  LYS B  10      -2.740   6.704   6.308  1.00 41.38 LIG 0.04  C 
BRANCH 7 8
ATOM      8  CG  LYS B  10      -4.143   7.276   6.054  1.00 61.81 LIG 0.00  C 
BRANCH 8 9
ATOM      9  CD  LYS B  10      -5.115   6.235   5.461  1.00 75.86 LIG 0.03  C 
BRANCH 9 10
ATOM     10  CE  LYS B  10      -6.179   6.819   4.548  1.00 87.18 LIG 0.23  C 
BRANCH 10 11
ATOM     11  NZ  LYS B  10      -7.318   5.882   4.355  1.00 91.96 LIG-0.08  N 
ATOM     12 HZ1  LYS B  10      -7.775   6.114   3.627  1.00 91.96 LIG 0.27  HD
ATOM     13 HZ2  LYS B  10      -7.009   5.054   4.258  1.00 91.96 LIG 0.27  HD
ATOM     14 HZ3  LYS B  10      -7.856   5.917   5.064  1.00 91.96 LIG 0.27  HD
ENDBRANCH 10 11
ENDBRANCH 9 10
ENDBRANCH 8 9
ENDBRANCH 7 8
ENDBRANCH 6 7
BRANCH 6 15
ATOM     15  C   LYS B  10      -0.254   7.082   6.876  1.00 41.93 LIG 0.24  C 
ATOM     16  N   TYR B  11       0.187   6.880   8.134  1.00 37.73 LIG-0.35  N 
ATOM     17 H    TYR B  11      -0.278   7.105   8.822  1.00 37.73 LIG 0.16  HD
ATOM     18 O    LYS B  10       0.421   6.817   5.877  1.00 40.97 LIG-0.27  OA
BRANCH 16 19
ATOM     19  CA  TYR B  11       1.472   6.271   8.492  1.00 60.51 LIG 0.17  C 
BRANCH 19 20
ATOM     20  CB  TYR B  11       1.471   4.789   8.048  1.00 61.89 LIG 0.07  C 
BRANCH 20 21
ATOM     21  CG  TYR B  11       1.731   3.705   9.084  1.00 64.48 LIG-0.06  A 
ATOM     22  CD2 TYR B  11       0.721   3.275   9.936  1.00 66.36 LIG 0.01  A 
ATOM     23  CE2 TYR B  11       0.944   2.279  10.886  1.00 66.48 LIG 0.04  A 
ATOM     24  CZ  TYR B  11       2.202   1.725  11.020  1.00 73.62 LIG 0.07  A 
ATOM     25  CE1 TYR B  11       3.233   2.148  10.194  1.00 67.05 LIG 0.04  A 
ATOM     26  CD1 TYR B  11       2.998   3.147   9.245  1.00 65.84 LIG 0.01  A 
BRANCH 24 27
ATOM     27 OH   TYR B  11       2.402   0.751  11.968  1.00 74.96 LIG-0.36  OA
ATOM     28 HH   TYR B  11       1.673   0.369  12.136  1.00 74.96 LIG 0.22  HD
ENDBRANCH 24 27
ENDBRANCH 20 21
ENDBRANCH 19 20
BRANCH 19 29
ATOM     29  C   TYR B  11       2.619   7.062   7.848  1.00 76.68 LIG 0.22  C 
ATOM     30 O    TYR B  11       2.565   8.288   7.772  1.00 42.66 LIG-0.29  OA
ENDBRANCH 19 29
ENDBRANCH 16 19
ENDBRANCH 6 15
ENDBRANCH 3 6
ENDBRANCH 1 2
BRANCH 1 31
ATOM     31  CB  ARG B   9      -2.569  10.570   3.366  1.00 41.96 LIG 0.04  C 
BRANCH 31 32
ATOM     32  CG  ARG B   9      -3.320   9.228   3.304  1.00 54.96 LIG 0.02  C 
BRANCH 32 33
ATOM     33  CD  ARG B   9      -2.690   8.221   2.359  1.00 74.30 LIG 0.14  C 
BRANCH 33 34
ATOM     34  NE  ARG B   9      -1.854   7.249   3.071  1.00 92.04 LIG-0.23  N 
ATOM     35 HE   ARG B   9      -1.084   7.513   3.350  1.00 92.04 LIG 0.18  HD
ATOM     36  CZ  ARG B   9      -2.203   5.987   3.317  1.00114.26 LIG 0.67  C 
ATOM     37  NH2 ARG B   9      -1.375   5.177   3.965  1.00103.12 LIG-0.23  N 
ATOM     38  NH1 ARG B   9      -3.385   5.526   2.922  1.00104.54 LIG-0.23  N 
ATOM     39 1HH2 ARG B   9      -0.609   5.466   4.229  1.00103.12 LIG 0.17  HD
ATOM     40 2HH2 ARG B   9      -1.605   4.363   4.122  1.00103.12 LIG 0.17  HD
ATOM     41 1HH1 ARG B   9      -3.931   6.045   2.506  1.00104.54 LIG 0.17  HD
ATOM     42 2HH1 ARG B   9      -3.604   4.711   3.084  1.00104.54 LIG 0.17  HD
ENDBRANCH 33 34
ENDBRANCH 32 33
ENDBRANCH 31 32
ENDBRANCH 1 31
BRANCH 1 43
ATOM     43  N   ARG B   9      -0.454  11.133   4.607  1.00 39.07 LIG-0.35  N 
ATOM     44 H    ARG B   9      -0.116  10.742   3.920  1.00 39.07 LIG 0.16  HD
ATOM     45  C   LYS B   8       0.277  11.826   5.488  1.00 42.99 LIG 0.24  C 
ATOM     46 O    LYS B   8      -0.211  12.412   6.462  1.00 42.25 LIG-0.27  OA
BRANCH 45 47
ATOM     47  CA  LYS B   8       1.775  11.897   5.222  1.00 40.35 LIG 0.18  C 
BRANCH 47 48
ATOM     48  N   LYS B   8       2.313  13.152   5.739  1.00 42.07 LIG-0.35  N 
ATOM     49 H    LYS B   8       2.680  13.059   6.511  1.00 42.07 LIG 0.16  HD
ATOM     50  C   GLY B   7       2.266  14.333   5.123  1.00 50.14 LIG 0.24  C 
ATOM     51 O    GLY B   7       1.711  14.518   4.035  1.00 49.17 LIG-0.27  OA
BRANCH 50 52
ATOM     52  CA  GLY B   7       2.933  15.470   5.859  1.00 52.80 LIG 0.23  C 
BRANCH 52 53
ATOM     53  N   GLY B   7       4.307  15.126   6.193  1.00 55.58 LIG-0.35  N 
ATOM     54  C   LEU B   6       5.254  14.795   5.320  1.00 62.88 LIG 0.26  C 
ATOM     55 O    LEU B   6       5.076  14.739   4.098  1.00 62.93 LIG-0.27  OA
ATOM     56 H    GLY B   7       4.458  15.158   7.040  1.00 55.58 LIG 0.16  HD
BRANCH 54 57
ATOM     57  CA  LEU B   6       6.632  14.508   5.957  1.00 62.75 LIG 0.40  C 
ATOM     58  N   LEU B   6       7.587  14.136   4.913  1.00 63.15 LIG 0.61  N 
BRANCH 57 59
ATOM     59  CB  LEU B   6       7.148  15.698   6.805  1.00 63.26 LIG 0.06  C 
BRANCH 59 60
ATOM     60  CG  LEU B   6       8.279  15.400   7.820  1.00 68.65 LIG-0.02  C 
ATOM     61  CD1 LEU B   6       7.822  14.398   8.872  1.00 69.18 LIG 0.01  C 
ATOM     62  CD2 LEU B   6       9.561  14.912   7.129  1.00 70.70 LIG 0.01  C 
ENDBRANCH 59 60
ENDBRANCH 57 59
ENDBRANCH 54 57
ENDBRANCH 52 53
ENDBRANCH 50 52
ENDBRANCH 47 48
BRANCH 47 63
ATOM     63  CB  LYS B   8       2.484  10.689   5.865  1.00 41.14 LIG 0.04  C 
BRANCH 63 64
ATOM     64  CG  LYS B   8       3.929  10.946   6.273  1.00 42.09 LIG 0.00  C 
BRANCH 64 65
ATOM     65  CD  LYS B   8       4.011  11.319   7.742  1.00 43.68 LIG 0.03  C 
BRANCH 65 66
ATOM     66  CE  LYS B   8       5.212  12.189   8.013  1.00 41.10 LIG 0.23  C 
BRANCH 66 67
ATOM     67  NZ  LYS B   8       4.886  13.372   8.854  1.00 37.84 LIG-0.08  N 
ATOM     68 HZ3  LYS B   8       5.551  13.962   8.806  1.00 37.84 LIG 0.27  HD
ATOM     69 HZ2  LYS B   8       4.779  13.115   9.699  1.00 37.84 LIG 0.27  HD
ATOM     70 HZ1  LYS B   8       4.135  13.748   8.560  1.00 37.84 LIG 0.27  HD
ENDBRANCH 66 67
ENDBRANCH 65 66
ENDBRANCH 64 65
ENDBRANCH 63 64
ENDBRANCH 47 63
ENDBRANCH 45 47
ENDBRANCH 1 43
TORSDOF 30
ENDMDL
MODEL 14
USER: ADFR SOLUTION from run 30
USER: SCORE 21.425592 LL:  -3.371 LR: -20.338 RR:   0.000 FEB: -11.389
USER: RMSD 8.618126
USER: SEED 29
USER: STATUS no improvement in best in 6 clusters for 5 generations
USER: GENES 32
USER: genes 0 Translation |==|  0.54909 0.51489 0.34715
USER: genes 1 Rotation |==|  0.40413 0.98060 0.48621 0.59822
USER: genes 2 Torsion [N]-CA--C-[N] |==|  0.35583
USER: genes 3 Torsion [C]-N--CA-[CB] |==|  0.31888
USER: genes 4 Torsion [N]-CA--CB-[CG] |==|  0.63947
USER: genes 5 Torsion [CA]-CB--CG-[CD] |==|  0.84215
USER: genes 6 Torsion [CB]-CG--CD-[CE] |==|  0.43602
USER: genes 7 Torsion [CG]-CD--CE-[NZ] |==|  0.35210
USER: genes 8 Torsion [CD]-CE--NZ-[HZ1] |==|  0.93813
USER: genes 9 Torsion [N]-CA--C-[N] |==|  0.62691
USER: genes 10 Torsion [C]-N--CA-[C] |==|  0.71631
USER: genes 11 Torsion [N]-CA--CB-[CG] |==|  0.08726
USER: genes 12 Torsion [CA]-CB--CG-[CD2] |==|  0.62059
USER: genes 13 Torsion [CE2]-CZ--OH-[HH] |==|  0.72284
USER: genes 14 Torsion [N]-CA--C-[O] |==|  0.80644
USER: genes 15 Torsion [C]-CA--CB-[CG] |==|  0.34600
USER: genes 16 Torsion [CA]-CB--CG-[CD] |==|  0.40853
USER: genes 17 Torsion [CB]-CG--CD-[NE] |==|  0.54061
USER: genes 18 Torsion [CG]-CD--NE-[HE] |==|  0.26655
USER: genes 19 Torsion [C]-CA--N-[C] |==|  0.83620
USER: genes 20 Torsion [N]-C--CA-[N] |==|  0.51971
USER: genes 21 Torsion [C]-CA--N-[C] |==|  0.57043
USER: genes 22 Torsion [N]-C--CA-[N] |==|  0.39359
USER: genes 23 Torsion [C]-CA--N-[C] |==|  0.81111
USER: genes 24 Torsion [N]-C--CA-[N] |==|  0.73393
USER: genes 25 Torsion [C]-CA--CB-[CG] |==|  0.14948
USER: genes 26 Torsion [CA]-CB--CG-[CD1] |==|  0.24637
USER: genes 27 Torsion [C]-CA--CB-[CG] |==|  0.60731
USER: genes 28 Torsion [CA]-CB--CG-[CD] |==|  0.63852
USER: genes 29 Torsion [CB]-CG--CD-[CE] |==|  0.44171
USER: genes 30 Torsion [CG]-CD--CE-[NZ] |==|  0.53851
USER: genes 31 Torsion [CD]-CE--NZ-[HZ2] |==|  0.53935
ROOT
ATOM      1  CA  ARG B   9       0.115   5.524   7.323  1.00 39.43 LIG 0.18  C 
ENDROOT
BRANCH 1 2
ATOM      2  C   ARG B   9       1.139   4.521   6.829  1.00 41.90 LIG 0.24  C 
ATOM      3  N   LYS B  10       0.933   3.252   7.181  1.00 39.13 LIG-0.35  N 
ATOM      4 H    LYS B  10       0.302   3.003   7.711  1.00 39.13 LIG 0.16  HD
ATOM      5 O    ARG B   9       2.097   4.888   6.136  1.00 39.79 LIG-0.27  OA
BRANCH 3 6
ATOM      6  CA  LYS B  10       1.768   2.155   6.696  1.00 38.99 LIG 0.18  C 
BRANCH 6 7
ATOM      7  CB  LYS B  10       2.561   1.489   7.844  1.00 41.38 LIG 0.04  C 
BRANCH 7 8
ATOM      8  CG  LYS B  10       4.069   1.315   7.611  1.00 61.81 LIG 0.00  C 
BRANCH 8 9
ATOM      9  CD  LYS B  10       4.388   0.508   6.335  1.00 75.86 LIG 0.03  C 
BRANCH 9 10
ATOM     10  CE  LYS B  10       5.771   0.761   5.761  1.00 87.18 LIG 0.23  C 
BRANCH 10 11
ATOM     11  NZ  LYS B  10       6.529  -0.503   5.563  1.00 91.96 LIG-0.08  N 
ATOM     12 HZ1  LYS B  10       6.195  -1.136   6.093  1.00 91.96 LIG 0.27  HD
ATOM     13 HZ2  LYS B  10       6.461  -0.761   4.715  1.00 91.96 LIG 0.27  HD
ATOM     14 HZ3  LYS B  10       7.386  -0.370   5.765  1.00 91.96 LIG 0.27  HD
ENDBRANCH 10 11
ENDBRANCH 9 10
ENDBRANCH 8 9
ENDBRANCH 7 8
ENDBRANCH 6 7
BRANCH 6 15
ATOM     15  C   LYS B  10       0.850   1.164   5.943  1.00 41.93 LIG 0.24  C 
ATOM     16  N   TYR B  11       1.000  -0.150   6.206  1.00 37.73 LIG-0.35  N 
ATOM     17 H    TYR B  11       1.588  -0.440   6.763  1.00 37.73 LIG 0.16  HD
ATOM     18 O    LYS B  10       0.051   1.595   5.106  1.00 40.97 LIG-0.27  OA
BRANCH 16 19
ATOM     19  CA  TYR B  11       0.213  -1.229   5.600  1.00 60.51 LIG 0.17  C 
BRANCH 19 20
ATOM     20  CB  TYR B  11       1.165  -2.370   5.170  1.00 61.89 LIG 0.07  C 
BRANCH 20 21
ATOM     21  CG  TYR B  11       2.434  -2.619   5.972  1.00 64.48 LIG-0.06  A 
ATOM     22  CD2 TYR B  11       3.644  -2.867   5.335  1.00 66.36 LIG 0.01  A 
ATOM     23  CE2 TYR B  11       4.815  -3.091   6.057  1.00 66.48 LIG 0.04  A 
ATOM     24  CZ  TYR B  11       4.779  -3.108   7.438  1.00 73.62 LIG 0.07  A 
ATOM     25  CE1 TYR B  11       3.581  -2.881   8.100  1.00 67.05 LIG 0.04  A 
ATOM     26  CD1 TYR B  11       2.413  -2.658   7.365  1.00 65.84 LIG 0.01  A 
BRANCH 24 27
ATOM     27 OH   TYR B  11       5.943  -3.340   8.130  1.00 74.96 LIG-0.36  OA
ATOM     28 HH   TYR B  11       5.969  -4.143   8.374  1.00 74.96 LIG 0.22  HD
ENDBRANCH 24 27
ENDBRANCH 20 21
ENDBRANCH 19 20
BRANCH 19 29
ATOM     29  C   TYR B  11      -0.853  -1.715   6.593  1.00 76.68 LIG 0.22  C 
ATOM     30 O    TYR B  11      -0.526  -2.336   7.603  1.00 42.66 LIG-0.29  OA
ENDBRANCH 19 29
ENDBRANCH 16 19
ENDBRANCH 6 15
ENDBRANCH 3 6
ENDBRANCH 1 2
BRANCH 1 31
ATOM     31  CB  ARG B   9      -0.759   5.992   6.119  1.00 41.96 LIG 0.04  C 
BRANCH 31 32
ATOM     32  CG  ARG B   9      -2.285   5.832   6.238  1.00 54.96 LIG 0.02  C 
BRANCH 32 33
ATOM     33  CD  ARG B   9      -3.068   6.918   5.524  1.00 74.30 LIG 0.14  C 
BRANCH 33 34
ATOM     34  NE  ARG B   9      -4.477   6.939   5.935  1.00 92.04 LIG-0.23  N 
ATOM     35 HE   ARG B   9      -4.705   7.491   6.553  1.00 92.04 LIG 0.18  HD
ATOM     36  CZ  ARG B   9      -5.427   6.161   5.418  1.00114.26 LIG 0.67  C 
ATOM     37  NH2 ARG B   9      -6.676   6.247   5.859  1.00103.12 LIG-0.23  N 
ATOM     38  NH1 ARG B   9      -5.138   5.297   4.451  1.00104.54 LIG-0.23  N 
ATOM     39 1HH2 ARG B   9      -6.875   6.806   6.481  1.00103.12 LIG 0.17  HD
ATOM     40 2HH2 ARG B   9      -7.287   5.743   5.522  1.00103.12 LIG 0.17  HD
ATOM     41 1HH1 ARG B   9      -4.332   5.237   4.154  1.00104.54 LIG 0.17  HD
ATOM     42 2HH1 ARG B   9      -5.756   4.798   4.121  1.00104.54 LIG 0.17  HD
ENDBRANCH 33 34
ENDBRANCH 32 33
ENDBRANCH 31 32
ENDBRANCH 1 31
BRANCH 1 43
ATOM     43  N   ARG B   9       0.779   6.641   8.002  1.00 39.07 LIG-0.35  N 
ATOM     44 H    ARG B   9       0.616   7.407   7.646  1.00 39.07 LIG 0.16  HD
ATOM     45  C   LYS B   8       1.565   6.486   9.074  1.00 42.99 LIG 0.24  C 
ATOM     46 O    LYS B   8       1.778   5.390   9.606  1.00 42.25 LIG-0.27  OA
BRANCH 45 47
ATOM     47  CA  LYS B   8       2.179   7.753   9.655  1.00 40.35 LIG 0.18  C 
BRANCH 47 48
ATOM     48  N   LYS B   8       3.134   7.406  10.704  1.00 42.07 LIG-0.35  N 
ATOM     49 H    LYS B   8       3.459   6.617  10.603  1.00 42.07 LIG 0.16  HD
ATOM     50  C   GLY B   7       3.493   8.189  11.721  1.00 50.14 LIG 0.24  C 
ATOM     51 O    GLY B   7       3.018   9.311  11.926  1.00 49.17 LIG-0.27  OA
BRANCH 50 52
ATOM     52  CA  GLY B   7       4.532   7.603  12.648  1.00 52.80 LIG 0.23  C 
BRANCH 52 53
ATOM     53  N   GLY B   7       5.468   8.629  13.080  1.00 55.58 LIG-0.35  N 
ATOM     54  C   LEU B   6       6.353   9.244  12.300  1.00 62.88 LIG 0.26  C 
ATOM     55 O    LEU B   6       6.488   9.013  11.093  1.00 62.93 LIG-0.27  OA
ATOM     56 H    GLY B   7       5.396   8.810  13.918  1.00 55.58 LIG 0.16  HD
BRANCH 54 57
ATOM     57  CA  LEU B   6       7.200  10.315  13.024  1.00 62.75 LIG 0.40  C 
ATOM     58  N   LEU B   6       6.600  11.634  12.824  1.00 63.15 LIG 0.61  N 
BRANCH 57 59
ATOM     59  CB  LEU B   6       7.390   9.997  14.529  1.00 63.26 LIG 0.06  C 
BRANCH 59 60
ATOM     60  CG  LEU B   6       7.960   8.602  14.886  1.00 68.65 LIG-0.02  C 
ATOM     61  CD1 LEU B   6       9.482   8.625  14.926  1.00 69.18 LIG 0.01  C 
ATOM     62  CD2 LEU B   6       7.392   8.068  16.209  1.00 70.70 LIG 0.01  C 
ENDBRANCH 59 60
ENDBRANCH 57 59
ENDBRANCH 54 57
ENDBRANCH 52 53
ENDBRANCH 50 52
ENDBRANCH 47 48
BRANCH 47 63
ATOM     63  CB  LYS B   8       2.860   8.570   8.540  1.00 41.14 LIG 0.04  C 
BRANCH 63 64
ATOM     64  CG  LYS B   8       4.171   9.230   8.948  1.00 42.09 LIG 0.00  C 
BRANCH 64 65
ATOM     65  CD  LYS B   8       4.171  10.699   8.566  1.00 43.68 LIG 0.03  C 
BRANCH 65 66
ATOM     66  CE  LYS B   8       5.180  11.469   9.379  1.00 41.10 LIG 0.23  C 
BRANCH 66 67
ATOM     67  NZ  LYS B   8       4.994  12.942   9.283  1.00 37.84 LIG-0.08  N 
ATOM     68 HZ3  LYS B   8       4.872  13.170   8.432  1.00 37.84 LIG 0.27  HD
ATOM     69 HZ2  LYS B   8       5.716  13.354   9.600  1.00 37.84 LIG 0.27  HD
ATOM     70 HZ1  LYS B   8       4.282  13.183   9.759  1.00 37.84 LIG 0.27  HD
ENDBRANCH 66 67
ENDBRANCH 65 66
ENDBRANCH 64 65
ENDBRANCH 63 64
ENDBRANCH 47 63
ENDBRANCH 45 47
ENDBRANCH 1 43
TORSDOF 30
ENDMDL
MODEL 15
USER: ADFR SOLUTION from run 113
USER: SCORE 21.488897 LL:  -3.099 LR: -20.337 RR:   0.000 FEB: -11.388
USER: RMSD 8.350293
USER: SEED 112
USER: STATUS no improvement in best in 3 clusters for 5 generations
USER: GENES 32
USER: genes 0 Translation |==|  0.51909 0.51760 0.32949
USER: genes 1 Rotation |==|  0.42067 0.98696 0.54571 0.56695
USER: genes 2 Torsion [N]-CA--C-[N] |==|  0.22027
USER: genes 3 Torsion [C]-N--CA-[CB] |==|  0.20120
USER: genes 4 Torsion [N]-CA--CB-[CG] |==|  0.30747
USER: genes 5 Torsion [CA]-CB--CG-[CD] |==|  0.28834
USER: genes 6 Torsion [CB]-CG--CD-[CE] |==|  0.61492
USER: genes 7 Torsion [CG]-CD--CE-[NZ] |==|  0.48099
USER: genes 8 Torsion [CD]-CE--NZ-[HZ1] |==|  0.03319
USER: genes 9 Torsion [N]-CA--C-[N] |==|  0.03734
USER: genes 10 Torsion [C]-N--CA-[C] |==|  0.15171
USER: genes 11 Torsion [N]-CA--CB-[CG] |==|  0.21114
USER: genes 12 Torsion [CA]-CB--CG-[CD2] |==|  0.19216
USER: genes 13 Torsion [CE2]-CZ--OH-[HH] |==|  0.08714
USER: genes 14 Torsion [N]-CA--C-[O] |==|  0.50655
USER: genes 15 Torsion [C]-CA--CB-[CG] |==|  0.30235
USER: genes 16 Torsion [CA]-CB--CG-[CD] |==|  0.48194
USER: genes 17 Torsion [CB]-CG--CD-[NE] |==|  0.36441
USER: genes 18 Torsion [CG]-CD--NE-[HE] |==|  0.80244
USER: genes 19 Torsion [C]-CA--N-[C] |==|  0.13204
USER: genes 20 Torsion [N]-C--CA-[N] |==|  0.22547
USER: genes 21 Torsion [C]-CA--N-[C] |==|  0.62793
USER: genes 22 Torsion [N]-C--CA-[N] |==|  0.35772
USER: genes 23 Torsion [C]-CA--N-[C] |==|  0.26249
USER: genes 24 Torsion [N]-C--CA-[N] |==|  0.78245
USER: genes 25 Torsion [C]-CA--CB-[CG] |==|  0.24583
USER: genes 26 Torsion [CA]-CB--CG-[CD1] |==|  0.48229
USER: genes 27 Torsion [C]-CA--CB-[CG] |==|  0.58039
USER: genes 28 Torsion [CA]-CB--CG-[CD] |==|  0.59322
USER: genes 29 Torsion [CB]-CG--CD-[CE] |==|  0.49603
USER: genes 30 Torsion [CG]-CD--CE-[NZ] |==|  0.59425
USER: genes 31 Torsion [CD]-CE--NZ-[HZ2] |==|  0.63528
ROOT
ATOM      1  CA  ARG B   9      -0.538   5.597   6.886  1.00 39.43 LIG 0.18  C 
ENDROOT
BRANCH 1 2
ATOM      2  C   ARG B   9       0.347   4.719   6.022  1.00 41.90 LIG 0.24  C 
ATOM      3  N   LYS B  10       0.939   3.697   6.639  1.00 39.13 LIG-0.35  N 
ATOM      4 H    LYS B  10       0.891   3.563   7.487  1.00 39.13 LIG 0.16  HD
ATOM      5 O    ARG B   9       0.486   4.959   4.815  1.00 39.79 LIG-0.27  OA
BRANCH 3 6
ATOM      6  CA  LYS B  10       1.734   2.700   5.924  1.00 38.99 LIG 0.18  C 
BRANCH 6 7
ATOM      7  CB  LYS B  10       3.089   3.278   5.455  1.00 41.38 LIG 0.04  C 
BRANCH 7 8
ATOM      8  CG  LYS B  10       4.337   2.734   6.165  1.00 61.81 LIG 0.00  C 
BRANCH 8 9
ATOM      9  CD  LYS B  10       5.120   1.719   5.305  1.00 75.86 LIG 0.03  C 
BRANCH 9 10
ATOM     10  CE  LYS B  10       5.634   0.513   6.070  1.00 87.18 LIG 0.23  C 
BRANCH 10 11
ATOM     11  NZ  LYS B  10       6.235  -0.503   5.164  1.00 91.96 LIG-0.08  N 
ATOM     12 HZ1  LYS B  10       6.343  -0.152   4.353  1.00 91.96 LIG 0.27  HD
ATOM     13 HZ2  LYS B  10       7.025  -0.757   5.485  1.00 91.96 LIG 0.27  HD
ATOM     14 HZ3  LYS B  10       5.696  -1.209   5.110  1.00 91.96 LIG 0.27  HD
ENDBRANCH 10 11
ENDBRANCH 9 10
ENDBRANCH 8 9
ENDBRANCH 7 8
ENDBRANCH 6 7
BRANCH 6 15
ATOM     15  C   LYS B  10       1.891   1.472   6.852  1.00 41.93 LIG 0.24  C 
ATOM     16  N   TYR B  11       1.097   1.405   7.939  1.00 37.73 LIG-0.35  N 
ATOM     17 H    TYR B  11       0.526   2.020   8.126  1.00 37.73 LIG 0.16  HD
ATOM     18 O    LYS B  10       2.755   0.629   6.597  1.00 40.97 LIG-0.27  OA
BRANCH 16 19
ATOM     19  CA  TYR B  11       1.097   0.314   8.919  1.00 60.51 LIG 0.17  C 
BRANCH 19 20
ATOM     20  CB  TYR B  11       0.543  -0.966   8.251  1.00 61.89 LIG 0.07  C 
BRANCH 20 21
ATOM     21  CG  TYR B  11       1.431  -1.746   7.292  1.00 64.48 LIG-0.06  A 
ATOM     22  CD2 TYR B  11       2.543  -2.440   7.754  1.00 66.36 LIG 0.01  A 
ATOM     23  CE2 TYR B  11       3.362  -3.163   6.888  1.00 66.48 LIG 0.04  A 
ATOM     24  CZ  TYR B  11       3.097  -3.167   5.533  1.00 73.62 LIG 0.07  A 
ATOM     25  CE1 TYR B  11       2.003  -2.468   5.042  1.00 67.05 LIG 0.04  A 
ATOM     26  CD1 TYR B  11       1.189  -1.747   5.920  1.00 65.84 LIG 0.01  A 
BRANCH 24 27
ATOM     27 OH   TYR B  11       3.922  -3.878   4.695  1.00 74.96 LIG-0.36  OA
ATOM     28 HH   TYR B  11       4.225  -4.548   5.103  1.00 74.96 LIG 0.22  HD
ENDBRANCH 24 27
ENDBRANCH 20 21
ENDBRANCH 19 20
BRANCH 19 29
ATOM     29  C   TYR B  11       2.516   0.107   9.467  1.00 76.68 LIG 0.22  C 
ATOM     30 O    TYR B  11       2.748  -0.792  10.273  1.00 42.66 LIG-0.29  OA
ENDBRANCH 19 29
ENDBRANCH 16 19
ENDBRANCH 6 15
ENDBRANCH 3 6
ENDBRANCH 1 2
BRANCH 1 31
ATOM     31  CB  ARG B   9      -1.576   6.323   5.976  1.00 41.96 LIG 0.04  C 
BRANCH 31 32
ATOM     32  CG  ARG B   9      -3.045   5.872   6.069  1.00 54.96 LIG 0.02  C 
BRANCH 32 33
ATOM     33  CD  ARG B   9      -3.999   6.737   5.267  1.00 74.30 LIG 0.14  C 
BRANCH 33 34
ATOM     34  NE  ARG B   9      -4.896   5.934   4.429  1.00 92.04 LIG-0.23  N 
ATOM     35 HE   ARG B   9      -4.556   5.536   3.747  1.00 92.04 LIG 0.18  HD
ATOM     36  CZ  ARG B   9      -6.200   5.776   4.652  1.00114.26 LIG 0.67  C 
ATOM     37  NH2 ARG B   9      -6.934   5.032   3.833  1.00103.12 LIG-0.23  N 
ATOM     38  NH1 ARG B   9      -6.779   6.354   5.698  1.00104.54 LIG-0.23  N 
ATOM     39 1HH2 ARG B   9      -6.569   4.649   3.155  1.00103.12 LIG 0.17  HD
ATOM     40 2HH2 ARG B   9      -7.776   4.932   3.981  1.00103.12 LIG 0.17  HD
ATOM     41 1HH1 ARG B   9      -6.312   6.834   6.238  1.00104.54 LIG 0.17  HD
ATOM     42 2HH1 ARG B   9      -7.622   6.248   5.836  1.00104.54 LIG 0.17  HD
ENDBRANCH 33 34
ENDBRANCH 32 33
ENDBRANCH 31 32
ENDBRANCH 1 31
BRANCH 1 43
ATOM     43  N   ARG B   9       0.277   6.534   7.665  1.00 39.07 LIG-0.35  N 
ATOM     44 H    ARG B   9       0.062   6.568   8.498  1.00 39.07 LIG 0.16  HD
ATOM     45  C   LYS B   8       1.262   7.269   7.135  1.00 42.99 LIG 0.24  C 
ATOM     46 O    LYS B   8       1.592   7.202   5.945  1.00 42.25 LIG-0.27  OA
BRANCH 45 47
ATOM     47  CA  LYS B   8       2.008   8.195   8.087  1.00 40.35 LIG 0.18  C 
BRANCH 47 48
ATOM     48  N   LYS B   8       3.015   7.441   8.828  1.00 42.07 LIG-0.35  N 
ATOM     49 H    LYS B   8       3.475   6.923   8.320  1.00 42.07 LIG 0.16  HD
ATOM     50  C   GLY B   7       3.233   7.512  10.141  1.00 50.14 LIG 0.24  C 
ATOM     51 O    GLY B   7       2.565   8.210  10.911  1.00 49.17 LIG-0.27  OA
BRANCH 50 52
ATOM     52  CA  GLY B   7       4.364   6.653  10.652  1.00 52.80 LIG 0.23  C 
BRANCH 52 53
ATOM     53  N   GLY B   7       5.280   7.442  11.462  1.00 55.58 LIG-0.35  N 
ATOM     54  C   LEU B   6       5.237   7.558  12.786  1.00 62.88 LIG 0.26  C 
ATOM     55 O    LEU B   6       4.397   6.997  13.500  1.00 62.93 LIG-0.27  OA
ATOM     56 H    GLY B   7       5.876   7.844  10.988  1.00 55.58 LIG 0.16  HD
BRANCH 54 57
ATOM     57  CA  LEU B   6       6.356   8.440  13.383  1.00 62.75 LIG 0.40  C 
ATOM     58  N   LEU B   6       7.605   7.679  13.437  1.00 63.15 LIG 0.61  N 
BRANCH 57 59
ATOM     59  CB  LEU B   6       6.531   9.771  12.609  1.00 63.26 LIG 0.06  C 
BRANCH 59 60
ATOM     60  CG  LEU B   6       5.664  10.970  13.067  1.00 68.65 LIG-0.02  C 
ATOM     61  CD1 LEU B   6       6.053  12.243  12.325  1.00 69.18 LIG 0.01  C 
ATOM     62  CD2 LEU B   6       4.163  10.690  12.910  1.00 70.70 LIG 0.01  C 
ENDBRANCH 59 60
ENDBRANCH 57 59
ENDBRANCH 54 57
ENDBRANCH 52 53
ENDBRANCH 50 52
ENDBRANCH 47 48
BRANCH 47 63
ATOM     63  CB  LYS B   8       2.655   9.352   7.300  1.00 41.14 LIG 0.04  C 
BRANCH 63 64
ATOM     64  CG  LYS B   8       3.923   9.914   7.930  1.00 42.09 LIG 0.00  C 
BRANCH 64 65
ATOM     65  CD  LYS B   8       4.034  11.405   7.668  1.00 43.68 LIG 0.03  C 
BRANCH 65 66
ATOM     66  CE  LYS B   8       5.268  11.978   8.317  1.00 41.10 LIG 0.23  C 
BRANCH 66 67
ATOM     67  NZ  LYS B   8       5.069  13.369   8.803  1.00 37.84 LIG-0.08  N 
ATOM     68 HZ3  LYS B   8       4.303  13.689   8.483  1.00 37.84 LIG 0.27  HD
ATOM     69 HZ2  LYS B   8       5.743  13.880   8.525  1.00 37.84 LIG 0.27  HD
ATOM     70 HZ1  LYS B   8       5.043  13.372   9.693  1.00 37.84 LIG 0.27  HD
ENDBRANCH 66 67
ENDBRANCH 65 66
ENDBRANCH 64 65
ENDBRANCH 63 64
ENDBRANCH 47 63
ENDBRANCH 45 47
ENDBRANCH 1 43
TORSDOF 30
ENDMDL
MODEL 16
USER: ADFR SOLUTION from run 4
USER: SCORE 21.281516 LL:  -2.412 LR: -20.254 RR:   0.000 FEB: -11.305
USER: RMSD 6.498589
USER: SEED 725099
USER: STATUS searching
USER: GENES 32
USER: genes 0 Translation |==|  0.59688 0.35894 0.39987
USER: genes 1 Rotation |==|  0.30498 0.87179 0.29171 0.67423
USER: genes 2 Torsion [N]-CA--C-[N] |==|  0.52158
USER: genes 3 Torsion [C]-N--CA-[CB] |==|  0.87666
USER: genes 4 Torsion [N]-CA--CB-[CG] |==|  0.81420
USER: genes 5 Torsion [CA]-CB--CG-[CD] |==|  0.40645
USER: genes 6 Torsion [CB]-CG--CD-[CE] |==|  0.57769
USER: genes 7 Torsion [CG]-CD--CE-[NZ] |==|  0.75776
USER: genes 8 Torsion [CD]-CE--NZ-[HZ1] |==|  0.67881
USER: genes 9 Torsion [N]-CA--C-[N] |==|  0.88889
USER: genes 10 Torsion [C]-N--CA-[C] |==|  0.59555
USER: genes 11 Torsion [N]-CA--CB-[CG] |==|  0.60287
USER: genes 12 Torsion [CA]-CB--CG-[CD2] |==|  0.35942
USER: genes 13 Torsion [CE2]-CZ--OH-[HH] |==|  0.72970
USER: genes 14 Torsion [N]-CA--C-[O] |==|  0.63438
USER: genes 15 Torsion [C]-CA--CB-[CG] |==|  0.20162
USER: genes 16 Torsion [CA]-CB--CG-[CD] |==|  0.52799
USER: genes 17 Torsion [CB]-CG--CD-[NE] |==|  0.19882
USER: genes 18 Torsion [CG]-CD--NE-[HE] |==|  0.74585
USER: genes 19 Torsion [C]-CA--N-[C] |==|  0.74205
USER: genes 20 Torsion [N]-C--CA-[N] |==|  0.78832
USER: genes 21 Torsion [C]-CA--N-[C] |==|  0.64594
USER: genes 22 Torsion [N]-C--CA-[N] |==|  0.56595
USER: genes 23 Torsion [C]-CA--N-[C] |==|  0.74913
USER: genes 24 Torsion [N]-C--CA-[N] |==|  0.11659
USER: genes 25 Torsion [C]-CA--CB-[CG] |==|  0.72880
USER: genes 26 Torsion [CA]-CB--CG-[CD1] |==|  0.15399
USER: genes 27 Torsion [C]-CA--CB-[CG] |==|  0.33411
USER: genes 28 Torsion [CA]-CB--CG-[CD] |==|  0.67571
USER: genes 29 Torsion [CB]-CG--CD-[CE] |==|  0.43059
USER: genes 30 Torsion [CG]-CD--CE-[NZ] |==|  0.50051
USER: genes 31 Torsion [CD]-CE--NZ-[HZ2] |==|  0.27765
ROOT
ATOM      1  CA  ARG B   9       1.154   1.313   8.628  1.00 39.43 LIG 0.18  C 
ENDROOT
BRANCH 1 2
ATOM      2  C   ARG B   9       2.350   0.864   9.444  1.00 41.90 LIG 0.24  C 
ATOM      3  N   LYS B  10       2.490  -0.453   9.603  1.00 39.13 LIG-0.35  N 
ATOM      4 H    LYS B  10       1.914  -1.027   9.325  1.00 39.13 LIG 0.16  HD
ATOM      5 O    ARG B   9       3.138   1.693   9.918  1.00 39.79 LIG-0.27  OA
BRANCH 3 6
ATOM      6  CA  LYS B  10       3.647  -1.046  10.270  1.00 38.99 LIG 0.18  C 
BRANCH 6 7
ATOM      7  CB  LYS B  10       4.971  -0.397   9.804  1.00 41.38 LIG 0.04  C 
BRANCH 7 8
ATOM      8  CG  LYS B  10       5.366  -0.646   8.341  1.00 61.81 LIG 0.00  C 
BRANCH 8 9
ATOM      9  CD  LYS B  10       6.106   0.552   7.709  1.00 75.86 LIG 0.03  C 
BRANCH 9 10
ATOM     10  CE  LYS B  10       5.934   0.672   6.205  1.00 87.18 LIG 0.23  C 
BRANCH 10 11
ATOM     11  NZ  LYS B  10       6.948  -0.127   5.466  1.00 91.96 LIG-0.08  N 
ATOM     12 HZ1  LYS B  10       7.474   0.418   4.998  1.00 91.96 LIG 0.27  HD
ATOM     13 HZ2  LYS B  10       7.442  -0.589   6.044  1.00 91.96 LIG 0.27  HD
ATOM     14 HZ3  LYS B  10       6.537  -0.689   4.911  1.00 91.96 LIG 0.27  HD
ENDBRANCH 10 11
ENDBRANCH 9 10
ENDBRANCH 8 9
ENDBRANCH 7 8
ENDBRANCH 6 7
BRANCH 6 15
ATOM     15  C   LYS B  10       3.421  -0.925  11.796  1.00 41.93 LIG 0.24  C 
ATOM     16  N   TYR B  11       2.879   0.219  12.259  1.00 37.73 LIG-0.35  N 
ATOM     17 H    TYR B  11       2.669   0.869  11.737  1.00 37.73 LIG 0.16  HD
ATOM     18 O    LYS B  10       3.780  -1.846  12.535  1.00 40.97 LIG-0.27  OA
BRANCH 16 19
ATOM     19  CA  TYR B  11       2.581   0.505  13.666  1.00 60.51 LIG 0.17  C 
BRANCH 19 20
ATOM     20  CB  TYR B  11       3.803   1.202  14.310  1.00 61.89 LIG 0.07  C 
BRANCH 20 21
ATOM     21  CG  TYR B  11       4.168   0.875  15.751  1.00 64.48 LIG-0.06  A 
ATOM     22  CD2 TYR B  11       5.467   0.519  16.095  1.00 66.36 LIG 0.01  A 
ATOM     23  CE2 TYR B  11       5.817   0.224  17.412  1.00 66.48 LIG 0.04  A 
ATOM     24  CZ  TYR B  11       4.853   0.243  18.401  1.00 73.62 LIG 0.07  A 
ATOM     25  CE1 TYR B  11       3.545   0.578  18.083  1.00 67.05 LIG 0.04  A 
ATOM     26  CD1 TYR B  11       3.206   0.873  16.759  1.00 65.84 LIG 0.01  A 
BRANCH 24 27
ATOM     27 OH   TYR B  11       5.217  -0.061  19.691  1.00 74.96 LIG-0.36  OA
ATOM     28 HH   TYR B  11       5.042  -0.867  19.848  1.00 74.96 LIG 0.22  HD
ENDBRANCH 24 27
ENDBRANCH 20 21
ENDBRANCH 19 20
BRANCH 19 29
ATOM     29  C   TYR B  11       1.313   1.364  13.765  1.00 76.68 LIG 0.22  C 
ATOM     30 O    TYR B  11       1.298   2.374  14.467  1.00 42.66 LIG-0.29  OA
ENDBRANCH 19 29
ENDBRANCH 16 19
ENDBRANCH 6 15
ENDBRANCH 3 6
ENDBRANCH 1 2
BRANCH 1 31
ATOM     31  CB  ARG B   9       1.096   0.480   7.311  1.00 41.96 LIG 0.04  C 
BRANCH 31 32
ATOM     32  CG  ARG B   9       0.664  -0.994   7.417  1.00 54.96 LIG 0.02  C 
BRANCH 32 33
ATOM     33  CD  ARG B   9       0.870  -1.781   6.136  1.00 74.30 LIG 0.14  C 
BRANCH 33 34
ATOM     34  NE  ARG B   9       2.290  -2.034   5.869  1.00 92.04 LIG-0.23  N 
ATOM     35 HE   ARG B   9       2.714  -1.463   5.387  1.00 92.04 LIG 0.18  HD
ATOM     36  CZ  ARG B   9       2.969  -3.088   6.322  1.00114.26 LIG 0.67  C 
ATOM     37  NH2 ARG B   9       4.254  -3.236   6.023  1.00103.12 LIG-0.23  N 
ATOM     38  NH1 ARG B   9       2.370  -3.998   7.083  1.00104.54 LIG-0.23  N 
ATOM     39 1HH2 ARG B   9       4.652  -2.650   5.535  1.00103.12 LIG 0.17  HD
ATOM     40 2HH2 ARG B   9       4.688  -3.917   6.318  1.00103.12 LIG 0.17  HD
ATOM     41 1HH1 ARG B   9       1.539  -3.909   7.287  1.00104.54 LIG 0.17  HD
ATOM     42 2HH1 ARG B   9       2.814  -4.676   7.372  1.00104.54 LIG 0.17  HD
ENDBRANCH 33 34
ENDBRANCH 32 33
ENDBRANCH 31 32
ENDBRANCH 1 31
BRANCH 1 43
ATOM     43  N   ARG B   9       1.220   2.756   8.376  1.00 39.07 LIG-0.35  N 
ATOM     44 H    ARG B   9       1.672   2.963   7.674  1.00 39.07 LIG 0.16  HD
ATOM     45  C   LYS B   8       0.634   3.667   9.163  1.00 42.99 LIG 0.24  C 
ATOM     46 O    LYS B   8      -0.039   3.371  10.157  1.00 42.25 LIG-0.27  OA
BRANCH 45 47
ATOM     47  CA  LYS B   8       0.805   5.125   8.758  1.00 40.35 LIG 0.18  C 
BRANCH 47 48
ATOM     48  N   LYS B   8       2.146   5.584   9.106  1.00 42.07 LIG-0.35  N 
ATOM     49 H    LYS B   8       2.760   5.069   8.795  1.00 42.07 LIG 0.16  HD
ATOM     50  C   GLY B   7       2.438   6.671   9.820  1.00 50.14 LIG 0.24  C 
ATOM     51 O    GLY B   7       1.587   7.413  10.320  1.00 49.17 LIG-0.27  OA
BRANCH 50 52
ATOM     52  CA  GLY B   7       3.912   6.943  10.004  1.00 52.80 LIG 0.23  C 
BRANCH 52 53
ATOM     53  N   GLY B   7       4.138   7.752  11.192  1.00 55.58 LIG-0.35  N 
ATOM     54  C   LEU B   6       4.172   9.081  11.225  1.00 62.88 LIG 0.26  C 
ATOM     55 O    LEU B   6       4.013   9.801  10.232  1.00 62.93 LIG-0.27  OA
ATOM     56 H    GLY B   7       4.252   7.276  11.899  1.00 55.58 LIG 0.16  HD
BRANCH 54 57
ATOM     57  CA  LEU B   6       4.401   9.675  12.633  1.00 62.75 LIG 0.40  C 
ATOM     58  N   LEU B   6       5.425   8.897  13.333  1.00 63.15 LIG 0.61  N 
BRANCH 57 59
ATOM     59  CB  LEU B   6       4.762  11.181  12.585  1.00 63.26 LIG 0.06  C 
BRANCH 59 60
ATOM     60  CG  LEU B   6       6.265  11.547  12.666  1.00 68.65 LIG-0.02  C 
ATOM     61  CD1 LEU B   6       7.060  10.839  11.577  1.00 69.18 LIG 0.01  C 
ATOM     62  CD2 LEU B   6       6.494  13.064  12.603  1.00 70.70 LIG 0.01  C 
ENDBRANCH 59 60
ENDBRANCH 57 59
ENDBRANCH 54 57
ENDBRANCH 52 53
ENDBRANCH 50 52
ENDBRANCH 47 48
BRANCH 47 63
ATOM     63  CB  LYS B   8       0.541   5.289   7.248  1.00 41.14 LIG 0.04  C 
BRANCH 63 64
ATOM     64  CG  LYS B   8      -0.599   6.239   6.905  1.00 42.09 LIG 0.00  C 
BRANCH 64 65
ATOM     65  CD  LYS B   8      -1.720   5.496   6.199  1.00 43.68 LIG 0.03  C 
BRANCH 65 66
ATOM     66  CE  LYS B   8      -3.039   6.201   6.388  1.00 41.10 LIG 0.23  C 
BRANCH 66 67
ATOM     67  NZ  LYS B   8      -4.166   5.502   5.715  1.00 37.84 LIG-0.08  N 
ATOM     68 HZ3  LYS B   8      -4.708   6.102   5.343  1.00 37.84 LIG 0.27  HD
ATOM     69 HZ2  LYS B   8      -4.619   5.025   6.314  1.00 37.84 LIG 0.27  HD
ATOM     70 HZ1  LYS B   8      -3.846   4.961   5.085  1.00 37.84 LIG 0.27  HD
ENDBRANCH 66 67
ENDBRANCH 65 66
ENDBRANCH 64 65
ENDBRANCH 63 64
ENDBRANCH 47 63
ENDBRANCH 45 47
ENDBRANCH 1 43
TORSDOF 30
ENDMDL
MODEL 17
USER: ADFR SOLUTION from run 68
USER: SCORE 22.555068 LL:  -4.307 LR: -20.166 RR:   0.000 FEB: -11.217
USER: RMSD 7.892306
USER: SEED 67
USER: STATUS no improvement in best in 1 clusters for 5 generations
USER: GENES 32
USER: genes 0 Translation |==|  0.58678 0.54338 0.40592
USER: genes 1 Rotation |==|  0.57936 0.96536 0.35068 0.56964
USER: genes 2 Torsion [N]-CA--C-[N] |==|  0.81977
USER: genes 3 Torsion [C]-N--CA-[CB] |==|  0.45556
USER: genes 4 Torsion [N]-CA--CB-[CG] |==|  0.23179
USER: genes 5 Torsion [CA]-CB--CG-[CD] |==|  0.37892
USER: genes 6 Torsion [CB]-CG--CD-[CE] |==|  0.55306
USER: genes 7 Torsion [CG]-CD--CE-[NZ] |==|  0.51842
USER: genes 8 Torsion [CD]-CE--NZ-[HZ1] |==|  0.12351
USER: genes 9 Torsion [N]-CA--C-[N] |==|  0.48764
USER: genes 10 Torsion [C]-N--CA-[C] |==|  0.84209
USER: genes 11 Torsion [N]-CA--CB-[CG] |==|  0.11685
USER: genes 12 Torsion [CA]-CB--CG-[CD2] |==|  0.23451
USER: genes 13 Torsion [CE2]-CZ--OH-[HH] |==|  0.40784
USER: genes 14 Torsion [N]-CA--C-[O] |==|  0.96469
USER: genes 15 Torsion [C]-CA--CB-[CG] |==|  0.08228
USER: genes 16 Torsion [CA]-CB--CG-[CD] |==|  0.39435
USER: genes 17 Torsion [CB]-CG--CD-[NE] |==|  0.70187
USER: genes 18 Torsion [CG]-CD--NE-[HE] |==|  0.19350
USER: genes 19 Torsion [C]-CA--N-[C] |==|  0.69093
USER: genes 20 Torsion [N]-C--CA-[N] |==|  0.27452
USER: genes 21 Torsion [C]-CA--N-[C] |==|  0.74743
USER: genes 22 Torsion [N]-C--CA-[N] |==|  0.11315
USER: genes 23 Torsion [C]-CA--N-[C] |==|  0.17710
USER: genes 24 Torsion [N]-C--CA-[N] |==|  0.78715
USER: genes 25 Torsion [C]-CA--CB-[CG] |==|  0.14013
USER: genes 26 Torsion [CA]-CB--CG-[CD1] |==|  0.29973
USER: genes 27 Torsion [C]-CA--CB-[CG] |==|  0.43874
USER: genes 28 Torsion [CA]-CB--CG-[CD] |==|  0.60043
USER: genes 29 Torsion [CB]-CG--CD-[CE] |==|  0.72811
USER: genes 30 Torsion [CG]-CD--CE-[NZ] |==|  0.39135
USER: genes 31 Torsion [CD]-CE--NZ-[HZ2] |==|  0.81721
ROOT
ATOM      1  CA  ARG B   9       0.934   6.293   8.778  1.00 39.43 LIG 0.18  C 
ENDROOT
BRANCH 1 2
ATOM      2  C   ARG B   9       0.885   4.780   8.867  1.00 41.90 LIG 0.24  C 
ATOM      3  N   LYS B  10       1.649   4.117   7.999  1.00 39.13 LIG-0.35  N 
ATOM      4 H    LYS B  10       2.099   4.500   7.374  1.00 39.13 LIG 0.16  HD
ATOM      5 O    ARG B   9       0.173   4.221   9.712  1.00 39.79 LIG-0.27  OA
BRANCH 3 6
ATOM      6  CA  LYS B  10       1.794   2.663   8.029  1.00 38.99 LIG 0.18  C 
BRANCH 6 7
ATOM      7  CB  LYS B  10       2.392   2.121   6.711  1.00 41.38 LIG 0.04  C 
BRANCH 7 8
ATOM      8  CG  LYS B  10       3.923   2.167   6.595  1.00 61.81 LIG 0.00  C 
BRANCH 8 9
ATOM      9  CD  LYS B  10       4.518   0.871   6.005  1.00 75.86 LIG 0.03  C 
BRANCH 9 10
ATOM     10  CE  LYS B  10       5.997   0.675   6.285  1.00 87.18 LIG 0.23  C 
BRANCH 10 11
ATOM     11  NZ  LYS B  10       6.547  -0.503   5.561  1.00 91.96 LIG-0.08  N 
ATOM     12 HZ1  LYS B  10       6.249  -0.502   4.723  1.00 91.96 LIG 0.27  HD
ATOM     13 HZ2  LYS B  10       7.436  -0.462   5.560  1.00 91.96 LIG 0.27  HD
ATOM     14 HZ3  LYS B  10       6.285  -1.250   5.968  1.00 91.96 LIG 0.27  HD
ENDBRANCH 10 11
ENDBRANCH 9 10
ENDBRANCH 8 9
ENDBRANCH 7 8
ENDBRANCH 6 7
BRANCH 6 15
ATOM     15  C   LYS B  10       2.644   2.302   9.270  1.00 41.93 LIG 0.24  C 
ATOM     16  N   TYR B  11       2.825   0.994   9.544  1.00 37.73 LIG-0.35  N 
ATOM     17 H    TYR B  11       2.480   0.374   9.059  1.00 37.73 LIG 0.16  HD
ATOM     18 O    LYS B  10       3.085   3.206   9.985  1.00 40.97 LIG-0.27  OA
BRANCH 16 19
ATOM     19  CA  TYR B  11       3.609   0.467  10.665  1.00 60.51 LIG 0.17  C 
BRANCH 19 20
ATOM     20  CB  TYR B  11       3.573  -1.080  10.625  1.00 61.89 LIG 0.07  C 
BRANCH 20 21
ATOM     21  CG  TYR B  11       3.719  -1.789   9.286  1.00 64.48 LIG-0.06  A 
ATOM     22  CD2 TYR B  11       4.974  -2.051   8.750  1.00 66.36 LIG 0.01  A 
ATOM     23  CE2 TYR B  11       5.123  -2.705   7.529  1.00 66.48 LIG 0.04  A 
ATOM     24  CZ  TYR B  11       4.006  -3.074   6.805  1.00 73.62 LIG 0.07  A 
ATOM     25  CE1 TYR B  11       2.740  -2.810   7.308  1.00 67.05 LIG 0.04  A 
ATOM     26  CD1 TYR B  11       2.603  -2.153   8.534  1.00 65.84 LIG 0.01  A 
BRANCH 24 27
ATOM     27 OH   TYR B  11       4.175  -3.710   5.599  1.00 74.96 LIG-0.36  OA
ATOM     28 HH   TYR B  11       3.547  -4.255   5.479  1.00 74.96 LIG 0.22  HD
ENDBRANCH 24 27
ENDBRANCH 20 21
ENDBRANCH 19 20
BRANCH 19 29
ATOM     29  C   TYR B  11       5.044   1.008  10.597  1.00 76.68 LIG 0.22  C 
ATOM     30 O    TYR B  11       5.450   1.572   9.583  1.00 42.66 LIG-0.29  OA
ENDBRANCH 19 29
ENDBRANCH 16 19
ENDBRANCH 6 15
ENDBRANCH 3 6
ENDBRANCH 1 2
BRANCH 1 31
ATOM     31  CB  ARG B   9       0.487   6.732   7.350  1.00 41.96 LIG 0.04  C 
BRANCH 31 32
ATOM     32  CG  ARG B   9      -0.515   5.830   6.606  1.00 54.96 LIG 0.02  C 
BRANCH 32 33
ATOM     33  CD  ARG B   9      -1.542   6.600   5.797  1.00 74.30 LIG 0.14  C 
BRANCH 33 34
ATOM     34  NE  ARG B   9      -2.871   6.558   6.416  1.00 92.04 LIG-0.23  N 
ATOM     35 HE   ARG B   9      -2.984   6.990   7.150  1.00 92.04 LIG 0.18  HD
ATOM     36  CZ  ARG B   9      -3.916   5.897   5.919  1.00114.26 LIG 0.67  C 
ATOM     37  NH2 ARG B   9      -5.081   5.911   6.555  1.00103.12 LIG-0.23  N 
ATOM     38  NH1 ARG B   9      -3.807   5.222   4.780  1.00104.54 LIG-0.23  N 
ATOM     39 1HH2 ARG B   9      -5.165   6.349   7.291  1.00103.12 LIG 0.17  HD
ATOM     40 2HH2 ARG B   9      -5.753   5.484   6.231  1.00103.12 LIG 0.17  HD
ATOM     41 1HH1 ARG B   9      -3.057   5.210   4.357  1.00104.54 LIG 0.17  HD
ATOM     42 2HH1 ARG B   9      -4.485   4.797   4.465  1.00104.54 LIG 0.17  HD
ENDBRANCH 33 34
ENDBRANCH 32 33
ENDBRANCH 31 32
ENDBRANCH 1 31
BRANCH 1 43
ATOM     43  N   ARG B   9       2.273   6.783   9.122  1.00 39.07 LIG-0.35  N 
ATOM     44 H    ARG B   9       2.874   6.580   8.540  1.00 39.07 LIG 0.16  HD
ATOM     45  C   LYS B   8       2.538   7.478  10.234  1.00 42.99 LIG 0.24  C 
ATOM     46 O    LYS B   8       1.671   7.794  11.058  1.00 42.25 LIG-0.27  OA
BRANCH 45 47
ATOM     47  CA  LYS B   8       3.984   7.907  10.440  1.00 40.35 LIG 0.18  C 
BRANCH 47 48
ATOM     48  N   LYS B   8       4.154   9.297  10.025  1.00 42.07 LIG-0.35  N 
ATOM     49 H    LYS B   8       4.004   9.851  10.665  1.00 42.07 LIG 0.16  HD
ATOM     50  C   GLY B   7       4.501   9.710   8.807  1.00 50.14 LIG 0.24  C 
ATOM     51 O    GLY B   7       4.683   8.951   7.850  1.00 49.17 LIG-0.27  OA
BRANCH 50 52
ATOM     52  CA  GLY B   7       4.645  11.205   8.652  1.00 52.80 LIG 0.23  C 
BRANCH 52 53
ATOM     53  N   GLY B   7       5.302  11.779   9.817  1.00 55.58 LIG-0.35  N 
ATOM     54  C   LEU B   6       6.547  11.520  10.207  1.00 62.88 LIG 0.26  C 
ATOM     55 O    LEU B   6       7.308  10.747   9.615  1.00 62.93 LIG-0.27  OA
ATOM     56 H    GLY B   7       4.793  12.323  10.248  1.00 55.58 LIG 0.16  HD
BRANCH 54 57
ATOM     57  CA  LEU B   6       6.991  12.297  11.466  1.00 62.75 LIG 0.40  C 
ATOM     58  N   LEU B   6       7.297  13.682  11.106  1.00 63.15 LIG 0.61  N 
BRANCH 57 59
ATOM     59  CB  LEU B   6       5.943  12.221  12.605  1.00 63.26 LIG 0.06  C 
BRANCH 59 60
ATOM     60  CG  LEU B   6       5.421  10.814  12.988  1.00 68.65 LIG-0.02  C 
ATOM     61  CD1 LEU B   6       5.975  10.372  14.336  1.00 69.18 LIG 0.01  C 
ATOM     62  CD2 LEU B   6       3.887  10.747  12.984  1.00 70.70 LIG 0.01  C 
ENDBRANCH 59 60
ENDBRANCH 57 59
ENDBRANCH 54 57
ENDBRANCH 52 53
ENDBRANCH 50 52
ENDBRANCH 47 48
BRANCH 47 63
ATOM     63  CB  LYS B   8       4.387   7.720  11.916  1.00 41.14 LIG 0.04  C 
BRANCH 63 64
ATOM     64  CG  LYS B   8       5.887   7.602  12.153  1.00 42.09 LIG 0.00  C 
BRANCH 64 65
ATOM     65  CD  LYS B   8       6.175   6.617  13.271  1.00 43.68 LIG 0.03  C 
BRANCH 65 66
ATOM     66  CE  LYS B   8       6.402   7.333  14.578  1.00 41.10 LIG 0.23  C 
BRANCH 66 67
ATOM     67  NZ  LYS B   8       5.797   6.622  15.736  1.00 37.84 LIG-0.08  N 
ATOM     68 HZ3  LYS B   8       6.091   5.782  15.755  1.00 37.84 LIG 0.27  HD
ATOM     69 HZ2  LYS B   8       4.911   6.623  15.656  1.00 37.84 LIG 0.27  HD
ATOM     70 HZ1  LYS B   8       6.027   7.034  16.491  1.00 37.84 LIG 0.27  HD
ENDBRANCH 66 67
ENDBRANCH 65 66
ENDBRANCH 64 65
ENDBRANCH 63 64
ENDBRANCH 47 63
ENDBRANCH 45 47
ENDBRANCH 1 43
TORSDOF 30
ENDMDL
MODEL 18
USER: ADFR SOLUTION from run 116
USER: SCORE 21.434200 LL:  -2.731 LR: -20.104 RR:   0.000 FEB: -11.155
USER: RMSD 6.858096
USER: SEED 115
USER: STATUS no improvement in best in 3 clusters for 5 generations
USER: GENES 32
USER: genes 0 Translation |==|  0.49783 0.58838 0.32385
USER: genes 1 Rotation |==|  0.71940 0.13847 0.76564 0.52434
USER: genes 2 Torsion [N]-CA--C-[N] |==|  0.46984
USER: genes 3 Torsion [C]-N--CA-[CB] |==|  0.24934
USER: genes 4 Torsion [N]-CA--CB-[CG] |==|  0.92832
USER: genes 5 Torsion [CA]-CB--CG-[CD] |==|  0.53338
USER: genes 6 Torsion [CB]-CG--CD-[CE] |==|  0.78343
USER: genes 7 Torsion [CG]-CD--CE-[NZ] |==|  0.58850
USER: genes 8 Torsion [CD]-CE--NZ-[HZ1] |==|  0.71858
USER: genes 9 Torsion [N]-CA--C-[N] |==|  0.40153
USER: genes 10 Torsion [C]-N--CA-[C] |==|  0.63399
USER: genes 11 Torsion [N]-CA--CB-[CG] |==|  0.31896
USER: genes 12 Torsion [CA]-CB--CG-[CD2] |==|  0.80948
USER: genes 13 Torsion [CE2]-CZ--OH-[HH] |==|  0.63217
USER: genes 14 Torsion [N]-CA--C-[O] |==|  0.93498
USER: genes 15 Torsion [C]-CA--CB-[CG] |==|  0.54072
USER: genes 16 Torsion [CA]-CB--CG-[CD] |==|  0.60354
USER: genes 17 Torsion [CB]-CG--CD-[NE] |==|  0.62784
USER: genes 18 Torsion [CG]-CD--NE-[HE] |==|  0.20428
USER: genes 19 Torsion [C]-CA--N-[C] |==|  0.60719
USER: genes 20 Torsion [N]-C--CA-[N] |==|  0.87244
USER: genes 21 Torsion [C]-CA--N-[C] |==|  0.79444
USER: genes 22 Torsion [N]-C--CA-[N] |==|  0.46269
USER: genes 23 Torsion [C]-CA--N-[C] |==|  0.24466
USER: genes 24 Torsion [N]-C--CA-[N] |==|  0.62296
USER: genes 25 Torsion [C]-CA--CB-[CG] |==|  0.23212
USER: genes 26 Torsion [CA]-CB--CG-[CD1] |==|  0.66825
USER: genes 27 Torsion [C]-CA--CB-[CG] |==|  0.17137
USER: genes 28 Torsion [CA]-CB--CG-[CD] |==|  0.62519
USER: genes 29 Torsion [CB]-CG--CD-[CE] |==|  0.61871
USER: genes 30 Torsion [CG]-CD--CE-[NZ] |==|  0.86793
USER: genes 31 Torsion [CD]-CE--NZ-[HZ2] |==|  0.87031
ROOT
ATOM      1  CA  ARG B   9      -1.000   7.508   6.746  1.00 39.43 LIG 0.18  C 
ENDROOT
BRANCH 1 2
ATOM      2  C   ARG B   9       0.361   6.953   7.117  1.00 41.90 LIG 0.24  C 
ATOM      3  N   LYS B  10       0.401   6.170   8.195  1.00 39.13 LIG-0.35  N 
ATOM      4 H    LYS B  10      -0.278   6.028   8.703  1.00 39.13 LIG 0.16  HD
ATOM      5 O    ARG B   9       1.359   7.223   6.435  1.00 39.79 LIG-0.27  OA
BRANCH 3 6
ATOM      6  CA  LYS B  10       1.614   5.473   8.617  1.00 38.99 LIG 0.18  C 
BRANCH 6 7
ATOM      7  CB  LYS B  10       2.460   6.333   9.584  1.00 41.38 LIG 0.04  C 
BRANCH 7 8
ATOM      8  CG  LYS B  10       2.287   7.854   9.463  1.00 61.81 LIG 0.00  C 
BRANCH 8 9
ATOM      9  CD  LYS B  10       3.362   8.643  10.239  1.00 75.86 LIG 0.03  C 
BRANCH 9 10
ATOM     10  CE  LYS B  10       3.129   8.713  11.738  1.00 87.18 LIG 0.23  C 
BRANCH 10 11
ATOM     11  NZ  LYS B  10       3.639   9.984  12.319  1.00 91.96 LIG-0.08  N 
ATOM     12 HZ1  LYS B  10       4.422   9.837  12.715  1.00 91.96 LIG 0.27  HD
ATOM     13 HZ2  LYS B  10       3.742  10.586  11.672  1.00 91.96 LIG 0.27  HD
ATOM     14 HZ3  LYS B  10       3.057  10.290  12.920  1.00 91.96 LIG 0.27  HD
ENDBRANCH 10 11
ENDBRANCH 9 10
ENDBRANCH 8 9
ENDBRANCH 7 8
ENDBRANCH 6 7
BRANCH 6 15
ATOM     15  C   LYS B  10       1.188   4.118   9.231  1.00 41.93 LIG 0.24  C 
ATOM     16  N   TYR B  11       1.995   3.058   9.026  1.00 37.73 LIG-0.35  N 
ATOM     17 H    TYR B  11       2.719   3.117   8.567  1.00 37.73 LIG 0.16  HD
ATOM     18 O    LYS B  10       0.118   4.041   9.840  1.00 40.97 LIG-0.27  OA
BRANCH 16 19
ATOM     19  CA  TYR B  11       1.760   1.705   9.541  1.00 60.51 LIG 0.17  C 
BRANCH 19 20
ATOM     20  CB  TYR B  11       1.287   0.797   8.381  1.00 61.89 LIG 0.07  C 
BRANCH 20 21
ATOM     21  CG  TYR B  11       2.170  -0.360   7.938  1.00 64.48 LIG-0.06  A 
ATOM     22  CD2 TYR B  11       3.385  -0.127   7.303  1.00 66.36 LIG 0.01  A 
ATOM     23  CE2 TYR B  11       4.207  -1.177   6.897  1.00 66.48 LIG 0.04  A 
ATOM     24  CZ  TYR B  11       3.800  -2.483   7.088  1.00 73.62 LIG 0.07  A 
ATOM     25  CE1 TYR B  11       2.585  -2.744   7.703  1.00 67.05 LIG 0.04  A 
ATOM     26  CD1 TYR B  11       1.769  -1.683   8.106  1.00 65.84 LIG 0.01  A 
BRANCH 24 27
ATOM     27 OH   TYR B  11       4.622  -3.503   6.671  1.00 74.96 LIG-0.36  OA
ATOM     28 HH   TYR B  11       4.173  -4.065   6.236  1.00 74.96 LIG 0.22  HD
ENDBRANCH 24 27
ENDBRANCH 20 21
ENDBRANCH 19 20
BRANCH 19 29
ATOM     29  C   TYR B  11       3.039   1.171  10.202  1.00 76.68 LIG 0.22  C 
ATOM     30 O    TYR B  11       4.139   1.624   9.888  1.00 42.66 LIG-0.29  OA
ENDBRANCH 19 29
ENDBRANCH 16 19
ENDBRANCH 6 15
ENDBRANCH 3 6
ENDBRANCH 1 2
BRANCH 1 31
ATOM     31  CB  ARG B   9      -1.922   6.334   6.297  1.00 41.96 LIG 0.04  C 
BRANCH 31 32
ATOM     32  CG  ARG B   9      -3.223   6.691   5.555  1.00 54.96 LIG 0.02  C 
BRANCH 32 33
ATOM     33  CD  ARG B   9      -4.395   5.797   5.916  1.00 74.30 LIG 0.14  C 
BRANCH 33 34
ATOM     34  NE  ARG B   9      -5.126   5.344   4.728  1.00 92.04 LIG-0.23  N 
ATOM     35 HE   ARG B   9      -4.755   4.745   4.235  1.00 92.04 LIG 0.18  HD
ATOM     36  CZ  ARG B   9      -6.324   5.795   4.359  1.00114.26 LIG 0.67  C 
ATOM     37  NH2 ARG B   9      -6.906   5.328   3.261  1.00103.12 LIG-0.23  N 
ATOM     38  NH1 ARG B   9      -6.953   6.710   5.089  1.00104.54 LIG-0.23  N 
ATOM     39 1HH2 ARG B   9      -6.511   4.732   2.784  1.00103.12 LIG 0.17  HD
ATOM     40 2HH2 ARG B   9      -7.680   5.622   3.027  1.00103.12 LIG 0.17  HD
ATOM     41 1HH1 ARG B   9      -6.586   7.015   5.805  1.00104.54 LIG 0.17  HD
ATOM     42 2HH1 ARG B   9      -7.726   6.997   4.845  1.00104.54 LIG 0.17  HD
ENDBRANCH 33 34
ENDBRANCH 32 33
ENDBRANCH 31 32
ENDBRANCH 1 31
BRANCH 1 43
ATOM     43  N   ARG B   9      -0.867   8.543   5.717  1.00 39.07 LIG-0.35  N 
ATOM     44 H    ARG B   9      -0.269   8.365   5.124  1.00 39.07 LIG 0.16  HD
ATOM     45  C   LYS B   8      -1.604   9.660   5.697  1.00 42.99 LIG 0.24  C 
ATOM     46 O    LYS B   8      -2.484   9.906   6.531  1.00 42.25 LIG-0.27  OA
BRANCH 45 47
ATOM     47  CA  LYS B   8      -1.335  10.633   4.557  1.00 40.35 LIG 0.18  C 
BRANCH 47 48
ATOM     48  N   LYS B   8       0.104  10.822   4.392  1.00 42.07 LIG-0.35  N 
ATOM     49 H    LYS B   8       0.409  10.419   3.697  1.00 42.07 LIG 0.16  HD
ATOM     50  C   GLY B   7       0.894  11.527   5.200  1.00 50.14 LIG 0.24  C 
ATOM     51 O    GLY B   7       0.502  12.084   6.231  1.00 49.17 LIG-0.27  OA
BRANCH 50 52
ATOM     52  CA  GLY B   7       2.344  11.596   4.782  1.00 52.80 LIG 0.23  C 
BRANCH 52 53
ATOM     53  N   GLY B   7       3.044  12.627   5.532  1.00 55.58 LIG-0.35  N 
ATOM     54  C   LEU B   6       3.639  12.456   6.709  1.00 62.88 LIG 0.26  C 
ATOM     55 O    LEU B   6       3.668  11.380   7.317  1.00 62.93 LIG-0.27  OA
ATOM     56 H    GLY B   7       3.039  13.388   5.131  1.00 55.58 LIG 0.16  HD
BRANCH 54 57
ATOM     57  CA  LEU B   6       4.332  13.722   7.260  1.00 62.75 LIG 0.40  C 
ATOM     58  N   LEU B   6       5.651  13.370   7.787  1.00 63.15 LIG 0.61  N 
BRANCH 57 59
ATOM     59  CB  LEU B   6       4.423  14.851   6.202  1.00 63.26 LIG 0.06  C 
BRANCH 59 60
ATOM     60  CG  LEU B   6       3.178  15.757   6.032  1.00 68.65 LIG-0.02  C 
ATOM     61  CD1 LEU B   6       2.626  15.669   4.615  1.00 69.18 LIG 0.01  C 
ATOM     62  CD2 LEU B   6       2.084  15.435   7.060  1.00 70.70 LIG 0.01  C 
ENDBRANCH 59 60
ENDBRANCH 57 59
ENDBRANCH 54 57
ENDBRANCH 52 53
ENDBRANCH 50 52
ENDBRANCH 47 48
BRANCH 47 63
ATOM     63  CB  LYS B   8      -1.974  10.110   3.254  1.00 41.14 LIG 0.04  C 
BRANCH 63 64
ATOM     64  CG  LYS B   8      -3.489   9.964   3.307  1.00 42.09 LIG 0.00  C 
BRANCH 64 65
ATOM     65  CD  LYS B   8      -3.919   8.637   2.706  1.00 43.68 LIG 0.03  C 
BRANCH 65 66
ATOM     66  CE  LYS B   8      -5.130   8.810   1.825  1.00 41.10 LIG 0.23  C 
BRANCH 66 67
ATOM     67  NZ  LYS B   8      -6.199   9.619   2.470  1.00 37.84 LIG-0.08  N 
ATOM     68 HZ3  LYS B   8      -5.955  10.474   2.487  1.00 37.84 LIG 0.27  HD
ATOM     69 HZ2  LYS B   8      -6.328   9.331   3.302  1.00 37.84 LIG 0.27  HD
ATOM     70 HZ1  LYS B   8      -6.954   9.535   2.006  1.00 37.84 LIG 0.27  HD
ENDBRANCH 66 67
ENDBRANCH 65 66
ENDBRANCH 64 65
ENDBRANCH 63 64
ENDBRANCH 47 63
ENDBRANCH 45 47
ENDBRANCH 1 43
TORSDOF 30
ENDMDL
MODEL 19
USER: ADFR SOLUTION from run 62
USER: SCORE 20.806399 LL:  -2.766 LR: -20.077 RR:   0.000 FEB: -11.128
USER: RMSD 11.525957
USER: SEED 61
USER: STATUS no improvement in best in 2 clusters for 5 generations
USER: GENES 32
USER: genes 0 Translation |==|  0.58891 0.51062 0.39911
USER: genes 1 Rotation |==|  0.87978 0.80076 0.62275 0.51561
USER: genes 2 Torsion [N]-CA--C-[N] |==|  0.43333
USER: genes 3 Torsion [C]-N--CA-[CB] |==|  0.21690
USER: genes 4 Torsion [N]-CA--CB-[CG] |==|  0.44473
USER: genes 5 Torsion [CA]-CB--CG-[CD] |==|  0.47406
USER: genes 6 Torsion [CB]-CG--CD-[CE] |==|  0.45442
USER: genes 7 Torsion [CG]-CD--CE-[NZ] |==|  0.54183
USER: genes 8 Torsion [CD]-CE--NZ-[HZ1] |==|  0.93684
USER: genes 9 Torsion [N]-CA--C-[N] |==|  0.25189
USER: genes 10 Torsion [C]-N--CA-[C] |==|  0.82263
USER: genes 11 Torsion [N]-CA--CB-[CG] |==|  0.58960
USER: genes 12 Torsion [CA]-CB--CG-[CD2] |==|  0.95817
USER: genes 13 Torsion [CE2]-CZ--OH-[HH] |==|  0.37497
USER: genes 14 Torsion [N]-CA--C-[O] |==|  0.20031
USER: genes 15 Torsion [C]-CA--CB-[CG] |==|  0.24475
USER: genes 16 Torsion [CA]-CB--CG-[CD] |==|  0.30832
USER: genes 17 Torsion [CB]-CG--CD-[NE] |==|  0.42725
USER: genes 18 Torsion [CG]-CD--NE-[HE] |==|  0.28742
USER: genes 19 Torsion [C]-CA--N-[C] |==|  0.70931
USER: genes 20 Torsion [N]-C--CA-[N] |==|  0.84212
USER: genes 21 Torsion [C]-CA--N-[C] |==|  0.21753
USER: genes 22 Torsion [N]-C--CA-[N] |==|  0.64127
USER: genes 23 Torsion [C]-CA--N-[C] |==|  0.15323
USER: genes 24 Torsion [N]-C--CA-[N] |==|  0.37603
USER: genes 25 Torsion [C]-CA--CB-[CG] |==|  0.29076
USER: genes 26 Torsion [CA]-CB--CG-[CD1] |==|  0.72534
USER: genes 27 Torsion [C]-CA--CB-[CG] |==|  0.37651
USER: genes 28 Torsion [CA]-CB--CG-[CD] |==|  0.66803
USER: genes 29 Torsion [CB]-CG--CD-[CE] |==|  0.30219
USER: genes 30 Torsion [CG]-CD--CE-[NZ] |==|  0.87462
USER: genes 31 Torsion [CD]-CE--NZ-[HZ2] |==|  0.71639
ROOT
ATOM      1  CA  ARG B   9       0.981   5.409   8.609  1.00 39.43 LIG 0.18  C 
ENDROOT
BRANCH 1 2
ATOM      2  C   ARG B   9       0.168   5.666   7.355  1.00 41.90 LIG 0.24  C 
ATOM      3  N   LYS B  10      -0.580   6.770   7.358  1.00 39.13 LIG-0.35  N 
ATOM      4 H    LYS B  10      -0.664   7.284   8.043  1.00 39.13 LIG 0.16  HD
ATOM      5 O    ARG B   9       0.220   4.882   6.398  1.00 39.79 LIG-0.27  OA
BRANCH 3 6
ATOM      6  CA  LYS B  10      -1.335   7.212   6.187  1.00 38.99 LIG 0.18  C 
BRANCH 6 7
ATOM      7  CB  LYS B  10      -2.637   6.399   6.006  1.00 41.38 LIG 0.04  C 
BRANCH 7 8
ATOM      8  CG  LYS B  10      -3.723   7.049   5.135  1.00 61.81 LIG 0.00  C 
BRANCH 8 9
ATOM      9  CD  LYS B  10      -4.887   6.089   4.815  1.00 75.86 LIG 0.03  C 
BRANCH 9 10
ATOM     10  CE  LYS B  10      -6.143   6.774   4.306  1.00 87.18 LIG 0.23  C 
BRANCH 10 11
ATOM     11  NZ  LYS B  10      -7.325   5.872   4.356  1.00 91.96 LIG-0.08  N 
ATOM     12 HZ1  LYS B  10      -7.053   5.024   4.356  1.00 91.96 LIG 0.27  HD
ATOM     13 HZ2  LYS B  10      -7.791   6.033   5.097  1.00 91.96 LIG 0.27  HD
ATOM     14 HZ3  LYS B  10      -7.841   6.017   3.645  1.00 91.96 LIG 0.27  HD
ENDBRANCH 10 11
ENDBRANCH 9 10
ENDBRANCH 8 9
ENDBRANCH 7 8
ENDBRANCH 6 7
BRANCH 6 15
ATOM     15  C   LYS B  10      -1.588   8.731   6.339  1.00 41.93 LIG 0.24  C 
ATOM     16  N   TYR B  11      -0.674   9.572   5.815  1.00 37.73 LIG-0.35  N 
ATOM     17 H    TYR B  11       0.032   9.288   5.416  1.00 37.73 LIG 0.16  HD
ATOM     18 O    LYS B  10      -2.579   9.119   6.964  1.00 40.97 LIG-0.27  OA
BRANCH 16 19
ATOM     19  CA  TYR B  11      -0.754  11.036   5.850  1.00 60.51 LIG 0.17  C 
BRANCH 19 20
ATOM     20  CB  TYR B  11       0.564  11.629   5.298  1.00 61.89 LIG 0.07  C 
BRANCH 20 21
ATOM     21  CG  TYR B  11       1.073  12.950   5.856  1.00 64.48 LIG-0.06  A 
ATOM     22  CD2 TYR B  11       0.243  13.775   6.606  1.00 66.36 LIG 0.01  A 
ATOM     23  CE2 TYR B  11       0.698  14.985   7.128  1.00 66.48 LIG 0.04  A 
ATOM     24  CZ  TYR B  11       1.988  15.405   6.869  1.00 73.62 LIG 0.07  A 
ATOM     25  CE1 TYR B  11       2.833  14.609   6.109  1.00 67.05 LIG 0.04  A 
ATOM     26  CD1 TYR B  11       2.366  13.397   5.591  1.00 65.84 LIG 0.01  A 
BRANCH 24 27
ATOM     27 OH   TYR B  11       2.413  16.605   7.386  1.00 74.96 LIG-0.36  OA
ATOM     28 HH   TYR B  11       3.179  16.512   7.717  1.00 74.96 LIG 0.22  HD
ENDBRANCH 24 27
ENDBRANCH 20 21
ENDBRANCH 19 20
BRANCH 19 29
ATOM     29  C   TYR B  11      -1.975  11.509   5.049  1.00 76.68 LIG 0.22  C 
ATOM     30 O    TYR B  11      -3.112  11.341   5.487  1.00 42.66 LIG-0.29  OA
ENDBRANCH 19 29
ENDBRANCH 16 19
ENDBRANCH 6 15
ENDBRANCH 3 6
ENDBRANCH 1 2
BRANCH 1 31
ATOM     31  CB  ARG B   9       2.267   6.290   8.570  1.00 41.96 LIG 0.04  C 
BRANCH 31 32
ATOM     32  CG  ARG B   9       2.176   7.713   9.151  1.00 54.96 LIG 0.02  C 
BRANCH 32 33
ATOM     33  CD  ARG B   9       2.965   7.898  10.433  1.00 74.30 LIG 0.14  C 
BRANCH 33 34
ATOM     34  NE  ARG B   9       3.376   9.293  10.628  1.00 92.04 LIG-0.23  N 
ATOM     35 HE   ARG B   9       2.939   9.762  11.201  1.00 92.04 LIG 0.18  HD
ATOM     36  CZ  ARG B   9       4.378   9.885   9.980  1.00114.26 LIG 0.67  C 
ATOM     37  NH2 ARG B   9       4.673  11.157  10.219  1.00103.12 LIG-0.23  N 
ATOM     38  NH1 ARG B   9       5.099   9.207   9.092  1.00104.54 LIG-0.23  N 
ATOM     39 1HH2 ARG B   9       4.216  11.603  10.794  1.00103.12 LIG 0.17  HD
ATOM     40 2HH2 ARG B   9       5.321  11.534   9.798  1.00103.12 LIG 0.17  HD
ATOM     41 1HH1 ARG B   9       4.920   8.381   8.933  1.00104.54 LIG 0.17  HD
ATOM     42 2HH1 ARG B   9       5.745   9.595   8.677  1.00104.54 LIG 0.17  HD
ENDBRANCH 33 34
ENDBRANCH 32 33
ENDBRANCH 31 32
ENDBRANCH 1 31
BRANCH 1 43
ATOM     43  N   ARG B   9       1.283   3.980   8.738  1.00 39.07 LIG-0.35  N 
ATOM     44 H    ARG B   9       1.899   3.709   8.201  1.00 39.07 LIG 0.16  HD
ATOM     45  C   LYS B   8       0.662   3.172   9.606  1.00 42.99 LIG 0.24  C 
ATOM     46 O    LYS B   8      -0.203   3.566  10.397  1.00 42.25 LIG-0.27  OA
BRANCH 45 47
ATOM     47  CA  LYS B   8       1.097   1.713   9.607  1.00 40.35 LIG 0.18  C 
BRANCH 47 48
ATOM     48  N   LYS B   8       0.937   1.145   8.271  1.00 42.07 LIG-0.35  N 
ATOM     49 H    LYS B   8       0.231   0.661   8.203  1.00 42.07 LIG 0.16  HD
ATOM     50  C   GLY B   7       1.765   1.328   7.243  1.00 50.14 LIG 0.24  C 
ATOM     51 O    GLY B   7       2.812   1.980   7.311  1.00 49.17 LIG-0.27  OA
BRANCH 50 52
ATOM     52  CA  GLY B   7       1.348   0.658   5.955  1.00 52.80 LIG 0.23  C 
BRANCH 52 53
ATOM     53  N   GLY B   7       2.445  -0.125   5.408  1.00 55.58 LIG-0.35  N 
ATOM     54  C   LEU B   6       3.107  -1.082   6.053  1.00 62.88 LIG 0.26  C 
ATOM     55 O    LEU B   6       2.864  -1.425   7.216  1.00 62.93 LIG-0.27  OA
ATOM     56 H    GLY B   7       2.635   0.094   4.598  1.00 55.58 LIG 0.16  HD
BRANCH 54 57
ATOM     57  CA  LEU B   6       4.208  -1.768   5.213  1.00 62.75 LIG 0.40  C 
ATOM     58  N   LEU B   6       5.422  -1.910   6.018  1.00 63.15 LIG 0.61  N 
BRANCH 57 59
ATOM     59  CB  LEU B   6       3.744  -3.129   4.635  1.00 63.26 LIG 0.06  C 
BRANCH 59 60
ATOM     60  CG  LEU B   6       3.396  -3.171   3.126  1.00 68.65 LIG-0.02  C 
ATOM     61  CD1 LEU B   6       1.892  -3.071   2.908  1.00 69.18 LIG 0.01  C 
ATOM     62  CD2 LEU B   6       4.132  -2.080   2.334  1.00 70.70 LIG 0.01  C 
ENDBRANCH 59 60
ENDBRANCH 57 59
ENDBRANCH 54 57
ENDBRANCH 52 53
ENDBRANCH 50 52
ENDBRANCH 47 48
BRANCH 47 63
ATOM     63  CB  LYS B   8       2.558   1.596  10.083  1.00 41.14 LIG 0.04  C 
BRANCH 63 64
ATOM     64  CG  LYS B   8       2.810   0.477  11.085  1.00 42.09 LIG 0.00  C 
BRANCH 64 65
ATOM     65  CD  LYS B   8       3.334   1.039  12.394  1.00 43.68 LIG 0.03  C 
BRANCH 65 66
ATOM     66  CE  LYS B   8       2.293   0.939  13.480  1.00 41.10 LIG 0.23  C 
BRANCH 66 67
ATOM     67  NZ  LYS B   8       0.944   1.372  13.025  1.00 37.84 LIG-0.08  N 
ATOM     68 HZ3  LYS B   8       0.917   1.372  12.135  1.00 37.84 LIG 0.27  HD
ATOM     69 HZ2  LYS B   8       0.779   2.193  13.326  1.00 37.84 LIG 0.27  HD
ATOM     70 HZ1  LYS B   8       0.330   0.811  13.340  1.00 37.84 LIG 0.27  HD
ENDBRANCH 66 67
ENDBRANCH 65 66
ENDBRANCH 64 65
ENDBRANCH 63 64
ENDBRANCH 47 63
ENDBRANCH 45 47
ENDBRANCH 1 43
TORSDOF 30
ENDMDL
MODEL 20
USER: ADFR SOLUTION from run 195
USER: SCORE 22.672490 LL:  -3.927 LR: -20.076 RR:   0.000 FEB: -11.127
USER: RMSD 8.875043
USER: SEED 194
USER: STATUS 1 or 2 clusters left
USER: GENES 32
USER: genes 0 Translation |==|  0.48726 0.71039 0.28243
USER: genes 1 Rotation |==|  0.46105 0.02353 0.64017 0.54259
USER: genes 2 Torsion [N]-CA--C-[N] |==|  0.38753
USER: genes 3 Torsion [C]-N--CA-[CB] |==|  0.79935
USER: genes 4 Torsion [N]-CA--CB-[CG] |==|  0.83834
USER: genes 5 Torsion [CA]-CB--CG-[CD] |==|  0.64912
USER: genes 6 Torsion [CB]-CG--CD-[CE] |==|  0.74132
USER: genes 7 Torsion [CG]-CD--CE-[NZ] |==|  0.58224
USER: genes 8 Torsion [CD]-CE--NZ-[HZ1] |==|  0.39238
USER: genes 9 Torsion [N]-CA--C-[N] |==|  0.23889
USER: genes 10 Torsion [C]-N--CA-[C] |==|  0.61480
USER: genes 11 Torsion [N]-CA--CB-[CG] |==|  0.29501
USER: genes 12 Torsion [CA]-CB--CG-[CD2] |==|  0.29091
USER: genes 13 Torsion [CE2]-CZ--OH-[HH] |==|  0.04327
USER: genes 14 Torsion [N]-CA--C-[O] |==|  0.04778
USER: genes 15 Torsion [C]-CA--CB-[CG] |==|  0.77489
USER: genes 16 Torsion [CA]-CB--CG-[CD] |==|  0.31008
USER: genes 17 Torsion [CB]-CG--CD-[NE] |==|  0.14298
USER: genes 18 Torsion [CG]-CD--NE-[HE] |==|  0.00876
USER: genes 19 Torsion [C]-CA--N-[C] |==|  0.58140
USER: genes 20 Torsion [N]-C--CA-[N] |==|  0.82984
USER: genes 21 Torsion [C]-CA--N-[C] |==|  0.67352
USER: genes 22 Torsion [N]-C--CA-[N] |==|  0.57276
USER: genes 23 Torsion [C]-CA--N-[C] |==|  0.74161
USER: genes 24 Torsion [N]-C--CA-[N] |==|  0.51454
USER: genes 25 Torsion [C]-CA--CB-[CG] |==|  0.41601
USER: genes 26 Torsion [CA]-CB--CG-[CD1] |==|  0.69103
USER: genes 27 Torsion [C]-CA--CB-[CG] |==|  0.32996
USER: genes 28 Torsion [CA]-CB--CG-[CD] |==|  0.10438
USER: genes 29 Torsion [CB]-CG--CD-[CE] |==|  0.74386
USER: genes 30 Torsion [CG]-CD--CE-[NZ] |==|  0.41041
USER: genes 31 Torsion [CD]-CE--NZ-[HZ2] |==|  0.56173
ROOT
ATOM      1  CA  ARG B   9      -1.230  10.803   5.721  1.00 39.43 LIG 0.18  C 
ENDROOT
BRANCH 1 2
ATOM      2  C   ARG B   9      -1.225   9.287   5.671  1.00 41.90 LIG 0.24  C 
ATOM      3  N   LYS B  10      -1.965   8.668   6.591  1.00 39.13 LIG-0.35  N 
ATOM      4 H    LYS B  10      -2.375   9.080   7.225  1.00 39.13 LIG 0.16  HD
ATOM      5 O    ARG B   9      -0.568   8.687   4.810  1.00 39.79 LIG-0.27  OA
BRANCH 3 6
ATOM      6  CA  LYS B  10      -2.149   7.219   6.607  1.00 38.99 LIG 0.18  C 
BRANCH 6 7
ATOM      7  CB  LYS B  10      -3.071   6.746   5.459  1.00 41.38 LIG 0.04  C 
BRANCH 7 8
ATOM      8  CG  LYS B  10      -4.481   7.355   5.432  1.00 61.81 LIG 0.00  C 
BRANCH 8 9
ATOM      9  CD  LYS B  10      -5.593   6.285   5.391  1.00 75.86 LIG 0.03  C 
BRANCH 9 10
ATOM     10  CE  LYS B  10      -6.063   5.922   3.993  1.00 87.18 LIG 0.23  C 
BRANCH 10 11
ATOM     11  NZ  LYS B  10      -7.488   5.497   3.981  1.00 91.96 LIG-0.08  N 
ATOM     12 HZ1  LYS B  10      -7.888   5.816   3.252  1.00 91.96 LIG 0.27  HD
ATOM     13 HZ2  LYS B  10      -7.533   4.609   3.978  1.00 91.96 LIG 0.27  HD
ATOM     14 HZ3  LYS B  10      -7.899   5.813   4.705  1.00 91.96 LIG 0.27  HD
ENDBRANCH 10 11
ENDBRANCH 9 10
ENDBRANCH 8 9
ENDBRANCH 7 8
ENDBRANCH 6 7
BRANCH 6 15
ATOM     15  C   LYS B  10      -0.747   6.567   6.561  1.00 41.93 LIG 0.24  C 
ATOM     16  N   TYR B  11      -0.102   6.387   7.731  1.00 37.73 LIG-0.35  N 
ATOM     17 H    TYR B  11      -0.443   6.629   8.482  1.00 37.73 LIG 0.16  HD
ATOM     18 O    LYS B  10      -0.250   6.278   5.468  1.00 40.97 LIG-0.27  OA
BRANCH 16 19
ATOM     19  CA  TYR B  11       1.223   5.776   7.881  1.00 60.51 LIG 0.17  C 
BRANCH 19 20
ATOM     20  CB  TYR B  11       2.285   6.894   8.004  1.00 61.89 LIG 0.07  C 
BRANCH 20 21
ATOM     21  CG  TYR B  11       2.915   7.172   9.361  1.00 64.48 LIG-0.06  A 
ATOM     22  CD2 TYR B  11       4.211   6.757   9.644  1.00 66.36 LIG 0.01  A 
ATOM     23  CE2 TYR B  11       4.804   7.010  10.880  1.00 66.48 LIG 0.04  A 
ATOM     24  CZ  TYR B  11       4.084   7.652  11.869  1.00 73.62 LIG 0.07  A 
ATOM     25  CE1 TYR B  11       2.783   8.062  11.620  1.00 67.05 LIG 0.04  A 
ATOM     26  CD1 TYR B  11       2.199   7.803  10.376  1.00 65.84 LIG 0.01  A 
BRANCH 24 27
ATOM     27 OH   TYR B  11       4.684   7.883  13.084  1.00 74.96 LIG-0.36  OA
ATOM     28 HH   TYR B  11       5.515   7.783  13.010  1.00 74.96 LIG 0.22  HD
ENDBRANCH 24 27
ENDBRANCH 20 21
ENDBRANCH 19 20
BRANCH 19 29
ATOM     29  C   TYR B  11       1.229   4.843   9.101  1.00 76.68 LIG 0.22  C 
ATOM     30 O    TYR B  11       0.172   4.453   9.592  1.00 42.66 LIG-0.29  OA
ENDBRANCH 19 29
ENDBRANCH 16 19
ENDBRANCH 6 15
ENDBRANCH 3 6
ENDBRANCH 1 2
BRANCH 1 31
ATOM     31  CB  ARG B   9      -2.280  11.341   4.701  1.00 41.96 LIG 0.04  C 
BRANCH 31 32
ATOM     32  CG  ARG B   9      -1.861  11.422   3.221  1.00 54.96 LIG 0.02  C 
BRANCH 32 33
ATOM     33  CD  ARG B   9      -2.591  10.437   2.328  1.00 74.30 LIG 0.14  C 
BRANCH 33 34
ATOM     34  NE  ARG B   9      -4.046  10.515   2.500  1.00 92.04 LIG-0.23  N 
ATOM     35 HE   ARG B   9      -4.353  11.113   3.035  1.00 92.04 LIG 0.18  HD
ATOM     36  CZ  ARG B   9      -4.924   9.723   1.885  1.00114.26 LIG 0.67  C 
ATOM     37  NH2 ARG B   9      -6.224   9.864   2.109  1.00103.12 LIG-0.23  N 
ATOM     38  NH1 ARG B   9      -4.509   8.789   1.035  1.00104.54 LIG-0.23  N 
ATOM     39 1HH2 ARG B   9      -6.504  10.469   2.652  1.00103.12 LIG 0.17  HD
ATOM     40 2HH2 ARG B   9      -6.788   9.352   1.709  1.00103.12 LIG 0.17  HD
ATOM     41 1HH1 ARG B   9      -3.668   8.692   0.879  1.00104.54 LIG 0.17  HD
ATOM     42 2HH1 ARG B   9      -5.080   8.282   0.642  1.00104.54 LIG 0.17  HD
ENDBRANCH 33 34
ENDBRANCH 32 33
ENDBRANCH 31 32
ENDBRANCH 1 31
BRANCH 1 43
ATOM     43  N   ARG B   9       0.116  11.327   5.471  1.00 39.07 LIG-0.35  N 
ATOM     44 H    ARG B   9       0.594  10.820   4.966  1.00 39.07 LIG 0.16  HD
ATOM     45  C   LYS B   8       0.561  12.482   5.978  1.00 42.99 LIG 0.24  C 
ATOM     46 O    LYS B   8      -0.134  13.226   6.681  1.00 42.25 LIG-0.27  OA
BRANCH 45 47
ATOM     47  CA  LYS B   8       1.988  12.878   5.620  1.00 40.35 LIG 0.18  C 
BRANCH 47 48
ATOM     48  N   LYS B   8       2.922  11.872   6.119  1.00 42.07 LIG-0.35  N 
ATOM     49 H    LYS B   8       2.796  11.102   5.760  1.00 42.07 LIG 0.16  HD
ATOM     50  C   GLY B   7       3.877  12.077   7.025  1.00 50.14 LIG 0.24  C 
ATOM     51 O    GLY B   7       4.063  13.157   7.595  1.00 49.17 LIG-0.27  OA
BRANCH 50 52
ATOM     52  CA  GLY B   7       4.735  10.874   7.338  1.00 52.80 LIG 0.23  C 
BRANCH 52 53
ATOM     53  N   GLY B   7       5.286  10.975   8.681  1.00 55.58 LIG-0.35  N 
ATOM     54  C   LEU B   6       6.471  11.494   8.992  1.00 62.88 LIG 0.26  C 
ATOM     55 O    LEU B   6       7.259  11.960   8.162  1.00 62.93 LIG-0.27  OA
ATOM     56 H    GLY B   7       4.756  10.657   9.280  1.00 55.58 LIG 0.16  HD
BRANCH 54 57
ATOM     57  CA  LEU B   6       6.784  11.497  10.505  1.00 62.75 LIG 0.40  C 
ATOM     58  N   LEU B   6       8.046  12.197  10.744  1.00 63.15 LIG 0.61  N 
BRANCH 57 59
ATOM     59  CB  LEU B   6       5.629  12.101  11.344  1.00 63.26 LIG 0.06  C 
BRANCH 59 60
ATOM     60  CG  LEU B   6       5.445  11.556  12.782  1.00 68.65 LIG-0.02  C 
ATOM     61  CD1 LEU B   6       4.160  10.748  12.902  1.00 69.18 LIG 0.01  C 
ATOM     62  CD2 LEU B   6       6.652  10.727  13.244  1.00 70.70 LIG 0.01  C 
ENDBRANCH 59 60
ENDBRANCH 57 59
ENDBRANCH 54 57
ENDBRANCH 52 53
ENDBRANCH 50 52
ENDBRANCH 47 48
BRANCH 47 63
ATOM     63  CB  LYS B   8       2.123  13.046   4.094  1.00 41.14 LIG 0.04  C 
BRANCH 63 64
ATOM     64  CG  LYS B   8       2.523  14.445   3.644  1.00 42.09 LIG 0.00  C 
BRANCH 64 65
ATOM     65  CD  LYS B   8       3.526  15.050   4.610  1.00 43.68 LIG 0.03  C 
BRANCH 65 66
ATOM     66  CE  LYS B   8       2.830  15.855   5.678  1.00 41.10 LIG 0.23  C 
BRANCH 66 67
ATOM     67  NZ  LYS B   8       3.547  15.822   6.981  1.00 37.84 LIG-0.08  N 
ATOM     68 HZ3  LYS B   8       3.886  15.010   7.113  1.00 37.84 LIG 0.27  HD
ATOM     69 HZ2  LYS B   8       2.978  16.016   7.638  1.00 37.84 LIG 0.27  HD
ATOM     70 HZ1  LYS B   8       4.206  16.421   6.973  1.00 37.84 LIG 0.27  HD
ENDBRANCH 66 67
ENDBRANCH 65 66
ENDBRANCH 64 65
ENDBRANCH 63 64
ENDBRANCH 47 63
ENDBRANCH 45 47
ENDBRANCH 1 43
TORSDOF 30
ENDMDL
MODEL 21
USER: ADFR SOLUTION from run 83
USER: SCORE 23.447980 LL:  -3.756 LR: -20.007 RR:   0.000 FEB: -11.058
USER: RMSD 8.002730
USER: SEED 82
USER: STATUS no improvement in best in 4 clusters for 5 generations
USER: GENES 32
USER: genes 0 Translation |==|  0.49797 0.28244 0.23935
USER: genes 1 Rotation |==|  0.38818 0.87176 0.27670 0.72232
USER: genes 2 Torsion [N]-CA--C-[N] |==|  0.06667
USER: genes 3 Torsion [C]-N--CA-[CB] |==|  0.13933
USER: genes 4 Torsion [N]-CA--CB-[CG] |==|  0.16048
USER: genes 5 Torsion [CA]-CB--CG-[CD] |==|  0.58718
USER: genes 6 Torsion [CB]-CG--CD-[CE] |==|  0.36221
USER: genes 7 Torsion [CG]-CD--CE-[NZ] |==|  0.40459
USER: genes 8 Torsion [CD]-CE--NZ-[HZ1] |==|  0.29930
USER: genes 9 Torsion [N]-CA--C-[N] |==|  0.14437
USER: genes 10 Torsion [C]-N--CA-[C] |==|  0.31106
USER: genes 11 Torsion [N]-CA--CB-[CG] |==|  0.68171
USER: genes 12 Torsion [CA]-CB--CG-[CD2] |==|  0.96235
USER: genes 13 Torsion [CE2]-CZ--OH-[HH] |==|  0.89140
USER: genes 14 Torsion [N]-CA--C-[O] |==|  0.37169
USER: genes 15 Torsion [C]-CA--CB-[CG] |==|  0.24527
USER: genes 16 Torsion [CA]-CB--CG-[CD] |==|  0.65798
USER: genes 17 Torsion [CB]-CG--CD-[NE] |==|  0.42817
USER: genes 18 Torsion [CG]-CD--NE-[HE] |==|  0.66507
USER: genes 19 Torsion [C]-CA--N-[C] |==|  0.17327
USER: genes 20 Torsion [N]-C--CA-[N] |==|  0.87368
USER: genes 21 Torsion [C]-CA--N-[C] |==|  0.82913
USER: genes 22 Torsion [N]-C--CA-[N] |==|  0.03836
USER: genes 23 Torsion [C]-CA--N-[C] |==|  0.22193
USER: genes 24 Torsion [N]-C--CA-[N] |==|  0.54940
USER: genes 25 Torsion [C]-CA--CB-[CG] |==|  0.40413
USER: genes 26 Torsion [CA]-CB--CG-[CD1] |==|  0.79946
USER: genes 27 Torsion [C]-CA--CB-[CG] |==|  0.46526
USER: genes 28 Torsion [CA]-CB--CG-[CD] |==|  0.31347
USER: genes 29 Torsion [CB]-CG--CD-[CE] |==|  0.40926
USER: genes 30 Torsion [CG]-CD--CE-[NZ] |==|  0.62647
USER: genes 31 Torsion [CD]-CE--NZ-[HZ2] |==|  0.08526
ROOT
ATOM      1  CA  ARG B   9      -0.997  -0.752   4.655  1.00 39.43 LIG 0.18  C 
ENDROOT
BRANCH 1 2
ATOM      2  C   ARG B   9      -0.207  -1.530   5.689  1.00 41.90 LIG 0.24  C 
ATOM      3  N   LYS B  10       0.261  -0.827   6.720  1.00 39.13 LIG-0.35  N 
ATOM      4 H    LYS B  10       0.189   0.027   6.782  1.00 39.13 LIG 0.16  HD
ATOM      5 O    ARG B   9      -0.028  -2.749   5.559  1.00 39.79 LIG-0.27  OA
BRANCH 3 6
ATOM      6  CA  LYS B  10       0.947  -1.450   7.850  1.00 38.99 LIG 0.18  C 
BRANCH 6 7
ATOM      7  CB  LYS B  10       2.073  -2.400   7.382  1.00 41.38 LIG 0.04  C 
BRANCH 7 8
ATOM      8  CG  LYS B  10       3.166  -1.771   6.504  1.00 61.81 LIG 0.00  C 
BRANCH 8 9
ATOM      9  CD  LYS B  10       3.762  -2.767   5.487  1.00 75.86 LIG 0.03  C 
BRANCH 9 10
ATOM     10  CE  LYS B  10       3.821  -2.247   4.061  1.00 87.18 LIG 0.23  C 
BRANCH 10 11
ATOM     11  NZ  LYS B  10       5.016  -2.753   3.335  1.00 91.96 LIG-0.08  N 
ATOM     12 HZ1  LYS B  10       4.764  -3.358   2.733  1.00 91.96 LIG 0.27  HD
ATOM     13 HZ2  LYS B  10       5.422  -2.077   2.923  1.00 91.96 LIG 0.27  HD
ATOM     14 HZ3  LYS B  10       5.579  -3.128   3.914  1.00 91.96 LIG 0.27  HD
ENDBRANCH 10 11
ENDBRANCH 9 10
ENDBRANCH 8 9
ENDBRANCH 7 8
ENDBRANCH 6 7
BRANCH 6 15
ATOM     15  C   LYS B  10       1.459  -0.316   8.770  1.00 41.93 LIG 0.24  C 
ATOM     16  N   TYR B  11       0.571   0.619   9.163  1.00 37.73 LIG-0.35  N 
ATOM     17 H    TYR B  11      -0.251   0.603   8.911  1.00 37.73 LIG 0.16  HD
ATOM     18 O    LYS B  10       2.654  -0.278   9.075  1.00 40.97 LIG-0.27  OA
BRANCH 16 19
ATOM     19  CA  TYR B  11       0.871   1.754  10.041  1.00 60.51 LIG 0.17  C 
BRANCH 19 20
ATOM     20  CB  TYR B  11       2.274   1.556  10.663  1.00 61.89 LIG 0.07  C 
BRANCH 20 21
ATOM     21  CG  TYR B  11       2.396   1.348  12.166  1.00 64.48 LIG-0.06  A 
ATOM     22  CD2 TYR B  11       1.325   1.609  13.012  1.00 66.36 LIG 0.01  A 
ATOM     23  CE2 TYR B  11       1.421   1.418  14.389  1.00 66.48 LIG 0.04  A 
ATOM     24  CZ  TYR B  11       2.614   0.997  14.944  1.00 73.62 LIG 0.07  A 
ATOM     25  CE1 TYR B  11       3.705   0.745  14.125  1.00 67.05 LIG 0.04  A 
ATOM     26  CD1 TYR B  11       3.597   0.941  12.745  1.00 65.84 LIG 0.01  A 
BRANCH 24 27
ATOM     27 OH   TYR B  11       2.690   0.824  16.305  1.00 74.96 LIG-0.36  OA
ATOM     28 HH   TYR B  11       2.261   1.436  16.689  1.00 74.96 LIG 0.22  HD
ENDBRANCH 24 27
ENDBRANCH 20 21
ENDBRANCH 19 20
BRANCH 19 29
ATOM     29  C   TYR B  11       0.776   3.065   9.248  1.00 76.68 LIG 0.22  C 
ATOM     30 O    TYR B  11       0.172   4.031   9.712  1.00 42.66 LIG-0.29  OA
ENDBRANCH 19 29
ENDBRANCH 16 19
ENDBRANCH 6 15
ENDBRANCH 3 6
ENDBRANCH 1 2
BRANCH 1 31
ATOM     31  CB  ARG B   9      -0.774  -1.399   3.253  1.00 41.96 LIG 0.04  C 
BRANCH 31 32
ATOM     32  CG  ARG B   9      -1.720  -2.539   2.834  1.00 54.96 LIG 0.02  C 
BRANCH 32 33
ATOM     33  CD  ARG B   9      -1.001  -3.827   2.480  1.00 74.30 LIG 0.14  C 
BRANCH 33 34
ATOM     34  NE  ARG B   9      -1.854  -5.004   2.678  1.00 92.04 LIG-0.23  N 
ATOM     35 HE   ARG B   9      -1.584  -5.604   3.231  1.00 92.04 LIG 0.18  HD
ATOM     36  CZ  ARG B   9      -3.017  -5.208   2.061  1.00114.26 LIG 0.67  C 
ATOM     37  NH2 ARG B   9      -3.718  -6.309   2.301  1.00103.12 LIG-0.23  N 
ATOM     38  NH1 ARG B   9      -3.493  -4.309   1.206  1.00104.54 LIG-0.23  N 
ATOM     39 1HH2 ARG B   9      -3.423  -6.895   2.856  1.00103.12 LIG 0.17  HD
ATOM     40 2HH2 ARG B   9      -4.469  -6.436   1.901  1.00103.12 LIG 0.17  HD
ATOM     41 1HH1 ARG B   9      -3.048  -3.589   1.047  1.00104.54 LIG 0.17  HD
ATOM     42 2HH1 ARG B   9      -4.244  -4.446   0.811  1.00104.54 LIG 0.17  HD
ENDBRANCH 33 34
ENDBRANCH 32 33
ENDBRANCH 31 32
ENDBRANCH 1 31
BRANCH 1 43
ATOM     43  N   ARG B   9      -0.623   0.665   4.685  1.00 39.07 LIG-0.35  N 
ATOM     44 H    ARG B   9      -1.272   1.188   4.897  1.00 39.07 LIG 0.16  HD
ATOM     45  C   LYS B   8       0.611   1.105   4.410  1.00 42.99 LIG 0.24  C 
ATOM     46 O    LYS B   8       1.553   0.353   4.134  1.00 42.25 LIG-0.27  OA
BRANCH 45 47
ATOM     47  CA  LYS B   8       0.828   2.611   4.485  1.00 40.35 LIG 0.18  C 
BRANCH 47 48
ATOM     48  N   LYS B   8      -0.264   3.305   3.809  1.00 42.07 LIG-0.35  N 
ATOM     49 H    LYS B   8      -0.706   3.816   4.341  1.00 42.07 LIG 0.16  HD
ATOM     50  C   GLY B   7      -0.579   3.193   2.519  1.00 50.14 LIG 0.24  C 
ATOM     51 O    GLY B   7       0.003   2.439   1.733  1.00 49.17 LIG-0.27  OA
BRANCH 50 52
ATOM     52  CA  GLY B   7      -1.733   4.053   2.062  1.00 52.80 LIG 0.23  C 
BRANCH 52 53
ATOM     53  N   GLY B   7      -2.048   5.061   3.063  1.00 55.58 LIG-0.35  N 
ATOM     54  C   LEU B   6      -1.390   6.203   3.241  1.00 62.88 LIG 0.26  C 
ATOM     55 O    LEU B   6      -0.415   6.550   2.565  1.00 62.93 LIG-0.27  OA
ATOM     56 H    GLY B   7      -2.724   4.844   3.549  1.00 55.58 LIG 0.16  HD
BRANCH 54 57
ATOM     57  CA  LEU B   6      -1.965   7.098   4.362  1.00 62.75 LIG 0.40  C 
ATOM     58  N   LEU B   6      -1.467   8.465   4.202  1.00 63.15 LIG 0.61  N 
BRANCH 57 59
ATOM     59  CB  LEU B   6      -3.513   7.057   4.412  1.00 63.26 LIG 0.06  C 
BRANCH 59 60
ATOM     60  CG  LEU B   6      -4.174   7.160   5.809  1.00 68.65 LIG-0.02  C 
ATOM     61  CD1 LEU B   6      -3.975   5.877   6.606  1.00 69.18 LIG 0.01  C 
ATOM     62  CD2 LEU B   6      -3.665   8.374   6.600  1.00 70.70 LIG 0.01  C 
ENDBRANCH 59 60
ENDBRANCH 57 59
ENDBRANCH 54 57
ENDBRANCH 52 53
ENDBRANCH 50 52
ENDBRANCH 47 48
BRANCH 47 63
ATOM     63  CB  LYS B   8       0.936   3.057   5.957  1.00 41.14 LIG 0.04  C 
BRANCH 63 64
ATOM     64  CG  LYS B   8       1.448   4.478   6.152  1.00 42.09 LIG 0.00  C 
BRANCH 64 65
ATOM     65  CD  LYS B   8       0.356   5.366   6.721  1.00 43.68 LIG 0.03  C 
BRANCH 65 66
ATOM     66  CE  LYS B   8       0.937   6.425   7.623  1.00 41.10 LIG 0.23  C 
BRANCH 66 67
ATOM     67  NZ  LYS B   8       0.185   6.569   8.899  1.00 37.84 LIG-0.08  N 
ATOM     68 HZ3  LYS B   8       0.738   6.844   9.540  1.00 37.84 LIG 0.27  HD
ATOM     69 HZ2  LYS B   8      -0.166   5.784   9.127  1.00 37.84 LIG 0.27  HD
ATOM     70 HZ1  LYS B   8      -0.466   7.167   8.794  1.00 37.84 LIG 0.27  HD
ENDBRANCH 66 67
ENDBRANCH 65 66
ENDBRANCH 64 65
ENDBRANCH 63 64
ENDBRANCH 47 63
ENDBRANCH 45 47
ENDBRANCH 1 43
TORSDOF 30
ENDMDL
MODEL 22
USER: ADFR SOLUTION from run 133
USER: SCORE 21.046108 LL:  -3.484 LR: -19.907 RR:   0.000 FEB: -10.958
USER: RMSD 10.958487
USER: SEED 132
USER: STATUS searching
USER: GENES 32
USER: genes 0 Translation |==|  0.69106 0.60276 0.48304
USER: genes 1 Rotation |==|  0.83271 0.72339 0.79851 0.51709
USER: genes 2 Torsion [N]-CA--C-[N] |==|  0.13333
USER: genes 3 Torsion [C]-N--CA-[CB] |==|  0.19505
USER: genes 4 Torsion [N]-CA--CB-[CG] |==|  0.62833
USER: genes 5 Torsion [CA]-CB--CG-[CD] |==|  0.12422
USER: genes 6 Torsion [CB]-CG--CD-[CE] |==|  0.24497
USER: genes 7 Torsion [CG]-CD--CE-[NZ] |==|  0.44208
USER: genes 8 Torsion [CD]-CE--NZ-[HZ1] |==|  0.71123
USER: genes 9 Torsion [N]-CA--C-[N] |==|  0.01685
USER: genes 10 Torsion [C]-N--CA-[C] |==|  0.16139
USER: genes 11 Torsion [N]-CA--CB-[CG] |==|  0.53413
USER: genes 12 Torsion [CA]-CB--CG-[CD2] |==|  0.59770
USER: genes 13 Torsion [CE2]-CZ--OH-[HH] |==|  0.45372
USER: genes 14 Torsion [N]-CA--C-[O] |==|  0.37299
USER: genes 15 Torsion [C]-CA--CB-[CG] |==|  0.18326
USER: genes 16 Torsion [CA]-CB--CG-[CD] |==|  0.54113
USER: genes 17 Torsion [CB]-CG--CD-[NE] |==|  0.37001
USER: genes 18 Torsion [CG]-CD--NE-[HE] |==|  0.12912
USER: genes 19 Torsion [C]-CA--N-[C] |==|  0.77945
USER: genes 20 Torsion [N]-C--CA-[N] |==|  0.30914
USER: genes 21 Torsion [C]-CA--N-[C] |==|  0.16434
USER: genes 22 Torsion [N]-C--CA-[N] |==|  0.01844
USER: genes 23 Torsion [C]-CA--N-[C] |==|  0.33654
USER: genes 24 Torsion [N]-C--CA-[N] |==|  0.55078
USER: genes 25 Torsion [C]-CA--CB-[CG] |==|  0.24273
USER: genes 26 Torsion [CA]-CB--CG-[CD1] |==|  0.67471
USER: genes 27 Torsion [C]-CA--CB-[CG] |==|  0.54850
USER: genes 28 Torsion [CA]-CB--CG-[CD] |==|  0.48836
USER: genes 29 Torsion [CB]-CG--CD-[CE] |==|  0.85125
USER: genes 30 Torsion [CG]-CD--CE-[NZ] |==|  0.66067
USER: genes 31 Torsion [CD]-CE--NZ-[HZ2] |==|  0.55764
ROOT
ATOM      1  CA  ARG B   9       3.203   7.896  10.686  1.00 39.43 LIG 0.18  C 
ENDROOT
BRANCH 1 2
ATOM      2  C   ARG B   9       3.240   8.842   9.502  1.00 41.90 LIG 0.24  C 
ATOM      3  N   LYS B  10       2.533   8.473   8.434  1.00 39.13 LIG-0.35  N 
ATOM      4 H    LYS B  10       2.127   7.717   8.373  1.00 39.13 LIG 0.16  HD
ATOM      5 O    ARG B   9       3.893   9.893   9.555  1.00 39.79 LIG-0.27  OA
BRANCH 3 6
ATOM      6  CA  LYS B  10       2.382   9.326   7.257  1.00 38.99 LIG 0.18  C 
BRANCH 6 7
ATOM      7  CB  LYS B  10       3.705   9.449   6.466  1.00 41.38 LIG 0.04  C 
BRANCH 7 8
ATOM      8  CG  LYS B  10       4.102  10.868   6.031  1.00 61.81 LIG 0.00  C 
BRANCH 8 9
ATOM      9  CD  LYS B  10       3.923  11.910   7.155  1.00 75.86 LIG 0.03  C 
BRANCH 9 10
ATOM     10  CE  LYS B  10       5.131  12.069   8.062  1.00 87.18 LIG 0.23  C 
BRANCH 10 11
ATOM     11  NZ  LYS B  10       5.118  13.372   8.779  1.00 91.96 LIG-0.08  N 
ATOM     12 HZ1  LYS B  10       5.705  13.925   8.401  1.00 91.96 LIG 0.27  HD
ATOM     13 HZ2  LYS B  10       4.304  13.728   8.734  1.00 91.96 LIG 0.27  HD
ATOM     14 HZ3  LYS B  10       5.340  13.244   9.631  1.00 91.96 LIG 0.27  HD
ENDBRANCH 10 11
ENDBRANCH 9 10
ENDBRANCH 8 9
ENDBRANCH 7 8
ENDBRANCH 6 7
BRANCH 6 15
ATOM     15  C   LYS B  10       1.223   8.752   6.407  1.00 41.93 LIG 0.24  C 
ATOM     16  N   TYR B  11       0.519   7.724   6.924  1.00 37.73 LIG-0.35  N 
ATOM     17 H    TYR B  11       0.703   7.385   7.692  1.00 37.73 LIG 0.16  HD
ATOM     18 O    LYS B  10       1.011   9.214   5.283  1.00 40.97 LIG-0.27  OA
BRANCH 16 19
ATOM     19  CA  TYR B  11      -0.616   7.064   6.271  1.00 60.51 LIG 0.17  C 
BRANCH 19 20
ATOM     20  CB  TYR B  11      -1.779   8.075   6.135  1.00 61.89 LIG 0.07  C 
BRANCH 20 21
ATOM     21  CG  TYR B  11      -3.161   7.567   5.750  1.00 64.48 LIG-0.06  A 
ATOM     22  CD2 TYR B  11      -4.002   8.327   4.944  1.00 66.36 LIG 0.01  A 
ATOM     23  CE2 TYR B  11      -5.267   7.872   4.579  1.00 66.48 LIG 0.04  A 
ATOM     24  CZ  TYR B  11      -5.725   6.657   5.052  1.00 73.62 LIG 0.07  A 
ATOM     25  CE1 TYR B  11      -4.914   5.886   5.871  1.00 67.05 LIG 0.04  A 
ATOM     26  CD1 TYR B  11      -3.646   6.353   6.231  1.00 65.84 LIG 0.01  A 
BRANCH 24 27
ATOM     27 OH   TYR B  11      -6.980   6.232   4.687  1.00 74.96 LIG-0.36  OA
ATOM     28 HH   TYR B  11      -7.052   5.408   4.839  1.00 74.96 LIG 0.22  HD
ENDBRANCH 24 27
ENDBRANCH 20 21
ENDBRANCH 19 20
BRANCH 19 29
ATOM     29  C   TYR B  11      -0.179   6.506   4.909  1.00 76.68 LIG 0.22  C 
ATOM     30 O    TYR B  11      -0.496   5.366   4.572  1.00 42.66 LIG-0.29  OA
ENDBRANCH 19 29
ENDBRANCH 16 19
ENDBRANCH 6 15
ENDBRANCH 3 6
ENDBRANCH 1 2
BRANCH 1 31
ATOM     31  CB  ARG B   9       4.233   8.378  11.753  1.00 41.96 LIG 0.04  C 
BRANCH 31 32
ATOM     32  CG  ARG B   9       3.965   9.726  12.447  1.00 54.96 LIG 0.02  C 
BRANCH 32 33
ATOM     33  CD  ARG B   9       5.168  10.278  13.189  1.00 74.30 LIG 0.14  C 
BRANCH 33 34
ATOM     34  NE  ARG B   9       5.389  11.699  12.896  1.00 92.04 LIG-0.23  N 
ATOM     35 HE   ARG B   9       4.708  12.222  12.922  1.00 92.04 LIG 0.18  HD
ATOM     36  CZ  ARG B   9       6.571  12.234  12.592  1.00114.26 LIG 0.67  C 
ATOM     37  NH2 ARG B   9       6.672  13.532  12.335  1.00103.12 LIG-0.23  N 
ATOM     38  NH1 ARG B   9       7.662  11.477  12.550  1.00104.54 LIG-0.23  N 
ATOM     39 1HH2 ARG B   9       5.973  14.032  12.364  1.00103.12 LIG 0.17  HD
ATOM     40 2HH2 ARG B   9       7.437  13.873  12.140  1.00103.12 LIG 0.17  HD
ATOM     41 1HH1 ARG B   9       7.608  10.635  12.719  1.00104.54 LIG 0.17  HD
ATOM     42 2HH1 ARG B   9       8.422  11.828  12.353  1.00104.54 LIG 0.17  HD
ENDBRANCH 33 34
ENDBRANCH 32 33
ENDBRANCH 31 32
ENDBRANCH 1 31
BRANCH 1 43
ATOM     43  N   ARG B   9       3.450   6.519  10.249  1.00 39.07 LIG-0.35  N 
ATOM     44 H    ARG B   9       4.257   6.253  10.389  1.00 39.07 LIG 0.16  HD
ATOM     45  C   LYS B   8       2.514   5.748   9.684  1.00 42.99 LIG 0.24  C 
ATOM     46 O    LYS B   8       1.347   6.118   9.507  1.00 42.25 LIG-0.27  OA
BRANCH 45 47
ATOM     47  CA  LYS B   8       2.941   4.341   9.286  1.00 40.35 LIG 0.18  C 
BRANCH 47 48
ATOM     48  N   LYS B   8       2.280   3.359  10.140  1.00 42.07 LIG-0.35  N 
ATOM     49 H    LYS B   8       2.840   2.872  10.573  1.00 42.07 LIG 0.16  HD
ATOM     50  C   GLY B   7       0.963   3.199  10.269  1.00 50.14 LIG 0.24  C 
ATOM     51 O    GLY B   7       0.127   3.850   9.634  1.00 49.17 LIG-0.27  OA
BRANCH 50 52
ATOM     52  CA  GLY B   7       0.538   2.134  11.252  1.00 52.80 LIG 0.23  C 
BRANCH 52 53
ATOM     53  N   GLY B   7       1.691   1.611  11.969  1.00 55.58 LIG-0.35  N 
ATOM     54  C   LEU B   6       1.855   1.635  13.289  1.00 62.88 LIG 0.26  C 
ATOM     55 O    LEU B   6       1.031   2.113  14.078  1.00 62.93 LIG-0.27  OA
ATOM     56 H    GLY B   7       2.281   1.271  11.443  1.00 55.58 LIG 0.16  HD
BRANCH 54 57
ATOM     57  CA  LEU B   6       3.166   0.979  13.777  1.00 62.75 LIG 0.40  C 
ATOM     58  N   LEU B   6       3.057   0.665  15.202  1.00 63.15 LIG 0.61  N 
BRANCH 57 59
ATOM     59  CB  LEU B   6       3.544  -0.272  12.945  1.00 63.26 LIG 0.06  C 
BRANCH 59 60
ATOM     60  CG  LEU B   6       4.384  -0.038  11.665  1.00 68.65 LIG-0.02  C 
ATOM     61  CD1 LEU B   6       3.617  -0.464  10.420  1.00 69.18 LIG 0.01  C 
ATOM     62  CD2 LEU B   6       4.852   1.420  11.540  1.00 70.70 LIG 0.01  C 
ENDBRANCH 59 60
ENDBRANCH 57 59
ENDBRANCH 54 57
ENDBRANCH 52 53
ENDBRANCH 50 52
ENDBRANCH 47 48
BRANCH 47 63
ATOM     63  CB  LYS B   8       2.611   4.089   7.801  1.00 41.14 LIG 0.04  C 
BRANCH 63 64
ATOM     64  CG  LYS B   8       2.599   2.621   7.395  1.00 42.09 LIG 0.00  C 
BRANCH 64 65
ATOM     65  CD  LYS B   8       2.165   2.470   5.948  1.00 43.68 LIG 0.03  C 
BRANCH 65 66
ATOM     66  CE  LYS B   8       0.849   3.163   5.703  1.00 41.10 LIG 0.23  C 
BRANCH 66 67
ATOM     67  NZ  LYS B   8      -0.197   2.243   5.181  1.00 37.84 LIG-0.08  N 
ATOM     68 HZ3  LYS B   8       0.169   1.678   4.599  1.00 37.84 LIG 0.27  HD
ATOM     69 HZ2  LYS B   8      -0.832   2.716   4.776  1.00 37.84 LIG 0.27  HD
ATOM     70 HZ1  LYS B   8      -0.552   1.784   5.856  1.00 37.84 LIG 0.27  HD
ENDBRANCH 66 67
ENDBRANCH 65 66
ENDBRANCH 64 65
ENDBRANCH 63 64
ENDBRANCH 47 63
ENDBRANCH 45 47
ENDBRANCH 1 43
TORSDOF 30
ENDMDL
MODEL 23
USER: ADFR SOLUTION from run 30
USER: SCORE 22.223412 LL:  -4.015 LR: -19.865 RR:   0.000 FEB: -10.916
USER: RMSD 8.588240
USER: SEED 29
USER: STATUS no improvement in best in 6 clusters for 5 generations
USER: GENES 32
USER: genes 0 Translation |==|  0.54542 0.53027 0.34051
USER: genes 1 Rotation |==|  0.42160 0.99007 0.50342 0.56064
USER: genes 2 Torsion [N]-CA--C-[N] |==|  0.23261
USER: genes 3 Torsion [C]-N--CA-[CB] |==|  0.50556
USER: genes 4 Torsion [N]-CA--CB-[CG] |==|  0.63660
USER: genes 5 Torsion [CA]-CB--CG-[CD] |==|  0.83230
USER: genes 6 Torsion [CB]-CG--CD-[CE] |==|  0.42785
USER: genes 7 Torsion [CG]-CD--CE-[NZ] |==|  0.37714
USER: genes 8 Torsion [CD]-CE--NZ-[HZ1] |==|  0.56342
USER: genes 9 Torsion [N]-CA--C-[N] |==|  0.41318
USER: genes 10 Torsion [C]-N--CA-[C] |==|  0.15032
USER: genes 11 Torsion [N]-CA--CB-[CG] |==|  0.94369
USER: genes 12 Torsion [CA]-CB--CG-[CD2] |==|  0.78861
USER: genes 13 Torsion [CE2]-CZ--OH-[HH] |==|  0.73254
USER: genes 14 Torsion [N]-CA--C-[O] |==|  0.61144
USER: genes 15 Torsion [C]-CA--CB-[CG] |==|  0.37781
USER: genes 16 Torsion [CA]-CB--CG-[CD] |==|  0.61904
USER: genes 17 Torsion [CB]-CG--CD-[NE] |==|  0.53405
USER: genes 18 Torsion [CG]-CD--NE-[HE] |==|  0.06276
USER: genes 19 Torsion [C]-CA--N-[C] |==|  0.78103
USER: genes 20 Torsion [N]-C--CA-[N] |==|  0.54202
USER: genes 21 Torsion [C]-CA--N-[C] |==|  0.60441
USER: genes 22 Torsion [N]-C--CA-[N] |==|  0.34611
USER: genes 23 Torsion [C]-CA--N-[C] |==|  0.79053
USER: genes 24 Torsion [N]-C--CA-[N] |==|  0.38786
USER: genes 25 Torsion [C]-CA--CB-[CG] |==|  0.24767
USER: genes 26 Torsion [CA]-CB--CG-[CD1] |==|  0.44051
USER: genes 27 Torsion [C]-CA--CB-[CG] |==|  0.57464
USER: genes 28 Torsion [CA]-CB--CG-[CD] |==|  0.67632
USER: genes 29 Torsion [CB]-CG--CD-[CE] |==|  0.44985
USER: genes 30 Torsion [CG]-CD--CE-[NZ] |==|  0.56366
USER: genes 31 Torsion [CD]-CE--NZ-[HZ2] |==|  0.53918
ROOT
ATOM      1  CA  ARG B   9       0.035   5.939   7.159  1.00 39.43 LIG 0.18  C 
ENDROOT
BRANCH 1 2
ATOM      2  C   ARG B   9       0.895   4.906   6.457  1.00 41.90 LIG 0.24  C 
ATOM      3  N   LYS B  10       1.387   3.934   7.226  1.00 39.13 LIG-0.35  N 
ATOM      4 H    LYS B  10       1.292   3.911   8.080  1.00 39.13 LIG 0.16  HD
ATOM      5 O    ARG B   9       1.105   4.982   5.239  1.00 39.79 LIG-0.27  OA
BRANCH 3 6
ATOM      6  CA  LYS B  10       2.142   2.807   6.682  1.00 38.99 LIG 0.18  C 
BRANCH 6 7
ATOM      7  CB  LYS B  10       2.550   1.806   7.787  1.00 41.38 LIG 0.04  C 
BRANCH 7 8
ATOM      8  CG  LYS B  10       4.026   1.378   7.798  1.00 61.81 LIG 0.00  C 
BRANCH 8 9
ATOM      9  CD  LYS B  10       4.456   0.681   6.491  1.00 75.86 LIG 0.03  C 
BRANCH 9 10
ATOM     10  CE  LYS B  10       5.938   0.793   6.179  1.00 87.18 LIG 0.23  C 
BRANCH 10 11
ATOM     11  NZ  LYS B  10       6.509  -0.503   5.725  1.00 91.96 LIG-0.08  N 
ATOM     12 HZ1  LYS B  10       7.388  -0.506   5.866  1.00 91.96 LIG 0.27  HD
ATOM     13 HZ2  LYS B  10       6.134  -1.168   6.181  1.00 91.96 LIG 0.27  HD
ATOM     14 HZ3  LYS B  10       6.349  -0.611   4.856  1.00 91.96 LIG 0.27  HD
ENDBRANCH 10 11
ENDBRANCH 9 10
ENDBRANCH 8 9
ENDBRANCH 7 8
ENDBRANCH 6 7
BRANCH 6 15
ATOM     15  C   LYS B  10       1.283   2.160   5.570  1.00 41.93 LIG 0.24  C 
ATOM     16  N   TYR B  11       1.929   1.584   4.536  1.00 37.73 LIG-0.35  N 
ATOM     17 H    TYR B  11       2.787   1.577   4.481  1.00 37.73 LIG 0.16  HD
ATOM     18 O    LYS B  10       0.052   2.229   5.639  1.00 40.97 LIG-0.27  OA
BRANCH 16 19
ATOM     19  CA  TYR B  11       1.283   0.913   3.404  1.00 60.51 LIG 0.17  C 
BRANCH 19 20
ATOM     20  CB  TYR B  11       0.622  -0.395   3.900  1.00 61.89 LIG 0.07  C 
BRANCH 20 21
ATOM     21  CG  TYR B  11       1.092  -1.012   5.209  1.00 64.48 LIG-0.06  A 
ATOM     22  CD2 TYR B  11       2.293  -1.708   5.280  1.00 66.36 LIG 0.01  A 
ATOM     23  CE2 TYR B  11       2.738  -2.273   6.473  1.00 66.48 LIG 0.04  A 
ATOM     24  CZ  TYR B  11       1.960  -2.180   7.611  1.00 73.62 LIG 0.07  A 
ATOM     25  CE1 TYR B  11       0.749  -1.506   7.566  1.00 67.05 LIG 0.04  A 
ATOM     26  CD1 TYR B  11       0.312  -0.944   6.363  1.00 65.84 LIG 0.01  A 
BRANCH 24 27
ATOM     27 OH   TYR B  11       2.414  -2.753   8.775  1.00 74.96 LIG-0.36  OA
ATOM     28 HH   TYR B  11       2.075  -3.517   8.862  1.00 74.96 LIG 0.22  HD
ENDBRANCH 24 27
ENDBRANCH 20 21
ENDBRANCH 19 20
BRANCH 19 29
ATOM     29  C   TYR B  11       0.264   1.858   2.751  1.00 76.68 LIG 0.22  C 
ATOM     30 O    TYR B  11      -0.822   1.432   2.363  1.00 42.66 LIG-0.29  OA
ENDBRANCH 19 29
ENDBRANCH 16 19
ENDBRANCH 6 15
ENDBRANCH 3 6
ENDBRANCH 1 2
BRANCH 1 31
ATOM     31  CB  ARG B   9      -0.986   6.528   6.137  1.00 41.96 LIG 0.04  C 
BRANCH 31 32
ATOM     32  CG  ARG B   9      -2.443   6.702   6.603  1.00 54.96 LIG 0.02  C 
BRANCH 32 33
ATOM     33  CD  ARG B   9      -3.468   6.271   5.570  1.00 74.30 LIG 0.14  C 
BRANCH 33 34
ATOM     34  NE  ARG B   9      -4.821   6.712   5.923  1.00 92.04 LIG-0.23  N 
ATOM     35 HE   ARG B   9      -4.897   7.382   6.457  1.00 92.04 LIG 0.18  HD
ATOM     36  CZ  ARG B   9      -5.942   6.148   5.475  1.00114.26 LIG 0.67  C 
ATOM     37  NH2 ARG B   9      -7.126   6.614   5.856  1.00103.12 LIG-0.23  N 
ATOM     38  NH1 ARG B   9      -5.890   5.118   4.637  1.00104.54 LIG-0.23  N 
ATOM     39 1HH2 ARG B   9      -7.171   7.283   6.394  1.00103.12 LIG 0.17  HD
ATOM     40 2HH2 ARG B   9      -7.846   6.247   5.564  1.00103.12 LIG 0.17  HD
ATOM     41 1HH1 ARG B   9      -5.128   4.811   4.380  1.00104.54 LIG 0.17  HD
ATOM     42 2HH1 ARG B   9      -6.617   4.758   4.351  1.00104.54 LIG 0.17  HD
ENDBRANCH 33 34
ENDBRANCH 32 33
ENDBRANCH 31 32
ENDBRANCH 1 31
BRANCH 1 43
ATOM     43  N   ARG B   9       0.875   6.973   7.771  1.00 39.07 LIG-0.35  N 
ATOM     44 H    ARG B   9       0.913   7.701   7.313  1.00 39.07 LIG 0.16  HD
ATOM     45  C   LYS B   8       1.522   6.803   8.930  1.00 42.99 LIG 0.24  C 
ATOM     46 O    LYS B   8       1.446   5.768   9.603  1.00 42.25 LIG-0.27  OA
BRANCH 45 47
ATOM     47  CA  LYS B   8       2.355   7.979   9.423  1.00 40.35 LIG 0.18  C 
BRANCH 47 48
ATOM     48  N   LYS B   8       3.266   7.537  10.475  1.00 42.07 LIG-0.35  N 
ATOM     49 H    LYS B   8       3.584   6.753  10.325  1.00 42.07 LIG 0.16  HD
ATOM     50  C   GLY B   7       3.598   8.233  11.561  1.00 50.14 LIG 0.24  C 
ATOM     51 O    GLY B   7       3.131   9.344  11.835  1.00 49.17 LIG-0.27  OA
BRANCH 50 52
ATOM     52  CA  GLY B   7       4.593   7.561  12.477  1.00 52.80 LIG 0.23  C 
BRANCH 52 53
ATOM     53  N   GLY B   7       5.745   8.421  12.699  1.00 55.58 LIG-0.35  N 
ATOM     54  C   LEU B   6       6.723   8.643  11.825  1.00 62.88 LIG 0.26  C 
ATOM     55 O    LEU B   6       6.770   8.135  10.698  1.00 62.93 LIG-0.27  OA
ATOM     56 H    GLY B   7       5.738   8.789  13.477  1.00 55.58 LIG 0.16  HD
BRANCH 54 57
ATOM     57  CA  LEU B   6       7.806   9.628  12.320  1.00 62.75 LIG 0.40  C 
ATOM     58  N   LEU B   6       9.128   9.149  11.913  1.00 63.15 LIG 0.61  N 
BRANCH 57 59
ATOM     59  CB  LEU B   6       7.549  11.077  11.836  1.00 63.26 LIG 0.06  C 
BRANCH 59 60
ATOM     60  CG  LEU B   6       6.672  11.976  12.742  1.00 68.65 LIG-0.02  C 
ATOM     61  CD1 LEU B   6       6.922  13.452  12.457  1.00 69.18 LIG 0.01  C 
ATOM     62  CD2 LEU B   6       5.178  11.645  12.611  1.00 70.70 LIG 0.01  C 
ENDBRANCH 59 60
ENDBRANCH 57 59
ENDBRANCH 54 57
ENDBRANCH 52 53
ENDBRANCH 50 52
ENDBRANCH 47 48
BRANCH 47 63
ATOM     63  CB  LYS B   8       3.133   8.605   8.248  1.00 41.14 LIG 0.04  C 
BRANCH 63 64
ATOM     64  CG  LYS B   8       4.424   9.308   8.647  1.00 42.09 LIG 0.00  C 
BRANCH 64 65
ATOM     65  CD  LYS B   8       4.344  10.791   8.334  1.00 43.68 LIG 0.03  C 
BRANCH 65 66
ATOM     66  CE  LYS B   8       5.390  11.562   9.099  1.00 41.10 LIG 0.23  C 
BRANCH 66 67
ATOM     67  NZ  LYS B   8       5.036  12.997   9.269  1.00 37.84 LIG-0.08  N 
ATOM     68 HZ3  LYS B   8       4.750  13.326   8.493  1.00 37.84 LIG 0.27  HD
ATOM     69 HZ2  LYS B   8       5.754  13.450   9.536  1.00 37.84 LIG 0.27  HD
ATOM     70 HZ1  LYS B   8       4.393  13.074   9.879  1.00 37.84 LIG 0.27  HD
ENDBRANCH 66 67
ENDBRANCH 65 66
ENDBRANCH 64 65
ENDBRANCH 63 64
ENDBRANCH 47 63
ENDBRANCH 45 47
ENDBRANCH 1 43
TORSDOF 30
ENDMDL
MODEL 24
USER: ADFR SOLUTION from run 39
USER: SCORE 22.382406 LL:  -4.072 LR: -19.843 RR:   0.000 FEB: -10.894
USER: RMSD 8.454197
USER: SEED 38
USER: STATUS no improvement in best in 11 clusters for 5 generations
USER: GENES 32
USER: genes 0 Translation |==|  0.45645 0.71699 0.24149
USER: genes 1 Rotation |==|  0.59678 0.88179 0.19411 0.53601
USER: genes 2 Torsion [N]-CA--C-[N] |==|  0.87013
USER: genes 3 Torsion [C]-N--CA-[CB] |==|  0.24377
USER: genes 4 Torsion [N]-CA--CB-[CG] |==|  0.85803
USER: genes 5 Torsion [CA]-CB--CG-[CD] |==|  0.48084
USER: genes 6 Torsion [CB]-CG--CD-[CE] |==|  0.58039
USER: genes 7 Torsion [CG]-CD--CE-[NZ] |==|  0.54419
USER: genes 8 Torsion [CD]-CE--NZ-[HZ1] |==|  0.54897
USER: genes 9 Torsion [N]-CA--C-[N] |==|  0.41057
USER: genes 10 Torsion [C]-N--CA-[C] |==|  0.75581
USER: genes 11 Torsion [N]-CA--CB-[CG] |==|  0.75488
USER: genes 12 Torsion [CA]-CB--CG-[CD2] |==|  0.38682
USER: genes 13 Torsion [CE2]-CZ--OH-[HH] |==|  0.00974
USER: genes 14 Torsion [N]-CA--C-[O] |==|  0.10531
USER: genes 15 Torsion [C]-CA--CB-[CG] |==|  0.99149
USER: genes 16 Torsion [CA]-CB--CG-[CD] |==|  0.68160
USER: genes 17 Torsion [CB]-CG--CD-[NE] |==|  0.27593
USER: genes 18 Torsion [CG]-CD--NE-[HE] |==|  0.79089
USER: genes 19 Torsion [C]-CA--N-[C] |==|  0.78460
USER: genes 20 Torsion [N]-C--CA-[N] |==|  0.41711
USER: genes 21 Torsion [C]-CA--N-[C] |==|  0.77379
USER: genes 22 Torsion [N]-C--CA-[N] |==|  0.14997
USER: genes 23 Torsion [C]-CA--N-[C] |==|  0.16277
USER: genes 24 Torsion [N]-C--CA-[N] |==|  0.49752
USER: genes 25 Torsion [C]-CA--CB-[CG] |==|  0.45069
USER: genes 26 Torsion [CA]-CB--CG-[CD1] |==|  0.82766
USER: genes 27 Torsion [C]-CA--CB-[CG] |==|  0.58027
USER: genes 28 Torsion [CA]-CB--CG-[CD] |==|  0.26733
USER: genes 29 Torsion [CB]-CG--CD-[CE] |==|  0.57688
USER: genes 30 Torsion [CG]-CD--CE-[NZ] |==|  0.37129
USER: genes 31 Torsion [CD]-CE--NZ-[HZ2] |==|  0.20767
ROOT
ATOM      1  CA  ARG B   9      -1.900  10.981   4.708  1.00 39.43 LIG 0.18  C 
ENDROOT
BRANCH 1 2
ATOM      2  C   ARG B   9      -2.196   9.901   5.730  1.00 41.90 LIG 0.24  C 
ATOM      3  N   LYS B  10      -1.480   8.781   5.624  1.00 39.13 LIG-0.35  N 
ATOM      4 H    LYS B  10      -0.926   8.632   4.984  1.00 39.13 LIG 0.16  HD
ATOM      5 O    ARG B   9      -3.054  10.079   6.605  1.00 39.79 LIG-0.27  OA
BRANCH 3 6
ATOM      6  CA  LYS B  10      -1.571   7.694   6.597  1.00 38.99 LIG 0.18  C 
BRANCH 6 7
ATOM      7  CB  LYS B  10      -2.698   6.698   6.237  1.00 41.38 LIG 0.04  C 
BRANCH 7 8
ATOM      8  CG  LYS B  10      -4.078   7.312   5.958  1.00 61.81 LIG 0.00  C 
BRANCH 8 9
ATOM      9  CD  LYS B  10      -5.100   6.276   5.444  1.00 75.86 LIG 0.03  C 
BRANCH 9 10
ATOM     10  CE  LYS B  10      -6.174   6.852   4.537  1.00 87.18 LIG 0.23  C 
BRANCH 10 11
ATOM     11  NZ  LYS B  10      -7.324   5.922   4.380  1.00 91.96 LIG-0.08  N 
ATOM     12 HZ1  LYS B  10      -7.802   6.157   3.667  1.00 91.96 LIG 0.27  HD
ATOM     13 HZ2  LYS B  10      -7.022   5.092   4.274  1.00 91.96 LIG 0.27  HD
ATOM     14 HZ3  LYS B  10      -7.838   5.960   5.106  1.00 91.96 LIG 0.27  HD
ENDBRANCH 10 11
ENDBRANCH 9 10
ENDBRANCH 8 9
ENDBRANCH 7 8
ENDBRANCH 6 7
BRANCH 6 15
ATOM     15  C   LYS B  10      -0.180   7.024   6.683  1.00 41.93 LIG 0.24  C 
ATOM     16  N   TYR B  11       0.192   6.506   7.871  1.00 37.73 LIG-0.35  N 
ATOM     17 H    TYR B  11      -0.314   6.547   8.565  1.00 37.73 LIG 0.16  HD
ATOM     18 O    LYS B  10       0.554   7.024   5.691  1.00 40.97 LIG-0.27  OA
BRANCH 16 19
ATOM     19  CA  TYR B  11       1.463   5.824   8.136  1.00 60.51 LIG 0.17  C 
BRANCH 19 20
ATOM     20  CB  TYR B  11       1.870   6.066   9.609  1.00 61.89 LIG 0.07  C 
BRANCH 20 21
ATOM     21  CG  TYR B  11       2.693   7.298   9.958  1.00 64.48 LIG-0.06  A 
ATOM     22  CD2 TYR B  11       2.423   8.034  11.105  1.00 66.36 LIG 0.01  A 
ATOM     23  CE2 TYR B  11       3.172   9.161  11.440  1.00 66.48 LIG 0.04  A 
ATOM     24  CZ  TYR B  11       4.184   9.589  10.603  1.00 73.62 LIG 0.07  A 
ATOM     25  CE1 TYR B  11       4.463   8.882   9.442  1.00 67.05 LIG 0.04  A 
ATOM     26  CD1 TYR B  11       3.705   7.754   9.116  1.00 65.84 LIG 0.01  A 
BRANCH 24 27
ATOM     27 OH   TYR B  11       4.904  10.707  10.947  1.00 74.96 LIG-0.36  OA
ATOM     28 HH   TYR B  11       4.650  10.983  11.699  1.00 74.96 LIG 0.22  HD
ENDBRANCH 24 27
ENDBRANCH 20 21
ENDBRANCH 19 20
BRANCH 19 29
ATOM     29  C   TYR B  11       1.327   4.329   7.817  1.00 76.68 LIG 0.22  C 
ATOM     30 O    TYR B  11       0.663   3.955   6.851  1.00 42.66 LIG-0.29  OA
ENDBRANCH 19 29
ENDBRANCH 16 19
ENDBRANCH 6 15
ENDBRANCH 3 6
ENDBRANCH 1 2
BRANCH 1 31
ATOM     31  CB  ARG B   9      -2.574  10.597   3.355  1.00 41.96 LIG 0.04  C 
BRANCH 31 32
ATOM     32  CG  ARG B   9      -3.306   9.244   3.280  1.00 54.96 LIG 0.02  C 
BRANCH 32 33
ATOM     33  CD  ARG B   9      -2.663   8.257   2.323  1.00 74.30 LIG 0.14  C 
BRANCH 33 34
ATOM     34  NE  ARG B   9      -1.821   7.282   3.025  1.00 92.04 LIG-0.23  N 
ATOM     35 HE   ARG B   9      -1.056   7.549   3.312  1.00 92.04 LIG 0.18  HD
ATOM     36  CZ  ARG B   9      -2.159   6.013   3.249  1.00114.26 LIG 0.67  C 
ATOM     37  NH2 ARG B   9      -1.327   5.201   3.889  1.00103.12 LIG-0.23  N 
ATOM     38  NH1 ARG B   9      -3.335   5.547   2.841  1.00104.54 LIG-0.23  N 
ATOM     39 1HH2 ARG B   9      -0.565   5.494   4.162  1.00103.12 LIG 0.17  HD
ATOM     40 2HH2 ARG B   9      -1.549   4.383   4.032  1.00103.12 LIG 0.17  HD
ATOM     41 1HH1 ARG B   9      -3.884   6.066   2.429  1.00104.54 LIG 0.17  HD
ATOM     42 2HH1 ARG B   9      -3.547   4.727   2.989  1.00104.54 LIG 0.17  HD
ENDBRANCH 33 34
ENDBRANCH 32 33
ENDBRANCH 31 32
ENDBRANCH 1 31
BRANCH 1 43
ATOM     43  N   ARG B   9      -0.453  11.179   4.578  1.00 39.07 LIG-0.35  N 
ATOM     44 H    ARG B   9      -0.118  10.813   3.875  1.00 39.07 LIG 0.16  HD
ATOM     45  C   LYS B   8       0.278  11.863   5.466  1.00 42.99 LIG 0.24  C 
ATOM     46 O    LYS B   8      -0.207  12.413   6.462  1.00 42.25 LIG-0.27  OA
BRANCH 45 47
ATOM     47  CA  LYS B   8       1.770  11.970   5.180  1.00 40.35 LIG 0.18  C 
BRANCH 47 48
ATOM     48  N   LYS B   8       2.293  13.218   5.729  1.00 42.07 LIG-0.35  N 
ATOM     49 H    LYS B   8       2.674  13.106   6.491  1.00 42.07 LIG 0.16  HD
ATOM     50  C   GLY B   7       2.212  14.417   5.154  1.00 50.14 LIG 0.24  C 
ATOM     51 O    GLY B   7       1.635  14.628   4.082  1.00 49.17 LIG-0.27  OA
BRANCH 50 52
ATOM     52  CA  GLY B   7       2.870  15.542   5.917  1.00 52.80 LIG 0.23  C 
BRANCH 52 53
ATOM     53  N   GLY B   7       4.256  15.215   6.216  1.00 55.58 LIG-0.35  N 
ATOM     54  C   LEU B   6       5.193  14.932   5.316  1.00 62.88 LIG 0.26  C 
ATOM     55 O    LEU B   6       4.995  14.912   4.096  1.00 62.93 LIG-0.27  OA
ATOM     56 H    GLY B   7       4.422  15.221   7.060  1.00 55.58 LIG 0.16  HD
BRANCH 54 57
ATOM     57  CA  LEU B   6       6.588  14.651   5.920  1.00 62.75 LIG 0.40  C 
ATOM     58  N   LEU B   6       7.532  14.332   4.847  1.00 63.15 LIG 0.61  N 
BRANCH 57 59
ATOM     59  CB  LEU B   6       7.096  15.823   6.797  1.00 63.26 LIG 0.06  C 
BRANCH 59 60
ATOM     60  CG  LEU B   6       8.251  15.514   7.782  1.00 68.65 LIG-0.02  C 
ATOM     61  CD1 LEU B   6       7.831  14.471   8.810  1.00 69.18 LIG 0.01  C 
ATOM     62  CD2 LEU B   6       9.529  15.073   7.054  1.00 70.70 LIG 0.01  C 
ENDBRANCH 59 60
ENDBRANCH 57 59
ENDBRANCH 54 57
ENDBRANCH 52 53
ENDBRANCH 50 52
ENDBRANCH 47 48
BRANCH 47 63
ATOM     63  CB  LYS B   8       2.511  10.755   5.772  1.00 41.14 LIG 0.04  C 
BRANCH 63 64
ATOM     64  CG  LYS B   8       3.953  11.029   6.177  1.00 42.09 LIG 0.00  C 
BRANCH 64 65
ATOM     65  CD  LYS B   8       4.041  11.345   7.660  1.00 43.68 LIG 0.03  C 
BRANCH 65 66
ATOM     66  CE  LYS B   8       5.223  12.235   7.953  1.00 41.10 LIG 0.23  C 
BRANCH 66 67
ATOM     67  NZ  LYS B   8       4.878  13.372   8.848  1.00 37.84 LIG-0.08  N 
ATOM     68 HZ3  LYS B   8       5.529  13.977   8.823  1.00 37.84 LIG 0.27  HD
ATOM     69 HZ2  LYS B   8       4.781  13.075   9.681  1.00 37.84 LIG 0.27  HD
ATOM     70 HZ1  LYS B   8       4.116  13.744   8.575  1.00 37.84 LIG 0.27  HD
ENDBRANCH 66 67
ENDBRANCH 65 66
ENDBRANCH 64 65
ENDBRANCH 63 64
ENDBRANCH 47 63
ENDBRANCH 45 47
ENDBRANCH 1 43
TORSDOF 30
ENDMDL
MODEL 25
USER: ADFR SOLUTION from run 13
USER: SCORE 20.577414 LL:  -3.055 LR: -19.818 RR:   0.000 FEB: -10.869
USER: RMSD 11.830628
USER: SEED 649602
USER: STATUS 1 or 2 clusters left
USER: GENES 32
USER: genes 0 Translation |==|  0.48470 0.61523 0.29981
USER: genes 1 Rotation |==|  0.36526 0.68973 0.93138 0.59879
USER: genes 2 Torsion [N]-CA--C-[N] |==|  0.14648
USER: genes 3 Torsion [C]-N--CA-[CB] |==|  0.44414
USER: genes 4 Torsion [N]-CA--CB-[CG] |==|  0.82958
USER: genes 5 Torsion [CA]-CB--CG-[CD] |==|  0.64878
USER: genes 6 Torsion [CB]-CG--CD-[CE] |==|  0.08063
USER: genes 7 Torsion [CG]-CD--CE-[NZ] |==|  0.49282
USER: genes 8 Torsion [CD]-CE--NZ-[HZ1] |==|  0.78726
USER: genes 9 Torsion [N]-CA--C-[N] |==|  0.87222
USER: genes 10 Torsion [C]-N--CA-[C] |==|  0.05154
USER: genes 11 Torsion [N]-CA--CB-[CG] |==|  0.21297
USER: genes 12 Torsion [CA]-CB--CG-[CD2] |==|  0.79359
USER: genes 13 Torsion [CE2]-CZ--OH-[HH] |==|  0.99550
USER: genes 14 Torsion [N]-CA--C-[O] |==|  0.46718
USER: genes 15 Torsion [C]-CA--CB-[CG] |==|  0.45147
USER: genes 16 Torsion [CA]-CB--CG-[CD] |==|  0.68374
USER: genes 17 Torsion [CB]-CG--CD-[NE] |==|  0.50909
USER: genes 18 Torsion [CG]-CD--NE-[HE] |==|  0.01078
USER: genes 19 Torsion [C]-CA--N-[C] |==|  0.75478
USER: genes 20 Torsion [N]-C--CA-[N] |==|  0.87557
USER: genes 21 Torsion [C]-CA--N-[C] |==|  0.73474
USER: genes 22 Torsion [N]-C--CA-[N] |==|  0.44534
USER: genes 23 Torsion [C]-CA--N-[C] |==|  0.42314
USER: genes 24 Torsion [N]-C--CA-[N] |==|  0.13129
USER: genes 25 Torsion [C]-CA--CB-[CG] |==|  0.77929
USER: genes 26 Torsion [CA]-CB--CG-[CD1] |==|  0.73742
USER: genes 27 Torsion [C]-CA--CB-[CG] |==|  0.52813
USER: genes 28 Torsion [CA]-CB--CG-[CD] |==|  0.78710
USER: genes 29 Torsion [CB]-CG--CD-[CE] |==|  0.63929
USER: genes 30 Torsion [CG]-CD--CE-[NZ] |==|  0.10151
USER: genes 31 Torsion [CD]-CE--NZ-[HZ2] |==|  0.24033
ROOT
ATOM      1  CA  ARG B   9      -1.286   8.233   6.151  1.00 39.43 LIG 0.18  C 
ENDROOT
BRANCH 1 2
ATOM      2  C   ARG B   9      -0.637   9.604   6.136  1.00 41.90 LIG 0.24  C 
ATOM      3  N   LYS B  10       0.682   9.625   5.943  1.00 39.13 LIG-0.35  N 
ATOM      4 H    LYS B  10       1.166   8.916   5.893  1.00 39.13 LIG 0.16  HD
ATOM      5 O    ARG B   9      -1.318  10.626   6.291  1.00 39.79 LIG-0.27  OA
BRANCH 3 6
ATOM      6  CA  LYS B  10       1.435  10.869   5.795  1.00 38.99 LIG 0.18  C 
BRANCH 6 7
ATOM      7  CB  LYS B  10       2.941  10.663   6.080  1.00 41.38 LIG 0.04  C 
BRANCH 7 8
ATOM      8  CG  LYS B  10       3.300  10.184   7.495  1.00 61.81 LIG 0.00  C 
BRANCH 8 9
ATOM      9  CD  LYS B  10       4.343  11.089   8.185  1.00 75.86 LIG 0.03  C 
BRANCH 9 10
ATOM     10  CE  LYS B  10       4.308  12.540   7.739  1.00 87.18 LIG 0.23  C 
BRANCH 10 11
ATOM     11  NZ  LYS B  10       5.291  13.372   8.482  1.00 91.96 LIG-0.08  N 
ATOM     12 HZ1  LYS B  10       4.980  13.543   9.298  1.00 91.96 LIG 0.27  HD
ATOM     13 HZ2  LYS B  10       6.063  12.934   8.546  1.00 91.96 LIG 0.27  HD
ATOM     14 HZ3  LYS B  10       5.420  14.139   8.048  1.00 91.96 LIG 0.27  HD
ENDBRANCH 10 11
ENDBRANCH 9 10
ENDBRANCH 8 9
ENDBRANCH 7 8
ENDBRANCH 6 7
BRANCH 6 15
ATOM     15  C   LYS B  10       1.161  11.417   4.374  1.00 41.93 LIG 0.24  C 
ATOM     16  N   TYR B  11       1.227  10.548   3.345  1.00 37.73 LIG-0.35  N 
ATOM     17 H    TYR B  11       1.421   9.719   3.460  1.00 37.73 LIG 0.16  HD
ATOM     18 O    LYS B  10       0.938  12.622   4.224  1.00 40.97 LIG-0.27  OA
BRANCH 16 19
ATOM     19  CA  TYR B  11       0.985  10.884   1.939  1.00 60.51 LIG 0.17  C 
BRANCH 19 20
ATOM     20  CB  TYR B  11      -0.409  10.354   1.524  1.00 61.89 LIG 0.07  C 
BRANCH 20 21
ATOM     21  CG  TYR B  11      -1.652  11.112   1.968  1.00 64.48 LIG-0.06  A 
ATOM     22  CD2 TYR B  11      -2.093  11.050   3.285  1.00 66.36 LIG 0.01  A 
ATOM     23  CE2 TYR B  11      -3.226  11.743   3.707  1.00 66.48 LIG 0.04  A 
ATOM     24  CZ  TYR B  11      -3.959  12.482   2.798  1.00 73.62 LIG 0.07  A 
ATOM     25  CE1 TYR B  11      -3.551  12.547   1.474  1.00 67.05 LIG 0.04  A 
ATOM     26  CD1 TYR B  11      -2.413  11.847   1.062  1.00 65.84 LIG 0.01  A 
BRANCH 24 27
ATOM     27 OH   TYR B  11      -5.078  13.150   3.233  1.00 74.96 LIG-0.36  OA
ATOM     28 HH   TYR B  11      -5.195  12.998   4.051  1.00 74.96 LIG 0.22  HD
ENDBRANCH 24 27
ENDBRANCH 20 21
ENDBRANCH 19 20
BRANCH 19 29
ATOM     29  C   TYR B  11       1.103  12.401   1.738  1.00 76.68 LIG 0.22  C 
ATOM     30 O    TYR B  11       1.153  12.878   0.606  1.00 42.66 LIG-0.29  OA
ENDBRANCH 19 29
ENDBRANCH 16 19
ENDBRANCH 6 15
ENDBRANCH 3 6
ENDBRANCH 1 2
BRANCH 1 31
ATOM     31  CB  ARG B   9      -2.804   8.395   6.469  1.00 41.96 LIG 0.04  C 
BRANCH 31 32
ATOM     32  CG  ARG B   9      -3.733   7.212   6.137  1.00 54.96 LIG 0.02  C 
BRANCH 32 33
ATOM     33  CD  ARG B   9      -4.732   7.515   5.036  1.00 74.30 LIG 0.14  C 
BRANCH 33 34
ATOM     34  NE  ARG B   9      -5.647   6.392   4.802  1.00 92.04 LIG-0.23  N 
ATOM     35 HE   ARG B   9      -5.581   5.708   5.319  1.00 92.04 LIG 0.18  HD
ATOM     36  CZ  ARG B   9      -6.575   6.358   3.846  1.00114.26 LIG 0.67  C 
ATOM     37  NH2 ARG B   9      -7.355   5.293   3.707  1.00103.12 LIG-0.23  N 
ATOM     38  NH1 ARG B   9      -6.734   7.391   3.025  1.00104.54 LIG-0.23  N 
ATOM     39 1HH2 ARG B   9      -7.263   4.621   4.236  1.00103.12 LIG 0.17  HD
ATOM     40 2HH2 ARG B   9      -7.952   5.275   3.089  1.00103.12 LIG 0.17  HD
ATOM     41 1HH1 ARG B   9      -6.237   8.088   3.110  1.00104.54 LIG 0.17  HD
ATOM     42 2HH1 ARG B   9      -7.334   7.362   2.410  1.00104.54 LIG 0.17  HD
ENDBRANCH 33 34
ENDBRANCH 32 33
ENDBRANCH 31 32
ENDBRANCH 1 31
BRANCH 1 43
ATOM     43  N   ARG B   9      -0.603   7.355   7.106  1.00 39.07 LIG-0.35  N 
ATOM     44 H    ARG B   9      -0.947   7.369   7.894  1.00 39.07 LIG 0.16  HD
ATOM     45  C   LYS B   8       0.455   6.601   6.784  1.00 42.99 LIG 0.24  C 
ATOM     46 O    LYS B   8       0.934   6.557   5.645  1.00 42.25 LIG-0.27  OA
BRANCH 45 47
ATOM     47  CA  LYS B   8       1.046   5.747   7.899  1.00 40.35 LIG 0.18  C 
BRANCH 47 48
ATOM     48  N   LYS B   8       1.158   6.535   9.123  1.00 42.07 LIG-0.35  N 
ATOM     49 H    LYS B   8       0.426   6.545   9.574  1.00 42.07 LIG 0.16  HD
ATOM     50  C   GLY B   7       2.247   7.182   9.537  1.00 50.14 LIG 0.24  C 
ATOM     51 O    GLY B   7       3.303   7.228   8.898  1.00 49.17 LIG-0.27  OA
BRANCH 50 52
ATOM     52  CA  GLY B   7       2.108   7.892  10.862  1.00 52.80 LIG 0.23  C 
BRANCH 52 53
ATOM     53  N   GLY B   7       3.417   8.159  11.439  1.00 55.58 LIG-0.35  N 
ATOM     54  C   LEU B   6       3.707   9.160  12.264  1.00 62.88 LIG 0.26  C 
ATOM     55 O    LEU B   6       2.883   9.999  12.647  1.00 62.93 LIG-0.27  OA
ATOM     56 H    GLY B   7       4.010   7.588  11.188  1.00 55.58 LIG 0.16  HD
BRANCH 54 57
ATOM     57  CA  LEU B   6       5.175   9.181  12.744  1.00 62.75 LIG 0.40  C 
ATOM     58  N   LEU B   6       6.069   9.002  11.599  1.00 63.15 LIG 0.61  N 
BRANCH 57 59
ATOM     59  CB  LEU B   6       5.517  10.468  13.538  1.00 63.26 LIG 0.06  C 
BRANCH 59 60
ATOM     60  CG  LEU B   6       5.803  11.747  12.714  1.00 68.65 LIG-0.02  C 
ATOM     61  CD1 LEU B   6       7.297  11.921  12.471  1.00 69.18 LIG 0.01  C 
ATOM     62  CD2 LEU B   6       5.034  11.762  11.385  1.00 70.70 LIG 0.01  C 
ENDBRANCH 59 60
ENDBRANCH 57 59
ENDBRANCH 54 57
ENDBRANCH 52 53
ENDBRANCH 50 52
ENDBRANCH 47 48
BRANCH 47 63
ATOM     63  CB  LYS B   8       0.173   4.497   8.126  1.00 41.14 LIG 0.04  C 
BRANCH 63 64
ATOM     64  CG  LYS B   8       0.527   3.696   9.372  1.00 42.09 LIG 0.00  C 
BRANCH 64 65
ATOM     65  CD  LYS B   8       1.781   2.872   9.140  1.00 43.68 LIG 0.03  C 
BRANCH 65 66
ATOM     66  CE  LYS B   8       1.565   1.435   9.542  1.00 41.10 LIG 0.23  C 
BRANCH 66 67
ATOM     67  NZ  LYS B   8       0.193   0.951   9.232  1.00 37.84 LIG-0.08  N 
ATOM     68 HZ3  LYS B   8      -0.022   0.293   9.791  1.00 37.84 LIG 0.27  HD
ATOM     69 HZ2  LYS B   8       0.166   0.650   8.395  1.00 37.84 LIG 0.27  HD
ATOM     70 HZ1  LYS B   8      -0.386   1.621   9.325  1.00 37.84 LIG 0.27  HD
ENDBRANCH 66 67
ENDBRANCH 65 66
ENDBRANCH 64 65
ENDBRANCH 63 64
ENDBRANCH 47 63
ENDBRANCH 45 47
ENDBRANCH 1 43
TORSDOF 30
ENDMDL
MODEL 26
USER: ADFR SOLUTION from run 154
USER: SCORE 21.657922 LL:  -3.732 LR: -19.763 RR:   0.000 FEB: -10.814
USER: RMSD 8.161219
USER: SEED 153
USER: STATUS 1 or 2 clusters left
USER: GENES 32
USER: genes 0 Translation |==|  0.69818 0.59016 0.49055
USER: genes 1 Rotation |==|  0.64805 0.97722 0.51267 0.51328
USER: genes 2 Torsion [N]-CA--C-[N] |==|  0.47736
USER: genes 3 Torsion [C]-N--CA-[CB] |==|  0.87057
USER: genes 4 Torsion [N]-CA--CB-[CG] |==|  0.49756
USER: genes 5 Torsion [CA]-CB--CG-[CD] |==|  0.39771
USER: genes 6 Torsion [CB]-CG--CD-[CE] |==|  0.70019
USER: genes 7 Torsion [CG]-CD--CE-[NZ] |==|  0.89358
USER: genes 8 Torsion [CD]-CE--NZ-[HZ1] |==|  0.45384
USER: genes 9 Torsion [N]-CA--C-[N] |==|  0.75715
USER: genes 10 Torsion [C]-N--CA-[C] |==|  0.23252
USER: genes 11 Torsion [N]-CA--CB-[CG] |==|  0.64320
USER: genes 12 Torsion [CA]-CB--CG-[CD2] |==|  0.99384
USER: genes 13 Torsion [CE2]-CZ--OH-[HH] |==|  0.06326
USER: genes 14 Torsion [N]-CA--C-[O] |==|  0.76965
USER: genes 15 Torsion [C]-CA--CB-[CG] |==|  0.86653
USER: genes 16 Torsion [CA]-CB--CG-[CD] |==|  0.70739
USER: genes 17 Torsion [CB]-CG--CD-[NE] |==|  0.68193
USER: genes 18 Torsion [CG]-CD--NE-[HE] |==|  0.82998
USER: genes 19 Torsion [C]-CA--N-[C] |==|  0.68734
USER: genes 20 Torsion [N]-C--CA-[N] |==|  0.10992
USER: genes 21 Torsion [C]-CA--N-[C] |==|  0.71047
USER: genes 22 Torsion [N]-C--CA-[N] |==|  0.99166
USER: genes 23 Torsion [C]-CA--N-[C] |==|  0.69732
USER: genes 24 Torsion [N]-C--CA-[N] |==|  0.37567
USER: genes 25 Torsion [C]-CA--CB-[CG] |==|  0.10749
USER: genes 26 Torsion [CA]-CB--CG-[CD1] |==|  0.22428
USER: genes 27 Torsion [C]-CA--CB-[CG] |==|  0.25528
USER: genes 28 Torsion [CA]-CB--CG-[CD] |==|  0.59791
USER: genes 29 Torsion [CB]-CG--CD-[CE] |==|  0.72113
USER: genes 30 Torsion [CG]-CD--CE-[NZ] |==|  0.53971
USER: genes 31 Torsion [CD]-CE--NZ-[HZ2] |==|  0.03579
ROOT
ATOM      1  CA  ARG B   9       3.357   7.556  10.872  1.00 39.43 LIG 0.18  C 
ENDROOT
BRANCH 1 2
ATOM      2  C   ARG B   9       2.971   6.395   9.976  1.00 41.90 LIG 0.24  C 
ATOM      3  N   LYS B  10       1.681   6.307   9.654  1.00 39.13 LIG-0.35  N 
ATOM      4 H    LYS B  10       1.075   6.826   9.977  1.00 39.13 LIG 0.16  HD
ATOM      5 O    ARG B   9       3.828   5.595   9.578  1.00 39.79 LIG-0.27  OA
BRANCH 3 6
ATOM      6  CA  LYS B  10       1.170   5.311   8.715  1.00 38.99 LIG 0.18  C 
BRANCH 6 7
ATOM      7  CB  LYS B  10       2.036   5.235   7.436  1.00 41.38 LIG 0.04  C 
BRANCH 7 8
ATOM      8  CG  LYS B  10       1.600   4.201   6.387  1.00 61.81 LIG 0.00  C 
BRANCH 8 9
ATOM      9  CD  LYS B  10       1.802   4.697   4.940  1.00 75.86 LIG 0.03  C 
BRANCH 9 10
ATOM     10  CE  LYS B  10       0.516   5.038   4.208  1.00 87.18 LIG 0.23  C 
BRANCH 10 11
ATOM     11  NZ  LYS B  10      -0.578   4.085   4.536  1.00 91.96 LIG-0.08  N 
ATOM     12 HZ1  LYS B  10      -1.360   4.436   4.296  1.00 91.96 LIG 0.27  HD
ATOM     13 HZ2  LYS B  10      -0.449   3.322   4.097  1.00 91.96 LIG 0.27  HD
ATOM     14 HZ3  LYS B  10      -0.581   3.927   5.412  1.00 91.96 LIG 0.27  HD
ENDBRANCH 10 11
ENDBRANCH 9 10
ENDBRANCH 8 9
ENDBRANCH 7 8
ENDBRANCH 6 7
BRANCH 6 15
ATOM     15  C   LYS B  10       1.083   3.960   9.465  1.00 41.93 LIG 0.24  C 
ATOM     16  N   TYR B  11       2.184   3.181   9.479  1.00 37.73 LIG-0.35  N 
ATOM     17 H    TYR B  11       2.911   3.411   9.082  1.00 37.73 LIG 0.16  HD
ATOM     18 O    LYS B  10       0.014   3.623   9.981  1.00 40.97 LIG-0.27  OA
BRANCH 16 19
ATOM     19  CA  TYR B  11       2.290   1.881  10.148  1.00 60.51 LIG 0.17  C 
BRANCH 19 20
ATOM     20  CB  TYR B  11       1.543   1.945  11.501  1.00 61.89 LIG 0.07  C 
BRANCH 20 21
ATOM     21  CG  TYR B  11       2.263   1.501  12.766  1.00 64.48 LIG-0.06  A 
ATOM     22  CD2 TYR B  11       3.558   0.999  12.712  1.00 66.36 LIG 0.01  A 
ATOM     23  CE2 TYR B  11       4.231   0.594  13.863  1.00 66.48 LIG 0.04  A 
ATOM     24  CZ  TYR B  11       3.595   0.651  15.088  1.00 73.62 LIG 0.07  A 
ATOM     25  CE1 TYR B  11       2.297   1.132  15.170  1.00 67.05 LIG 0.04  A 
ATOM     26  CD1 TYR B  11       1.632   1.535  14.008  1.00 65.84 LIG 0.01  A 
BRANCH 24 27
ATOM     27 OH   TYR B  11       4.274   0.238  16.210  1.00 74.96 LIG-0.36  OA
ATOM     28 HH   TYR B  11       5.101   0.283  16.069  1.00 74.96 LIG 0.22  HD
ENDBRANCH 24 27
ENDBRANCH 20 21
ENDBRANCH 19 20
BRANCH 19 29
ATOM     29  C   TYR B  11       1.731   0.780   9.236  1.00 76.68 LIG 0.22  C 
ATOM     30 O    TYR B  11       0.521   0.560   9.195  1.00 42.66 LIG-0.29  OA
ENDBRANCH 19 29
ENDBRANCH 16 19
ENDBRANCH 6 15
ENDBRANCH 3 6
ENDBRANCH 1 2
BRANCH 1 31
ATOM     31  CB  ARG B   9       3.088   8.893  10.115  1.00 41.96 LIG 0.04  C 
BRANCH 31 32
ATOM     32  CG  ARG B   9       3.607   9.013   8.670  1.00 54.96 LIG 0.02  C 
BRANCH 32 33
ATOM     33  CD  ARG B   9       4.835   9.894   8.536  1.00 74.30 LIG 0.14  C 
BRANCH 33 34
ATOM     34  NE  ARG B   9       4.560  11.103   7.752  1.00 92.04 LIG-0.23  N 
ATOM     35 HE   ARG B   9       4.308  11.001   6.937  1.00 92.04 LIG 0.18  HD
ATOM     36  CZ  ARG B   9       4.672  12.347   8.216  1.00114.26 LIG 0.67  C 
ATOM     37  NH2 ARG B   9       4.406  13.381   7.428  1.00103.12 LIG-0.23  N 
ATOM     38  NH1 ARG B   9       5.044  12.566   9.472  1.00104.54 LIG-0.23  N 
ATOM     39 1HH2 ARG B   9       4.160  13.251   6.614  1.00103.12 LIG 0.17  HD
ATOM     40 2HH2 ARG B   9       4.480  14.183   7.731  1.00103.12 LIG 0.17  HD
ATOM     41 1HH1 ARG B   9       5.214  11.903   9.993  1.00104.54 LIG 0.17  HD
ATOM     42 2HH1 ARG B   9       5.115  13.372   9.765  1.00104.54 LIG 0.17  HD
ENDBRANCH 33 34
ENDBRANCH 32 33
ENDBRANCH 31 32
ENDBRANCH 1 31
BRANCH 1 43
ATOM     43  N   ARG B   9       4.752   7.427  11.304  1.00 39.07 LIG-0.35  N 
ATOM     44 H    ARG B   9       5.321   7.518  10.664  1.00 39.07 LIG 0.16  HD
ATOM     45  C   LYS B   8       5.111   7.190  12.571  1.00 42.99 LIG 0.24  C 
ATOM     46 O    LYS B   8       4.298   7.087  13.497  1.00 42.25 LIG-0.27  OA
BRANCH 45 47
ATOM     47  CA  LYS B   8       6.605   7.082  12.847  1.00 40.35 LIG 0.18  C 
BRANCH 47 48
ATOM     48  N   LYS B   8       7.329   8.079  12.063  1.00 42.07 LIG-0.35  N 
ATOM     49 H    LYS B   8       7.253   8.870  12.390  1.00 42.07 LIG 0.16  HD
ATOM     50  C   GLY B   7       8.040   7.839  10.962  1.00 50.14 LIG 0.24  C 
ATOM     51 O    GLY B   7       8.138   6.725  10.437  1.00 49.17 LIG-0.27  OA
BRANCH 50 52
ATOM     52  CA  GLY B   7       8.724   9.044  10.363  1.00 52.80 LIG 0.23  C 
BRANCH 52 53
ATOM     53  N   GLY B   7       8.386  10.247  11.109  1.00 55.58 LIG-0.35  N 
ATOM     54  C   LEU B   6       7.602  11.229  10.675  1.00 62.88 LIG 0.26  C 
ATOM     55 O    LEU B   6       7.056  11.238   9.566  1.00 62.93 LIG-0.27  OA
ATOM     56 H    GLY B   7       8.753  10.267  11.887  1.00 55.58 LIG 0.16  HD
BRANCH 54 57
ATOM     57  CA  LEU B   6       7.394  12.372  11.694  1.00 62.75 LIG 0.40  C 
ATOM     58  N   LEU B   6       7.529  13.663  11.019  1.00 63.15 LIG 0.61  N 
BRANCH 57 59
ATOM     59  CB  LEU B   6       6.040  12.257  12.439  1.00 63.26 LIG 0.06  C 
BRANCH 59 60
ATOM     60  CG  LEU B   6       5.573  10.834  12.834  1.00 68.65 LIG-0.02  C 
ATOM     61  CD1 LEU B   6       6.263  10.365  14.109  1.00 69.18 LIG 0.01  C 
ATOM     62  CD2 LEU B   6       4.047  10.747  12.981  1.00 70.70 LIG 0.01  C 
ENDBRANCH 59 60
ENDBRANCH 57 59
ENDBRANCH 54 57
ENDBRANCH 52 53
ENDBRANCH 50 52
ENDBRANCH 47 48
BRANCH 47 63
ATOM     63  CB  LYS B   8       6.879   7.260  14.353  1.00 41.14 LIG 0.04  C 
BRANCH 63 64
ATOM     64  CG  LYS B   8       6.903   5.963  15.151  1.00 42.09 LIG 0.00  C 
BRANCH 64 65
ATOM     65  CD  LYS B   8       6.325   6.177  16.538  1.00 43.68 LIG 0.03  C 
BRANCH 65 66
ATOM     66  CE  LYS B   8       7.420   6.325  17.563  1.00 41.10 LIG 0.23  C 
BRANCH 66 67
ATOM     67  NZ  LYS B   8       6.922   6.198  18.959  1.00 37.84 LIG-0.08  N 
ATOM     68 HZ3  LYS B   8       7.452   5.647  19.414  1.00 37.84 LIG 0.27  HD
ATOM     69 HZ2  LYS B   8       6.094   5.872  18.950  1.00 37.84 LIG 0.27  HD
ATOM     70 HZ1  LYS B   8       6.921   6.998  19.348  1.00 37.84 LIG 0.27  HD
ENDBRANCH 66 67
ENDBRANCH 65 66
ENDBRANCH 64 65
ENDBRANCH 63 64
ENDBRANCH 47 63
ENDBRANCH 45 47
ENDBRANCH 1 43
TORSDOF 30
ENDMDL
