MODEL 1
USER: ADFR SOLUTION from run 76
USER: SCORE 23.392923 LL:  -5.421 LR: -19.241 RR:   0.000 FEB: -11.486
USER: RMSD 4.082869
USER: SEED 75
USER: STATUS no improvement in best in 9 clusters for 5 generations
USER: GENES 28
USER: genes 0 Translation |==|  0.51866 0.45694 0.41344
USER: genes 1 Rotation |==|  0.45134 0.44347 0.51234 0.99425
USER: genes 2 Torsion [N]-CA--C-[O] |==|  0.86538
USER: genes 3 Torsion [C]-N--CA-[CB] |==|  0.53334
USER: genes 4 Torsion [N]-CA--C-[N] |==|  0.36933
USER: genes 5 Torsion [C]-N--CA-[C] |==|  0.64757
USER: genes 6 Torsion [N]-CA--CB-[CG] |==|  0.85473
USER: genes 7 Torsion [CA]-CB--CG-[CD1] |==|  0.34980
USER: genes 8 Torsion [N]-CA--C-[N] |==|  0.24596
USER: genes 9 Torsion [C]-N--CA-[C] |==|  0.69537
USER: genes 10 Torsion [N]-CA--CB-[CG] |==|  0.39986
USER: genes 11 Torsion [CA]-CB--CG-[OD1] |==|  0.73693
USER: genes 12 Torsion [N]-CA--C-[O] |==|  0.01777
USER: genes 13 Torsion [N]-CA--CB-[CG2] |==|  0.38277
USER: genes 14 Torsion [CA]-CB--CG1-[CD1] |==|  0.68103
USER: genes 15 Torsion [N]-C--CA-[N] |==|  0.32163
USER: genes 16 Torsion [C]-CA--N-[C] |==|  0.63553
USER: genes 17 Torsion [N]-C--CA-[N] |==|  0.41294
USER: genes 18 Torsion [C]-CA--N-[C] |==|  0.63924
USER: genes 19 Torsion [N]-C--CA-[N] |==|  0.79360
USER: genes 20 Torsion [C]-CA--CB-[CG1] |==|  0.54657
USER: genes 21 Torsion [CA]-CB--CG1-[CD1] |==|  0.52164
USER: genes 22 Torsion [C]-CA--CB-[CG] |==|  0.61076
USER: genes 23 Torsion [CA]-CB--CG-[CD] |==|  0.46087
USER: genes 24 Torsion [CB]-CG--CD-[NE] |==|  0.74139
USER: genes 25 Torsion [CG]-CD--NE-[CZ] |==|  0.81032
USER: genes 26 Torsion [C]-CA--CB-[CG1] |==|  0.40795
USER: genes 27 Torsion [CA]-CB--CG1-[CD1] |==|  0.11106
ROOT
ATOM      1  C   ILE E1023     -48.076  24.029  -2.009  1.00 40.02 LIG 0.24  C 
ATOM      2 O    ILE E1023     -48.011  25.177  -2.473  1.00 38.38 LIG-0.27  OA
ATOM      3  N   PRO E1024     -49.133  23.583  -1.285  1.00 37.38 LIG-0.34  N 
ATOM      4  CA  PRO E1024     -50.196  24.525  -0.906  1.00 36.67 LIG 0.18  C 
ATOM      5  CB  PRO E1024     -51.334  23.614  -0.451  1.00 38.74 LIG 0.04  C 
ATOM      6  CG  PRO E1024     -50.664  22.388   0.045  1.00 43.33 LIG 0.02  C 
ATOM      7  CD  PRO E1024     -49.350  22.253  -0.670  1.00 39.42 LIG 0.13  C 
ENDROOT
BRANCH 4 8
ATOM      8  C   PRO E1024     -49.690  25.412   0.225  1.00 39.60 LIG 0.24  C 
ATOM      9 O    PRO E1024     -49.141  24.890   1.194  1.00 37.18 LIG-0.27  OA
ATOM     10  N   ILE E1025     -49.846  26.743   0.072  1.00 37.20 LIG-0.35  N 
ATOM     11 H    ILE E1025     -50.226  27.073  -0.625  1.00 37.20 LIG 0.16  HD
BRANCH 10 12
ATOM     12  CA  ILE E1025     -49.417  27.787   1.012  1.00 37.42 LIG 0.18  C 
BRANCH 12 13
ATOM     13  C   ILE E1025     -49.957  27.509   2.413  1.00 40.88 LIG 0.24  C 
ATOM     14 O    ILE E1025     -51.175  27.406   2.572  1.00 40.29 LIG-0.27  OA
ATOM     15  N   PHE E1026     -49.101  27.607   3.449  1.00 36.23 LIG-0.35  N 
ATOM     16 H    PHE E1026     -48.247  27.665   3.368  1.00 36.23 LIG 0.16  HD
BRANCH 15 17
ATOM     17  CA  PHE E1026     -49.588  27.619   4.835  1.00 36.58 LIG 0.18  C 
BRANCH 17 18
ATOM     18  CB  PHE E1026     -49.222  26.335   5.572  1.00 38.58 LIG 0.07  C 
BRANCH 18 19
ATOM     19  CG  PHE E1026     -49.643  25.104   4.823  1.00 40.24 LIG-0.06  A 
ATOM     20  CD1 PHE E1026     -48.731  24.113   4.530  1.00 42.20 LIG 0.01  A 
ATOM     21  CE1 PHE E1026     -49.118  22.983   3.829  1.00 42.54 LIG 0.00  A 
ATOM     22  CZ  PHE E1026     -50.418  22.838   3.420  1.00 41.81 LIG 0.00  A 
ATOM     23  CE2 PHE E1026     -51.340  23.814   3.695  1.00 44.36 LIG 0.00  A 
ATOM     24  CD2 PHE E1026     -50.954  24.948   4.391  1.00 42.30 LIG 0.01  A 
ENDBRANCH 18 19
ENDBRANCH 17 18
BRANCH 17 25
ATOM     25  C   PHE E1026     -49.049  28.822   5.587  1.00 38.60 LIG 0.24  C 
ATOM     26  N   ASN E1027     -49.792  29.954   5.510  1.00 38.80 LIG-0.35  N 
ATOM     27 H    ASN E1027     -50.514  30.001   5.043  1.00 38.80 LIG 0.16  HD
ATOM     28 O    PHE E1026     -48.030  28.712   6.265  1.00 31.59 LIG-0.27  OA
BRANCH 26 29
ATOM     29  CA  ASN E1027     -49.470  31.213   6.193  1.00 74.37 LIG 0.17  C 
BRANCH 29 30
ATOM     30  CB  ASN E1027     -49.508  32.376   5.208  1.00 75.17 LIG 0.14  C 
BRANCH 30 31
ATOM     31  CG  ASN E1027     -50.041  33.651   5.814  1.00 99.64 LIG 0.22  C 
ATOM     32  ND2 ASN E1027     -49.183  34.425   6.472  1.00 92.55 LIG-0.37  N 
ATOM     33 22HD ASN E1027     -48.357  34.196   6.534  1.00 92.55 LIG 0.16  HD
ATOM     34 21HD ASN E1027     -49.454  35.156   6.835  1.00 92.55 LIG 0.16  HD
ATOM     35 OD1  ASN E1027     -51.231  33.953   5.708  1.00 94.01 LIG-0.27  OA
ENDBRANCH 30 31
ENDBRANCH 29 30
BRANCH 29 36
ATOM     36  C   ASN E1027     -50.466  31.470   7.321  1.00103.37 LIG 0.22  C 
ATOM     37 O    ASN E1027     -51.301  30.620   7.619  1.00 69.20 LIG-0.29  OA
ENDBRANCH 29 36
ENDBRANCH 26 29
ENDBRANCH 17 25
ENDBRANCH 15 17
ENDBRANCH 12 13
BRANCH 12 38
ATOM     38  CB  ILE E1025     -50.081  29.164   0.568  1.00 40.50 LIG 0.01  C 
ATOM     39  CG2 ILE E1025     -50.606  29.957   1.773  1.00 43.95 LIG 0.01  C 
BRANCH 38 40
ATOM     40  CG1 ILE E1025     -49.159  30.028  -0.292  1.00 41.58 LIG 0.00  C 
ATOM     41  CD1 ILE E1025     -48.742  31.420   0.437  1.00 52.05 LIG 0.01  C 
ENDBRANCH 38 40
ENDBRANCH 12 38
ENDBRANCH 10 12
ENDBRANCH 4 8
BRANCH 1 42
ATOM     42  CA  ILE E1023     -46.968  23.048  -2.351  1.00 36.06 LIG 0.18  C 
BRANCH 42 43
ATOM     43  N   ILE E1023     -46.963  22.910  -3.820  1.00 37.96 LIG-0.35  N 
ATOM     44  C   ARG E1022     -46.946  21.713  -4.444  1.00 45.42 LIG 0.24  C 
ATOM     45 O    ARG E1022     -46.856  20.642  -3.843  1.00 45.23 LIG-0.27  OA
ATOM     46 H    ILE E1023     -46.972  23.660  -4.239  1.00 37.96 LIG 0.16  HD
BRANCH 44 47
ATOM     47  CA  ARG E1022     -46.967  21.689  -5.973  1.00 45.59 LIG 0.18  C 
BRANCH 47 48
ATOM     48  N   ARG E1022     -46.247  20.539  -6.544  1.00 48.30 LIG-0.35  N 
ATOM     49 H    ARG E1022     -46.466  19.779  -6.208  1.00 48.30 LIG 0.16  HD
ATOM     50  C   ILE E1021     -45.321  20.694  -7.517  1.00 57.51 LIG 0.26  C 
ATOM     51 O    ILE E1021     -45.024  21.799  -7.988  1.00 59.03 LIG-0.27  OA
BRANCH 50 52
ATOM     52  CA  ILE E1021     -44.624  19.436  -8.061  1.00 57.59 LIG 0.40  C 
ATOM     53  N   ILE E1021     -43.662  18.967  -7.069  1.00 58.96 LIG 0.61  N 
BRANCH 52 54
ATOM     54  CB  ILE E1021     -45.615  18.268  -8.327  1.00 60.58 LIG 0.03  C 
ATOM     55  CG2 ILE E1021     -46.504  18.511  -9.544  1.00 61.37 LIG 0.01  C 
BRANCH 54 56
ATOM     56  CG1 ILE E1021     -44.852  16.927  -8.463  1.00 60.59 LIG 0.00  C 
ATOM     57  CD1 ILE E1021     -45.727  15.811  -8.899  1.00 60.15 LIG 0.01  C 
ENDBRANCH 54 56
ENDBRANCH 52 54
ENDBRANCH 50 52
ENDBRANCH 47 48
BRANCH 47 58
ATOM     58  CB  ARG E1022     -48.426  21.741  -6.443  1.00 44.33 LIG 0.04  C 
BRANCH 58 59
ATOM     59  CG  ARG E1022     -48.705  20.834  -7.635  1.00 47.73 LIG 0.02  C 
BRANCH 59 60
ATOM     60  CD  ARG E1022     -50.183  20.620  -7.887  1.00 47.87 LIG 0.14  C 
BRANCH 60 61
ATOM     61  NE  ARG E1022     -50.654  19.415  -7.206  1.00 55.98 LIG-0.23  N 
ATOM     62  CZ  ARG E1022     -50.326  18.162  -7.508  1.00 56.00 LIG 0.67  C 
ATOM     63  NH1 ARG E1022     -49.474  17.905  -8.495  1.00 48.69 LIG-0.23  N 
ATOM     64  NH2 ARG E1022     -50.821  17.155  -6.804  1.00 32.20 LIG-0.23  N 
ATOM     65 1HH1 ARG E1022     -49.130  18.553  -8.945  1.00 48.69 LIG 0.17  HD
ATOM     66 2HH1 ARG E1022     -49.268  17.093  -8.684  1.00 48.69 LIG 0.17  HD
ATOM     67 2HH2 ARG E1022     -50.607  16.346  -7.002  1.00 32.20 LIG 0.17  HD
ATOM     68 1HH2 ARG E1022     -51.357  17.310  -6.149  1.00 32.20 LIG 0.17  HD
ATOM     69 HE   ARG E1022     -51.196  19.528  -6.547  1.00 55.98 LIG 0.18  HD
ENDBRANCH 60 61
ENDBRANCH 59 60
ENDBRANCH 58 59
ENDBRANCH 47 58
ENDBRANCH 44 47
ENDBRANCH 42 43
BRANCH 42 70
ATOM     70  CB  ILE E1023     -45.611  23.578  -1.780  1.00 38.78 LIG 0.01  C 
ATOM     71  CG2 ILE E1023     -45.856  24.588  -0.649  1.00 39.01 LIG 0.01  C 
BRANCH 70 72
ATOM     72  CG1 ILE E1023     -44.647  22.441  -1.325  1.00 39.61 LIG 0.00  C 
ATOM     73  CD1 ILE E1023     -44.570  21.208  -2.190  1.00 43.21 LIG 0.01  C 
ENDBRANCH 70 72
ENDBRANCH 42 70
ENDBRANCH 1 42
TORSDOF 26
ENDMDL
MODEL 2
USER: ADFR SOLUTION from run 76
USER: SCORE 24.503064 LL:  -6.355 LR: -19.156 RR:   0.000 FEB: -11.401
USER: RMSD 2.836165
USER: SEED 75
USER: STATUS no improvement in best in 9 clusters for 5 generations
USER: GENES 28
USER: genes 0 Translation |==|  0.49352 0.48393 0.41551
USER: genes 1 Rotation |==|  0.47239 0.48016 0.54365 0.99693
USER: genes 2 Torsion [N]-CA--C-[O] |==|  0.83600
USER: genes 3 Torsion [C]-N--CA-[CB] |==|  0.52477
USER: genes 4 Torsion [N]-CA--C-[N] |==|  0.34792
USER: genes 5 Torsion [C]-N--CA-[C] |==|  0.65537
USER: genes 6 Torsion [N]-CA--CB-[CG] |==|  0.88059
USER: genes 7 Torsion [CA]-CB--CG-[CD1] |==|  0.34175
USER: genes 8 Torsion [N]-CA--C-[N] |==|  0.27365
USER: genes 9 Torsion [C]-N--CA-[C] |==|  0.87115
USER: genes 10 Torsion [N]-CA--CB-[CG] |==|  0.71215
USER: genes 11 Torsion [CA]-CB--CG-[OD1] |==|  0.32839
USER: genes 12 Torsion [N]-CA--C-[O] |==|  0.24366
USER: genes 13 Torsion [N]-CA--CB-[CG2] |==|  0.42783
USER: genes 14 Torsion [CA]-CB--CG1-[CD1] |==|  0.66122
USER: genes 15 Torsion [N]-C--CA-[N] |==|  0.35908
USER: genes 16 Torsion [C]-CA--N-[C] |==|  0.82937
USER: genes 17 Torsion [N]-C--CA-[N] |==|  0.95867
USER: genes 18 Torsion [C]-CA--N-[C] |==|  0.81528
USER: genes 19 Torsion [N]-C--CA-[N] |==|  0.42822
USER: genes 20 Torsion [C]-CA--CB-[CG1] |==|  0.01560
USER: genes 21 Torsion [CA]-CB--CG1-[CD1] |==|  0.41662
USER: genes 22 Torsion [C]-CA--CB-[CG] |==|  0.89789
USER: genes 23 Torsion [CA]-CB--CG-[CD] |==|  0.81720
USER: genes 24 Torsion [CB]-CG--CD-[NE] |==|  0.55778
USER: genes 25 Torsion [CG]-CD--NE-[CZ] |==|  0.49436
USER: genes 26 Torsion [C]-CA--CB-[CG1] |==|  0.37944
USER: genes 27 Torsion [CA]-CB--CG1-[CD1] |==|  0.10841
ROOT
ATOM      1  C   ILE E1023     -48.453  24.656  -1.950  1.00 40.02 LIG 0.24  C 
ATOM      2 O    ILE E1023     -48.595  25.828  -2.331  1.00 38.38 LIG-0.27  OA
ATOM      3  N   PRO E1024     -49.321  24.043  -1.106  1.00 37.38 LIG-0.34  N 
ATOM      4  CA  PRO E1024     -50.407  24.823  -0.496  1.00 36.67 LIG 0.18  C 
ATOM      5  CB  PRO E1024     -51.344  23.755   0.060  1.00 38.74 LIG 0.04  C 
ATOM      6  CG  PRO E1024     -50.469  22.595   0.352  1.00 43.33 LIG 0.02  C 
ATOM      7  CD  PRO E1024     -49.283  22.664  -0.567  1.00 39.42 LIG 0.13  C 
ENDROOT
BRANCH 4 8
ATOM      8  C   PRO E1024     -49.825  25.701   0.606  1.00 39.60 LIG 0.24  C 
ATOM      9 O    PRO E1024     -49.234  25.169   1.544  1.00 37.18 LIG-0.27  OA
ATOM     10  N   ILE E1025     -49.967  27.034   0.462  1.00 37.20 LIG-0.35  N 
ATOM     11 H    ILE E1025     -50.379  27.371  -0.214  1.00 37.20 LIG 0.16  HD
BRANCH 10 12
ATOM     12  CA  ILE E1025     -49.471  28.070   1.378  1.00 37.42 LIG 0.18  C 
BRANCH 12 13
ATOM     13  C   ILE E1025     -50.002  27.843   2.791  1.00 40.88 LIG 0.24  C 
ATOM     14 O    ILE E1025     -51.212  27.946   2.997  1.00 40.29 LIG-0.27  OA
ATOM     15  N   PHE E1026     -49.106  27.755   3.794  1.00 36.23 LIG-0.35  N 
ATOM     16 H    PHE E1026     -48.258  27.668   3.680  1.00 36.23 LIG 0.16  HD
BRANCH 15 17
ATOM     17  CA  PHE E1026     -49.535  27.804   5.198  1.00 36.58 LIG 0.18  C 
BRANCH 17 18
ATOM     18  CB  PHE E1026     -49.307  26.470   5.903  1.00 38.58 LIG 0.07  C 
BRANCH 18 19
ATOM     19  CG  PHE E1026     -49.709  25.299   5.056  1.00 40.24 LIG-0.06  A 
ATOM     20  CD1 PHE E1026     -48.804  24.304   4.756  1.00 42.20 LIG 0.01  A 
ATOM     21  CE1 PHE E1026     -49.173  23.229   3.966  1.00 42.54 LIG 0.00  A 
ATOM     22  CZ  PHE E1026     -50.448  23.143   3.472  1.00 41.81 LIG 0.00  A 
ATOM     23  CE2 PHE E1026     -51.363  24.123   3.752  1.00 44.36 LIG 0.00  A 
ATOM     24  CD2 PHE E1026     -50.995  25.203   4.538  1.00 42.30 LIG 0.01  A 
ENDBRANCH 18 19
ENDBRANCH 17 18
BRANCH 17 25
ATOM     25  C   PHE E1026     -48.818  28.915   5.944  1.00 38.60 LIG 0.24  C 
ATOM     26  N   ASN E1027     -49.507  30.074   6.091  1.00 38.80 LIG-0.35  N 
ATOM     27 H    ASN E1027     -50.294  30.187   5.762  1.00 38.80 LIG 0.16  HD
ATOM     28 O    PHE E1026     -47.705  28.710   6.424  1.00 31.59 LIG-0.27  OA
BRANCH 26 29
ATOM     29  CA  ASN E1027     -49.013  31.253   6.811  1.00 74.37 LIG 0.17  C 
BRANCH 29 30
ATOM     30  CB  ASN E1027     -50.147  32.245   7.048  1.00 75.17 LIG 0.14  C 
BRANCH 30 31
ATOM     31  CG  ASN E1027     -50.103  33.432   6.119  1.00 99.64 LIG 0.22  C 
ATOM     32  ND2 ASN E1027     -49.041  34.229   6.188  1.00 92.55 LIG-0.37  N 
ATOM     33 22HD ASN E1027     -48.408  34.055   6.744  1.00 92.55 LIG 0.16  HD
ATOM     34 21HD ASN E1027     -48.987  34.919   5.678  1.00 92.55 LIG 0.16  HD
ATOM     35 OD1  ASN E1027     -51.026  33.655   5.333  1.00 94.01 LIG-0.27  OA
ENDBRANCH 30 31
ENDBRANCH 29 30
BRANCH 29 36
ATOM     36  C   ASN E1027     -48.413  30.839   8.153  1.00103.37 LIG 0.22  C 
ATOM     37 O    ASN E1027     -47.231  30.513   8.231  1.00 69.20 LIG-0.29  OA
ENDBRANCH 29 36
ENDBRANCH 26 29
ENDBRANCH 17 25
ENDBRANCH 15 17
ENDBRANCH 12 13
BRANCH 12 38
ATOM     38  CB  ILE E1025     -50.072  29.471   0.921  1.00 40.50 LIG 0.01  C 
ATOM     39  CG2 ILE E1025     -50.165  30.460   2.092  1.00 43.95 LIG 0.01  C 
BRANCH 38 40
ATOM     40  CG1 ILE E1025     -49.324  30.094  -0.257  1.00 41.58 LIG 0.00  C 
ATOM     41  CD1 ILE E1025     -48.731  31.569   0.083  1.00 52.05 LIG 0.01  C 
ENDBRANCH 38 40
ENDBRANCH 12 38
ENDBRANCH 10 12
ENDBRANCH 4 8
BRANCH 1 42
ATOM     42  CA  ILE E1023     -47.313  23.841  -2.534  1.00 36.06 LIG 0.18  C 
BRANCH 42 43
ATOM     43  N   ILE E1023     -47.340  24.058  -3.993  1.00 37.96 LIG-0.35  N 
ATOM     44  C   ARG E1022     -48.393  23.714  -4.766  1.00 45.42 LIG 0.24  C 
ATOM     45 O    ARG E1022     -49.381  23.123  -4.332  1.00 45.23 LIG-0.27  OA
ATOM     46 H    ILE E1023     -46.626  24.422  -4.303  1.00 37.96 LIG 0.16  HD
BRANCH 44 47
ATOM     47  CA  ARG E1022     -48.321  24.008  -6.265  1.00 45.59 LIG 0.18  C 
BRANCH 47 48
ATOM     48  N   ARG E1022     -47.243  24.946  -6.621  1.00 48.30 LIG-0.35  N 
ATOM     49 H    ARG E1022     -46.614  24.602  -7.094  1.00 48.30 LIG 0.16  HD
ATOM     50  C   ILE E1021     -47.268  26.238  -6.223  1.00 57.51 LIG 0.26  C 
ATOM     51 O    ILE E1021     -48.187  26.713  -5.545  1.00 59.03 LIG-0.27  OA
BRANCH 50 52
ATOM     52  CA  ILE E1021     -46.104  27.149  -6.649  1.00 57.59 LIG 0.40  C 
ATOM     53  N   ILE E1021     -46.578  28.529  -6.681  1.00 58.96 LIG 0.61  N 
BRANCH 52 54
ATOM     54  CB  ILE E1021     -44.907  27.098  -5.659  1.00 60.58 LIG 0.03  C 
ATOM     55  CG2 ILE E1021     -44.602  28.454  -5.029  1.00 61.37 LIG 0.01  C 
BRANCH 54 56
ATOM     56  CG1 ILE E1021     -45.149  26.027  -4.567  1.00 60.59 LIG 0.00  C 
ATOM     57  CD1 ILE E1021     -43.889  25.428  -4.063  1.00 60.15 LIG 0.01  C 
ENDBRANCH 54 56
ENDBRANCH 52 54
ENDBRANCH 50 52
ENDBRANCH 47 48
BRANCH 47 58
ATOM     58  CB  ARG E1022     -48.194  22.678  -7.018  1.00 44.33 LIG 0.04  C 
BRANCH 58 59
ATOM     59  CG  ARG E1022     -47.333  21.655  -6.287  1.00 47.73 LIG 0.02  C 
BRANCH 59 60
ATOM     60  CD  ARG E1022     -45.880  22.068  -6.180  1.00 47.87 LIG 0.14  C 
BRANCH 60 61
ATOM     61  NE  ARG E1022     -45.029  20.905  -5.937  1.00 55.98 LIG-0.23  N 
ATOM     62  CZ  ARG E1022     -43.703  20.909  -5.830  1.00 56.00 LIG 0.67  C 
ATOM     63  NH1 ARG E1022     -43.021  22.047  -5.917  1.00 48.69 LIG-0.23  N 
ATOM     64  NH2 ARG E1022     -43.048  19.781  -5.602  1.00 32.20 LIG-0.23  N 
ATOM     65 1HH1 ARG E1022     -43.438  22.789  -6.043  1.00 48.69 LIG 0.17  HD
ATOM     66 2HH1 ARG E1022     -42.165  22.041  -5.847  1.00 48.69 LIG 0.17  HD
ATOM     67 2HH2 ARG E1022     -42.191  19.787  -5.533  1.00 32.20 LIG 0.17  HD
ATOM     68 1HH2 ARG E1022     -43.481  19.041  -5.522  1.00 32.20 LIG 0.17  HD
ATOM     69 HE   ARG E1022     -45.423  20.145  -5.855  1.00 55.98 LIG 0.18  HD
ENDBRANCH 60 61
ENDBRANCH 59 60
ENDBRANCH 58 59
ENDBRANCH 47 58
ENDBRANCH 44 47
ENDBRANCH 42 43
BRANCH 42 70
ATOM     70  CB  ILE E1023     -45.966  24.284  -1.872  1.00 38.78 LIG 0.01  C 
ATOM     71  CG2 ILE E1023     -46.229  25.199  -0.667  1.00 39.01 LIG 0.01  C 
BRANCH 70 72
ATOM     72  CG1 ILE E1023     -45.044  23.088  -1.486  1.00 39.61 LIG 0.00  C 
ATOM     73  CD1 ILE E1023     -44.981  21.923  -2.442  1.00 43.21 LIG 0.01  C 
ENDBRANCH 70 72
ENDBRANCH 42 70
ENDBRANCH 1 42
TORSDOF 26
ENDMDL
MODEL 3
USER: ADFR SOLUTION from run 87
USER: SCORE 23.144379 LL:  -4.876 LR: -18.981 RR:   0.000 FEB: -11.225
USER: RMSD 3.635399
USER: SEED 86
USER: STATUS no improvement in best in 11 clusters for 5 generations
USER: GENES 28
USER: genes 0 Translation |==|  0.49649 0.46485 0.43616
USER: genes 1 Rotation |==|  0.42207 0.42868 0.53283 0.98761
USER: genes 2 Torsion [N]-CA--C-[O] |==|  0.68157
USER: genes 3 Torsion [C]-N--CA-[CB] |==|  0.63347
USER: genes 4 Torsion [N]-CA--C-[N] |==|  0.32616
USER: genes 5 Torsion [C]-N--CA-[C] |==|  0.65365
USER: genes 6 Torsion [N]-CA--CB-[CG] |==|  0.06718
USER: genes 7 Torsion [CA]-CB--CG-[CD1] |==|  0.24846
USER: genes 8 Torsion [N]-CA--C-[N] |==|  0.37608
USER: genes 9 Torsion [C]-N--CA-[C] |==|  0.86777
USER: genes 10 Torsion [N]-CA--CB-[CG] |==|  0.76273
USER: genes 11 Torsion [CA]-CB--CG-[OD1] |==|  0.30160
USER: genes 12 Torsion [N]-CA--C-[O] |==|  0.87027
USER: genes 13 Torsion [N]-CA--CB-[CG2] |==|  0.11477
USER: genes 14 Torsion [CA]-CB--CG1-[CD1] |==|  0.55161
USER: genes 15 Torsion [N]-C--CA-[N] |==|  0.35704
USER: genes 16 Torsion [C]-CA--N-[C] |==|  0.61779
USER: genes 17 Torsion [N]-C--CA-[N] |==|  0.42710
USER: genes 18 Torsion [C]-CA--N-[C] |==|  0.62432
USER: genes 19 Torsion [N]-C--CA-[N] |==|  0.37733
USER: genes 20 Torsion [C]-CA--CB-[CG1] |==|  0.75813
USER: genes 21 Torsion [CA]-CB--CG1-[CD1] |==|  0.27034
USER: genes 22 Torsion [C]-CA--CB-[CG] |==|  0.46575
USER: genes 23 Torsion [CA]-CB--CG-[CD] |==|  0.34328
USER: genes 24 Torsion [CB]-CG--CD-[NE] |==|  0.78924
USER: genes 25 Torsion [CG]-CD--NE-[CZ] |==|  0.33143
USER: genes 26 Torsion [C]-CA--CB-[CG1] |==|  0.81617
USER: genes 27 Torsion [CA]-CB--CG1-[CD1] |==|  0.24533
ROOT
ATOM      1  C   ILE E1023     -48.409  24.213  -1.361  1.00 40.02 LIG 0.24  C 
ATOM      2 O    ILE E1023     -48.396  25.296  -1.965  1.00 38.38 LIG-0.27  OA
ATOM      3  N   PRO E1024     -49.474  23.779  -0.642  1.00 37.38 LIG-0.34  N 
ATOM      4  CA  PRO E1024     -50.622  24.675  -0.441  1.00 36.67 LIG 0.18  C 
ATOM      5  CB  PRO E1024     -51.718  23.742   0.067  1.00 38.74 LIG 0.04  C 
ATOM      6  CG  PRO E1024     -50.995  22.643   0.749  1.00 43.33 LIG 0.02  C 
ATOM      7  CD  PRO E1024     -49.634  22.523   0.126  1.00 39.42 LIG 0.13  C 
ENDROOT
BRANCH 4 8
ATOM      8  C   PRO E1024     -50.249  25.732   0.591  1.00 39.60 LIG 0.24  C 
ATOM      9 O    PRO E1024     -50.838  25.748   1.670  1.00 37.18 LIG-0.27  OA
ATOM     10  N   ILE E1025     -49.250  26.578   0.264  1.00 37.20 LIG-0.35  N 
ATOM     11 H    ILE E1025     -48.854  26.531  -0.498  1.00 37.20 LIG 0.16  HD
BRANCH 10 12
ATOM     12  CA  ILE E1025     -48.707  27.655   1.103  1.00 37.42 LIG 0.18  C 
BRANCH 12 13
ATOM     13  C   ILE E1025     -49.666  27.989   2.243  1.00 40.88 LIG 0.24  C 
ATOM     14 O    ILE E1025     -50.702  28.605   1.988  1.00 40.29 LIG-0.27  OA
ATOM     15  N   PHE E1026     -49.237  27.793   3.505  1.00 36.23 LIG-0.35  N 
ATOM     16 H    PHE E1026     -48.526  27.357   3.713  1.00 36.23 LIG 0.16  HD
BRANCH 15 17
ATOM     17  CA  PHE E1026     -49.983  28.332   4.650  1.00 36.58 LIG 0.18  C 
BRANCH 17 18
ATOM     18  CB  PHE E1026     -50.605  27.221   5.490  1.00 38.58 LIG 0.07  C 
BRANCH 18 19
ATOM     19  CG  PHE E1026     -49.883  25.915   5.339  1.00 40.24 LIG-0.06  A 
ATOM     20  CD1 PHE E1026     -48.828  25.594   6.166  1.00 42.20 LIG 0.01  A 
ATOM     21  CE1 PHE E1026     -48.155  24.393   6.018  1.00 42.54 LIG 0.00  A 
ATOM     22  CZ  PHE E1026     -48.534  23.507   5.043  1.00 41.81 LIG 0.00  A 
ATOM     23  CE2 PHE E1026     -49.574  23.808   4.205  1.00 44.36 LIG 0.00  A 
ATOM     24  CD2 PHE E1026     -50.246  25.011   4.347  1.00 42.30 LIG 0.01  A 
ENDBRANCH 18 19
ENDBRANCH 17 18
BRANCH 17 25
ATOM     25  C   PHE E1026     -49.090  29.200   5.517  1.00 38.60 LIG 0.24  C 
ATOM     26  N   ASN E1027     -49.622  30.379   5.928  1.00 38.80 LIG-0.35  N 
ATOM     27 H    ASN E1027     -50.409  30.634   5.694  1.00 38.80 LIG 0.16  HD
ATOM     28 O    PHE E1026     -47.981  28.791   5.855  1.00 31.59 LIG-0.27  OA
BRANCH 26 29
ATOM     29  CA  ASN E1027     -48.942  31.342   6.802  1.00 74.37 LIG 0.17  C 
BRANCH 29 30
ATOM     30  CB  ASN E1027     -49.924  32.404   7.285  1.00 75.17 LIG 0.14  C 
BRANCH 30 31
ATOM     31  CG  ASN E1027     -50.084  33.551   6.318  1.00 99.64 LIG 0.22  C 
ATOM     32  ND2 ASN E1027     -49.071  34.405   6.203  1.00 92.55 LIG-0.37  N 
ATOM     33 22HD ASN E1027     -48.356  34.289   6.666  1.00 92.55 LIG 0.16  HD
ATOM     34 21HD ASN E1027     -49.131  35.074   5.665  1.00 92.55 LIG 0.16  HD
ATOM     35 OD1  ASN E1027     -51.122  33.690   5.668  1.00 94.01 LIG-0.27  OA
ENDBRANCH 30 31
ENDBRANCH 29 30
BRANCH 29 36
ATOM     36  C   ASN E1027     -48.336  30.626   8.007  1.00103.37 LIG 0.22  C 
ATOM     37 O    ASN E1027     -48.997  29.807   8.639  1.00 69.20 LIG-0.29  OA
ENDBRANCH 29 36
ENDBRANCH 26 29
ENDBRANCH 17 25
ENDBRANCH 15 17
ENDBRANCH 12 13
BRANCH 12 38
ATOM     38  CB  ILE E1025     -48.617  28.978   0.224  1.00 40.50 LIG 0.01  C 
ATOM     39  CG2 ILE E1025     -49.855  29.155  -0.667  1.00 43.95 LIG 0.01  C 
BRANCH 38 40
ATOM     40  CG1 ILE E1025     -48.360  30.236   1.052  1.00 41.58 LIG 0.00  C 
ATOM     41  CD1 ILE E1025     -48.741  31.602   0.256  1.00 52.05 LIG 0.01  C 
ENDBRANCH 38 40
ENDBRANCH 12 38
ENDBRANCH 10 12
ENDBRANCH 4 8
BRANCH 1 42
ATOM     42  CA  ILE E1023     -47.216  23.286  -1.518  1.00 36.06 LIG 0.18  C 
BRANCH 42 43
ATOM     43  N   ILE E1023     -46.920  23.216  -2.962  1.00 37.96 LIG-0.35  N 
ATOM     44  C   ARG E1022     -46.609  22.063  -3.592  1.00 45.42 LIG 0.24  C 
ATOM     45 O    ARG E1022     -46.471  20.991  -3.003  1.00 45.23 LIG-0.27  OA
ATOM     46 H    ILE E1023     -46.963  23.976  -3.362  1.00 37.96 LIG 0.16  HD
BRANCH 44 47
ATOM     47  CA  ARG E1022     -46.344  22.105  -5.097  1.00 45.59 LIG 0.18  C 
BRANCH 47 48
ATOM     48  N   ARG E1022     -45.459  21.024  -5.560  1.00 48.30 LIG-0.35  N 
ATOM     49 H    ARG E1022     -45.646  20.249  -5.238  1.00 48.30 LIG 0.16  HD
ATOM     50  C   ILE E1021     -44.444  21.257  -6.422  1.00 57.51 LIG 0.26  C 
ATOM     51 O    ILE E1021     -44.197  22.382  -6.875  1.00 59.03 LIG-0.27  OA
BRANCH 50 52
ATOM     52  CA  ILE E1021     -43.576  20.065  -6.859  1.00 57.59 LIG 0.40  C 
ATOM     53  N   ILE E1021     -43.360  20.148  -8.300  1.00 58.96 LIG 0.61  N 
BRANCH 52 54
ATOM     54  CB  ILE E1021     -42.175  20.062  -6.185  1.00 60.58 LIG 0.03  C 
ATOM     55  CG2 ILE E1021     -41.632  18.655  -5.954  1.00 61.37 LIG 0.01  C 
BRANCH 54 56
ATOM     56  CG1 ILE E1021     -41.173  20.910  -7.006  1.00 60.59 LIG 0.00  C 
ATOM     57  CD1 ILE E1021     -41.019  22.287  -6.478  1.00 60.15 LIG 0.01  C 
ENDBRANCH 54 56
ENDBRANCH 52 54
ENDBRANCH 50 52
ENDBRANCH 47 48
BRANCH 47 58
ATOM     58  CB  ARG E1022     -47.691  22.097  -5.831  1.00 44.33 LIG 0.04  C 
BRANCH 58 59
ATOM     59  CG  ARG E1022     -47.569  22.435  -7.311  1.00 47.73 LIG 0.02  C 
BRANCH 59 60
ATOM     60  CD  ARG E1022     -48.143  21.363  -8.215  1.00 47.87 LIG 0.14  C 
BRANCH 60 61
ATOM     61  NE  ARG E1022     -47.240  20.217  -8.295  1.00 55.98 LIG-0.23  N 
ATOM     62  CZ  ARG E1022     -47.519  18.969  -7.928  1.00 56.00 LIG 0.67  C 
ATOM     63  NH1 ARG E1022     -48.721  18.655  -7.457  1.00 48.69 LIG-0.23  N 
ATOM     64  NH2 ARG E1022     -46.608  18.016  -8.059  1.00 32.20 LIG-0.23  N 
ATOM     65 1HH1 ARG E1022     -49.327  19.261  -7.388  1.00 48.69 LIG 0.17  HD
ATOM     66 2HH1 ARG E1022     -48.893  17.846  -7.222  1.00 48.69 LIG 0.17  HD
ATOM     67 2HH2 ARG E1022     -46.791  17.210  -7.821  1.00 32.20 LIG 0.17  HD
ATOM     68 1HH2 ARG E1022     -45.833  18.203  -8.383  1.00 32.20 LIG 0.17  HD
ATOM     69 HE   ARG E1022     -46.453  20.363  -8.610  1.00 55.98 LIG 0.18  HD
ENDBRANCH 60 61
ENDBRANCH 59 60
ENDBRANCH 58 59
ENDBRANCH 47 58
ENDBRANCH 44 47
ENDBRANCH 42 43
BRANCH 42 70
ATOM     70  CB  ILE E1023     -46.019  23.833  -0.672  1.00 38.78 LIG 0.01  C 
ATOM     71  CG2 ILE E1023     -44.906  22.780  -0.563  1.00 39.01 LIG 0.01  C 
BRANCH 70 72
ATOM     72  CG1 ILE E1023     -45.463  25.193  -1.193  1.00 39.61 LIG 0.00  C 
ATOM     73  CD1 ILE E1023     -46.101  26.452  -0.662  1.00 43.21 LIG 0.01  C 
ENDBRANCH 70 72
ENDBRANCH 42 70
ENDBRANCH 1 42
TORSDOF 26
ENDMDL
MODEL 4
USER: ADFR SOLUTION from run 17
USER: SCORE 23.095420 LL:  -5.210 LR: -18.881 RR:   0.000 FEB: -11.126
USER: RMSD 13.216542
USER: SEED 16
USER: STATUS no improvement in best in 10 clusters for 5 generations
USER: GENES 28
USER: genes 0 Translation |==|  0.55167 0.57992 0.50481
USER: genes 1 Rotation |==|  0.80038 0.89167 0.48049 0.57738
USER: genes 2 Torsion [N]-CA--C-[O] |==|  0.12382
USER: genes 3 Torsion [C]-N--CA-[CB] |==|  0.55647
USER: genes 4 Torsion [N]-CA--C-[N] |==|  0.45032
USER: genes 5 Torsion [C]-N--CA-[C] |==|  0.86111
USER: genes 6 Torsion [N]-CA--CB-[CG] |==|  0.41158
USER: genes 7 Torsion [CA]-CB--CG-[CD1] |==|  0.22079
USER: genes 8 Torsion [N]-CA--C-[N] |==|  0.36255
USER: genes 9 Torsion [C]-N--CA-[C] |==|  0.56560
USER: genes 10 Torsion [N]-CA--CB-[CG] |==|  0.27194
USER: genes 11 Torsion [CA]-CB--CG-[OD1] |==|  0.78442
USER: genes 12 Torsion [N]-CA--C-[O] |==|  0.87593
USER: genes 13 Torsion [N]-CA--CB-[CG2] |==|  0.56134
USER: genes 14 Torsion [CA]-CB--CG1-[CD1] |==|  0.27313
USER: genes 15 Torsion [N]-C--CA-[N] |==|  0.33742
USER: genes 16 Torsion [C]-CA--N-[C] |==|  0.54933
USER: genes 17 Torsion [N]-C--CA-[N] |==|  0.89562
USER: genes 18 Torsion [C]-CA--N-[C] |==|  0.69921
USER: genes 19 Torsion [N]-C--CA-[N] |==|  0.35649
USER: genes 20 Torsion [C]-CA--CB-[CG1] |==|  0.11173
USER: genes 21 Torsion [CA]-CB--CG1-[CD1] |==|  0.53064
USER: genes 22 Torsion [C]-CA--CB-[CG] |==|  0.47774
USER: genes 23 Torsion [CA]-CB--CG-[CD] |==|  0.66845
USER: genes 24 Torsion [CB]-CG--CD-[NE] |==|  0.70227
USER: genes 25 Torsion [CG]-CD--NE-[CZ] |==|  0.36767
USER: genes 26 Torsion [C]-CA--CB-[CG1] |==|  0.75638
USER: genes 27 Torsion [CA]-CB--CG1-[CD1] |==|  0.62141
ROOT
ATOM      1  C   ILE E1023     -47.581  26.888   0.595  1.00 40.02 LIG 0.24  C 
ATOM      2 O    ILE E1023     -46.480  27.323   0.966  1.00 38.38 LIG-0.27  OA
ATOM      3  N   PRO E1024     -47.733  25.688  -0.020  1.00 37.38 LIG-0.34  N 
ATOM      4  CA  PRO E1024     -46.542  24.914  -0.395  1.00 36.67 LIG 0.18  C 
ATOM      5  CB  PRO E1024     -47.100  23.527  -0.701  1.00 38.74 LIG 0.04  C 
ATOM      6  CG  PRO E1024     -48.492  23.767  -1.148  1.00 43.33 LIG 0.02  C 
ATOM      7  CD  PRO E1024     -48.970  25.043  -0.516  1.00 39.42 LIG 0.13  C 
ENDROOT
BRANCH 4 8
ATOM      8  C   PRO E1024     -45.903  25.555  -1.621  1.00 39.60 LIG 0.24  C 
ATOM      9 O    PRO E1024     -45.775  26.778  -1.659  1.00 37.18 LIG-0.27  OA
ATOM     10  N   ILE E1025     -45.477  24.722  -2.593  1.00 37.20 LIG-0.35  N 
ATOM     11 H    ILE E1025     -45.575  23.870  -2.528  1.00 37.20 LIG 0.16  HD
BRANCH 10 12
ATOM     12  CA  ILE E1025     -44.815  25.107  -3.846  1.00 37.42 LIG 0.18  C 
BRANCH 12 13
ATOM     13  C   ILE E1025     -45.522  26.297  -4.489  1.00 40.88 LIG 0.24  C 
ATOM     14 O    ILE E1025     -46.728  26.453  -4.288  1.00 40.29 LIG-0.27  OA
ATOM     15  N   PHE E1026     -44.851  27.000  -5.423  1.00 36.23 LIG-0.35  N 
ATOM     16 H    PHE E1026     -44.008  26.922  -5.574  1.00 36.23 LIG 0.16  HD
BRANCH 15 17
ATOM     17  CA  PHE E1026     -45.540  27.980  -6.272  1.00 36.58 LIG 0.18  C 
BRANCH 17 18
ATOM     18  CB  PHE E1026     -44.621  28.526  -7.361  1.00 38.58 LIG 0.07  C 
BRANCH 18 19
ATOM     19  CG  PHE E1026     -45.364  28.872  -8.618  1.00 40.24 LIG-0.06  A 
ATOM     20  CD1 PHE E1026     -46.067  30.053  -8.717  1.00 42.20 LIG 0.01  A 
ATOM     21  CE1 PHE E1026     -46.761  30.366  -9.873  1.00 42.54 LIG 0.00  A 
ATOM     22  CZ  PHE E1026     -46.755  29.502 -10.935  1.00 41.81 LIG 0.00  A 
ATOM     23  CE2 PHE E1026     -46.069  28.319 -10.858  1.00 44.36 LIG 0.00  A 
ATOM     24  CD2 PHE E1026     -45.378  28.000  -9.699  1.00 42.30 LIG 0.01  A 
ENDBRANCH 18 19
ENDBRANCH 17 18
BRANCH 17 25
ATOM     25  C   PHE E1026     -46.784  27.375  -6.896  1.00 38.60 LIG 0.24  C 
ATOM     26  N   ASN E1027     -47.923  28.103  -6.779  1.00 38.80 LIG-0.35  N 
ATOM     27 H    ASN E1027     -47.949  28.852  -6.356  1.00 38.80 LIG 0.16  HD
ATOM     28 O    PHE E1026     -46.704  26.318  -7.517  1.00 31.59 LIG-0.27  OA
BRANCH 26 29
ATOM     29  CA  ASN E1027     -49.221  27.718  -7.344  1.00 74.37 LIG 0.17  C 
BRANCH 29 30
ATOM     30  CB  ASN E1027     -49.933  26.738  -6.417  1.00 75.17 LIG 0.14  C 
BRANCH 30 31
ATOM     31  CG  ASN E1027     -50.953  27.399  -5.524  1.00 99.64 LIG 0.22  C 
ATOM     32  ND2 ASN E1027     -52.235  27.285  -5.863  1.00 92.55 LIG-0.37  N 
ATOM     33 22HD ASN E1027     -52.456  26.840  -6.565  1.00 92.55 LIG 0.16  HD
ATOM     34 21HD ASN E1027     -52.842  27.655  -5.379  1.00 92.55 LIG 0.16  HD
ATOM     35 OD1  ASN E1027     -50.605  28.029  -4.524  1.00 94.01 LIG-0.27  OA
ENDBRANCH 30 31
ENDBRANCH 29 30
BRANCH 29 36
ATOM     36  C   ASN E1027     -50.097  28.953  -7.545  1.00103.37 LIG 0.22  C 
ATOM     37 O    ASN E1027     -50.175  29.808  -6.667  1.00 69.20 LIG-0.29  OA
ENDBRANCH 29 36
ENDBRANCH 26 29
ENDBRANCH 17 25
ENDBRANCH 15 17
ENDBRANCH 12 13
BRANCH 12 38
ATOM     38  CB  ILE E1025     -44.973  23.910  -4.884  1.00 40.50 LIG 0.01  C 
ATOM     39  CG2 ILE E1025     -43.900  23.962  -5.980  1.00 43.95 LIG 0.01  C 
BRANCH 38 40
ATOM     40  CG1 ILE E1025     -45.004  22.535  -4.218  1.00 41.58 LIG 0.00  C 
ATOM     41  CD1 ILE E1025     -46.514  21.967  -4.019  1.00 52.05 LIG 0.01  C 
ENDBRANCH 38 40
ENDBRANCH 12 38
ENDBRANCH 10 12
ENDBRANCH 4 8
BRANCH 1 42
ATOM     42  CA  ILE E1023     -48.825  27.691   0.934  1.00 36.06 LIG 0.18  C 
BRANCH 42 43
ATOM     43  N   ILE E1023     -48.808  27.902   2.394  1.00 37.96 LIG-0.35  N 
ATOM     44  C   ARG E1022     -49.904  28.263   3.095  1.00 45.42 LIG 0.24  C 
ATOM     45 O    ARG E1022     -50.986  28.520   2.568  1.00 45.23 LIG-0.27  OA
ATOM     46 H    ILE E1023     -48.038  27.775   2.754  1.00 37.96 LIG 0.16  HD
BRANCH 44 47
ATOM     47  CA  ARG E1022     -49.776  28.431   4.610  1.00 45.59 LIG 0.18  C 
BRANCH 47 48
ATOM     48  N   ARG E1022     -48.883  27.438   5.230  1.00 48.30 LIG-0.35  N 
ATOM     49 H    ARG E1022     -48.049  27.555   5.060  1.00 48.30 LIG 0.16  HD
ATOM     50  C   ILE E1021     -49.363  26.435   5.999  1.00 57.51 LIG 0.26  C 
ATOM     51 O    ILE E1021     -50.569  26.290   6.233  1.00 59.03 LIG-0.27  OA
BRANCH 50 52
ATOM     52  CA  ILE E1021     -48.356  25.449   6.614  1.00 57.59 LIG 0.40  C 
ATOM     53  N   ILE E1021     -48.611  25.354   8.048  1.00 58.96 LIG 0.61  N 
BRANCH 52 54
ATOM     54  CB  ILE E1021     -48.487  24.014   6.029  1.00 60.58 LIG 0.03  C 
ATOM     55  CG2 ILE E1021     -49.563  23.187   6.725  1.00 61.37 LIG 0.01  C 
BRANCH 54 56
ATOM     56  CG1 ILE E1021     -48.737  24.069   4.502  1.00 60.59 LIG 0.00  C 
ATOM     57  CD1 ILE E1021     -49.127  22.754   3.937  1.00 60.15 LIG 0.01  C 
ENDBRANCH 54 56
ENDBRANCH 52 54
ENDBRANCH 50 52
ENDBRANCH 47 48
BRANCH 47 58
ATOM     58  CB  ARG E1022     -49.327  29.868   4.906  1.00 44.33 LIG 0.04  C 
BRANCH 58 59
ATOM     59  CG  ARG E1022     -49.352  30.210   6.390  1.00 47.73 LIG 0.02  C 
BRANCH 59 60
ATOM     60  CD  ARG E1022     -50.288  31.354   6.721  1.00 47.87 LIG 0.14  C 
BRANCH 60 61
ATOM     61  NE  ARG E1022     -49.531  32.563   7.045  1.00 55.98 LIG-0.23  N 
ATOM     62  CZ  ARG E1022     -49.754  33.783   6.563  1.00 56.00 LIG 0.67  C 
ATOM     63  NH1 ARG E1022     -50.759  34.004   5.722  1.00 48.69 LIG-0.23  N 
ATOM     64  NH2 ARG E1022     -48.995  34.799   6.945  1.00 32.20 LIG-0.23  N 
ATOM     65 1HH1 ARG E1022     -51.271  33.356   5.485  1.00 48.69 LIG 0.17  HD
ATOM     66 2HH1 ARG E1022     -50.896  34.796   5.416  1.00 48.69 LIG 0.17  HD
ATOM     67 2HH2 ARG E1022     -49.142  35.586   6.632  1.00 32.20 LIG 0.17  HD
ATOM     68 1HH2 ARG E1022     -48.356  34.671   7.506  1.00 32.20 LIG 0.17  HD
ATOM     69 HE   ARG E1022     -48.880  32.477   7.600  1.00 55.98 LIG 0.18  HD
ENDBRANCH 60 61
ENDBRANCH 59 60
ENDBRANCH 58 59
ENDBRANCH 47 58
ENDBRANCH 44 47
ENDBRANCH 42 43
BRANCH 42 70
ATOM     70  CB  ILE E1023     -48.819  29.027   0.120  1.00 38.78 LIG 0.01  C 
ATOM     71  CG2 ILE E1023     -50.250  29.442  -0.252  1.00 39.01 LIG 0.01  C 
BRANCH 70 72
ATOM     72  CG1 ILE E1023     -48.062  30.184   0.837  1.00 39.61 LIG 0.00  C 
ATOM     73  CD1 ILE E1023     -48.710  31.546   0.831  1.00 43.21 LIG 0.01  C 
ENDBRANCH 70 72
ENDBRANCH 42 70
ENDBRANCH 1 42
TORSDOF 26
ENDMDL
MODEL 5
USER: ADFR SOLUTION from run 76
USER: SCORE 23.720205 LL:  -6.203 LR: -18.745 RR:   0.000 FEB: -10.989
USER: RMSD 2.774926
USER: SEED 75
USER: STATUS no improvement in best in 9 clusters for 5 generations
USER: GENES 28
USER: genes 0 Translation |==|  0.51698 0.45788 0.41221
USER: genes 1 Rotation |==|  0.45416 0.44986 0.51804 0.99503
USER: genes 2 Torsion [N]-CA--C-[O] |==|  0.86368
USER: genes 3 Torsion [C]-N--CA-[CB] |==|  0.52876
USER: genes 4 Torsion [N]-CA--C-[N] |==|  0.37084
USER: genes 5 Torsion [C]-N--CA-[C] |==|  0.64735
USER: genes 6 Torsion [N]-CA--CB-[CG] |==|  0.85456
USER: genes 7 Torsion [CA]-CB--CG-[CD1] |==|  0.35012
USER: genes 8 Torsion [N]-CA--C-[N] |==|  0.24711
USER: genes 9 Torsion [C]-N--CA-[C] |==|  0.69405
USER: genes 10 Torsion [N]-CA--CB-[CG] |==|  0.40212
USER: genes 11 Torsion [CA]-CB--CG-[OD1] |==|  0.73520
USER: genes 12 Torsion [N]-CA--C-[O] |==|  0.01766
USER: genes 13 Torsion [N]-CA--CB-[CG2] |==|  0.38516
USER: genes 14 Torsion [CA]-CB--CG1-[CD1] |==|  0.67980
USER: genes 15 Torsion [N]-C--CA-[N] |==|  0.33491
USER: genes 16 Torsion [C]-CA--N-[C] |==|  0.63692
USER: genes 17 Torsion [N]-C--CA-[N] |==|  0.04424
USER: genes 18 Torsion [C]-CA--N-[C] |==|  0.70160
USER: genes 19 Torsion [N]-C--CA-[N] |==|  0.49698
USER: genes 20 Torsion [C]-CA--CB-[CG1] |==|  0.22128
USER: genes 21 Torsion [CA]-CB--CG1-[CD1] |==|  0.63064
USER: genes 22 Torsion [C]-CA--CB-[CG] |==|  0.28123
USER: genes 23 Torsion [CA]-CB--CG-[CD] |==|  0.41382
USER: genes 24 Torsion [CB]-CG--CD-[NE] |==|  0.41552
USER: genes 25 Torsion [CG]-CD--NE-[CZ] |==|  0.65527
USER: genes 26 Torsion [C]-CA--CB-[CG1] |==|  0.39489
USER: genes 27 Torsion [CA]-CB--CG1-[CD1] |==|  0.11824
ROOT
ATOM      1  C   ILE E1023     -48.101  24.051  -2.044  1.00 40.02 LIG 0.24  C 
ATOM      2 O    ILE E1023     -48.074  25.203  -2.500  1.00 38.38 LIG-0.27  OA
ATOM      3  N   PRO E1024     -49.128  23.576  -1.294  1.00 37.38 LIG-0.34  N 
ATOM      4  CA  PRO E1024     -50.200  24.492  -0.877  1.00 36.67 LIG 0.18  C 
ATOM      5  CB  PRO E1024     -51.304  23.554  -0.399  1.00 38.74 LIG 0.04  C 
ATOM      6  CG  PRO E1024     -50.596  22.339   0.068  1.00 43.33 LIG 0.02  C 
ATOM      7  CD  PRO E1024     -49.300  22.237  -0.685  1.00 39.42 LIG 0.13  C 
ENDROOT
BRANCH 4 8
ATOM      8  C   PRO E1024     -49.680  25.381   0.246  1.00 39.60 LIG 0.24  C 
ATOM      9 O    PRO E1024     -49.104  24.863   1.201  1.00 37.18 LIG-0.27  OA
ATOM     10  N   ILE E1025     -49.857  26.710   0.102  1.00 37.20 LIG-0.35  N 
ATOM     11 H    ILE E1025     -50.257  27.038  -0.585  1.00 37.20 LIG 0.16  HD
BRANCH 10 12
ATOM     12  CA  ILE E1025     -49.422  27.756   1.038  1.00 37.42 LIG 0.18  C 
BRANCH 12 13
ATOM     13  C   ILE E1025     -49.961  27.486   2.441  1.00 40.88 LIG 0.24  C 
ATOM     14 O    ILE E1025     -51.179  27.380   2.600  1.00 40.29 LIG-0.27  OA
ATOM     15  N   PHE E1026     -49.106  27.595   3.477  1.00 36.23 LIG-0.35  N 
ATOM     16 H    PHE E1026     -48.252  27.656   3.395  1.00 36.23 LIG 0.16  HD
BRANCH 15 17
ATOM     17  CA  PHE E1026     -49.594  27.615   4.862  1.00 36.58 LIG 0.18  C 
BRANCH 17 18
ATOM     18  CB  PHE E1026     -49.225  26.336   5.608  1.00 38.58 LIG 0.07  C 
BRANCH 18 19
ATOM     19  CG  PHE E1026     -49.644  25.100   4.868  1.00 40.24 LIG-0.06  A 
ATOM     20  CD1 PHE E1026     -48.731  24.107   4.583  1.00 42.20 LIG 0.01  A 
ATOM     21  CE1 PHE E1026     -49.116  22.972   3.891  1.00 42.54 LIG 0.00  A 
ATOM     22  CZ  PHE E1026     -50.416  22.823   3.482  1.00 41.81 LIG 0.00  A 
ATOM     23  CE2 PHE E1026     -51.338  23.799   3.747  1.00 44.36 LIG 0.00  A 
ATOM     24  CD2 PHE E1026     -50.954  24.940   4.435  1.00 42.30 LIG 0.01  A 
ENDBRANCH 18 19
ENDBRANCH 17 18
BRANCH 17 25
ATOM     25  C   PHE E1026     -49.058  28.824   5.606  1.00 38.60 LIG 0.24  C 
ATOM     26  N   ASN E1027     -49.808  29.952   5.528  1.00 38.80 LIG-0.35  N 
ATOM     27 H    ASN E1027     -50.532  29.992   5.066  1.00 38.80 LIG 0.16  HD
ATOM     28 O    PHE E1026     -48.034  28.723   6.279  1.00 31.59 LIG-0.27  OA
BRANCH 26 29
ATOM     29  CA  ASN E1027     -49.489  31.215   6.204  1.00 74.37 LIG 0.17  C 
BRANCH 29 30
ATOM     30  CB  ASN E1027     -49.528  32.372   5.212  1.00 75.17 LIG 0.14  C 
BRANCH 30 31
ATOM     31  CG  ASN E1027     -50.046  33.654   5.815  1.00 99.64 LIG 0.22  C 
ATOM     32  ND2 ASN E1027     -49.180  34.421   6.471  1.00 92.55 LIG-0.37  N 
ATOM     33 22HD ASN E1027     -48.356  34.182   6.534  1.00 92.55 LIG 0.16  HD
ATOM     34 21HD ASN E1027     -49.443  35.156   6.833  1.00 92.55 LIG 0.16  HD
ATOM     35 OD1  ASN E1027     -51.233  33.970   5.708  1.00 94.01 LIG-0.27  OA
ENDBRANCH 30 31
ENDBRANCH 29 30
BRANCH 29 36
ATOM     36  C   ASN E1027     -50.488  31.477   7.330  1.00103.37 LIG 0.22  C 
ATOM     37 O    ASN E1027     -51.322  30.627   7.630  1.00 69.20 LIG-0.29  OA
ENDBRANCH 29 36
ENDBRANCH 26 29
ENDBRANCH 17 25
ENDBRANCH 15 17
ENDBRANCH 12 13
BRANCH 12 38
ATOM     38  CB  ILE E1025     -50.079  29.134   0.590  1.00 40.50 LIG 0.01  C 
ATOM     39  CG2 ILE E1025     -50.580  29.945   1.794  1.00 43.95 LIG 0.01  C 
BRANCH 38 40
ATOM     40  CG1 ILE E1025     -49.162  29.981  -0.292  1.00 41.58 LIG 0.00  C 
ATOM     41  CD1 ILE E1025     -48.731  31.381   0.412  1.00 52.05 LIG 0.01  C 
ENDBRANCH 38 40
ENDBRANCH 12 38
ENDBRANCH 10 12
ENDBRANCH 4 8
BRANCH 1 42
ATOM     42  CA  ILE E1023     -46.983  23.096  -2.425  1.00 36.06 LIG 0.18  C 
BRANCH 42 43
ATOM     43  N   ILE E1023     -46.941  23.060  -3.900  1.00 37.96 LIG-0.35  N 
ATOM     44  C   ARG E1022     -46.916  21.909  -4.605  1.00 45.42 LIG 0.24  C 
ATOM     45 O    ARG E1022     -46.848  20.799  -4.078  1.00 45.23 LIG-0.27  OA
ATOM     46 H    ILE E1023     -46.934  23.838  -4.266  1.00 37.96 LIG 0.16  HD
BRANCH 44 47
ATOM     47  CA  ARG E1022     -46.898  21.991  -6.132  1.00 45.59 LIG 0.18  C 
BRANCH 47 48
ATOM     48  N   ARG E1022     -46.538  23.327  -6.636  1.00 48.30 LIG-0.35  N 
ATOM     49 H    ARG E1022     -45.709  23.532  -6.539  1.00 48.30 LIG 0.16  HD
ATOM     50  C   ILE E1021     -47.456  24.143  -7.200  1.00 57.51 LIG 0.26  C 
ATOM     51 O    ILE E1021     -48.645  23.824  -7.331  1.00 59.03 LIG-0.27  OA
BRANCH 50 52
ATOM     52  CA  ILE E1021     -46.989  25.518  -7.707  1.00 57.59 LIG 0.40  C 
ATOM     53  N   ILE E1021     -48.131  26.212  -8.295  1.00 58.96 LIG 0.61  N 
BRANCH 52 54
ATOM     54  CB  ILE E1021     -46.439  26.424  -6.570  1.00 60.58 LIG 0.03  C 
ATOM     55  CG2 ILE E1021     -47.323  26.414  -5.325  1.00 61.37 LIG 0.01  C 
BRANCH 54 56
ATOM     56  CG1 ILE E1021     -44.985  26.028  -6.214  1.00 60.59 LIG 0.00  C 
ATOM     57  CD1 ILE E1021     -44.765  25.904  -4.753  1.00 60.15 LIG 0.01  C 
ENDBRANCH 54 56
ENDBRANCH 52 54
ENDBRANCH 50 52
ENDBRANCH 47 48
BRANCH 47 58
ATOM     58  CB  ARG E1022     -45.957  20.905  -6.668  1.00 44.33 LIG 0.04  C 
BRANCH 58 59
ATOM     59  CG  ARG E1022     -46.695  19.680  -7.194  1.00 47.73 LIG 0.02  C 
BRANCH 59 60
ATOM     60  CD  ARG E1022     -45.969  18.990  -8.330  1.00 47.87 LIG 0.14  C 
BRANCH 60 61
ATOM     61  NE  ARG E1022     -46.248  17.555  -8.326  1.00 55.98 LIG-0.23  N 
ATOM     62  CZ  ARG E1022     -45.346  16.579  -8.277  1.00 56.00 LIG 0.67  C 
ATOM     63  NH1 ARG E1022     -44.049  16.859  -8.198  1.00 48.69 LIG-0.23  N 
ATOM     64  NH2 ARG E1022     -45.733  15.312  -8.273  1.00 32.20 LIG-0.23  N 
ATOM     65 1HH1 ARG E1022     -43.787  17.678  -8.178  1.00 48.69 LIG 0.17  HD
ATOM     66 2HH1 ARG E1022     -43.473  16.222  -8.167  1.00 48.69 LIG 0.17  HD
ATOM     67 2HH2 ARG E1022     -45.148  14.684  -8.242  1.00 32.20 LIG 0.17  HD
ATOM     68 1HH2 ARG E1022     -46.571  15.119  -8.302  1.00 32.20 LIG 0.17  HD
ATOM     69 HE   ARG E1022     -47.075  17.320  -8.358  1.00 55.98 LIG 0.18  HD
ENDBRANCH 60 61
ENDBRANCH 59 60
ENDBRANCH 58 59
ENDBRANCH 47 58
ENDBRANCH 44 47
ENDBRANCH 42 43
BRANCH 42 70
ATOM     70  CB  ILE E1023     -45.642  23.586  -1.785  1.00 38.78 LIG 0.01  C 
ATOM     71  CG2 ILE E1023     -45.914  24.605  -0.669  1.00 39.01 LIG 0.01  C 
BRANCH 70 72
ATOM     72  CG1 ILE E1023     -44.737  22.422  -1.280  1.00 39.61 LIG 0.00  C 
ATOM     73  CD1 ILE E1023     -44.606  21.209  -2.168  1.00 43.21 LIG 0.01  C 
ENDBRANCH 70 72
ENDBRANCH 42 70
ENDBRANCH 1 42
TORSDOF 26
ENDMDL
MODEL 6
USER: ADFR SOLUTION from run 136
USER: SCORE 23.553884 LL:  -6.462 LR: -18.581 RR:   0.000 FEB: -10.825
USER: RMSD 12.245425
USER: SEED 135
USER: STATUS no improvement in best in 5 clusters for 5 generations
USER: GENES 28
USER: genes 0 Translation |==|  0.50029 0.57078 0.52504
USER: genes 1 Rotation |==|  0.81239 0.85809 0.35328 0.55155
USER: genes 2 Torsion [N]-CA--C-[O] |==|  0.70652
USER: genes 3 Torsion [C]-N--CA-[CB] |==|  0.77111
USER: genes 4 Torsion [N]-CA--C-[N] |==|  0.12862
USER: genes 5 Torsion [C]-N--CA-[C] |==|  0.77146
USER: genes 6 Torsion [N]-CA--CB-[CG] |==|  0.81383
USER: genes 7 Torsion [CA]-CB--CG-[CD1] |==|  0.43827
USER: genes 8 Torsion [N]-CA--C-[N] |==|  0.28925
USER: genes 9 Torsion [C]-N--CA-[C] |==|  0.06679
USER: genes 10 Torsion [N]-CA--CB-[CG] |==|  0.10929
USER: genes 11 Torsion [CA]-CB--CG-[OD1] |==|  0.70187
USER: genes 12 Torsion [N]-CA--C-[O] |==|  0.70404
USER: genes 13 Torsion [N]-CA--CB-[CG2] |==|  0.66758
USER: genes 14 Torsion [CA]-CB--CG1-[CD1] |==|  0.29591
USER: genes 15 Torsion [N]-C--CA-[N] |==|  0.27222
USER: genes 16 Torsion [C]-CA--N-[C] |==|  0.62549
USER: genes 17 Torsion [N]-C--CA-[N] |==|  0.86477
USER: genes 18 Torsion [C]-CA--N-[C] |==|  0.67268
USER: genes 19 Torsion [N]-C--CA-[N] |==|  0.39331
USER: genes 20 Torsion [C]-CA--CB-[CG1] |==|  0.13858
USER: genes 21 Torsion [CA]-CB--CG1-[CD1] |==|  0.68873
USER: genes 22 Torsion [C]-CA--CB-[CG] |==|  0.50464
USER: genes 23 Torsion [CA]-CB--CG-[CD] |==|  0.58638
USER: genes 24 Torsion [CB]-CG--CD-[NE] |==|  0.06776
USER: genes 25 Torsion [CG]-CD--NE-[CZ] |==|  0.59615
USER: genes 26 Torsion [C]-CA--CB-[CG1] |==|  0.57909
USER: genes 27 Torsion [CA]-CB--CG1-[CD1] |==|  0.52040
ROOT
ATOM      1  C   ILE E1023     -48.352  26.676   1.172  1.00 40.02 LIG 0.24  C 
ATOM      2 O    ILE E1023     -47.146  26.903   0.992  1.00 38.38 LIG-0.27  OA
ATOM      3  N   PRO E1024     -48.887  25.430   1.111  1.00 37.38 LIG-0.34  N 
ATOM      4  CA  PRO E1024     -48.045  24.304   0.681  1.00 36.67 LIG 0.18  C 
ATOM      5  CB  PRO E1024     -48.857  23.077   1.087  1.00 38.74 LIG 0.04  C 
ATOM      6  CG  PRO E1024     -50.269  23.526   1.051  1.00 43.33 LIG 0.02  C 
ATOM      7  CD  PRO E1024     -50.294  25.007   1.299  1.00 39.42 LIG 0.13  C 
ENDROOT
BRANCH 4 8
ATOM      8  C   PRO E1024     -47.848  24.383  -0.828  1.00 39.60 LIG 0.24  C 
ATOM      9 O    PRO E1024     -48.455  23.596  -1.553  1.00 37.18 LIG-0.27  OA
ATOM     10  N   ILE E1025     -47.032  25.355  -1.286  1.00 37.20 LIG-0.35  N 
ATOM     11 H    ILE E1025     -46.631  25.894  -0.749  1.00 37.20 LIG 0.16  HD
BRANCH 10 12
ATOM     12  CA  ILE E1025     -46.711  25.637  -2.692  1.00 37.42 LIG 0.18  C 
BRANCH 12 13
ATOM     13  C   ILE E1025     -47.903  25.320  -3.592  1.00 40.88 LIG 0.24  C 
ATOM     14 O    ILE E1025     -47.695  24.858  -4.715  1.00 40.29 LIG-0.27  OA
ATOM     15  N   PHE E1026     -49.117  25.763  -3.209  1.00 36.23 LIG-0.35  N 
ATOM     16 H    PHE E1026     -49.294  26.076  -2.428  1.00 36.23 LIG 0.16  HD
BRANCH 15 17
ATOM     17  CA  PHE E1026     -50.259  25.736  -4.133  1.00 36.58 LIG 0.18  C 
BRANCH 17 18
ATOM     18  CB  PHE E1026     -51.587  25.672  -3.386  1.00 38.58 LIG 0.07  C 
BRANCH 18 19
ATOM     19  CG  PHE E1026     -51.773  24.375  -2.656  1.00 40.24 LIG-0.06  A 
ATOM     20  CD1 PHE E1026     -52.642  24.285  -1.590  1.00 42.20 LIG 0.01  A 
ATOM     21  CE1 PHE E1026     -52.803  23.090  -0.911  1.00 42.54 LIG 0.00  A 
ATOM     22  CZ  PHE E1026     -52.099  21.979  -1.294  1.00 41.81 LIG 0.00  A 
ATOM     23  CE2 PHE E1026     -51.224  22.046  -2.345  1.00 44.36 LIG 0.00  A 
ATOM     24  CD2 PHE E1026     -51.056  23.243  -3.024  1.00 42.30 LIG 0.01  A 
ENDBRANCH 18 19
ENDBRANCH 17 18
BRANCH 17 25
ATOM     25  C   PHE E1026     -50.237  26.943  -5.054  1.00 38.60 LIG 0.24  C 
ATOM     26  N   ASN E1027     -49.831  26.713  -6.328  1.00 38.80 LIG-0.35  N 
ATOM     27 H    ASN E1027     -49.576  25.936  -6.596  1.00 38.80 LIG 0.16  HD
ATOM     28 O    PHE E1026     -50.634  28.031  -4.644  1.00 31.59 LIG-0.27  OA
BRANCH 26 29
ATOM     29  CA  ASN E1027     -49.776  27.731  -7.383  1.00 74.37 LIG 0.17  C 
BRANCH 29 30
ATOM     30  CB  ASN E1027     -51.033  27.672  -8.244  1.00 75.17 LIG 0.14  C 
BRANCH 30 31
ATOM     31  CG  ASN E1027     -52.288  27.415  -7.447  1.00 99.64 LIG 0.22  C 
ATOM     32  ND2 ASN E1027     -52.748  28.405  -6.686  1.00 92.55 LIG-0.37  N 
ATOM     33 22HD ASN E1027     -52.335  29.159  -6.667  1.00 92.55 LIG 0.16  HD
ATOM     34 21HD ASN E1027     -53.457  28.291  -6.214  1.00 92.55 LIG 0.16  HD
ATOM     35 OD1  ASN E1027     -52.856  26.323  -7.496  1.00 94.01 LIG-0.27  OA
ENDBRANCH 30 31
ENDBRANCH 29 30
BRANCH 29 36
ATOM     36  C   ASN E1027     -49.649  29.123  -6.766  1.00103.37 LIG 0.22  C 
ATOM     37 O    ASN E1027     -50.606  29.892  -6.766  1.00 69.20 LIG-0.29  OA
ENDBRANCH 29 36
ENDBRANCH 26 29
ENDBRANCH 17 25
ENDBRANCH 15 17
ENDBRANCH 12 13
BRANCH 12 38
ATOM     38  CB  ILE E1025     -45.558  24.641  -3.151  1.00 40.50 LIG 0.01  C 
ATOM     39  CG2 ILE E1025     -44.299  25.396  -3.600  1.00 43.95 LIG 0.01  C 
BRANCH 38 40
ATOM     40  CG1 ILE E1025     -45.214  23.589  -2.097  1.00 41.58 LIG 0.00  C 
ATOM     41  CD1 ILE E1025     -45.763  22.109  -2.484  1.00 52.05 LIG 0.01  C 
ENDBRANCH 38 40
ENDBRANCH 12 38
ENDBRANCH 10 12
ENDBRANCH 4 8
BRANCH 1 42
ATOM     42  CA  ILE E1023     -49.251  27.831   1.576  1.00 36.06 LIG 0.18  C 
BRANCH 42 43
ATOM     43  N   ILE E1023     -49.017  28.068   3.013  1.00 37.96 LIG-0.35  N 
ATOM     44  C   ARG E1022     -50.018  28.262   3.897  1.00 45.42 LIG 0.24  C 
ATOM     45 O    ARG E1022     -51.202  28.334   3.568  1.00 45.23 LIG-0.27  OA
ATOM     46 H    ILE E1023     -48.186  28.071   3.233  1.00 37.96 LIG 0.16  HD
BRANCH 44 47
ATOM     47  CA  ARG E1022     -49.658  28.475   5.368  1.00 45.59 LIG 0.18  C 
BRANCH 47 48
ATOM     48  N   ARG E1022     -48.709  27.475   5.884  1.00 48.30 LIG-0.35  N 
ATOM     49 H    ARG E1022     -47.943  27.477   5.493  1.00 48.30 LIG 0.16  HD
ATOM     50  C   ILE E1021     -49.039  26.635   6.890  1.00 57.51 LIG 0.26  C 
ATOM     51 O    ILE E1021     -50.148  26.653   7.440  1.00 59.03 LIG-0.27  OA
BRANCH 50 52
ATOM     52  CA  ILE E1021     -47.981  25.628   7.371  1.00 57.59 LIG 0.40  C 
ATOM     53  N   ILE E1021     -48.072  25.511   8.823  1.00 58.96 LIG 0.61  N 
BRANCH 52 54
ATOM     54  CB  ILE E1021     -48.194  24.205   6.782  1.00 60.58 LIG 0.03  C 
ATOM     55  CG2 ILE E1021     -49.357  23.463   7.434  1.00 61.37 LIG 0.01  C 
BRANCH 54 56
ATOM     56  CG1 ILE E1021     -48.377  24.273   5.246  1.00 60.59 LIG 0.00  C 
ATOM     57  CD1 ILE E1021     -49.749  23.910   4.815  1.00 60.15 LIG 0.01  C 
ENDBRANCH 54 56
ENDBRANCH 52 54
ENDBRANCH 50 52
ENDBRANCH 47 48
BRANCH 47 58
ATOM     58  CB  ARG E1022     -49.133  29.905   5.541  1.00 44.33 LIG 0.04  C 
BRANCH 58 59
ATOM     59  CG  ARG E1022     -48.703  30.218   6.969  1.00 47.73 LIG 0.02  C 
BRANCH 59 60
ATOM     60  CD  ARG E1022     -48.901  31.672   7.344  1.00 47.87 LIG 0.14  C 
BRANCH 60 61
ATOM     61  NE  ARG E1022     -49.941  32.282   6.517  1.00 55.98 LIG-0.23  N 
ATOM     62  CZ  ARG E1022     -49.965  33.540   6.085  1.00 56.00 LIG 0.67  C 
ATOM     63  NH1 ARG E1022     -48.971  34.374   6.373  1.00 48.69 LIG-0.23  N 
ATOM     64  NH2 ARG E1022     -50.968  33.968   5.333  1.00 32.20 LIG-0.23  N 
ATOM     65 1HH1 ARG E1022     -48.304  34.101   6.842  1.00 48.69 LIG 0.17  HD
ATOM     66 2HH1 ARG E1022     -48.995  35.185   6.090  1.00 48.69 LIG 0.17  HD
ATOM     67 2HH2 ARG E1022     -50.981  34.782   5.056  1.00 32.20 LIG 0.17  HD
ATOM     68 1HH2 ARG E1022     -51.607  33.432   5.122  1.00 32.20 LIG 0.17  HD
ATOM     69 HE   ARG E1022     -50.600  31.780   6.287  1.00 55.98 LIG 0.18  HD
ENDBRANCH 60 61
ENDBRANCH 59 60
ENDBRANCH 58 59
ENDBRANCH 47 58
ENDBRANCH 44 47
ENDBRANCH 42 43
BRANCH 42 70
ATOM     70  CB  ILE E1023     -48.928  29.077   0.687  1.00 38.78 LIG 0.01  C 
ATOM     71  CG2 ILE E1023     -49.658  28.986  -0.661  1.00 39.01 LIG 0.01  C 
BRANCH 70 72
ATOM     72  CG1 ILE E1023     -49.215  30.434   1.396  1.00 39.61 LIG 0.00  C 
ATOM     73  CD1 ILE E1023     -49.098  31.689   0.568  1.00 43.21 LIG 0.01  C 
ENDBRANCH 70 72
ENDBRANCH 42 70
ENDBRANCH 1 42
TORSDOF 26
ENDMDL
MODEL 7
USER: ADFR SOLUTION from run 23
USER: SCORE 23.690336 LL:  -6.795 LR: -18.526 RR:   0.000 FEB: -10.770
USER: RMSD 12.297904
USER: SEED 22
USER: STATUS no improvement in best in 6 clusters for 5 generations
USER: GENES 28
USER: genes 0 Translation |==|  0.44294 0.53577 0.52739
USER: genes 1 Rotation |==|  0.87305 0.80132 0.36952 0.55492
USER: genes 2 Torsion [N]-CA--C-[O] |==|  0.39105
USER: genes 3 Torsion [C]-N--CA-[CB] |==|  0.50556
USER: genes 4 Torsion [N]-CA--C-[N] |==|  0.47003
USER: genes 5 Torsion [C]-N--CA-[C] |==|  0.60374
USER: genes 6 Torsion [N]-CA--CB-[CG] |==|  0.87584
USER: genes 7 Torsion [CA]-CB--CG-[CD1] |==|  0.29174
USER: genes 8 Torsion [N]-CA--C-[N] |==|  0.19791
USER: genes 9 Torsion [C]-N--CA-[C] |==|  0.74564
USER: genes 10 Torsion [N]-CA--CB-[CG] |==|  0.29538
USER: genes 11 Torsion [CA]-CB--CG-[OD1] |==|  0.76939
USER: genes 12 Torsion [N]-CA--C-[O] |==|  0.02662
USER: genes 13 Torsion [N]-CA--CB-[CG2] |==|  0.90718
USER: genes 14 Torsion [CA]-CB--CG1-[CD1] |==|  0.40868
USER: genes 15 Torsion [N]-C--CA-[N] |==|  0.31247
USER: genes 16 Torsion [C]-CA--N-[C] |==|  0.64574
USER: genes 17 Torsion [N]-C--CA-[N] |==|  0.87787
USER: genes 18 Torsion [C]-CA--N-[C] |==|  0.68738
USER: genes 19 Torsion [N]-C--CA-[N] |==|  0.38532
USER: genes 20 Torsion [C]-CA--CB-[CG1] |==|  0.04524
USER: genes 21 Torsion [CA]-CB--CG1-[CD1] |==|  0.27652
USER: genes 22 Torsion [C]-CA--CB-[CG] |==|  0.14490
USER: genes 23 Torsion [CA]-CB--CG-[CD] |==|  0.28561
USER: genes 24 Torsion [CB]-CG--CD-[NE] |==|  0.21991
USER: genes 25 Torsion [CG]-CD--NE-[CZ] |==|  0.35658
USER: genes 26 Torsion [C]-CA--CB-[CG1] |==|  0.45991
USER: genes 27 Torsion [CA]-CB--CG1-[CD1] |==|  0.35474
ROOT
ATOM      1  C   ILE E1023     -49.212  25.862   1.239  1.00 40.02 LIG 0.24  C 
ATOM      2 O    ILE E1023     -47.981  25.711   1.238  1.00 38.38 LIG-0.27  OA
ATOM      3  N   PRO E1024     -50.082  24.833   1.079  1.00 37.38 LIG-0.34  N 
ATOM      4  CA  PRO E1024     -49.567  23.496   0.753  1.00 36.67 LIG 0.18  C 
ATOM      5  CB  PRO E1024     -50.759  22.580   1.016  1.00 38.74 LIG 0.04  C 
ATOM      6  CG  PRO E1024     -51.950  23.431   0.786  1.00 43.33 LIG 0.02  C 
ATOM      7  CD  PRO E1024     -51.563  24.857   1.055  1.00 39.42 LIG 0.13  C 
ENDROOT
BRANCH 4 8
ATOM      8  C   PRO E1024     -49.142  23.474  -0.710  1.00 39.60 LIG 0.24  C 
ATOM      9 O    PRO E1024     -48.121  22.866  -1.027  1.00 37.18 LIG-0.27  OA
ATOM     10  N   ILE E1025     -49.948  24.104  -1.589  1.00 37.20 LIG-0.35  N 
ATOM     11 H    ILE E1025     -50.661  24.512  -1.331  1.00 37.20 LIG 0.16  HD
BRANCH 10 12
ATOM     12  CA  ILE E1025     -49.756  24.194  -3.043  1.00 37.42 LIG 0.18  C 
BRANCH 12 13
ATOM     13  C   ILE E1025     -48.470  24.948  -3.373  1.00 40.88 LIG 0.24  C 
ATOM     14 O    ILE E1025     -47.989  25.704  -2.528  1.00 40.29 LIG-0.27  OA
ATOM     15  N   PHE E1026     -48.036  24.924  -4.649  1.00 36.23 LIG-0.35  N 
ATOM     16 H    PHE E1026     -48.343  24.398  -5.255  1.00 36.23 LIG 0.16  HD
BRANCH 15 17
ATOM     17  CA  PHE E1026     -46.971  25.829  -5.103  1.00 36.58 LIG 0.18  C 
BRANCH 17 18
ATOM     18  CB  PHE E1026     -45.599  25.166  -5.026  1.00 38.58 LIG 0.07  C 
BRANCH 18 19
ATOM     19  CG  PHE E1026     -45.392  24.425  -3.738  1.00 40.24 LIG-0.06  A 
ATOM     20  CD1 PHE E1026     -45.444  23.048  -3.703  1.00 42.20 LIG 0.01  A 
ATOM     21  CE1 PHE E1026     -45.264  22.365  -2.512  1.00 42.54 LIG 0.00  A 
ATOM     22  CZ  PHE E1026     -45.030  23.055  -1.352  1.00 41.81 LIG 0.00  A 
ATOM     23  CE2 PHE E1026     -44.981  24.424  -1.361  1.00 44.36 LIG 0.00  A 
ATOM     24  CD2 PHE E1026     -45.167  25.110  -2.551  1.00 42.30 LIG 0.01  A 
ENDBRANCH 18 19
ENDBRANCH 17 18
BRANCH 17 25
ATOM     25  C   PHE E1026     -47.238  26.310  -6.517  1.00 38.60 LIG 0.24  C 
ATOM     26  N   ASN E1027     -48.260  27.190  -6.664  1.00 38.80 LIG-0.35  N 
ATOM     27 H    ASN E1027     -48.748  27.444  -6.002  1.00 38.80 LIG 0.16  HD
ATOM     28 O    PHE E1026     -46.504  25.948  -7.434  1.00 31.59 LIG-0.27  OA
BRANCH 26 29
ATOM     29  CA  ASN E1027     -48.656  27.805  -7.936  1.00 74.37 LIG 0.17  C 
BRANCH 29 30
ATOM     30  CB  ASN E1027     -50.162  28.045  -7.964  1.00 75.17 LIG 0.14  C 
BRANCH 30 31
ATOM     31  CG  ASN E1027     -50.534  29.498  -7.806  1.00 99.64 LIG 0.22  C 
ATOM     32  ND2 ASN E1027     -50.773  30.197  -8.912  1.00 92.55 LIG-0.37  N 
ATOM     33 22HD ASN E1027     -50.718  29.816  -9.681  1.00 92.55 LIG 0.16  HD
ATOM     34 21HD ASN E1027     -50.981  31.030  -8.859  1.00 92.55 LIG 0.16  HD
ATOM     35 OD1  ASN E1027     -50.605  30.016  -6.689  1.00 94.01 LIG-0.27  OA
ENDBRANCH 30 31
ENDBRANCH 29 30
BRANCH 29 36
ATOM     36  C   ASN E1027     -47.927  29.133  -8.130  1.00103.37 LIG 0.22  C 
ATOM     37 O    ASN E1027     -47.015  29.456  -7.374  1.00 69.20 LIG-0.29  OA
ENDBRANCH 29 36
ENDBRANCH 26 29
ENDBRANCH 17 25
ENDBRANCH 15 17
ENDBRANCH 12 13
BRANCH 12 38
ATOM     38  CB  ILE E1025     -50.932  25.079  -3.649  1.00 40.50 LIG 0.01  C 
ATOM     39  CG2 ILE E1025     -52.243  24.893  -2.873  1.00 43.95 LIG 0.01  C 
BRANCH 38 40
ATOM     40  CG1 ILE E1025     -50.574  26.561  -3.763  1.00 41.58 LIG 0.00  C 
ATOM     41  CD1 ILE E1025     -51.275  27.280  -5.041  1.00 52.05 LIG 0.01  C 
ENDBRANCH 38 40
ENDBRANCH 12 38
ENDBRANCH 10 12
ENDBRANCH 4 8
BRANCH 1 42
ATOM     42  CA  ILE E1023     -49.770  27.243   1.531  1.00 36.06 LIG 0.18  C 
BRANCH 42 43
ATOM     43  N   ILE E1023     -49.366  27.581   2.910  1.00 37.96 LIG-0.35  N 
ATOM     44  C   ARG E1022     -50.244  27.985   3.853  1.00 45.42 LIG 0.24  C 
ATOM     45 O    ARG E1022     -51.437  28.180   3.622  1.00 45.23 LIG-0.27  OA
ATOM     46 H    ILE E1023     -48.523  27.496   3.055  1.00 37.96 LIG 0.16  HD
BRANCH 44 47
ATOM     47  CA  ARG E1022     -49.716  28.285   5.256  1.00 45.59 LIG 0.18  C 
BRANCH 47 48
ATOM     48  N   ARG E1022     -48.762  27.276   5.745  1.00 48.30 LIG-0.35  N 
ATOM     49 H    ARG E1022     -48.015  27.258   5.320  1.00 48.30 LIG 0.16  HD
ATOM     50  C   ILE E1021     -49.062  26.458   6.778  1.00 57.51 LIG 0.26  C 
ATOM     51 O    ILE E1021     -50.144  26.505   7.378  1.00 59.03 LIG-0.27  OA
BRANCH 50 52
ATOM     52  CA  ILE E1021     -48.000  25.440   7.228  1.00 57.59 LIG 0.40  C 
ATOM     53  N   ILE E1021     -47.981  25.398   8.687  1.00 58.96 LIG 0.61  N 
BRANCH 52 54
ATOM     54  CB  ILE E1021     -48.303  23.998   6.732  1.00 60.58 LIG 0.03  C 
ATOM     55  CG2 ILE E1021     -48.747  23.066   7.855  1.00 61.37 LIG 0.01  C 
BRANCH 54 56
ATOM     56  CG1 ILE E1021     -49.351  24.022   5.592  1.00 60.59 LIG 0.00  C 
ATOM     57  CD1 ILE E1021     -48.737  23.910   4.246  1.00 60.15 LIG 0.01  C 
ENDBRANCH 54 56
ENDBRANCH 52 54
ENDBRANCH 50 52
ENDBRANCH 47 48
BRANCH 47 58
ATOM     58  CB  ARG E1022     -49.111  29.694   5.260  1.00 44.33 LIG 0.04  C 
BRANCH 58 59
ATOM     59  CG  ARG E1022     -50.058  30.755   4.710  1.00 47.73 LIG 0.02  C 
BRANCH 59 60
ATOM     60  CD  ARG E1022     -50.705  31.593   5.792  1.00 47.87 LIG 0.14  C 
BRANCH 60 61
ATOM     61  NE  ARG E1022     -49.781  32.619   6.273  1.00 55.98 LIG-0.23  N 
ATOM     62  CZ  ARG E1022     -50.034  33.921   6.373  1.00 56.00 LIG 0.67  C 
ATOM     63  NH1 ARG E1022     -51.227  34.405   6.047  1.00 48.69 LIG-0.23  N 
ATOM     64  NH2 ARG E1022     -49.106  34.748   6.833  1.00 32.20 LIG-0.23  N 
ATOM     65 1HH1 ARG E1022     -51.844  33.875   5.768  1.00 48.69 LIG 0.17  HD
ATOM     66 2HH1 ARG E1022     -51.383  35.248   6.114  1.00 48.69 LIG 0.17  HD
ATOM     67 2HH2 ARG E1022     -49.273  35.589   6.896  1.00 32.20 LIG 0.17  HD
ATOM     68 1HH2 ARG E1022     -48.337  34.443   7.067  1.00 32.20 LIG 0.17  HD
ATOM     69 HE   ARG E1022     -48.998  32.355   6.514  1.00 55.98 LIG 0.18  HD
ENDBRANCH 60 61
ENDBRANCH 59 60
ENDBRANCH 58 59
ENDBRANCH 47 58
ENDBRANCH 44 47
ENDBRANCH 42 43
BRANCH 42 70
ATOM     70  CB  ILE E1023     -49.231  28.257   0.468  1.00 38.78 LIG 0.01  C 
ATOM     71  CG2 ILE E1023     -49.201  27.615  -0.927  1.00 39.01 LIG 0.01  C 
BRANCH 70 72
ATOM     72  CG1 ILE E1023     -50.007  29.608   0.454  1.00 39.61 LIG 0.00  C 
ATOM     73  CD1 ILE E1023     -49.195  30.876   0.561  1.00 43.21 LIG 0.01  C 
ENDBRANCH 70 72
ENDBRANCH 42 70
ENDBRANCH 1 42
TORSDOF 26
ENDMDL
MODEL 8
USER: ADFR SOLUTION from run 68
USER: SCORE 22.744545 LL:  -7.254 LR: -18.504 RR:   0.000 FEB: -10.748
USER: RMSD 12.132796
USER: SEED 67
USER: STATUS no improvement in best in 12 clusters for 5 generations
USER: GENES 28
USER: genes 0 Translation |==|  0.44763 0.54211 0.53371
USER: genes 1 Rotation |==|  0.19727 0.21195 0.77455 0.50100
USER: genes 2 Torsion [N]-CA--C-[O] |==|  0.43614
USER: genes 3 Torsion [C]-N--CA-[CB] |==|  0.43959
USER: genes 4 Torsion [N]-CA--C-[N] |==|  0.91267
USER: genes 5 Torsion [C]-N--CA-[C] |==|  0.20484
USER: genes 6 Torsion [N]-CA--CB-[CG] |==|  0.80977
USER: genes 7 Torsion [CA]-CB--CG-[CD1] |==|  0.31596
USER: genes 8 Torsion [N]-CA--C-[N] |==|  0.69703
USER: genes 9 Torsion [C]-N--CA-[C] |==|  0.15850
USER: genes 10 Torsion [N]-CA--CB-[CG] |==|  0.45435
USER: genes 11 Torsion [CA]-CB--CG-[OD1] |==|  0.17711
USER: genes 12 Torsion [N]-CA--C-[O] |==|  0.03198
USER: genes 13 Torsion [N]-CA--CB-[CG2] |==|  0.41820
USER: genes 14 Torsion [CA]-CB--CG1-[CD1] |==|  0.20600
USER: genes 15 Torsion [N]-C--CA-[N] |==|  0.18495
USER: genes 16 Torsion [C]-CA--N-[C] |==|  0.63611
USER: genes 17 Torsion [N]-C--CA-[N] |==|  0.91433
USER: genes 18 Torsion [C]-CA--N-[C] |==|  0.65000
USER: genes 19 Torsion [N]-C--CA-[N] |==|  0.41873
USER: genes 20 Torsion [C]-CA--CB-[CG1] |==|  0.01363
USER: genes 21 Torsion [CA]-CB--CG1-[CD1] |==|  0.72295
USER: genes 22 Torsion [C]-CA--CB-[CG] |==|  0.49537
USER: genes 23 Torsion [CA]-CB--CG-[CD] |==|  0.59273
USER: genes 24 Torsion [CB]-CG--CD-[NE] |==|  0.06978
USER: genes 25 Torsion [CG]-CD--NE-[CZ] |==|  0.59252
USER: genes 26 Torsion [C]-CA--CB-[CG1] |==|  0.57975
USER: genes 27 Torsion [CA]-CB--CG1-[CD1] |==|  0.69405
ROOT
ATOM      1  C   ILE E1023     -49.142  26.009   1.419  1.00 40.02 LIG 0.24  C 
ATOM      2 O    ILE E1023     -48.145  25.784   0.715  1.00 38.38 LIG-0.27  OA
ATOM      3  N   PRO E1024     -49.852  25.028   2.030  1.00 37.38 LIG-0.34  N 
ATOM      4  CA  PRO E1024     -49.528  23.622   1.750  1.00 36.67 LIG 0.18  C 
ATOM      5  CB  PRO E1024     -50.253  22.861   2.857  1.00 38.74 LIG 0.04  C 
ATOM      6  CG  PRO E1024     -51.410  23.717   3.211  1.00 43.33 LIG 0.02  C 
ATOM      7  CD  PRO E1024     -51.053  25.140   2.890  1.00 39.42 LIG 0.13  C 
ENDROOT
BRANCH 4 8
ATOM      8  C   PRO E1024     -50.056  23.259   0.368  1.00 39.60 LIG 0.24  C 
ATOM      9 O    PRO E1024     -49.551  22.315  -0.237  1.00 37.18 LIG-0.27  OA
ATOM     10  N   ILE E1025     -51.090  23.988  -0.100  1.00 37.20 LIG-0.35  N 
ATOM     11 H    ILE E1025     -51.425  24.636   0.355  1.00 37.20 LIG 0.16  HD
BRANCH 10 12
ATOM     12  CA  ILE E1025     -51.776  23.807  -1.387  1.00 37.42 LIG 0.18  C 
BRANCH 12 13
ATOM     13  C   ILE E1025     -51.063  24.579  -2.494  1.00 40.88 LIG 0.24  C 
ATOM     14 O    ILE E1025     -50.912  24.043  -3.593  1.00 40.29 LIG-0.27  OA
ATOM     15  N   PHE E1026     -50.434  25.724  -2.159  1.00 36.23 LIG-0.35  N 
ATOM     16 H    PHE E1026     -50.531  26.127  -1.406  1.00 36.23 LIG 0.16  HD
BRANCH 15 17
ATOM     17  CA  PHE E1026     -49.511  26.381  -3.093  1.00 36.58 LIG 0.18  C 
BRANCH 17 18
ATOM     18  CB  PHE E1026     -48.493  25.399  -3.663  1.00 38.58 LIG 0.07  C 
BRANCH 18 19
ATOM     19  CG  PHE E1026     -47.519  24.917  -2.629  1.00 40.24 LIG-0.06  A 
ATOM     20  CD1 PHE E1026     -47.508  23.597  -2.234  1.00 42.20 LIG 0.01  A 
ATOM     21  CE1 PHE E1026     -46.616  23.156  -1.271  1.00 42.54 LIG 0.00  A 
ATOM     22  CZ  PHE E1026     -45.731  24.032  -0.699  1.00 41.81 LIG 0.00  A 
ATOM     23  CE2 PHE E1026     -45.729  25.350  -1.071  1.00 44.36 LIG 0.00  A 
ATOM     24  CD2 PHE E1026     -46.624  25.796  -2.031  1.00 42.30 LIG 0.01  A 
ENDBRANCH 18 19
ENDBRANCH 17 18
BRANCH 17 25
ATOM     25  C   PHE E1026     -50.271  27.056  -4.220  1.00 38.60 LIG 0.24  C 
ATOM     26  N   ASN E1027     -50.163  26.475  -5.442  1.00 38.80 LIG-0.35  N 
ATOM     27 H    ASN E1027     -49.675  25.780  -5.580  1.00 38.80 LIG 0.16  HD
ATOM     28 O    PHE E1026     -50.981  28.030  -3.982  1.00 31.59 LIG-0.27  OA
BRANCH 26 29
ATOM     29  CA  ASN E1027     -50.848  26.944  -6.652  1.00 74.37 LIG 0.17  C 
BRANCH 29 30
ATOM     30  CB  ASN E1027     -52.359  26.823  -6.488  1.00 75.17 LIG 0.14  C 
BRANCH 30 31
ATOM     31  CG  ASN E1027     -53.133  27.632  -7.499  1.00 99.64 LIG 0.22  C 
ATOM     32  ND2 ASN E1027     -53.899  28.619  -7.042  1.00 92.55 LIG-0.37  N 
ATOM     33 22HD ASN E1027     -53.934  28.780  -6.198  1.00 92.55 LIG 0.16  HD
ATOM     34 21HD ASN E1027     -54.359  29.096  -7.590  1.00 92.55 LIG 0.16  HD
ATOM     35 OD1  ASN E1027     -53.062  27.376  -8.702  1.00 94.01 LIG-0.27  OA
ENDBRANCH 30 31
ENDBRANCH 29 30
BRANCH 29 36
ATOM     36  C   ASN E1027     -50.483  28.400  -6.933  1.00103.37 LIG 0.22  C 
ATOM     37 O    ASN E1027     -49.563  28.939  -6.323  1.00 69.20 LIG-0.29  OA
ENDBRANCH 29 36
ENDBRANCH 26 29
ENDBRANCH 17 25
ENDBRANCH 15 17
ENDBRANCH 12 13
BRANCH 12 38
ATOM     38  CB  ILE E1025     -53.223  24.462  -1.280  1.00 40.50 LIG 0.01  C 
ATOM     39  CG2 ILE E1025     -53.717  24.977  -2.639  1.00 43.95 LIG 0.01  C 
BRANCH 38 40
ATOM     40  CG1 ILE E1025     -54.257  23.536  -0.640  1.00 41.58 LIG 0.00  C 
ATOM     41  CD1 ILE E1025     -54.063  23.392   0.967  1.00 52.05 LIG 0.01  C 
ENDBRANCH 38 40
ENDBRANCH 12 38
ENDBRANCH 10 12
ENDBRANCH 4 8
BRANCH 1 42
ATOM     42  CA  ILE E1023     -49.524  27.454   1.689  1.00 36.06 LIG 0.18  C 
BRANCH 42 43
ATOM     43  N   ILE E1023     -49.220  27.714   3.109  1.00 37.96 LIG-0.35  N 
ATOM     44  C   ARG E1022     -50.100  28.294   3.953  1.00 45.42 LIG 0.24  C 
ATOM     45 O    ARG E1022     -51.196  28.722   3.592  1.00 45.23 LIG-0.27  OA
ATOM     46 H    ILE E1023     -48.433  27.463   3.347  1.00 37.96 LIG 0.16  HD
BRANCH 44 47
ATOM     47  CA  ARG E1022     -49.685  28.493   5.412  1.00 45.59 LIG 0.18  C 
BRANCH 47 48
ATOM     48  N   ARG E1022     -48.756  27.459   5.897  1.00 48.30 LIG-0.35  N 
ATOM     49 H    ARG E1022     -48.052  27.360   5.414  1.00 48.30 LIG 0.16  HD
ATOM     50  C   ILE E1021     -49.013  26.741   7.012  1.00 57.51 LIG 0.26  C 
ATOM     51 O    ILE E1021     -50.033  26.905   7.694  1.00 59.03 LIG-0.27  OA
BRANCH 50 52
ATOM     52  CA  ILE E1021     -47.981  25.688   7.450  1.00 57.59 LIG 0.40  C 
ATOM     53  N   ILE E1021     -48.043  25.548   8.902  1.00 58.96 LIG 0.61  N 
BRANCH 52 54
ATOM     54  CB  ILE E1021     -48.259  24.285   6.842  1.00 60.58 LIG 0.03  C 
ATOM     55  CG2 ILE E1021     -48.498  23.216   7.905  1.00 61.37 LIG 0.01  C 
BRANCH 54 56
ATOM     56  CG1 ILE E1021     -49.445  24.347   5.848  1.00 60.59 LIG 0.00  C 
ATOM     57  CD1 ILE E1021     -50.719  23.877   6.445  1.00 60.15 LIG 0.01  C 
ENDBRANCH 54 56
ENDBRANCH 52 54
ENDBRANCH 50 52
ENDBRANCH 47 48
BRANCH 47 58
ATOM     58  CB  ARG E1022     -49.104  29.904   5.567  1.00 44.33 LIG 0.04  C 
BRANCH 58 59
ATOM     59  CG  ARG E1022     -48.693  30.229   6.997  1.00 47.73 LIG 0.02  C 
BRANCH 59 60
ATOM     60  CD  ARG E1022     -48.889  31.688   7.355  1.00 47.87 LIG 0.14  C 
BRANCH 60 61
ATOM     61  NE  ARG E1022     -49.927  32.289   6.520  1.00 55.98 LIG-0.23  N 
ATOM     62  CZ  ARG E1022     -49.962  33.549   6.094  1.00 56.00 LIG 0.67  C 
ATOM     63  NH1 ARG E1022     -48.981  34.392   6.396  1.00 48.69 LIG-0.23  N 
ATOM     64  NH2 ARG E1022     -50.962  33.968   5.333  1.00 32.20 LIG-0.23  N 
ATOM     65 1HH1 ARG E1022     -48.315  34.125   6.871  1.00 48.69 LIG 0.17  HD
ATOM     66 2HH1 ARG E1022     -49.011  35.205   6.117  1.00 48.69 LIG 0.17  HD
ATOM     67 2HH2 ARG E1022     -50.981  34.783   5.059  1.00 32.20 LIG 0.17  HD
ATOM     68 1HH2 ARG E1022     -51.592  33.425   5.113  1.00 32.20 LIG 0.17  HD
ATOM     69 HE   ARG E1022     -50.578  31.780   6.281  1.00 55.98 LIG 0.18  HD
ENDBRANCH 60 61
ENDBRANCH 59 60
ENDBRANCH 58 59
ENDBRANCH 47 58
ENDBRANCH 44 47
ENDBRANCH 42 43
BRANCH 42 70
ATOM     70  CB  ILE E1023     -48.738  28.390   0.712  1.00 38.78 LIG 0.01  C 
ATOM     71  CG2 ILE E1023     -49.446  28.469  -0.649  1.00 39.01 LIG 0.01  C 
BRANCH 70 72
ATOM     72  CG1 ILE E1023     -48.474  29.811   1.295  1.00 39.61 LIG 0.00  C 
ATOM     73  CD1 ILE E1023     -49.225  30.965   0.679  1.00 43.21 LIG 0.01  C 
ENDBRANCH 70 72
ENDBRANCH 42 70
ENDBRANCH 1 42
TORSDOF 26
ENDMDL
MODEL 9
USER: ADFR SOLUTION from run 112
USER: SCORE 23.036791 LL:  -5.499 LR: -18.482 RR:   0.000 FEB: -10.727
USER: RMSD 12.701977
USER: SEED 111
USER: STATUS no improvement in best in 5 clusters for 5 generations
USER: GENES 28
USER: genes 0 Translation |==|  0.38447 0.60484 0.65592
USER: genes 1 Rotation |==|  0.73582 0.88455 0.29334 0.56164
USER: genes 2 Torsion [N]-CA--C-[O] |==|  0.05517
USER: genes 3 Torsion [C]-N--CA-[CB] |==|  0.76634
USER: genes 4 Torsion [N]-CA--C-[N] |==|  0.24581
USER: genes 5 Torsion [C]-N--CA-[C] |==|  0.67978
USER: genes 6 Torsion [N]-CA--CB-[CG] |==|  0.71177
USER: genes 7 Torsion [CA]-CB--CG-[CD1] |==|  0.52112
USER: genes 8 Torsion [N]-CA--C-[N] |==|  0.89846
USER: genes 9 Torsion [C]-N--CA-[C] |==|  0.18540
USER: genes 10 Torsion [N]-CA--CB-[CG] |==|  0.70600
USER: genes 11 Torsion [CA]-CB--CG-[OD1] |==|  0.11643
USER: genes 12 Torsion [N]-CA--C-[O] |==|  0.80322
USER: genes 13 Torsion [N]-CA--CB-[CG2] |==|  0.13562
USER: genes 14 Torsion [CA]-CB--CG1-[CD1] |==|  0.09176
USER: genes 15 Torsion [N]-C--CA-[N] |==|  0.38614
USER: genes 16 Torsion [C]-CA--N-[C] |==|  0.57233
USER: genes 17 Torsion [N]-C--CA-[N] |==|  0.43274
USER: genes 18 Torsion [C]-CA--N-[C] |==|  0.75556
USER: genes 19 Torsion [N]-C--CA-[N] |==|  0.39561
USER: genes 20 Torsion [C]-CA--CB-[CG1] |==|  0.93810
USER: genes 21 Torsion [CA]-CB--CG1-[CD1] |==|  0.67102
USER: genes 22 Torsion [C]-CA--CB-[CG] |==|  0.24613
USER: genes 23 Torsion [CA]-CB--CG-[CD] |==|  0.75939
USER: genes 24 Torsion [CB]-CG--CD-[NE] |==|  0.74060
USER: genes 25 Torsion [CG]-CD--NE-[CZ] |==|  0.26915
USER: genes 26 Torsion [C]-CA--CB-[CG1] |==|  0.83299
USER: genes 27 Torsion [CA]-CB--CG1-[CD1] |==|  0.84389
ROOT
ATOM      1  C   ILE E1023     -50.089  27.467   4.902  1.00 40.02 LIG 0.24  C 
ATOM      2 O    ILE E1023     -49.057  27.937   4.399  1.00 38.38 LIG-0.27  OA
ATOM      3  N   PRO E1024     -50.243  26.148   5.178  1.00 37.38 LIG-0.34  N 
ATOM      4  CA  PRO E1024     -49.210  25.196   4.745  1.00 36.67 LIG 0.18  C 
ATOM      5  CB  PRO E1024     -49.540  23.930   5.532  1.00 38.74 LIG 0.04  C 
ATOM      6  CG  PRO E1024     -51.001  23.999   5.768  1.00 43.33 LIG 0.02  C 
ATOM      7  CD  PRO E1024     -51.405  25.446   5.770  1.00 39.42 LIG 0.13  C 
ENDROOT
BRANCH 4 8
ATOM      8  C   PRO E1024     -49.334  24.981   3.242  1.00 39.60 LIG 0.24  C 
ATOM      9 O    PRO E1024     -49.932  25.818   2.566  1.00 37.18 LIG-0.27  OA
ATOM     10  N   ILE E1025     -48.739  23.884   2.731  1.00 37.20 LIG-0.35  N 
ATOM     11 H    ILE E1025     -48.322  23.325   3.233  1.00 37.20 LIG 0.16  HD
BRANCH 10 12
ATOM     12  CA  ILE E1025     -48.706  23.486   1.317  1.00 37.42 LIG 0.18  C 
BRANCH 12 13
ATOM     13  C   ILE E1025     -48.723  24.713   0.408  1.00 40.88 LIG 0.24  C 
ATOM     14 O    ILE E1025     -49.777  25.028  -0.147  1.00 40.29 LIG-0.27  OA
ATOM     15  N   PHE E1026     -47.541  25.268   0.078  1.00 36.23 LIG-0.35  N 
ATOM     16 H    PHE E1026     -46.793  25.077   0.457  1.00 36.23 LIG 0.16  HD
BRANCH 15 17
ATOM     17  CA  PHE E1026     -47.448  26.272  -0.991  1.00 36.58 LIG 0.18  C 
BRANCH 17 18
ATOM     18  CB  PHE E1026     -46.866  27.586  -0.480  1.00 38.58 LIG 0.07  C 
BRANCH 18 19
ATOM     19  CG  PHE E1026     -47.914  28.643  -0.290  1.00 40.24 LIG-0.06  A 
ATOM     20  CD1 PHE E1026     -47.559  29.939   0.016  1.00 42.20 LIG 0.01  A 
ATOM     21  CE1 PHE E1026     -48.527  30.910   0.202  1.00 42.54 LIG 0.00  A 
ATOM     22  CZ  PHE E1026     -49.854  30.591   0.083  1.00 41.81 LIG 0.00  A 
ATOM     23  CE2 PHE E1026     -50.231  29.309  -0.213  1.00 44.36 LIG 0.00  A 
ATOM     24  CD2 PHE E1026     -49.264  28.332  -0.394  1.00 42.30 LIG 0.01  A 
ENDBRANCH 18 19
ENDBRANCH 17 18
BRANCH 17 25
ATOM     25  C   PHE E1026     -46.620  25.752  -2.151  1.00 38.60 LIG 0.24  C 
ATOM     26  N   ASN E1027     -45.557  24.975  -1.822  1.00 38.80 LIG-0.35  N 
ATOM     27 H    ASN E1027     -45.346  24.805  -1.006  1.00 38.80 LIG 0.16  HD
ATOM     28 O    PHE E1026     -46.966  25.992  -3.305  1.00 31.59 LIG-0.27  OA
BRANCH 26 29
ATOM     29  CA  ASN E1027     -44.654  24.343  -2.791  1.00 74.37 LIG 0.17  C 
BRANCH 29 30
ATOM     30  CB  ASN E1027     -45.449  23.509  -3.791  1.00 75.17 LIG 0.14  C 
BRANCH 30 31
ATOM     31  CG  ASN E1027     -45.325  22.024  -3.557  1.00 99.64 LIG 0.22  C 
ATOM     32  ND2 ASN E1027     -45.187  21.241  -4.624  1.00 92.55 LIG-0.37  N 
ATOM     33 22HD ASN E1027     -45.165  21.587  -5.410  1.00 92.55 LIG 0.16  HD
ATOM     34 21HD ASN E1027     -45.121  20.389  -4.527  1.00 92.55 LIG 0.16  HD
ATOM     35 OD1  ASN E1027     -45.361  21.557  -2.416  1.00 94.01 LIG-0.27  OA
ENDBRANCH 30 31
ENDBRANCH 29 30
BRANCH 29 36
ATOM     36  C   ASN E1027     -43.856  25.407  -3.541  1.00103.37 LIG 0.22  C 
ATOM     37 O    ASN E1027     -44.409  26.135  -4.361  1.00 69.20 LIG-0.29  OA
ENDBRANCH 29 36
ENDBRANCH 26 29
ENDBRANCH 17 25
ENDBRANCH 15 17
ENDBRANCH 12 13
BRANCH 12 38
ATOM     38  CB  ILE E1025     -50.049  22.698   0.988  1.00 40.50 LIG 0.01  C 
ATOM     39  CG2 ILE E1025     -51.289  23.453   1.486  1.00 43.95 LIG 0.01  C 
BRANCH 38 40
ATOM     40  CG1 ILE E1025     -50.190  22.337  -0.491  1.00 41.58 LIG 0.00  C 
ATOM     41  CD1 ILE E1025     -48.761  22.030  -1.202  1.00 52.05 LIG 0.01  C 
ENDBRANCH 38 40
ENDBRANCH 12 38
ENDBRANCH 10 12
ENDBRANCH 4 8
BRANCH 1 42
ATOM     42  CA  ILE E1023     -51.190  28.427   5.319  1.00 36.06 LIG 0.18  C 
BRANCH 42 43
ATOM     43  N   ILE E1023     -50.523  29.632   5.849  1.00 37.96 LIG-0.35  N 
ATOM     44  C   ARG E1022     -51.102  30.453   6.751  1.00 45.42 LIG 0.24  C 
ATOM     45 O    ARG E1022     -52.259  30.310   7.147  1.00 45.23 LIG-0.27  OA
ATOM     46 H    ILE E1023     -49.735  29.761   5.531  1.00 37.96 LIG 0.16  HD
BRANCH 44 47
ATOM     47  CA  ARG E1022     -50.308  31.662   7.249  1.00 45.59 LIG 0.18  C 
BRANCH 47 48
ATOM     48  N   ARG E1022     -51.164  32.753   7.744  1.00 48.30 LIG-0.35  N 
ATOM     49 H    ARG E1022     -51.327  32.722   8.588  1.00 48.30 LIG 0.16  HD
ATOM     50  C   ILE E1021     -51.639  33.712   6.919  1.00 57.51 LIG 0.26  C 
ATOM     51 O    ILE E1021     -51.387  33.738   5.708  1.00 59.03 LIG-0.27  OA
BRANCH 50 52
ATOM     52  CA  ILE E1021     -52.518  34.819   7.525  1.00 57.59 LIG 0.40  C 
ATOM     53  N   ILE E1021     -52.200  36.082   6.866  1.00 58.96 LIG 0.61  N 
BRANCH 52 54
ATOM     54  CB  ILE E1021     -54.037  34.563   7.317  1.00 60.58 LIG 0.03  C 
ATOM     55  CG2 ILE E1021     -54.836  35.851   7.145  1.00 61.37 LIG 0.01  C 
BRANCH 54 56
ATOM     56  CG1 ILE E1021     -54.269  33.609   6.119  1.00 60.59 LIG 0.00  C 
ATOM     57  CD1 ILE E1021     -55.055  34.236   5.030  1.00 60.15 LIG 0.01  C 
ENDBRANCH 54 56
ENDBRANCH 52 54
ENDBRANCH 50 52
ENDBRANCH 47 48
BRANCH 47 58
ATOM     58  CB  ARG E1022     -49.312  31.187   8.314  1.00 44.33 LIG 0.04  C 
BRANCH 58 59
ATOM     59  CG  ARG E1022     -47.974  30.749   7.730  1.00 47.73 LIG 0.02  C 
BRANCH 59 60
ATOM     60  CD  ARG E1022     -47.960  29.297   7.298  1.00 47.87 LIG 0.14  C 
BRANCH 60 61
ATOM     61  NE  ARG E1022     -47.456  28.443   8.372  1.00 55.98 LIG-0.23  N 
ATOM     62  CZ  ARG E1022     -48.191  27.761   9.245  1.00 56.00 LIG 0.67  C 
ATOM     63  NH1 ARG E1022     -49.518  27.790   9.181  1.00 48.69 LIG-0.23  N 
ATOM     64  NH2 ARG E1022     -47.606  27.015  10.170  1.00 32.20 LIG-0.23  N 
ATOM     65 1HH1 ARG E1022     -49.908  28.254   8.570  1.00 48.69 LIG 0.17  HD
ATOM     66 2HH1 ARG E1022     -49.986  27.346   9.749  1.00 48.69 LIG 0.17  HD
ATOM     67 2HH2 ARG E1022     -48.085  26.575  10.733  1.00 32.20 LIG 0.17  HD
ATOM     68 1HH2 ARG E1022     -46.748  26.971  10.208  1.00 32.20 LIG 0.17  HD
ATOM     69 HE   ARG E1022     -46.601  28.376   8.446  1.00 55.98 LIG 0.18  HD
ENDBRANCH 60 61
ENDBRANCH 59 60
ENDBRANCH 58 59
ENDBRANCH 47 58
ENDBRANCH 44 47
ENDBRANCH 42 43
BRANCH 42 70
ATOM     70  CB  ILE E1023     -52.112  28.725   4.091  1.00 38.78 LIG 0.01  C 
ATOM     71  CG2 ILE E1023     -53.321  29.573   4.514  1.00 39.01 LIG 0.01  C 
BRANCH 70 72
ATOM     72  CG1 ILE E1023     -51.355  29.375   2.894  1.00 39.61 LIG 0.00  C 
ATOM     73  CD1 ILE E1023     -50.603  30.655   3.160  1.00 43.21 LIG 0.01  C 
ENDBRANCH 70 72
ENDBRANCH 42 70
ENDBRANCH 1 42
TORSDOF 26
ENDMDL
MODEL 10
USER: ADFR SOLUTION from run 144
USER: SCORE 23.792875 LL:  -6.538 LR: -18.443 RR:   0.000 FEB: -10.687
USER: RMSD 3.578717
USER: SEED 143
USER: STATUS no improvement in best in 8 clusters for 5 generations
USER: GENES 28
USER: genes 0 Translation |==|  0.48479 0.49364 0.43589
USER: genes 1 Rotation |==|  0.46510 0.47585 0.55782 0.99483
USER: genes 2 Torsion [N]-CA--C-[O] |==|  0.82347
USER: genes 3 Torsion [C]-N--CA-[CB] |==|  0.55646
USER: genes 4 Torsion [N]-CA--C-[N] |==|  0.32307
USER: genes 5 Torsion [C]-N--CA-[C] |==|  0.67455
USER: genes 6 Torsion [N]-CA--CB-[CG] |==|  0.86407
USER: genes 7 Torsion [CA]-CB--CG-[CD1] |==|  0.85840
USER: genes 8 Torsion [N]-CA--C-[N] |==|  0.25132
USER: genes 9 Torsion [C]-N--CA-[C] |==|  0.86269
USER: genes 10 Torsion [N]-CA--CB-[CG] |==|  0.71794
USER: genes 11 Torsion [CA]-CB--CG-[OD1] |==|  0.33064
USER: genes 12 Torsion [N]-CA--C-[O] |==|  0.86073
USER: genes 13 Torsion [N]-CA--CB-[CG2] |==|  0.44016
USER: genes 14 Torsion [CA]-CB--CG1-[CD1] |==|  0.80474
USER: genes 15 Torsion [N]-C--CA-[N] |==|  0.28754
USER: genes 16 Torsion [C]-CA--N-[C] |==|  0.64444
USER: genes 17 Torsion [N]-C--CA-[N] |==|  0.93039
USER: genes 18 Torsion [C]-CA--N-[C] |==|  0.83333
USER: genes 19 Torsion [N]-C--CA-[N] |==|  0.28876
USER: genes 20 Torsion [C]-CA--CB-[CG1] |==|  0.13184
USER: genes 21 Torsion [CA]-CB--CG1-[CD1] |==|  0.31748
USER: genes 22 Torsion [C]-CA--CB-[CG] |==|  0.91785
USER: genes 23 Torsion [CA]-CB--CG-[CD] |==|  0.26815
USER: genes 24 Torsion [CB]-CG--CD-[NE] |==|  0.11292
USER: genes 25 Torsion [CG]-CD--NE-[CZ] |==|  0.29924
USER: genes 26 Torsion [C]-CA--CB-[CG1] |==|  0.42525
USER: genes 27 Torsion [CA]-CB--CG1-[CD1] |==|  0.93225
ROOT
ATOM      1  C   ILE E1023     -48.584  24.882  -1.369  1.00 40.02 LIG 0.24  C 
ATOM      2 O    ILE E1023     -48.785  26.032  -1.788  1.00 38.38 LIG-0.27  OA
ATOM      3  N   PRO E1024     -49.430  24.246  -0.521  1.00 37.38 LIG-0.34  N 
ATOM      4  CA  PRO E1024     -50.569  24.980   0.048  1.00 36.67 LIG 0.18  C 
ATOM      5  CB  PRO E1024     -51.455  23.877   0.621  1.00 38.74 LIG 0.04  C 
ATOM      6  CG  PRO E1024     -50.521  22.778   0.962  1.00 43.33 LIG 0.02  C 
ATOM      7  CD  PRO E1024     -49.324  22.888   0.061  1.00 39.42 LIG 0.13  C 
ENDROOT
BRANCH 4 8
ATOM      8  C   PRO E1024     -50.058  25.922   1.131  1.00 39.60 LIG 0.24  C 
ATOM      9 O    PRO E1024     -49.529  25.448   2.135  1.00 37.18 LIG-0.27  OA
ATOM     10  N   ILE E1025     -50.189  27.245   0.901  1.00 37.20 LIG-0.35  N 
ATOM     11 H    ILE E1025     -50.556  27.541   0.182  1.00 37.20 LIG 0.16  HD
BRANCH 10 12
ATOM     12  CA  ILE E1025     -49.751  28.334   1.784  1.00 37.42 LIG 0.18  C 
BRANCH 12 13
ATOM     13  C   ILE E1025     -50.135  28.042   3.233  1.00 40.88 LIG 0.24  C 
ATOM     14 O    ILE E1025     -51.313  28.161   3.572  1.00 40.29 LIG-0.27  OA
ATOM     15  N   PHE E1026     -49.140  27.883   4.129  1.00 36.23 LIG-0.35  N 
ATOM     16 H    PHE E1026     -48.312  27.784   3.920  1.00 36.23 LIG 0.16  HD
BRANCH 15 17
ATOM     17  CA  PHE E1026     -49.416  27.867   5.571  1.00 36.58 LIG 0.18  C 
BRANCH 17 18
ATOM     18  CB  PHE E1026     -48.993  26.547   6.211  1.00 38.58 LIG 0.07  C 
BRANCH 18 19
ATOM     19  CG  PHE E1026     -49.499  25.355   5.454  1.00 40.24 LIG-0.06  A 
ATOM     20  CD1 PHE E1026     -50.831  25.250   5.115  1.00 42.20 LIG 0.01  A 
ATOM     21  CE1 PHE E1026     -51.299  24.144   4.427  1.00 42.54 LIG 0.00  A 
ATOM     22  CZ  PHE E1026     -50.438  23.138   4.073  1.00 41.81 LIG 0.00  A 
ATOM     23  CE2 PHE E1026     -49.112  23.217   4.405  1.00 44.36 LIG 0.00  A 
ATOM     24  CD2 PHE E1026     -48.641  24.321   5.099  1.00 42.30 LIG 0.01  A 
ENDBRANCH 18 19
ENDBRANCH 17 18
BRANCH 17 25
ATOM     25  C   PHE E1026     -48.727  29.026   6.267  1.00 38.60 LIG 0.24  C 
ATOM     26  N   ASN E1027     -49.446  30.172   6.368  1.00 38.80 LIG-0.35  N 
ATOM     27 H    ASN E1027     -50.236  30.250   6.037  1.00 38.80 LIG 0.16  HD
ATOM     28 O    PHE E1026     -47.608  28.870   6.751  1.00 31.59 LIG-0.27  OA
BRANCH 26 29
ATOM     29  CA  ASN E1027     -48.981  31.393   7.036  1.00 74.37 LIG 0.17  C 
BRANCH 29 30
ATOM     30  CB  ASN E1027     -50.124  32.394   7.168  1.00 75.17 LIG 0.14  C 
BRANCH 30 31
ATOM     31  CG  ASN E1027     -50.070  33.497   6.140  1.00 99.64 LIG 0.22  C 
ATOM     32  ND2 ASN E1027     -49.005  34.294   6.146  1.00 92.55 LIG-0.37  N 
ATOM     33 22HD ASN E1027     -48.376  34.166   6.719  1.00 92.55 LIG 0.16  HD
ATOM     34 21HD ASN E1027     -48.945  34.937   5.578  1.00 92.55 LIG 0.16  HD
ATOM     35 OD1  ASN E1027     -50.987  33.655   5.332  1.00 94.01 LIG-0.27  OA
ENDBRANCH 30 31
ENDBRANCH 29 30
BRANCH 29 36
ATOM     36  C   ASN E1027     -48.435  31.060   8.423  1.00103.37 LIG 0.22  C 
ATOM     37 O    ASN E1027     -49.095  30.377   9.202  1.00 69.20 LIG-0.29  OA
ENDBRANCH 29 36
ENDBRANCH 26 29
ENDBRANCH 17 25
ENDBRANCH 15 17
ENDBRANCH 12 13
BRANCH 12 38
ATOM     38  CB  ILE E1025     -50.552  29.651   1.391  1.00 40.50 LIG 0.01  C 
ATOM     39  CG2 ILE E1025     -50.577  30.667   2.541  1.00 43.95 LIG 0.01  C 
BRANCH 38 40
ATOM     40  CG1 ILE E1025     -50.050  30.300   0.102  1.00 41.58 LIG 0.00  C 
ATOM     41  CD1 ILE E1025     -48.584  30.982   0.272  1.00 52.05 LIG 0.01  C 
ENDBRANCH 38 40
ENDBRANCH 12 38
ENDBRANCH 10 12
ENDBRANCH 4 8
BRANCH 1 42
ATOM     42  CA  ILE E1023     -47.389  24.116  -1.909  1.00 36.06 LIG 0.18  C 
BRANCH 42 43
ATOM     43  N   ILE E1023     -47.716  23.746  -3.300  1.00 37.96 LIG-0.35  N 
ATOM     44  C   ARG E1022     -47.619  22.482  -3.764  1.00 45.42 LIG 0.24  C 
ATOM     45 O    ARG E1022     -47.178  21.550  -3.092  1.00 45.23 LIG-0.27  OA
ATOM     46 H    ILE E1023     -47.973  24.408  -3.784  1.00 37.96 LIG 0.16  HD
BRANCH 44 47
ATOM     47  CA  ARG E1022     -48.008  22.210  -5.218  1.00 45.59 LIG 0.18  C 
BRANCH 47 48
ATOM     48  N   ARG E1022     -48.963  23.192  -5.757  1.00 48.30 LIG-0.35  N 
ATOM     49 H    ARG E1022     -48.678  23.628  -6.440  1.00 48.30 LIG 0.16  HD
ATOM     50  C   ILE E1021     -50.183  23.373  -5.202  1.00 57.51 LIG 0.26  C 
ATOM     51 O    ILE E1021     -50.573  22.730  -4.220  1.00 59.03 LIG-0.27  OA
BRANCH 50 52
ATOM     52  CA  ILE E1021     -51.120  24.415  -5.837  1.00 57.59 LIG 0.40  C 
ATOM     53  N   ILE E1021     -52.144  23.715  -6.607  1.00 58.96 LIG 0.61  N 
BRANCH 52 54
ATOM     54  CB  ILE E1021     -51.856  25.284  -4.779  1.00 60.58 LIG 0.03  C 
ATOM     55  CG2 ILE E1021     -53.021  24.553  -4.119  1.00 61.37 LIG 0.01  C 
BRANCH 54 56
ATOM     56  CG1 ILE E1021     -50.860  25.805  -3.714  1.00 60.59 LIG 0.00  C 
ATOM     57  CD1 ILE E1021     -50.705  27.280  -3.747  1.00 60.15 LIG 0.01  C 
ENDBRANCH 54 56
ENDBRANCH 52 54
ENDBRANCH 50 52
ENDBRANCH 47 48
BRANCH 47 58
ATOM     58  CB  ARG E1022     -46.728  22.135  -6.060  1.00 44.33 LIG 0.04  C 
BRANCH 58 59
ATOM     59  CG  ARG E1022     -45.597  22.995  -5.510  1.00 47.73 LIG 0.02  C 
BRANCH 59 60
ATOM     60  CD  ARG E1022     -44.622  22.217  -4.650  1.00 47.87 LIG 0.14  C 
BRANCH 60 61
ATOM     61  NE  ARG E1022     -44.352  20.904  -5.235  1.00 55.98 LIG-0.23  N 
ATOM     62  CZ  ARG E1022     -43.224  20.525  -5.830  1.00 56.00 LIG 0.67  C 
ATOM     63  NH1 ARG E1022     -42.192  21.358  -5.916  1.00 48.69 LIG-0.23  N 
ATOM     64  NH2 ARG E1022     -43.106  19.298  -6.315  1.00 32.20 LIG-0.23  N 
ATOM     65 1HH1 ARG E1022     -42.250  22.150  -5.585  1.00 48.69 LIG 0.17  HD
ATOM     66 2HH1 ARG E1022     -41.467  21.105  -6.302  1.00 48.69 LIG 0.17  HD
ATOM     67 2HH2 ARG E1022     -42.375  19.057  -6.699  1.00 32.20 LIG 0.17  HD
ATOM     68 1HH2 ARG E1022     -43.760  18.744  -6.246  1.00 32.20 LIG 0.17  HD
ATOM     69 HE   ARG E1022     -44.983  20.321  -5.191  1.00 55.98 LIG 0.18  HD
ENDBRANCH 60 61
ENDBRANCH 59 60
ENDBRANCH 58 59
ENDBRANCH 47 58
ENDBRANCH 44 47
ENDBRANCH 42 43
BRANCH 42 70
ATOM     70  CB  ILE E1023     -46.108  25.006  -1.796  1.00 38.78 LIG 0.01  C 
ATOM     71  CG2 ILE E1023     -46.246  26.011  -0.643  1.00 39.01 LIG 0.01  C 
BRANCH 70 72
ATOM     72  CG1 ILE E1023     -44.791  24.181  -1.674  1.00 39.61 LIG 0.00  C 
ATOM     73  CD1 ILE E1023     -44.898  22.781  -1.123  1.00 43.21 LIG 0.01  C 
ENDBRANCH 70 72
ENDBRANCH 42 70
ENDBRANCH 1 42
TORSDOF 26
ENDMDL
MODEL 11
USER: ADFR SOLUTION from run 35
USER: SCORE 22.387881 LL:  -5.587 LR: -18.419 RR:   0.000 FEB: -10.664
USER: RMSD 12.790253
USER: SEED 34
USER: STATUS no improvement in best in 11 clusters for 5 generations
USER: GENES 28
USER: genes 0 Translation |==|  0.46789 0.58180 0.53530
USER: genes 1 Rotation |==|  0.83911 0.81907 0.34929 0.60240
USER: genes 2 Torsion [N]-CA--C-[O] |==|  0.85059
USER: genes 3 Torsion [C]-N--CA-[CB] |==|  0.86014
USER: genes 4 Torsion [N]-CA--C-[N] |==|  0.47222
USER: genes 5 Torsion [C]-N--CA-[C] |==|  0.77112
USER: genes 6 Torsion [N]-CA--CB-[CG] |==|  0.50707
USER: genes 7 Torsion [CA]-CB--CG-[CD1] |==|  0.18335
USER: genes 8 Torsion [N]-CA--C-[N] |==|  0.26780
USER: genes 9 Torsion [C]-N--CA-[C] |==|  0.70170
USER: genes 10 Torsion [N]-CA--CB-[CG] |==|  0.11772
USER: genes 11 Torsion [CA]-CB--CG-[OD1] |==|  0.12581
USER: genes 12 Torsion [N]-CA--C-[O] |==|  0.11406
USER: genes 13 Torsion [N]-CA--CB-[CG2] |==|  0.27453
USER: genes 14 Torsion [CA]-CB--CG1-[CD1] |==|  0.06357
USER: genes 15 Torsion [N]-C--CA-[N] |==|  0.30705
USER: genes 16 Torsion [C]-CA--N-[C] |==|  0.56724
USER: genes 17 Torsion [N]-C--CA-[N] |==|  0.43514
USER: genes 18 Torsion [C]-CA--N-[C] |==|  0.58204
USER: genes 19 Torsion [N]-C--CA-[N] |==|  0.05482
USER: genes 20 Torsion [C]-CA--CB-[CG1] |==|  0.23147
USER: genes 21 Torsion [CA]-CB--CG1-[CD1] |==|  0.68304
USER: genes 22 Torsion [C]-CA--CB-[CG] |==|  0.27586
USER: genes 23 Torsion [CA]-CB--CG-[CD] |==|  0.21200
USER: genes 24 Torsion [CB]-CG--CD-[NE] |==|  0.39056
USER: genes 25 Torsion [CG]-CD--NE-[CZ] |==|  0.76203
USER: genes 26 Torsion [C]-CA--CB-[CG1] |==|  0.51595
USER: genes 27 Torsion [CA]-CB--CG1-[CD1] |==|  0.36741
ROOT
ATOM      1  C   ILE E1023     -48.838  26.932   1.464  1.00 40.02 LIG 0.24  C 
ATOM      2 O    ILE E1023     -47.600  27.002   1.485  1.00 38.38 LIG-0.27  OA
ATOM      3  N   PRO E1024     -49.512  25.755   1.503  1.00 37.38 LIG-0.34  N 
ATOM      4  CA  PRO E1024     -48.765  24.492   1.429  1.00 36.67 LIG 0.18  C 
ATOM      5  CB  PRO E1024     -49.787  23.446   1.865  1.00 38.74 LIG 0.04  C 
ATOM      6  CG  PRO E1024     -51.101  24.019   1.487  1.00 43.33 LIG 0.02  C 
ATOM      7  CD  PRO E1024     -50.974  25.515   1.484  1.00 39.42 LIG 0.13  C 
ENDROOT
BRANCH 4 8
ATOM      8  C   PRO E1024     -48.303  24.275  -0.006  1.00 39.60 LIG 0.24  C 
ATOM      9 O    PRO E1024     -49.133  24.310  -0.913  1.00 37.18 LIG-0.27  OA
ATOM     10  N   ILE E1025     -46.981  24.090  -0.200  1.00 37.20 LIG-0.35  N 
ATOM     11 H    ILE E1025     -46.428  24.081   0.458  1.00 37.20 LIG 0.16  HD
BRANCH 10 12
ATOM     12  CA  ILE E1025     -46.307  23.886  -1.490  1.00 37.42 LIG 0.18  C 
BRANCH 12 13
ATOM     13  C   ILE E1025     -46.432  25.129  -2.368  1.00 40.88 LIG 0.24  C 
ATOM     14 O    ILE E1025     -47.331  25.937  -2.132  1.00 40.29 LIG-0.27  OA
ATOM     15  N   PHE E1026     -45.696  25.180  -3.496  1.00 36.23 LIG-0.35  N 
ATOM     16 H    PHE E1026     -45.054  24.638  -3.680  1.00 36.23 LIG 0.16  HD
BRANCH 15 17
ATOM     17  CA  PHE E1026     -45.950  26.201  -4.520  1.00 36.58 LIG 0.18  C 
BRANCH 17 18
ATOM     18  CB  PHE E1026     -44.704  26.489  -5.351  1.00 38.58 LIG 0.07  C 
BRANCH 18 19
ATOM     19  CG  PHE E1026     -44.926  27.574  -6.364  1.00 40.24 LIG-0.06  A 
ATOM     20  CD1 PHE E1026     -45.175  28.869  -5.964  1.00 42.20 LIG 0.01  A 
ATOM     21  CE1 PHE E1026     -45.391  29.866  -6.899  1.00 42.54 LIG 0.00  A 
ATOM     22  CZ  PHE E1026     -45.360  29.575  -8.237  1.00 41.81 LIG 0.00  A 
ATOM     23  CE2 PHE E1026     -45.122  28.293  -8.658  1.00 44.36 LIG 0.00  A 
ATOM     24  CD2 PHE E1026     -44.911  27.291  -7.724  1.00 42.30 LIG 0.01  A 
ENDBRANCH 18 19
ENDBRANCH 17 18
BRANCH 17 25
ATOM     25  C   PHE E1026     -47.094  25.785  -5.427  1.00 38.60 LIG 0.24  C 
ATOM     26  N   ASN E1027     -48.316  26.284  -5.112  1.00 38.80 LIG-0.35  N 
ATOM     27 H    ASN E1027     -48.444  26.787  -4.426  1.00 38.80 LIG 0.16  HD
ATOM     28 O    PHE E1026     -46.869  25.087  -6.413  1.00 31.59 LIG-0.27  OA
BRANCH 26 29
ATOM     29  CA  ASN E1027     -49.542  26.036  -5.879  1.00 74.37 LIG 0.17  C 
BRANCH 29 30
ATOM     30  CB  ASN E1027     -50.676  25.620  -4.948  1.00 75.17 LIG 0.14  C 
BRANCH 30 31
ATOM     31  CG  ASN E1027     -50.733  26.434  -3.680  1.00 99.64 LIG 0.22  C 
ATOM     32  ND2 ASN E1027     -50.914  25.780  -2.536  1.00 92.55 LIG-0.37  N 
ATOM     33 22HD ASN E1027     -50.987  24.923  -2.537  1.00 92.55 LIG 0.16  HD
ATOM     34 21HD ASN E1027     -50.958  26.214  -1.794  1.00 92.55 LIG 0.16  HD
ATOM     35 OD1  ASN E1027     -50.624  27.661  -3.710  1.00 94.01 LIG-0.27  OA
ENDBRANCH 30 31
ENDBRANCH 29 30
BRANCH 29 36
ATOM     36  C   ASN E1027     -49.949  27.295  -6.643  1.00103.37 LIG 0.22  C 
ATOM     37 O    ASN E1027     -49.099  27.986  -7.199  1.00 69.20 LIG-0.29  OA
ENDBRANCH 29 36
ENDBRANCH 26 29
ENDBRANCH 17 25
ENDBRANCH 15 17
ENDBRANCH 12 13
BRANCH 12 38
ATOM     38  CB  ILE E1025     -47.071  22.734  -2.277  1.00 40.50 LIG 0.01  C 
ATOM     39  CG2 ILE E1025     -48.045  23.304  -3.318  1.00 43.95 LIG 0.01  C 
BRANCH 38 40
ATOM     40  CG1 ILE E1025     -46.129  21.714  -2.917  1.00 41.58 LIG 0.00  C 
ATOM     41  CD1 ILE E1025     -44.672  21.667  -2.197  1.00 52.05 LIG 0.01  C 
ENDBRANCH 38 40
ENDBRANCH 12 38
ENDBRANCH 10 12
ENDBRANCH 4 8
BRANCH 1 42
ATOM     42  CA  ILE E1023     -49.634  28.224   1.497  1.00 36.06 LIG 0.18  C 
BRANCH 42 43
ATOM     43  N   ILE E1023     -49.370  28.852   2.806  1.00 37.96 LIG-0.35  N 
ATOM     44  C   ARG E1022     -50.222  29.723   3.388  1.00 45.42 LIG 0.24  C 
ATOM     45 O    ARG E1022     -51.250  30.124   2.842  1.00 45.23 LIG-0.27  OA
ATOM     46 H    ILE E1023     -48.625  28.612   3.162  1.00 37.96 LIG 0.16  HD
BRANCH 44 47
ATOM     47  CA  ARG E1022     -49.856  30.294   4.758  1.00 45.59 LIG 0.18  C 
BRANCH 47 48
ATOM     48  N   ARG E1022     -50.515  31.578   5.046  1.00 48.30 LIG-0.35  N 
ATOM     49 H    ARG E1022     -51.280  31.678   4.666  1.00 48.30 LIG 0.16  HD
ATOM     50  C   ILE E1021     -49.943  32.506   5.845  1.00 57.51 LIG 0.26  C 
ATOM     51 O    ILE E1021     -48.842  32.338   6.384  1.00 59.03 LIG-0.27  OA
BRANCH 50 52
ATOM     52  CA  ILE E1021     -50.708  33.816   6.097  1.00 57.59 LIG 0.40  C 
ATOM     53  N   ILE E1021     -52.119  33.601   5.788  1.00 58.96 LIG 0.61  N 
BRANCH 52 54
ATOM     54  CB  ILE E1021     -50.630  34.282   7.578  1.00 60.58 LIG 0.03  C 
ATOM     55  CG2 ILE E1021     -50.777  33.131   8.570  1.00 61.37 LIG 0.01  C 
BRANCH 54 56
ATOM     56  CG1 ILE E1021     -49.318  35.064   7.835  1.00 60.59 LIG 0.00  C 
ATOM     57  CD1 ILE E1021     -48.404  34.361   8.768  1.00 60.15 LIG 0.01  C 
ENDBRANCH 54 56
ENDBRANCH 52 54
ENDBRANCH 50 52
ENDBRANCH 47 48
BRANCH 47 58
ATOM     58  CB  ARG E1022     -50.168  29.238   5.826  1.00 44.33 LIG 0.04  C 
BRANCH 58 59
ATOM     59  CG  ARG E1022     -48.938  28.458   6.276  1.00 47.73 LIG 0.02  C 
BRANCH 59 60
ATOM     60  CD  ARG E1022     -48.046  29.244   7.214  1.00 47.87 LIG 0.14  C 
BRANCH 60 61
ATOM     61  NE  ARG E1022     -47.524  28.383   8.273  1.00 55.98 LIG-0.23  N 
ATOM     62  CZ  ARG E1022     -48.130  28.091   9.421  1.00 56.00 LIG 0.67  C 
ATOM     63  NH1 ARG E1022     -49.339  28.574   9.688  1.00 48.69 LIG-0.23  N 
ATOM     64  NH2 ARG E1022     -47.548  27.287  10.297  1.00 32.20 LIG-0.23  N 
ATOM     65 1HH1 ARG E1022     -49.736  29.079   9.116  1.00 48.69 LIG 0.17  HD
ATOM     66 2HH1 ARG E1022     -49.724  28.380  10.432  1.00 48.69 LIG 0.17  HD
ATOM     67 2HH2 ARG E1022     -47.942  27.101  11.038  1.00 32.20 LIG 0.17  HD
ATOM     68 1HH2 ARG E1022     -46.774  26.952  10.126  1.00 32.20 LIG 0.17  HD
ATOM     69 HE   ARG E1022     -46.750  28.030   8.141  1.00 55.98 LIG 0.18  HD
ENDBRANCH 60 61
ENDBRANCH 59 60
ENDBRANCH 58 59
ENDBRANCH 47 58
ENDBRANCH 44 47
ENDBRANCH 42 43
BRANCH 42 70
ATOM     70  CB  ILE E1023     -49.214  29.125   0.289  1.00 38.78 LIG 0.01  C 
ATOM     71  CG2 ILE E1023     -49.481  28.405  -1.042  1.00 39.01 LIG 0.01  C 
BRANCH 70 72
ATOM     72  CG1 ILE E1023     -49.872  30.537   0.311  1.00 39.61 LIG 0.00  C 
ATOM     73  CD1 ILE E1023     -48.973  31.726   0.083  1.00 43.21 LIG 0.01  C 
ENDBRANCH 70 72
ENDBRANCH 42 70
ENDBRANCH 1 42
TORSDOF 26
ENDMDL
MODEL 12
USER: ADFR SOLUTION from run 20
USER: SCORE 23.020363 LL:  -6.182 LR: -18.396 RR:   0.000 FEB: -10.640
USER: RMSD 12.930927
USER: SEED 19
USER: STATUS searching
USER: GENES 28
USER: genes 0 Translation |==|  0.46951 0.55310 0.51773
USER: genes 1 Rotation |==|  0.82726 0.84145 0.33972 0.52510
USER: genes 2 Torsion [N]-CA--C-[O] |==|  0.19144
USER: genes 3 Torsion [C]-N--CA-[CB] |==|  0.76092
USER: genes 4 Torsion [N]-CA--C-[N] |==|  0.31117
USER: genes 5 Torsion [C]-N--CA-[C] |==|  0.63427
USER: genes 6 Torsion [N]-CA--CB-[CG] |==|  0.86943
USER: genes 7 Torsion [CA]-CB--CG-[CD1] |==|  0.30077
USER: genes 8 Torsion [N]-CA--C-[N] |==|  0.78905
USER: genes 9 Torsion [C]-N--CA-[C] |==|  0.71530
USER: genes 10 Torsion [N]-CA--CB-[CG] |==|  0.90550
USER: genes 11 Torsion [CA]-CB--CG-[OD1] |==|  0.79380
USER: genes 12 Torsion [N]-CA--C-[O] |==|  0.07267
USER: genes 13 Torsion [N]-CA--CB-[CG2] |==|  0.71659
USER: genes 14 Torsion [CA]-CB--CG1-[CD1] |==|  0.33509
USER: genes 15 Torsion [N]-C--CA-[N] |==|  0.26434
USER: genes 16 Torsion [C]-CA--N-[C] |==|  0.59112
USER: genes 17 Torsion [N]-C--CA-[N] |==|  0.91072
USER: genes 18 Torsion [C]-CA--N-[C] |==|  0.67302
USER: genes 19 Torsion [N]-C--CA-[N] |==|  0.38804
USER: genes 20 Torsion [C]-CA--CB-[CG1] |==|  0.13371
USER: genes 21 Torsion [CA]-CB--CG1-[CD1] |==|  0.54922
USER: genes 22 Torsion [C]-CA--CB-[CG] |==|  0.25072
USER: genes 23 Torsion [CA]-CB--CG-[CD] |==|  0.74012
USER: genes 24 Torsion [CB]-CG--CD-[NE] |==|  0.52514
USER: genes 25 Torsion [CG]-CD--NE-[CZ] |==|  0.22616
USER: genes 26 Torsion [C]-CA--CB-[CG1] |==|  0.52398
USER: genes 27 Torsion [CA]-CB--CG1-[CD1] |==|  0.48419
ROOT
ATOM      1  C   ILE E1023     -48.813  26.265   0.963  1.00 40.02 LIG 0.24  C 
ATOM      2 O    ILE E1023     -47.608  26.349   0.683  1.00 38.38 LIG-0.27  OA
ATOM      3  N   PRO E1024     -49.498  25.094   0.938  1.00 37.38 LIG-0.34  N 
ATOM      4  CA  PRO E1024     -48.839  23.883   0.427  1.00 36.67 LIG 0.18  C 
ATOM      5  CB  PRO E1024     -49.756  22.755   0.891  1.00 38.74 LIG 0.04  C 
ATOM      6  CG  PRO E1024     -51.101  23.371   0.980  1.00 43.33 LIG 0.02  C 
ATOM      7  CD  PRO E1024     -50.925  24.839   1.242  1.00 39.42 LIG 0.13  C 
ENDROOT
BRANCH 4 8
ATOM      8  C   PRO E1024     -48.761  23.967  -1.092  1.00 39.60 LIG 0.24  C 
ATOM      9 O    PRO E1024     -48.017  24.799  -1.608  1.00 37.18 LIG-0.27  OA
ATOM     10  N   ILE E1025     -49.502  23.082  -1.790  1.00 37.20 LIG-0.35  N 
ATOM     11 H    ILE E1025     -50.005  22.507  -1.394  1.00 37.20 LIG 0.16  HD
BRANCH 10 12
ATOM     12  CA  ILE E1025     -49.568  22.958  -3.253  1.00 37.42 LIG 0.18  C 
BRANCH 12 13
ATOM     13  C   ILE E1025     -48.256  23.403  -3.893  1.00 40.88 LIG 0.24  C 
ATOM     14 O    ILE E1025     -48.032  24.608  -4.019  1.00 40.29 LIG-0.27  OA
ATOM     15  N   PHE E1026     -47.497  22.464  -4.492  1.00 36.23 LIG-0.35  N 
ATOM     16 H    PHE E1026     -47.621  21.617  -4.411  1.00 36.23 LIG 0.16  HD
BRANCH 15 17
ATOM     17  CA  PHE E1026     -46.368  22.839  -5.354  1.00 36.58 LIG 0.18  C 
BRANCH 17 18
ATOM     18  CB  PHE E1026     -45.029  22.604  -4.661  1.00 38.58 LIG 0.07  C 
BRANCH 18 19
ATOM     19  CG  PHE E1026     -45.006  23.140  -3.260  1.00 40.24 LIG-0.06  A 
ATOM     20  CD1 PHE E1026     -45.017  22.284  -2.179  1.00 42.20 LIG 0.01  A 
ATOM     21  CE1 PHE E1026     -45.008  22.780  -0.887  1.00 42.54 LIG 0.00  A 
ATOM     22  CZ  PHE E1026     -44.985  24.133  -0.669  1.00 41.81 LIG 0.00  A 
ATOM     23  CE2 PHE E1026     -44.981  25.002  -1.727  1.00 44.36 LIG 0.00  A 
ATOM     24  CD2 PHE E1026     -44.996  24.508  -3.022  1.00 42.30 LIG 0.01  A 
ENDBRANCH 18 19
ENDBRANCH 17 18
BRANCH 17 25
ATOM     25  C   PHE E1026     -46.414  22.081  -6.667  1.00 38.60 LIG 0.24  C 
ATOM     26  N   ASN E1027     -46.029  20.781  -6.618  1.00 38.80 LIG-0.35  N 
ATOM     27 H    ASN E1027     -45.750  20.410  -5.893  1.00 38.80 LIG 0.16  HD
ATOM     28 O    PHE E1026     -46.844  22.633  -7.677  1.00 31.59 LIG-0.27  OA
BRANCH 26 29
ATOM     29  CA  ASN E1027     -46.037  19.864  -7.764  1.00 74.37 LIG 0.17  C 
BRANCH 29 30
ATOM     30  CB  ASN E1027     -44.757  19.036  -7.790  1.00 75.17 LIG 0.14  C 
BRANCH 30 31
ATOM     31  CG  ASN E1027     -43.551  19.790  -7.288  1.00 99.64 LIG 0.22  C 
ATOM     32  ND2 ASN E1027     -43.094  19.485  -6.076  1.00 92.55 LIG-0.37  N 
ATOM     33 22HD ASN E1027     -43.481  18.872  -5.613  1.00 92.55 LIG 0.16  HD
ATOM     34 21HD ASN E1027     -42.413  19.900  -5.756  1.00 92.55 LIG 0.16  HD
ATOM     35 OD1  ASN E1027     -43.018  20.663  -7.976  1.00 94.01 LIG-0.27  OA
ENDBRANCH 30 31
ENDBRANCH 29 30
BRANCH 29 36
ATOM     36  C   ASN E1027     -47.243  18.930  -7.683  1.00103.37 LIG 0.22  C 
ATOM     37 O    ASN E1027     -48.258  19.277  -7.084  1.00 69.20 LIG-0.29  OA
ENDBRANCH 29 36
ENDBRANCH 26 29
ENDBRANCH 17 25
ENDBRANCH 15 17
ENDBRANCH 12 13
BRANCH 12 38
ATOM     38  CB  ILE E1025     -50.667  23.975  -3.791  1.00 40.50 LIG 0.01  C 
ATOM     39  CG2 ILE E1025     -51.983  23.263  -4.135  1.00 43.95 LIG 0.01  C 
BRANCH 38 40
ATOM     40  CG1 ILE E1025     -50.916  25.150  -2.846  1.00 41.58 LIG 0.00  C 
ATOM     41  CD1 ILE E1025     -50.619  26.590  -3.540  1.00 52.05 LIG 0.01  C 
ENDBRANCH 38 40
ENDBRANCH 12 38
ENDBRANCH 10 12
ENDBRANCH 4 8
BRANCH 1 42
ATOM     42  CA  ILE E1023     -49.529  27.511   1.453  1.00 36.06 LIG 0.18  C 
BRANCH 42 43
ATOM     43  N   ILE E1023     -49.203  27.652   2.885  1.00 37.96 LIG-0.35  N 
ATOM     44  C   ARG E1022     -50.063  28.173   3.786  1.00 45.42 LIG 0.24  C 
ATOM     45 O    ARG E1022     -51.159  28.642   3.477  1.00 45.23 LIG-0.27  OA
ATOM     46 H    ILE E1023     -48.416  27.373   3.091  1.00 37.96 LIG 0.16  HD
BRANCH 44 47
ATOM     47  CA  ARG E1022     -49.627  28.249   5.249  1.00 45.59 LIG 0.18  C 
BRANCH 47 48
ATOM     48  N   ARG E1022     -48.728  27.151   5.644  1.00 48.30 LIG-0.35  N 
ATOM     49 H    ARG E1022     -47.981  27.133   5.219  1.00 48.30 LIG 0.16  HD
ATOM     50  C   ILE E1021     -49.074  26.260   6.599  1.00 57.51 LIG 0.26  C 
ATOM     51 O    ILE E1021     -50.154  26.309   7.201  1.00 59.03 LIG-0.27  OA
BRANCH 50 52
ATOM     52  CA  ILE E1021     -48.069  25.151   6.954  1.00 57.59 LIG 0.40  C 
ATOM     53  N   ILE E1021     -48.075  24.960   8.401  1.00 58.96 LIG 0.61  N 
BRANCH 52 54
ATOM     54  CB  ILE E1021     -48.430  23.783   6.309  1.00 60.58 LIG 0.03  C 
ATOM     55  CG2 ILE E1021     -49.575  23.075   7.027  1.00 61.37 LIG 0.01  C 
BRANCH 54 56
ATOM     56  CG1 ILE E1021     -48.749  23.958   4.804  1.00 60.59 LIG 0.00  C 
ATOM     57  CD1 ILE E1021     -49.491  22.805   4.238  1.00 60.15 LIG 0.01  C 
ENDBRANCH 54 56
ENDBRANCH 52 54
ENDBRANCH 50 52
ENDBRANCH 47 48
BRANCH 47 58
ATOM     58  CB  ARG E1022     -48.995  29.624   5.500  1.00 44.33 LIG 0.04  C 
BRANCH 58 59
ATOM     59  CG  ARG E1022     -50.003  30.673   5.952  1.00 47.73 LIG 0.02  C 
BRANCH 59 60
ATOM     60  CD  ARG E1022     -50.566  31.489   4.807  1.00 47.87 LIG 0.14  C 
BRANCH 60 61
ATOM     61  NE  ARG E1022     -51.356  32.611   5.312  1.00 55.98 LIG-0.23  N 
ATOM     62  CZ  ARG E1022     -50.882  33.777   5.741  1.00 56.00 LIG 0.67  C 
ATOM     63  NH1 ARG E1022     -49.577  34.028   5.715  1.00 48.69 LIG-0.23  N 
ATOM     64  NH2 ARG E1022     -51.711  34.718   6.169  1.00 32.20 LIG-0.23  N 
ATOM     65 1HH1 ARG E1022     -49.031  33.432   5.418  1.00 48.69 LIG 0.17  HD
ATOM     66 2HH1 ARG E1022     -49.279  34.784   5.994  1.00 48.69 LIG 0.17  HD
ATOM     67 2HH2 ARG E1022     -51.400  35.470   6.446  1.00 32.20 LIG 0.17  HD
ATOM     68 1HH2 ARG E1022     -52.559  34.575   6.170  1.00 32.20 LIG 0.17  HD
ATOM     69 HE   ARG E1022     -52.210  32.507   5.333  1.00 55.98 LIG 0.18  HD
ENDBRANCH 60 61
ENDBRANCH 59 60
ENDBRANCH 58 59
ENDBRANCH 47 58
ENDBRANCH 44 47
ENDBRANCH 42 43
BRANCH 42 70
ATOM     70  CB  ILE E1023     -49.078  28.740   0.596  1.00 38.78 LIG 0.01  C 
ATOM     71  CG2 ILE E1023     -49.477  28.551  -0.875  1.00 39.01 LIG 0.01  C 
BRANCH 70 72
ATOM     72  CG1 ILE E1023     -49.590  30.103   1.152  1.00 39.61 LIG 0.00  C 
ATOM     73  CD1 ILE E1023     -49.100  31.357   0.473  1.00 43.21 LIG 0.01  C 
ENDBRANCH 70 72
ENDBRANCH 42 70
ENDBRANCH 1 42
TORSDOF 26
ENDMDL
MODEL 13
USER: ADFR SOLUTION from run 137
USER: SCORE 23.442003 LL:  -6.052 LR: -18.367 RR:   0.000 FEB: -10.611
USER: RMSD 5.007602
USER: SEED 136
USER: STATUS no improvement in best in 6 clusters for 5 generations
USER: GENES 28
USER: genes 0 Translation |==|  0.47000 0.58862 0.50981
USER: genes 1 Rotation |==|  0.55247 0.27767 0.10492 0.70428
USER: genes 2 Torsion [N]-CA--C-[O] |==|  0.67924
USER: genes 3 Torsion [C]-N--CA-[CB] |==|  0.49451
USER: genes 4 Torsion [N]-CA--C-[N] |==|  0.44760
USER: genes 5 Torsion [C]-N--CA-[C] |==|  0.16379
USER: genes 6 Torsion [N]-CA--CB-[CG] |==|  0.88185
USER: genes 7 Torsion [CA]-CB--CG-[CD1] |==|  0.82866
USER: genes 8 Torsion [N]-CA--C-[N] |==|  0.10520
USER: genes 9 Torsion [C]-N--CA-[C] |==|  0.75661
USER: genes 10 Torsion [N]-CA--CB-[CG] |==|  0.13583
USER: genes 11 Torsion [CA]-CB--CG-[OD1] |==|  0.26812
USER: genes 12 Torsion [N]-CA--C-[O] |==|  0.31011
USER: genes 13 Torsion [N]-CA--CB-[CG2] |==|  0.57765
USER: genes 14 Torsion [CA]-CB--CG1-[CD1] |==|  0.55369
USER: genes 15 Torsion [N]-C--CA-[N] |==|  0.33972
USER: genes 16 Torsion [C]-CA--N-[C] |==|  0.86921
USER: genes 17 Torsion [N]-C--CA-[N] |==|  0.39253
USER: genes 18 Torsion [C]-CA--N-[C] |==|  0.79087
USER: genes 19 Torsion [N]-C--CA-[N] |==|  0.51363
USER: genes 20 Torsion [C]-CA--CB-[CG1] |==|  0.55090
USER: genes 21 Torsion [CA]-CB--CG1-[CD1] |==|  0.31228
USER: genes 22 Torsion [C]-CA--CB-[CG] |==|  0.36981
USER: genes 23 Torsion [CA]-CB--CG-[CD] |==|  0.02812
USER: genes 24 Torsion [CB]-CG--CD-[NE] |==|  0.25854
USER: genes 25 Torsion [CG]-CD--NE-[CZ] |==|  0.48105
USER: genes 26 Torsion [C]-CA--CB-[CG1] |==|  0.46008
USER: genes 27 Torsion [CA]-CB--CG1-[CD1] |==|  0.15513
ROOT
ATOM      1  C   ILE E1023     -48.806  27.090   0.738  1.00 40.02 LIG 0.24  C 
ATOM      2 O    ILE E1023     -48.033  26.579   1.562  1.00 38.38 LIG-0.27  OA
ATOM      3  N   PRO E1024     -48.980  28.431   0.619  1.00 37.38 LIG-0.34  N 
ATOM      4  CA  PRO E1024     -48.339  29.330   1.590  1.00 36.67 LIG 0.18  C 
ATOM      5  CB  PRO E1024     -48.452  30.703   0.933  1.00 38.74 LIG 0.04  C 
ATOM      6  CG  PRO E1024     -49.661  30.619   0.081  1.00 43.33 LIG 0.02  C 
ATOM      7  CD  PRO E1024     -49.859  29.181  -0.307  1.00 39.42 LIG 0.13  C 
ENDROOT
BRANCH 4 8
ATOM      8  C   PRO E1024     -49.105  29.262   2.905  1.00 39.60 LIG 0.24  C 
ATOM      9 O    PRO E1024     -49.685  30.268   3.312  1.00 37.18 LIG-0.27  OA
ATOM     10  N   ILE E1025     -49.130  28.070   3.536  1.00 37.20 LIG-0.35  N 
ATOM     11 H    ILE E1025     -48.721  27.385   3.217  1.00 37.20 LIG 0.16  HD
BRANCH 10 12
ATOM     12  CA  ILE E1025     -49.820  27.762   4.796  1.00 37.42 LIG 0.18  C 
BRANCH 12 13
ATOM     13  C   ILE E1025     -49.179  28.511   5.962  1.00 40.88 LIG 0.24  C 
ATOM     14 O    ILE E1025     -47.977  28.779   5.909  1.00 40.29 LIG-0.27  OA
ATOM     15  N   PHE E1026     -49.899  28.654   7.092  1.00 36.23 LIG-0.35  N 
ATOM     16 H    PHE E1026     -50.741  28.489   7.154  1.00 36.23 LIG 0.16  HD
BRANCH 15 17
ATOM     17  CA  PHE E1026     -49.272  29.119   8.336  1.00 36.58 LIG 0.18  C 
BRANCH 17 18
ATOM     18  CB  PHE E1026     -48.225  28.131   8.841  1.00 38.58 LIG 0.07  C 
BRANCH 18 19
ATOM     19  CG  PHE E1026     -48.681  26.706   8.733  1.00 40.24 LIG-0.06  A 
ATOM     20  CD1 PHE E1026     -49.792  26.269   9.422  1.00 42.20 LIG 0.01  A 
ATOM     21  CE1 PHE E1026     -50.205  24.951   9.330  1.00 42.54 LIG 0.00  A 
ATOM     22  CZ  PHE E1026     -49.511  24.064   8.548  1.00 41.81 LIG 0.00  A 
ATOM     23  CE2 PHE E1026     -48.401  24.475   7.861  1.00 44.36 LIG 0.00  A 
ATOM     24  CD2 PHE E1026     -47.981  25.792   7.955  1.00 42.30 LIG 0.01  A 
ENDBRANCH 18 19
ENDBRANCH 17 18
BRANCH 17 25
ATOM     25  C   PHE E1026     -48.646  30.489   8.147  1.00 38.60 LIG 0.24  C 
ATOM     26  N   ASN E1027     -49.333  31.353   7.359  1.00 38.80 LIG-0.35  N 
ATOM     27 H    ASN E1027     -50.067  31.135   6.967  1.00 38.80 LIG 0.16  HD
ATOM     28 O    PHE E1026     -47.610  30.775   8.743  1.00 31.59 LIG-0.27  OA
BRANCH 26 29
ATOM     29  CA  ASN E1027     -48.923  32.735   7.080  1.00 74.37 LIG 0.17  C 
BRANCH 29 30
ATOM     30  CB  ASN E1027     -49.437  33.175   5.714  1.00 75.17 LIG 0.14  C 
BRANCH 30 31
ATOM     31  CG  ASN E1027     -50.902  32.880   5.506  1.00 99.64 LIG 0.22  C 
ATOM     32  ND2 ASN E1027     -51.232  31.660   5.093  1.00 92.55 LIG-0.37  N 
ATOM     33 22HD ASN E1027     -50.619  31.071   4.960  1.00 92.55 LIG 0.16  HD
ATOM     34 21HD ASN E1027     -52.057  31.459   4.958  1.00 92.55 LIG 0.16  HD
ATOM     35 OD1  ASN E1027     -51.757  33.746   5.705  1.00 94.01 LIG-0.27  OA
ENDBRANCH 30 31
ENDBRANCH 29 30
BRANCH 29 36
ATOM     36  C   ASN E1027     -49.469  33.673   8.154  1.00103.37 LIG 0.22  C 
ATOM     37 O    ASN E1027     -48.706  34.223   8.944  1.00 69.20 LIG-0.29  OA
ENDBRANCH 29 36
ENDBRANCH 26 29
ENDBRANCH 17 25
ENDBRANCH 15 17
ENDBRANCH 12 13
BRANCH 12 38
ATOM     38  CB  ILE E1025     -49.608  26.218   5.118  1.00 40.50 LIG 0.01  C 
ATOM     39  CG2 ILE E1025     -50.767  25.645   5.947  1.00 43.95 LIG 0.01  C 
BRANCH 38 40
ATOM     40  CG1 ILE E1025     -49.360  25.370   3.871  1.00 41.58 LIG 0.00  C 
ATOM     41  CD1 ILE E1025     -49.640  23.789   4.120  1.00 52.05 LIG 0.01  C 
ENDBRANCH 38 40
ENDBRANCH 12 38
ENDBRANCH 10 12
ENDBRANCH 4 8
BRANCH 1 42
ATOM     42  CA  ILE E1023     -49.514  26.179  -0.250  1.00 36.06 LIG 0.18  C 
BRANCH 42 43
ATOM     43  N   ILE E1023     -48.466  25.380  -0.915  1.00 37.96 LIG-0.35  N 
ATOM     44  C   ARG E1022     -47.335  25.923  -1.413  1.00 45.42 LIG 0.24  C 
ATOM     45 O    ARG E1022     -47.118  27.135  -1.423  1.00 45.23 LIG-0.27  OA
ATOM     46 H    ILE E1023     -48.644  24.540  -0.954  1.00 37.96 LIG 0.16  HD
BRANCH 44 47
ATOM     47  CA  ARG E1022     -46.306  24.994  -2.060  1.00 45.59 LIG 0.18  C 
BRANCH 47 48
ATOM     48  N   ARG E1022     -45.674  25.575  -3.256  1.00 48.30 LIG-0.35  N 
ATOM     49 H    ARG E1022     -44.868  25.850  -3.134  1.00 48.30 LIG 0.16  HD
ATOM     50  C   ILE E1021     -46.327  25.656  -4.436  1.00 57.51 LIG 0.26  C 
ATOM     51 O    ILE E1021     -47.486  25.249  -4.589  1.00 59.03 LIG-0.27  OA
BRANCH 50 52
ATOM     52  CA  ILE E1021     -45.585  26.268  -5.635  1.00 57.59 LIG 0.40  C 
ATOM     53  N   ILE E1021     -46.510  26.362  -6.760  1.00 58.96 LIG 0.61  N 
BRANCH 52 54
ATOM     54  CB  ILE E1021     -45.064  27.705  -5.350  1.00 60.58 LIG 0.03  C 
ATOM     55  CG2 ILE E1021     -43.856  27.722  -4.417  1.00 61.37 LIG 0.01  C 
BRANCH 54 56
ATOM     56  CG1 ILE E1021     -44.746  28.443  -6.673  1.00 60.59 LIG 0.00  C 
ATOM     57  CD1 ILE E1021     -45.668  29.576  -6.934  1.00 60.15 LIG 0.01  C 
ENDBRANCH 54 56
ENDBRANCH 52 54
ENDBRANCH 50 52
ENDBRANCH 47 48
BRANCH 47 58
ATOM     58  CB  ARG E1022     -45.272  24.597  -1.000  1.00 44.33 LIG 0.04  C 
BRANCH 58 59
ATOM     59  CG  ARG E1022     -44.975  23.102  -0.982  1.00 47.73 LIG 0.02  C 
BRANCH 59 60
ATOM     60  CD  ARG E1022     -45.573  22.364  -2.162  1.00 47.87 LIG 0.14  C 
BRANCH 60 61
ATOM     61  NE  ARG E1022     -44.606  22.267  -3.254  1.00 55.98 LIG-0.23  N 
ATOM     62  CZ  ARG E1022     -44.758  21.576  -4.381  1.00 56.00 LIG 0.67  C 
ATOM     63  NH1 ARG E1022     -45.881  20.905  -4.616  1.00 48.69 LIG-0.23  N 
ATOM     64  NH2 ARG E1022     -43.803  21.576  -5.298  1.00 32.20 LIG-0.23  N 
ATOM     65 1HH1 ARG E1022     -46.517  20.915  -4.037  1.00 48.69 LIG 0.17  HD
ATOM     66 2HH1 ARG E1022     -45.971  20.461  -5.346  1.00 48.69 LIG 0.17  HD
ATOM     67 2HH2 ARG E1022     -43.905  21.128  -6.025  1.00 32.20 LIG 0.17  HD
ATOM     68 1HH2 ARG E1022     -43.081  22.024  -5.166  1.00 32.20 LIG 0.17  HD
ATOM     69 HE   ARG E1022     -43.868  22.698  -3.159  1.00 55.98 LIG 0.18  HD
ENDBRANCH 60 61
ENDBRANCH 59 60
ENDBRANCH 58 59
ENDBRANCH 47 58
ENDBRANCH 44 47
ENDBRANCH 42 43
BRANCH 42 70
ATOM     70  CB  ILE E1023     -50.564  25.304   0.511  1.00 38.78 LIG 0.01  C 
ATOM     71  CG2 ILE E1023     -51.281  26.132   1.588  1.00 39.01 LIG 0.01  C 
BRANCH 70 72
ATOM     72  CG1 ILE E1023     -51.583  24.599  -0.434  1.00 39.61 LIG 0.00  C 
ATOM     73  CD1 ILE E1023     -51.024  23.721  -1.526  1.00 43.21 LIG 0.01  C 
ENDBRANCH 70 72
ENDBRANCH 42 70
ENDBRANCH 1 42
TORSDOF 26
ENDMDL
MODEL 14
USER: ADFR SOLUTION from run 3
USER: SCORE 23.452694 LL:  -6.128 LR: -18.359 RR:   0.000 FEB: -10.603
USER: RMSD 4.063157
USER: SEED 457125
USER: STATUS no improvement in best in 12 clusters for 5 generations
USER: GENES 28
USER: genes 0 Translation |==|  0.43016 0.50283 0.41546
USER: genes 1 Rotation |==|  0.51071 0.51515 0.57763 0.99359
USER: genes 2 Torsion [N]-CA--C-[O] |==|  0.74995
USER: genes 3 Torsion [C]-N--CA-[CB] |==|  0.56278
USER: genes 4 Torsion [N]-CA--C-[N] |==|  0.37222
USER: genes 5 Torsion [C]-N--CA-[C] |==|  0.67661
USER: genes 6 Torsion [N]-CA--CB-[CG] |==|  0.86079
USER: genes 7 Torsion [CA]-CB--CG-[CD1] |==|  0.85432
USER: genes 8 Torsion [N]-CA--C-[N] |==|  0.28155
USER: genes 9 Torsion [C]-N--CA-[C] |==|  0.61272
USER: genes 10 Torsion [N]-CA--CB-[CG] |==|  0.39228
USER: genes 11 Torsion [CA]-CB--CG-[OD1] |==|  0.75813
USER: genes 12 Torsion [N]-CA--C-[O] |==|  0.10443
USER: genes 13 Torsion [N]-CA--CB-[CG2] |==|  0.43010
USER: genes 14 Torsion [CA]-CB--CG1-[CD1] |==|  0.61373
USER: genes 15 Torsion [N]-C--CA-[N] |==|  0.42741
USER: genes 16 Torsion [C]-CA--N-[C] |==|  0.83291
USER: genes 17 Torsion [N]-C--CA-[N] |==|  0.08067
USER: genes 18 Torsion [C]-CA--N-[C] |==|  0.63908
USER: genes 19 Torsion [N]-C--CA-[N] |==|  0.43096
USER: genes 20 Torsion [C]-CA--CB-[CG1] |==|  0.18154
USER: genes 21 Torsion [CA]-CB--CG1-[CD1] |==|  0.53832
USER: genes 22 Torsion [C]-CA--CB-[CG] |==|  0.35625
USER: genes 23 Torsion [CA]-CB--CG-[CD] |==|  0.06301
USER: genes 24 Torsion [CB]-CG--CD-[NE] |==|  0.62934
USER: genes 25 Torsion [CG]-CD--NE-[CZ] |==|  0.68180
USER: genes 26 Torsion [C]-CA--CB-[CG1] |==|  0.82173
USER: genes 27 Torsion [CA]-CB--CG1-[CD1] |==|  0.25672
ROOT
ATOM      1  C   ILE E1023     -49.404  25.096  -1.951  1.00 40.02 LIG 0.24  C 
ATOM      2 O    ILE E1023     -49.750  26.272  -2.134  1.00 38.38 LIG-0.27  OA
ATOM      3  N   PRO E1024     -50.035  24.265  -1.084  1.00 37.38 LIG-0.34  N 
ATOM      4  CA  PRO E1024     -51.092  24.800  -0.213  1.00 36.67 LIG 0.18  C 
ATOM      5  CB  PRO E1024     -51.785  23.548   0.317  1.00 38.74 LIG 0.04  C 
ATOM      6  CG  PRO E1024     -50.737  22.500   0.305  1.00 43.33 LIG 0.02  C 
ATOM      7  CD  PRO E1024     -49.739  22.851  -0.761  1.00 39.42 LIG 0.13  C 
ENDROOT
BRANCH 4 8
ATOM      8  C   PRO E1024     -50.447  25.611   0.904  1.00 39.60 LIG 0.24  C 
ATOM      9 O    PRO E1024     -50.138  25.046   1.952  1.00 37.18 LIG-0.27  OA
ATOM     10  N   ILE E1025     -50.217  26.917   0.655  1.00 37.20 LIG-0.35  N 
ATOM     11 H    ILE E1025     -50.438  27.276  -0.095  1.00 37.20 LIG 0.16  HD
BRANCH 10 12
ATOM     12  CA  ILE E1025     -49.588  27.883   1.566  1.00 37.42 LIG 0.18  C 
BRANCH 12 13
ATOM     13  C   ILE E1025     -50.109  27.702   2.990  1.00 40.88 LIG 0.24  C 
ATOM     14 O    ILE E1025     -51.321  27.777   3.195  1.00 40.29 LIG-0.27  OA
ATOM     15  N   PHE E1026     -49.208  27.687   3.993  1.00 36.23 LIG-0.35  N 
ATOM     16 H    PHE E1026     -48.358  27.621   3.879  1.00 36.23 LIG 0.16  HD
BRANCH 15 17
ATOM     17  CA  PHE E1026     -49.635  27.785   5.395  1.00 36.58 LIG 0.18  C 
BRANCH 17 18
ATOM     18  CB  PHE E1026     -49.197  26.567   6.203  1.00 38.58 LIG 0.07  C 
BRANCH 18 19
ATOM     19  CG  PHE E1026     -49.566  25.274   5.537  1.00 40.24 LIG-0.06  A 
ATOM     20  CD1 PHE E1026     -50.861  25.037   5.128  1.00 42.20 LIG 0.01  A 
ATOM     21  CE1 PHE E1026     -51.202  23.840   4.524  1.00 42.54 LIG 0.00  A 
ATOM     22  CZ  PHE E1026     -50.251  22.873   4.325  1.00 41.81 LIG 0.00  A 
ATOM     23  CE2 PHE E1026     -48.960  23.084   4.728  1.00 44.36 LIG 0.00  A 
ATOM     24  CD2 PHE E1026     -48.616  24.280   5.339  1.00 42.30 LIG 0.01  A 
ENDBRANCH 18 19
ENDBRANCH 17 18
BRANCH 17 25
ATOM     25  C   PHE E1026     -49.101  29.053   6.035  1.00 38.60 LIG 0.24  C 
ATOM     26  N   ASN E1027     -49.983  30.077   6.152  1.00 38.80 LIG-0.35  N 
ATOM     27 H    ASN E1027     -50.790  30.025   5.861  1.00 38.80 LIG 0.16  HD
ATOM     28 O    PHE E1026     -47.950  29.082   6.465  1.00 31.59 LIG-0.27  OA
BRANCH 26 29
ATOM     29  CA  ASN E1027     -49.680  31.371   6.775  1.00 74.37 LIG 0.17  C 
BRANCH 29 30
ATOM     30  CB  ASN E1027     -49.376  32.416   5.707  1.00 75.17 LIG 0.14  C 
BRANCH 30 31
ATOM     31  CG  ASN E1027     -49.942  33.777   6.029  1.00 99.64 LIG 0.22  C 
ATOM     32  ND2 ASN E1027     -49.157  34.633   6.677  1.00 92.55 LIG-0.37  N 
ATOM     33 22HD ASN E1027     -48.356  34.404   6.892  1.00 92.55 LIG 0.16  HD
ATOM     34 21HD ASN E1027     -49.450  35.415   6.883  1.00 92.55 LIG 0.16  HD
ATOM     35 OD1  ASN E1027     -51.094  34.076   5.708  1.00 94.01 LIG-0.27  OA
ENDBRANCH 30 31
ENDBRANCH 29 30
BRANCH 29 36
ATOM     36  C   ASN E1027     -50.864  31.839   7.620  1.00103.37 LIG 0.22  C 
ATOM     37 O    ASN E1027     -51.522  31.030   8.268  1.00 69.20 LIG-0.29  OA
ENDBRANCH 29 36
ENDBRANCH 26 29
ENDBRANCH 17 25
ENDBRANCH 15 17
ENDBRANCH 12 13
BRANCH 12 38
ATOM     38  CB  ILE E1025     -50.041  29.346   1.134  1.00 40.50 LIG 0.01  C 
ATOM     39  CG2 ILE E1025     -49.979  30.332   2.309  1.00 43.95 LIG 0.01  C 
BRANCH 38 40
ATOM     40  CG1 ILE E1025     -49.269  29.885  -0.070  1.00 41.58 LIG 0.00  C 
ATOM     41  CD1 ILE E1025     -48.877  31.455   0.087  1.00 52.05 LIG 0.01  C 
ENDBRANCH 38 40
ENDBRANCH 12 38
ENDBRANCH 10 12
ENDBRANCH 4 8
BRANCH 1 42
ATOM     42  CA  ILE E1023     -48.285  24.531  -2.810  1.00 36.06 LIG 0.18  C 
BRANCH 42 43
ATOM     43  N   ILE E1023     -48.221  25.366  -4.025  1.00 37.96 LIG-0.35  N 
ATOM     44  C   ARG E1022     -49.258  25.498  -4.879  1.00 45.42 LIG 0.24  C 
ATOM     45 O    ARG E1022     -50.313  24.876  -4.758  1.00 45.23 LIG-0.27  OA
ATOM     46 H    ILE E1023     -47.464  25.758  -4.137  1.00 37.96 LIG 0.16  HD
BRANCH 44 47
ATOM     47  CA  ARG E1022     -49.086  26.410  -6.095  1.00 45.59 LIG 0.18  C 
BRANCH 47 48
ATOM     48  N   ARG E1022     -47.693  26.495  -6.564  1.00 48.30 LIG-0.35  N 
ATOM     49 H    ARG E1022     -47.308  25.734  -6.675  1.00 48.30 LIG 0.16  HD
ATOM     50  C   ILE E1021     -47.093  27.684  -6.792  1.00 57.51 LIG 0.26  C 
ATOM     51 O    ILE E1021     -47.669  28.767  -6.629  1.00 59.03 LIG-0.27  OA
BRANCH 50 52
ATOM     52  CA  ILE E1021     -45.637  27.678  -7.289  1.00 57.59 LIG 0.40  C 
ATOM     53  N   ILE E1021     -45.385  28.919  -8.015  1.00 58.96 LIG 0.61  N 
BRANCH 52 54
ATOM     54  CB  ILE E1021     -44.606  27.608  -6.128  1.00 60.58 LIG 0.03  C 
ATOM     55  CG2 ILE E1021     -44.726  28.780  -5.158  1.00 61.37 LIG 0.01  C 
BRANCH 54 56
ATOM     56  CG1 ILE E1021     -44.722  26.259  -5.377  1.00 60.59 LIG 0.00  C 
ATOM     57  CD1 ILE E1021     -44.005  26.262  -4.079  1.00 60.15 LIG 0.01  C 
ENDBRANCH 54 56
ENDBRANCH 52 54
ENDBRANCH 50 52
ENDBRANCH 47 48
BRANCH 47 58
ATOM     58  CB  ARG E1022     -50.034  25.931  -7.202  1.00 44.33 LIG 0.04  C 
BRANCH 58 59
ATOM     59  CG  ARG E1022     -50.908  27.045  -7.765  1.00 47.73 LIG 0.02  C 
BRANCH 59 60
ATOM     60  CD  ARG E1022     -50.326  28.426  -7.547  1.00 47.87 LIG 0.14  C 
BRANCH 60 61
ATOM     61  NE  ARG E1022     -51.345  29.343  -7.040  1.00 55.98 LIG-0.23  N 
ATOM     62  CZ  ARG E1022     -51.829  30.409  -7.672  1.00 56.00 LIG 0.67  C 
ATOM     63  NH1 ARG E1022     -51.411  30.717  -8.894  1.00 48.69 LIG-0.23  N 
ATOM     64  NH2 ARG E1022     -52.761  31.157  -7.100  1.00 32.20 LIG-0.23  N 
ATOM     65 1HH1 ARG E1022     -50.822  30.226  -9.284  1.00 48.69 LIG 0.17  HD
ATOM     66 2HH1 ARG E1022     -51.729  31.408  -9.296  1.00 48.69 LIG 0.17  HD
ATOM     67 2HH2 ARG E1022     -53.071  31.845  -7.511  1.00 32.20 LIG 0.17  HD
ATOM     68 1HH2 ARG E1022     -53.055  30.954  -6.318  1.00 32.20 LIG 0.17  HD
ATOM     69 HE   ARG E1022     -51.663  29.177  -6.258  1.00 55.98 LIG 0.18  HD
ENDBRANCH 60 61
ENDBRANCH 59 60
ENDBRANCH 58 59
ENDBRANCH 47 58
ENDBRANCH 44 47
ENDBRANCH 42 43
BRANCH 42 70
ATOM     70  CB  ILE E1023     -46.951  24.533  -1.992  1.00 38.78 LIG 0.01  C 
ATOM     71  CG2 ILE E1023     -45.861  23.744  -2.732  1.00 39.01 LIG 0.01  C 
BRANCH 70 72
ATOM     72  CG1 ILE E1023     -46.459  25.963  -1.615  1.00 39.61 LIG 0.00  C 
ATOM     73  CD1 ILE E1023     -46.894  26.517  -0.281  1.00 43.21 LIG 0.01  C 
ENDBRANCH 70 72
ENDBRANCH 42 70
ENDBRANCH 1 42
TORSDOF 26
ENDMDL
MODEL 15
USER: ADFR SOLUTION from run 56
USER: SCORE 22.803491 LL:  -6.127 LR: -18.315 RR:   0.000 FEB: -10.559
USER: RMSD 12.410609
USER: SEED 55
USER: STATUS no improvement in best in 9 clusters for 5 generations
USER: GENES 28
USER: genes 0 Translation |==|  0.47738 0.56000 0.52823
USER: genes 1 Rotation |==|  0.82001 0.82231 0.29401 0.53583
USER: genes 2 Torsion [N]-CA--C-[O] |==|  0.20336
USER: genes 3 Torsion [C]-N--CA-[CB] |==|  0.76141
USER: genes 4 Torsion [N]-CA--C-[N] |==|  0.24892
USER: genes 5 Torsion [C]-N--CA-[C] |==|  0.18127
USER: genes 6 Torsion [N]-CA--CB-[CG] |==|  0.63001
USER: genes 7 Torsion [CA]-CB--CG-[CD1] |==|  0.80608
USER: genes 8 Torsion [N]-CA--C-[N] |==|  0.02180
USER: genes 9 Torsion [C]-N--CA-[C] |==|  0.56603
USER: genes 10 Torsion [N]-CA--CB-[CG] |==|  0.69827
USER: genes 11 Torsion [CA]-CB--CG-[OD1] |==|  0.52736
USER: genes 12 Torsion [N]-CA--C-[O] |==|  0.02494
USER: genes 13 Torsion [N]-CA--CB-[CG2] |==|  0.71428
USER: genes 14 Torsion [CA]-CB--CG1-[CD1] |==|  0.28239
USER: genes 15 Torsion [N]-C--CA-[N] |==|  0.22810
USER: genes 16 Torsion [C]-CA--N-[C] |==|  0.58898
USER: genes 17 Torsion [N]-C--CA-[N] |==|  0.93798
USER: genes 18 Torsion [C]-CA--N-[C] |==|  0.62265
USER: genes 19 Torsion [N]-C--CA-[N] |==|  0.41900
USER: genes 20 Torsion [C]-CA--CB-[CG1] |==|  0.11783
USER: genes 21 Torsion [CA]-CB--CG1-[CD1] |==|  0.49914
USER: genes 22 Torsion [C]-CA--CB-[CG] |==|  0.24507
USER: genes 23 Torsion [CA]-CB--CG-[CD] |==|  0.64249
USER: genes 24 Torsion [CB]-CG--CD-[NE] |==|  0.66261
USER: genes 25 Torsion [CG]-CD--NE-[CZ] |==|  0.18830
USER: genes 26 Torsion [C]-CA--CB-[CG1] |==|  0.56157
USER: genes 27 Torsion [CA]-CB--CG1-[CD1] |==|  0.60746
ROOT
ATOM      1  C   ILE E1023     -48.695  26.425   1.262  1.00 40.02 LIG 0.24  C 
ATOM      2 O    ILE E1023     -47.522  26.417   0.861  1.00 38.38 LIG-0.27  OA
ATOM      3  N   PRO E1024     -49.399  25.292   1.511  1.00 37.38 LIG-0.34  N 
ATOM      4  CA  PRO E1024     -48.814  23.989   1.167  1.00 36.67 LIG 0.18  C 
ATOM      5  CB  PRO E1024     -49.700  22.992   1.909  1.00 38.74 LIG 0.04  C 
ATOM      6  CG  PRO E1024     -51.020  23.659   2.011  1.00 43.33 LIG 0.02  C 
ATOM      7  CD  PRO E1024     -50.794  25.144   1.988  1.00 39.42 LIG 0.13  C 
ENDROOT
BRANCH 4 8
ATOM      8  C   PRO E1024     -48.883  23.800  -0.343  1.00 39.60 LIG 0.24  C 
ATOM      9 O    PRO E1024     -48.122  24.445  -1.062  1.00 37.18 LIG-0.27  OA
ATOM     10  N   ILE E1025     -49.769  22.893  -0.804  1.00 37.20 LIG-0.35  N 
ATOM     11 H    ILE E1025     -50.279  22.453  -0.270  1.00 37.20 LIG 0.16  HD
BRANCH 10 12
ATOM     12  CA  ILE E1025     -49.994  22.526  -2.209  1.00 37.42 LIG 0.18  C 
BRANCH 12 13
ATOM     13  C   ILE E1025     -48.717  22.705  -3.026  1.00 40.88 LIG 0.24  C 
ATOM     14 O    ILE E1025     -48.596  23.708  -3.731  1.00 40.29 LIG-0.27  OA
ATOM     15  N   PHE E1026     -47.873  21.657  -3.114  1.00 36.23 LIG-0.35  N 
ATOM     16 H    PHE E1026     -47.925  20.952  -2.626  1.00 36.23 LIG 0.16  HD
BRANCH 15 17
ATOM     17  CA  PHE E1026     -46.771  21.653  -4.084  1.00 36.58 LIG 0.18  C 
BRANCH 17 18
ATOM     18  CB  PHE E1026     -47.277  21.824  -5.513  1.00 38.58 LIG 0.07  C 
BRANCH 18 19
ATOM     19  CG  PHE E1026     -46.659  20.840  -6.463  1.00 40.24 LIG-0.06  A 
ATOM     20  CD1 PHE E1026     -45.328  20.935  -6.807  1.00 42.20 LIG 0.01  A 
ATOM     21  CE1 PHE E1026     -44.762  20.033  -7.692  1.00 42.54 LIG 0.00  A 
ATOM     22  CZ  PHE E1026     -45.524  19.032  -8.236  1.00 41.81 LIG 0.00  A 
ATOM     23  CE2 PHE E1026     -46.850  18.923  -7.914  1.00 44.36 LIG 0.00  A 
ATOM     24  CD2 PHE E1026     -47.421  19.828  -7.033  1.00 42.30 LIG 0.01  A 
ENDBRANCH 18 19
ENDBRANCH 17 18
BRANCH 17 25
ATOM     25  C   PHE E1026     -45.759  22.736  -3.758  1.00 38.60 LIG 0.24  C 
ATOM     26  N   ASN E1027     -45.942  23.386  -2.581  1.00 38.80 LIG-0.35  N 
ATOM     27 H    ASN E1027     -46.604  23.216  -2.059  1.00 38.80 LIG 0.16  HD
ATOM     28 O    PHE E1026     -44.810  22.934  -4.513  1.00 31.59 LIG-0.27  OA
BRANCH 26 29
ATOM     29  CA  ASN E1027     -45.058  24.436  -2.061  1.00 74.37 LIG 0.17  C 
BRANCH 29 30
ATOM     30  CB  ASN E1027     -45.411  25.783  -2.681  1.00 75.17 LIG 0.14  C 
BRANCH 30 31
ATOM     31  CG  ASN E1027     -44.380  26.273  -3.668  1.00 99.64 LIG 0.22  C 
ATOM     32  ND2 ASN E1027     -43.418  25.426  -4.023  1.00 92.55 LIG-0.37  N 
ATOM     33 22HD ASN E1027     -43.403  24.631  -3.698  1.00 92.55 LIG 0.16  HD
ATOM     34 21HD ASN E1027     -42.810  25.675  -4.579  1.00 92.55 LIG 0.16  HD
ATOM     35 OD1  ASN E1027     -44.428  27.419  -4.117  1.00 94.01 LIG-0.27  OA
ENDBRANCH 30 31
ENDBRANCH 29 30
BRANCH 29 36
ATOM     36  C   ASN E1027     -45.185  24.528  -0.542  1.00103.37 LIG 0.22  C 
ATOM     37 O    ASN E1027     -45.819  23.680   0.080  1.00 69.20 LIG-0.29  OA
ENDBRANCH 29 36
ENDBRANCH 26 29
ENDBRANCH 17 25
ENDBRANCH 15 17
ENDBRANCH 12 13
BRANCH 12 38
ATOM     38  CB  ILE E1025     -51.041  23.551  -2.831  1.00 40.50 LIG 0.01  C 
ATOM     39  CG2 ILE E1025     -52.441  22.933  -2.948  1.00 43.95 LIG 0.01  C 
BRANCH 38 40
ATOM     40  CG1 ILE E1025     -51.095  24.885  -2.087  1.00 41.58 LIG 0.00  C 
ATOM     41  CD1 ILE E1025     -50.283  26.066  -2.854  1.00 52.05 LIG 0.01  C 
ENDBRANCH 38 40
ENDBRANCH 12 38
ENDBRANCH 10 12
ENDBRANCH 4 8
BRANCH 1 42
ATOM     42  CA  ILE E1023     -49.339  27.762   1.585  1.00 36.06 LIG 0.18  C 
BRANCH 42 43
ATOM     43  N   ILE E1023     -49.137  27.992   3.029  1.00 37.96 LIG-0.35  N 
ATOM     44  C   ARG E1022     -50.022  28.666   3.795  1.00 45.42 LIG 0.24  C 
ATOM     45 O    ARG E1022     -51.028  29.210   3.340  1.00 45.23 LIG-0.27  OA
ATOM     46 H    ILE E1023     -48.407  27.657   3.335  1.00 37.96 LIG 0.16  HD
BRANCH 44 47
ATOM     47  CA  ARG E1022     -49.721  28.823   5.286  1.00 45.59 LIG 0.18  C 
BRANCH 47 48
ATOM     48  N   ARG E1022     -48.793  27.803   5.801  1.00 48.30 LIG-0.35  N 
ATOM     49 H    ARG E1022     -48.115  27.652   5.295  1.00 48.30 LIG 0.16  HD
ATOM     50  C   ILE E1021     -49.012  27.172   6.976  1.00 57.51 LIG 0.26  C 
ATOM     51 O    ILE E1021     -49.995  27.410   7.690  1.00 59.03 LIG-0.27  OA
BRANCH 50 52
ATOM     52  CA  ILE E1021     -47.984  26.127   7.440  1.00 57.59 LIG 0.40  C 
ATOM     53  N   ILE E1021     -47.981  26.090   8.900  1.00 58.96 LIG 0.61  N 
BRANCH 52 54
ATOM     54  CB  ILE E1021     -48.321  24.692   6.946  1.00 60.58 LIG 0.03  C 
ATOM     55  CG2 ILE E1021     -49.350  23.989   7.826  1.00 61.37 LIG 0.01  C 
BRANCH 54 56
ATOM     56  CG1 ILE E1021     -48.787  24.719   5.470  1.00 60.59 LIG 0.00  C 
ATOM     57  CD1 ILE E1021     -49.114  23.371   4.947  1.00 60.15 LIG 0.01  C 
ENDBRANCH 54 56
ENDBRANCH 52 54
ENDBRANCH 50 52
ENDBRANCH 47 48
BRANCH 47 58
ATOM     58  CB  ARG E1022     -49.204  30.245   5.533  1.00 44.33 LIG 0.04  C 
BRANCH 58 59
ATOM     59  CG  ARG E1022     -50.317  31.250   5.805  1.00 47.73 LIG 0.02  C 
BRANCH 59 60
ATOM     60  CD  ARG E1022     -50.229  32.485   4.933  1.00 47.87 LIG 0.14  C 
BRANCH 60 61
ATOM     61  NE  ARG E1022     -50.118  33.690   5.754  1.00 55.98 LIG-0.23  N 
ATOM     62  CZ  ARG E1022     -49.082  34.030   6.516  1.00 56.00 LIG 0.67  C 
ATOM     63  NH1 ARG E1022     -47.999  33.261   6.566  1.00 48.69 LIG-0.23  N 
ATOM     64  NH2 ARG E1022     -49.105  35.158   7.209  1.00 32.20 LIG-0.23  N 
ATOM     65 1HH1 ARG E1022     -47.964  32.537   6.103  1.00 48.69 LIG 0.17  HD
ATOM     66 2HH1 ARG E1022     -47.333  33.488   7.061  1.00 48.69 LIG 0.17  HD
ATOM     67 2HH2 ARG E1022     -48.433  35.375   7.700  1.00 32.20 LIG 0.17  HD
ATOM     68 1HH2 ARG E1022     -49.792  35.674   7.167  1.00 32.20 LIG 0.17  HD
ATOM     69 HE   ARG E1022     -50.787  34.231   5.743  1.00 55.98 LIG 0.18  HD
ENDBRANCH 60 61
ENDBRANCH 59 60
ENDBRANCH 58 59
ENDBRANCH 47 58
ENDBRANCH 44 47
ENDBRANCH 42 43
BRANCH 42 70
ATOM     70  CB  ILE E1023     -48.699  28.876   0.692  1.00 38.78 LIG 0.01  C 
ATOM     71  CG2 ILE E1023     -49.243  28.799  -0.742  1.00 39.01 LIG 0.01  C 
BRANCH 70 72
ATOM     72  CG1 ILE E1023     -48.858  30.309   1.282  1.00 39.61 LIG 0.00  C 
ATOM     73  CD1 ILE E1023     -49.141  31.431   0.314  1.00 43.21 LIG 0.01  C 
ENDBRANCH 70 72
ENDBRANCH 42 70
ENDBRANCH 1 42
TORSDOF 26
ENDMDL
MODEL 16
USER: ADFR SOLUTION from run 3
USER: SCORE 23.393554 LL:  -6.229 LR: -18.260 RR:   0.000 FEB: -10.504
USER: RMSD 4.493340
USER: SEED 457125
USER: STATUS no improvement in best in 12 clusters for 5 generations
USER: GENES 28
USER: genes 0 Translation |==|  0.52068 0.46076 0.43499
USER: genes 1 Rotation |==|  0.43952 0.43025 0.51033 0.99129
USER: genes 2 Torsion [N]-CA--C-[O] |==|  0.86515
USER: genes 3 Torsion [C]-N--CA-[CB] |==|  0.54455
USER: genes 4 Torsion [N]-CA--C-[N] |==|  0.35170
USER: genes 5 Torsion [C]-N--CA-[C] |==|  0.66128
USER: genes 6 Torsion [N]-CA--CB-[CG] |==|  0.85655
USER: genes 7 Torsion [CA]-CB--CG-[CD1] |==|  0.85833
USER: genes 8 Torsion [N]-CA--C-[N] |==|  0.27932
USER: genes 9 Torsion [C]-N--CA-[C] |==|  0.60970
USER: genes 10 Torsion [N]-CA--CB-[CG] |==|  0.38340
USER: genes 11 Torsion [CA]-CB--CG-[OD1] |==|  0.76896
USER: genes 12 Torsion [N]-CA--C-[O] |==|  0.05392
USER: genes 13 Torsion [N]-CA--CB-[CG2] |==|  0.42964
USER: genes 14 Torsion [CA]-CB--CG1-[CD1] |==|  0.69490
USER: genes 15 Torsion [N]-C--CA-[N] |==|  0.35556
USER: genes 16 Torsion [C]-CA--N-[C] |==|  0.63114
USER: genes 17 Torsion [N]-C--CA-[N] |==|  0.45997
USER: genes 18 Torsion [C]-CA--N-[C] |==|  0.55825
USER: genes 19 Torsion [N]-C--CA-[N] |==|  0.37250
USER: genes 20 Torsion [C]-CA--CB-[CG1] |==|  0.16080
USER: genes 21 Torsion [CA]-CB--CG1-[CD1] |==|  0.50904
USER: genes 22 Torsion [C]-CA--CB-[CG] |==|  0.26796
USER: genes 23 Torsion [CA]-CB--CG-[CD] |==|  0.11784
USER: genes 24 Torsion [CB]-CG--CD-[NE] |==|  0.72321
USER: genes 25 Torsion [CG]-CD--NE-[CZ] |==|  0.33866
USER: genes 26 Torsion [C]-CA--CB-[CG1] |==|  0.82917
USER: genes 27 Torsion [CA]-CB--CG1-[CD1] |==|  0.23638
ROOT
ATOM      1  C   ILE E1023     -48.046  24.118  -1.395  1.00 40.02 LIG 0.24  C 
ATOM      2 O    ILE E1023     -47.945  25.243  -1.906  1.00 38.38 LIG-0.27  OA
ATOM      3  N   PRO E1024     -49.145  23.712  -0.711  1.00 37.38 LIG-0.34  N 
ATOM      4  CA  PRO E1024     -50.219  24.677  -0.435  1.00 36.67 LIG 0.18  C 
ATOM      5  CB  PRO E1024     -51.388  23.796  -0.003  1.00 38.74 LIG 0.04  C 
ATOM      6  CG  PRO E1024     -50.759  22.590   0.584  1.00 43.33 LIG 0.02  C 
ATOM      7  CD  PRO E1024     -49.408  22.414  -0.049  1.00 39.42 LIG 0.13  C 
ENDROOT
BRANCH 4 8
ATOM      8  C   PRO E1024     -49.768  25.612   0.680  1.00 39.60 LIG 0.24  C 
ATOM      9 O    PRO E1024     -49.280  25.132   1.702  1.00 37.18 LIG-0.27  OA
ATOM     10  N   ILE E1025     -49.901  26.936   0.458  1.00 37.20 LIG-0.35  N 
ATOM     11 H    ILE E1025     -50.239  27.236  -0.274  1.00 37.20 LIG 0.16  HD
BRANCH 10 12
ATOM     12  CA  ILE E1025     -49.515  28.019   1.372  1.00 37.42 LIG 0.18  C 
BRANCH 12 13
ATOM     13  C   ILE E1025     -50.054  27.759   2.777  1.00 40.88 LIG 0.24  C 
ATOM     14 O    ILE E1025     -51.273  27.735   2.953  1.00 40.29 LIG-0.27  OA
ATOM     15  N   PHE E1026     -49.179  27.787   3.802  1.00 36.23 LIG-0.35  N 
ATOM     16 H    PHE E1026     -48.324  27.790   3.709  1.00 36.23 LIG 0.16  HD
BRANCH 15 17
ATOM     17  CA  PHE E1026     -49.646  27.813   5.195  1.00 36.58 LIG 0.18  C 
BRANCH 17 18
ATOM     18  CB  PHE E1026     -49.248  26.546   5.946  1.00 38.58 LIG 0.07  C 
BRANCH 18 19
ATOM     19  CG  PHE E1026     -49.648  25.298   5.215  1.00 40.24 LIG-0.06  A 
ATOM     20  CD1 PHE E1026     -50.938  25.130   4.761  1.00 42.20 LIG 0.01  A 
ATOM     21  CE1 PHE E1026     -51.308  23.973   4.098  1.00 42.54 LIG 0.00  A 
ATOM     22  CZ  PHE E1026     -50.390  22.979   3.884  1.00 41.81 LIG 0.00  A 
ATOM     23  CE2 PHE E1026     -49.104  23.120   4.332  1.00 44.36 LIG 0.00  A 
ATOM     24  CD2 PHE E1026     -48.732  24.275   5.002  1.00 42.30 LIG 0.01  A 
ENDBRANCH 18 19
ENDBRANCH 17 18
BRANCH 17 25
ATOM     25  C   PHE E1026     -49.114  29.036   5.920  1.00 38.60 LIG 0.24  C 
ATOM     26  N   ASN E1027     -49.979  30.072   6.054  1.00 38.80 LIG-0.35  N 
ATOM     27 H    ASN E1027     -50.775  30.052   5.728  1.00 38.80 LIG 0.16  HD
ATOM     28 O    PHE E1026     -47.981  29.019   6.397  1.00 31.59 LIG-0.27  OA
BRANCH 26 29
ATOM     29  CA  ASN E1027     -49.678  31.326   6.754  1.00 74.37 LIG 0.17  C 
BRANCH 29 30
ATOM     30  CB  ASN E1027     -49.283  32.409   5.755  1.00 75.17 LIG 0.14  C 
BRANCH 30 31
ATOM     31  CG  ASN E1027     -49.891  33.754   6.067  1.00 99.64 LIG 0.22  C 
ATOM     32  ND2 ASN E1027     -49.149  34.622   6.748  1.00 92.55 LIG-0.37  N 
ATOM     33 22HD ASN E1027     -48.351  34.410   6.989  1.00 92.55 LIG 0.16  HD
ATOM     34 21HD ASN E1027     -49.467  35.396   6.949  1.00 92.55 LIG 0.16  HD
ATOM     35 OD1  ASN E1027     -51.038  34.029   5.708  1.00 94.01 LIG-0.27  OA
ENDBRANCH 30 31
ENDBRANCH 29 30
BRANCH 29 36
ATOM     36  C   ASN E1027     -50.894  31.790   7.552  1.00103.37 LIG 0.22  C 
ATOM     37 O    ASN E1027     -51.787  30.998   7.839  1.00 69.20 LIG-0.29  OA
ENDBRANCH 29 36
ENDBRANCH 26 29
ENDBRANCH 17 25
ENDBRANCH 15 17
ENDBRANCH 12 13
BRANCH 12 38
ATOM     38  CB  ILE E1025     -50.225  29.359   0.889  1.00 40.50 LIG 0.01  C 
ATOM     39  CG2 ILE E1025     -50.413  30.353   2.043  1.00 43.95 LIG 0.01  C 
BRANCH 38 40
ATOM     40  CG1 ILE E1025     -49.517  30.024  -0.292  1.00 41.58 LIG 0.00  C 
ATOM     41  CD1 ILE E1025     -48.780  31.413   0.119  1.00 52.05 LIG 0.01  C 
ENDBRANCH 38 40
ENDBRANCH 12 38
ENDBRANCH 10 12
ENDBRANCH 4 8
BRANCH 1 42
ATOM     42  CA  ILE E1023     -46.930  23.115  -1.630  1.00 36.06 LIG 0.18  C 
BRANCH 42 43
ATOM     43  N   ILE E1023     -46.643  23.132  -3.077  1.00 37.96 LIG-0.35  N 
ATOM     44  C   ARG E1022     -46.518  22.007  -3.813  1.00 45.42 LIG 0.24  C 
ATOM     45 O    ARG E1022     -46.556  20.877  -3.326  1.00 45.23 LIG-0.27  OA
ATOM     46 H    ILE E1023     -46.563  23.922  -3.406  1.00 37.96 LIG 0.16  HD
BRANCH 44 47
ATOM     47  CA  ARG E1022     -46.243  22.144  -5.311  1.00 45.59 LIG 0.18  C 
BRANCH 47 48
ATOM     48  N   ARG E1022     -45.798  20.888  -5.936  1.00 48.30 LIG-0.35  N 
ATOM     49 H    ARG E1022     -46.005  20.179  -5.496  1.00 48.30 LIG 0.16  HD
ATOM     50  C   ILE E1021     -45.121  20.879  -7.106  1.00 57.51 LIG 0.26  C 
ATOM     51 O    ILE E1021     -44.837  21.913  -7.724  1.00 59.03 LIG-0.27  OA
BRANCH 50 52
ATOM     52  CA  ILE E1021     -44.703  19.519  -7.691  1.00 57.59 LIG 0.40  C 
ATOM     53  N   ILE E1021     -45.028  19.502  -9.114  1.00 58.96 LIG 0.61  N 
BRANCH 52 54
ATOM     54  CB  ILE E1021     -43.176  19.255  -7.566  1.00 60.58 LIG 0.03  C 
ATOM     55  CG2 ILE E1021     -42.339  20.200  -8.424  1.00 61.37 LIG 0.01  C 
BRANCH 54 56
ATOM     56  CG1 ILE E1021     -42.731  19.320  -6.084  1.00 60.59 LIG 0.00  C 
ATOM     57  CD1 ILE E1021     -41.267  19.151  -5.917  1.00 60.15 LIG 0.01  C 
ENDBRANCH 54 56
ENDBRANCH 52 54
ENDBRANCH 50 52
ENDBRANCH 47 48
BRANCH 47 58
ATOM     58  CB  ARG E1022     -47.499  22.707  -5.988  1.00 44.33 LIG 0.04  C 
BRANCH 58 59
ATOM     59  CG  ARG E1022     -47.447  24.216  -6.188  1.00 47.73 LIG 0.02  C 
BRANCH 59 60
ATOM     60  CD  ARG E1022     -46.097  24.706  -6.671  1.00 47.87 LIG 0.14  C 
BRANCH 60 61
ATOM     61  NE  ARG E1022     -45.314  25.243  -5.560  1.00 55.98 LIG-0.23  N 
ATOM     62  CZ  ARG E1022     -44.114  24.824  -5.168  1.00 56.00 LIG 0.67  C 
ATOM     63  NH1 ARG E1022     -43.496  23.843  -5.817  1.00 48.69 LIG-0.23  N 
ATOM     64  NH2 ARG E1022     -43.507  25.404  -4.144  1.00 32.20 LIG-0.23  N 
ATOM     65 1HH1 ARG E1022     -43.871  23.474  -6.497  1.00 48.69 LIG 0.17  HD
ATOM     66 2HH1 ARG E1022     -42.720  23.578  -5.557  1.00 48.69 LIG 0.17  HD
ATOM     67 2HH2 ARG E1022     -42.731  25.130  -3.893  1.00 32.20 LIG 0.17  HD
ATOM     68 1HH2 ARG E1022     -43.888  26.054  -3.730  1.00 32.20 LIG 0.17  HD
ATOM     69 HE   ARG E1022     -45.663  25.893  -5.117  1.00 55.98 LIG 0.18  HD
ENDBRANCH 60 61
ENDBRANCH 59 60
ENDBRANCH 58 59
ENDBRANCH 47 58
ENDBRANCH 44 47
ENDBRANCH 42 43
BRANCH 42 70
ATOM     70  CB  ILE E1023     -45.692  23.501  -0.754  1.00 38.78 LIG 0.01  C 
ATOM     71  CG2 ILE E1023     -44.614  22.409  -0.827  1.00 39.01 LIG 0.01  C 
BRANCH 70 72
ATOM     72  CG1 ILE E1023     -45.103  24.902  -1.099  1.00 39.61 LIG 0.00  C 
ATOM     73  CD1 ILE E1023     -45.732  26.102  -0.435  1.00 43.21 LIG 0.01  C 
ENDBRANCH 70 72
ENDBRANCH 42 70
ENDBRANCH 1 42
TORSDOF 26
ENDMDL
MODEL 17
USER: ADFR SOLUTION from run 35
USER: SCORE 22.865724 LL:  -6.110 LR: -18.201 RR:   0.000 FEB: -10.445
USER: RMSD 12.726732
USER: SEED 34
USER: STATUS no improvement in best in 11 clusters for 5 generations
USER: GENES 28
USER: genes 0 Translation |==|  0.47480 0.56032 0.52865
USER: genes 1 Rotation |==|  0.84229 0.83122 0.36069 0.56101
USER: genes 2 Torsion [N]-CA--C-[O] |==|  0.88953
USER: genes 3 Torsion [C]-N--CA-[CB] |==|  0.83889
USER: genes 4 Torsion [N]-CA--C-[N] |==|  0.47090
USER: genes 5 Torsion [C]-N--CA-[C] |==|  0.76703
USER: genes 6 Torsion [N]-CA--CB-[CG] |==|  0.50091
USER: genes 7 Torsion [CA]-CB--CG-[CD1] |==|  0.16790
USER: genes 8 Torsion [N]-CA--C-[N] |==|  0.25051
USER: genes 9 Torsion [C]-N--CA-[C] |==|  0.70957
USER: genes 10 Torsion [N]-CA--CB-[CG] |==|  0.13628
USER: genes 11 Torsion [CA]-CB--CG-[OD1] |==|  0.13932
USER: genes 12 Torsion [N]-CA--C-[O] |==|  0.12977
USER: genes 13 Torsion [N]-CA--CB-[CG2] |==|  0.27159
USER: genes 14 Torsion [CA]-CB--CG1-[CD1] |==|  0.07216
USER: genes 15 Torsion [N]-C--CA-[N] |==|  0.29161
USER: genes 16 Torsion [C]-CA--N-[C] |==|  0.59583
USER: genes 17 Torsion [N]-C--CA-[N] |==|  0.91523
USER: genes 18 Torsion [C]-CA--N-[C] |==|  0.67068
USER: genes 19 Torsion [N]-C--CA-[N] |==|  0.42207
USER: genes 20 Torsion [C]-CA--CB-[CG1] |==|  0.94499
USER: genes 21 Torsion [CA]-CB--CG1-[CD1] |==|  0.32488
USER: genes 22 Torsion [C]-CA--CB-[CG] |==|  0.25321
USER: genes 23 Torsion [CA]-CB--CG-[CD] |==|  0.61973
USER: genes 24 Torsion [CB]-CG--CD-[NE] |==|  0.66132
USER: genes 25 Torsion [CG]-CD--NE-[CZ] |==|  0.18297
USER: genes 26 Torsion [C]-CA--CB-[CG1] |==|  0.53578
USER: genes 27 Torsion [CA]-CB--CG1-[CD1] |==|  0.37901
ROOT
ATOM      1  C   ILE E1023     -48.734  26.432   1.274  1.00 40.02 LIG 0.24  C 
ATOM      2 O    ILE E1023     -47.497  26.487   1.204  1.00 38.38 LIG-0.27  OA
ATOM      3  N   PRO E1024     -49.429  25.271   1.183  1.00 37.38 LIG-0.34  N 
ATOM      4  CA  PRO E1024     -48.718  24.029   0.850  1.00 36.67 LIG 0.18  C 
ATOM      5  CB  PRO E1024     -49.726  22.936   1.198  1.00 38.74 LIG 0.04  C 
ATOM      6  CG  PRO E1024     -51.052  23.573   1.024  1.00 43.33 LIG 0.02  C 
ATOM      7  CD  PRO E1024     -50.893  25.050   1.246  1.00 39.42 LIG 0.13  C 
ENDROOT
BRANCH 4 8
ATOM      8  C   PRO E1024     -48.376  24.038  -0.634  1.00 39.60 LIG 0.24  C 
ATOM      9 O    PRO E1024     -49.201  24.475  -1.435  1.00 37.18 LIG-0.27  OA
ATOM     10  N   ILE E1025     -47.152  23.590  -0.982  1.00 37.20 LIG-0.35  N 
ATOM     11 H    ILE E1025     -46.597  23.300  -0.392  1.00 37.20 LIG 0.16  HD
BRANCH 10 12
ATOM     12  CA  ILE E1025     -46.597  23.528  -2.341  1.00 37.42 LIG 0.18  C 
BRANCH 12 13
ATOM     13  C   ILE E1025     -46.608  24.908  -2.993  1.00 40.88 LIG 0.24  C 
ATOM     14 O    ILE E1025     -47.379  25.766  -2.559  1.00 40.29 LIG-0.27  OA
ATOM     15  N   PHE E1026     -45.938  25.062  -4.153  1.00 36.23 LIG-0.35  N 
ATOM     16 H    PHE E1026     -45.385  24.487  -4.472  1.00 36.23 LIG 0.16  HD
BRANCH 15 17
ATOM     17  CA  PHE E1026     -46.116  26.266  -4.975  1.00 36.58 LIG 0.18  C 
BRANCH 17 18
ATOM     18  CB  PHE E1026     -44.878  26.560  -5.817  1.00 38.58 LIG 0.07  C 
BRANCH 18 19
ATOM     19  CG  PHE E1026     -45.036  27.792  -6.659  1.00 40.24 LIG-0.06  A 
ATOM     20  CD1 PHE E1026     -45.265  29.019  -6.075  1.00 42.20 LIG 0.01  A 
ATOM     21  CE1 PHE E1026     -45.422  30.152  -6.854  1.00 42.54 LIG 0.00  A 
ATOM     22  CZ  PHE E1026     -45.351  30.065  -8.219  1.00 41.81 LIG 0.00  A 
ATOM     23  CE2 PHE E1026     -45.133  28.855  -8.822  1.00 44.36 LIG 0.00  A 
ATOM     24  CD2 PHE E1026     -44.980  27.717  -8.046  1.00 42.30 LIG 0.01  A 
ENDBRANCH 18 19
ENDBRANCH 17 18
BRANCH 17 25
ATOM     25  C   PHE E1026     -47.334  26.135  -5.870  1.00 38.60 LIG 0.24  C 
ATOM     26  N   ASN E1027     -48.506  26.581  -5.350  1.00 38.80 LIG-0.35  N 
ATOM     27 H    ASN E1027     -48.564  26.897  -4.552  1.00 38.80 LIG 0.16  HD
ATOM     28 O    PHE E1026     -47.209  25.704  -7.014  1.00 31.59 LIG-0.27  OA
BRANCH 26 29
ATOM     29  CA  ASN E1027     -49.789  26.581  -6.062  1.00 74.37 LIG 0.17  C 
BRANCH 29 30
ATOM     30  CB  ASN E1027     -50.896  26.047  -5.160  1.00 75.17 LIG 0.14  C 
BRANCH 30 31
ATOM     31  CG  ASN E1027     -50.916  26.692  -3.797  1.00 99.64 LIG 0.22  C 
ATOM     32  ND2 ASN E1027     -50.965  25.890  -2.737  1.00 92.55 LIG-0.37  N 
ATOM     33 22HD ASN E1027     -50.979  25.037  -2.843  1.00 92.55 LIG 0.16  HD
ATOM     34 21HD ASN E1027     -50.984  26.225  -1.944  1.00 92.55 LIG 0.16  HD
ATOM     35 OD1  ASN E1027     -50.895  27.919  -3.677  1.00 94.01 LIG-0.27  OA
ENDBRANCH 30 31
ENDBRANCH 29 30
BRANCH 29 36
ATOM     36  C   ASN E1027     -50.141  27.997  -6.514  1.00103.37 LIG 0.22  C 
ATOM     37 O    ASN E1027     -49.299  28.699  -7.067  1.00 69.20 LIG-0.29  OA
ENDBRANCH 29 36
ENDBRANCH 26 29
ENDBRANCH 17 25
ENDBRANCH 15 17
ENDBRANCH 12 13
BRANCH 12 38
ATOM     38  CB  ILE E1025     -47.560  22.630  -3.234  1.00 40.50 LIG 0.01  C 
ATOM     39  CG2 ILE E1025     -48.531  23.484  -4.061  1.00 43.95 LIG 0.01  C 
BRANCH 38 40
ATOM     40  CG1 ILE E1025     -46.808  21.643  -4.127  1.00 41.58 LIG 0.00  C 
ATOM     41  CD1 ILE E1025     -45.350  21.242  -3.531  1.00 52.05 LIG 0.01  C 
ENDBRANCH 38 40
ENDBRANCH 12 38
ENDBRANCH 10 12
ENDBRANCH 4 8
BRANCH 1 42
ATOM     42  CA  ILE E1023     -49.497  27.711   1.575  1.00 36.06 LIG 0.18  C 
BRANCH 42 43
ATOM     43  N   ILE E1023     -49.222  28.046   2.986  1.00 37.96 LIG-0.35  N 
ATOM     44  C   ARG E1022     -50.136  28.623   3.794  1.00 45.42 LIG 0.24  C 
ATOM     45 O    ARG E1022     -51.245  28.987   3.403  1.00 45.23 LIG-0.27  OA
ATOM     46 H    ILE E1023     -48.428  27.840   3.243  1.00 37.96 LIG 0.16  HD
BRANCH 44 47
ATOM     47  CA  ARG E1022     -49.749  28.905   5.246  1.00 45.59 LIG 0.18  C 
BRANCH 47 48
ATOM     48  N   ARG E1022     -48.776  27.939   5.784  1.00 48.30 LIG-0.35  N 
ATOM     49 H    ARG E1022     -48.022  27.927   5.371  1.00 48.30 LIG 0.16  HD
ATOM     50  C   ILE E1021     -49.069  27.150   6.842  1.00 57.51 LIG 0.26  C 
ATOM     51 O    ILE E1021     -50.161  27.189   7.423  1.00 59.03 LIG-0.27  OA
BRANCH 50 52
ATOM     52  CA  ILE E1021     -47.988  26.177   7.342  1.00 57.59 LIG 0.40  C 
ATOM     53  N   ILE E1021     -48.193  25.944   8.768  1.00 58.96 LIG 0.61  N 
BRANCH 52 54
ATOM     54  CB  ILE E1021     -48.053  24.793   6.637  1.00 60.58 LIG 0.03  C 
ATOM     55  CG2 ILE E1021     -47.695  23.638   7.567  1.00 61.37 LIG 0.01  C 
BRANCH 54 56
ATOM     56  CG1 ILE E1021     -49.445  24.572   5.996  1.00 60.59 LIG 0.00  C 
ATOM     57  CD1 ILE E1021     -49.383  24.443   4.520  1.00 60.15 LIG 0.01  C 
ENDBRANCH 54 56
ENDBRANCH 52 54
ENDBRANCH 50 52
ENDBRANCH 47 48
BRANCH 47 58
ATOM     58  CB  ARG E1022     -49.239  30.347   5.346  1.00 44.33 LIG 0.04  C 
BRANCH 58 59
ATOM     59  CG  ARG E1022     -50.337  31.351   5.674  1.00 47.73 LIG 0.02  C 
BRANCH 59 60
ATOM     60  CD  ARG E1022     -50.250  32.619   4.850  1.00 47.87 LIG 0.14  C 
BRANCH 60 61
ATOM     61  NE  ARG E1022     -50.125  33.790   5.717  1.00 55.98 LIG-0.23  N 
ATOM     62  CZ  ARG E1022     -49.096  34.076   6.510  1.00 56.00 LIG 0.67  C 
ATOM     63  NH1 ARG E1022     -48.034  33.279   6.552  1.00 48.69 LIG-0.23  N 
ATOM     64  NH2 ARG E1022     -49.106  35.179   7.244  1.00 32.20 LIG-0.23  N 
ATOM     65 1HH1 ARG E1022     -48.007  32.572   6.064  1.00 48.69 LIG 0.17  HD
ATOM     66 2HH1 ARG E1022     -47.373  33.471   7.068  1.00 48.69 LIG 0.17  HD
ATOM     67 2HH2 ARG E1022     -48.439  35.360   7.755  1.00 32.20 LIG 0.17  HD
ATOM     68 1HH2 ARG E1022     -49.779  35.713   7.208  1.00 32.20 LIG 0.17  HD
ATOM     69 HE   ARG E1022     -50.780  34.348   5.713  1.00 55.98 LIG 0.18  HD
ENDBRANCH 60 61
ENDBRANCH 59 60
ENDBRANCH 58 59
ENDBRANCH 47 58
ENDBRANCH 44 47
ENDBRANCH 42 43
BRANCH 42 70
ATOM     70  CB  ILE E1023     -49.048  28.830   0.579  1.00 38.78 LIG 0.01  C 
ATOM     71  CG2 ILE E1023     -49.487  28.490  -0.853  1.00 39.01 LIG 0.01  C 
BRANCH 70 72
ATOM     72  CG1 ILE E1023     -49.525  30.255   0.994  1.00 39.61 LIG 0.00  C 
ATOM     73  CD1 ILE E1023     -48.528  31.381   0.878  1.00 43.21 LIG 0.01  C 
ENDBRANCH 70 72
ENDBRANCH 42 70
ENDBRANCH 1 42
TORSDOF 26
ENDMDL
MODEL 18
USER: ADFR SOLUTION from run 152
USER: SCORE 23.583125 LL:  -5.995 LR: -18.193 RR:   0.000 FEB: -10.438
USER: RMSD 3.260644
USER: SEED 151
USER: STATUS no improvement in best in 8 clusters for 5 generations
USER: GENES 28
USER: genes 0 Translation |==|  0.49601 0.49479 0.42002
USER: genes 1 Rotation |==|  0.49428 0.47403 0.55370 0.99640
USER: genes 2 Torsion [N]-CA--C-[O] |==|  0.82561
USER: genes 3 Torsion [C]-N--CA-[CB] |==|  0.54293
USER: genes 4 Torsion [N]-CA--C-[N] |==|  0.36667
USER: genes 5 Torsion [C]-N--CA-[C] |==|  0.82061
USER: genes 6 Torsion [N]-CA--CB-[CG] |==|  0.36912
USER: genes 7 Torsion [CA]-CB--CG-[CD1] |==|  0.74817
USER: genes 8 Torsion [N]-CA--C-[N] |==|  0.87364
USER: genes 9 Torsion [C]-N--CA-[C] |==|  0.86086
USER: genes 10 Torsion [N]-CA--CB-[CG] |==|  0.55668
USER: genes 11 Torsion [CA]-CB--CG-[OD1] |==|  0.83200
USER: genes 12 Torsion [N]-CA--C-[O] |==|  0.93447
USER: genes 13 Torsion [N]-CA--CB-[CG2] |==|  0.48522
USER: genes 14 Torsion [CA]-CB--CG1-[CD1] |==|  0.69376
USER: genes 15 Torsion [N]-C--CA-[N] |==|  0.34572
USER: genes 16 Torsion [C]-CA--N-[C] |==|  0.83679
USER: genes 17 Torsion [N]-C--CA-[N] |==|  0.99350
USER: genes 18 Torsion [C]-CA--N-[C] |==|  0.75283
USER: genes 19 Torsion [N]-C--CA-[N] |==|  0.41599
USER: genes 20 Torsion [C]-CA--CB-[CG1] |==|  0.08491
USER: genes 21 Torsion [CA]-CB--CG1-[CD1] |==|  0.41576
USER: genes 22 Torsion [C]-CA--CB-[CG] |==|  0.80143
USER: genes 23 Torsion [CA]-CB--CG-[CD] |==|  0.20121
USER: genes 24 Torsion [CB]-CG--CD-[NE] |==|  0.52938
USER: genes 25 Torsion [CG]-CD--NE-[CZ] |==|  0.22552
USER: genes 26 Torsion [C]-CA--CB-[CG1] |==|  0.35054
USER: genes 27 Torsion [CA]-CB--CG1-[CD1] |==|  0.08559
ROOT
ATOM      1  C   ILE E1023     -48.416  24.909  -1.821  1.00 40.02 LIG 0.24  C 
ATOM      2 O    ILE E1023     -48.606  26.102  -2.101  1.00 38.38 LIG-0.27  OA
ATOM      3  N   PRO E1024     -49.265  24.186  -1.048  1.00 37.38 LIG-0.34  N 
ATOM      4  CA  PRO E1024     -50.393  24.861  -0.390  1.00 36.67 LIG 0.18  C 
ATOM      5  CB  PRO E1024     -51.288  23.707   0.055  1.00 38.74 LIG 0.04  C 
ATOM      6  CG  PRO E1024     -50.364  22.567   0.259  1.00 43.33 LIG 0.02  C 
ATOM      7  CD  PRO E1024     -49.171  22.768  -0.631  1.00 39.42 LIG 0.13  C 
ENDROOT
BRANCH 4 8
ATOM      8  C   PRO E1024     -49.866  25.664   0.793  1.00 39.60 LIG 0.24  C 
ATOM      9 O    PRO E1024     -49.324  25.070   1.724  1.00 37.18 LIG-0.27  OA
ATOM     10  N   ILE E1025     -49.997  27.004   0.727  1.00 37.20 LIG-0.35  N 
ATOM     11 H    ILE E1025     -50.374  27.386   0.054  1.00 37.20 LIG 0.16  HD
BRANCH 10 12
ATOM     12  CA  ILE E1025     -49.546  27.977   1.731  1.00 37.42 LIG 0.18  C 
BRANCH 12 13
ATOM     13  C   ILE E1025     -50.016  27.573   3.126  1.00 40.88 LIG 0.24  C 
ATOM     14 O    ILE E1025     -51.223  27.446   3.335  1.00 40.29 LIG-0.27  OA
ATOM     15  N   PHE E1026     -49.110  27.585   4.124  1.00 36.23 LIG-0.35  N 
ATOM     16 H    PHE E1026     -48.261  27.658   4.007  1.00 36.23 LIG 0.16  HD
BRANCH 15 17
ATOM     17  CA  PHE E1026     -49.528  27.472   5.528  1.00 36.58 LIG 0.18  C 
BRANCH 17 18
ATOM     18  CB  PHE E1026     -48.332  27.321   6.462  1.00 38.58 LIG 0.07  C 
BRANCH 18 19
ATOM     19  CG  PHE E1026     -48.413  28.232   7.651  1.00 40.24 LIG-0.06  A 
ATOM     20  CD1 PHE E1026     -47.862  29.495   7.608  1.00 42.20 LIG 0.01  A 
ATOM     21  CE1 PHE E1026     -47.928  30.330   8.710  1.00 42.54 LIG 0.00  A 
ATOM     22  CZ  PHE E1026     -48.546  29.909   9.858  1.00 41.81 LIG 0.00  A 
ATOM     23  CE2 PHE E1026     -49.094  28.656   9.925  1.00 44.36 LIG 0.00  A 
ATOM     24  CD2 PHE E1026     -49.025  27.814   8.826  1.00 42.30 LIG 0.01  A 
ENDBRANCH 18 19
ENDBRANCH 17 18
BRANCH 17 25
ATOM     25  C   PHE E1026     -50.363  28.669   5.942  1.00 38.60 LIG 0.24  C 
ATOM     26  N   ASN E1027     -49.888  29.884   5.568  1.00 38.80 LIG-0.35  N 
ATOM     27 H    ASN E1027     -49.146  29.977   5.143  1.00 38.80 LIG 0.16  HD
ATOM     28 O    PHE E1026     -51.432  28.498   6.523  1.00 31.59 LIG-0.27  OA
BRANCH 26 29
ATOM     29  CA  ASN E1027     -50.561  31.161   5.833  1.00 74.37 LIG 0.17  C 
BRANCH 29 30
ATOM     30  CB  ASN E1027     -49.864  32.293   5.085  1.00 75.17 LIG 0.14  C 
BRANCH 30 31
ATOM     31  CG  ASN E1027     -50.159  33.656   5.661  1.00 99.64 LIG 0.22  C 
ATOM     32  ND2 ASN E1027     -49.133  34.364   6.123  1.00 92.55 LIG-0.37  N 
ATOM     33 22HD ASN E1027     -48.336  34.044   6.081  1.00 92.55 LIG 0.16  HD
ATOM     34 21HD ASN E1027     -49.266  35.143   6.464  1.00 92.55 LIG 0.16  HD
ATOM     35 OD1  ASN E1027     -51.313  34.087   5.708  1.00 94.01 LIG-0.27  OA
ENDBRANCH 30 31
ENDBRANCH 29 30
BRANCH 29 36
ATOM     36  C   ASN E1027     -52.022  31.088   5.395  1.00103.37 LIG 0.22  C 
ATOM     37 O    ASN E1027     -52.375  30.278   4.542  1.00 69.20 LIG-0.29  OA
ENDBRANCH 29 36
ENDBRANCH 26 29
ENDBRANCH 17 25
ENDBRANCH 15 17
ENDBRANCH 12 13
BRANCH 12 38
ATOM     38  CB  ILE E1025     -50.256  29.370   1.433  1.00 40.50 LIG 0.01  C 
ATOM     39  CG2 ILE E1025     -49.942  30.413   2.515  1.00 43.95 LIG 0.01  C 
BRANCH 38 40
ATOM     40  CG1 ILE E1025     -49.945  29.920   0.041  1.00 41.58 LIG 0.00  C 
ATOM     41  CD1 ILE E1025     -48.998  31.240   0.085  1.00 52.05 LIG 0.01  C 
ENDBRANCH 38 40
ENDBRANCH 12 38
ENDBRANCH 10 12
ENDBRANCH 4 8
BRANCH 1 42
ATOM     42  CA  ILE E1023     -47.232  24.199  -2.455  1.00 36.06 LIG 0.18  C 
BRANCH 42 43
ATOM     43  N   ILE E1023     -47.318  24.445  -3.907  1.00 37.96 LIG-0.35  N 
ATOM     44  C   ARG E1022     -48.385  24.083  -4.651  1.00 45.42 LIG 0.24  C 
ATOM     45 O    ARG E1022     -49.339  23.451  -4.196  1.00 45.23 LIG-0.27  OA
ATOM     46 H    ILE E1023     -46.627  24.839  -4.234  1.00 37.96 LIG 0.16  HD
BRANCH 44 47
ATOM     47  CA  ARG E1022     -48.376  24.410  -6.144  1.00 45.59 LIG 0.18  C 
BRANCH 47 48
ATOM     48  N   ARG E1022     -47.177  25.152  -6.568  1.00 48.30 LIG-0.35  N 
ATOM     49 H    ARG E1022     -46.526  24.655  -6.829  1.00 48.30 LIG 0.16  HD
ATOM     50  C   ILE E1021     -47.130  26.502  -6.538  1.00 57.51 LIG 0.26  C 
ATOM     51 O    ILE E1021     -48.082  27.197  -6.161  1.00 59.03 LIG-0.27  OA
BRANCH 50 52
ATOM     52  CA  ILE E1021     -45.839  27.193  -7.008  1.00 57.59 LIG 0.40  C 
ATOM     53  N   ILE E1021     -46.184  28.493  -7.577  1.00 58.96 LIG 0.61  N 
BRANCH 52 54
ATOM     54  CB  ILE E1021     -44.839  27.452  -5.846  1.00 60.58 LIG 0.03  C 
ATOM     55  CG2 ILE E1021     -44.981  28.847  -5.243  1.00 61.37 LIG 0.01  C 
BRANCH 54 56
ATOM     56  CG1 ILE E1021     -44.979  26.364  -4.754  1.00 60.59 LIG 0.00  C 
ATOM     57  CD1 ILE E1021     -43.705  26.098  -4.043  1.00 60.15 LIG 0.01  C 
ENDBRANCH 54 56
ENDBRANCH 52 54
ENDBRANCH 50 52
ENDBRANCH 47 48
BRANCH 47 58
ATOM     58  CB  ARG E1022     -48.551  23.106  -6.931  1.00 44.33 LIG 0.04  C 
BRANCH 58 59
ATOM     59  CG  ARG E1022     -47.320  22.208  -6.884  1.00 47.73 LIG 0.02  C 
BRANCH 59 60
ATOM     60  CD  ARG E1022     -47.118  21.547  -5.537  1.00 47.87 LIG 0.14  C 
BRANCH 60 61
ATOM     61  NE  ARG E1022     -45.806  20.906  -5.468  1.00 55.98 LIG-0.23  N 
ATOM     62  CZ  ARG E1022     -44.649  21.508  -5.207  1.00 56.00 LIG 0.67  C 
ATOM     63  NH1 ARG E1022     -44.608  22.811  -4.950  1.00 48.69 LIG-0.23  N 
ATOM     64  NH2 ARG E1022     -43.526  20.807  -5.167  1.00 32.20 LIG-0.23  N 
ATOM     65 1HH1 ARG E1022     -45.333  23.272  -4.951  1.00 48.69 LIG 0.17  HD
ATOM     66 2HH1 ARG E1022     -43.856  23.192  -4.782  1.00 48.69 LIG 0.17  HD
ATOM     67 2HH2 ARG E1022     -42.780  21.199  -4.998  1.00 32.20 LIG 0.17  HD
ATOM     68 1HH2 ARG E1022     -43.543  19.959  -5.311  1.00 32.20 LIG 0.17  HD
ATOM     69 HE   ARG E1022     -45.780  20.058  -5.609  1.00 55.98 LIG 0.18  HD
ENDBRANCH 60 61
ENDBRANCH 59 60
ENDBRANCH 58 59
ENDBRANCH 47 58
ENDBRANCH 44 47
ENDBRANCH 42 43
BRANCH 42 70
ATOM     70  CB  ILE E1023     -45.906  24.732  -1.819  1.00 38.78 LIG 0.01  C 
ATOM     71  CG2 ILE E1023     -46.205  25.797  -0.753  1.00 39.01 LIG 0.01  C 
BRANCH 70 72
ATOM     72  CG1 ILE E1023     -44.994  23.603  -1.252  1.00 39.61 LIG 0.00  C 
ATOM     73  CD1 ILE E1023     -45.047  22.259  -1.936  1.00 43.21 LIG 0.01  C 
ENDBRANCH 70 72
ENDBRANCH 42 70
ENDBRANCH 1 42
TORSDOF 26
ENDMDL
MODEL 19
USER: ADFR SOLUTION from run 76
USER: SCORE 24.052672 LL:  -6.456 LR: -18.126 RR:   0.000 FEB: -10.370
USER: RMSD 4.498054
USER: SEED 75
USER: STATUS no improvement in best in 9 clusters for 5 generations
USER: GENES 28
USER: genes 0 Translation |==|  0.49566 0.48295 0.41688
USER: genes 1 Rotation |==|  0.46061 0.49041 0.54922 0.99592
USER: genes 2 Torsion [N]-CA--C-[O] |==|  0.82628
USER: genes 3 Torsion [C]-N--CA-[CB] |==|  0.53521
USER: genes 4 Torsion [N]-CA--C-[N] |==|  0.39303
USER: genes 5 Torsion [C]-N--CA-[C] |==|  0.17688
USER: genes 6 Torsion [N]-CA--CB-[CG] |==|  0.72685
USER: genes 7 Torsion [CA]-CB--CG-[CD1] |==|  0.36962
USER: genes 8 Torsion [N]-CA--C-[N] |==|  0.07476
USER: genes 9 Torsion [C]-N--CA-[C] |==|  0.66119
USER: genes 10 Torsion [N]-CA--CB-[CG] |==|  0.37861
USER: genes 11 Torsion [CA]-CB--CG-[OD1] |==|  0.27567
USER: genes 12 Torsion [N]-CA--C-[O] |==|  0.20333
USER: genes 13 Torsion [N]-CA--CB-[CG2] |==|  0.39060
USER: genes 14 Torsion [CA]-CB--CG1-[CD1] |==|  0.65498
USER: genes 15 Torsion [N]-C--CA-[N] |==|  0.36723
USER: genes 16 Torsion [C]-CA--N-[C] |==|  0.83757
USER: genes 17 Torsion [N]-C--CA-[N] |==|  0.95340
USER: genes 18 Torsion [C]-CA--N-[C] |==|  0.80823
USER: genes 19 Torsion [N]-C--CA-[N] |==|  0.42763
USER: genes 20 Torsion [C]-CA--CB-[CG1] |==|  0.02146
USER: genes 21 Torsion [CA]-CB--CG1-[CD1] |==|  0.41525
USER: genes 22 Torsion [C]-CA--CB-[CG] |==|  0.89285
USER: genes 23 Torsion [CA]-CB--CG-[CD] |==|  0.82350
USER: genes 24 Torsion [CB]-CG--CD-[NE] |==|  0.55619
USER: genes 25 Torsion [CG]-CD--NE-[CZ] |==|  0.49328
USER: genes 26 Torsion [C]-CA--CB-[CG1] |==|  0.38034
USER: genes 27 Torsion [CA]-CB--CG1-[CD1] |==|  0.10045
ROOT
ATOM      1  C   ILE E1023     -48.421  24.634  -1.911  1.00 40.02 LIG 0.24  C 
ATOM      2 O    ILE E1023     -48.599  25.781  -2.345  1.00 38.38 LIG-0.27  OA
ATOM      3  N   PRO E1024     -49.244  24.050  -1.004  1.00 37.38 LIG-0.34  N 
ATOM      4  CA  PRO E1024     -50.322  24.842  -0.393  1.00 36.67 LIG 0.18  C 
ATOM      5  CB  PRO E1024     -51.217  23.787   0.252  1.00 38.74 LIG 0.04  C 
ATOM      6  CG  PRO E1024     -50.310  22.660   0.569  1.00 43.33 LIG 0.02  C 
ATOM      7  CD  PRO E1024     -49.160  22.701  -0.397  1.00 39.42 LIG 0.13  C 
ENDROOT
BRANCH 4 8
ATOM      8  C   PRO E1024     -49.717  25.785   0.639  1.00 39.60 LIG 0.24  C 
ATOM      9 O    PRO E1024     -49.137  25.312   1.614  1.00 37.18 LIG-0.27  OA
ATOM     10  N   ILE E1025     -49.827  27.107   0.395  1.00 37.20 LIG-0.35  N 
ATOM     11 H    ILE E1025     -50.232  27.402  -0.304  1.00 37.20 LIG 0.16  HD
BRANCH 10 12
ATOM     12  CA  ILE E1025     -49.304  28.197   1.230  1.00 37.42 LIG 0.18  C 
BRANCH 12 13
ATOM     13  C   ILE E1025     -49.762  28.037   2.678  1.00 40.88 LIG 0.24  C 
ATOM     14 O    ILE E1025     -50.955  27.832   2.905  1.00 40.29 LIG-0.27  OA
ATOM     15  N   PHE E1026     -48.885  28.344   3.654  1.00 36.23 LIG-0.35  N 
ATOM     16 H    PHE E1026     -48.045  28.478   3.525  1.00 36.23 LIG 0.16  HD
BRANCH 15 17
ATOM     17  CA  PHE E1026     -49.321  28.474   5.050  1.00 36.58 LIG 0.18  C 
BRANCH 17 18
ATOM     18  CB  PHE E1026     -50.383  29.558   5.209  1.00 38.58 LIG 0.07  C 
BRANCH 18 19
ATOM     19  CG  PHE E1026     -49.807  30.859   5.687  1.00 40.24 LIG-0.06  A 
ATOM     20  CD1 PHE E1026     -50.148  32.046   5.076  1.00 42.20 LIG 0.01  A 
ATOM     21  CE1 PHE E1026     -49.607  33.244   5.510  1.00 42.54 LIG 0.00  A 
ATOM     22  CZ  PHE E1026     -48.725  33.261   6.559  1.00 41.81 LIG 0.00  A 
ATOM     23  CE2 PHE E1026     -48.366  32.093   7.177  1.00 44.36 LIG 0.00  A 
ATOM     24  CD2 PHE E1026     -48.902  30.891   6.740  1.00 42.30 LIG 0.01  A 
ENDBRANCH 18 19
ENDBRANCH 17 18
BRANCH 17 25
ATOM     25  C   PHE E1026     -49.846  27.151   5.578  1.00 38.60 LIG 0.24  C 
ATOM     26  N   ASN E1027     -49.341  26.035   4.994  1.00 38.80 LIG-0.35  N 
ATOM     27 H    ASN E1027     -48.776  26.070   4.346  1.00 38.80 LIG 0.16  HD
ATOM     28 O    PHE E1026     -50.631  27.139   6.523  1.00 31.59 LIG-0.27  OA
BRANCH 26 29
ATOM     29  CA  ASN E1027     -49.685  24.662   5.382  1.00 74.37 LIG 0.17  C 
BRANCH 29 30
ATOM     30  CB  ASN E1027     -50.369  23.940   4.226  1.00 75.17 LIG 0.14  C 
BRANCH 30 31
ATOM     31  CG  ASN E1027     -49.866  22.532   4.025  1.00 99.64 LIG 0.22  C 
ATOM     32  ND2 ASN E1027     -48.731  22.373   3.350  1.00 92.55 LIG-0.37  N 
ATOM     33 22HD ASN E1027     -48.309  23.060   3.052  1.00 92.55 LIG 0.16  HD
ATOM     34 21HD ASN E1027     -48.419  21.584   3.211  1.00 92.55 LIG 0.16  HD
ATOM     35 OD1  ASN E1027     -50.494  21.567   4.465  1.00 94.01 LIG-0.27  OA
ENDBRANCH 30 31
ENDBRANCH 29 30
BRANCH 29 36
ATOM     36  C   ASN E1027     -48.426  23.897   5.785  1.00103.37 LIG 0.22  C 
ATOM     37 O    ASN E1027     -47.868  24.137   6.852  1.00 69.20 LIG-0.29  OA
ENDBRANCH 29 36
ENDBRANCH 26 29
ENDBRANCH 17 25
ENDBRANCH 15 17
ENDBRANCH 12 13
BRANCH 12 38
ATOM     38  CB  ILE E1025     -49.948  29.563   0.731  1.00 40.50 LIG 0.01  C 
ATOM     39  CG2 ILE E1025     -50.305  30.487   1.905  1.00 43.95 LIG 0.01  C 
BRANCH 38 40
ATOM     40  CG1 ILE E1025     -49.086  30.298  -0.296  1.00 41.58 LIG 0.00  C 
ATOM     41  CD1 ILE E1025     -48.732  31.819   0.154  1.00 52.05 LIG 0.01  C 
ENDBRANCH 38 40
ENDBRANCH 12 38
ENDBRANCH 10 12
ENDBRANCH 4 8
BRANCH 1 42
ATOM     42  CA  ILE E1023     -47.288  23.809  -2.495  1.00 36.06 LIG 0.18  C 
BRANCH 42 43
ATOM     43  N   ILE E1023     -47.329  24.006  -3.957  1.00 37.96 LIG-0.35  N 
ATOM     44  C   ARG E1022     -48.412  23.708  -4.707  1.00 45.42 LIG 0.24  C 
ATOM     45 O    ARG E1022     -49.422  23.176  -4.247  1.00 45.23 LIG-0.27  OA
ATOM     46 H    ILE E1023     -46.603  24.328  -4.284  1.00 37.96 LIG 0.16  HD
BRANCH 44 47
ATOM     47  CA  ARG E1022     -48.351  23.976  -6.211  1.00 45.59 LIG 0.18  C 
BRANCH 47 48
ATOM     48  N   ARG E1022     -47.260  24.887  -6.593  1.00 48.30 LIG-0.35  N 
ATOM     49 H    ARG E1022     -46.626  24.515  -7.039  1.00 48.30 LIG 0.16  HD
ATOM     50  C   ILE E1021     -47.278  26.197  -6.259  1.00 57.51 LIG 0.26  C 
ATOM     51 O    ILE E1021     -48.205  26.712  -5.621  1.00 59.03 LIG-0.27  OA
BRANCH 50 52
ATOM     52  CA  ILE E1021     -46.100  27.076  -6.709  1.00 57.59 LIG 0.40  C 
ATOM     53  N   ILE E1021     -46.562  28.457  -6.821  1.00 58.96 LIG 0.61  N 
BRANCH 52 54
ATOM     54  CB  ILE E1021     -44.922  27.068  -5.695  1.00 60.58 LIG 0.03  C 
ATOM     55  CG2 ILE E1021     -44.651  28.443  -5.091  1.00 61.37 LIG 0.01  C 
BRANCH 54 56
ATOM     56  CG1 ILE E1021     -45.168  26.019  -4.583  1.00 60.59 LIG 0.00  C 
ATOM     57  CD1 ILE E1021     -43.910  25.443  -4.049  1.00 60.15 LIG 0.01  C 
ENDBRANCH 54 56
ENDBRANCH 52 54
ENDBRANCH 50 52
ENDBRANCH 47 48
BRANCH 47 58
ATOM     58  CB  ARG E1022     -48.259  22.633  -6.944  1.00 44.33 LIG 0.04  C 
BRANCH 58 59
ATOM     59  CG  ARG E1022     -47.375  21.619  -6.229  1.00 47.73 LIG 0.02  C 
BRANCH 59 60
ATOM     60  CD  ARG E1022     -45.927  22.052  -6.138  1.00 47.87 LIG 0.14  C 
BRANCH 60 61
ATOM     61  NE  ARG E1022     -45.057  20.902  -5.897  1.00 55.98 LIG-0.23  N 
ATOM     62  CZ  ARG E1022     -43.730  20.924  -5.810  1.00 56.00 LIG 0.67  C 
ATOM     63  NH1 ARG E1022     -43.064  22.069  -5.917  1.00 48.69 LIG-0.23  N 
ATOM     64  NH2 ARG E1022     -43.058  19.805  -5.581  1.00 32.20 LIG-0.23  N 
ATOM     65 1HH1 ARG E1022     -43.492  22.804  -6.044  1.00 48.69 LIG 0.17  HD
ATOM     66 2HH1 ARG E1022     -42.207  22.074  -5.860  1.00 48.69 LIG 0.17  HD
ATOM     67 2HH2 ARG E1022     -42.200  19.823  -5.526  1.00 32.20 LIG 0.17  HD
ATOM     68 1HH2 ARG E1022     -43.480  19.062  -5.488  1.00 32.20 LIG 0.17  HD
ATOM     69 HE   ARG E1022     -45.441  20.138  -5.802  1.00 55.98 LIG 0.18  HD
ENDBRANCH 60 61
ENDBRANCH 59 60
ENDBRANCH 58 59
ENDBRANCH 47 58
ENDBRANCH 44 47
ENDBRANCH 42 43
BRANCH 42 70
ATOM     70  CB  ILE E1023     -45.934  24.259  -1.853  1.00 38.78 LIG 0.01  C 
ATOM     71  CG2 ILE E1023     -46.184  25.183  -0.652  1.00 39.01 LIG 0.01  C 
BRANCH 70 72
ATOM     72  CG1 ILE E1023     -45.006  23.067  -1.467  1.00 39.61 LIG 0.00  C 
ATOM     73  CD1 ILE E1023     -45.003  21.866  -2.380  1.00 43.21 LIG 0.01  C 
ENDBRANCH 70 72
ENDBRANCH 42 70
ENDBRANCH 1 42
TORSDOF 26
ENDMDL
MODEL 20
USER: ADFR SOLUTION from run 129
USER: SCORE 20.348365 LL:  -4.294 LR: -18.122 RR:   0.000 FEB: -10.367
USER: RMSD 13.322570
USER: SEED 128
USER: STATUS no improvement in best in 4 clusters for 5 generations
USER: GENES 28
USER: genes 0 Translation |==|  0.38879 0.59479 0.54519
USER: genes 1 Rotation |==|  0.14679 0.61123 0.18926 0.62771
USER: genes 2 Torsion [N]-CA--C-[O] |==|  0.92619
USER: genes 3 Torsion [C]-N--CA-[CB] |==|  0.23216
USER: genes 4 Torsion [N]-CA--C-[N] |==|  0.94444
USER: genes 5 Torsion [C]-N--CA-[C] |==|  0.16205
USER: genes 6 Torsion [N]-CA--CB-[CG] |==|  0.63845
USER: genes 7 Torsion [CA]-CB--CG-[CD1] |==|  0.51676
USER: genes 8 Torsion [N]-CA--C-[N] |==|  0.11509
USER: genes 9 Torsion [C]-N--CA-[C] |==|  0.51679
USER: genes 10 Torsion [N]-CA--CB-[CG] |==|  0.61534
USER: genes 11 Torsion [CA]-CB--CG-[OD1] |==|  0.23874
USER: genes 12 Torsion [N]-CA--C-[O] |==|  0.75186
USER: genes 13 Torsion [N]-CA--CB-[CG2] |==|  0.17690
USER: genes 14 Torsion [CA]-CB--CG1-[CD1] |==|  0.73022
USER: genes 15 Torsion [N]-C--CA-[N] |==|  0.76372
USER: genes 16 Torsion [C]-CA--N-[C] |==|  0.65861
USER: genes 17 Torsion [N]-C--CA-[N] |==|  0.22119
USER: genes 18 Torsion [C]-CA--N-[C] |==|  0.81404
USER: genes 19 Torsion [N]-C--CA-[N] |==|  0.34727
USER: genes 20 Torsion [C]-CA--CB-[CG1] |==|  0.61607
USER: genes 21 Torsion [CA]-CB--CG1-[CD1] |==|  0.34615
USER: genes 22 Torsion [C]-CA--CB-[CG] |==|  0.53305
USER: genes 23 Torsion [CA]-CB--CG-[CD] |==|  0.24710
USER: genes 24 Torsion [CB]-CG--CD-[NE] |==|  0.61868
USER: genes 25 Torsion [CG]-CD--NE-[CZ] |==|  0.36895
USER: genes 26 Torsion [C]-CA--CB-[CG1] |==|  0.69604
USER: genes 27 Torsion [CA]-CB--CG1-[CD1] |==|  0.45973
ROOT
ATOM      1  C   ILE E1023     -50.024  27.234   1.746  1.00 40.02 LIG 0.24  C 
ATOM      2 O    ILE E1023     -50.257  26.250   1.028  1.00 38.38 LIG-0.27  OA
ATOM      3  N   PRO E1024     -49.299  28.301   1.326  1.00 37.38 LIG-0.34  N 
ATOM      4  CA  PRO E1024     -48.635  28.251   0.015  1.00 36.67 LIG 0.18  C 
ATOM      5  CB  PRO E1024     -48.257  29.706  -0.248  1.00 38.74 LIG 0.04  C 
ATOM      6  CG  PRO E1024     -48.083  30.303   1.097  1.00 43.33 LIG 0.02  C 
ATOM      7  CD  PRO E1024     -48.940  29.535   2.062  1.00 39.42 LIG 0.13  C 
ENDROOT
BRANCH 4 8
ATOM      8  C   PRO E1024     -47.410  27.352   0.117  1.00 39.60 LIG 0.24  C 
ATOM      9 O    PRO E1024     -46.853  27.219   1.206  1.00 37.18 LIG-0.27  OA
ATOM     10  N   ILE E1025     -47.024  26.717  -1.010  1.00 37.20 LIG-0.35  N 
ATOM     11 H    ILE E1025     -47.444  26.827  -1.752  1.00 37.20 LIG 0.16  HD
BRANCH 10 12
ATOM     12  CA  ILE E1025     -45.894  25.788  -1.146  1.00 37.42 LIG 0.18  C 
BRANCH 12 13
ATOM     13  C   ILE E1025     -45.492  25.637  -2.611  1.00 40.88 LIG 0.24  C 
ATOM     14 O    ILE E1025     -44.312  25.407  -2.885  1.00 40.29 LIG-0.27  OA
ATOM     15  N   PHE E1026     -46.395  25.979  -3.551  1.00 36.23 LIG-0.35  N 
ATOM     16 H    PHE E1026     -47.226  26.132  -3.391  1.00 36.23 LIG 0.16  HD
BRANCH 15 17
ATOM     17  CA  PHE E1026     -46.005  26.118  -4.961  1.00 36.58 LIG 0.18  C 
BRANCH 17 18
ATOM     18  CB  PHE E1026     -45.021  27.266  -5.162  1.00 38.58 LIG 0.07  C 
BRANCH 18 19
ATOM     19  CG  PHE E1026     -45.434  28.188  -6.272  1.00 40.24 LIG-0.06  A 
ATOM     20  CD1 PHE E1026     -44.606  29.211  -6.681  1.00 42.20 LIG 0.01  A 
ATOM     21  CE1 PHE E1026     -44.993  30.068  -7.697  1.00 42.54 LIG 0.00  A 
ATOM     22  CZ  PHE E1026     -46.208  29.905  -8.310  1.00 41.81 LIG 0.00  A 
ATOM     23  CE2 PHE E1026     -47.050  28.900  -7.915  1.00 44.36 LIG 0.00  A 
ATOM     24  CD2 PHE E1026     -46.668  28.044  -6.894  1.00 42.30 LIG 0.01  A 
ENDBRANCH 18 19
ENDBRANCH 17 18
BRANCH 17 25
ATOM     25  C   PHE E1026     -45.411  24.825  -5.487  1.00 38.60 LIG 0.24  C 
ATOM     26  N   ASN E1027     -46.035  23.683  -5.103  1.00 38.80 LIG-0.35  N 
ATOM     27 H    ASN E1027     -46.712  23.685  -4.573  1.00 38.80 LIG 0.16  HD
ATOM     28 O    PHE E1026     -44.460  24.862  -6.265  1.00 31.59 LIG-0.27  OA
BRANCH 26 29
ATOM     29  CA  ASN E1027     -45.645  22.335  -5.531  1.00 74.37 LIG 0.17  C 
BRANCH 29 30
ATOM     30  CB  ASN E1027     -44.260  21.988  -4.995  1.00 75.17 LIG 0.14  C 
BRANCH 30 31
ATOM     31  CG  ASN E1027     -43.394  21.274  -6.003  1.00 99.64 LIG 0.22  C 
ATOM     32  ND2 ASN E1027     -43.378  19.944  -5.969  1.00 92.55 LIG-0.37  N 
ATOM     33 22HD ASN E1027     -43.856  19.523  -5.392  1.00 92.55 LIG 0.16  HD
ATOM     34 21HD ASN E1027     -42.890  19.505  -6.525  1.00 92.55 LIG 0.16  HD
ATOM     35 OD1  ASN E1027     -42.720  21.906  -6.819  1.00 94.01 LIG-0.27  OA
ENDBRANCH 30 31
ENDBRANCH 29 30
BRANCH 29 36
ATOM     36  C   ASN E1027     -46.657  21.308  -5.026  1.00103.37 LIG 0.22  C 
ATOM     37 O    ASN E1027     -46.510  20.781  -3.927  1.00 69.20 LIG-0.29  OA
ENDBRANCH 29 36
ENDBRANCH 26 29
ENDBRANCH 17 25
ENDBRANCH 15 17
ENDBRANCH 12 13
BRANCH 12 38
ATOM     38  CB  ILE E1025     -46.377  24.342  -0.690  1.00 40.50 LIG 0.01  C 
ATOM     39  CG2 ILE E1025     -47.483  23.796  -1.603  1.00 43.95 LIG 0.01  C 
BRANCH 38 40
ATOM     40  CG1 ILE E1025     -45.232  23.337  -0.562  1.00 41.58 LIG 0.00  C 
ATOM     41  CD1 ILE E1025     -45.065  22.403  -1.882  1.00 52.05 LIG 0.01  C 
ENDBRANCH 38 40
ENDBRANCH 12 38
ENDBRANCH 10 12
ENDBRANCH 4 8
BRANCH 1 42
ATOM     42  CA  ILE E1023     -50.664  27.291   3.122  1.00 36.06 LIG 0.18  C 
BRANCH 42 43
ATOM     43  N   ILE E1023     -49.636  26.851   4.086  1.00 37.96 LIG-0.35  N 
ATOM     44  C   ARG E1022     -49.817  25.811   4.928  1.00 45.42 LIG 0.24  C 
ATOM     45 O    ARG E1022     -50.879  25.194   5.016  1.00 45.23 LIG-0.27  OA
ATOM     46 H    ILE E1023     -48.914  27.317   4.060  1.00 37.96 LIG 0.16  HD
BRANCH 44 47
ATOM     47  CA  ARG E1022     -48.673  25.428   5.867  1.00 45.59 LIG 0.18  C 
BRANCH 47 48
ATOM     48  N   ARG E1022     -48.584  26.294   7.055  1.00 48.30 LIG-0.35  N 
ATOM     49 H    ARG E1022     -48.762  25.899   7.797  1.00 48.30 LIG 0.16  HD
ATOM     50  C   ILE E1021     -48.247  27.599   6.957  1.00 57.51 LIG 0.26  C 
ATOM     51 O    ILE E1021     -47.991  28.146   5.877  1.00 59.03 LIG-0.27  OA
BRANCH 50 52
ATOM     52  CA  ILE E1021     -48.170  28.427   8.251  1.00 57.59 LIG 0.40  C 
ATOM     53  N   ILE E1021     -46.850  29.045   8.333  1.00 58.96 LIG 0.61  N 
BRANCH 52 54
ATOM     54  CB  ILE E1021     -49.217  29.574   8.295  1.00 60.58 LIG 0.03  C 
ATOM     55  CG2 ILE E1021     -50.476  29.198   9.072  1.00 61.37 LIG 0.01  C 
BRANCH 54 56
ATOM     56  CG1 ILE E1021     -48.585  30.868   8.865  1.00 60.59 LIG 0.00  C 
ATOM     57  CD1 ILE E1021     -48.731  32.028   7.953  1.00 60.15 LIG 0.01  C 
ENDBRANCH 54 56
ENDBRANCH 52 54
ENDBRANCH 50 52
ENDBRANCH 47 48
BRANCH 47 58
ATOM     58  CB  ARG E1022     -48.826  23.950   6.247  1.00 44.33 LIG 0.04  C 
BRANCH 58 59
ATOM     59  CG  ARG E1022     -47.920  23.530   7.397  1.00 47.73 LIG 0.02  C 
BRANCH 59 60
ATOM     60  CD  ARG E1022     -48.556  23.726   8.758  1.00 47.87 LIG 0.14  C 
BRANCH 60 61
ATOM     61  NE  ARG E1022     -47.594  24.295   9.700  1.00 55.98 LIG-0.23  N 
ATOM     62  CZ  ARG E1022     -47.809  25.320  10.521  1.00 56.00 LIG 0.67  C 
ATOM     63  NH1 ARG E1022     -48.995  25.918  10.560  1.00 48.69 LIG-0.23  N 
ATOM     64  NH2 ARG E1022     -46.849  25.736  11.334  1.00 32.20 LIG-0.23  N 
ATOM     65 1HH1 ARG E1022     -49.632  25.643  10.052  1.00 48.69 LIG 0.17  HD
ATOM     66 2HH1 ARG E1022     -49.125  26.580  11.093  1.00 48.69 LIG 0.17  HD
ATOM     67 2HH2 ARG E1022     -46.992  26.399  11.863  1.00 32.20 LIG 0.17  HD
ATOM     68 1HH2 ARG E1022     -46.085  25.342  11.333  1.00 32.20 LIG 0.17  HD
ATOM     69 HE   ARG E1022     -46.815  23.932   9.727  1.00 55.98 LIG 0.18  HD
ENDBRANCH 60 61
ENDBRANCH 59 60
ENDBRANCH 58 59
ENDBRANCH 47 58
ENDBRANCH 44 47
ENDBRANCH 42 43
BRANCH 42 70
ATOM     70  CB  ILE E1023     -51.180  28.742   3.396  1.00 38.78 LIG 0.01  C 
ATOM     71  CG2 ILE E1023     -52.674  28.728   3.752  1.00 39.01 LIG 0.01  C 
BRANCH 70 72
ATOM     72  CG1 ILE E1023     -50.348  29.501   4.473  1.00 39.61 LIG 0.00  C 
ATOM     73  CD1 ILE E1023     -50.540  30.994   4.572  1.00 43.21 LIG 0.01  C 
ENDBRANCH 70 72
ENDBRANCH 42 70
ENDBRANCH 1 42
TORSDOF 26
ENDMDL
MODEL 21
USER: ADFR SOLUTION from run 112
USER: SCORE 23.397318 LL:  -6.332 LR: -18.105 RR:   0.000 FEB: -10.349
USER: RMSD 12.792118
USER: SEED 111
USER: STATUS no improvement in best in 5 clusters for 5 generations
USER: GENES 28
USER: genes 0 Translation |==|  0.40532 0.55431 0.66296
USER: genes 1 Rotation |==|  0.93746 0.73273 0.45462 0.54908
USER: genes 2 Torsion [N]-CA--C-[O] |==|  0.10409
USER: genes 3 Torsion [C]-N--CA-[CB] |==|  0.54444
USER: genes 4 Torsion [N]-CA--C-[N] |==|  0.32143
USER: genes 5 Torsion [C]-N--CA-[C] |==|  0.67538
USER: genes 6 Torsion [N]-CA--CB-[CG] |==|  0.72069
USER: genes 7 Torsion [CA]-CB--CG-[CD1] |==|  0.52412
USER: genes 8 Torsion [N]-CA--C-[N] |==|  0.88537
USER: genes 9 Torsion [C]-N--CA-[C] |==|  0.11139
USER: genes 10 Torsion [N]-CA--CB-[CG] |==|  0.74690
USER: genes 11 Torsion [CA]-CB--CG-[OD1] |==|  0.04758
USER: genes 12 Torsion [N]-CA--C-[O] |==|  0.13559
USER: genes 13 Torsion [N]-CA--CB-[CG2] |==|  0.11063
USER: genes 14 Torsion [CA]-CB--CG1-[CD1] |==|  0.13265
USER: genes 15 Torsion [N]-C--CA-[N] |==|  0.40979
USER: genes 16 Torsion [C]-CA--N-[C] |==|  0.62147
USER: genes 17 Torsion [N]-C--CA-[N] |==|  0.90313
USER: genes 18 Torsion [C]-CA--N-[C] |==|  0.83678
USER: genes 19 Torsion [N]-C--CA-[N] |==|  0.25802
USER: genes 20 Torsion [C]-CA--CB-[CG1] |==|  0.58728
USER: genes 21 Torsion [CA]-CB--CG1-[CD1] |==|  0.67834
USER: genes 22 Torsion [C]-CA--CB-[CG] |==|  0.96365
USER: genes 23 Torsion [CA]-CB--CG-[CD] |==|  0.37300
USER: genes 24 Torsion [CB]-CG--CD-[NE] |==|  0.65472
USER: genes 25 Torsion [CG]-CD--NE-[CZ] |==|  0.51726
USER: genes 26 Torsion [C]-CA--CB-[CG1] |==|  0.38595
USER: genes 27 Torsion [CA]-CB--CG1-[CD1] |==|  0.75919
ROOT
ATOM      1  C   ILE E1023     -49.776  26.293   5.102  1.00 40.02 LIG 0.24  C 
ATOM      2 O    ILE E1023     -48.725  25.724   5.433  1.00 38.38 LIG-0.27  OA
ATOM      3  N   PRO E1024     -50.789  25.659   4.460  1.00 37.38 LIG-0.34  N 
ATOM      4  CA  PRO E1024     -50.600  24.274   4.005  1.00 36.67 LIG 0.18  C 
ATOM      5  CB  PRO E1024     -52.017  23.807   3.685  1.00 38.74 LIG 0.04  C 
ATOM      6  CG  PRO E1024     -52.749  25.040   3.313  1.00 43.33 LIG 0.02  C 
ATOM      7  CD  PRO E1024     -52.091  26.199   4.004  1.00 39.42 LIG 0.13  C 
ENDROOT
BRANCH 4 8
ATOM      8  C   PRO E1024     -49.708  24.278   2.770  1.00 39.60 LIG 0.24  C 
ATOM      9 O    PRO E1024     -48.775  25.077   2.708  1.00 37.18 LIG-0.27  OA
ATOM     10  N   ILE E1025     -49.982  23.363   1.817  1.00 37.20 LIG-0.35  N 
ATOM     11 H    ILE E1025     -50.638  22.813   1.899  1.00 37.20 LIG 0.16  HD
BRANCH 10 12
ATOM     12  CA  ILE E1025     -49.249  23.165   0.559  1.00 37.42 LIG 0.18  C 
BRANCH 12 13
ATOM     13  C   ILE E1025     -49.044  24.494  -0.163  1.00 40.88 LIG 0.24  C 
ATOM     14 O    ILE E1025     -50.001  25.009  -0.744  1.00 40.29 LIG-0.27  OA
ATOM     15  N   PHE E1026     -47.781  24.936  -0.323  1.00 36.23 LIG-0.35  N 
ATOM     16 H    PHE E1026     -47.098  24.605   0.080  1.00 36.23 LIG 0.16  HD
BRANCH 15 17
ATOM     17  CA  PHE E1026     -47.479  26.054  -1.227  1.00 36.58 LIG 0.18  C 
BRANCH 17 18
ATOM     18  CB  PHE E1026     -46.836  27.221  -0.484  1.00 38.58 LIG 0.07  C 
BRANCH 18 19
ATOM     19  CG  PHE E1026     -47.814  28.318  -0.182  1.00 40.24 LIG-0.06  A 
ATOM     20  CD1 PHE E1026     -47.382  29.526   0.323  1.00 42.20 LIG 0.01  A 
ATOM     21  CE1 PHE E1026     -48.287  30.533   0.612  1.00 42.54 LIG 0.00  A 
ATOM     22  CZ  PHE E1026     -49.626  30.338   0.397  1.00 41.81 LIG 0.00  A 
ATOM     23  CE2 PHE E1026     -50.078  29.144  -0.097  1.00 44.36 LIG 0.00  A 
ATOM     24  CD2 PHE E1026     -49.176  28.131  -0.382  1.00 42.30 LIG 0.01  A 
ENDBRANCH 18 19
ENDBRANCH 17 18
BRANCH 17 25
ATOM     25  C   PHE E1026     -46.581  25.602  -2.364  1.00 38.60 LIG 0.24  C 
ATOM     26  N   ASN E1027     -45.575  24.756  -2.027  1.00 38.80 LIG-0.35  N 
ATOM     27 H    ASN E1027     -45.436  24.506  -1.216  1.00 38.80 LIG 0.16  HD
ATOM     28 O    PHE E1026     -46.827  25.956  -3.515  1.00 31.59 LIG-0.27  OA
BRANCH 26 29
ATOM     29  CA  ASN E1027     -44.622  24.172  -2.979  1.00 74.37 LIG 0.17  C 
BRANCH 29 30
ATOM     30  CB  ASN E1027     -45.244  22.971  -3.683  1.00 75.17 LIG 0.14  C 
BRANCH 30 31
ATOM     31  CG  ASN E1027     -44.980  21.665  -2.976  1.00 99.64 LIG 0.22  C 
ATOM     32  ND2 ASN E1027     -45.176  20.542  -3.662  1.00 92.55 LIG-0.37  N 
ATOM     33 22HD ASN E1027     -45.437  20.579  -4.480  1.00 92.55 LIG 0.16  HD
ATOM     34 21HD ASN E1027     -45.041  19.780  -3.287  1.00 92.55 LIG 0.16  HD
ATOM     35 OD1  ASN E1027     -44.606  21.645  -1.802  1.00 94.01 LIG-0.27  OA
ENDBRANCH 30 31
ENDBRANCH 29 30
BRANCH 29 36
ATOM     36  C   ASN E1027     -44.211  25.213  -4.018  1.00103.37 LIG 0.22  C 
ATOM     37 O    ASN E1027     -43.853  26.333  -3.667  1.00 69.20 LIG-0.29  OA
ENDBRANCH 29 36
ENDBRANCH 26 29
ENDBRANCH 17 25
ENDBRANCH 15 17
ENDBRANCH 12 13
BRANCH 12 38
ATOM     38  CB  ILE E1025     -50.153  22.289  -0.414  1.00 40.50 LIG 0.01  C 
ATOM     39  CG2 ILE E1025     -51.632  22.693  -0.335  1.00 43.95 LIG 0.01  C 
BRANCH 38 40
ATOM     40  CG1 ILE E1025     -49.664  22.298  -1.862  1.00 41.58 LIG 0.00  C 
ATOM     41  CD1 ILE E1025     -48.067  22.021  -1.988  1.00 52.05 LIG 0.01  C 
ENDBRANCH 38 40
ENDBRANCH 12 38
ENDBRANCH 10 12
ENDBRANCH 4 8
BRANCH 1 42
ATOM     42  CA  ILE E1023     -49.979  27.738   5.524  1.00 36.06 LIG 0.18  C 
BRANCH 42 43
ATOM     43  N   ILE E1023     -49.213  27.927   6.771  1.00 37.96 LIG-0.35  N 
ATOM     44  C   ARG E1022     -49.703  28.593   7.839  1.00 45.42 LIG 0.24  C 
ATOM     45 O    ARG E1022     -50.795  29.162   7.833  1.00 45.23 LIG-0.27  OA
ATOM     46 H    ILE E1023     -48.429  27.574   6.754  1.00 37.96 LIG 0.16  HD
BRANCH 44 47
ATOM     47  CA  ARG E1022     -48.830  28.707   9.088  1.00 45.59 LIG 0.18  C 
BRANCH 47 48
ATOM     48  N   ARG E1022     -48.000  27.514   9.327  1.00 48.30 LIG-0.35  N 
ATOM     49 H    ARG E1022     -47.155  27.667   9.350  1.00 48.30 LIG 0.16  HD
ATOM     50  C   ILE E1021     -48.549  26.290   9.492  1.00 57.51 LIG 0.26  C 
ATOM     51 O    ILE E1021     -49.770  26.093   9.459  1.00 59.03 LIG-0.27  OA
BRANCH 50 52
ATOM     52  CA  ILE E1021     -47.606  25.101   9.746  1.00 57.59 LIG 0.40  C 
ATOM     53  N   ILE E1021     -47.459  24.920  11.187  1.00 58.96 LIG 0.61  N 
BRANCH 52 54
ATOM     54  CB  ILE E1021     -48.154  23.766   9.169  1.00 60.58 LIG 0.03  C 
ATOM     55  CG2 ILE E1021     -47.776  23.554   7.706  1.00 61.37 LIG 0.01  C 
BRANCH 54 56
ATOM     56  CG1 ILE E1021     -47.692  22.568  10.035  1.00 60.59 LIG 0.00  C 
ATOM     57  CD1 ILE E1021     -46.802  21.638   9.299  1.00 60.15 LIG 0.01  C 
ENDBRANCH 54 56
ENDBRANCH 52 54
ENDBRANCH 50 52
ENDBRANCH 47 48
BRANCH 47 58
ATOM     58  CB  ARG E1022     -47.982  29.980   8.978  1.00 44.33 LIG 0.04  C 
BRANCH 58 59
ATOM     59  CG  ARG E1022     -47.991  30.587   7.580  1.00 47.73 LIG 0.02  C 
BRANCH 59 60
ATOM     60  CD  ARG E1022     -48.203  32.087   7.585  1.00 47.87 LIG 0.14  C 
BRANCH 60 61
ATOM     61  NE  ARG E1022     -49.352  32.449   6.755  1.00 55.98 LIG-0.23  N 
ATOM     62  CZ  ARG E1022     -49.743  33.682   6.449  1.00 56.00 LIG 0.67  C 
ATOM     63  NH1 ARG E1022     -49.059  34.736   6.882  1.00 48.69 LIG-0.23  N 
ATOM     64  NH2 ARG E1022     -50.803  33.874   5.678  1.00 32.20 LIG-0.23  N 
ATOM     65 1HH1 ARG E1022     -48.356  34.623   7.365  1.00 48.69 LIG 0.17  HD
ATOM     66 2HH1 ARG E1022     -49.318  35.530   6.679  1.00 48.69 LIG 0.17  HD
ATOM     67 2HH2 ARG E1022     -51.053  34.673   5.482  1.00 32.20 LIG 0.17  HD
ATOM     68 1HH2 ARG E1022     -51.241  33.199   5.374  1.00 32.20 LIG 0.17  HD
ATOM     69 HE   ARG E1022     -49.819  31.801   6.434  1.00 55.98 LIG 0.18  HD
ENDBRANCH 60 61
ENDBRANCH 59 60
ENDBRANCH 58 59
ENDBRANCH 47 58
ENDBRANCH 44 47
ENDBRANCH 42 43
BRANCH 42 70
ATOM     70  CB  ILE E1023     -49.515  28.686   4.369  1.00 38.78 LIG 0.01  C 
ATOM     71  CG2 ILE E1023     -49.309  27.895   3.068  1.00 39.01 LIG 0.01  C 
BRANCH 70 72
ATOM     72  CG1 ILE E1023     -50.464  29.902   4.149  1.00 39.61 LIG 0.00  C 
ATOM     73  CD1 ILE E1023     -51.646  29.703   3.233  1.00 43.21 LIG 0.01  C 
ENDBRANCH 70 72
ENDBRANCH 42 70
ENDBRANCH 1 42
TORSDOF 26
ENDMDL
MODEL 22
USER: ADFR SOLUTION from run 160
USER: SCORE 21.395385 LL:  -5.382 LR: -18.078 RR:   0.000 FEB: -10.322
USER: RMSD 12.278360
USER: SEED 159
USER: STATUS no improvement in best in 3 clusters for 5 generations
USER: GENES 28
USER: genes 0 Translation |==|  0.59272 0.57860 0.46419
USER: genes 1 Rotation |==|  0.68490 0.93532 0.35683 0.57623
USER: genes 2 Torsion [N]-CA--C-[O] |==|  0.01634
USER: genes 3 Torsion [C]-N--CA-[CB] |==|  0.76473
USER: genes 4 Torsion [N]-CA--C-[N] |==|  0.67091
USER: genes 5 Torsion [C]-N--CA-[C] |==|  0.64003
USER: genes 6 Torsion [N]-CA--CB-[CG] |==|  0.71164
USER: genes 7 Torsion [CA]-CB--CG-[CD1] |==|  0.37021
USER: genes 8 Torsion [N]-CA--C-[N] |==|  0.44375
USER: genes 9 Torsion [C]-N--CA-[C] |==|  0.47954
USER: genes 10 Torsion [N]-CA--CB-[CG] |==|  0.20492
USER: genes 11 Torsion [CA]-CB--CG-[OD1] |==|  0.99801
USER: genes 12 Torsion [N]-CA--C-[O] |==|  0.98141
USER: genes 13 Torsion [N]-CA--CB-[CG2] |==|  0.66869
USER: genes 14 Torsion [CA]-CB--CG1-[CD1] |==|  0.30248
USER: genes 15 Torsion [N]-C--CA-[N] |==|  0.18053
USER: genes 16 Torsion [C]-CA--N-[C] |==|  0.53889
USER: genes 17 Torsion [N]-C--CA-[N] |==|  0.35424
USER: genes 18 Torsion [C]-CA--N-[C] |==|  0.72286
USER: genes 19 Torsion [N]-C--CA-[N] |==|  0.47796
USER: genes 20 Torsion [C]-CA--CB-[CG1] |==|  0.14452
USER: genes 21 Torsion [CA]-CB--CG1-[CD1] |==|  0.70506
USER: genes 22 Torsion [C]-CA--CB-[CG] |==|  0.51862
USER: genes 23 Torsion [CA]-CB--CG-[CD] |==|  0.79839
USER: genes 24 Torsion [CB]-CG--CD-[NE] |==|  0.23145
USER: genes 25 Torsion [CG]-CD--NE-[CZ] |==|  0.26668
USER: genes 26 Torsion [C]-CA--CB-[CG1] |==|  0.76173
USER: genes 27 Torsion [CA]-CB--CG1-[CD1] |==|  0.59084
ROOT
ATOM      1  C   ILE E1023     -46.965  26.857  -0.563  1.00 40.02 LIG 0.24  C 
ATOM      2 O    ILE E1023     -46.119  27.714  -0.859  1.00 38.38 LIG-0.27  OA
ATOM      3  N   PRO E1024     -46.710  25.525  -0.590  1.00 37.38 LIG-0.34  N 
ATOM      4  CA  PRO E1024     -45.425  25.048  -1.123  1.00 36.67 LIG 0.18  C 
ATOM      5  CB  PRO E1024     -45.365  23.595  -0.657  1.00 38.74 LIG 0.04  C 
ATOM      6  CG  PRO E1024     -46.780  23.173  -0.543  1.00 43.33 LIG 0.02  C 
ATOM      7  CD  PRO E1024     -47.610  24.394  -0.268  1.00 39.42 LIG 0.13  C 
ENDROOT
BRANCH 4 8
ATOM      8  C   PRO E1024     -45.449  25.159  -2.642  1.00 39.60 LIG 0.24  C 
ATOM      9 O    PRO E1024     -46.410  25.699  -3.187  1.00 37.18 LIG-0.27  OA
ATOM     10  N   ILE E1025     -44.375  24.682  -3.305  1.00 37.20 LIG-0.35  N 
ATOM     11 H    ILE E1025     -43.716  24.319  -2.889  1.00 37.20 LIG 0.16  HD
BRANCH 10 12
ATOM     12  CA  ILE E1025     -44.166  24.702  -4.759  1.00 37.42 LIG 0.18  C 
BRANCH 12 13
ATOM     13  C   ILE E1025     -44.856  25.910  -5.389  1.00 40.88 LIG 0.24  C 
ATOM     14 O    ILE E1025     -44.652  27.028  -4.913  1.00 40.29 LIG-0.27  OA
ATOM     15  N   PHE E1026     -45.828  25.679  -6.294  1.00 36.23 LIG-0.35  N 
ATOM     16 H    PHE E1026     -45.983  24.913  -6.652  1.00 36.23 LIG 0.16  HD
BRANCH 15 17
ATOM     17  CA  PHE E1026     -46.715  26.760  -6.744  1.00 36.58 LIG 0.18  C 
BRANCH 17 18
ATOM     18  CB  PHE E1026     -46.394  27.195  -8.170  1.00 38.58 LIG 0.07  C 
BRANCH 18 19
ATOM     19  CG  PHE E1026     -45.646  28.495  -8.219  1.00 40.24 LIG-0.06  A 
ATOM     20  CD1 PHE E1026     -44.529  28.635  -9.015  1.00 42.20 LIG 0.01  A 
ATOM     21  CE1 PHE E1026     -43.834  29.831  -9.050  1.00 42.54 LIG 0.00  A 
ATOM     22  CZ  PHE E1026     -44.251  30.893  -8.290  1.00 41.81 LIG 0.00  A 
ATOM     23  CE2 PHE E1026     -45.353  30.774  -7.486  1.00 44.36 LIG 0.00  A 
ATOM     24  CD2 PHE E1026     -46.048  29.576  -7.445  1.00 42.30 LIG 0.01  A 
ENDBRANCH 18 19
ENDBRANCH 17 18
BRANCH 17 25
ATOM     25  C   PHE E1026     -48.170  26.341  -6.644  1.00 38.60 LIG 0.24  C 
ATOM     26  N   ASN E1027     -49.079  27.348  -6.614  1.00 38.80 LIG-0.35  N 
ATOM     27 H    ASN E1027     -48.848  28.177  -6.627  1.00 38.80 LIG 0.16  HD
ATOM     28 O    PHE E1026     -48.466  25.148  -6.656  1.00 31.59 LIG-0.27  OA
BRANCH 26 29
ATOM     29  CA  ASN E1027     -50.533  27.159  -6.559  1.00 74.37 LIG 0.17  C 
BRANCH 29 30
ATOM     30  CB  ASN E1027     -50.903  26.218  -5.418  1.00 75.17 LIG 0.14  C 
BRANCH 30 31
ATOM     31  CG  ASN E1027     -50.776  26.855  -4.057  1.00 99.64 LIG 0.22  C 
ATOM     32  ND2 ASN E1027     -51.102  26.117  -2.999  1.00 92.55 LIG-0.37  N 
ATOM     33 22HD ASN E1027     -51.366  25.306  -3.105  1.00 92.55 LIG 0.16  HD
ATOM     34 21HD ASN E1027     -51.048  26.452  -2.208  1.00 92.55 LIG 0.16  HD
ATOM     35 OD1  ASN E1027     -50.394  28.020  -3.936  1.00 94.01 LIG-0.27  OA
ENDBRANCH 30 31
ENDBRANCH 29 30
BRANCH 29 36
ATOM     36  C   ASN E1027     -51.232  28.502  -6.355  1.00103.37 LIG 0.22  C 
ATOM     37 O    ASN E1027     -50.575  29.517  -6.140  1.00 69.20 LIG-0.29  OA
ENDBRANCH 29 36
ENDBRANCH 26 29
ENDBRANCH 17 25
ENDBRANCH 15 17
ENDBRANCH 12 13
BRANCH 12 38
ATOM     38  CB  ILE E1025     -44.887  23.429  -5.386  1.00 40.50 LIG 0.01  C 
ATOM     39  CG2 ILE E1025     -43.891  22.508  -6.105  1.00 43.95 LIG 0.01  C 
BRANCH 38 40
ATOM     40  CG1 ILE E1025     -45.717  22.645  -4.370  1.00 41.58 LIG 0.00  C 
ATOM     41  CD1 ILE E1025     -47.317  22.802  -4.611  1.00 52.05 LIG 0.01  C 
ENDBRANCH 38 40
ENDBRANCH 12 38
ENDBRANCH 10 12
ENDBRANCH 4 8
BRANCH 1 42
ATOM     42  CA  ILE E1023     -48.316  27.324  -0.050  1.00 36.06 LIG 0.18  C 
BRANCH 42 43
ATOM     43  N   ILE E1023     -48.379  26.953   1.377  1.00 37.96 LIG-0.35  N 
ATOM     44  C   ARG E1022     -49.528  26.963   2.087  1.00 45.42 LIG 0.24  C 
ATOM     45 O    ARG E1022     -50.600  27.354   1.627  1.00 45.23 LIG-0.27  OA
ATOM     46 H    ILE E1023     -47.619  26.731   1.712  1.00 37.96 LIG 0.16  HD
BRANCH 44 47
ATOM     47  CA  ARG E1022     -49.479  26.536   3.554  1.00 45.59 LIG 0.18  C 
BRANCH 47 48
ATOM     48  N   ARG E1022     -50.084  27.521   4.465  1.00 48.30 LIG-0.35  N 
ATOM     49 H    ARG E1022     -50.942  27.490   4.504  1.00 48.30 LIG 0.16  HD
ATOM     50  C   ILE E1021     -49.329  28.392   5.172  1.00 57.51 LIG 0.26  C 
ATOM     51 O    ILE E1021     -48.094  28.416   5.103  1.00 59.03 LIG-0.27  OA
BRANCH 50 52
ATOM     52  CA  ILE E1021     -50.047  29.380   6.106  1.00 57.59 LIG 0.40  C 
ATOM     53  N   ILE E1021     -49.044  30.085   6.900  1.00 58.96 LIG 0.61  N 
BRANCH 52 54
ATOM     54  CB  ILE E1021     -50.859  30.457   5.333  1.00 60.58 LIG 0.03  C 
ATOM     55  CG2 ILE E1021     -49.970  31.497   4.657  1.00 61.37 LIG 0.01  C 
BRANCH 54 56
ATOM     56  CG1 ILE E1021     -51.805  29.792   4.305  1.00 60.59 LIG 0.00  C 
ATOM     57  CD1 ILE E1021     -51.335  29.949   2.907  1.00 60.15 LIG 0.01  C 
ENDBRANCH 54 56
ENDBRANCH 52 54
ENDBRANCH 50 52
ENDBRANCH 47 48
BRANCH 47 58
ATOM     58  CB  ARG E1022     -50.137  25.156   3.684  1.00 44.33 LIG 0.04  C 
BRANCH 58 59
ATOM     59  CG  ARG E1022     -50.292  24.699   5.129  1.00 47.73 LIG 0.02  C 
BRANCH 59 60
ATOM     60  CD  ARG E1022     -48.979  24.300   5.770  1.00 47.87 LIG 0.14  C 
BRANCH 60 61
ATOM     61  NE  ARG E1022     -48.272  25.475   6.277  1.00 55.98 LIG-0.23  N 
ATOM     62  CZ  ARG E1022     -48.301  25.932   7.526  1.00 56.00 LIG 0.67  C 
ATOM     63  NH1 ARG E1022     -48.997  25.297   8.463  1.00 48.69 LIG-0.23  N 
ATOM     64  NH2 ARG E1022     -47.606  27.010   7.857  1.00 32.20 LIG-0.23  N 
ATOM     65 1HH1 ARG E1022     -49.434  24.584   8.263  1.00 48.69 LIG 0.17  HD
ATOM     66 2HH1 ARG E1022     -49.010  25.599   9.267  1.00 48.69 LIG 0.17  HD
ATOM     67 2HH2 ARG E1022     -47.627  27.303   8.666  1.00 32.20 LIG 0.17  HD
ATOM     68 1HH2 ARG E1022     -47.134  27.417   7.264  1.00 32.20 LIG 0.17  HD
ATOM     69 HE   ARG E1022     -47.791  25.913   5.713  1.00 55.98 LIG 0.18  HD
ENDBRANCH 60 61
ENDBRANCH 59 60
ENDBRANCH 58 59
ENDBRANCH 47 58
ENDBRANCH 44 47
ENDBRANCH 42 43
BRANCH 42 70
ATOM     70  CB  ILE E1023     -48.459  28.864  -0.290  1.00 38.78 LIG 0.01  C 
ATOM     71  CG2 ILE E1023     -49.926  29.238  -0.547  1.00 39.01 LIG 0.01  C 
BRANCH 70 72
ATOM     72  CG1 ILE E1023     -47.846  29.728   0.852  1.00 39.61 LIG 0.00  C 
ATOM     73  CD1 ILE E1023     -48.512  31.045   1.160  1.00 43.21 LIG 0.01  C 
ENDBRANCH 70 72
ENDBRANCH 42 70
ENDBRANCH 1 42
TORSDOF 26
ENDMDL
MODEL 23
USER: ADFR SOLUTION from run 143
USER: SCORE 22.874585 LL:  -6.805 LR: -18.076 RR:   0.000 FEB: -10.320
USER: RMSD 12.218795
USER: SEED 142
USER: STATUS no improvement in best in 7 clusters for 5 generations
USER: GENES 28
USER: genes 0 Translation |==|  0.52119 0.59175 0.52013
USER: genes 1 Rotation |==|  0.75367 0.92896 0.47360 0.53078
USER: genes 2 Torsion [N]-CA--C-[O] |==|  0.19308
USER: genes 3 Torsion [C]-N--CA-[CB] |==|  0.26667
USER: genes 4 Torsion [N]-CA--C-[N] |==|  0.86917
USER: genes 5 Torsion [C]-N--CA-[C] |==|  0.81466
USER: genes 6 Torsion [N]-CA--CB-[CG] |==|  0.99914
USER: genes 7 Torsion [CA]-CB--CG-[CD1] |==|  0.23622
USER: genes 8 Torsion [N]-CA--C-[N] |==|  0.93222
USER: genes 9 Torsion [C]-N--CA-[C] |==|  0.13797
USER: genes 10 Torsion [N]-CA--CB-[CG] |==|  0.83375
USER: genes 11 Torsion [CA]-CB--CG-[OD1] |==|  0.35156
USER: genes 12 Torsion [N]-CA--C-[O] |==|  0.22927
USER: genes 13 Torsion [N]-CA--CB-[CG2] |==|  0.75992
USER: genes 14 Torsion [CA]-CB--CG1-[CD1] |==|  0.79520
USER: genes 15 Torsion [N]-C--CA-[N] |==|  0.34952
USER: genes 16 Torsion [C]-CA--N-[C] |==|  0.57764
USER: genes 17 Torsion [N]-C--CA-[N] |==|  0.80949
USER: genes 18 Torsion [C]-CA--N-[C] |==|  0.65469
USER: genes 19 Torsion [N]-C--CA-[N] |==|  0.42874
USER: genes 20 Torsion [C]-CA--CB-[CG1] |==|  0.13743
USER: genes 21 Torsion [CA]-CB--CG1-[CD1] |==|  0.71469
USER: genes 22 Torsion [C]-CA--CB-[CG] |==|  0.16200
USER: genes 23 Torsion [CA]-CB--CG-[CD] |==|  0.28328
USER: genes 24 Torsion [CB]-CG--CD-[NE] |==|  0.25238
USER: genes 25 Torsion [CG]-CD--NE-[CZ] |==|  0.29066
USER: genes 26 Torsion [C]-CA--CB-[CG1] |==|  0.98034
USER: genes 27 Torsion [CA]-CB--CG1-[CD1] |==|  0.66243
ROOT
ATOM      1  C   ILE E1023     -48.038  27.163   1.032  1.00 40.02 LIG 0.24  C 
ATOM      2 O    ILE E1023     -47.006  27.820   1.232  1.00 38.38 LIG-0.27  OA
ATOM      3  N   PRO E1024     -48.047  25.989   0.352  1.00 37.38 LIG-0.34  N 
ATOM      4  CA  PRO E1024     -46.816  25.525  -0.302  1.00 36.67 LIG 0.18  C 
ATOM      5  CB  PRO E1024     -47.111  24.062  -0.622  1.00 38.74 LIG 0.04  C 
ATOM      6  CG  PRO E1024     -48.583  23.998  -0.783  1.00 43.33 LIG 0.02  C 
ATOM      7  CD  PRO E1024     -49.190  25.101   0.035  1.00 39.42 LIG 0.13  C 
ENDROOT
BRANCH 4 8
ATOM      8  C   PRO E1024     -46.586  26.349  -1.563  1.00 39.60 LIG 0.24  C 
ATOM      9 O    PRO E1024     -46.275  27.534  -1.455  1.00 37.18 LIG-0.27  OA
ATOM     10  N   ILE E1025     -46.705  25.705  -2.742  1.00 37.20 LIG-0.35  N 
ATOM     11 H    ILE E1025     -46.915  24.872  -2.779  1.00 37.20 LIG 0.16  HD
BRANCH 10 12
ATOM     12  CA  ILE E1025     -46.508  26.284  -4.078  1.00 37.42 LIG 0.18  C 
BRANCH 12 13
ATOM     13  C   ILE E1025     -47.406  25.597  -5.104  1.00 40.88 LIG 0.24  C 
ATOM     14 O    ILE E1025     -48.203  26.279  -5.749  1.00 40.29 LIG-0.27  OA
ATOM     15  N   PHE E1026     -47.445  24.250  -5.105  1.00 36.23 LIG-0.35  N 
ATOM     16 H    PHE E1026     -46.892  23.749  -4.676  1.00 36.23 LIG 0.16  HD
BRANCH 15 17
ATOM     17  CA  PHE E1026     -48.469  23.523  -5.867  1.00 36.58 LIG 0.18  C 
BRANCH 17 18
ATOM     18  CB  PHE E1026     -48.177  22.026  -5.917  1.00 38.58 LIG 0.07  C 
BRANCH 18 19
ATOM     19  CG  PHE E1026     -46.917  21.663  -5.186  1.00 40.24 LIG-0.06  A 
ATOM     20  CD1 PHE E1026     -46.933  21.437  -3.827  1.00 42.20 LIG 0.01  A 
ATOM     21  CE1 PHE E1026     -45.768  21.113  -3.152  1.00 42.54 LIG 0.00  A 
ATOM     22  CZ  PHE E1026     -44.583  21.012  -3.833  1.00 41.81 LIG 0.00  A 
ATOM     23  CE2 PHE E1026     -44.543  21.240  -5.183  1.00 44.36 LIG 0.00  A 
ATOM     24  CD2 PHE E1026     -45.706  21.570  -5.860  1.00 42.30 LIG 0.01  A 
ENDBRANCH 18 19
ENDBRANCH 17 18
BRANCH 17 25
ATOM     25  C   PHE E1026     -49.849  23.764  -5.284  1.00 38.60 LIG 0.24  C 
ATOM     26  N   ASN E1027     -49.889  24.115  -3.974  1.00 38.80 LIG-0.35  N 
ATOM     27 H    ASN E1027     -49.179  24.175  -3.492  1.00 38.80 LIG 0.16  HD
ATOM     28 O    PHE E1026     -50.839  23.697  -6.009  1.00 31.59 LIG-0.27  OA
BRANCH 26 29
ATOM     29  CA  ASN E1027     -51.115  24.430  -3.232  1.00 74.37 LIG 0.17  C 
BRANCH 29 30
ATOM     30  CB  ASN E1027     -51.682  25.771  -3.687  1.00 75.17 LIG 0.14  C 
BRANCH 30 31
ATOM     31  CG  ASN E1027     -50.728  26.920  -3.482  1.00 99.64 LIG 0.22  C 
ATOM     32  ND2 ASN E1027     -50.230  27.097  -2.261  1.00 92.55 LIG-0.37  N 
ATOM     33 22HD ASN E1027     -50.450  26.561  -1.625  1.00 92.55 LIG 0.16  HD
ATOM     34 21HD ASN E1027     -49.688  27.747  -2.107  1.00 92.55 LIG 0.16  HD
ATOM     35 OD1  ASN E1027     -50.431  27.672  -4.413  1.00 94.01 LIG-0.27  OA
ENDBRANCH 30 31
ENDBRANCH 29 30
BRANCH 29 36
ATOM     36  C   ASN E1027     -52.159  23.337  -3.450  1.00103.37 LIG 0.22  C 
ATOM     37 O    ASN E1027     -52.124  22.304  -2.787  1.00 69.20 LIG-0.29  OA
ENDBRANCH 29 36
ENDBRANCH 26 29
ENDBRANCH 17 25
ENDBRANCH 15 17
ENDBRANCH 12 13
BRANCH 12 38
ATOM     38  CB  ILE E1025     -45.018  25.972  -4.544  1.00 40.50 LIG 0.01  C 
ATOM     39  CG2 ILE E1025     -44.030  27.033  -4.042  1.00 43.95 LIG 0.01  C 
BRANCH 38 40
ATOM     40  CG1 ILE E1025     -44.549  24.568  -4.161  1.00 41.58 LIG 0.00  C 
ATOM     41  CD1 ILE E1025     -44.231  24.423  -2.574  1.00 52.05 LIG 0.01  C 
ENDBRANCH 38 40
ENDBRANCH 12 38
ENDBRANCH 10 12
ENDBRANCH 4 8
BRANCH 1 42
ATOM     42  CA  ILE E1023     -49.333  27.644   1.662  1.00 36.06 LIG 0.18  C 
BRANCH 42 43
ATOM     43  N   ILE E1023     -49.045  27.890   3.088  1.00 37.96 LIG-0.35  N 
ATOM     44  C   ARG E1022     -49.983  27.792   4.054  1.00 45.42 LIG 0.24  C 
ATOM     45 O    ARG E1022     -51.170  27.565   3.818  1.00 45.23 LIG-0.27  OA
ATOM     46 H    ILE E1023     -48.227  28.102   3.245  1.00 37.96 LIG 0.16  HD
BRANCH 44 47
ATOM     47  CA  ARG E1022     -49.566  28.046   5.503  1.00 45.59 LIG 0.18  C 
BRANCH 47 48
ATOM     48  N   ARG E1022     -48.674  27.004   6.040  1.00 48.30 LIG-0.35  N 
ATOM     49 H    ARG E1022     -47.962  26.873   5.578  1.00 48.30 LIG 0.16  HD
ATOM     50  C   ILE E1021     -48.976  26.326   7.170  1.00 57.51 LIG 0.26  C 
ATOM     51 O    ILE E1021     -50.007  26.535   7.821  1.00 59.03 LIG-0.27  OA
BRANCH 50 52
ATOM     52  CA  ILE E1021     -47.981  25.261   7.663  1.00 57.59 LIG 0.40  C 
ATOM     53  N   ILE E1021     -48.141  25.105   9.105  1.00 58.96 LIG 0.61  N 
BRANCH 52 54
ATOM     54  CB  ILE E1021     -48.226  23.867   7.020  1.00 60.58 LIG 0.03  C 
ATOM     55  CG2 ILE E1021     -49.440  23.150   7.605  1.00 61.37 LIG 0.01  C 
BRANCH 54 56
ATOM     56  CG1 ILE E1021     -48.349  23.990   5.482  1.00 60.59 LIG 0.00  C 
ATOM     57  CD1 ILE E1021     -49.753  23.914   5.011  1.00 60.15 LIG 0.01  C 
ENDBRANCH 54 56
ENDBRANCH 52 54
ENDBRANCH 50 52
ENDBRANCH 47 48
BRANCH 47 58
ATOM     58  CB  ARG E1022     -48.935  29.441   5.592  1.00 44.33 LIG 0.04  C 
BRANCH 58 59
ATOM     59  CG  ARG E1022     -49.871  30.552   5.133  1.00 47.73 LIG 0.02  C 
BRANCH 59 60
ATOM     60  CD  ARG E1022     -50.501  31.312   6.282  1.00 47.87 LIG 0.14  C 
BRANCH 60 61
ATOM     61  NE  ARG E1022     -49.678  32.462   6.653  1.00 55.98 LIG-0.23  N 
ATOM     62  CZ  ARG E1022     -49.934  33.736   6.371  1.00 56.00 LIG 0.67  C 
ATOM     63  NH1 ARG E1022     -51.038  34.074   5.713  1.00 48.69 LIG-0.23  N 
ATOM     64  NH2 ARG E1022     -49.105  34.688   6.773  1.00 32.20 LIG-0.23  N 
ATOM     65 1HH1 ARG E1022     -51.594  33.466   5.466  1.00 48.69 LIG 0.17  HD
ATOM     66 2HH1 ARG E1022     -51.196  34.900   5.534  1.00 48.69 LIG 0.17  HD
ATOM     67 2HH2 ARG E1022     -49.274  35.511   6.588  1.00 32.20 LIG 0.17  HD
ATOM     68 1HH2 ARG E1022     -48.399  34.483   7.219  1.00 32.20 LIG 0.17  HD
ATOM     69 HE   ARG E1022     -48.959  32.299   7.097  1.00 55.98 LIG 0.18  HD
ENDBRANCH 60 61
ENDBRANCH 59 60
ENDBRANCH 58 59
ENDBRANCH 47 58
ENDBRANCH 44 47
ENDBRANCH 42 43
BRANCH 42 70
ATOM     70  CB  ILE E1023     -49.835  28.920   0.908  1.00 38.78 LIG 0.01  C 
ATOM     71  CG2 ILE E1023     -50.237  30.016   1.906  1.00 39.01 LIG 0.01  C 
BRANCH 70 72
ATOM     72  CG1 ILE E1023     -48.818  29.457  -0.144  1.00 39.61 LIG 0.00  C 
ATOM     73  CD1 ILE E1023     -48.329  30.874   0.024  1.00 43.21 LIG 0.01  C 
ENDBRANCH 70 72
ENDBRANCH 42 70
ENDBRANCH 1 42
TORSDOF 26
ENDMDL
MODEL 24
USER: ADFR SOLUTION from run 182
USER: SCORE 22.852747 LL:  -6.058 LR: -18.056 RR:   0.000 FEB: -10.300
USER: RMSD 13.296463
USER: SEED 181
USER: STATUS no improvement in best in 14 clusters for 5 generations
USER: GENES 28
USER: genes 0 Translation |==|  0.47302 0.56590 0.53486
USER: genes 1 Rotation |==|  0.85006 0.82082 0.35376 0.55609
USER: genes 2 Torsion [N]-CA--C-[O] |==|  0.83068
USER: genes 3 Torsion [C]-N--CA-[CB] |==|  0.55065
USER: genes 4 Torsion [N]-CA--C-[N] |==|  0.42778
USER: genes 5 Torsion [C]-N--CA-[C] |==|  0.65352
USER: genes 6 Torsion [N]-CA--CB-[CG] |==|  0.93715
USER: genes 7 Torsion [CA]-CB--CG-[CD1] |==|  0.75434
USER: genes 8 Torsion [N]-CA--C-[N] |==|  0.29053
USER: genes 9 Torsion [C]-N--CA-[C] |==|  0.15183
USER: genes 10 Torsion [N]-CA--CB-[CG] |==|  0.91890
USER: genes 11 Torsion [CA]-CB--CG-[OD1] |==|  0.28397
USER: genes 12 Torsion [N]-CA--C-[O] |==|  0.09838
USER: genes 13 Torsion [N]-CA--CB-[CG2] |==|  0.03472
USER: genes 14 Torsion [CA]-CB--CG1-[CD1] |==|  0.71213
USER: genes 15 Torsion [N]-C--CA-[N] |==|  0.28155
USER: genes 16 Torsion [C]-CA--N-[C] |==|  0.61698
USER: genes 17 Torsion [N]-C--CA-[N] |==|  0.90908
USER: genes 18 Torsion [C]-CA--N-[C] |==|  0.66263
USER: genes 19 Torsion [N]-C--CA-[N] |==|  0.41768
USER: genes 20 Torsion [C]-CA--CB-[CG1] |==|  0.05524
USER: genes 21 Torsion [CA]-CB--CG1-[CD1] |==|  0.50774
USER: genes 22 Torsion [C]-CA--CB-[CG] |==|  0.22761
USER: genes 23 Torsion [CA]-CB--CG-[CD] |==|  0.62456
USER: genes 24 Torsion [CB]-CG--CD-[NE] |==|  0.67801
USER: genes 25 Torsion [CG]-CD--NE-[CZ] |==|  0.19298
USER: genes 26 Torsion [C]-CA--CB-[CG1] |==|  0.51207
USER: genes 27 Torsion [CA]-CB--CG1-[CD1] |==|  0.52298
ROOT
ATOM      1  C   ILE E1023     -48.761  26.562   1.451  1.00 40.02 LIG 0.24  C 
ATOM      2 O    ILE E1023     -47.524  26.544   1.359  1.00 38.38 LIG-0.27  OA
ATOM      3  N   PRO E1024     -49.524  25.442   1.388  1.00 37.38 LIG-0.34  N 
ATOM      4  CA  PRO E1024     -48.891  24.157   1.059  1.00 36.67 LIG 0.18  C 
ATOM      5  CB  PRO E1024     -49.954  23.129   1.439  1.00 38.74 LIG 0.04  C 
ATOM      6  CG  PRO E1024     -51.245  23.840   1.280  1.00 43.33 LIG 0.02  C 
ATOM      7  CD  PRO E1024     -50.996  25.307   1.480  1.00 39.42 LIG 0.13  C 
ENDROOT
BRANCH 4 8
ATOM      8  C   PRO E1024     -48.578  24.128  -0.432  1.00 39.60 LIG 0.24  C 
ATOM      9 O    PRO E1024     -49.501  24.224  -1.239  1.00 37.18 LIG-0.27  OA
ATOM     10  N   ILE E1025     -47.278  24.034  -0.780  1.00 37.20 LIG-0.35  N 
ATOM     11 H    ILE E1025     -46.658  23.978  -0.187  1.00 37.20 LIG 0.16  HD
BRANCH 10 12
ATOM     12  CA  ILE E1025     -46.738  24.013  -2.146  1.00 37.42 LIG 0.18  C 
BRANCH 12 13
ATOM     13  C   ILE E1025     -47.527  23.045  -3.025  1.00 40.88 LIG 0.24  C 
ATOM     14 O    ILE E1025     -47.943  21.996  -2.531  1.00 40.29 LIG-0.27  OA
ATOM     15  N   PHE E1026     -47.546  23.273  -4.353  1.00 36.23 LIG-0.35  N 
ATOM     16 H    PHE E1026     -47.276  24.001  -4.723  1.00 36.23 LIG 0.16  HD
BRANCH 15 17
ATOM     17  CA  PHE E1026     -48.049  22.258  -5.288  1.00 36.58 LIG 0.18  C 
BRANCH 17 18
ATOM     18  CB  PHE E1026     -49.349  22.700  -5.953  1.00 38.58 LIG 0.07  C 
BRANCH 18 19
ATOM     19  CG  PHE E1026     -50.078  23.739  -5.153  1.00 40.24 LIG-0.06  A 
ATOM     20  CD1 PHE E1026     -50.982  23.372  -4.179  1.00 42.20 LIG 0.01  A 
ATOM     21  CE1 PHE E1026     -51.662  24.331  -3.450  1.00 42.54 LIG 0.00  A 
ATOM     22  CZ  PHE E1026     -51.442  25.663  -3.689  1.00 41.81 LIG 0.00  A 
ATOM     23  CE2 PHE E1026     -50.554  26.051  -4.657  1.00 44.36 LIG 0.00  A 
ATOM     24  CD2 PHE E1026     -49.876  25.093  -5.393  1.00 42.30 LIG 0.01  A 
ENDBRANCH 18 19
ENDBRANCH 17 18
BRANCH 17 25
ATOM     25  C   PHE E1026     -47.009  21.934  -6.344  1.00 38.60 LIG 0.24  C 
ATOM     26  N   ASN E1027     -46.358  20.753  -6.196  1.00 38.80 LIG-0.35  N 
ATOM     27 H    ASN E1027     -46.505  20.227  -5.531  1.00 38.80 LIG 0.16  HD
ATOM     28 O    PHE E1026     -46.845  22.695  -7.295  1.00 31.59 LIG-0.27  OA
BRANCH 26 29
ATOM     29  CA  ASN E1027     -45.348  20.234  -7.125  1.00 74.37 LIG 0.17  C 
BRANCH 29 30
ATOM     30  CB  ASN E1027     -45.983  19.912  -8.474  1.00 75.17 LIG 0.14  C 
BRANCH 30 31
ATOM     31  CG  ASN E1027     -47.435  19.518  -8.368  1.00 99.64 LIG 0.22  C 
ATOM     32  ND2 ASN E1027     -47.710  18.280  -7.969  1.00 92.55 LIG-0.37  N 
ATOM     33 22HD ASN E1027     -47.071  17.739  -7.775  1.00 92.55 LIG 0.16  HD
ATOM     34 21HD ASN E1027     -48.528  18.020  -7.904  1.00 92.55 LIG 0.16  HD
ATOM     35 OD1  ASN E1027     -48.330  20.317  -8.653  1.00 94.01 LIG-0.27  OA
ENDBRANCH 30 31
ENDBRANCH 29 30
BRANCH 29 36
ATOM     36  C   ASN E1027     -44.235  21.262  -7.321  1.00103.37 LIG 0.22  C 
ATOM     37 O    ASN E1027     -43.876  21.974  -6.388  1.00 69.20 LIG-0.29  OA
ENDBRANCH 29 36
ENDBRANCH 26 29
ENDBRANCH 17 25
ENDBRANCH 15 17
ENDBRANCH 12 13
BRANCH 12 38
ATOM     38  CB  ILE E1025     -45.260  23.425  -2.091  1.00 40.50 LIG 0.01  C 
ATOM     39  CG2 ILE E1025     -44.954  22.780  -0.732  1.00 43.95 LIG 0.01  C 
BRANCH 38 40
ATOM     40  CG1 ILE E1025     -44.954  22.456  -3.233  1.00 41.58 LIG 0.00  C 
ATOM     41  CD1 ILE E1025     -44.973  20.901  -2.761  1.00 52.05 LIG 0.01  C 
ENDBRANCH 38 40
ENDBRANCH 12 38
ENDBRANCH 10 12
ENDBRANCH 4 8
BRANCH 1 42
ATOM     42  CA  ILE E1023     -49.443  27.886   1.749  1.00 36.06 LIG 0.18  C 
BRANCH 42 43
ATOM     43  N   ILE E1023     -49.197  28.179   3.174  1.00 37.96 LIG-0.35  N 
ATOM     44  C   ARG E1022     -50.148  28.669   3.997  1.00 45.42 LIG 0.24  C 
ATOM     45 O    ARG E1022     -51.273  28.985   3.612  1.00 45.23 LIG-0.27  OA
ATOM     46 H    ILE E1023     -48.394  28.008   3.430  1.00 37.96 LIG 0.16  HD
BRANCH 44 47
ATOM     47  CA  ARG E1022     -49.787  28.912   5.463  1.00 45.59 LIG 0.18  C 
BRANCH 47 48
ATOM     48  N   ARG E1022     -48.802  27.950   5.985  1.00 48.30 LIG-0.35  N 
ATOM     49 H    ARG E1022     -48.056  27.938   5.558  1.00 48.30 LIG 0.16  HD
ATOM     50  C   ILE E1021     -49.073  27.163   7.049  1.00 57.51 LIG 0.26  C 
ATOM     51 O    ILE E1021     -50.154  27.200   7.651  1.00 59.03 LIG-0.27  OA
BRANCH 50 52
ATOM     52  CA  ILE E1021     -47.981  26.193   7.531  1.00 57.59 LIG 0.40  C 
ATOM     53  N   ILE E1021     -48.136  25.992   8.968  1.00 58.96 LIG 0.61  N 
BRANCH 52 54
ATOM     54  CB  ILE E1021     -48.079  24.795   6.859  1.00 60.58 LIG 0.03  C 
ATOM     55  CG2 ILE E1021     -48.647  23.728   7.791  1.00 61.37 LIG 0.01  C 
BRANCH 54 56
ATOM     56  CG1 ILE E1021     -48.903  24.876   5.550  1.00 60.59 LIG 0.00  C 
ATOM     57  CD1 ILE E1021     -49.083  23.554   4.903  1.00 60.15 LIG 0.01  C 
ENDBRANCH 54 56
ENDBRANCH 52 54
ENDBRANCH 50 52
ENDBRANCH 47 48
BRANCH 47 58
ATOM     58  CB  ARG E1022     -49.308  30.361   5.615  1.00 44.33 LIG 0.04  C 
BRANCH 58 59
ATOM     59  CG  ARG E1022     -50.451  31.361   5.736  1.00 47.73 LIG 0.02  C 
BRANCH 59 60
ATOM     60  CD  ARG E1022     -50.255  32.595   4.880  1.00 47.87 LIG 0.14  C 
BRANCH 60 61
ATOM     61  NE  ARG E1022     -50.127  33.788   5.714  1.00 55.98 LIG-0.23  N 
ATOM     62  CZ  ARG E1022     -49.101  34.085   6.508  1.00 56.00 LIG 0.67  C 
ATOM     63  NH1 ARG E1022     -48.047  33.280   6.582  1.00 48.69 LIG-0.23  N 
ATOM     64  NH2 ARG E1022     -49.106  35.208   7.211  1.00 32.20 LIG-0.23  N 
ATOM     65 1HH1 ARG E1022     -48.024  32.559   6.113  1.00 48.69 LIG 0.17  HD
ATOM     66 2HH1 ARG E1022     -47.389  33.480   7.097  1.00 48.69 LIG 0.17  HD
ATOM     67 2HH2 ARG E1022     -48.442  35.397   7.723  1.00 32.20 LIG 0.17  HD
ATOM     68 1HH2 ARG E1022     -49.773  35.748   7.154  1.00 32.20 LIG 0.17  HD
ATOM     69 HE   ARG E1022     -50.776  34.352   5.689  1.00 55.98 LIG 0.18  HD
ENDBRANCH 60 61
ENDBRANCH 59 60
ENDBRANCH 58 59
ENDBRANCH 47 58
ENDBRANCH 44 47
ENDBRANCH 42 43
BRANCH 42 70
ATOM     70  CB  ILE E1023     -48.880  28.987   0.791  1.00 38.78 LIG 0.01  C 
ATOM     71  CG2 ILE E1023     -49.105  28.594  -0.677  1.00 39.01 LIG 0.01  C 
BRANCH 70 72
ATOM     72  CG1 ILE E1023     -49.440  30.411   1.088  1.00 39.61 LIG 0.00  C 
ATOM     73  CD1 ILE E1023     -49.111  31.506   0.104  1.00 43.21 LIG 0.01  C 
ENDBRANCH 70 72
ENDBRANCH 42 70
ENDBRANCH 1 42
TORSDOF 26
ENDMDL
MODEL 25
USER: ADFR SOLUTION from run 41
USER: SCORE 21.604370 LL:  -6.067 LR: -18.054 RR:   0.000 FEB: -10.299
USER: RMSD 12.612572
USER: SEED 40
USER: STATUS no improvement in best in 6 clusters for 5 generations
USER: GENES 28
USER: genes 0 Translation |==|  0.40026 0.60704 0.56972
USER: genes 1 Rotation |==|  0.08196 0.66713 0.35453 0.66172
USER: genes 2 Torsion [N]-CA--C-[O] |==|  0.71260
USER: genes 3 Torsion [C]-N--CA-[CB] |==|  0.33567
USER: genes 4 Torsion [N]-CA--C-[N] |==|  0.00673
USER: genes 5 Torsion [C]-N--CA-[C] |==|  0.71667
USER: genes 6 Torsion [N]-CA--CB-[CG] |==|  0.91629
USER: genes 7 Torsion [CA]-CB--CG-[CD1] |==|  0.31813
USER: genes 8 Torsion [N]-CA--C-[N] |==|  0.49999
USER: genes 9 Torsion [C]-N--CA-[C] |==|  0.54057
USER: genes 10 Torsion [N]-CA--CB-[CG] |==|  0.63651
USER: genes 11 Torsion [CA]-CB--CG-[OD1] |==|  0.15829
USER: genes 12 Torsion [N]-CA--C-[O] |==|  0.11528
USER: genes 13 Torsion [N]-CA--CB-[CG2] |==|  0.28685
USER: genes 14 Torsion [CA]-CB--CG1-[CD1] |==|  0.82967
USER: genes 15 Torsion [N]-C--CA-[N] |==|  0.10755
USER: genes 16 Torsion [C]-CA--N-[C] |==|  0.61405
USER: genes 17 Torsion [N]-C--CA-[N] |==|  0.09694
USER: genes 18 Torsion [C]-CA--N-[C] |==|  0.15884
USER: genes 19 Torsion [N]-C--CA-[N] |==|  0.79954
USER: genes 20 Torsion [C]-CA--CB-[CG1] |==|  0.12177
USER: genes 21 Torsion [CA]-CB--CG1-[CD1] |==|  0.67304
USER: genes 22 Torsion [C]-CA--CB-[CG] |==|  0.44658
USER: genes 23 Torsion [CA]-CB--CG-[CD] |==|  0.88733
USER: genes 24 Torsion [CB]-CG--CD-[NE] |==|  0.27217
USER: genes 25 Torsion [CG]-CD--NE-[CZ] |==|  0.51344
USER: genes 26 Torsion [C]-CA--CB-[CG1] |==|  0.18968
USER: genes 27 Torsion [CA]-CB--CG1-[CD1] |==|  0.31174
ROOT
ATOM      1  C   ILE E1023     -49.852  27.519   2.445  1.00 40.02 LIG 0.24  C 
ATOM      2 O    ILE E1023     -50.448  26.713   1.715  1.00 38.38 LIG-0.27  OA
ATOM      3  N   PRO E1024     -49.598  28.800   2.079  1.00 37.38 LIG-0.34  N 
ATOM      4  CA  PRO E1024     -49.911  29.235   0.710  1.00 36.67 LIG 0.18  C 
ATOM      5  CB  PRO E1024     -49.841  30.757   0.795  1.00 38.74 LIG 0.04  C 
ATOM      6  CG  PRO E1024     -48.880  31.033   1.888  1.00 43.33 LIG 0.02  C 
ATOM      7  CD  PRO E1024     -48.902  29.868   2.834  1.00 39.42 LIG 0.13  C 
ENDROOT
BRANCH 4 8
ATOM      8  C   PRO E1024     -48.864  28.668  -0.240  1.00 39.60 LIG 0.24  C 
ATOM      9 O    PRO E1024     -47.981  29.409  -0.669  1.00 37.18 LIG-0.27  OA
ATOM     10  N   ILE E1025     -48.951  27.353  -0.529  1.00 37.20 LIG-0.35  N 
ATOM     11 H    ILE E1025     -49.577  26.862  -0.202  1.00 37.20 LIG 0.16  HD
BRANCH 10 12
ATOM     12  CA  ILE E1025     -48.045  26.586  -1.395  1.00 37.42 LIG 0.18  C 
BRANCH 12 13
ATOM     13  C   ILE E1025     -48.822  25.894  -2.513  1.00 40.88 LIG 0.24  C 
ATOM     14 O    ILE E1025     -48.196  25.337  -3.416  1.00 40.29 LIG-0.27  OA
ATOM     15  N   PHE E1026     -50.150  26.109  -2.583  1.00 36.23 LIG-0.35  N 
ATOM     16 H    PHE E1026     -50.614  26.482  -1.962  1.00 36.23 LIG 0.16  HD
BRANCH 15 17
ATOM     17  CA  PHE E1026     -50.921  25.704  -3.766  1.00 36.58 LIG 0.18  C 
BRANCH 17 18
ATOM     18  CB  PHE E1026     -52.219  25.002  -3.379  1.00 38.58 LIG 0.07  C 
BRANCH 18 19
ATOM     19  CG  PHE E1026     -52.106  24.261  -2.079  1.00 40.24 LIG-0.06  A 
ATOM     20  CD1 PHE E1026     -52.840  24.652  -0.980  1.00 42.20 LIG 0.01  A 
ATOM     21  CE1 PHE E1026     -52.726  23.975   0.221  1.00 42.54 LIG 0.00  A 
ATOM     22  CZ  PHE E1026     -51.878  22.904   0.330  1.00 41.81 LIG 0.00  A 
ATOM     23  CE2 PHE E1026     -51.133  22.502  -0.746  1.00 44.36 LIG 0.00  A 
ATOM     24  CD2 PHE E1026     -51.241  23.182  -1.949  1.00 42.30 LIG 0.01  A 
ENDBRANCH 18 19
ENDBRANCH 17 18
BRANCH 17 25
ATOM     25  C   PHE E1026     -51.220  26.900  -4.651  1.00 38.60 LIG 0.24  C 
ATOM     26  N   ASN E1027     -51.931  26.644  -5.778  1.00 38.80 LIG-0.35  N 
ATOM     27 H    ASN E1027     -52.178  25.849  -5.995  1.00 38.80 LIG 0.16  HD
ATOM     28 O    PHE E1026     -50.876  28.025  -4.295  1.00 31.59 LIG-0.27  OA
BRANCH 26 29
ATOM     29  CA  ASN E1027     -52.357  27.662  -6.745  1.00 74.37 LIG 0.17  C 
BRANCH 29 30
ATOM     30  CB  ASN E1027     -51.167  28.142  -7.569  1.00 75.17 LIG 0.14  C 
BRANCH 30 31
ATOM     31  CG  ASN E1027     -51.060  29.645  -7.639  1.00 99.64 LIG 0.22  C 
ATOM     32  ND2 ASN E1027     -51.044  30.207  -8.844  1.00 92.55 LIG-0.37  N 
ATOM     33 22HD ASN E1027     -51.100  29.716  -9.548  1.00 92.55 LIG 0.16  HD
ATOM     34 21HD ASN E1027     -50.977  31.061  -8.921  1.00 92.55 LIG 0.16  HD
ATOM     35 OD1  ASN E1027     -50.981  30.322  -6.612  1.00 94.01 LIG-0.27  OA
ENDBRANCH 30 31
ENDBRANCH 29 30
BRANCH 29 36
ATOM     36  C   ASN E1027     -53.422  27.089  -7.678  1.00103.37 LIG 0.22  C 
ATOM     37 O    ASN E1027     -54.315  26.372  -7.235  1.00 69.20 LIG-0.29  OA
ENDBRANCH 29 36
ENDBRANCH 26 29
ENDBRANCH 17 25
ENDBRANCH 15 17
ENDBRANCH 12 13
BRANCH 12 38
ATOM     38  CB  ILE E1025     -47.405  25.411  -0.534  1.00 40.50 LIG 0.01  C 
ATOM     39  CG2 ILE E1025     -48.056  24.056  -0.847  1.00 43.95 LIG 0.01  C 
BRANCH 38 40
ATOM     40  CG1 ILE E1025     -45.884  25.326  -0.666  1.00 41.58 LIG 0.00  C 
ATOM     41  CD1 ILE E1025     -45.401  25.033  -2.190  1.00 52.05 LIG 0.01  C 
ENDBRANCH 38 40
ENDBRANCH 12 38
ENDBRANCH 10 12
ENDBRANCH 4 8
BRANCH 1 42
ATOM     42  CA  ILE E1023     -49.479  27.080   3.850  1.00 36.06 LIG 0.18  C 
BRANCH 42 43
ATOM     43  N   ILE E1023     -49.794  28.211   4.745  1.00 37.96 LIG-0.35  N 
ATOM     44  C   ARG E1022     -48.989  28.588   5.761  1.00 45.42 LIG 0.24  C 
ATOM     45 O    ARG E1022     -47.968  27.975   6.074  1.00 45.23 LIG-0.27  OA
ATOM     46 H    ILE E1023     -50.534  28.605   4.558  1.00 37.96 LIG 0.16  HD
BRANCH 44 47
ATOM     47  CA  ARG E1022     -49.403  29.791   6.609  1.00 45.59 LIG 0.18  C 
BRANCH 47 48
ATOM     48  N   ARG E1022     -50.860  29.896   6.793  1.00 48.30 LIG-0.35  N 
ATOM     49 H    ARG E1022     -51.200  30.639   6.528  1.00 48.30 LIG 0.16  HD
ATOM     50  C   ILE E1021     -51.581  28.890   7.338  1.00 57.51 LIG 0.26  C 
ATOM     51 O    ILE E1021     -51.070  27.826   7.709  1.00 59.03 LIG-0.27  OA
BRANCH 50 52
ATOM     52  CA  ILE E1021     -53.100  29.083   7.483  1.00 57.59 LIG 0.40  C 
ATOM     53  N   ILE E1021     -53.349  30.046   8.552  1.00 58.96 LIG 0.61  N 
BRANCH 52 54
ATOM     54  CB  ILE E1021     -53.760  29.648   6.194  1.00 60.58 LIG 0.03  C 
ATOM     55  CG2 ILE E1021     -53.604  31.161   6.064  1.00 61.37 LIG 0.01  C 
BRANCH 54 56
ATOM     56  CG1 ILE E1021     -53.209  28.929   4.939  1.00 60.59 LIG 0.00  C 
ATOM     57  CD1 ILE E1021     -52.498  29.848   4.017  1.00 60.15 LIG 0.01  C 
ENDBRANCH 54 56
ENDBRANCH 52 54
ENDBRANCH 50 52
ENDBRANCH 47 48
BRANCH 47 58
ATOM     58  CB  ARG E1022     -48.660  29.723   7.949  1.00 44.33 LIG 0.04  C 
BRANCH 58 59
ATOM     59  CG  ARG E1022     -48.617  31.060   8.679  1.00 47.73 LIG 0.02  C 
BRANCH 59 60
ATOM     60  CD  ARG E1022     -48.369  32.234   7.755  1.00 47.87 LIG 0.14  C 
BRANCH 60 61
ATOM     61  NE  ARG E1022     -49.627  32.894   7.408  1.00 55.98 LIG-0.23  N 
ATOM     62  CZ  ARG E1022     -49.778  33.898   6.549  1.00 56.00 LIG 0.67  C 
ATOM     63  NH1 ARG E1022     -48.734  34.383   5.886  1.00 48.69 LIG-0.23  N 
ATOM     64  NH2 ARG E1022     -50.980  34.404   6.319  1.00 32.20 LIG-0.23  N 
ATOM     65 1HH1 ARG E1022     -47.952  34.047   6.011  1.00 48.69 LIG 0.17  HD
ATOM     66 2HH1 ARG E1022     -48.840  35.032   5.332  1.00 48.69 LIG 0.17  HD
ATOM     67 2HH2 ARG E1022     -51.074  35.053   5.763  1.00 32.20 LIG 0.17  HD
ATOM     68 1HH2 ARG E1022     -51.667  34.083   6.726  1.00 32.20 LIG 0.17  HD
ATOM     69 HE   ARG E1022     -50.338  32.605   7.798  1.00 55.98 LIG 0.18  HD
ENDBRANCH 60 61
ENDBRANCH 59 60
ENDBRANCH 58 59
ENDBRANCH 47 58
ENDBRANCH 44 47
ENDBRANCH 42 43
BRANCH 42 70
ATOM     70  CB  ILE E1023     -50.262  25.775   4.213  1.00 38.78 LIG 0.01  C 
ATOM     71  CG2 ILE E1023     -51.777  26.002   4.095  1.00 39.01 LIG 0.01  C 
BRANCH 70 72
ATOM     72  CG1 ILE E1023     -49.810  24.533   3.387  1.00 39.61 LIG 0.00  C 
ATOM     73  CD1 ILE E1023     -49.102  23.427   4.130  1.00 43.21 LIG 0.01  C 
ENDBRANCH 70 72
ENDBRANCH 42 70
ENDBRANCH 1 42
TORSDOF 26
ENDMDL
MODEL 26
USER: ADFR SOLUTION from run 152
USER: SCORE 22.713215 LL:  -5.772 LR: -18.036 RR:   0.000 FEB: -10.280
USER: RMSD 4.281030
USER: SEED 151
USER: STATUS no improvement in best in 8 clusters for 5 generations
USER: GENES 28
USER: genes 0 Translation |==|  0.45799 0.51505 0.41916
USER: genes 1 Rotation |==|  0.52129 0.51531 0.61484 0.98593
USER: genes 2 Torsion [N]-CA--C-[O] |==|  0.76775
USER: genes 3 Torsion [C]-N--CA-[CB] |==|  0.55002
USER: genes 4 Torsion [N]-CA--C-[N] |==|  0.34565
USER: genes 5 Torsion [C]-N--CA-[C] |==|  0.83894
USER: genes 6 Torsion [N]-CA--CB-[CG] |==|  0.36491
USER: genes 7 Torsion [CA]-CB--CG-[CD1] |==|  0.74229
USER: genes 8 Torsion [N]-CA--C-[N] |==|  0.87028
USER: genes 9 Torsion [C]-N--CA-[C] |==|  0.85948
USER: genes 10 Torsion [N]-CA--CB-[CG] |==|  0.54972
USER: genes 11 Torsion [CA]-CB--CG-[OD1] |==|  0.83509
USER: genes 12 Torsion [N]-CA--C-[O] |==|  0.93298
USER: genes 13 Torsion [N]-CA--CB-[CG2] |==|  0.48787
USER: genes 14 Torsion [CA]-CB--CG1-[CD1] |==|  0.72282
USER: genes 15 Torsion [N]-C--CA-[N] |==|  0.41476
USER: genes 16 Torsion [C]-CA--N-[C] |==|  0.82012
USER: genes 17 Torsion [N]-C--CA-[N] |==|  0.14229
USER: genes 18 Torsion [C]-CA--N-[C] |==|  0.58953
USER: genes 19 Torsion [N]-C--CA-[N] |==|  0.41843
USER: genes 20 Torsion [C]-CA--CB-[CG1] |==|  0.15433
USER: genes 21 Torsion [CA]-CB--CG1-[CD1] |==|  0.64835
USER: genes 22 Torsion [C]-CA--CB-[CG] |==|  0.30880
USER: genes 23 Torsion [CA]-CB--CG-[CD] |==|  0.04490
USER: genes 24 Torsion [CB]-CG--CD-[NE] |==|  0.41641
USER: genes 25 Torsion [CG]-CD--NE-[CZ] |==|  0.75180
USER: genes 26 Torsion [C]-CA--CB-[CG1] |==|  0.30338
USER: genes 27 Torsion [CA]-CB--CG1-[CD1] |==|  0.06910
ROOT
ATOM      1  C   ILE E1023     -48.986  25.380  -1.846  1.00 40.02 LIG 0.24  C 
ATOM      2 O    ILE E1023     -49.506  26.498  -1.973  1.00 38.38 LIG-0.27  OA
ATOM      3  N   PRO E1024     -49.479  24.425  -1.018  1.00 37.38 LIG-0.34  N 
ATOM      4  CA  PRO E1024     -50.596  24.754  -0.121  1.00 36.67 LIG 0.18  C 
ATOM      5  CB  PRO E1024     -51.089  23.389   0.351  1.00 38.74 LIG 0.04  C 
ATOM      6  CG  PRO E1024     -49.897  22.511   0.288  1.00 43.33 LIG 0.02  C 
ATOM      7  CD  PRO E1024     -48.971  23.057  -0.762  1.00 39.42 LIG 0.13  C 
ENDROOT
BRANCH 4 8
ATOM      8  C   PRO E1024     -50.070  25.600   1.032  1.00 39.60 LIG 0.24  C 
ATOM      9 O    PRO E1024     -49.563  25.040   2.002  1.00 37.18 LIG-0.27  OA
ATOM     10  N   ILE E1025     -50.164  26.939   0.898  1.00 37.20 LIG-0.35  N 
ATOM     11 H    ILE E1025     -50.517  27.296   0.200  1.00 37.20 LIG 0.16  HD
BRANCH 10 12
ATOM     12  CA  ILE E1025     -49.706  27.948   1.862  1.00 37.42 LIG 0.18  C 
BRANCH 12 13
ATOM     13  C   ILE E1025     -50.160  27.592   3.276  1.00 40.88 LIG 0.24  C 
ATOM     14 O    ILE E1025     -51.364  27.607   3.536  1.00 40.29 LIG-0.27  OA
ATOM     15  N   PHE E1026     -49.217  27.490   4.233  1.00 36.23 LIG-0.35  N 
ATOM     16 H    PHE E1026     -48.372  27.463   4.080  1.00 36.23 LIG 0.16  HD
BRANCH 15 17
ATOM     17  CA  PHE E1026     -49.586  27.417   5.653  1.00 36.58 LIG 0.18  C 
BRANCH 17 18
ATOM     18  CB  PHE E1026     -48.357  27.280   6.548  1.00 38.58 LIG 0.07  C 
BRANCH 18 19
ATOM     19  CG  PHE E1026     -48.372  28.248   7.694  1.00 40.24 LIG-0.06  A 
ATOM     20  CD1 PHE E1026     -47.757  29.477   7.585  1.00 42.20 LIG 0.01  A 
ATOM     21  CE1 PHE E1026     -47.762  30.364   8.648  1.00 42.54 LIG 0.00  A 
ATOM     22  CZ  PHE E1026     -48.382  30.029   9.823  1.00 41.81 LIG 0.00  A 
ATOM     23  CE2 PHE E1026     -48.993  28.811   9.956  1.00 44.36 LIG 0.00  A 
ATOM     24  CD2 PHE E1026     -48.985  27.918   8.896  1.00 42.30 LIG 0.01  A 
ENDBRANCH 18 19
ENDBRANCH 17 18
BRANCH 17 25
ATOM     25  C   PHE E1026     -50.397  28.631   6.065  1.00 38.60 LIG 0.24  C 
ATOM     26  N   ASN E1027     -49.913  29.834   5.665  1.00 38.80 LIG-0.35  N 
ATOM     27 H    ASN E1027     -49.178  29.911   5.224  1.00 38.80 LIG 0.16  HD
ATOM     28 O    PHE E1026     -51.456  28.483   6.670  1.00 31.59 LIG-0.27  OA
BRANCH 26 29
ATOM     29  CA  ASN E1027     -50.563  31.124   5.923  1.00 74.37 LIG 0.17  C 
BRANCH 29 30
ATOM     30  CB  ASN E1027     -49.859  32.237   5.155  1.00 75.17 LIG 0.14  C 
BRANCH 30 31
ATOM     31  CG  ASN E1027     -50.175  33.615   5.682  1.00 99.64 LIG 0.22  C 
ATOM     32  ND2 ASN E1027     -49.160  34.353   6.122  1.00 92.55 LIG-0.37  N 
ATOM     33 22HD ASN E1027     -48.358  34.043   6.094  1.00 92.55 LIG 0.16  HD
ATOM     34 21HD ASN E1027     -49.305  35.141   6.436  1.00 92.55 LIG 0.16  HD
ATOM     35 OD1  ASN E1027     -51.334  34.031   5.710  1.00 94.01 LIG-0.27  OA
ENDBRANCH 30 31
ENDBRANCH 29 30
BRANCH 29 36
ATOM     36  C   ASN E1027     -52.031  31.068   5.503  1.00103.37 LIG 0.22  C 
ATOM     37 O    ASN E1027     -52.403  30.261   4.656  1.00 69.20 LIG-0.29  OA
ENDBRANCH 29 36
ENDBRANCH 26 29
ENDBRANCH 17 25
ENDBRANCH 15 17
ENDBRANCH 12 13
BRANCH 12 38
ATOM     38  CB  ILE E1025     -50.424  29.327   1.523  1.00 40.50 LIG 0.01  C 
ATOM     39  CG2 ILE E1025     -50.083  30.415   2.551  1.00 43.95 LIG 0.01  C 
BRANCH 38 40
ATOM     40  CG1 ILE E1025     -50.148  29.817   0.101  1.00 41.58 LIG 0.00  C 
ATOM     41  CD1 ILE E1025     -48.994  30.960   0.044  1.00 52.05 LIG 0.01  C 
ENDBRANCH 38 40
ENDBRANCH 12 38
ENDBRANCH 10 12
ENDBRANCH 4 8
BRANCH 1 42
ATOM     42  CA  ILE E1023     -47.803  25.029  -2.732  1.00 36.06 LIG 0.18  C 
BRANCH 42 43
ATOM     43  N   ILE E1023     -47.936  25.841  -3.957  1.00 37.96 LIG-0.35  N 
ATOM     44  C   ARG E1022     -48.957  25.691  -4.828  1.00 45.42 LIG 0.24  C 
ATOM     45 O    ARG E1022     -49.816  24.817  -4.714  1.00 45.23 LIG-0.27  OA
ATOM     46 H    ILE E1023     -47.305  26.415  -4.063  1.00 37.96 LIG 0.16  HD
BRANCH 44 47
ATOM     47  CA  ARG E1022     -49.006  26.604  -6.054  1.00 45.59 LIG 0.18  C 
BRANCH 47 48
ATOM     48  N   ARG E1022     -47.743  26.629  -6.810  1.00 48.30 LIG-0.35  N 
ATOM     49 H    ARG E1022     -47.305  25.889  -6.794  1.00 48.30 LIG 0.16  HD
ATOM     50  C   ILE E1021     -47.330  27.736  -7.466  1.00 57.51 LIG 0.26  C 
ATOM     51 O    ILE E1021     -47.981  28.788  -7.479  1.00 59.03 LIG-0.27  OA
BRANCH 50 52
ATOM     52  CA  ILE E1021     -46.002  27.668  -8.238  1.00 57.59 LIG 0.40  C 
ATOM     53  N   ILE E1021     -46.069  28.590  -9.368  1.00 58.96 LIG 0.61  N 
BRANCH 52 54
ATOM     54  CB  ILE E1021     -44.782  28.092  -7.373  1.00 60.58 LIG 0.03  C 
ATOM     55  CG2 ILE E1021     -44.781  29.581  -7.039  1.00 61.37 LIG 0.01  C 
BRANCH 54 56
ATOM     56  CG1 ILE E1021     -44.707  27.240  -6.082  1.00 60.59 LIG 0.00  C 
ATOM     57  CD1 ILE E1021     -44.636  28.066  -4.852  1.00 60.15 LIG 0.01  C 
ENDBRANCH 54 56
ENDBRANCH 52 54
ENDBRANCH 50 52
ENDBRANCH 47 48
BRANCH 47 58
ATOM     58  CB  ARG E1022     -50.191  26.180  -6.931  1.00 44.33 LIG 0.04  C 
BRANCH 58 59
ATOM     59  CG  ARG E1022     -51.315  27.208  -6.957  1.00 47.73 LIG 0.02  C 
BRANCH 59 60
ATOM     60  CD  ARG E1022     -50.889  28.570  -6.450  1.00 47.87 LIG 0.14  C 
BRANCH 60 61
ATOM     61  NE  ARG E1022     -51.655  29.628  -7.105  1.00 55.98 LIG-0.23  N 
ATOM     62  CZ  ARG E1022     -51.334  30.247  -8.238  1.00 56.00 LIG 0.67  C 
ATOM     63  NH1 ARG E1022     -50.239  29.904  -8.908  1.00 48.69 LIG-0.23  N 
ATOM     64  NH2 ARG E1022     -52.123  31.190  -8.730  1.00 32.20 LIG-0.23  N 
ATOM     65 1HH1 ARG E1022     -49.730  29.278  -8.609  1.00 48.69 LIG 0.17  HD
ATOM     66 2HH1 ARG E1022     -50.039  30.309  -9.639  1.00 48.69 LIG 0.17  HD
ATOM     67 2HH2 ARG E1022     -51.913  31.587  -9.463  1.00 32.20 LIG 0.17  HD
ATOM     68 1HH2 ARG E1022     -52.846  31.404  -8.316  1.00 32.20 LIG 0.17  HD
ATOM     69 HE   ARG E1022     -52.384  29.875  -6.720  1.00 55.98 LIG 0.18  HD
ENDBRANCH 60 61
ENDBRANCH 59 60
ENDBRANCH 58 59
ENDBRANCH 47 58
ENDBRANCH 44 47
ENDBRANCH 42 43
BRANCH 42 70
ATOM     70  CB  ILE E1023     -46.473  25.305  -1.955  1.00 38.78 LIG 0.01  C 
ATOM     71  CG2 ILE E1023     -46.732  26.208  -0.739  1.00 39.01 LIG 0.01  C 
BRANCH 70 72
ATOM     72  CG1 ILE E1023     -45.717  24.006  -1.544  1.00 39.61 LIG 0.00  C 
ATOM     73  CD1 ILE E1023     -45.968  22.767  -2.367  1.00 43.21 LIG 0.01  C 
ENDBRANCH 70 72
ENDBRANCH 42 70
ENDBRANCH 1 42
TORSDOF 26
ENDMDL
MODEL 27
USER: ADFR SOLUTION from run 118
USER: SCORE 23.330876 LL:  -6.301 LR: -18.023 RR:   0.000 FEB: -10.267
USER: RMSD 12.533140
USER: SEED 117
USER: STATUS no improvement in best in 14 clusters for 5 generations
USER: GENES 28
USER: genes 0 Translation |==|  0.43807 0.60386 0.55317
USER: genes 1 Rotation |==|  0.80173 0.85573 0.34011 0.58279
USER: genes 2 Torsion [N]-CA--C-[O] |==|  0.68064
USER: genes 3 Torsion [C]-N--CA-[CB] |==|  0.78310
USER: genes 4 Torsion [N]-CA--C-[N] |==|  0.16346
USER: genes 5 Torsion [C]-N--CA-[C] |==|  0.71455
USER: genes 6 Torsion [N]-CA--CB-[CG] |==|  0.82815
USER: genes 7 Torsion [CA]-CB--CG-[CD1] |==|  0.92780
USER: genes 8 Torsion [N]-CA--C-[N] |==|  0.43878
USER: genes 9 Torsion [C]-N--CA-[C] |==|  0.53785
USER: genes 10 Torsion [N]-CA--CB-[CG] |==|  0.64026
USER: genes 11 Torsion [CA]-CB--CG-[OD1] |==|  0.16626
USER: genes 12 Torsion [N]-CA--C-[O] |==|  0.67279
USER: genes 13 Torsion [N]-CA--CB-[CG2] |==|  0.62583
USER: genes 14 Torsion [CA]-CB--CG1-[CD1] |==|  0.39184
USER: genes 15 Torsion [N]-C--CA-[N] |==|  0.30724
USER: genes 16 Torsion [C]-CA--N-[C] |==|  0.55710
USER: genes 17 Torsion [N]-C--CA-[N] |==|  0.94689
USER: genes 18 Torsion [C]-CA--N-[C] |==|  0.77467
USER: genes 19 Torsion [N]-C--CA-[N] |==|  0.25292
USER: genes 20 Torsion [C]-CA--CB-[CG1] |==|  0.12589
USER: genes 21 Torsion [CA]-CB--CG1-[CD1] |==|  0.57291
USER: genes 22 Torsion [C]-CA--CB-[CG] |==|  0.54451
USER: genes 23 Torsion [CA]-CB--CG-[CD] |==|  0.74005
USER: genes 24 Torsion [CB]-CG--CD-[NE] |==|  0.79487
USER: genes 25 Torsion [CG]-CD--NE-[CZ] |==|  0.44691
USER: genes 26 Torsion [C]-CA--CB-[CG1] |==|  0.05282
USER: genes 27 Torsion [CA]-CB--CG1-[CD1] |==|  0.72360
ROOT
ATOM      1  C   ILE E1023     -49.285  27.445   1.973  1.00 40.02 LIG 0.24  C 
ATOM      2 O    ILE E1023     -48.086  27.718   1.817  1.00 38.38 LIG-0.27  OA
ATOM      3  N   PRO E1024     -49.750  26.172   2.045  1.00 37.38 LIG-0.34  N 
ATOM      4  CA  PRO E1024     -48.830  25.053   1.793  1.00 36.67 LIG 0.18  C 
ATOM      5  CB  PRO E1024     -49.595  23.839   2.315  1.00 38.74 LIG 0.04  C 
ATOM      6  CG  PRO E1024     -51.025  24.197   2.164  1.00 43.33 LIG 0.02  C 
ATOM      7  CD  PRO E1024     -51.140  25.693   2.226  1.00 39.42 LIG 0.13  C 
ENDROOT
BRANCH 4 8
ATOM      8  C   PRO E1024     -48.565  24.960   0.296  1.00 39.60 LIG 0.24  C 
ATOM      9 O    PRO E1024     -48.947  23.966  -0.319  1.00 37.18 LIG-0.27  OA
ATOM     10  N   ILE E1025     -47.946  26.011  -0.280  1.00 37.20 LIG-0.35  N 
ATOM     11 H    ILE E1025     -47.701  26.695   0.180  1.00 37.20 LIG 0.16  HD
BRANCH 10 12
ATOM     12  CA  ILE E1025     -47.609  26.155  -1.703  1.00 37.42 LIG 0.18  C 
BRANCH 12 13
ATOM     13  C   ILE E1025     -48.705  25.556  -2.582  1.00 40.88 LIG 0.24  C 
ATOM     14 O    ILE E1025     -48.386  24.795  -3.496  1.00 40.29 LIG-0.27  OA
ATOM     15  N   PHE E1026     -49.951  26.055  -2.462  1.00 36.23 LIG-0.35  N 
ATOM     16 H    PHE E1026     -50.205  26.576  -1.826  1.00 36.23 LIG 0.16  HD
BRANCH 15 17
ATOM     17  CA  PHE E1026     -50.995  25.728  -3.442  1.00 36.58 LIG 0.18  C 
BRANCH 17 18
ATOM     18  CB  PHE E1026     -52.308  25.353  -2.763  1.00 38.58 LIG 0.07  C 
BRANCH 18 19
ATOM     19  CG  PHE E1026     -52.180  24.133  -1.900  1.00 40.24 LIG-0.06  A 
ATOM     20  CD1 PHE E1026     -51.213  23.185  -2.161  1.00 42.20 LIG 0.01  A 
ATOM     21  CE1 PHE E1026     -51.103  22.054  -1.371  1.00 42.54 LIG 0.00  A 
ATOM     22  CZ  PHE E1026     -51.958  21.864  -0.317  1.00 41.81 LIG 0.00  A 
ATOM     23  CE2 PHE E1026     -52.930  22.789  -0.043  1.00 44.36 LIG 0.00  A 
ATOM     24  CD2 PHE E1026     -53.047  23.920  -0.835  1.00 42.30 LIG 0.01  A 
ENDBRANCH 18 19
ENDBRANCH 17 18
BRANCH 17 25
ATOM     25  C   PHE E1026     -51.216  26.884  -4.401  1.00 38.60 LIG 0.24  C 
ATOM     26  N   ASN E1027     -51.782  26.569  -5.593  1.00 38.80 LIG-0.35  N 
ATOM     27 H    ASN E1027     -51.982  25.760  -5.808  1.00 38.80 LIG 0.16  HD
ATOM     28 O    PHE E1026     -50.944  28.030  -4.050  1.00 31.59 LIG-0.27  OA
BRANCH 26 29
ATOM     29  CA  ASN E1027     -52.116  27.540  -6.641  1.00 74.37 LIG 0.17  C 
BRANCH 29 30
ATOM     30  CB  ASN E1027     -50.847  28.043  -7.322  1.00 75.17 LIG 0.14  C 
BRANCH 30 31
ATOM     31  CG  ASN E1027     -50.771  29.547  -7.399  1.00 99.64 LIG 0.22  C 
ATOM     32  ND2 ASN E1027     -50.682  30.098  -8.607  1.00 92.55 LIG-0.37  N 
ATOM     33 22HD ASN E1027     -50.676  29.600  -9.307  1.00 92.55 LIG 0.16  HD
ATOM     34 21HD ASN E1027     -50.630  30.953  -8.687  1.00 92.55 LIG 0.16  HD
ATOM     35 OD1  ASN E1027     -50.783  30.236  -6.377  1.00 94.01 LIG-0.27  OA
ENDBRANCH 30 31
ENDBRANCH 29 30
BRANCH 29 36
ATOM     36  C   ASN E1027     -53.030  26.897  -7.683  1.00103.37 LIG 0.22  C 
ATOM     37 O    ASN E1027     -52.661  26.789  -8.850  1.00 69.20 LIG-0.29  OA
ENDBRANCH 29 36
ENDBRANCH 26 29
ENDBRANCH 17 25
ENDBRANCH 15 17
ENDBRANCH 12 13
BRANCH 12 38
ATOM     38  CB  ILE E1025     -46.309  25.287  -2.000  1.00 40.50 LIG 0.01  C 
ATOM     39  CG2 ILE E1025     -45.289  26.061  -2.848  1.00 43.95 LIG 0.01  C 
BRANCH 38 40
ATOM     40  CG1 ILE E1025     -45.653  24.732  -0.735  1.00 41.58 LIG 0.00  C 
ATOM     41  CD1 ILE E1025     -45.093  23.218  -0.931  1.00 52.05 LIG 0.01  C 
ENDBRANCH 38 40
ENDBRANCH 12 38
ENDBRANCH 10 12
ENDBRANCH 4 8
BRANCH 1 42
ATOM     42  CA  ILE E1023     -50.263  28.585   2.193  1.00 36.06 LIG 0.18  C 
BRANCH 42 43
ATOM     43  N   ILE E1023     -49.904  29.209   3.482  1.00 37.96 LIG-0.35  N 
ATOM     44  C   ARG E1022     -50.764  29.968   4.194  1.00 45.42 LIG 0.24  C 
ATOM     45 O    ARG E1022     -51.889  30.267   3.793  1.00 45.23 LIG-0.27  OA
ATOM     46 H    ILE E1023     -49.100  29.043   3.735  1.00 37.96 LIG 0.16  HD
BRANCH 44 47
ATOM     47  CA  ARG E1022     -50.291  30.545   5.529  1.00 45.59 LIG 0.18  C 
BRANCH 47 48
ATOM     48  N   ARG E1022     -49.120  29.844   6.081  1.00 48.30 LIG-0.35  N 
ATOM     49 H    ARG E1022     -48.369  30.236   5.934  1.00 48.30 LIG 0.16  HD
ATOM     50  C   ILE E1021     -49.243  28.681   6.759  1.00 57.51 LIG 0.26  C 
ATOM     51 O    ILE E1021     -50.336  28.137   6.962  1.00 59.03 LIG-0.27  OA
BRANCH 50 52
ATOM     52  CA  ILE E1021     -47.966  28.024   7.309  1.00 57.59 LIG 0.40  C 
ATOM     53  N   ILE E1021     -47.736  28.509   8.666  1.00 58.96 LIG 0.61  N 
BRANCH 52 54
ATOM     54  CB  ILE E1021     -48.074  26.475   7.388  1.00 60.58 LIG 0.03  C 
ATOM     55  CG2 ILE E1021     -48.856  25.998   8.608  1.00 61.37 LIG 0.01  C 
BRANCH 54 56
ATOM     56  CG1 ILE E1021     -48.686  25.904   6.085  1.00 60.59 LIG 0.00  C 
ATOM     57  CD1 ILE E1021     -49.374  24.607   6.295  1.00 60.15 LIG 0.01  C 
ENDBRANCH 54 56
ENDBRANCH 52 54
ENDBRANCH 50 52
ENDBRANCH 47 48
BRANCH 47 58
ATOM     58  CB  ARG E1022     -50.028  32.045   5.348  1.00 44.33 LIG 0.04  C 
BRANCH 58 59
ATOM     59  CG  ARG E1022     -49.198  32.648   6.474  1.00 47.73 LIG 0.02  C 
BRANCH 59 60
ATOM     60  CD  ARG E1022     -50.041  33.250   7.579  1.00 47.87 LIG 0.14  C 
BRANCH 60 61
ATOM     61  NE  ARG E1022     -50.638  34.512   7.143  1.00 55.98 LIG-0.23  N 
ATOM     62  CZ  ARG E1022     -51.687  35.117   7.694  1.00 56.00 LIG 0.67  C 
ATOM     63  NH1 ARG E1022     -52.286  34.596   8.759  1.00 48.69 LIG-0.23  N 
ATOM     64  NH2 ARG E1022     -52.126  36.267   7.204  1.00 32.20 LIG-0.23  N 
ATOM     65 1HH1 ARG E1022     -51.996  33.861   9.099  1.00 48.69 LIG 0.17  HD
ATOM     66 2HH1 ARG E1022     -52.963  34.993   9.109  1.00 48.69 LIG 0.17  HD
ATOM     67 2HH2 ARG E1022     -52.805  36.655   7.562  1.00 32.20 LIG 0.17  HD
ATOM     68 1HH2 ARG E1022     -51.733  36.624   6.528  1.00 32.20 LIG 0.17  HD
ATOM     69 HE   ARG E1022     -50.276  34.900   6.467  1.00 55.98 LIG 0.18  HD
ENDBRANCH 60 61
ENDBRANCH 59 60
ENDBRANCH 58 59
ENDBRANCH 47 58
ENDBRANCH 44 47
ENDBRANCH 42 43
BRANCH 42 70
ATOM     70  CB  ILE E1023     -50.182  29.579   0.988  1.00 38.78 LIG 0.01  C 
ATOM     71  CG2 ILE E1023     -49.469  30.875   1.400  1.00 39.01 LIG 0.01  C 
BRANCH 70 72
ATOM     72  CG1 ILE E1023     -49.534  28.955  -0.285  1.00 39.61 LIG 0.00  C 
ATOM     73  CD1 ILE E1023     -48.082  29.270  -0.549  1.00 43.21 LIG 0.01  C 
ENDBRANCH 70 72
ENDBRANCH 42 70
ENDBRANCH 1 42
TORSDOF 26
ENDMDL
MODEL 28
USER: ADFR SOLUTION from run 87
USER: SCORE 23.454555 LL:  -6.121 LR: -18.011 RR:   0.000 FEB: -10.255
USER: RMSD 4.200989
USER: SEED 86
USER: STATUS no improvement in best in 11 clusters for 5 generations
USER: GENES 28
USER: genes 0 Translation |==|  0.49008 0.46564 0.43869
USER: genes 1 Rotation |==|  0.42252 0.43598 0.53699 0.98840
USER: genes 2 Torsion [N]-CA--C-[O] |==|  0.67621
USER: genes 3 Torsion [C]-N--CA-[CB] |==|  0.63421
USER: genes 4 Torsion [N]-CA--C-[N] |==|  0.33336
USER: genes 5 Torsion [C]-N--CA-[C] |==|  0.64342
USER: genes 6 Torsion [N]-CA--CB-[CG] |==|  0.06402
USER: genes 7 Torsion [CA]-CB--CG-[CD1] |==|  0.24232
USER: genes 8 Torsion [N]-CA--C-[N] |==|  0.36235
USER: genes 9 Torsion [C]-N--CA-[C] |==|  0.86275
USER: genes 10 Torsion [N]-CA--CB-[CG] |==|  0.79083
USER: genes 11 Torsion [CA]-CB--CG-[OD1] |==|  0.29610
USER: genes 12 Torsion [N]-CA--C-[O] |==|  0.86840
USER: genes 13 Torsion [N]-CA--CB-[CG2] |==|  0.10104
USER: genes 14 Torsion [CA]-CB--CG1-[CD1] |==|  0.53614
USER: genes 15 Torsion [N]-C--CA-[N] |==|  0.35811
USER: genes 16 Torsion [C]-CA--N-[C] |==|  0.62222
USER: genes 17 Torsion [N]-C--CA-[N] |==|  0.42809
USER: genes 18 Torsion [C]-CA--N-[C] |==|  0.63742
USER: genes 19 Torsion [N]-C--CA-[N] |==|  0.35777
USER: genes 20 Torsion [C]-CA--CB-[CG1] |==|  0.76238
USER: genes 21 Torsion [CA]-CB--CG1-[CD1] |==|  0.30358
USER: genes 22 Torsion [C]-CA--CB-[CG] |==|  0.21386
USER: genes 23 Torsion [CA]-CB--CG-[CD] |==|  0.66180
USER: genes 24 Torsion [CB]-CG--CD-[NE] |==|  0.36463
USER: genes 25 Torsion [CG]-CD--NE-[CZ] |==|  0.36386
USER: genes 26 Torsion [C]-CA--CB-[CG1] |==|  0.81421
USER: genes 27 Torsion [CA]-CB--CG1-[CD1] |==|  0.25369
ROOT
ATOM      1  C   ILE E1023     -48.505  24.231  -1.289  1.00 40.02 LIG 0.24  C 
ATOM      2 O    ILE E1023     -48.524  25.313  -1.895  1.00 38.38 LIG-0.27  OA
ATOM      3  N   PRO E1024     -49.542  23.787  -0.535  1.00 37.38 LIG-0.34  N 
ATOM      4  CA  PRO E1024     -50.693  24.670  -0.300  1.00 36.67 LIG 0.18  C 
ATOM      5  CB  PRO E1024     -51.761  23.725   0.244  1.00 38.74 LIG 0.04  C 
ATOM      6  CG  PRO E1024     -51.005  22.636   0.905  1.00 43.33 LIG 0.02  C 
ATOM      7  CD  PRO E1024     -49.663  22.530   0.240  1.00 39.42 LIG 0.13  C 
ENDROOT
BRANCH 4 8
ATOM      8  C   PRO E1024     -50.300  25.733   0.717  1.00 39.60 LIG 0.24  C 
ATOM      9 O    PRO E1024     -50.880  25.767   1.801  1.00 37.18 LIG-0.27  OA
ATOM     10  N   ILE E1025     -49.295  26.565   0.373  1.00 37.20 LIG-0.35  N 
ATOM     11 H    ILE E1025     -48.906  26.505  -0.391  1.00 37.20 LIG 0.16  HD
BRANCH 10 12
ATOM     12  CA  ILE E1025     -48.733  27.644   1.197  1.00 37.42 LIG 0.18  C 
BRANCH 12 13
ATOM     13  C   ILE E1025     -49.676  27.996   2.344  1.00 40.88 LIG 0.24  C 
ATOM     14 O    ILE E1025     -50.733  28.575   2.090  1.00 40.29 LIG-0.27  OA
ATOM     15  N   PHE E1026     -49.215  27.859   3.603  1.00 36.23 LIG-0.35  N 
ATOM     16 H    PHE E1026     -48.489  27.448   3.811  1.00 36.23 LIG 0.16  HD
BRANCH 15 17
ATOM     17  CA  PHE E1026     -49.950  28.420   4.744  1.00 36.58 LIG 0.18  C 
BRANCH 17 18
ATOM     18  CB  PHE E1026     -50.602  27.328   5.587  1.00 38.58 LIG 0.07  C 
BRANCH 18 19
ATOM     19  CG  PHE E1026     -49.928  25.998   5.423  1.00 40.24 LIG-0.06  A 
ATOM     20  CD1 PHE E1026     -48.846  25.655   6.206  1.00 42.20 LIG 0.01  A 
ATOM     21  CE1 PHE E1026     -48.218  24.432   6.045  1.00 42.54 LIG 0.00  A 
ATOM     22  CZ  PHE E1026     -48.669  23.546   5.102  1.00 41.81 LIG 0.00  A 
ATOM     23  CE2 PHE E1026     -49.737  23.867   4.308  1.00 44.36 LIG 0.00  A 
ATOM     24  CD2 PHE E1026     -50.364  25.094   4.463  1.00 42.30 LIG 0.01  A 
ENDBRANCH 18 19
ENDBRANCH 17 18
BRANCH 17 25
ATOM     25  C   PHE E1026     -49.038  29.271   5.609  1.00 38.60 LIG 0.24  C 
ATOM     26  N   ASN E1027     -49.500  30.506   5.927  1.00 38.80 LIG-0.35  N 
ATOM     27 H    ASN E1027     -50.254  30.804   5.638  1.00 38.80 LIG 0.16  HD
ATOM     28 O    PHE E1026     -47.981  28.803   6.027  1.00 31.59 LIG-0.27  OA
BRANCH 26 29
ATOM     29  CA  ASN E1027     -48.794  31.467   6.782  1.00 74.37 LIG 0.17  C 
BRANCH 29 30
ATOM     30  CB  ASN E1027     -49.702  32.645   7.119  1.00 75.17 LIG 0.14  C 
BRANCH 30 31
ATOM     31  CG  ASN E1027     -49.877  33.607   5.971  1.00 99.64 LIG 0.22  C 
ATOM     32  ND2 ASN E1027     -48.854  34.405   5.674  1.00 92.55 LIG-0.37  N 
ATOM     33 22HD ASN E1027     -48.125  34.356   6.127  1.00 92.55 LIG 0.16  HD
ATOM     34 21HD ASN E1027     -48.922  34.971   5.029  1.00 92.55 LIG 0.16  HD
ATOM     35 OD1  ASN E1027     -50.935  33.655   5.340  1.00 94.01 LIG-0.27  OA
ENDBRANCH 30 31
ENDBRANCH 29 30
BRANCH 29 36
ATOM     36  C   ASN E1027     -48.342  30.790   8.075  1.00103.37 LIG 0.22  C 
ATOM     37 O    ASN E1027     -49.123  30.092   8.716  1.00 69.20 LIG-0.29  OA
ENDBRANCH 29 36
ENDBRANCH 26 29
ENDBRANCH 17 25
ENDBRANCH 15 17
ENDBRANCH 12 13
BRANCH 12 38
ATOM     38  CB  ILE E1025     -48.643  28.959   0.305  1.00 40.50 LIG 0.01  C 
ATOM     39  CG2 ILE E1025     -49.831  29.074  -0.661  1.00 43.95 LIG 0.01  C 
BRANCH 38 40
ATOM     40  CG1 ILE E1025     -48.485  30.237   1.128  1.00 41.58 LIG 0.00  C 
ATOM     41  CD1 ILE E1025     -48.731  31.583   0.252  1.00 52.05 LIG 0.01  C 
ENDBRANCH 38 40
ENDBRANCH 12 38
ENDBRANCH 10 12
ENDBRANCH 4 8
BRANCH 1 42
ATOM     42  CA  ILE E1023     -47.307  23.318  -1.482  1.00 36.06 LIG 0.18  C 
BRANCH 42 43
ATOM     43  N   ILE E1023     -47.050  23.256  -2.933  1.00 37.96 LIG-0.35  N 
ATOM     44  C   ARG E1022     -46.775  22.103  -3.581  1.00 45.42 LIG 0.24  C 
ATOM     45 O    ARG E1022     -46.640  21.024  -3.005  1.00 45.23 LIG-0.27  OA
ATOM     46 H    ILE E1023     -47.092  24.019  -3.326  1.00 37.96 LIG 0.16  HD
BRANCH 44 47
ATOM     47  CA  ARG E1022     -46.549  22.154  -5.092  1.00 45.59 LIG 0.18  C 
BRANCH 47 48
ATOM     48  N   ARG E1022     -45.701  21.058  -5.589  1.00 48.30 LIG-0.35  N 
ATOM     49 H    ARG E1022     -45.937  20.276  -5.319  1.00 48.30 LIG 0.16  HD
ATOM     50  C   ILE E1021     -44.646  21.289  -6.401  1.00 57.51 LIG 0.26  C 
ATOM     51 O    ILE E1021     -44.328  22.423  -6.780  1.00 59.03 LIG-0.27  OA
BRANCH 50 52
ATOM     52  CA  ILE E1021     -43.821  20.081  -6.879  1.00 57.59 LIG 0.40  C 
ATOM     53  N   ILE E1021     -43.693  20.148  -8.331  1.00 58.96 LIG 0.61  N 
BRANCH 52 54
ATOM     54  CB  ILE E1021     -42.382  20.066  -6.292  1.00 60.58 LIG 0.03  C 
ATOM     55  CG2 ILE E1021     -41.829  18.655  -6.115  1.00 61.37 LIG 0.01  C 
BRANCH 54 56
ATOM     56  CG1 ILE E1021     -41.430  20.925  -7.161  1.00 60.59 LIG 0.00  C 
ATOM     57  CD1 ILE E1021     -41.016  22.180  -6.489  1.00 60.15 LIG 0.01  C 
ENDBRANCH 54 56
ENDBRANCH 52 54
ENDBRANCH 50 52
ENDBRANCH 47 48
BRANCH 47 58
ATOM     58  CB  ARG E1022     -47.914  22.183  -5.790  1.00 44.33 LIG 0.04  C 
BRANCH 58 59
ATOM     59  CG  ARG E1022     -48.587  23.550  -5.735  1.00 47.73 LIG 0.02  C 
BRANCH 59 60
ATOM     60  CD  ARG E1022     -49.947  23.517  -5.070  1.00 47.87 LIG 0.14  C 
BRANCH 60 61
ATOM     61  NE  ARG E1022     -50.057  24.574  -4.066  1.00 55.98 LIG-0.23  N 
ATOM     62  CZ  ARG E1022     -51.059  25.440  -3.942  1.00 56.00 LIG 0.67  C 
ATOM     63  NH1 ARG E1022     -52.107  25.382  -4.757  1.00 48.69 LIG-0.23  N 
ATOM     64  NH2 ARG E1022     -51.039  26.350  -2.980  1.00 32.20 LIG-0.23  N 
ATOM     65 1HH1 ARG E1022     -52.141  24.782  -5.372  1.00 48.69 LIG 0.17  HD
ATOM     66 2HH1 ARG E1022     -52.751  25.946  -4.670  1.00 48.69 LIG 0.17  HD
ATOM     67 2HH2 ARG E1022     -51.689  26.908  -2.902  1.00 32.20 LIG 0.17  HD
ATOM     68 1HH2 ARG E1022     -50.376  26.383  -2.433  1.00 32.20 LIG 0.17  HD
ATOM     69 HE   ARG E1022     -49.411  24.643  -3.502  1.00 55.98 LIG 0.18  HD
ENDBRANCH 60 61
ENDBRANCH 59 60
ENDBRANCH 58 59
ENDBRANCH 47 58
ENDBRANCH 44 47
ENDBRANCH 42 43
BRANCH 42 70
ATOM     70  CB  ILE E1023     -46.093  23.876  -0.667  1.00 38.78 LIG 0.01  C 
ATOM     71  CG2 ILE E1023     -44.973  22.828  -0.578  1.00 39.01 LIG 0.01  C 
BRANCH 70 72
ATOM     72  CG1 ILE E1023     -45.556  25.234  -1.210  1.00 39.61 LIG 0.00  C 
ATOM     73  CD1 ILE E1023     -46.138  26.495  -0.621  1.00 43.21 LIG 0.01  C 
ENDBRANCH 70 72
ENDBRANCH 42 70
ENDBRANCH 1 42
TORSDOF 26
ENDMDL
MODEL 29
USER: ADFR SOLUTION from run 20
USER: SCORE 22.701595 LL:  -6.231 LR: -18.015 RR:   0.000 FEB: -10.259
USER: RMSD 12.963488
USER: SEED 19
USER: STATUS searching
USER: GENES 28
USER: genes 0 Translation |==|  0.50337 0.57278 0.52440
USER: genes 1 Rotation |==|  0.83008 0.85163 0.38315 0.56121
USER: genes 2 Torsion [N]-CA--C-[O] |==|  0.67570
USER: genes 3 Torsion [C]-N--CA-[CB] |==|  0.80332
USER: genes 4 Torsion [N]-CA--C-[N] |==|  0.54444
USER: genes 5 Torsion [C]-N--CA-[C] |==|  0.76706
USER: genes 6 Torsion [N]-CA--CB-[CG] |==|  0.96769
USER: genes 7 Torsion [CA]-CB--CG-[CD1] |==|  0.22414
USER: genes 8 Torsion [N]-CA--C-[N] |==|  0.95015
USER: genes 9 Torsion [C]-N--CA-[C] |==|  0.65906
USER: genes 10 Torsion [N]-CA--CB-[CG] |==|  0.18042
USER: genes 11 Torsion [CA]-CB--CG-[OD1] |==|  0.78855
USER: genes 12 Torsion [N]-CA--C-[O] |==|  0.14264
USER: genes 13 Torsion [N]-CA--CB-[CG2] |==|  0.59159
USER: genes 14 Torsion [CA]-CB--CG1-[CD1] |==|  0.31022
USER: genes 15 Torsion [N]-C--CA-[N] |==|  0.29264
USER: genes 16 Torsion [C]-CA--N-[C] |==|  0.58988
USER: genes 17 Torsion [N]-C--CA-[N] |==|  0.90329
USER: genes 18 Torsion [C]-CA--N-[C] |==|  0.65945
USER: genes 19 Torsion [N]-C--CA-[N] |==|  0.41334
USER: genes 20 Torsion [C]-CA--CB-[CG1] |==|  0.07870
USER: genes 21 Torsion [CA]-CB--CG1-[CD1] |==|  0.51768
USER: genes 22 Torsion [C]-CA--CB-[CG] |==|  0.23463
USER: genes 23 Torsion [CA]-CB--CG-[CD] |==|  0.62427
USER: genes 24 Torsion [CB]-CG--CD-[NE] |==|  0.66478
USER: genes 25 Torsion [CG]-CD--NE-[CZ] |==|  0.20012
USER: genes 26 Torsion [C]-CA--CB-[CG1] |==|  0.66354
USER: genes 27 Torsion [CA]-CB--CG1-[CD1] |==|  0.55643
ROOT
ATOM      1  C   ILE E1023     -48.305  26.722   1.154  1.00 40.02 LIG 0.24  C 
ATOM      2 O    ILE E1023     -47.079  26.903   1.140  1.00 38.38 LIG-0.27  OA
ATOM      3  N   PRO E1024     -48.877  25.509   0.948  1.00 37.38 LIG-0.34  N 
ATOM      4  CA  PRO E1024     -48.033  24.372   0.555  1.00 36.67 LIG 0.18  C 
ATOM      5  CB  PRO E1024     -48.937  23.162   0.778  1.00 38.74 LIG 0.04  C 
ATOM      6  CG  PRO E1024     -50.314  23.678   0.595  1.00 43.33 LIG 0.02  C 
ATOM      7  CD  PRO E1024     -50.312  25.142   0.932  1.00 39.42 LIG 0.13  C 
ENDROOT
BRANCH 4 8
ATOM      8  C   PRO E1024     -47.643  24.529  -0.910  1.00 39.60 LIG 0.24  C 
ATOM      9 O    PRO E1024     -48.021  23.688  -1.723  1.00 37.18 LIG-0.27  OA
ATOM     10  N   ILE E1025     -46.923  25.623  -1.235  1.00 37.20 LIG-0.35  N 
ATOM     11 H    ILE E1025     -46.684  26.196  -0.640  1.00 37.20 LIG 0.16  HD
BRANCH 10 12
ATOM     12  CA  ILE E1025     -46.456  25.995  -2.577  1.00 37.42 LIG 0.18  C 
BRANCH 12 13
ATOM     13  C   ILE E1025     -47.566  25.804  -3.608  1.00 40.88 LIG 0.24  C 
ATOM     14 O    ILE E1025     -48.690  25.481  -3.220  1.00 40.29 LIG-0.27  OA
ATOM     15  N   PHE E1026     -47.220  25.781  -4.911  1.00 36.23 LIG-0.35  N 
ATOM     16 H    PHE E1026     -46.448  26.015  -5.210  1.00 36.23 LIG 0.16  HD
BRANCH 15 17
ATOM     17  CA  PHE E1026     -48.171  25.341  -5.939  1.00 36.58 LIG 0.18  C 
BRANCH 17 18
ATOM     18  CB  PHE E1026     -47.872  25.980  -7.292  1.00 38.58 LIG 0.07  C 
BRANCH 18 19
ATOM     19  CG  PHE E1026     -46.876  27.097  -7.192  1.00 40.24 LIG-0.06  A 
ATOM     20  CD1 PHE E1026     -45.525  26.831  -7.122  1.00 42.20 LIG 0.01  A 
ATOM     21  CE1 PHE E1026     -44.608  27.863  -7.018  1.00 42.54 LIG 0.00  A 
ATOM     22  CZ  PHE E1026     -45.036  29.164  -6.984  1.00 41.81 LIG 0.00  A 
ATOM     23  CE2 PHE E1026     -46.373  29.452  -7.044  1.00 44.36 LIG 0.00  A 
ATOM     24  CD2 PHE E1026     -47.295  28.421  -7.143  1.00 42.30 LIG 0.01  A 
ENDBRANCH 18 19
ENDBRANCH 17 18
BRANCH 17 25
ATOM     25  C   PHE E1026     -48.169  23.829  -6.066  1.00 38.60 LIG 0.24  C 
ATOM     26  N   ASN E1027     -47.093  23.189  -5.543  1.00 38.80 LIG-0.35  N 
ATOM     27 H    ASN E1027     -46.437  23.612  -5.182  1.00 38.80 LIG 0.16  HD
ATOM     28 O    PHE E1026     -49.136  23.256  -6.563  1.00 31.59 LIG-0.27  OA
BRANCH 26 29
ATOM     29  CA  ASN E1027     -46.915  21.733  -5.526  1.00 74.37 LIG 0.17  C 
BRANCH 29 30
ATOM     30  CB  ASN E1027     -45.705  21.336  -6.365  1.00 75.17 LIG 0.14  C 
BRANCH 30 31
ATOM     31  CG  ASN E1027     -44.401  21.848  -5.805  1.00 99.64 LIG 0.22  C 
ATOM     32  ND2 ASN E1027     -43.621  20.980  -5.167  1.00 92.55 LIG-0.37  N 
ATOM     33 22HD ASN E1027     -43.865  20.159  -5.091  1.00 92.55 LIG 0.16  HD
ATOM     34 21HD ASN E1027     -42.874  21.239  -4.830  1.00 92.55 LIG 0.16  HD
ATOM     35 OD1  ASN E1027     -44.079  23.031  -5.930  1.00 94.01 LIG-0.27  OA
ENDBRANCH 30 31
ENDBRANCH 29 30
BRANCH 29 36
ATOM     36  C   ASN E1027     -46.722  21.242  -4.093  1.00103.37 LIG 0.22  C 
ATOM     37 O    ASN E1027     -47.516  21.565  -3.214  1.00 69.20 LIG-0.29  OA
ENDBRANCH 29 36
ENDBRANCH 26 29
ENDBRANCH 17 25
ENDBRANCH 15 17
ENDBRANCH 12 13
BRANCH 12 38
ATOM     38  CB  ILE E1025     -45.304  24.984  -3.005  1.00 40.50 LIG 0.01  C 
ATOM     39  CG2 ILE E1025     -44.249  25.664  -3.888  1.00 43.95 LIG 0.01  C 
BRANCH 38 40
ATOM     40  CG1 ILE E1025     -44.648  24.281  -1.817  1.00 41.58 LIG 0.00  C 
ATOM     41  CD1 ILE E1025     -44.980  22.690  -1.767  1.00 52.05 LIG 0.01  C 
ENDBRANCH 38 40
ENDBRANCH 12 38
ENDBRANCH 10 12
ENDBRANCH 4 8
BRANCH 1 42
ATOM     42  CA  ILE E1023     -49.203  27.892   1.516  1.00 36.06 LIG 0.18  C 
BRANCH 42 43
ATOM     43  N   ILE E1023     -49.005  28.149   2.955  1.00 37.96 LIG-0.35  N 
ATOM     44  C   ARG E1022     -49.986  28.611   3.759  1.00 45.42 LIG 0.24  C 
ATOM     45 O    ARG E1022     -51.101  28.930   3.346  1.00 45.23 LIG-0.27  OA
ATOM     46 H    ILE E1023     -48.210  27.977   3.232  1.00 37.96 LIG 0.16  HD
BRANCH 44 47
ATOM     47  CA  ARG E1022     -49.675  28.818   5.242  1.00 45.59 LIG 0.18  C 
BRANCH 47 48
ATOM     48  N   ARG E1022     -48.737  27.819   5.782  1.00 48.30 LIG-0.35  N 
ATOM     49 H    ARG E1022     -47.982  27.783   5.373  1.00 48.30 LIG 0.16  HD
ATOM     50  C   ILE E1021     -49.063  27.036   6.835  1.00 57.51 LIG 0.26  C 
ATOM     51 O    ILE E1021     -50.156  27.109   7.410  1.00 59.03 LIG-0.27  OA
BRANCH 50 52
ATOM     52  CA  ILE E1021     -48.018  26.026   7.338  1.00 57.59 LIG 0.40  C 
ATOM     53  N   ILE E1021     -48.191  25.852   8.777  1.00 58.96 LIG 0.61  N 
BRANCH 52 54
ATOM     54  CB  ILE E1021     -48.173  24.625   6.684  1.00 60.58 LIG 0.03  C 
ATOM     55  CG2 ILE E1021     -48.976  23.655   7.546  1.00 61.37 LIG 0.01  C 
BRANCH 54 56
ATOM     56  CG1 ILE E1021     -48.795  24.748   5.271  1.00 60.59 LIG 0.00  C 
ATOM     57  CD1 ILE E1021     -49.104  23.431   4.664  1.00 60.15 LIG 0.01  C 
ENDBRANCH 54 56
ENDBRANCH 52 54
ENDBRANCH 50 52
ENDBRANCH 47 48
BRANCH 47 58
ATOM     58  CB  ARG E1022     -49.162  30.249   5.439  1.00 44.33 LIG 0.04  C 
BRANCH 58 59
ATOM     59  CG  ARG E1022     -50.281  31.271   5.597  1.00 47.73 LIG 0.02  C 
BRANCH 59 60
ATOM     60  CD  ARG E1022     -50.058  32.528   4.782  1.00 47.87 LIG 0.14  C 
BRANCH 60 61
ATOM     61  NE  ARG E1022     -50.012  33.704   5.649  1.00 55.98 LIG-0.23  N 
ATOM     62  CZ  ARG E1022     -49.027  34.030   6.481  1.00 56.00 LIG 0.67  C 
ATOM     63  NH1 ARG E1022     -47.937  33.275   6.567  1.00 48.69 LIG-0.23  N 
ATOM     64  NH2 ARG E1022     -49.107  35.133   7.210  1.00 32.20 LIG-0.23  N 
ATOM     65 1HH1 ARG E1022     -47.864  32.568   6.082  1.00 48.69 LIG 0.17  HD
ATOM     66 2HH1 ARG E1022     -47.304  33.493   7.106  1.00 48.69 LIG 0.17  HD
ATOM     67 2HH2 ARG E1022     -48.468  35.341   7.747  1.00 32.20 LIG 0.17  HD
ATOM     68 1HH2 ARG E1022     -49.798  35.641   7.147  1.00 32.20 LIG 0.17  HD
ATOM     69 HE   ARG E1022     -50.687  34.237   5.619  1.00 55.98 LIG 0.18  HD
ENDBRANCH 60 61
ENDBRANCH 59 60
ENDBRANCH 58 59
ENDBRANCH 47 58
ENDBRANCH 44 47
ENDBRANCH 42 43
BRANCH 42 70
ATOM     70  CB  ILE E1023     -48.841  29.122   0.618  1.00 38.78 LIG 0.01  C 
ATOM     71  CG2 ILE E1023     -49.996  29.453  -0.339  1.00 39.01 LIG 0.01  C 
BRANCH 70 72
ATOM     72  CG1 ILE E1023     -48.405  30.376   1.434  1.00 39.61 LIG 0.00  C 
ATOM     73  CD1 ILE E1023     -48.488  31.715   0.745  1.00 43.21 LIG 0.01  C 
ENDBRANCH 70 72
ENDBRANCH 42 70
ENDBRANCH 1 42
TORSDOF 26
ENDMDL
MODEL 30
USER: ADFR SOLUTION from run 118
USER: SCORE 22.895939 LL:  -6.714 LR: -17.946 RR:   0.000 FEB: -10.190
USER: RMSD 12.150490
USER: SEED 117
USER: STATUS no improvement in best in 14 clusters for 5 generations
USER: GENES 28
USER: genes 0 Translation |==|  0.44125 0.54740 0.53544
USER: genes 1 Rotation |==|  0.87261 0.82315 0.43310 0.54754
USER: genes 2 Torsion [N]-CA--C-[O] |==|  0.59319
USER: genes 3 Torsion [C]-N--CA-[CB] |==|  0.79443
USER: genes 4 Torsion [N]-CA--C-[N] |==|  0.59041
USER: genes 5 Torsion [C]-N--CA-[C] |==|  0.15584
USER: genes 6 Torsion [N]-CA--CB-[CG] |==|  0.86601
USER: genes 7 Torsion [CA]-CB--CG-[CD1] |==|  0.86565
USER: genes 8 Torsion [N]-CA--C-[N] |==|  0.09077
USER: genes 9 Torsion [C]-N--CA-[C] |==|  0.55262
USER: genes 10 Torsion [N]-CA--CB-[CG] |==|  0.11024
USER: genes 11 Torsion [CA]-CB--CG-[OD1] |==|  0.13909
USER: genes 12 Torsion [N]-CA--C-[O] |==|  0.70840
USER: genes 13 Torsion [N]-CA--CB-[CG2] |==|  0.57642
USER: genes 14 Torsion [CA]-CB--CG1-[CD1] |==|  0.30672
USER: genes 15 Torsion [N]-C--CA-[N] |==|  0.35758
USER: genes 16 Torsion [C]-CA--N-[C] |==|  0.61348
USER: genes 17 Torsion [N]-C--CA-[N] |==|  0.87937
USER: genes 18 Torsion [C]-CA--N-[C] |==|  0.68966
USER: genes 19 Torsion [N]-C--CA-[N] |==|  0.39168
USER: genes 20 Torsion [C]-CA--CB-[CG1] |==|  0.17730
USER: genes 21 Torsion [CA]-CB--CG1-[CD1] |==|  0.69872
USER: genes 22 Torsion [C]-CA--CB-[CG] |==|  0.47298
USER: genes 23 Torsion [CA]-CB--CG-[CD] |==|  0.70834
USER: genes 24 Torsion [CB]-CG--CD-[NE] |==|  0.80255
USER: genes 25 Torsion [CG]-CD--NE-[CZ] |==|  0.27370
USER: genes 26 Torsion [C]-CA--CB-[CG1] |==|  0.91438
USER: genes 27 Torsion [CA]-CB--CG1-[CD1] |==|  0.58764
ROOT
ATOM      1  C   ILE E1023     -49.237  26.132   1.468  1.00 40.02 LIG 0.24  C 
ATOM      2 O    ILE E1023     -48.012  26.071   1.647  1.00 38.38 LIG-0.27  OA
ATOM      3  N   PRO E1024     -49.964  25.099   0.972  1.00 37.38 LIG-0.34  N 
ATOM      4  CA  PRO E1024     -49.272  23.895   0.491  1.00 36.67 LIG 0.18  C 
ATOM      5  CB  PRO E1024     -50.391  22.865   0.370  1.00 38.74 LIG 0.04  C 
ATOM      6  CG  PRO E1024     -51.614  23.660   0.107  1.00 43.33 LIG 0.02  C 
ATOM      7  CD  PRO E1024     -51.419  25.025   0.703  1.00 39.42 LIG 0.13  C 
ENDROOT
BRANCH 4 8
ATOM      8  C   PRO E1024     -48.630  24.200  -0.857  1.00 39.60 LIG 0.24  C 
ATOM      9 O    PRO E1024     -48.557  23.308  -1.700  1.00 37.18 LIG-0.27  OA
ATOM     10  N   ILE E1025     -48.205  25.465  -1.058  1.00 37.20 LIG-0.35  N 
ATOM     11 H    ILE E1025     -48.281  26.066  -0.448  1.00 37.20 LIG 0.16  HD
BRANCH 10 12
ATOM     12  CA  ILE E1025     -47.582  25.994  -2.279  1.00 37.42 LIG 0.18  C 
BRANCH 12 13
ATOM     13  C   ILE E1025     -48.282  25.453  -3.523  1.00 40.88 LIG 0.24  C 
ATOM     14 O    ILE E1025     -49.436  25.033  -3.421  1.00 40.29 LIG-0.27  OA
ATOM     15  N   PHE E1026     -47.538  25.253  -4.628  1.00 36.23 LIG-0.35  N 
ATOM     16 H    PHE E1026     -46.736  25.546  -4.731  1.00 36.23 LIG 0.16  HD
BRANCH 15 17
ATOM     17  CA  PHE E1026     -48.066  24.495  -5.770  1.00 36.58 LIG 0.18  C 
BRANCH 17 18
ATOM     18  CB  PHE E1026     -48.277  23.025  -5.420  1.00 38.58 LIG 0.07  C 
BRANCH 18 19
ATOM     19  CG  PHE E1026     -47.085  22.420  -4.739  1.00 40.24 LIG-0.06  A 
ATOM     20  CD1 PHE E1026     -45.818  22.592  -5.254  1.00 42.20 LIG 0.01  A 
ATOM     21  CE1 PHE E1026     -44.720  22.024  -4.631  1.00 42.54 LIG 0.00  A 
ATOM     22  CZ  PHE E1026     -44.882  21.284  -3.490  1.00 41.81 LIG 0.00  A 
ATOM     23  CE2 PHE E1026     -46.132  21.093  -2.964  1.00 44.36 LIG 0.00  A 
ATOM     24  CD2 PHE E1026     -47.234  21.656  -3.588  1.00 42.30 LIG 0.01  A 
ENDBRANCH 18 19
ENDBRANCH 17 18
BRANCH 17 25
ATOM     25  C   PHE E1026     -49.365  25.102  -6.267  1.00 38.60 LIG 0.24  C 
ATOM     26  N   ASN E1027     -49.475  26.449  -6.150  1.00 38.80 LIG-0.35  N 
ATOM     27 H    ASN E1027     -48.859  26.932  -5.793  1.00 38.80 LIG 0.16  HD
ATOM     28 O    PHE E1026     -50.211  24.386  -6.797  1.00 31.59 LIG-0.27  OA
BRANCH 26 29
ATOM     29  CA  ASN E1027     -50.628  27.235  -6.605  1.00 74.37 LIG 0.17  C 
BRANCH 29 30
ATOM     30  CB  ASN E1027     -51.779  27.112  -5.611  1.00 75.17 LIG 0.14  C 
BRANCH 30 31
ATOM     31  CG  ASN E1027     -51.326  27.127  -4.173  1.00 99.64 LIG 0.22  C 
ATOM     32  ND2 ASN E1027     -51.786  26.169  -3.372  1.00 92.55 LIG-0.37  N 
ATOM     33 22HD ASN E1027     -52.316  25.568  -3.682  1.00 92.55 LIG 0.16  HD
ATOM     34 21HD ASN E1027     -51.553  26.152  -2.544  1.00 92.55 LIG 0.16  HD
ATOM     35 OD1  ASN E1027     -50.565  28.004  -3.758  1.00 94.01 LIG-0.27  OA
ENDBRANCH 30 31
ENDBRANCH 29 30
BRANCH 29 36
ATOM     36  C   ASN E1027     -50.240  28.705  -6.752  1.00103.37 LIG 0.22  C 
ATOM     37 O    ASN E1027     -50.606  29.530  -5.919  1.00 69.20 LIG-0.29  OA
ENDBRANCH 29 36
ENDBRANCH 26 29
ENDBRANCH 17 25
ENDBRANCH 15 17
ENDBRANCH 12 13
BRANCH 12 38
ATOM     38  CB  ILE E1025     -46.091  25.441  -2.359  1.00 40.50 LIG 0.01  C 
ATOM     39  CG2 ILE E1025     -45.172  26.393  -3.137  1.00 43.95 LIG 0.01  C 
BRANCH 38 40
ATOM     40  CG1 ILE E1025     -45.497  25.109  -0.990  1.00 41.58 LIG 0.00  C 
ATOM     41  CD1 ILE E1025     -45.299  23.512  -0.762  1.00 52.05 LIG 0.01  C 
ENDBRANCH 38 40
ENDBRANCH 12 38
ENDBRANCH 10 12
ENDBRANCH 4 8
BRANCH 1 42
ATOM     42  CA  ILE E1023     -49.971  27.383   1.918  1.00 36.06 LIG 0.18  C 
BRANCH 42 43
ATOM     43  N   ILE E1023     -49.501  27.682   3.284  1.00 37.96 LIG-0.35  N 
ATOM     44  C   ARG E1022     -50.326  28.097   4.269  1.00 45.42 LIG 0.24  C 
ATOM     45 O    ARG E1022     -51.521  28.334   4.091  1.00 45.23 LIG-0.27  OA
ATOM     46 H    ILE E1023     -48.656  27.568   3.393  1.00 37.96 LIG 0.16  HD
BRANCH 44 47
ATOM     47  CA  ARG E1022     -49.732  28.355   5.655  1.00 45.59 LIG 0.18  C 
BRANCH 47 48
ATOM     48  N   ARG E1022     -48.782  27.314   6.081  1.00 48.30 LIG-0.35  N 
ATOM     49 H    ARG E1022     -48.050  27.295   5.631  1.00 48.30 LIG 0.16  HD
ATOM     50  C   ILE E1021     -49.064  26.470   7.099  1.00 57.51 LIG 0.26  C 
ATOM     51 O    ILE E1021     -50.125  26.519   7.734  1.00 59.03 LIG-0.27  OA
BRANCH 50 52
ATOM     52  CA  ILE E1021     -48.008  25.419   7.482  1.00 57.59 LIG 0.40  C 
ATOM     53  N   ILE E1021     -47.981  25.293   8.936  1.00 58.96 LIG 0.61  N 
BRANCH 52 54
ATOM     54  CB  ILE E1021     -48.325  24.011   6.905  1.00 60.58 LIG 0.03  C 
ATOM     55  CG2 ILE E1021     -49.652  23.450   7.408  1.00 61.37 LIG 0.01  C 
BRANCH 54 56
ATOM     56  CG1 ILE E1021     -48.290  24.036   5.357  1.00 60.59 LIG 0.00  C 
ATOM     57  CD1 ILE E1021     -49.639  23.917   4.751  1.00 60.15 LIG 0.01  C 
ENDBRANCH 54 56
ENDBRANCH 52 54
ENDBRANCH 50 52
ENDBRANCH 47 48
BRANCH 47 58
ATOM     58  CB  ARG E1022     -49.094  29.749   5.661  1.00 44.33 LIG 0.04  C 
BRANCH 58 59
ATOM     59  CG  ARG E1022     -48.678  30.212   7.052  1.00 47.73 LIG 0.02  C 
BRANCH 59 60
ATOM     60  CD  ARG E1022     -49.608  31.256   7.635  1.00 47.87 LIG 0.14  C 
BRANCH 60 61
ATOM     61  NE  ARG E1022     -49.452  32.532   6.939  1.00 55.98 LIG-0.23  N 
ATOM     62  CZ  ARG E1022     -50.231  32.999   5.968  1.00 56.00 LIG 0.67  C 
ATOM     63  NH1 ARG E1022     -51.286  32.305   5.555  1.00 48.69 LIG-0.23  N 
ATOM     64  NH2 ARG E1022     -49.983  34.181   5.423  1.00 32.20 LIG-0.23  N 
ATOM     65 1HH1 ARG E1022     -51.470  31.546   5.916  1.00 48.69 LIG 0.17  HD
ATOM     66 2HH1 ARG E1022     -51.785  32.614   4.926  1.00 48.69 LIG 0.17  HD
ATOM     67 2HH2 ARG E1022     -50.488  34.479   4.795  1.00 32.20 LIG 0.17  HD
ATOM     68 1HH2 ARG E1022     -49.315  34.649   5.697  1.00 32.20 LIG 0.17  HD
ATOM     69 HE   ARG E1022     -48.793  33.029   7.182  1.00 55.98 LIG 0.18  HD
ENDBRANCH 60 61
ENDBRANCH 59 60
ENDBRANCH 58 59
ENDBRANCH 47 58
ENDBRANCH 44 47
ENDBRANCH 42 43
BRANCH 42 70
ATOM     70  CB  ILE E1023     -49.691  28.542   0.905  1.00 38.78 LIG 0.01  C 
ATOM     71  CG2 ILE E1023     -49.900  29.909   1.573  1.00 39.01 LIG 0.01  C 
BRANCH 70 72
ATOM     72  CG1 ILE E1023     -48.288  28.449   0.232  1.00 39.61 LIG 0.00  C 
ATOM     73  CD1 ILE E1023     -47.611  29.744  -0.143  1.00 43.21 LIG 0.01  C 
ENDBRANCH 70 72
ENDBRANCH 42 70
ENDBRANCH 1 42
TORSDOF 26
ENDMDL
MODEL 31
USER: ADFR SOLUTION from run 87
USER: SCORE 23.153321 LL:  -5.973 LR: -17.924 RR:   0.000 FEB: -10.169
USER: RMSD 3.012686
USER: SEED 86
USER: STATUS no improvement in best in 11 clusters for 5 generations
USER: GENES 28
USER: genes 0 Translation |==|  0.48820 0.46583 0.43758
USER: genes 1 Rotation |==|  0.42662 0.43913 0.53763 0.98938
USER: genes 2 Torsion [N]-CA--C-[O] |==|  0.67637
USER: genes 3 Torsion [C]-N--CA-[CB] |==|  0.63000
USER: genes 4 Torsion [N]-CA--C-[N] |==|  0.33425
USER: genes 5 Torsion [C]-N--CA-[C] |==|  0.64505
USER: genes 6 Torsion [N]-CA--CB-[CG] |==|  0.06383
USER: genes 7 Torsion [CA]-CB--CG-[CD1] |==|  0.24173
USER: genes 8 Torsion [N]-CA--C-[N] |==|  0.36364
USER: genes 9 Torsion [C]-N--CA-[C] |==|  0.86300
USER: genes 10 Torsion [N]-CA--CB-[CG] |==|  0.79364
USER: genes 11 Torsion [CA]-CB--CG-[OD1] |==|  0.28835
USER: genes 12 Torsion [N]-CA--C-[O] |==|  0.88544
USER: genes 13 Torsion [N]-CA--CB-[CG2] |==|  0.10947
USER: genes 14 Torsion [CA]-CB--CG1-[CD1] |==|  0.55755
USER: genes 15 Torsion [N]-C--CA-[N] |==|  0.36247
USER: genes 16 Torsion [C]-CA--N-[C] |==|  0.60027
USER: genes 17 Torsion [N]-C--CA-[N] |==|  0.95967
USER: genes 18 Torsion [C]-CA--N-[C] |==|  0.82855
USER: genes 19 Torsion [N]-C--CA-[N] |==|  0.36228
USER: genes 20 Torsion [C]-CA--CB-[CG1] |==|  0.80111
USER: genes 21 Torsion [CA]-CB--CG1-[CD1] |==|  0.42974
USER: genes 22 Torsion [C]-CA--CB-[CG] |==|  0.29928
USER: genes 23 Torsion [CA]-CB--CG-[CD] |==|  0.12205
USER: genes 24 Torsion [CB]-CG--CD-[NE] |==|  0.53743
USER: genes 25 Torsion [CG]-CD--NE-[CZ] |==|  0.39852
USER: genes 26 Torsion [C]-CA--CB-[CG1] |==|  0.83335
USER: genes 27 Torsion [CA]-CB--CG1-[CD1] |==|  0.82054
ROOT
ATOM      1  C   ILE E1023     -48.533  24.235  -1.321  1.00 40.02 LIG 0.24  C 
ATOM      2 O    ILE E1023     -48.564  25.327  -1.909  1.00 38.38 LIG-0.27  OA
ATOM      3  N   PRO E1024     -49.558  23.777  -0.559  1.00 37.38 LIG-0.34  N 
ATOM      4  CA  PRO E1024     -50.708  24.653  -0.294  1.00 36.67 LIG 0.18  C 
ATOM      5  CB  PRO E1024     -51.766  23.698   0.251  1.00 38.74 LIG 0.04  C 
ATOM      6  CG  PRO E1024     -50.997  22.600   0.884  1.00 43.33 LIG 0.02  C 
ATOM      7  CD  PRO E1024     -49.665  22.508   0.198  1.00 39.42 LIG 0.13  C 
ENDROOT
BRANCH 4 8
ATOM      8  C   PRO E1024     -50.302  25.702   0.734  1.00 39.60 LIG 0.24  C 
ATOM      9 O    PRO E1024     -50.866  25.717   1.827  1.00 37.18 LIG-0.27  OA
ATOM     10  N   ILE E1025     -49.305  26.542   0.388  1.00 37.20 LIG-0.35  N 
ATOM     11 H    ILE E1025     -48.927  26.496  -0.383  1.00 37.20 LIG 0.16  HD
BRANCH 10 12
ATOM     12  CA  ILE E1025     -48.734  27.610   1.220  1.00 37.42 LIG 0.18  C 
BRANCH 12 13
ATOM     13  C   ILE E1025     -49.678  27.968   2.365  1.00 40.88 LIG 0.24  C 
ATOM     14 O    ILE E1025     -50.730  28.555   2.109  1.00 40.29 LIG-0.27  OA
ATOM     15  N   PHE E1026     -49.221  27.824   3.626  1.00 36.23 LIG-0.35  N 
ATOM     16 H    PHE E1026     -48.499  27.407   3.834  1.00 36.23 LIG 0.16  HD
BRANCH 15 17
ATOM     17  CA  PHE E1026     -49.955  28.389   4.765  1.00 36.58 LIG 0.18  C 
BRANCH 17 18
ATOM     18  CB  PHE E1026     -50.606  27.299   5.613  1.00 38.58 LIG 0.07  C 
BRANCH 18 19
ATOM     19  CG  PHE E1026     -49.932  25.968   5.450  1.00 40.24 LIG-0.06  A 
ATOM     20  CD1 PHE E1026     -48.847  25.629   6.229  1.00 42.20 LIG 0.01  A 
ATOM     21  CE1 PHE E1026     -48.220  24.406   6.070  1.00 42.54 LIG 0.00  A 
ATOM     22  CZ  PHE E1026     -48.675  23.515   5.134  1.00 41.81 LIG 0.00  A 
ATOM     23  CE2 PHE E1026     -49.747  23.833   4.344  1.00 44.36 LIG 0.00  A 
ATOM     24  CD2 PHE E1026     -50.374  25.060   4.496  1.00 42.30 LIG 0.01  A 
ENDBRANCH 18 19
ENDBRANCH 17 18
BRANCH 17 25
ATOM     25  C   PHE E1026     -49.043  29.242   5.627  1.00 38.60 LIG 0.24  C 
ATOM     26  N   ASN E1027     -49.509  30.475   5.950  1.00 38.80 LIG-0.35  N 
ATOM     27 H    ASN E1027     -50.266  30.769   5.665  1.00 38.80 LIG 0.16  HD
ATOM     28 O    PHE E1026     -47.981  28.779   6.038  1.00 31.59 LIG-0.27  OA
BRANCH 26 29
ATOM     29  CA  ASN E1027     -48.803  31.438   6.802  1.00 74.37 LIG 0.17  C 
BRANCH 29 30
ATOM     30  CB  ASN E1027     -49.715  32.610   7.148  1.00 75.17 LIG 0.14  C 
BRANCH 30 31
ATOM     31  CG  ASN E1027     -49.923  33.561   5.995  1.00 99.64 LIG 0.22  C 
ATOM     32  ND2 ASN E1027     -48.936  34.405   5.708  1.00 92.55 LIG-0.37  N 
ATOM     33 22HD ASN E1027     -48.210  34.391   6.169  1.00 92.55 LIG 0.16  HD
ATOM     34 21HD ASN E1027     -49.023  34.966   5.062  1.00 92.55 LIG 0.16  HD
ATOM     35 OD1  ASN E1027     -50.975  33.557   5.353  1.00 94.01 LIG-0.27  OA
ENDBRANCH 30 31
ENDBRANCH 29 30
BRANCH 29 36
ATOM     36  C   ASN E1027     -48.338  30.760   8.090  1.00103.37 LIG 0.22  C 
ATOM     37 O    ASN E1027     -49.072  29.968   8.675  1.00 69.20 LIG-0.29  OA
ENDBRANCH 29 36
ENDBRANCH 26 29
ENDBRANCH 17 25
ENDBRANCH 15 17
ENDBRANCH 12 13
BRANCH 12 38
ATOM     38  CB  ILE E1025     -48.625  28.928   0.335  1.00 40.50 LIG 0.01  C 
ATOM     39  CG2 ILE E1025     -49.844  29.102  -0.581  1.00 43.95 LIG 0.01  C 
BRANCH 38 40
ATOM     40  CG1 ILE E1025     -48.382  30.191   1.162  1.00 41.58 LIG 0.00  C 
ATOM     41  CD1 ILE E1025     -48.796  31.549   0.372  1.00 52.05 LIG 0.01  C 
ENDBRANCH 38 40
ENDBRANCH 12 38
ENDBRANCH 10 12
ENDBRANCH 4 8
BRANCH 1 42
ATOM     42  CA  ILE E1023     -47.336  23.328  -1.544  1.00 36.06 LIG 0.18  C 
BRANCH 42 43
ATOM     43  N   ILE E1023     -47.076  23.320  -2.997  1.00 37.96 LIG-0.35  N 
ATOM     44  C   ARG E1022     -46.651  22.223  -3.659  1.00 45.42 LIG 0.24  C 
ATOM     45 O    ARG E1022     -46.371  21.164  -3.097  1.00 45.23 LIG-0.27  OA
ATOM     46 H    ILE E1023     -47.221  24.075  -3.380  1.00 37.96 LIG 0.16  HD
BRANCH 44 47
ATOM     47  CA  ARG E1022     -46.437  22.322  -5.170  1.00 45.59 LIG 0.18  C 
BRANCH 47 48
ATOM     48  N   ARG E1022     -47.048  23.523  -5.764  1.00 48.30 LIG-0.35  N 
ATOM     49 H    ARG E1022     -46.489  24.059  -6.136  1.00 48.30 LIG 0.16  HD
ATOM     50  C   ILE E1021     -48.381  23.739  -5.714  1.00 57.51 LIG 0.26  C 
ATOM     51 O    ILE E1021     -49.168  22.950  -5.175  1.00 59.03 LIG-0.27  OA
BRANCH 50 52
ATOM     52  CA  ILE E1021     -48.934  25.016  -6.369  1.00 57.59 LIG 0.40  C 
ATOM     53  N   ILE E1021     -50.050  24.652  -7.236  1.00 58.96 LIG 0.61  N 
BRANCH 52 54
ATOM     54  CB  ILE E1021     -49.474  26.039  -5.331  1.00 60.58 LIG 0.03  C 
ATOM     55  CG2 ILE E1021     -49.651  27.438  -5.914  1.00 61.37 LIG 0.01  C 
BRANCH 54 56
ATOM     56  CG1 ILE E1021     -50.797  25.533  -4.705  1.00 60.59 LIG 0.00  C 
ATOM     57  CD1 ILE E1021     -51.047  26.098  -3.357  1.00 60.15 LIG 0.01  C 
ENDBRANCH 54 56
ENDBRANCH 52 54
ENDBRANCH 50 52
ENDBRANCH 47 48
BRANCH 47 58
ATOM     58  CB  ARG E1022     -44.932  22.244  -5.457  1.00 44.33 LIG 0.04  C 
BRANCH 58 59
ATOM     59  CG  ARG E1022     -44.510  20.923  -6.088  1.00 47.73 LIG 0.02  C 
BRANCH 59 60
ATOM     60  CD  ARG E1022     -45.446  20.463  -7.187  1.00 47.87 LIG 0.14  C 
BRANCH 60 61
ATOM     61  NE  ARG E1022     -45.188  19.066  -7.533  1.00 55.98 LIG-0.23  N 
ATOM     62  CZ  ARG E1022     -46.100  18.159  -7.872  1.00 56.00 LIG 0.67  C 
ATOM     63  NH1 ARG E1022     -47.385  18.487  -7.947  1.00 48.69 LIG-0.23  N 
ATOM     64  NH2 ARG E1022     -45.731  16.922  -8.171  1.00 32.20 LIG-0.23  N 
ATOM     65 1HH1 ARG E1022     -47.633  19.293  -7.777  1.00 48.69 LIG 0.17  HD
ATOM     66 2HH1 ARG E1022     -47.968  17.895  -8.167  1.00 48.69 LIG 0.17  HD
ATOM     67 2HH2 ARG E1022     -46.323  16.338  -8.389  1.00 32.20 LIG 0.17  HD
ATOM     68 1HH2 ARG E1022     -44.900  16.703  -8.146  1.00 32.20 LIG 0.17  HD
ATOM     69 HE   ARG E1022     -44.368  18.806  -7.517  1.00 55.98 LIG 0.18  HD
ENDBRANCH 60 61
ENDBRANCH 59 60
ENDBRANCH 58 59
ENDBRANCH 47 58
ENDBRANCH 44 47
ENDBRANCH 42 43
BRANCH 42 70
ATOM     70  CB  ILE E1023     -46.123  23.854  -0.707  1.00 38.78 LIG 0.01  C 
ATOM     71  CG2 ILE E1023     -44.940  22.878  -0.796  1.00 39.01 LIG 0.01  C 
BRANCH 70 72
ATOM     72  CG1 ILE E1023     -45.691  25.303  -1.086  1.00 39.61 LIG 0.00  C 
ATOM     73  CD1 ILE E1023     -45.153  25.525  -2.477  1.00 43.21 LIG 0.01  C 
ENDBRANCH 70 72
ENDBRANCH 42 70
ENDBRANCH 1 42
TORSDOF 26
ENDMDL
MODEL 32
USER: ADFR SOLUTION from run 17
USER: SCORE 22.512792 LL:  -5.574 LR: -17.910 RR:   0.000 FEB: -10.155
USER: RMSD 12.827080
USER: SEED 16
USER: STATUS no improvement in best in 10 clusters for 5 generations
USER: GENES 28
USER: genes 0 Translation |==|  0.55223 0.57532 0.50069
USER: genes 1 Rotation |==|  0.78626 0.90412 0.47388 0.56372
USER: genes 2 Torsion [N]-CA--C-[O] |==|  0.09281
USER: genes 3 Torsion [C]-N--CA-[CB] |==|  0.59460
USER: genes 4 Torsion [N]-CA--C-[N] |==|  0.42965
USER: genes 5 Torsion [C]-N--CA-[C] |==|  0.86646
USER: genes 6 Torsion [N]-CA--CB-[CG] |==|  0.38350
USER: genes 7 Torsion [CA]-CB--CG-[CD1] |==|  0.21449
USER: genes 8 Torsion [N]-CA--C-[N] |==|  0.35714
USER: genes 9 Torsion [C]-N--CA-[C] |==|  0.57842
USER: genes 10 Torsion [N]-CA--CB-[CG] |==|  0.26377
USER: genes 11 Torsion [CA]-CB--CG-[OD1] |==|  0.78767
USER: genes 12 Torsion [N]-CA--C-[O] |==|  0.88040
USER: genes 13 Torsion [N]-CA--CB-[CG2] |==|  0.57347
USER: genes 14 Torsion [CA]-CB--CG1-[CD1] |==|  0.26203
USER: genes 15 Torsion [N]-C--CA-[N] |==|  0.28702
USER: genes 16 Torsion [C]-CA--N-[C] |==|  0.55959
USER: genes 17 Torsion [N]-C--CA-[N] |==|  0.28686
USER: genes 18 Torsion [C]-CA--N-[C] |==|  0.71753
USER: genes 19 Torsion [N]-C--CA-[N] |==|  0.46271
USER: genes 20 Torsion [C]-CA--CB-[CG1] |==|  0.57552
USER: genes 21 Torsion [CA]-CB--CG1-[CD1] |==|  0.50329
USER: genes 22 Torsion [C]-CA--CB-[CG] |==|  0.66631
USER: genes 23 Torsion [CA]-CB--CG-[CD] |==|  0.30255
USER: genes 24 Torsion [CB]-CG--CD-[NE] |==|  0.63122
USER: genes 25 Torsion [CG]-CD--NE-[CZ] |==|  0.23944
USER: genes 26 Torsion [C]-CA--CB-[CG1] |==|  0.70806
USER: genes 27 Torsion [CA]-CB--CG1-[CD1] |==|  0.73019
ROOT
ATOM      1  C   ILE E1023     -47.573  26.781   0.478  1.00 40.02 LIG 0.24  C 
ATOM      2 O    ILE E1023     -46.481  27.288   0.776  1.00 38.38 LIG-0.27  OA
ATOM      3  N   PRO E1024     -47.685  25.575  -0.134  1.00 37.38 LIG-0.34  N 
ATOM      4  CA  PRO E1024     -46.472  24.885  -0.596  1.00 36.67 LIG 0.18  C 
ATOM      5  CB  PRO E1024     -46.955  23.464  -0.874  1.00 38.74 LIG 0.04  C 
ATOM      6  CG  PRO E1024     -48.388  23.610  -1.223  1.00 43.33 LIG 0.02  C 
ATOM      7  CD  PRO E1024     -48.907  24.849  -0.550  1.00 39.42 LIG 0.13  C 
ENDROOT
BRANCH 4 8
ATOM      8  C   PRO E1024     -45.964  25.572  -1.858  1.00 39.60 LIG 0.24  C 
ATOM      9 O    PRO E1024     -46.113  26.787  -1.979  1.00 37.18 LIG-0.27  OA
ATOM     10  N   ILE E1025     -45.339  24.794  -2.766  1.00 37.20 LIG-0.35  N 
ATOM     11 H    ILE E1025     -45.245  23.948  -2.643  1.00 37.20 LIG 0.16  HD
BRANCH 10 12
ATOM     12  CA  ILE E1025     -44.750  25.236  -4.037  1.00 37.42 LIG 0.18  C 
BRANCH 12 13
ATOM     13  C   ILE E1025     -45.513  26.431  -4.602  1.00 40.88 LIG 0.24  C 
ATOM     14 O    ILE E1025     -46.735  26.481  -4.453  1.00 40.29 LIG-0.27  OA
ATOM     15  N   PHE E1026     -44.853  27.267  -5.427  1.00 36.23 LIG-0.35  N 
ATOM     16 H    PHE E1026     -44.001  27.264  -5.540  1.00 36.23 LIG 0.16  HD
BRANCH 15 17
ATOM     17  CA  PHE E1026     -45.573  28.276  -6.216  1.00 36.58 LIG 0.18  C 
BRANCH 17 18
ATOM     18  CB  PHE E1026     -44.658  28.956  -7.230  1.00 38.58 LIG 0.07  C 
BRANCH 18 19
ATOM     19  CG  PHE E1026     -45.320  29.145  -8.563  1.00 40.24 LIG-0.06  A 
ATOM     20  CD1 PHE E1026     -46.238  30.154  -8.756  1.00 42.20 LIG 0.01  A 
ATOM     21  CE1 PHE E1026     -46.856  30.321  -9.983  1.00 42.54 LIG 0.00  A 
ATOM     22  CZ  PHE E1026     -46.559  29.480 -11.024  1.00 41.81 LIG 0.00  A 
ATOM     23  CE2 PHE E1026     -45.655  28.466 -10.853  1.00 44.36 LIG 0.00  A 
ATOM     24  CD2 PHE E1026     -45.038  28.293  -9.624  1.00 42.30 LIG 0.01  A 
ENDBRANCH 18 19
ENDBRANCH 17 18
BRANCH 17 25
ATOM     25  C   PHE E1026     -46.766  27.659  -6.923  1.00 38.60 LIG 0.24  C 
ATOM     26  N   ASN E1027     -47.953  28.291  -6.749  1.00 38.80 LIG-0.35  N 
ATOM     27 H    ASN E1027     -48.036  28.986  -6.249  1.00 38.80 LIG 0.16  HD
ATOM     28 O    PHE E1026     -46.606  26.683  -7.652  1.00 31.59 LIG-0.27  OA
BRANCH 26 29
ATOM     29  CA  ASN E1027     -49.216  27.882  -7.375  1.00 74.37 LIG 0.17  C 
BRANCH 29 30
ATOM     30  CB  ASN E1027     -49.924  26.843  -6.511  1.00 75.17 LIG 0.14  C 
BRANCH 30 31
ATOM     31  CG  ASN E1027     -50.950  27.442  -5.582  1.00 99.64 LIG 0.22  C 
ATOM     32  ND2 ASN E1027     -52.231  27.320  -5.917  1.00 92.55 LIG-0.37  N 
ATOM     33 22HD ASN E1027     -52.449  26.906  -6.639  1.00 92.55 LIG 0.16  HD
ATOM     34 21HD ASN E1027     -52.842  27.656  -5.413  1.00 92.55 LIG 0.16  HD
ATOM     35 OD1  ASN E1027     -50.606  28.030  -4.554  1.00 94.01 LIG-0.27  OA
ENDBRANCH 30 31
ENDBRANCH 29 30
BRANCH 29 36
ATOM     36  C   ASN E1027     -50.129  29.093  -7.562  1.00103.37 LIG 0.22  C 
ATOM     37 O    ASN E1027     -50.247  29.925  -6.667  1.00 69.20 LIG-0.29  OA
ENDBRANCH 29 36
ENDBRANCH 26 29
ENDBRANCH 17 25
ENDBRANCH 15 17
ENDBRANCH 12 13
BRANCH 12 38
ATOM     38  CB  ILE E1025     -44.936  24.072  -5.106  1.00 40.50 LIG 0.01  C 
ATOM     39  CG2 ILE E1025     -43.856  24.120  -6.196  1.00 43.95 LIG 0.01  C 
BRANCH 38 40
ATOM     40  CG1 ILE E1025     -45.011  22.681  -4.476  1.00 41.58 LIG 0.00  C 
ATOM     41  CD1 ILE E1025     -46.539  22.196  -4.205  1.00 52.05 LIG 0.01  C 
ENDBRANCH 38 40
ENDBRANCH 12 38
ENDBRANCH 10 12
ENDBRANCH 4 8
BRANCH 1 42
ATOM     42  CA  ILE E1023     -48.842  27.496   0.907  1.00 36.06 LIG 0.18  C 
BRANCH 42 43
ATOM     43  N   ILE E1023     -48.957  27.315   2.367  1.00 37.96 LIG-0.35  N 
ATOM     44  C   ARG E1022     -50.127  27.434   3.030  1.00 45.42 LIG 0.24  C 
ATOM     45 O    ARG E1022     -51.177  27.778   2.487  1.00 45.23 LIG-0.27  OA
ATOM     46 H    ILE E1023     -48.212  27.128   2.753  1.00 37.96 LIG 0.16  HD
BRANCH 44 47
ATOM     47  CA  ARG E1022     -50.133  27.202   4.542  1.00 45.59 LIG 0.18  C 
BRANCH 47 48
ATOM     48  N   ARG E1022     -50.198  28.450   5.320  1.00 48.30 LIG-0.35  N 
ATOM     49 H    ARG E1022     -50.982  28.800   5.365  1.00 48.30 LIG 0.16  HD
ATOM     50  C   ILE E1021     -49.101  28.979   5.905  1.00 57.51 LIG 0.26  C 
ATOM     51 O    ILE E1021     -47.983  28.455   5.829  1.00 59.03 LIG-0.27  OA
BRANCH 50 52
ATOM     52  CA  ILE E1021     -49.264  30.282   6.707  1.00 57.59 LIG 0.40  C 
ATOM     53  N   ILE E1021     -48.058  30.496   7.501  1.00 58.96 LIG 0.61  N 
BRANCH 52 54
ATOM     54  CB  ILE E1021     -49.441  31.530   5.797  1.00 60.58 LIG 0.03  C 
ATOM     55  CG2 ILE E1021     -50.878  31.714   5.318  1.00 61.37 LIG 0.01  C 
BRANCH 54 56
ATOM     56  CG1 ILE E1021     -48.933  32.804   6.515  1.00 60.59 LIG 0.00  C 
ATOM     57  CD1 ILE E1021     -49.106  34.030   5.698  1.00 60.15 LIG 0.01  C 
ENDBRANCH 54 56
ENDBRANCH 52 54
ENDBRANCH 50 52
ENDBRANCH 47 48
BRANCH 47 58
ATOM     58  CB  ARG E1022     -51.287  26.252   4.886  1.00 44.33 LIG 0.04  C 
BRANCH 58 59
ATOM     59  CG  ARG E1022     -52.302  26.863   5.844  1.00 47.73 LIG 0.02  C 
BRANCH 59 60
ATOM     60  CD  ARG E1022     -53.626  27.184   5.182  1.00 47.87 LIG 0.14  C 
BRANCH 60 61
ATOM     61  NE  ARG E1022     -54.067  28.532   5.534  1.00 55.98 LIG-0.23  N 
ATOM     62  CZ  ARG E1022     -53.726  29.659   4.914  1.00 56.00 LIG 0.67  C 
ATOM     63  NH1 ARG E1022     -52.932  29.630   3.849  1.00 48.69 LIG-0.23  N 
ATOM     64  NH2 ARG E1022     -54.203  30.821   5.333  1.00 32.20 LIG-0.23  N 
ATOM     65 1HH1 ARG E1022     -52.633  28.879   3.555  1.00 48.69 LIG 0.17  HD
ATOM     66 2HH1 ARG E1022     -52.716  30.363   3.454  1.00 48.69 LIG 0.17  HD
ATOM     67 2HH2 ARG E1022     -53.981  31.547   4.930  1.00 32.20 LIG 0.17  HD
ATOM     68 1HH2 ARG E1022     -54.736  30.849   6.008  1.00 32.20 LIG 0.17  HD
ATOM     69 HE   ARG E1022     -54.598  28.604   6.207  1.00 55.98 LIG 0.18  HD
ENDBRANCH 60 61
ENDBRANCH 59 60
ENDBRANCH 58 59
ENDBRANCH 47 58
ENDBRANCH 44 47
ENDBRANCH 42 43
BRANCH 42 70
ATOM     70  CB  ILE E1023     -48.762  28.999   0.479  1.00 38.78 LIG 0.01  C 
ATOM     71  CG2 ILE E1023     -50.026  29.411  -0.290  1.00 39.01 LIG 0.01  C 
BRANCH 70 72
ATOM     72  CG1 ILE E1023     -48.481  29.966   1.668  1.00 39.61 LIG 0.00  C 
ATOM     73  CD1 ILE E1023     -49.667  30.654   2.297  1.00 43.21 LIG 0.01  C 
ENDBRANCH 70 72
ENDBRANCH 42 70
ENDBRANCH 1 42
TORSDOF 26
ENDMDL
MODEL 33
USER: ADFR SOLUTION from run 30
USER: SCORE 21.487851 LL:  -6.305 LR: -17.913 RR:   0.000 FEB: -10.157
USER: RMSD 12.549033
USER: SEED 29
USER: STATUS no improvement in best in 7 clusters for 5 generations
USER: GENES 28
USER: genes 0 Translation |==|  0.50758 0.58546 0.48212
USER: genes 1 Rotation |==|  0.88783 0.78558 0.53319 0.63011
USER: genes 2 Torsion [N]-CA--C-[O] |==|  0.08607
USER: genes 3 Torsion [C]-N--CA-[CB] |==|  0.53215
USER: genes 4 Torsion [N]-CA--C-[N] |==|  0.90311
USER: genes 5 Torsion [C]-N--CA-[C] |==|  0.51111
USER: genes 6 Torsion [N]-CA--CB-[CG] |==|  0.53751
USER: genes 7 Torsion [CA]-CB--CG-[CD1] |==|  0.15366
USER: genes 8 Torsion [N]-CA--C-[N] |==|  0.43022
USER: genes 9 Torsion [C]-N--CA-[C] |==|  0.13706
USER: genes 10 Torsion [N]-CA--CB-[CG] |==|  0.55032
USER: genes 11 Torsion [CA]-CB--CG-[OD1] |==|  0.74222
USER: genes 12 Torsion [N]-CA--C-[O] |==|  0.16357
USER: genes 13 Torsion [N]-CA--CB-[CG2] |==|  0.85046
USER: genes 14 Torsion [CA]-CB--CG1-[CD1] |==|  0.77082
USER: genes 15 Torsion [N]-C--CA-[N] |==|  0.23868
USER: genes 16 Torsion [C]-CA--N-[C] |==|  0.20778
USER: genes 17 Torsion [N]-C--CA-[N] |==|  0.31834
USER: genes 18 Torsion [C]-CA--N-[C] |==|  0.77026
USER: genes 19 Torsion [N]-C--CA-[N] |==|  0.41371
USER: genes 20 Torsion [C]-CA--CB-[CG1] |==|  0.02337
USER: genes 21 Torsion [CA]-CB--CG1-[CD1] |==|  0.70794
USER: genes 22 Torsion [C]-CA--CB-[CG] |==|  0.08903
USER: genes 23 Torsion [CA]-CB--CG-[CD] |==|  0.60248
USER: genes 24 Torsion [CB]-CG--CD-[NE] |==|  0.74126
USER: genes 25 Torsion [CG]-CD--NE-[CZ] |==|  0.56407
USER: genes 26 Torsion [C]-CA--CB-[CG1] |==|  0.50830
USER: genes 27 Torsion [CA]-CB--CG1-[CD1] |==|  0.98100
ROOT
ATOM      1  C   ILE E1023     -48.242  27.017  -0.052  1.00 40.02 LIG 0.24  C 
ATOM      2 O    ILE E1023     -47.291  26.879   0.731  1.00 38.38 LIG-0.27  OA
ATOM      3  N   PRO E1024     -48.678  26.025  -0.868  1.00 37.38 LIG-0.34  N 
ATOM      4  CA  PRO E1024     -47.919  24.768  -0.945  1.00 36.67 LIG 0.18  C 
ATOM      5  CB  PRO E1024     -48.883  23.812  -1.641  1.00 38.74 LIG 0.04  C 
ATOM      6  CG  PRO E1024     -49.740  24.680  -2.482  1.00 43.33 LIG 0.02  C 
ATOM      7  CD  PRO E1024     -49.788  26.041  -1.849  1.00 39.42 LIG 0.13  C 
ENDROOT
BRANCH 4 8
ATOM      8  C   PRO E1024     -46.657  25.003  -1.765  1.00 39.60 LIG 0.24  C 
ATOM      9 O    PRO E1024     -46.128  26.114  -1.745  1.00 37.18 LIG-0.27  OA
ATOM     10  N   ILE E1025     -46.167  23.947  -2.446  1.00 37.20 LIG-0.35  N 
ATOM     11 H    ILE E1025     -46.558  23.181  -2.429  1.00 37.20 LIG 0.16  HD
BRANCH 10 12
ATOM     12  CA  ILE E1025     -44.957  23.929  -3.280  1.00 37.42 LIG 0.18  C 
BRANCH 12 13
ATOM     13  C   ILE E1025     -45.000  25.045  -4.321  1.00 40.88 LIG 0.24  C 
ATOM     14 O    ILE E1025     -43.996  25.738  -4.493  1.00 40.29 LIG-0.27  OA
ATOM     15  N   PHE E1026     -46.198  25.369  -4.848  1.00 36.23 LIG-0.35  N 
ATOM     16 H    PHE E1026     -46.911  24.897  -4.755  1.00 36.23 LIG 0.16  HD
BRANCH 15 17
ATOM     17  CA  PHE E1026     -46.369  26.591  -5.644  1.00 36.58 LIG 0.18  C 
BRANCH 17 18
ATOM     18  CB  PHE E1026     -45.485  26.581  -6.888  1.00 38.58 LIG 0.07  C 
BRANCH 18 19
ATOM     19  CG  PHE E1026     -45.394  27.930  -7.538  1.00 40.24 LIG-0.06  A 
ATOM     20  CD1 PHE E1026     -44.981  29.031  -6.819  1.00 42.20 LIG 0.01  A 
ATOM     21  CE1 PHE E1026     -44.908  30.277  -7.417  1.00 42.54 LIG 0.00  A 
ATOM     22  CZ  PHE E1026     -45.247  30.429  -8.736  1.00 41.81 LIG 0.00  A 
ATOM     23  CE2 PHE E1026     -45.668  29.351  -9.468  1.00 44.36 LIG 0.00  A 
ATOM     24  CD2 PHE E1026     -45.747  28.103  -8.871  1.00 42.30 LIG 0.01  A 
ENDBRANCH 18 19
ENDBRANCH 17 18
BRANCH 17 25
ATOM     25  C   PHE E1026     -47.822  26.780  -6.040  1.00 38.60 LIG 0.24  C 
ATOM     26  N   ASN E1027     -48.209  28.055  -6.293  1.00 38.80 LIG-0.35  N 
ATOM     27 H    ASN E1027     -47.674  28.724  -6.211  1.00 38.80 LIG 0.16  HD
ATOM     28 O    PHE E1026     -48.551  25.800  -6.174  1.00 31.59 LIG-0.27  OA
BRANCH 26 29
ATOM     29  CA  ASN E1027     -49.555  28.448  -6.726  1.00 74.37 LIG 0.17  C 
BRANCH 29 30
ATOM     30  CB  ASN E1027     -49.795  28.015  -8.169  1.00 75.17 LIG 0.14  C 
BRANCH 30 31
ATOM     31  CG  ASN E1027     -50.946  28.739  -8.823  1.00 99.64 LIG 0.22  C 
ATOM     32  ND2 ASN E1027     -50.687  29.905  -9.407  1.00 92.55 LIG-0.37  N 
ATOM     33 22HD ASN E1027     -49.886  30.218  -9.408  1.00 92.55 LIG 0.16  HD
ATOM     34 21HD ASN E1027     -51.321  30.348  -9.784  1.00 92.55 LIG 0.16  HD
ATOM     35 OD1  ASN E1027     -52.084  28.266  -8.805  1.00 94.01 LIG-0.27  OA
ENDBRANCH 30 31
ENDBRANCH 29 30
BRANCH 29 36
ATOM     36  C   ASN E1027     -50.608  27.809  -5.823  1.00103.37 LIG 0.22  C 
ATOM     37 O    ASN E1027     -50.605  28.030  -4.615  1.00 69.20 LIG-0.29  OA
ENDBRANCH 29 36
ENDBRANCH 26 29
ENDBRANCH 17 25
ENDBRANCH 15 17
ENDBRANCH 12 13
BRANCH 12 38
ATOM     38  CB  ILE E1025     -44.944  22.574  -4.114  1.00 40.50 LIG 0.01  C 
ATOM     39  CG2 ILE E1025     -45.089  21.345  -3.206  1.00 43.95 LIG 0.01  C 
BRANCH 38 40
ATOM     40  CG1 ILE E1025     -45.982  22.547  -5.236  1.00 41.58 LIG 0.00  C 
ATOM     41  CD1 ILE E1025     -47.463  22.130  -4.712  1.00 52.05 LIG 0.01  C 
ENDBRANCH 38 40
ENDBRANCH 12 38
ENDBRANCH 10 12
ENDBRANCH 4 8
BRANCH 1 42
ATOM     42  CA  ILE E1023     -49.017  28.323  -0.023  1.00 36.06 LIG 0.18  C 
BRANCH 42 43
ATOM     43  N   ILE E1023     -50.106  28.148   0.958  1.00 37.96 LIG-0.35  N 
ATOM     44  C   ARG E1022     -49.899  28.155   2.293  1.00 45.42 LIG 0.24  C 
ATOM     45 O    ARG E1022     -48.779  28.230   2.799  1.00 45.23 LIG-0.27  OA
ATOM     46 H    ILE E1023     -50.881  28.041   0.602  1.00 37.96 LIG 0.16  HD
BRANCH 44 47
ATOM     47  CA  ARG E1022     -51.105  27.989   3.217  1.00 45.59 LIG 0.18  C 
BRANCH 47 48
ATOM     48  N   ARG E1022     -51.069  26.741   3.999  1.00 48.30 LIG-0.35  N 
ATOM     49 H    ARG E1022     -50.763  26.831   4.797  1.00 48.30 LIG 0.16  HD
ATOM     50  C   ILE E1021     -51.488  25.566   3.479  1.00 57.51 LIG 0.26  C 
ATOM     51 O    ILE E1021     -51.929  25.462   2.327  1.00 59.03 LIG-0.27  OA
BRANCH 50 52
ATOM     52  CA  ILE E1021     -51.423  24.315   4.372  1.00 57.59 LIG 0.40  C 
ATOM     53  N   ILE E1021     -52.508  23.414   3.994  1.00 58.96 LIG 0.61  N 
BRANCH 52 54
ATOM     54  CB  ILE E1021     -50.094  23.527   4.205  1.00 60.58 LIG 0.03  C 
ATOM     55  CG2 ILE E1021     -50.303  22.125   3.640  1.00 61.37 LIG 0.01  C 
BRANCH 54 56
ATOM     56  CG1 ILE E1021     -49.092  24.326   3.336  1.00 60.59 LIG 0.00  C 
ATOM     57  CD1 ILE E1021     -48.961  23.779   1.963  1.00 60.15 LIG 0.01  C 
ENDBRANCH 54 56
ENDBRANCH 52 54
ENDBRANCH 50 52
ENDBRANCH 47 48
BRANCH 47 58
ATOM     58  CB  ARG E1022     -51.206  29.226   4.117  1.00 44.33 LIG 0.04  C 
BRANCH 58 59
ATOM     59  CG  ARG E1022     -50.715  30.500   3.442  1.00 47.73 LIG 0.02  C 
BRANCH 59 60
ATOM     60  CD  ARG E1022     -49.984  31.431   4.387  1.00 47.87 LIG 0.14  C 
BRANCH 60 61
ATOM     61  NE  ARG E1022     -50.904  32.413   4.959  1.00 55.98 LIG-0.23  N 
ATOM     62  CZ  ARG E1022     -50.575  33.601   5.460  1.00 56.00 LIG 0.67  C 
ATOM     63  NH1 ARG E1022     -49.311  34.011   5.451  1.00 48.69 LIG-0.23  N 
ATOM     64  NH2 ARG E1022     -51.511  34.403   5.945  1.00 32.20 LIG-0.23  N 
ATOM     65 1HH1 ARG E1022     -48.698  33.508   5.119  1.00 48.69 LIG 0.17  HD
ATOM     66 2HH1 ARG E1022     -49.107  34.780   5.777  1.00 48.69 LIG 0.17  HD
ATOM     67 2HH2 ARG E1022     -51.294  35.170   6.268  1.00 32.20 LIG 0.17  HD
ATOM     68 1HH2 ARG E1022     -52.335  34.157   5.936  1.00 32.20 LIG 0.17  HD
ATOM     69 HE   ARG E1022     -51.738  32.203   4.972  1.00 55.98 LIG 0.18  HD
ENDBRANCH 60 61
ENDBRANCH 59 60
ENDBRANCH 58 59
ENDBRANCH 47 58
ENDBRANCH 44 47
ENDBRANCH 42 43
BRANCH 42 70
ATOM     70  CB  ILE E1023     -48.047  29.495   0.340  1.00 38.78 LIG 0.01  C 
ATOM     71  CG2 ILE E1023     -46.881  29.562  -0.658  1.00 39.01 LIG 0.01  C 
BRANCH 70 72
ATOM     72  CG1 ILE E1023     -48.762  30.873   0.468  1.00 39.61 LIG 0.00  C 
ATOM     73  CD1 ILE E1023     -50.219  30.937   0.081  1.00 43.21 LIG 0.01  C 
ENDBRANCH 70 72
ENDBRANCH 42 70
ENDBRANCH 1 42
TORSDOF 26
ENDMDL
MODEL 34
USER: ADFR SOLUTION from run 129
USER: SCORE 21.843530 LL:  -5.534 LR: -17.891 RR:   0.000 FEB: -10.135
USER: RMSD 4.793026
USER: SEED 128
USER: STATUS no improvement in best in 4 clusters for 5 generations
USER: GENES 28
USER: genes 0 Translation |==|  0.44208 0.50267 0.43413
USER: genes 1 Rotation |==|  0.54757 0.85367 0.78965 0.69686
USER: genes 2 Torsion [N]-CA--C-[O] |==|  0.80529
USER: genes 3 Torsion [C]-N--CA-[CB] |==|  0.14839
USER: genes 4 Torsion [N]-CA--C-[N] |==|  0.11163
USER: genes 5 Torsion [C]-N--CA-[C] |==|  0.70727
USER: genes 6 Torsion [N]-CA--CB-[CG] |==|  0.06601
USER: genes 7 Torsion [CA]-CB--CG-[CD1] |==|  0.25566
USER: genes 8 Torsion [N]-CA--C-[N] |==|  0.46667
USER: genes 9 Torsion [C]-N--CA-[C] |==|  0.21321
USER: genes 10 Torsion [N]-CA--CB-[CG] |==|  0.73798
USER: genes 11 Torsion [CA]-CB--CG-[OD1] |==|  0.08533
USER: genes 12 Torsion [N]-CA--C-[O] |==|  0.01327
USER: genes 13 Torsion [N]-CA--CB-[CG2] |==|  0.18139
USER: genes 14 Torsion [CA]-CB--CG1-[CD1] |==|  0.67396
USER: genes 15 Torsion [N]-C--CA-[N] |==|  0.84493
USER: genes 16 Torsion [C]-CA--N-[C] |==|  0.58786
USER: genes 17 Torsion [N]-C--CA-[N] |==|  0.11832
USER: genes 18 Torsion [C]-CA--N-[C] |==|  0.57806
USER: genes 19 Torsion [N]-C--CA-[N] |==|  0.32223
USER: genes 20 Torsion [C]-CA--CB-[CG1] |==|  0.16448
USER: genes 21 Torsion [CA]-CB--CG1-[CD1] |==|  0.31911
USER: genes 22 Torsion [C]-CA--CB-[CG] |==|  0.50185
USER: genes 23 Torsion [CA]-CB--CG-[CD] |==|  0.62555
USER: genes 24 Torsion [CB]-CG--CD-[NE] |==|  0.16956
USER: genes 25 Torsion [CG]-CD--NE-[CZ] |==|  0.38265
USER: genes 26 Torsion [C]-CA--CB-[CG1] |==|  0.04435
USER: genes 27 Torsion [CA]-CB--CG1-[CD1] |==|  0.64947
ROOT
ATOM      1  C   ILE E1023     -49.225  25.092  -1.419  1.00 40.02 LIG 0.24  C 
ATOM      2 O    ILE E1023     -49.807  25.313  -0.347  1.00 38.38 LIG-0.27  OA
ATOM      3  N   PRO E1024     -47.874  25.021  -1.526  1.00 37.38 LIG-0.34  N 
ATOM      4  CA  PRO E1024     -47.040  25.351  -0.362  1.00 36.67 LIG 0.18  C 
ATOM      5  CB  PRO E1024     -45.664  24.812  -0.744  1.00 38.74 LIG 0.04  C 
ATOM      6  CG  PRO E1024     -45.631  24.869  -2.224  1.00 43.33 LIG 0.02  C 
ATOM      7  CD  PRO E1024     -47.043  24.768  -2.726  1.00 39.42 LIG 0.13  C 
ENDROOT
BRANCH 4 8
ATOM      8  C   PRO E1024     -47.029  26.864  -0.176  1.00 39.60 LIG 0.24  C 
ATOM      9 O    PRO E1024     -46.432  27.562  -0.994  1.00 37.18 LIG-0.27  OA
ATOM     10  N   ILE E1025     -47.717  27.354   0.875  1.00 37.20 LIG-0.35  N 
ATOM     11 H    ILE E1025     -48.131  26.835   1.422  1.00 37.20 LIG 0.16  HD
BRANCH 10 12
ATOM     12  CA  ILE E1025     -47.867  28.770   1.237  1.00 37.42 LIG 0.18  C 
BRANCH 12 13
ATOM     13  C   ILE E1025     -48.939  28.943   2.311  1.00 40.88 LIG 0.24  C 
ATOM     14 O    ILE E1025     -49.578  29.996   2.351  1.00 40.29 LIG-0.27  OA
ATOM     15  N   PHE E1026     -48.989  28.032   3.303  1.00 36.23 LIG-0.35  N 
ATOM     16 H    PHE E1026     -48.565  27.284   3.296  1.00 36.23 LIG 0.16  HD
BRANCH 15 17
ATOM     17  CA  PHE E1026     -49.801  28.266   4.505  1.00 36.58 LIG 0.18  C 
BRANCH 17 18
ATOM     18  CB  PHE E1026     -50.671  27.058   4.840  1.00 38.58 LIG 0.07  C 
BRANCH 18 19
ATOM     19  CG  PHE E1026     -50.120  25.781   4.278  1.00 40.24 LIG-0.06  A 
ATOM     20  CD1 PHE E1026     -49.274  24.990   5.025  1.00 42.20 LIG 0.01  A 
ATOM     21  CE1 PHE E1026     -48.757  23.818   4.501  1.00 42.54 LIG 0.00  A 
ATOM     22  CZ  PHE E1026     -49.084  23.429   3.229  1.00 41.81 LIG 0.00  A 
ATOM     23  CE2 PHE E1026     -49.917  24.203   2.465  1.00 44.36 LIG 0.00  A 
ATOM     24  CD2 PHE E1026     -50.432  25.380   2.985  1.00 42.30 LIG 0.01  A 
ENDBRANCH 18 19
ENDBRANCH 17 18
BRANCH 17 25
ATOM     25  C   PHE E1026     -48.923  28.619   5.691  1.00 38.60 LIG 0.24  C 
ATOM     26  N   ASN E1027     -49.565  29.101   6.785  1.00 38.80 LIG-0.35  N 
ATOM     27 H    ASN E1027     -50.416  29.224   6.802  1.00 38.80 LIG 0.16  HD
ATOM     28 O    PHE E1026     -47.713  28.405   5.641  1.00 31.59 LIG-0.27  OA
BRANCH 26 29
ATOM     29  CA  ASN E1027     -48.907  29.464   8.046  1.00 74.37 LIG 0.17  C 
BRANCH 29 30
ATOM     30  CB  ASN E1027     -47.889  28.399   8.439  1.00 75.17 LIG 0.14  C 
BRANCH 30 31
ATOM     31  CG  ASN E1027     -48.448  27.364   9.384  1.00 99.64 LIG 0.22  C 
ATOM     32  ND2 ASN E1027     -47.606  26.798  10.245  1.00 92.55 LIG-0.37  N 
ATOM     33 22HD ASN E1027     -46.779  27.031  10.253  1.00 92.55 LIG 0.16  HD
ATOM     34 21HD ASN E1027     -47.890  26.199  10.793  1.00 92.55 LIG 0.16  HD
ATOM     35 OD1  ASN E1027     -49.639  27.051   9.347  1.00 94.01 LIG-0.27  OA
ENDBRANCH 30 31
ENDBRANCH 29 30
BRANCH 29 36
ATOM     36  C   ASN E1027     -48.202  30.812   7.903  1.00103.37 LIG 0.22  C 
ATOM     37 O    ASN E1027     -48.314  31.464   6.869  1.00 69.20 LIG-0.29  OA
ENDBRANCH 29 36
ENDBRANCH 26 29
ENDBRANCH 17 25
ENDBRANCH 15 17
ENDBRANCH 12 13
BRANCH 12 38
ATOM     38  CB  ILE E1025     -48.412  29.557  -0.034  1.00 40.50 LIG 0.01  C 
ATOM     39  CG2 ILE E1025     -49.828  29.105  -0.420  1.00 43.95 LIG 0.01  C 
BRANCH 38 40
ATOM     40  CG1 ILE E1025     -48.351  31.076   0.126  1.00 41.58 LIG 0.00  C 
ATOM     41  CD1 ILE E1025     -49.820  31.772   0.083  1.00 52.05 LIG 0.01  C 
ENDBRANCH 38 40
ENDBRANCH 12 38
ENDBRANCH 10 12
ENDBRANCH 4 8
BRANCH 1 42
ATOM     42  CA  ILE E1023     -50.065  24.789  -2.648  1.00 36.06 LIG 0.18  C 
BRANCH 42 43
ATOM     43  N   ILE E1023     -49.602  25.700  -3.712  1.00 37.96 LIG-0.35  N 
ATOM     44  C   ARG E1022     -50.419  26.178  -4.675  1.00 45.42 LIG 0.24  C 
ATOM     45 O    ARG E1022     -51.596  25.834  -4.790  1.00 45.23 LIG-0.27  OA
ATOM     46 H    ILE E1023     -48.767  25.897  -3.662  1.00 37.96 LIG 0.16  HD
BRANCH 44 47
ATOM     47  CA  ARG E1022     -49.836  27.135  -5.715  1.00 45.59 LIG 0.18  C 
BRANCH 47 48
ATOM     48  N   ARG E1022     -48.510  26.723  -6.204  1.00 48.30 LIG-0.35  N 
ATOM     49 H    ARG E1022     -48.370  25.875  -6.178  1.00 48.30 LIG 0.16  HD
ATOM     50  C   ILE E1021     -47.607  27.623  -6.650  1.00 57.51 LIG 0.26  C 
ATOM     51 O    ILE E1021     -47.833  28.840  -6.681  1.00 59.03 LIG-0.27  OA
BRANCH 50 52
ATOM     52  CA  ILE E1021     -46.250  27.101  -7.151  1.00 57.59 LIG 0.40  C 
ATOM     53  N   ILE E1021     -46.127  27.406  -8.573  1.00 58.96 LIG 0.61  N 
BRANCH 52 54
ATOM     54  CB  ILE E1021     -45.045  27.773  -6.433  1.00 60.58 LIG 0.03  C 
ATOM     55  CG2 ILE E1021     -44.933  29.264  -6.734  1.00 61.37 LIG 0.01  C 
BRANCH 54 56
ATOM     56  CG1 ILE E1021     -45.114  27.525  -4.906  1.00 60.59 LIG 0.00  C 
ATOM     57  CD1 ILE E1021     -43.991  26.693  -4.408  1.00 60.15 LIG 0.01  C 
ENDBRANCH 54 56
ENDBRANCH 52 54
ENDBRANCH 50 52
ENDBRANCH 47 48
BRANCH 47 58
ATOM     58  CB  ARG E1022     -50.846  27.288  -6.859  1.00 44.33 LIG 0.04  C 
BRANCH 58 59
ATOM     59  CG  ARG E1022     -50.360  28.213  -7.968  1.00 47.73 LIG 0.02  C 
BRANCH 59 60
ATOM     60  CD  ARG E1022     -51.417  29.196  -8.428  1.00 47.87 LIG 0.14  C 
BRANCH 60 61
ATOM     61  NE  ARG E1022     -51.830  30.064  -7.326  1.00 55.98 LIG-0.23  N 
ATOM     62  CZ  ARG E1022     -52.043  31.375  -7.394  1.00 56.00 LIG 0.67  C 
ATOM     63  NH1 ARG E1022     -51.913  32.022  -8.548  1.00 48.69 LIG-0.23  N 
ATOM     64  NH2 ARG E1022     -52.422  32.046  -6.317  1.00 32.20 LIG-0.23  N 
ATOM     65 1HH1 ARG E1022     -51.689  31.592  -9.258  1.00 48.69 LIG 0.17  HD
ATOM     66 2HH1 ARG E1022     -52.053  32.869  -8.584  1.00 48.69 LIG 0.17  HD
ATOM     67 2HH2 ARG E1022     -52.560  32.894  -6.366  1.00 32.20 LIG 0.17  HD
ATOM     68 1HH2 ARG E1022     -52.531  31.635  -5.570  1.00 32.20 LIG 0.17  HD
ATOM     69 HE   ARG E1022     -51.946  29.691  -6.559  1.00 55.98 LIG 0.18  HD
ENDBRANCH 60 61
ENDBRANCH 59 60
ENDBRANCH 58 59
ENDBRANCH 47 58
ENDBRANCH 44 47
ENDBRANCH 42 43
BRANCH 42 70
ATOM     70  CB  ILE E1023     -49.910  23.278  -3.023  1.00 38.78 LIG 0.01  C 
ATOM     71  CG2 ILE E1023     -49.110  23.122  -4.325  1.00 39.01 LIG 0.01  C 
BRANCH 70 72
ATOM     72  CG1 ILE E1023     -49.301  22.416  -1.877  1.00 39.61 LIG 0.00  C 
ATOM     73  CD1 ILE E1023     -48.085  21.585  -2.204  1.00 43.21 LIG 0.01  C 
ENDBRANCH 70 72
ENDBRANCH 42 70
ENDBRANCH 1 42
TORSDOF 26
ENDMDL
MODEL 35
USER: ADFR SOLUTION from run 175
USER: SCORE 22.769004 LL:  -6.346 LR: -17.879 RR:   0.000 FEB: -10.124
USER: RMSD 12.347506
USER: SEED 174
USER: STATUS no improvement in best in 6 clusters for 5 generations
USER: GENES 28
USER: genes 0 Translation |==|  0.44393 0.54850 0.53253
USER: genes 1 Rotation |==|  0.88305 0.79318 0.36989 0.51975
USER: genes 2 Torsion [N]-CA--C-[O] |==|  0.39372
USER: genes 3 Torsion [C]-N--CA-[CB] |==|  0.52782
USER: genes 4 Torsion [N]-CA--C-[N] |==|  0.42568
USER: genes 5 Torsion [C]-N--CA-[C] |==|  0.62261
USER: genes 6 Torsion [N]-CA--CB-[CG] |==|  0.84912
USER: genes 7 Torsion [CA]-CB--CG-[CD1] |==|  0.83192
USER: genes 8 Torsion [N]-CA--C-[N] |==|  0.15037
USER: genes 9 Torsion [C]-N--CA-[C] |==|  0.76309
USER: genes 10 Torsion [N]-CA--CB-[CG] |==|  0.28084
USER: genes 11 Torsion [CA]-CB--CG-[OD1] |==|  0.77594
USER: genes 12 Torsion [N]-CA--C-[O] |==|  0.02436
USER: genes 13 Torsion [N]-CA--CB-[CG2] |==|  0.39068
USER: genes 14 Torsion [CA]-CB--CG1-[CD1] |==|  0.16732
USER: genes 15 Torsion [N]-C--CA-[N] |==|  0.29310
USER: genes 16 Torsion [C]-CA--N-[C] |==|  0.63017
USER: genes 17 Torsion [N]-C--CA-[N] |==|  0.90314
USER: genes 18 Torsion [C]-CA--N-[C] |==|  0.69570
USER: genes 19 Torsion [N]-C--CA-[N] |==|  0.38358
USER: genes 20 Torsion [C]-CA--CB-[CG1] |==|  0.15119
USER: genes 21 Torsion [CA]-CB--CG1-[CD1] |==|  0.60714
USER: genes 22 Torsion [C]-CA--CB-[CG] |==|  0.55718
USER: genes 23 Torsion [CA]-CB--CG-[CD] |==|  0.86019
USER: genes 24 Torsion [CB]-CG--CD-[NE] |==|  0.40241
USER: genes 25 Torsion [CG]-CD--NE-[CZ] |==|  0.48230
USER: genes 26 Torsion [C]-CA--CB-[CG1] |==|  0.50933
USER: genes 27 Torsion [CA]-CB--CG1-[CD1] |==|  0.66317
ROOT
ATOM      1  C   ILE E1023     -49.197  26.158   1.385  1.00 40.02 LIG 0.24  C 
ATOM      2 O    ILE E1023     -47.987  25.909   1.279  1.00 38.38 LIG-0.27  OA
ATOM      3  N   PRO E1024     -50.163  25.226   1.189  1.00 37.38 LIG-0.34  N 
ATOM      4  CA  PRO E1024     -49.790  23.892   0.696  1.00 36.67 LIG 0.18  C 
ATOM      5  CB  PRO E1024     -51.039  23.054   0.955  1.00 38.74 LIG 0.04  C 
ATOM      6  CG  PRO E1024     -52.163  24.018   0.898  1.00 43.33 LIG 0.02  C 
ATOM      7  CD  PRO E1024     -51.635  25.372   1.277  1.00 39.42 LIG 0.13  C 
ENDROOT
BRANCH 4 8
ATOM      8  C   PRO E1024     -49.466  23.988  -0.789  1.00 39.60 LIG 0.24  C 
ATOM      9 O    PRO E1024     -48.536  23.323  -1.243  1.00 37.18 LIG-0.27  OA
ATOM     10  N   ILE E1025     -50.256  24.787  -1.536  1.00 37.20 LIG-0.35  N 
ATOM     11 H    ILE E1025     -50.904  25.231  -1.185  1.00 37.20 LIG 0.16  HD
BRANCH 10 12
ATOM     12  CA  ILE E1025     -50.150  25.016  -2.983  1.00 37.42 LIG 0.18  C 
BRANCH 12 13
ATOM     13  C   ILE E1025     -48.746  25.487  -3.355  1.00 40.88 LIG 0.24  C 
ATOM     14 O    ILE E1025     -48.153  26.251  -2.593  1.00 40.29 LIG-0.27  OA
ATOM     15  N   PHE E1026     -48.303  25.224  -4.601  1.00 36.23 LIG-0.35  N 
ATOM     16 H    PHE E1026     -48.688  24.685  -5.148  1.00 36.23 LIG 0.16  HD
BRANCH 15 17
ATOM     17  CA  PHE E1026     -47.088  25.865  -5.122  1.00 36.58 LIG 0.18  C 
BRANCH 17 18
ATOM     18  CB  PHE E1026     -45.887  24.927  -5.063  1.00 38.58 LIG 0.07  C 
BRANCH 18 19
ATOM     19  CG  PHE E1026     -45.658  24.375  -3.687  1.00 40.24 LIG-0.06  A 
ATOM     20  CD1 PHE E1026     -45.396  25.215  -2.626  1.00 42.20 LIG 0.01  A 
ATOM     21  CE1 PHE E1026     -45.174  24.704  -1.359  1.00 42.54 LIG 0.00  A 
ATOM     22  CZ  PHE E1026     -45.212  23.351  -1.146  1.00 41.81 LIG 0.00  A 
ATOM     23  CE2 PHE E1026     -45.462  22.496  -2.186  1.00 44.36 LIG 0.00  A 
ATOM     24  CD2 PHE E1026     -45.680  23.004  -3.457  1.00 42.30 LIG 0.01  A 
ENDBRANCH 18 19
ENDBRANCH 17 18
BRANCH 17 25
ATOM     25  C   PHE E1026     -47.301  26.348  -6.545  1.00 38.60 LIG 0.24  C 
ATOM     26  N   ASN E1027     -48.367  27.164  -6.744  1.00 38.80 LIG-0.35  N 
ATOM     27 H    ASN E1027     -48.908  27.377  -6.110  1.00 38.80 LIG 0.16  HD
ATOM     28 O    PHE E1026     -46.493  26.046  -7.420  1.00 31.59 LIG-0.27  OA
BRANCH 26 29
ATOM     29  CA  ASN E1027     -48.725  27.770  -8.031  1.00 74.37 LIG 0.17  C 
BRANCH 29 30
ATOM     30  CB  ASN E1027     -50.222  28.058  -8.084  1.00 75.17 LIG 0.14  C 
BRANCH 30 31
ATOM     31  CG  ASN E1027     -50.558  29.506  -7.829  1.00 99.64 LIG 0.22  C 
ATOM     32  ND2 ASN E1027     -50.789  30.280  -8.886  1.00 92.55 LIG-0.37  N 
ATOM     33 22HD ASN E1027     -50.751  29.948  -9.678  1.00 92.55 LIG 0.16  HD
ATOM     34 21HD ASN E1027     -50.977  31.112  -8.777  1.00 92.55 LIG 0.16  HD
ATOM     35 OD1  ASN E1027     -50.606  29.953  -6.681  1.00 94.01 LIG-0.27  OA
ENDBRANCH 30 31
ENDBRANCH 29 30
BRANCH 29 36
ATOM     36  C   ASN E1027     -47.951  29.071  -8.235  1.00103.37 LIG 0.22  C 
ATOM     37 O    ASN E1027     -47.050  29.384  -7.462  1.00 69.20 LIG-0.29  OA
ENDBRANCH 29 36
ENDBRANCH 26 29
ENDBRANCH 17 25
ENDBRANCH 15 17
ENDBRANCH 12 13
BRANCH 12 38
ATOM     38  CB  ILE E1025     -51.116  26.219  -3.372  1.00 40.50 LIG 0.01  C 
ATOM     39  CG2 ILE E1025     -50.483  27.141  -4.423  1.00 43.95 LIG 0.01  C 
BRANCH 38 40
ATOM     40  CG1 ILE E1025     -52.504  25.758  -3.818  1.00 41.58 LIG 0.00  C 
ATOM     41  CD1 ILE E1025     -53.289  24.923  -2.665  1.00 52.05 LIG 0.01  C 
ENDBRANCH 38 40
ENDBRANCH 12 38
ENDBRANCH 10 12
ENDBRANCH 4 8
BRANCH 1 42
ATOM     42  CA  ILE E1023     -49.611  27.542   1.853  1.00 36.06 LIG 0.18  C 
BRANCH 42 43
ATOM     43  N   ILE E1023     -49.241  27.636   3.278  1.00 37.96 LIG-0.35  N 
ATOM     44  C   ARG E1022     -50.079  28.112   4.223  1.00 45.42 LIG 0.24  C 
ATOM     45 O    ARG E1022     -51.189  28.577   3.966  1.00 45.23 LIG-0.27  OA
ATOM     46 H    ILE E1023     -48.444  27.361   3.448  1.00 37.96 LIG 0.16  HD
BRANCH 44 47
ATOM     47  CA  ARG E1022     -49.597  28.142   5.674  1.00 45.59 LIG 0.18  C 
BRANCH 47 48
ATOM     48  N   ARG E1022     -48.723  27.007   6.018  1.00 48.30 LIG-0.35  N 
ATOM     49 H    ARG E1022     -47.945  27.035   5.653  1.00 48.30 LIG 0.16  HD
ATOM     50  C   ILE E1021     -49.135  26.019   6.843  1.00 57.51 LIG 0.26  C 
ATOM     51 O    ILE E1021     -50.260  26.003   7.360  1.00 59.03 LIG-0.27  OA
BRANCH 50 52
ATOM     52  CA  ILE E1021     -48.152  24.878   7.154  1.00 57.59 LIG 0.40  C 
ATOM     53  N   ILE E1021     -48.241  24.558   8.575  1.00 58.96 LIG 0.61  N 
BRANCH 52 54
ATOM     54  CB  ILE E1021     -48.475  23.575   6.370  1.00 60.58 LIG 0.03  C 
ATOM     55  CG2 ILE E1021     -49.750  22.891   6.858  1.00 61.37 LIG 0.01  C 
BRANCH 54 56
ATOM     56  CG1 ILE E1021     -48.552  23.859   4.850  1.00 60.59 LIG 0.00  C 
ATOM     57  CD1 ILE E1021     -49.632  23.096   4.177  1.00 60.15 LIG 0.01  C 
ENDBRANCH 54 56
ENDBRANCH 52 54
ENDBRANCH 50 52
ENDBRANCH 47 48
BRANCH 47 58
ATOM     58  CB  ARG E1022     -48.914  29.490   5.935  1.00 44.33 LIG 0.04  C 
BRANCH 58 59
ATOM     59  CG  ARG E1022     -47.976  29.465   7.135  1.00 47.73 LIG 0.02  C 
BRANCH 59 60
ATOM     60  CD  ARG E1022     -48.617  28.885   8.379  1.00 47.87 LIG 0.14  C 
BRANCH 60 61
ATOM     61  NE  ARG E1022     -47.638  28.132   9.161  1.00 55.98 LIG-0.23  N 
ATOM     62  CZ  ARG E1022     -47.836  27.596  10.363  1.00 56.00 LIG 0.67  C 
ATOM     63  NH1 ARG E1022     -49.019  27.694  10.961  1.00 48.69 LIG-0.23  N 
ATOM     64  NH2 ARG E1022     -46.863  26.929  10.964  1.00 32.20 LIG-0.23  N 
ATOM     65 1HH1 ARG E1022     -49.665  28.107  10.570  1.00 48.69 LIG 0.17  HD
ATOM     66 2HH1 ARG E1022     -49.138  27.346  11.737  1.00 48.69 LIG 0.17  HD
ATOM     67 2HH2 ARG E1022     -46.994  26.584  11.741  1.00 32.20 LIG 0.17  HD
ATOM     68 1HH2 ARG E1022     -46.099  26.840  10.578  1.00 32.20 LIG 0.17  HD
ATOM     69 HE   ARG E1022     -46.860  28.024   8.811  1.00 55.98 LIG 0.18  HD
ENDBRANCH 60 61
ENDBRANCH 59 60
ENDBRANCH 58 59
ENDBRANCH 47 58
ENDBRANCH 44 47
ENDBRANCH 42 43
BRANCH 42 70
ATOM     70  CB  ILE E1023     -48.910  28.622   0.963  1.00 38.78 LIG 0.01  C 
ATOM     71  CG2 ILE E1023     -49.260  28.415  -0.518  1.00 39.01 LIG 0.01  C 
BRANCH 70 72
ATOM     72  CG1 ILE E1023     -49.206  30.083   1.417  1.00 39.61 LIG 0.00  C 
ATOM     73  CD1 ILE E1023     -49.856  31.002   0.413  1.00 43.21 LIG 0.01  C 
ENDBRANCH 70 72
ENDBRANCH 42 70
ENDBRANCH 1 42
TORSDOF 26
ENDMDL
MODEL 36
USER: ADFR SOLUTION from run 158
USER: SCORE 23.256637 LL:  -6.459 LR: -17.827 RR:   0.000 FEB: -10.071
USER: RMSD 12.352151
USER: SEED 157
USER: STATUS no improvement in best in 27 clusters for 5 generations
USER: GENES 28
USER: genes 0 Translation |==|  0.44242 0.53637 0.51532
USER: genes 1 Rotation |==|  0.88748 0.79847 0.40297 0.53688
USER: genes 2 Torsion [N]-CA--C-[O] |==|  0.42817
USER: genes 3 Torsion [C]-N--CA-[CB] |==|  0.53966
USER: genes 4 Torsion [N]-CA--C-[N] |==|  0.45766
USER: genes 5 Torsion [C]-N--CA-[C] |==|  0.16206
USER: genes 6 Torsion [N]-CA--CB-[CG] |==|  0.74368
USER: genes 7 Torsion [CA]-CB--CG-[CD1] |==|  0.08673
USER: genes 8 Torsion [N]-CA--C-[N] |==|  0.06228
USER: genes 9 Torsion [C]-N--CA-[C] |==|  0.68639
USER: genes 10 Torsion [N]-CA--CB-[CG] |==|  0.74695
USER: genes 11 Torsion [CA]-CB--CG-[OD1] |==|  0.20855
USER: genes 12 Torsion [N]-CA--C-[O] |==|  0.57208
USER: genes 13 Torsion [N]-CA--CB-[CG2] |==|  0.51590
USER: genes 14 Torsion [CA]-CB--CG1-[CD1] |==|  0.89621
USER: genes 15 Torsion [N]-C--CA-[N] |==|  0.31265
USER: genes 16 Torsion [C]-CA--N-[C] |==|  0.57886
USER: genes 17 Torsion [N]-C--CA-[N] |==|  0.94591
USER: genes 18 Torsion [C]-CA--N-[C] |==|  0.68125
USER: genes 19 Torsion [N]-C--CA-[N] |==|  0.39398
USER: genes 20 Torsion [C]-CA--CB-[CG1] |==|  0.14275
USER: genes 21 Torsion [CA]-CB--CG1-[CD1] |==|  0.54995
USER: genes 22 Torsion [C]-CA--CB-[CG] |==|  0.39071
USER: genes 23 Torsion [CA]-CB--CG-[CD] |==|  0.68925
USER: genes 24 Torsion [CB]-CG--CD-[NE] |==|  0.71036
USER: genes 25 Torsion [CG]-CD--NE-[CZ] |==|  0.42676
USER: genes 26 Torsion [C]-CA--CB-[CG1] |==|  0.45527
USER: genes 27 Torsion [CA]-CB--CG1-[CD1] |==|  0.41790
ROOT
ATOM      1  C   ILE E1023     -49.220  25.876   0.895  1.00 40.02 LIG 0.24  C 
ATOM      2 O    ILE E1023     -48.000  25.663   0.958  1.00 38.38 LIG-0.27  OA
ATOM      3  N   PRO E1024     -50.118  24.925   0.533  1.00 37.38 LIG-0.34  N 
ATOM      4  CA  PRO E1024     -49.636  23.619   0.061  1.00 36.67 LIG 0.18  C 
ATOM      5  CB  PRO E1024     -50.883  22.740   0.111  1.00 38.74 LIG 0.04  C 
ATOM      6  CG  PRO E1024     -52.016  23.676  -0.080  1.00 43.33 LIG 0.02  C 
ATOM      7  CD  PRO E1024     -51.591  25.030   0.411  1.00 39.42 LIG 0.13  C 
ENDROOT
BRANCH 4 8
ATOM      8  C   PRO E1024     -49.104  23.774  -1.358  1.00 39.60 LIG 0.24  C 
ATOM      9 O    PRO E1024     -48.249  22.988  -1.765  1.00 37.18 LIG-0.27  OA
ATOM     10  N   ILE E1025     -49.639  24.760  -2.107  1.00 37.20 LIG-0.35  N 
ATOM     11 H    ILE E1025     -50.243  25.285  -1.791  1.00 37.20 LIG 0.16  HD
BRANCH 10 12
ATOM     12  CA  ILE E1025     -49.302  25.081  -3.500  1.00 37.42 LIG 0.18  C 
BRANCH 12 13
ATOM     13  C   ILE E1025     -47.791  25.213  -3.675  1.00 40.88 LIG 0.24  C 
ATOM     14 O    ILE E1025     -47.105  25.530  -2.702  1.00 40.29 LIG-0.27  OA
ATOM     15  N   PHE E1026     -47.298  25.193  -4.929  1.00 36.23 LIG-0.35  N 
ATOM     16 H    PHE E1026     -47.750  24.962  -5.623  1.00 36.23 LIG 0.16  HD
BRANCH 15 17
ATOM     17  CA  PHE E1026     -45.907  25.576  -5.201  1.00 36.58 LIG 0.18  C 
BRANCH 17 18
ATOM     18  CB  PHE E1026     -45.655  27.047  -4.881  1.00 38.58 LIG 0.07  C 
BRANCH 18 19
ATOM     19  CG  PHE E1026     -45.856  27.936  -6.072  1.00 40.24 LIG-0.06  A 
ATOM     20  CD1 PHE E1026     -46.779  27.613  -7.043  1.00 42.20 LIG 0.01  A 
ATOM     21  CE1 PHE E1026     -46.955  28.429  -8.148  1.00 42.54 LIG 0.00  A 
ATOM     22  CZ  PHE E1026     -46.211  29.571  -8.286  1.00 41.81 LIG 0.00  A 
ATOM     23  CE2 PHE E1026     -45.283  29.908  -7.337  1.00 44.36 LIG 0.00  A 
ATOM     24  CD2 PHE E1026     -45.100  29.091  -6.233  1.00 42.30 LIG 0.01  A 
ENDBRANCH 18 19
ENDBRANCH 17 18
BRANCH 17 25
ATOM     25  C   PHE E1026     -44.942  24.702  -4.422  1.00 38.60 LIG 0.24  C 
ATOM     26  N   ASN E1027     -45.420  23.495  -4.026  1.00 38.80 LIG-0.35  N 
ATOM     27 H    ASN E1027     -46.228  23.246  -4.183  1.00 38.80 LIG 0.16  HD
ATOM     28 O    PHE E1026     -43.786  25.078  -4.239  1.00 31.59 LIG-0.27  OA
BRANCH 26 29
ATOM     29  CA  ASN E1027     -44.640  22.487  -3.298  1.00 74.37 LIG 0.17  C 
BRANCH 29 30
ATOM     30  CB  ASN E1027     -45.367  22.073  -2.023  1.00 75.17 LIG 0.14  C 
BRANCH 30 31
ATOM     31  CG  ASN E1027     -44.981  22.901  -0.823  1.00 99.64 LIG 0.22  C 
ATOM     32  ND2 ASN E1027     -44.186  22.339   0.083  1.00 92.55 LIG-0.37  N 
ATOM     33 22HD ASN E1027     -43.906  21.533  -0.031  1.00 92.55 LIG 0.16  HD
ATOM     34 21HD ASN E1027     -43.951  22.780   0.783  1.00 92.55 LIG 0.16  HD
ATOM     35 OD1  ASN E1027     -45.398  24.053  -0.688  1.00 94.01 LIG-0.27  OA
ENDBRANCH 30 31
ENDBRANCH 29 30
BRANCH 29 36
ATOM     36  C   ASN E1027     -44.417  21.257  -4.177  1.00103.37 LIG 0.22  C 
ATOM     37 O    ASN E1027     -44.231  20.156  -3.667  1.00 69.20 LIG-0.29  OA
ENDBRANCH 29 36
ENDBRANCH 26 29
ENDBRANCH 17 25
ENDBRANCH 15 17
ENDBRANCH 12 13
BRANCH 12 38
ATOM     38  CB  ILE E1025     -49.894  26.519  -3.840  1.00 40.50 LIG 0.01  C 
ATOM     39  CG2 ILE E1025     -49.710  26.875  -5.321  1.00 43.95 LIG 0.01  C 
BRANCH 38 40
ATOM     40  CG1 ILE E1025     -51.354  26.685  -3.418  1.00 41.58 LIG 0.00  C 
ATOM     41  CD1 ILE E1025     -52.230  25.334  -3.642  1.00 52.05 LIG 0.01  C 
ENDBRANCH 38 40
ENDBRANCH 12 38
ENDBRANCH 10 12
ENDBRANCH 4 8
BRANCH 1 42
ATOM     42  CA  ILE E1023     -49.740  27.232   1.337  1.00 36.06 LIG 0.18  C 
BRANCH 42 43
ATOM     43  N   ILE E1023     -49.426  27.358   2.773  1.00 37.96 LIG-0.35  N 
ATOM     44  C   ARG E1022     -50.165  28.103   3.623  1.00 45.42 LIG 0.24  C 
ATOM     45 O    ARG E1022     -51.114  28.798   3.257  1.00 45.23 LIG-0.27  OA
ATOM     46 H    ILE E1023     -48.731  26.915   3.017  1.00 37.96 LIG 0.16  HD
BRANCH 44 47
ATOM     47  CA  ARG E1022     -49.761  28.142   5.097  1.00 45.59 LIG 0.18  C 
BRANCH 47 48
ATOM     48  N   ARG E1022     -48.895  27.018   5.490  1.00 48.30 LIG-0.35  N 
ATOM     49 H    ARG E1022     -48.123  27.014   5.112  1.00 48.30 LIG 0.16  HD
ATOM     50  C   ILE E1021     -49.305  26.083   6.376  1.00 57.51 LIG 0.26  C 
ATOM     51 O    ILE E1021     -50.420  26.112   6.912  1.00 59.03 LIG-0.27  OA
BRANCH 50 52
ATOM     52  CA  ILE E1021     -48.330  24.949   6.736  1.00 57.59 LIG 0.40  C 
ATOM     53  N   ILE E1021     -48.463  24.651   8.159  1.00 58.96 LIG 0.61  N 
BRANCH 52 54
ATOM     54  CB  ILE E1021     -48.627  23.634   5.962  1.00 60.58 LIG 0.03  C 
ATOM     55  CG2 ILE E1021     -49.874  22.917   6.470  1.00 61.37 LIG 0.01  C 
BRANCH 54 56
ATOM     56  CG1 ILE E1021     -48.731  23.908   4.442  1.00 60.59 LIG 0.00  C 
ATOM     57  CD1 ILE E1021     -49.416  22.816   3.708  1.00 60.15 LIG 0.01  C 
ENDBRANCH 54 56
ENDBRANCH 52 54
ENDBRANCH 50 52
ENDBRANCH 47 48
BRANCH 47 58
ATOM     58  CB  ARG E1022     -49.107  29.498   5.388  1.00 44.33 LIG 0.04  C 
BRANCH 58 59
ATOM     59  CG  ARG E1022     -49.498  30.074   6.744  1.00 47.73 LIG 0.02  C 
BRANCH 59 60
ATOM     60  CD  ARG E1022     -50.358  31.316   6.637  1.00 47.87 LIG 0.14  C 
BRANCH 60 61
ATOM     61  NE  ARG E1022     -49.574  32.514   6.931  1.00 55.98 LIG-0.23  N 
ATOM     62  CZ  ARG E1022     -49.817  33.743   6.482  1.00 56.00 LIG 0.67  C 
ATOM     63  NH1 ARG E1022     -50.869  33.984   5.708  1.00 48.69 LIG-0.23  N 
ATOM     64  NH2 ARG E1022     -49.028  34.748   6.831  1.00 32.20 LIG-0.23  N 
ATOM     65 1HH1 ARG E1022     -51.400  33.343   5.493  1.00 48.69 LIG 0.17  HD
ATOM     66 2HH1 ARG E1022     -51.019  34.781   5.422  1.00 48.69 LIG 0.17  HD
ATOM     67 2HH2 ARG E1022     -49.188  35.541   6.539  1.00 32.20 LIG 0.17  HD
ATOM     68 1HH2 ARG E1022     -48.356  34.607   7.349  1.00 32.20 LIG 0.17  HD
ATOM     69 HE   ARG E1022     -48.890  32.415   7.444  1.00 55.98 LIG 0.18  HD
ENDBRANCH 60 61
ENDBRANCH 59 60
ENDBRANCH 58 59
ENDBRANCH 47 58
ENDBRANCH 44 47
ENDBRANCH 42 43
BRANCH 42 70
ATOM     70  CB  ILE E1023     -49.081  28.351   0.464  1.00 38.78 LIG 0.01  C 
ATOM     71  CG2 ILE E1023     -48.936  27.887  -0.993  1.00 39.01 LIG 0.01  C 
BRANCH 70 72
ATOM     72  CG1 ILE E1023     -49.820  29.720   0.552  1.00 39.61 LIG 0.00  C 
ATOM     73  CD1 ILE E1023     -48.994  30.968   0.365  1.00 43.21 LIG 0.01  C 
ENDBRANCH 70 72
ENDBRANCH 42 70
ENDBRANCH 1 42
TORSDOF 26
ENDMDL
MODEL 37
USER: ADFR SOLUTION from run 158
USER: SCORE 22.877060 LL:  -6.243 LR: -17.811 RR:   0.000 FEB: -10.055
USER: RMSD 12.718909
USER: SEED 157
USER: STATUS no improvement in best in 27 clusters for 5 generations
USER: GENES 28
USER: genes 0 Translation |==|  0.44379 0.54771 0.52905
USER: genes 1 Rotation |==|  0.88985 0.79909 0.41969 0.54603
USER: genes 2 Torsion [N]-CA--C-[O] |==|  0.39634
USER: genes 3 Torsion [C]-N--CA-[CB] |==|  0.52104
USER: genes 4 Torsion [N]-CA--C-[N] |==|  0.44619
USER: genes 5 Torsion [C]-N--CA-[C] |==|  0.62411
USER: genes 6 Torsion [N]-CA--CB-[CG] |==|  0.91241
USER: genes 7 Torsion [CA]-CB--CG-[CD1] |==|  0.28260
USER: genes 8 Torsion [N]-CA--C-[N] |==|  0.47066
USER: genes 9 Torsion [C]-N--CA-[C] |==|  0.19915
USER: genes 10 Torsion [N]-CA--CB-[CG] |==|  0.56265
USER: genes 11 Torsion [CA]-CB--CG-[OD1] |==|  0.65420
USER: genes 12 Torsion [N]-CA--C-[O] |==|  0.33760
USER: genes 13 Torsion [N]-CA--CB-[CG2] |==|  0.52719
USER: genes 14 Torsion [CA]-CB--CG1-[CD1] |==|  0.87404
USER: genes 15 Torsion [N]-C--CA-[N] |==|  0.33474
USER: genes 16 Torsion [C]-CA--N-[C] |==|  0.59543
USER: genes 17 Torsion [N]-C--CA-[N] |==|  0.93025
USER: genes 18 Torsion [C]-CA--N-[C] |==|  0.67075
USER: genes 19 Torsion [N]-C--CA-[N] |==|  0.39956
USER: genes 20 Torsion [C]-CA--CB-[CG1] |==|  0.13020
USER: genes 21 Torsion [CA]-CB--CG1-[CD1] |==|  0.57710
USER: genes 22 Torsion [C]-CA--CB-[CG] |==|  0.40238
USER: genes 23 Torsion [CA]-CB--CG-[CD] |==|  0.68417
USER: genes 24 Torsion [CB]-CG--CD-[NE] |==|  0.70563
USER: genes 25 Torsion [CG]-CD--NE-[CZ] |==|  0.43298
USER: genes 26 Torsion [C]-CA--CB-[CG1] |==|  0.46520
USER: genes 27 Torsion [CA]-CB--CG1-[CD1] |==|  0.45606
ROOT
ATOM      1  C   ILE E1023     -49.199  26.139   1.286  1.00 40.02 LIG 0.24  C 
ATOM      2 O    ILE E1023     -47.986  25.935   1.439  1.00 38.38 LIG-0.27  OA
ATOM      3  N   PRO E1024     -50.060  25.187   0.846  1.00 37.38 LIG-0.34  N 
ATOM      4  CA  PRO E1024     -49.532  23.891   0.395  1.00 36.67 LIG 0.18  C 
ATOM      5  CB  PRO E1024     -50.771  23.001   0.340  1.00 38.74 LIG 0.04  C 
ATOM      6  CG  PRO E1024     -51.895  23.931   0.076  1.00 43.33 LIG 0.02  C 
ATOM      7  CD  PRO E1024     -51.520  25.281   0.615  1.00 39.42 LIG 0.13  C 
ENDROOT
BRANCH 4 8
ATOM      8  C   PRO E1024     -48.896  24.068  -0.977  1.00 39.60 LIG 0.24  C 
ATOM      9 O    PRO E1024     -47.872  23.441  -1.248  1.00 37.18 LIG-0.27  OA
ATOM     10  N   ILE E1025     -49.527  24.890  -1.841  1.00 37.20 LIG-0.35  N 
ATOM     11 H    ILE E1025     -50.247  25.305  -1.620  1.00 37.20 LIG 0.16  HD
BRANCH 10 12
ATOM     12  CA  ILE E1025     -49.115  25.194  -3.218  1.00 37.42 LIG 0.18  C 
BRANCH 12 13
ATOM     13  C   ILE E1025     -47.699  25.763  -3.247  1.00 40.88 LIG 0.24  C 
ATOM     14 O    ILE E1025     -47.297  26.410  -2.278  1.00 40.29 LIG-0.27  OA
ATOM     15  N   PHE E1026     -47.026  25.722  -4.414  1.00 36.23 LIG-0.35  N 
ATOM     16 H    PHE E1026     -47.276  25.268  -5.101  1.00 36.23 LIG 0.16  HD
BRANCH 15 17
ATOM     17  CA  PHE E1026     -45.780  26.477  -4.597  1.00 36.58 LIG 0.18  C 
BRANCH 17 18
ATOM     18  CB  PHE E1026     -44.554  25.577  -4.477  1.00 38.58 LIG 0.07  C 
BRANCH 18 19
ATOM     19  CG  PHE E1026     -44.770  24.438  -3.524  1.00 40.24 LIG-0.06  A 
ATOM     20  CD1 PHE E1026     -45.042  23.171  -3.992  1.00 42.20 LIG 0.01  A 
ATOM     21  CE1 PHE E1026     -45.252  22.124  -3.111  1.00 42.54 LIG 0.00  A 
ATOM     22  CZ  PHE E1026     -45.190  22.337  -1.759  1.00 41.81 LIG 0.00  A 
ATOM     23  CE2 PHE E1026     -44.928  23.590  -1.271  1.00 44.36 LIG 0.00  A 
ATOM     24  CD2 PHE E1026     -44.722  24.642  -2.150  1.00 42.30 LIG 0.01  A 
ENDBRANCH 18 19
ENDBRANCH 17 18
BRANCH 17 25
ATOM     25  C   PHE E1026     -45.771  27.191  -5.936  1.00 38.60 LIG 0.24  C 
ATOM     26  N   ASN E1027     -44.776  28.094  -6.123  1.00 38.80 LIG-0.35  N 
ATOM     27 H    ASN E1027     -44.197  28.273  -5.513  1.00 38.80 LIG 0.16  HD
ATOM     28 O    PHE E1026     -46.598  26.890  -6.794  1.00 31.59 LIG-0.27  OA
BRANCH 26 29
ATOM     29  CA  ASN E1027     -44.566  28.861  -7.356  1.00 74.37 LIG 0.17  C 
BRANCH 29 30
ATOM     30  CB  ASN E1027     -44.588  27.935  -8.567  1.00 75.17 LIG 0.14  C 
BRANCH 30 31
ATOM     31  CG  ASN E1027     -43.869  28.504  -9.765  1.00 99.64 LIG 0.22  C 
ATOM     32  ND2 ASN E1027     -42.605  28.883  -9.601  1.00 92.55 LIG-0.37  N 
ATOM     33 22HD ASN E1027     -42.225  28.793  -8.835  1.00 92.55 LIG 0.16  HD
ATOM     34 21HD ASN E1027     -42.167  29.219 -10.261  1.00 92.55 LIG 0.16  HD
ATOM     35 OD1  ASN E1027     -44.441  28.621 -10.850  1.00 94.01 LIG-0.27  OA
ENDBRANCH 30 31
ENDBRANCH 29 30
BRANCH 29 36
ATOM     36  C   ASN E1027     -45.654  29.922  -7.509  1.00103.37 LIG 0.22  C 
ATOM     37 O    ASN E1027     -45.356  31.110  -7.593  1.00 69.20 LIG-0.29  OA
ENDBRANCH 29 36
ENDBRANCH 26 29
ENDBRANCH 17 25
ENDBRANCH 15 17
ENDBRANCH 12 13
BRANCH 12 38
ATOM     38  CB  ILE E1025     -50.049  26.356  -3.775  1.00 40.50 LIG 0.01  C 
ATOM     39  CG2 ILE E1025     -49.851  26.573  -5.281  1.00 43.95 LIG 0.01  C 
BRANCH 38 40
ATOM     40  CG1 ILE E1025     -51.527  26.153  -3.443  1.00 41.58 LIG 0.00  C 
ATOM     41  CD1 ILE E1025     -52.029  24.632  -3.719  1.00 52.05 LIG 0.01  C 
ENDBRANCH 38 40
ENDBRANCH 12 38
ENDBRANCH 10 12
ENDBRANCH 4 8
BRANCH 1 42
ATOM     42  CA  ILE E1023     -49.763  27.486   1.705  1.00 36.06 LIG 0.18  C 
BRANCH 42 43
ATOM     43  N   ILE E1023     -49.388  27.681   3.118  1.00 37.96 LIG-0.35  N 
ATOM     44  C   ARG E1022     -50.179  28.323   4.005  1.00 45.42 LIG 0.24  C 
ATOM     45 O    ARG E1022     -51.239  28.864   3.692  1.00 45.23 LIG-0.27  OA
ATOM     46 H    ILE E1023     -48.622  27.349   3.324  1.00 37.96 LIG 0.16  HD
BRANCH 44 47
ATOM     47  CA  ARG E1022     -49.700  28.446   5.452  1.00 45.59 LIG 0.18  C 
BRANCH 47 48
ATOM     48  N   ARG E1022     -48.753  27.387   5.841  1.00 48.30 LIG-0.35  N 
ATOM     49 H    ARG E1022     -48.024  27.377   5.385  1.00 48.30 LIG 0.16  HD
ATOM     50  C   ILE E1021     -49.032  26.516   6.836  1.00 57.51 LIG 0.26  C 
ATOM     51 O    ILE E1021     -50.088  26.553   7.481  1.00 59.03 LIG-0.27  OA
BRANCH 50 52
ATOM     52  CA  ILE E1021     -47.981  25.448   7.181  1.00 57.59 LIG 0.40  C 
ATOM     53  N   ILE E1021     -47.991  25.231   8.624  1.00 58.96 LIG 0.61  N 
BRANCH 52 54
ATOM     54  CB  ILE E1021     -48.274  24.077   6.509  1.00 60.58 LIG 0.03  C 
ATOM     55  CG2 ILE E1021     -49.371  23.291   7.221  1.00 61.37 LIG 0.01  C 
BRANCH 54 56
ATOM     56  CG1 ILE E1021     -48.619  24.267   5.011  1.00 60.59 LIG 0.00  C 
ATOM     57  CD1 ILE E1021     -49.505  23.200   4.487  1.00 60.15 LIG 0.01  C 
ENDBRANCH 54 56
ENDBRANCH 52 54
ENDBRANCH 50 52
ENDBRANCH 47 48
BRANCH 47 58
ATOM     58  CB  ARG E1022     -49.107  29.846   5.653  1.00 44.33 LIG 0.04  C 
BRANCH 58 59
ATOM     59  CG  ARG E1022     -49.371  30.414   7.042  1.00 47.73 LIG 0.02  C 
BRANCH 59 60
ATOM     60  CD  ARG E1022     -50.283  31.623   7.025  1.00 47.87 LIG 0.14  C 
BRANCH 60 61
ATOM     61  NE  ARG E1022     -49.523  32.848   7.270  1.00 55.98 LIG-0.23  N 
ATOM     62  CZ  ARG E1022     -49.870  34.077   6.898  1.00 56.00 LIG 0.67  C 
ATOM     63  NH1 ARG E1022     -51.015  34.292   6.260  1.00 48.69 LIG-0.23  N 
ATOM     64  NH2 ARG E1022     -49.090  35.107   7.190  1.00 32.20 LIG-0.23  N 
ATOM     65 1HH1 ARG E1022     -51.539  33.633   6.084  1.00 48.69 LIG 0.17  HD
ATOM     66 2HH1 ARG E1022     -51.232  35.089   6.022  1.00 48.69 LIG 0.17  HD
ATOM     67 2HH2 ARG E1022     -49.317  35.900   6.947  1.00 32.20 LIG 0.17  HD
ATOM     68 1HH2 ARG E1022     -48.357  34.983   7.622  1.00 32.20 LIG 0.17  HD
ATOM     69 HE   ARG E1022     -48.780  32.766   7.697  1.00 55.98 LIG 0.18  HD
ENDBRANCH 60 61
ENDBRANCH 59 60
ENDBRANCH 58 59
ENDBRANCH 47 58
ENDBRANCH 44 47
ENDBRANCH 42 43
BRANCH 42 70
ATOM     70  CB  ILE E1023     -49.201  28.600   0.761  1.00 38.78 LIG 0.01  C 
ATOM     71  CG2 ILE E1023     -49.186  28.119  -0.697  1.00 39.01 LIG 0.01  C 
BRANCH 70 72
ATOM     72  CG1 ILE E1023     -49.945  29.962   0.901  1.00 39.61 LIG 0.00  C 
ATOM     73  CD1 ILE E1023     -49.271  31.184   0.327  1.00 43.21 LIG 0.01  C 
ENDBRANCH 70 72
ENDBRANCH 42 70
ENDBRANCH 1 42
TORSDOF 26
ENDMDL
MODEL 38
USER: ADFR SOLUTION from run 95
USER: SCORE 22.379752 LL:  -5.484 LR: -17.790 RR:   0.000 FEB: -10.034
USER: RMSD 13.324357
USER: SEED 94
USER: STATUS no improvement in best in 5 clusters for 5 generations
USER: GENES 28
USER: genes 0 Translation |==|  0.38603 0.59825 0.66280
USER: genes 1 Rotation |==|  0.24359 0.08756 0.61633 0.52477
USER: genes 2 Torsion [N]-CA--C-[O] |==|  0.75328
USER: genes 3 Torsion [C]-N--CA-[CB] |==|  0.53578
USER: genes 4 Torsion [N]-CA--C-[N] |==|  0.38676
USER: genes 5 Torsion [C]-N--CA-[C] |==|  0.56385
USER: genes 6 Torsion [N]-CA--CB-[CG] |==|  0.66858
USER: genes 7 Torsion [CA]-CB--CG-[CD1] |==|  0.85346
USER: genes 8 Torsion [N]-CA--C-[N] |==|  0.43351
USER: genes 9 Torsion [C]-N--CA-[C] |==|  0.10885
USER: genes 10 Torsion [N]-CA--CB-[CG] |==|  0.32655
USER: genes 11 Torsion [CA]-CB--CG-[OD1] |==|  0.29421
USER: genes 12 Torsion [N]-CA--C-[O] |==|  0.39522
USER: genes 13 Torsion [N]-CA--CB-[CG2] |==|  0.35101
USER: genes 14 Torsion [CA]-CB--CG1-[CD1] |==|  0.89554
USER: genes 15 Torsion [N]-C--CA-[N] |==|  0.36307
USER: genes 16 Torsion [C]-CA--N-[C] |==|  0.84859
USER: genes 17 Torsion [N]-C--CA-[N] |==|  0.50939
USER: genes 18 Torsion [C]-CA--N-[C] |==|  0.76423
USER: genes 19 Torsion [N]-C--CA-[N] |==|  0.32469
USER: genes 20 Torsion [C]-CA--CB-[CG1] |==|  0.48360
USER: genes 21 Torsion [CA]-CB--CG1-[CD1] |==|  0.59849
USER: genes 22 Torsion [C]-CA--CB-[CG] |==|  0.22924
USER: genes 23 Torsion [CA]-CB--CG-[CD] |==|  0.58486
USER: genes 24 Torsion [CB]-CG--CD-[NE] |==|  0.38456
USER: genes 25 Torsion [CG]-CD--NE-[CZ] |==|  0.33066
USER: genes 26 Torsion [C]-CA--CB-[CG1] |==|  0.87581
USER: genes 27 Torsion [CA]-CB--CG1-[CD1] |==|  0.29839
ROOT
ATOM      1  C   ILE E1023     -50.066  27.314   5.098  1.00 40.02 LIG 0.24  C 
ATOM      2 O    ILE E1023     -49.008  27.877   4.779  1.00 38.38 LIG-0.27  OA
ATOM      3  N   PRO E1024     -50.369  26.045   4.725  1.00 37.38 LIG-0.34  N 
ATOM      4  CA  PRO E1024     -49.483  25.337   3.791  1.00 36.67 LIG 0.18  C 
ATOM      5  CB  PRO E1024     -49.932  23.882   3.908  1.00 38.74 LIG 0.04  C 
ATOM      6  CG  PRO E1024     -51.361  23.955   4.293  1.00 43.33 LIG 0.02  C 
ATOM      7  CD  PRO E1024     -51.581  25.248   5.024  1.00 39.42 LIG 0.13  C 
ENDROOT
BRANCH 4 8
ATOM      8  C   PRO E1024     -49.702  25.889   2.388  1.00 39.60 LIG 0.24  C 
ATOM      9 O    PRO E1024     -50.569  25.386   1.675  1.00 37.18 LIG-0.27  OA
ATOM     10  N   ILE E1025     -48.939  26.940   2.021  1.00 37.20 LIG-0.35  N 
ATOM     11 H    ILE E1025     -48.348  27.272   2.550  1.00 37.20 LIG 0.16  HD
BRANCH 10 12
ATOM     12  CA  ILE E1025     -48.990  27.649   0.735  1.00 37.42 LIG 0.18  C 
BRANCH 12 13
ATOM     13  C   ILE E1025     -48.878  26.668  -0.429  1.00 40.88 LIG 0.24  C 
ATOM     14 O    ILE E1025     -47.952  25.856  -0.437  1.00 40.29 LIG-0.27  OA
ATOM     15  N   PHE E1026     -49.665  26.875  -1.504  1.00 36.23 LIG-0.35  N 
ATOM     16 H    PHE E1026     -50.326  27.424  -1.522  1.00 36.23 LIG 0.16  HD
BRANCH 15 17
ATOM     17  CA  PHE E1026     -49.436  26.148  -2.760  1.00 36.58 LIG 0.18  C 
BRANCH 17 18
ATOM     18  CB  PHE E1026     -50.011  24.736  -2.707  1.00 38.58 LIG 0.07  C 
BRANCH 18 19
ATOM     19  CG  PHE E1026     -48.960  23.681  -2.890  1.00 40.24 LIG-0.06  A 
ATOM     20  CD1 PHE E1026     -48.107  23.718  -3.972  1.00 42.20 LIG 0.01  A 
ATOM     21  CE1 PHE E1026     -47.146  22.738  -4.146  1.00 42.54 LIG 0.00  A 
ATOM     22  CZ  PHE E1026     -47.031  21.717  -3.240  1.00 41.81 LIG 0.00  A 
ATOM     23  CE2 PHE E1026     -47.872  21.656  -2.161  1.00 44.36 LIG 0.00  A 
ATOM     24  CD2 PHE E1026     -48.840  22.632  -1.987  1.00 42.30 LIG 0.01  A 
ENDBRANCH 18 19
ENDBRANCH 17 18
BRANCH 17 25
ATOM     25  C   PHE E1026     -50.023  26.905  -3.937  1.00 38.60 LIG 0.24  C 
ATOM     26  N   ASN E1027     -49.474  26.639  -5.149  1.00 38.80 LIG-0.35  N 
ATOM     27 H    ASN E1027     -48.816  26.094  -5.247  1.00 38.80 LIG 0.16  HD
ATOM     28 O    PHE E1026     -50.981  27.655  -3.765  1.00 31.59 LIG-0.27  OA
BRANCH 26 29
ATOM     29  CA  ASN E1027     -49.921  27.232  -6.415  1.00 74.37 LIG 0.17  C 
BRANCH 29 30
ATOM     30  CB  ASN E1027     -51.138  26.485  -6.951  1.00 75.17 LIG 0.14  C 
BRANCH 30 31
ATOM     31  CG  ASN E1027     -52.370  27.349  -7.048  1.00 99.64 LIG 0.22  C 
ATOM     32  ND2 ASN E1027     -52.999  27.655  -5.917  1.00 92.55 LIG-0.37  N 
ATOM     33 22HD ASN E1027     -52.696  27.367  -5.165  1.00 92.55 LIG 0.16  HD
ATOM     34 21HD ASN E1027     -53.709  28.140  -5.937  1.00 92.55 LIG 0.16  HD
ATOM     35 OD1  ASN E1027     -52.780  27.746  -8.141  1.00 94.01 LIG-0.27  OA
ENDBRANCH 30 31
ENDBRANCH 29 30
BRANCH 29 36
ATOM     36  C   ASN E1027     -50.278  28.703  -6.212  1.00103.37 LIG 0.22  C 
ATOM     37 O    ASN E1027     -50.012  29.532  -7.078  1.00 69.20 LIG-0.29  OA
ENDBRANCH 29 36
ENDBRANCH 26 29
ENDBRANCH 17 25
ENDBRANCH 15 17
ENDBRANCH 12 13
BRANCH 12 38
ATOM     38  CB  ILE E1025     -47.704  28.581   0.627  1.00 40.50 LIG 0.01  C 
ATOM     39  CG2 ILE E1025     -46.920  28.322  -0.667  1.00 43.95 LIG 0.01  C 
BRANCH 38 40
ATOM     40  CG1 ILE E1025     -48.021  30.068   0.783  1.00 41.58 LIG 0.00  C 
ATOM     41  CD1 ILE E1025     -49.427  30.487   0.083  1.00 52.05 LIG 0.01  C 
ENDBRANCH 38 40
ENDBRANCH 12 38
ENDBRANCH 10 12
ENDBRANCH 4 8
BRANCH 1 42
ATOM     42  CA  ILE E1023     -51.019  28.043   6.029  1.00 36.06 LIG 0.18  C 
BRANCH 42 43
ATOM     43  N   ILE E1023     -50.198  28.610   7.116  1.00 37.96 LIG-0.35  N 
ATOM     44  C   ARG E1022     -49.363  27.864   7.870  1.00 45.42 LIG 0.24  C 
ATOM     45 O    ARG E1022     -49.274  26.640   7.766  1.00 45.23 LIG-0.27  OA
ATOM     46 H    ILE E1023     -50.302  29.456   7.224  1.00 37.96 LIG 0.16  HD
BRANCH 44 47
ATOM     47  CA  ARG E1022     -48.542  28.562   8.955  1.00 45.59 LIG 0.18  C 
BRANCH 47 48
ATOM     48  N   ARG E1022     -47.614  27.657   9.653  1.00 48.30 LIG-0.35  N 
ATOM     49 H    ARG E1022     -46.815  27.655   9.338  1.00 48.30 LIG 0.16  HD
ATOM     50  C   ILE E1021     -48.013  26.902  10.701  1.00 57.51 LIG 0.26  C 
ATOM     51 O    ILE E1021     -49.170  26.924  11.140  1.00 59.03 LIG-0.27  OA
BRANCH 50 52
ATOM     52  CA  ILE E1021     -46.973  25.992  11.376  1.00 57.59 LIG 0.40  C 
ATOM     53  N   ILE E1021     -46.792  26.431  12.756  1.00 58.96 LIG 0.61  N 
BRANCH 52 54
ATOM     54  CB  ILE E1021     -47.418  24.503  11.423  1.00 60.58 LIG 0.03  C 
ATOM     55  CG2 ILE E1021     -47.903  23.987  10.071  1.00 61.37 LIG 0.01  C 
BRANCH 54 56
ATOM     56  CG1 ILE E1021     -46.279  23.611  11.975  1.00 60.59 LIG 0.00  C 
ATOM     57  CD1 ILE E1021     -46.231  22.277  11.329  1.00 60.15 LIG 0.01  C 
ENDBRANCH 54 56
ENDBRANCH 52 54
ENDBRANCH 50 52
ENDBRANCH 47 48
BRANCH 47 58
ATOM     58  CB  ARG E1022     -47.813  29.755   8.325  1.00 44.33 LIG 0.04  C 
BRANCH 58 59
ATOM     59  CG  ARG E1022     -48.686  30.999   8.210  1.00 47.73 LIG 0.02  C 
BRANCH 59 60
ATOM     60  CD  ARG E1022     -48.325  31.871   7.025  1.00 47.87 LIG 0.14  C 
BRANCH 60 61
ATOM     61  NE  ARG E1022     -49.530  32.365   6.362  1.00 55.98 LIG-0.23  N 
ATOM     62  CZ  ARG E1022     -49.881  33.640   6.215  1.00 56.00 LIG 0.67  C 
ATOM     63  NH1 ARG E1022     -49.097  34.613   6.668  1.00 48.69 LIG-0.23  N 
ATOM     64  NH2 ARG E1022     -51.002  33.955   5.585  1.00 32.20 LIG-0.23  N 
ATOM     65 1HH1 ARG E1022     -48.356  34.421   7.060  1.00 48.69 LIG 0.17  HD
ATOM     66 2HH1 ARG E1022     -49.331  35.434   6.570  1.00 48.69 LIG 0.17  HD
ATOM     67 2HH2 ARG E1022     -51.226  34.781   5.492  1.00 32.20 LIG 0.17  HD
ATOM     68 1HH2 ARG E1022     -51.507  33.335   5.268  1.00 32.20 LIG 0.17  HD
ATOM     69 HE   ARG E1022     -50.064  31.775   6.034  1.00 55.98 LIG 0.18  HD
ENDBRANCH 60 61
ENDBRANCH 59 60
ENDBRANCH 58 59
ENDBRANCH 47 58
ENDBRANCH 44 47
ENDBRANCH 42 43
BRANCH 42 70
ATOM     70  CB  ILE E1023     -51.804  29.129   5.222  1.00 38.78 LIG 0.01  C 
ATOM     71  CG2 ILE E1023     -52.602  30.037   6.170  1.00 39.01 LIG 0.01  C 
BRANCH 70 72
ATOM     72  CG1 ILE E1023     -50.900  29.963   4.267  1.00 39.61 LIG 0.00  C 
ATOM     73  CD1 ILE E1023     -51.026  29.700   2.786  1.00 43.21 LIG 0.01  C 
ENDBRANCH 70 72
ENDBRANCH 42 70
ENDBRANCH 1 42
TORSDOF 26
ENDMDL
MODEL 39
USER: ADFR SOLUTION from run 55
USER: SCORE 22.185281 LL:  -5.640 LR: -17.792 RR:   0.000 FEB: -10.036
USER: RMSD 13.040589
USER: SEED 54
USER: STATUS no improvement in best in 8 clusters for 5 generations
USER: GENES 28
USER: genes 0 Translation |==|  0.48984 0.56412 0.52049
USER: genes 1 Rotation |==|  0.82404 0.84815 0.35358 0.54851
USER: genes 2 Torsion [N]-CA--C-[O] |==|  0.30822
USER: genes 3 Torsion [C]-N--CA-[CB] |==|  0.55499
USER: genes 4 Torsion [N]-CA--C-[N] |==|  0.47025
USER: genes 5 Torsion [C]-N--CA-[C] |==|  0.61370
USER: genes 6 Torsion [N]-CA--CB-[CG] |==|  0.48423
USER: genes 7 Torsion [CA]-CB--CG-[CD1] |==|  0.17116
USER: genes 8 Torsion [N]-CA--C-[N] |==|  0.31701
USER: genes 9 Torsion [C]-N--CA-[C] |==|  0.73032
USER: genes 10 Torsion [N]-CA--CB-[CG] |==|  0.22334
USER: genes 11 Torsion [CA]-CB--CG-[OD1] |==|  0.76006
USER: genes 12 Torsion [N]-CA--C-[O] |==|  0.06218
USER: genes 13 Torsion [N]-CA--CB-[CG2] |==|  0.69360
USER: genes 14 Torsion [CA]-CB--CG1-[CD1] |==|  0.71913
USER: genes 15 Torsion [N]-C--CA-[N] |==|  0.27248
USER: genes 16 Torsion [C]-CA--N-[C] |==|  0.59812
USER: genes 17 Torsion [N]-C--CA-[N] |==|  0.90490
USER: genes 18 Torsion [C]-CA--N-[C] |==|  0.68287
USER: genes 19 Torsion [N]-C--CA-[N] |==|  0.38125
USER: genes 20 Torsion [C]-CA--CB-[CG1] |==|  0.09906
USER: genes 21 Torsion [CA]-CB--CG1-[CD1] |==|  0.54199
USER: genes 22 Torsion [C]-CA--CB-[CG] |==|  0.52186
USER: genes 23 Torsion [CA]-CB--CG-[CD] |==|  0.58188
USER: genes 24 Torsion [CB]-CG--CD-[NE] |==|  0.07318
USER: genes 25 Torsion [CG]-CD--NE-[CZ] |==|  0.59179
USER: genes 26 Torsion [C]-CA--CB-[CG1] |==|  0.61135
USER: genes 27 Torsion [CA]-CB--CG1-[CD1] |==|  0.52462
ROOT
ATOM      1  C   ILE E1023     -48.508  26.521   1.042  1.00 40.02 LIG 0.24  C 
ATOM      2 O    ILE E1023     -47.289  26.673   0.875  1.00 38.38 LIG-0.27  OA
ATOM      3  N   PRO E1024     -49.118  25.311   0.974  1.00 37.38 LIG-0.34  N 
ATOM      4  CA  PRO E1024     -48.344  24.136   0.550  1.00 36.67 LIG 0.18  C 
ATOM      5  CB  PRO E1024     -49.234  22.960   0.946  1.00 38.74 LIG 0.04  C 
ATOM      6  CG  PRO E1024     -50.615  23.496   0.896  1.00 43.33 LIG 0.02  C 
ATOM      7  CD  PRO E1024     -50.551  24.975   1.147  1.00 39.42 LIG 0.13  C 
ENDROOT
BRANCH 4 8
ATOM      8  C   PRO E1024     -48.127  24.205  -0.957  1.00 39.60 LIG 0.24  C 
ATOM      9 O    PRO E1024     -46.994  24.410  -1.389  1.00 37.18 LIG-0.27  OA
ATOM     10  N   ILE E1025     -49.207  23.996  -1.738  1.00 37.20 LIG-0.35  N 
ATOM     11 H    ILE E1025     -49.983  23.846  -1.400  1.00 37.20 LIG 0.16  HD
BRANCH 10 12
ATOM     12  CA  ILE E1025     -49.235  23.991  -3.207  1.00 37.42 LIG 0.18  C 
BRANCH 12 13
ATOM     13  C   ILE E1025     -48.446  25.172  -3.768  1.00 40.88 LIG 0.24  C 
ATOM     14 O    ILE E1025     -48.249  26.152  -3.048  1.00 40.29 LIG-0.27  OA
ATOM     15  N   PHE E1026     -48.191  25.188  -5.091  1.00 36.23 LIG-0.35  N 
ATOM     16 H    PHE E1026     -48.305  24.515  -5.614  1.00 36.23 LIG 0.16  HD
BRANCH 15 17
ATOM     17  CA  PHE E1026     -47.680  26.398  -5.749  1.00 36.58 LIG 0.18  C 
BRANCH 17 18
ATOM     18  CB  PHE E1026     -46.165  26.348  -5.921  1.00 38.58 LIG 0.07  C 
BRANCH 18 19
ATOM     19  CG  PHE E1026     -45.639  27.510  -6.711  1.00 40.24 LIG-0.06  A 
ATOM     20  CD1 PHE E1026     -45.798  28.801  -6.255  1.00 42.20 LIG 0.01  A 
ATOM     21  CE1 PHE E1026     -45.322  29.873  -6.990  1.00 42.54 LIG 0.00  A 
ATOM     22  CZ  PHE E1026     -44.685  29.660  -8.184  1.00 41.81 LIG 0.00  A 
ATOM     23  CE2 PHE E1026     -44.521  28.387  -8.661  1.00 44.36 LIG 0.00  A 
ATOM     24  CD2 PHE E1026     -45.001  27.312  -7.930  1.00 42.30 LIG 0.01  A 
ENDBRANCH 18 19
ENDBRANCH 17 18
BRANCH 17 25
ATOM     25  C   PHE E1026     -48.349  26.605  -7.095  1.00 38.60 LIG 0.24  C 
ATOM     26  N   ASN E1027     -49.140  27.702  -7.204  1.00 38.80 LIG-0.35  N 
ATOM     27 H    ASN E1027     -49.277  28.238  -6.545  1.00 38.80 LIG 0.16  HD
ATOM     28 O    PHE E1026     -48.109  25.834  -8.022  1.00 31.59 LIG-0.27  OA
BRANCH 26 29
ATOM     29  CA  ASN E1027     -49.845  28.105  -8.427  1.00 74.37 LIG 0.17  C 
BRANCH 29 30
ATOM     30  CB  ASN E1027     -51.221  28.666  -8.086  1.00 75.17 LIG 0.14  C 
BRANCH 30 31
ATOM     31  CG  ASN E1027     -51.180  30.101  -7.625  1.00 99.64 LIG 0.22  C 
ATOM     32  ND2 ASN E1027     -51.356  31.048  -8.542  1.00 92.55 LIG-0.37  N 
ATOM     33 22HD ASN E1027     -51.493  30.831  -9.363  1.00 92.55 LIG 0.16  HD
ATOM     34 21HD ASN E1027     -51.332  31.878  -8.315  1.00 92.55 LIG 0.16  HD
ATOM     35 OD1  ASN E1027     -50.981  30.381  -6.441  1.00 94.01 LIG-0.27  OA
ENDBRANCH 30 31
ENDBRANCH 29 30
BRANCH 29 36
ATOM     36  C   ASN E1027     -49.037  29.163  -9.177  1.00103.37 LIG 0.22  C 
ATOM     37 O    ASN E1027     -47.827  29.265  -8.994  1.00 69.20 LIG-0.29  OA
ENDBRANCH 29 36
ENDBRANCH 26 29
ENDBRANCH 17 25
ENDBRANCH 15 17
ENDBRANCH 12 13
BRANCH 12 38
ATOM     38  CB  ILE E1025     -50.736  24.222  -3.680  1.00 40.50 LIG 0.01  C 
ATOM     39  CG2 ILE E1025     -51.335  22.959  -4.313  1.00 43.95 LIG 0.01  C 
BRANCH 38 40
ATOM     40  CG1 ILE E1025     -51.642  24.757  -2.571  1.00 41.58 LIG 0.00  C 
ATOM     41  CD1 ILE E1025     -52.573  23.600  -1.908  1.00 52.05 LIG 0.01  C 
ENDBRANCH 38 40
ENDBRANCH 12 38
ENDBRANCH 10 12
ENDBRANCH 4 8
BRANCH 1 42
ATOM     42  CA  ILE E1023     -49.339  27.728   1.439  1.00 36.06 LIG 0.18  C 
BRANCH 42 43
ATOM     43  N   ILE E1023     -49.103  27.950   2.879  1.00 37.96 LIG-0.35  N 
ATOM     44  C   ARG E1022     -50.062  28.393   3.720  1.00 45.42 LIG 0.24  C 
ATOM     45 O    ARG E1022     -51.187  28.721   3.344  1.00 45.23 LIG-0.27  OA
ATOM     46 H    ILE E1023     -48.300  27.772   3.130  1.00 37.96 LIG 0.16  HD
BRANCH 44 47
ATOM     47  CA  ARG E1022     -49.710  28.564   5.198  1.00 45.59 LIG 0.18  C 
BRANCH 47 48
ATOM     48  N   ARG E1022     -48.748  27.561   5.685  1.00 48.30 LIG-0.35  N 
ATOM     49 H    ARG E1022     -47.966  27.619   5.333  1.00 48.30 LIG 0.16  HD
ATOM     50  C   ILE E1021     -49.093  26.638   6.611  1.00 57.51 LIG 0.26  C 
ATOM     51 O    ILE E1021     -50.225  26.578   7.107  1.00 59.03 LIG-0.27  OA
BRANCH 50 52
ATOM     52  CA  ILE E1021     -48.020  25.635   7.068  1.00 57.59 LIG 0.40  C 
ATOM     53  N   ILE E1021     -48.107  25.487   8.517  1.00 58.96 LIG 0.61  N 
BRANCH 52 54
ATOM     54  CB  ILE E1021     -48.216  24.223   6.450  1.00 60.58 LIG 0.03  C 
ATOM     55  CG2 ILE E1021     -49.117  23.326   7.295  1.00 61.37 LIG 0.01  C 
BRANCH 54 56
ATOM     56  CG1 ILE E1021     -48.752  24.331   5.001  1.00 60.59 LIG 0.00  C 
ATOM     57  CD1 ILE E1021     -49.291  23.047   4.491  1.00 60.15 LIG 0.01  C 
ENDBRANCH 54 56
ENDBRANCH 52 54
ENDBRANCH 50 52
ENDBRANCH 47 48
BRANCH 47 58
ATOM     58  CB  ARG E1022     -49.206  29.996   5.418  1.00 44.33 LIG 0.04  C 
BRANCH 58 59
ATOM     59  CG  ARG E1022     -48.646  30.226   6.817  1.00 47.73 LIG 0.02  C 
BRANCH 59 60
ATOM     60  CD  ARG E1022     -48.807  31.654   7.294  1.00 47.87 LIG 0.14  C 
BRANCH 60 61
ATOM     61  NE  ARG E1022     -49.947  32.293   6.637  1.00 55.98 LIG-0.23  N 
ATOM     62  CZ  ARG E1022     -50.046  33.578   6.308  1.00 56.00 LIG 0.67  C 
ATOM     63  NH1 ARG E1022     -49.044  34.417   6.546  1.00 48.69 LIG-0.23  N 
ATOM     64  NH2 ARG E1022     -51.137  34.030   5.708  1.00 32.20 LIG-0.23  N 
ATOM     65 1HH1 ARG E1022     -48.322  34.129   6.916  1.00 48.69 LIG 0.17  HD
ATOM     66 2HH1 ARG E1022     -49.116  35.246   6.331  1.00 48.69 LIG 0.17  HD
ATOM     67 2HH2 ARG E1022     -51.198  34.861   5.497  1.00 32.20 LIG 0.17  HD
ATOM     68 1HH2 ARG E1022     -51.784  33.492   5.529  1.00 32.20 LIG 0.17  HD
ATOM     69 HE   ARG E1022     -50.617  31.789   6.445  1.00 55.98 LIG 0.18  HD
ENDBRANCH 60 61
ENDBRANCH 59 60
ENDBRANCH 58 59
ENDBRANCH 47 58
ENDBRANCH 44 47
ENDBRANCH 42 43
BRANCH 42 70
ATOM     70  CB  ILE E1023     -48.932  28.953   0.555  1.00 38.78 LIG 0.01  C 
ATOM     71  CG2 ILE E1023     -49.856  29.070  -0.667  1.00 39.01 LIG 0.01  C 
BRANCH 70 72
ATOM     72  CG1 ILE E1023     -48.867  30.293   1.346  1.00 39.61 LIG 0.00  C 
ATOM     73  CD1 ILE E1023     -48.686  31.562   0.550  1.00 43.21 LIG 0.01  C 
ENDBRANCH 70 72
ENDBRANCH 42 70
ENDBRANCH 1 42
TORSDOF 26
ENDMDL
MODEL 40
USER: ADFR SOLUTION from run 82
USER: SCORE 22.876455 LL:  -6.891 LR: -17.765 RR:   0.000 FEB: -10.009
USER: RMSD 12.173349
USER: SEED 81
USER: STATUS no improvement in best in 5 clusters for 5 generations
USER: GENES 28
USER: genes 0 Translation |==|  0.44644 0.61155 0.55067
USER: genes 1 Rotation |==|  0.82444 0.86073 0.39957 0.56726
USER: genes 2 Torsion [N]-CA--C-[O] |==|  0.86061
USER: genes 3 Torsion [C]-N--CA-[CB] |==|  0.60000
USER: genes 4 Torsion [N]-CA--C-[N] |==|  0.85985
USER: genes 5 Torsion [C]-N--CA-[C] |==|  0.63735
USER: genes 6 Torsion [N]-CA--CB-[CG] |==|  0.05192
USER: genes 7 Torsion [CA]-CB--CG-[CD1] |==|  0.16924
USER: genes 8 Torsion [N]-CA--C-[N] |==|  0.45929
USER: genes 9 Torsion [C]-N--CA-[C] |==|  0.63910
USER: genes 10 Torsion [N]-CA--CB-[CG] |==|  0.85275
USER: genes 11 Torsion [CA]-CB--CG-[OD1] |==|  0.70786
USER: genes 12 Torsion [N]-CA--C-[O] |==|  0.01457
USER: genes 13 Torsion [N]-CA--CB-[CG2] |==|  0.08667
USER: genes 14 Torsion [CA]-CB--CG1-[CD1] |==|  0.19956
USER: genes 15 Torsion [N]-C--CA-[N] |==|  0.31696
USER: genes 16 Torsion [C]-CA--N-[C] |==|  0.58869
USER: genes 17 Torsion [N]-C--CA-[N] |==|  0.83604
USER: genes 18 Torsion [C]-CA--N-[C] |==|  0.20071
USER: genes 19 Torsion [N]-C--CA-[N] |==|  0.93188
USER: genes 20 Torsion [C]-CA--CB-[CG1] |==|  0.91183
USER: genes 21 Torsion [CA]-CB--CG1-[CD1] |==|  0.45505
USER: genes 22 Torsion [C]-CA--CB-[CG] |==|  0.12370
USER: genes 23 Torsion [CA]-CB--CG-[CD] |==|  0.29989
USER: genes 24 Torsion [CB]-CG--CD-[NE] |==|  0.71160
USER: genes 25 Torsion [CG]-CD--NE-[CZ] |==|  0.51160
USER: genes 26 Torsion [C]-CA--CB-[CG1] |==|  0.06875
USER: genes 27 Torsion [CA]-CB--CG1-[CD1] |==|  0.72473
ROOT
ATOM      1  C   ILE E1023     -49.159  27.624   1.902  1.00 40.02 LIG 0.24  C 
ATOM      2 O    ILE E1023     -47.945  27.869   1.958  1.00 38.38 LIG-0.27  OA
ATOM      3  N   PRO E1024     -49.653  26.390   1.625  1.00 37.38 LIG-0.34  N 
ATOM      4  CA  PRO E1024     -48.730  25.315   1.237  1.00 36.67 LIG 0.18  C 
ATOM      5  CB  PRO E1024     -49.577  24.052   1.371  1.00 38.74 LIG 0.04  C 
ATOM      6  CG  PRO E1024     -50.969  24.501   1.136  1.00 43.33 LIG 0.02  C 
ATOM      7  CD  PRO E1024     -51.063  25.949   1.523  1.00 39.42 LIG 0.13  C 
ENDROOT
BRANCH 4 8
ATOM      8  C   PRO E1024     -48.277  25.547  -0.199  1.00 39.60 LIG 0.24  C 
ATOM      9 O    PRO E1024     -49.123  25.759  -1.066  1.00 37.18 LIG-0.27  OA
ATOM     10  N   ILE E1025     -46.947  25.542  -0.427  1.00 37.20 LIG-0.35  N 
ATOM     11 H    ILE E1025     -46.384  25.399   0.206  1.00 37.20 LIG 0.16  HD
BRANCH 10 12
ATOM     12  CA  ILE E1025     -46.281  25.765  -1.718  1.00 37.42 LIG 0.18  C 
BRANCH 12 13
ATOM     13  C   ILE E1025     -47.174  25.319  -2.873  1.00 40.88 LIG 0.24  C 
ATOM     14 O    ILE E1025     -47.532  26.152  -3.706  1.00 40.29 LIG-0.27  OA
ATOM     15  N   PHE E1026     -47.713  24.085  -2.811  1.00 36.23 LIG-0.35  N 
ATOM     16 H    PHE E1026     -47.474  23.479  -2.250  1.00 36.23 LIG 0.16  HD
BRANCH 15 17
ATOM     17  CA  PHE E1026     -48.783  23.679  -3.733  1.00 36.58 LIG 0.18  C 
BRANCH 17 18
ATOM     18  CB  PHE E1026     -48.273  22.713  -4.797  1.00 38.58 LIG 0.07  C 
BRANCH 18 19
ATOM     19  CG  PHE E1026     -46.975  22.066  -4.410  1.00 40.24 LIG-0.06  A 
ATOM     20  CD1 PHE E1026     -46.890  21.281  -3.279  1.00 42.20 LIG 0.01  A 
ATOM     21  CE1 PHE E1026     -45.690  20.695  -2.917  1.00 42.54 LIG 0.00  A 
ATOM     22  CZ  PHE E1026     -44.570  20.887  -3.683  1.00 41.81 LIG 0.00  A 
ATOM     23  CE2 PHE E1026     -44.629  21.668  -4.806  1.00 44.36 LIG 0.00  A 
ATOM     24  CD2 PHE E1026     -45.828  22.262  -5.168  1.00 42.30 LIG 0.01  A 
ENDBRANCH 18 19
ENDBRANCH 17 18
BRANCH 17 25
ATOM     25  C   PHE E1026     -49.941  23.055  -2.976  1.00 38.60 LIG 0.24  C 
ATOM     26  N   ASN E1027     -51.102  22.925  -3.666  1.00 38.80 LIG-0.35  N 
ATOM     27 H    ASN E1027     -51.189  23.200  -4.476  1.00 38.80 LIG 0.16  HD
ATOM     28 O    PHE E1026     -49.773  22.648  -1.829  1.00 31.59 LIG-0.27  OA
BRANCH 26 29
ATOM     29  CA  ASN E1027     -52.325  22.314  -3.133  1.00 74.37 LIG 0.17  C 
BRANCH 29 30
ATOM     30  CB  ASN E1027     -53.390  23.379  -2.895  1.00 75.17 LIG 0.14  C 
BRANCH 30 31
ATOM     31  CG  ASN E1027     -52.903  24.527  -2.045  1.00 99.64 LIG 0.22  C 
ATOM     32  ND2 ASN E1027     -52.080  25.405  -2.610  1.00 92.55 LIG-0.37  N 
ATOM     33 22HD ASN E1027     -51.849  25.310  -3.433  1.00 92.55 LIG 0.16  HD
ATOM     34 21HD ASN E1027     -51.777  26.068  -2.153  1.00 92.55 LIG 0.16  HD
ATOM     35 OD1  ASN E1027     -53.253  24.636  -0.868  1.00 94.01 LIG-0.27  OA
ENDBRANCH 30 31
ENDBRANCH 29 30
BRANCH 29 36
ATOM     36  C   ASN E1027     -52.862  21.270  -4.111  1.00103.37 LIG 0.22  C 
ATOM     37 O    ASN E1027     -52.226  20.980  -5.120  1.00 69.20 LIG-0.29  OA
ENDBRANCH 29 36
ENDBRANCH 26 29
ENDBRANCH 17 25
ENDBRANCH 15 17
ENDBRANCH 12 13
BRANCH 12 38
ATOM     38  CB  ILE E1025     -44.998  24.826  -1.788  1.00 40.50 LIG 0.01  C 
ATOM     39  CG2 ILE E1025     -45.204  23.521  -1.007  1.00 43.95 LIG 0.01  C 
BRANCH 38 40
ATOM     40  CG1 ILE E1025     -44.540  24.538  -3.218  1.00 41.58 LIG 0.00  C 
ATOM     41  CD1 ILE E1025     -43.859  25.829  -3.932  1.00 52.05 LIG 0.01  C 
ENDBRANCH 38 40
ENDBRANCH 12 38
ENDBRANCH 10 12
ENDBRANCH 4 8
BRANCH 1 42
ATOM     42  CA  ILE E1023     -50.136  28.731   2.258  1.00 36.06 LIG 0.18  C 
BRANCH 42 43
ATOM     43  N   ILE E1023     -49.875  29.091   3.664  1.00 37.96 LIG-0.35  N 
ATOM     44  C   ARG E1022     -50.842  29.522   4.503  1.00 45.42 LIG 0.24  C 
ATOM     45 O    ARG E1022     -52.002  29.723   4.145  1.00 45.23 LIG-0.27  OA
ATOM     46 H    ILE E1023     -49.053  29.001   3.899  1.00 37.96 LIG 0.16  HD
BRANCH 44 47
ATOM     47  CA  ARG E1022     -50.460  29.844   5.948  1.00 45.59 LIG 0.18  C 
BRANCH 47 48
ATOM     48  N   ARG E1022     -49.880  28.696   6.664  1.00 48.30 LIG-0.35  N 
ATOM     49 H    ARG E1022     -50.397  28.349   7.258  1.00 48.30 LIG 0.16  HD
ATOM     50  C   ILE E1021     -48.636  28.245   6.391  1.00 57.51 LIG 0.26  C 
ATOM     51 O    ILE E1021     -47.912  28.758   5.529  1.00 59.03 LIG-0.27  OA
BRANCH 50 52
ATOM     52  CA  ILE E1021     -48.115  27.033   7.183  1.00 57.59 LIG 0.40  C 
ATOM     53  N   ILE E1021     -48.826  26.965   8.456  1.00 58.96 LIG 0.61  N 
BRANCH 52 54
ATOM     54  CB  ILE E1021     -48.359  25.685   6.448  1.00 60.58 LIG 0.03  C 
ATOM     55  CG2 ILE E1021     -48.392  24.491   7.398  1.00 61.37 LIG 0.01  C 
BRANCH 54 56
ATOM     56  CG1 ILE E1021     -49.655  25.751   5.604  1.00 60.59 LIG 0.00  C 
ATOM     57  CD1 ILE E1021     -49.742  24.664   4.599  1.00 60.15 LIG 0.01  C 
ENDBRANCH 54 56
ENDBRANCH 52 54
ENDBRANCH 50 52
ENDBRANCH 47 48
BRANCH 47 58
ATOM     58  CB  ARG E1022     -49.518  31.054   5.947  1.00 44.33 LIG 0.04  C 
BRANCH 58 59
ATOM     59  CG  ARG E1022     -49.978  32.172   5.020  1.00 47.73 LIG 0.02  C 
BRANCH 59 60
ATOM     60  CD  ARG E1022     -50.506  33.381   5.763  1.00 47.87 LIG 0.14  C 
BRANCH 60 61
ATOM     61  NE  ARG E1022     -51.967  33.423   5.712  1.00 55.98 LIG-0.23  N 
ATOM     62  CZ  ARG E1022     -52.744  34.389   6.194  1.00 56.00 LIG 0.67  C 
ATOM     63  NH1 ARG E1022     -52.211  35.461   6.769  1.00 48.69 LIG-0.23  N 
ATOM     64  NH2 ARG E1022     -54.061  34.307   6.076  1.00 32.20 LIG-0.23  N 
ATOM     65 1HH1 ARG E1022     -51.356  35.535   6.832  1.00 48.69 LIG 0.17  HD
ATOM     66 2HH1 ARG E1022     -52.720  36.081   7.078  1.00 48.69 LIG 0.17  HD
ATOM     67 2HH2 ARG E1022     -54.560  34.933   6.389  1.00 32.20 LIG 0.17  HD
ATOM     68 1HH2 ARG E1022     -54.416  33.627   5.686  1.00 32.20 LIG 0.17  HD
ATOM     69 HE   ARG E1022     -52.361  32.759   5.333  1.00 55.98 LIG 0.18  HD
ENDBRANCH 60 61
ENDBRANCH 59 60
ENDBRANCH 58 59
ENDBRANCH 47 58
ENDBRANCH 44 47
ENDBRANCH 42 43
BRANCH 42 70
ATOM     70  CB  ILE E1023     -49.944  29.930   1.271  1.00 38.78 LIG 0.01  C 
ATOM     71  CG2 ILE E1023     -49.124  31.048   1.931  1.00 39.01 LIG 0.01  C 
BRANCH 70 72
ATOM     72  CG1 ILE E1023     -49.331  29.511  -0.099  1.00 39.61 LIG 0.00  C 
ATOM     73  CD1 ILE E1023     -47.851  29.727  -0.292  1.00 43.21 LIG 0.01  C 
ENDBRANCH 70 72
ENDBRANCH 42 70
ENDBRANCH 1 42
TORSDOF 26
ENDMDL
MODEL 41
USER: ADFR SOLUTION from run 76
USER: SCORE 23.133457 LL:  -6.227 LR: -17.768 RR:   0.000 FEB: -10.013
USER: RMSD 4.122489
USER: SEED 75
USER: STATUS no improvement in best in 9 clusters for 5 generations
USER: GENES 28
USER: genes 0 Translation |==|  0.50831 0.46751 0.41545
USER: genes 1 Rotation |==|  0.44453 0.48536 0.52411 0.99611
USER: genes 2 Torsion [N]-CA--C-[O] |==|  0.86839
USER: genes 3 Torsion [C]-N--CA-[CB] |==|  0.50046
USER: genes 4 Torsion [N]-CA--C-[N] |==|  0.39389
USER: genes 5 Torsion [C]-N--CA-[C] |==|  0.18888
USER: genes 6 Torsion [N]-CA--CB-[CG] |==|  0.71612
USER: genes 7 Torsion [CA]-CB--CG-[CD1] |==|  0.38135
USER: genes 8 Torsion [N]-CA--C-[N] |==|  0.06860
USER: genes 9 Torsion [C]-N--CA-[C] |==|  0.64585
USER: genes 10 Torsion [N]-CA--CB-[CG] |==|  0.34766
USER: genes 11 Torsion [CA]-CB--CG-[OD1] |==|  0.28833
USER: genes 12 Torsion [N]-CA--C-[O] |==|  0.18933
USER: genes 13 Torsion [N]-CA--CB-[CG2] |==|  0.36167
USER: genes 14 Torsion [CA]-CB--CG1-[CD1] |==|  0.61704
USER: genes 15 Torsion [N]-C--CA-[N] |==|  0.36311
USER: genes 16 Torsion [C]-CA--N-[C] |==|  0.82898
USER: genes 17 Torsion [N]-C--CA-[N] |==|  0.91922
USER: genes 18 Torsion [C]-CA--N-[C] |==|  0.82180
USER: genes 19 Torsion [N]-C--CA-[N] |==|  0.43364
USER: genes 20 Torsion [C]-CA--CB-[CG1] |==|  0.99869
USER: genes 21 Torsion [CA]-CB--CG1-[CD1] |==|  0.46490
USER: genes 22 Torsion [C]-CA--CB-[CG] |==|  0.26044
USER: genes 23 Torsion [CA]-CB--CG-[CD] |==|  0.47501
USER: genes 24 Torsion [CB]-CG--CD-[NE] |==|  0.34103
USER: genes 25 Torsion [CG]-CD--NE-[CZ] |==|  0.19476
USER: genes 26 Torsion [C]-CA--CB-[CG1] |==|  0.38368
USER: genes 27 Torsion [CA]-CB--CG1-[CD1] |==|  0.16431
ROOT
ATOM      1  C   ILE E1023     -48.231  24.275  -1.952  1.00 40.02 LIG 0.24  C 
ATOM      2 O    ILE E1023     -48.280  25.405  -2.458  1.00 38.38 LIG-0.27  OA
ATOM      3  N   PRO E1024     -49.137  23.831  -1.044  1.00 37.38 LIG-0.34  N 
ATOM      4  CA  PRO E1024     -50.148  24.761  -0.521  1.00 36.67 LIG 0.18  C 
ATOM      5  CB  PRO E1024     -51.164  23.841   0.151  1.00 38.74 LIG 0.04  C 
ATOM      6  CG  PRO E1024     -50.385  22.651   0.566  1.00 43.33 LIG 0.02  C 
ATOM      7  CD  PRO E1024     -49.207  22.521  -0.357  1.00 39.42 LIG 0.13  C 
ENDROOT
BRANCH 4 8
ATOM      8  C   PRO E1024     -49.484  25.702   0.477  1.00 39.60 LIG 0.24  C 
ATOM      9 O    PRO E1024     -48.748  25.233   1.343  1.00 37.18 LIG-0.27  OA
ATOM     10  N   ILE E1025     -49.722  27.021   0.322  1.00 37.20 LIG-0.35  N 
ATOM     11 H    ILE E1025     -50.236  27.314  -0.303  1.00 37.20 LIG 0.16  HD
BRANCH 10 12
ATOM     12  CA  ILE E1025     -49.175  28.110   1.143  1.00 37.42 LIG 0.18  C 
BRANCH 12 13
ATOM     13  C   ILE E1025     -49.686  28.014   2.578  1.00 40.88 LIG 0.24  C 
ATOM     14 O    ILE E1025     -50.894  27.865   2.772  1.00 40.29 LIG-0.27  OA
ATOM     15  N   PHE E1026     -48.829  28.316   3.574  1.00 36.23 LIG-0.35  N 
ATOM     16 H    PHE E1026     -47.981  28.412   3.470  1.00 36.23 LIG 0.16  HD
BRANCH 15 17
ATOM     17  CA  PHE E1026     -49.305  28.508   4.950  1.00 36.58 LIG 0.18  C 
BRANCH 17 18
ATOM     18  CB  PHE E1026     -50.401  29.566   5.025  1.00 38.58 LIG 0.07  C 
BRANCH 18 19
ATOM     19  CG  PHE E1026     -49.894  30.883   5.533  1.00 40.24 LIG-0.06  A 
ATOM     20  CD1 PHE E1026     -50.288  32.064   4.942  1.00 42.20 LIG 0.01  A 
ATOM     21  CE1 PHE E1026     -49.811  33.278   5.405  1.00 42.54 LIG 0.00  A 
ATOM     22  CZ  PHE E1026     -48.938  33.318   6.461  1.00 41.81 LIG 0.00  A 
ATOM     23  CE2 PHE E1026     -48.527  32.156   7.058  1.00 44.36 LIG 0.00  A 
ATOM     24  CD2 PHE E1026     -48.999  30.939   6.594  1.00 42.30 LIG 0.01  A 
ENDBRANCH 18 19
ENDBRANCH 17 18
BRANCH 17 25
ATOM     25  C   PHE E1026     -49.803  27.200   5.537  1.00 38.60 LIG 0.24  C 
ATOM     26  N   ASN E1027     -49.286  26.069   4.995  1.00 38.80 LIG-0.35  N 
ATOM     27 H    ASN E1027     -48.727  26.086   4.341  1.00 38.80 LIG 0.16  HD
ATOM     28 O    PHE E1026     -50.580  27.214   6.489  1.00 31.59 LIG-0.27  OA
BRANCH 26 29
ATOM     29  CA  ASN E1027     -49.604  24.708   5.442  1.00 74.37 LIG 0.17  C 
BRANCH 29 30
ATOM     30  CB  ASN E1027     -50.406  23.972   4.373  1.00 75.17 LIG 0.14  C 
BRANCH 30 31
ATOM     31  CG  ASN E1027     -49.784  22.661   3.961  1.00 99.64 LIG 0.22  C 
ATOM     32  ND2 ASN E1027     -48.731  22.707   3.149  1.00 92.55 LIG-0.37  N 
ATOM     33 22HD ASN E1027     -48.426  23.466   2.884  1.00 92.55 LIG 0.16  HD
ATOM     34 21HD ASN E1027     -48.356  21.978   2.889  1.00 92.55 LIG 0.16  HD
ATOM     35 OD1  ASN E1027     -50.244  21.589   4.358  1.00 94.01 LIG-0.27  OA
ENDBRANCH 30 31
ENDBRANCH 29 30
BRANCH 29 36
ATOM     36  C   ASN E1027     -48.319  23.935   5.734  1.00103.37 LIG 0.22  C 
ATOM     37 O    ASN E1027     -47.608  24.249   6.685  1.00 69.20 LIG-0.29  OA
ENDBRANCH 29 36
ENDBRANCH 26 29
ENDBRANCH 17 25
ENDBRANCH 15 17
ENDBRANCH 12 13
BRANCH 12 38
ATOM     38  CB  ILE E1025     -49.739  29.489   0.584  1.00 40.50 LIG 0.01  C 
ATOM     39  CG2 ILE E1025     -50.326  30.360   1.704  1.00 43.95 LIG 0.01  C 
BRANCH 38 40
ATOM     40  CG1 ILE E1025     -48.713  30.274  -0.233  1.00 41.58 LIG 0.00  C 
ATOM     41  CD1 ILE E1025     -48.731  31.865   0.098  1.00 52.05 LIG 0.01  C 
ENDBRANCH 38 40
ENDBRANCH 12 38
ENDBRANCH 10 12
ENDBRANCH 4 8
BRANCH 1 42
ATOM     42  CA  ILE E1023     -47.169  23.308  -2.445  1.00 36.06 LIG 0.18  C 
BRANCH 42 43
ATOM     43  N   ILE E1023     -47.170  23.392  -3.918  1.00 37.96 LIG-0.35  N 
ATOM     44  C   ARG E1022     -48.245  23.074  -4.670  1.00 45.42 LIG 0.24  C 
ATOM     45 O    ARG E1022     -49.285  22.616  -4.196  1.00 45.23 LIG-0.27  OA
ATOM     46 H    ILE E1023     -46.424  23.662  -4.251  1.00 37.96 LIG 0.16  HD
BRANCH 44 47
ATOM     47  CA  ARG E1022     -48.141  23.222  -6.188  1.00 45.59 LIG 0.18  C 
BRANCH 47 48
ATOM     48  N   ARG E1022     -47.201  24.277  -6.604  1.00 48.30 LIG-0.35  N 
ATOM     49 H    ARG E1022     -46.519  23.992  -7.042  1.00 48.30 LIG 0.16  HD
ATOM     50  C   ILE E1021     -47.419  25.578  -6.309  1.00 57.51 LIG 0.26  C 
ATOM     51 O    ILE E1021     -48.412  25.965  -5.681  1.00 59.03 LIG-0.27  OA
BRANCH 50 52
ATOM     52  CA  ILE E1021     -46.389  26.613  -6.793  1.00 57.59 LIG 0.40  C 
ATOM     53  N   ILE E1021     -47.044  27.913  -6.893  1.00 58.96 LIG 0.61  N 
BRANCH 52 54
ATOM     54  CB  ILE E1021     -45.195  26.776  -5.811  1.00 60.58 LIG 0.03  C 
ATOM     55  CG2 ILE E1021     -44.983  28.221  -5.371  1.00 61.37 LIG 0.01  C 
BRANCH 54 56
ATOM     56  CG1 ILE E1021     -45.368  25.847  -4.583  1.00 60.59 LIG 0.00  C 
ATOM     57  CD1 ILE E1021     -44.133  25.737  -3.770  1.00 60.15 LIG 0.01  C 
ENDBRANCH 54 56
ENDBRANCH 52 54
ENDBRANCH 50 52
ENDBRANCH 47 48
BRANCH 47 58
ATOM     58  CB  ARG E1022     -47.774  21.859  -6.788  1.00 44.33 LIG 0.04  C 
BRANCH 58 59
ATOM     59  CG  ARG E1022     -48.988  21.053  -7.230  1.00 47.73 LIG 0.02  C 
BRANCH 59 60
ATOM     60  CD  ARG E1022     -48.623  19.810  -8.015  1.00 47.87 LIG 0.14  C 
BRANCH 60 61
ATOM     61  NE  ARG E1022     -49.171  18.615  -7.375  1.00 55.98 LIG-0.23  N 
ATOM     62  CZ  ARG E1022     -50.455  18.275  -7.313  1.00 56.00 LIG 0.67  C 
ATOM     63  NH1 ARG E1022     -51.384  19.033  -7.886  1.00 48.69 LIG-0.23  N 
ATOM     64  NH2 ARG E1022     -50.820  17.156  -6.705  1.00 32.20 LIG-0.23  N 
ATOM     65 1HH1 ARG E1022     -51.156  19.751  -8.302  1.00 48.69 LIG 0.17  HD
ATOM     66 2HH1 ARG E1022     -52.212  18.806  -7.841  1.00 48.69 LIG 0.17  HD
ATOM     67 2HH2 ARG E1022     -51.651  16.939  -6.667  1.00 32.20 LIG 0.17  HD
ATOM     68 1HH2 ARG E1022     -50.226  16.646  -6.350  1.00 32.20 LIG 0.17  HD
ATOM     69 HE   ARG E1022     -48.608  18.080  -7.004  1.00 55.98 LIG 0.18  HD
ENDBRANCH 60 61
ENDBRANCH 59 60
ENDBRANCH 58 59
ENDBRANCH 47 58
ENDBRANCH 44 47
ENDBRANCH 42 43
BRANCH 42 70
ATOM     70  CB  ILE E1023     -45.789  23.685  -1.809  1.00 38.78 LIG 0.01  C 
ATOM     71  CG2 ILE E1023     -45.976  24.698  -0.670  1.00 39.01 LIG 0.01  C 
BRANCH 70 72
ATOM     72  CG1 ILE E1023     -44.967  22.448  -1.339  1.00 39.61 LIG 0.00  C 
ATOM     73  CD1 ILE E1023     -44.609  21.416  -2.379  1.00 43.21 LIG 0.01  C 
ENDBRANCH 70 72
ENDBRANCH 42 70
ENDBRANCH 1 42
TORSDOF 26
ENDMDL
MODEL 42
USER: ADFR SOLUTION from run 183
USER: SCORE 21.854359 LL:  -5.610 LR: -17.762 RR:   0.000 FEB: -10.006
USER: RMSD 4.886681
USER: SEED 182
USER: STATUS searching
USER: GENES 28
USER: genes 0 Translation |==|  0.63532 0.49500 0.35931
USER: genes 1 Rotation |==|  0.42100 0.60487 0.68987 0.94352
USER: genes 2 Torsion [N]-CA--C-[O] |==|  0.00342
USER: genes 3 Torsion [C]-N--CA-[CB] |==|  0.20799
USER: genes 4 Torsion [N]-CA--C-[N] |==|  0.86545
USER: genes 5 Torsion [C]-N--CA-[C] |==|  0.14746
USER: genes 6 Torsion [N]-CA--CB-[CG] |==|  0.86545
USER: genes 7 Torsion [CA]-CB--CG-[CD1] |==|  0.41347
USER: genes 8 Torsion [N]-CA--C-[N] |==|  0.67723
USER: genes 9 Torsion [C]-N--CA-[C] |==|  0.85014
USER: genes 10 Torsion [N]-CA--CB-[CG] |==|  0.14706
USER: genes 11 Torsion [CA]-CB--CG-[OD1] |==|  0.97450
USER: genes 12 Torsion [N]-CA--C-[O] |==|  0.25433
USER: genes 13 Torsion [N]-CA--CB-[CG2] |==|  0.12814
USER: genes 14 Torsion [CA]-CB--CG1-[CD1] |==|  0.70168
USER: genes 15 Torsion [N]-C--CA-[N] |==|  0.30647
USER: genes 16 Torsion [C]-CA--N-[C] |==|  0.74983
USER: genes 17 Torsion [N]-C--CA-[N] |==|  0.43338
USER: genes 18 Torsion [C]-CA--N-[C] |==|  0.62653
USER: genes 19 Torsion [N]-C--CA-[N] |==|  0.42118
USER: genes 20 Torsion [C]-CA--CB-[CG1] |==|  0.01235
USER: genes 21 Torsion [CA]-CB--CG1-[CD1] |==|  0.31552
USER: genes 22 Torsion [C]-CA--CB-[CG] |==|  0.40646
USER: genes 23 Torsion [CA]-CB--CG-[CD] |==|  0.21982
USER: genes 24 Torsion [CB]-CG--CD-[NE] |==|  0.17357
USER: genes 25 Torsion [CG]-CD--NE-[CZ] |==|  0.53261
USER: genes 26 Torsion [C]-CA--CB-[CG1] |==|  0.09702
USER: genes 27 Torsion [CA]-CB--CG1-[CD1] |==|  0.58275
ROOT
ATOM      1  C   ILE E1023     -46.326  24.914  -3.552  1.00 40.02 LIG 0.24  C 
ATOM      2 O    ILE E1023     -47.260  25.637  -3.930  1.00 38.38 LIG-0.27  OA
ATOM      3  N   PRO E1024     -46.266  24.374  -2.308  1.00 37.38 LIG-0.34  N 
ATOM      4  CA  PRO E1024     -47.269  24.760  -1.306  1.00 36.67 LIG 0.18  C 
ATOM      5  CB  PRO E1024     -47.101  23.709  -0.211  1.00 38.74 LIG 0.04  C 
ATOM      6  CG  PRO E1024     -45.684  23.287  -0.304  1.00 43.33 LIG 0.02  C 
ATOM      7  CD  PRO E1024     -45.224  23.503  -1.717  1.00 39.42 LIG 0.13  C 
ENDROOT
BRANCH 4 8
ATOM      8  C   PRO E1024     -46.951  26.162  -0.803  1.00 39.60 LIG 0.24  C 
ATOM      9 O    PRO E1024     -45.987  26.763  -1.276  1.00 37.18 LIG-0.27  OA
ATOM     10  N   ILE E1025     -47.784  26.682   0.122  1.00 37.20 LIG-0.35  N 
ATOM     11 H    ILE E1025     -48.455  26.236   0.423  1.00 37.20 LIG 0.16  HD
BRANCH 10 12
ATOM     12  CA  ILE E1025     -47.691  28.016   0.731  1.00 37.42 LIG 0.18  C 
BRANCH 12 13
ATOM     13  C   ILE E1025     -48.660  28.145   1.904  1.00 40.88 LIG 0.24  C 
ATOM     14 O    ILE E1025     -48.212  28.405   3.021  1.00 40.29 LIG-0.27  OA
ATOM     15  N   PHE E1026     -49.936  27.752   1.713  1.00 36.23 LIG-0.35  N 
ATOM     16 H    PHE E1026     -50.279  27.578   0.944  1.00 36.23 LIG 0.16  HD
BRANCH 15 17
ATOM     17  CA  PHE E1026     -50.855  27.592   2.847  1.00 36.58 LIG 0.18  C 
BRANCH 17 18
ATOM     18  CB  PHE E1026     -50.482  26.390   3.709  1.00 38.58 LIG 0.07  C 
BRANCH 18 19
ATOM     19  CG  PHE E1026     -50.242  25.152   2.896  1.00 40.24 LIG-0.06  A 
ATOM     20  CD1 PHE E1026     -49.335  24.202   3.312  1.00 42.20 LIG 0.01  A 
ATOM     21  CE1 PHE E1026     -49.106  23.066   2.554  1.00 42.54 LIG 0.00  A 
ATOM     22  CZ  PHE E1026     -49.783  22.874   1.379  1.00 41.81 LIG 0.00  A 
ATOM     23  CE2 PHE E1026     -50.683  23.809   0.942  1.00 44.36 LIG 0.00  A 
ATOM     24  CD2 PHE E1026     -50.911  24.950   1.695  1.00 42.30 LIG 0.01  A 
ENDBRANCH 18 19
ENDBRANCH 17 18
BRANCH 17 25
ATOM     25  C   PHE E1026     -50.892  28.849   3.695  1.00 38.60 LIG 0.24  C 
ATOM     26  N   ASN E1027     -50.442  28.722   4.969  1.00 38.80 LIG-0.35  N 
ATOM     27 H    ASN E1027     -50.174  27.970   5.289  1.00 38.80 LIG 0.16  HD
ATOM     28 O    PHE E1026     -51.255  29.912   3.197  1.00 31.59 LIG-0.27  OA
BRANCH 26 29
ATOM     29  CA  ASN E1027     -50.357  29.821   5.938  1.00 74.37 LIG 0.17  C 
BRANCH 29 30
ATOM     30  CB  ASN E1027     -49.690  29.343   7.224  1.00 75.17 LIG 0.14  C 
BRANCH 30 31
ATOM     31  CG  ASN E1027     -48.357  28.676   6.990  1.00 99.64 LIG 0.22  C 
ATOM     32  ND2 ASN E1027     -47.609  28.404   8.056  1.00 92.55 LIG-0.37  N 
ATOM     33 22HD ASN E1027     -47.894  28.602   8.842  1.00 92.55 LIG 0.16  HD
ATOM     34 21HD ASN E1027     -46.841  28.030   7.958  1.00 92.55 LIG 0.16  HD
ATOM     35 OD1  ASN E1027     -47.977  28.405   5.849  1.00 94.01 LIG-0.27  OA
ENDBRANCH 30 31
ENDBRANCH 29 30
BRANCH 29 36
ATOM     36  C   ASN E1027     -49.555  30.980   5.351  1.00103.37 LIG 0.22  C 
ATOM     37 O    ASN E1027     -50.123  31.883   4.743  1.00 69.20 LIG-0.29  OA
ENDBRANCH 29 36
ENDBRANCH 26 29
ENDBRANCH 17 25
ENDBRANCH 15 17
ENDBRANCH 12 13
BRANCH 12 38
ATOM     38  CB  ILE E1025     -48.178  29.089  -0.339  1.00 40.50 LIG 0.01  C 
ATOM     39  CG2 ILE E1025     -49.481  28.658  -1.026  1.00 43.95 LIG 0.01  C 
BRANCH 38 40
ATOM     40  CG1 ILE E1025     -48.308  30.499   0.238  1.00 41.58 LIG 0.00  C 
ATOM     41  CD1 ILE E1025     -49.856  30.961   0.424  1.00 52.05 LIG 0.01  C 
ENDBRANCH 38 40
ENDBRANCH 12 38
ENDBRANCH 10 12
ENDBRANCH 4 8
BRANCH 1 42
ATOM     42  CA  ILE E1023     -45.253  24.535  -4.557  1.00 36.06 LIG 0.18  C 
BRANCH 42 43
ATOM     43  N   ILE E1023     -45.908  23.697  -5.580  1.00 37.96 LIG-0.35  N 
ATOM     44  C   ARG E1022     -45.992  22.353  -5.484  1.00 45.42 LIG 0.24  C 
ATOM     45 O    ARG E1022     -45.464  21.710  -4.577  1.00 45.23 LIG-0.27  OA
ATOM     46 H    ILE E1023     -46.229  24.144  -6.241  1.00 37.96 LIG 0.16  HD
BRANCH 44 47
ATOM     47  CA  ARG E1022     -46.715  21.588  -6.593  1.00 45.59 LIG 0.18  C 
BRANCH 47 48
ATOM     48  N   ARG E1022     -46.287  20.183  -6.702  1.00 48.30 LIG-0.35  N 
ATOM     49 H    ARG E1022     -46.231  19.769  -5.951  1.00 48.30 LIG 0.16  HD
ATOM     50  C   ILE E1021     -46.011  19.617  -7.898  1.00 57.51 LIG 0.26  C 
ATOM     51 O    ILE E1021     -46.102  20.233  -8.967  1.00 59.03 LIG-0.27  OA
BRANCH 50 52
ATOM     52  CA  ILE E1021     -45.579  18.141  -7.918  1.00 57.59 LIG 0.40  C 
ATOM     53  N   ILE E1021     -45.976  17.555  -9.195  1.00 58.96 LIG 0.61  N 
BRANCH 52 54
ATOM     54  CB  ILE E1021     -44.039  17.964  -7.792  1.00 60.58 LIG 0.03  C 
ATOM     55  CG2 ILE E1021     -43.427  17.239  -8.987  1.00 61.37 LIG 0.01  C 
BRANCH 54 56
ATOM     56  CG1 ILE E1021     -43.350  19.332  -7.566  1.00 60.59 LIG 0.00  C 
ATOM     57  CD1 ILE E1021     -42.725  19.444  -6.225  1.00 60.15 LIG 0.01  C 
ENDBRANCH 54 56
ENDBRANCH 52 54
ENDBRANCH 50 52
ENDBRANCH 47 48
BRANCH 47 58
ATOM     58  CB  ARG E1022     -48.227  21.709  -6.364  1.00 44.33 LIG 0.04  C 
BRANCH 58 59
ATOM     59  CG  ARG E1022     -49.027  21.753  -7.660  1.00 47.73 LIG 0.02  C 
BRANCH 59 60
ATOM     60  CD  ARG E1022     -49.223  20.387  -8.285  1.00 47.87 LIG 0.14  C 
BRANCH 60 61
ATOM     61  NE  ARG E1022     -49.992  19.518  -7.395  1.00 55.98 LIG-0.23  N 
ATOM     62  CZ  ARG E1022     -50.157  18.205  -7.528  1.00 56.00 LIG 0.67  C 
ATOM     63  NH1 ARG E1022     -49.577  17.549  -8.528  1.00 48.69 LIG-0.23  N 
ATOM     64  NH2 ARG E1022     -50.876  17.530  -6.644  1.00 32.20 LIG-0.23  N 
ATOM     65 1HH1 ARG E1022     -49.090  17.973  -9.095  1.00 48.69 LIG 0.17  HD
ATOM     66 2HH1 ARG E1022     -49.689  16.700  -8.606  1.00 48.69 LIG 0.17  HD
ATOM     67 2HH2 ARG E1022     -50.980  16.681  -6.733  1.00 32.20 LIG 0.17  HD
ATOM     68 1HH2 ARG E1022     -51.238  17.941  -5.981  1.00 32.20 LIG 0.17  HD
ATOM     69 HE   ARG E1022     -50.373  19.892  -6.721  1.00 55.98 LIG 0.18  HD
ENDBRANCH 60 61
ENDBRANCH 59 60
ENDBRANCH 58 59
ENDBRANCH 47 58
ENDBRANCH 44 47
ENDBRANCH 42 43
BRANCH 42 70
ATOM     70  CB  ILE E1023     -44.612  25.834  -5.147  1.00 38.78 LIG 0.01  C 
ATOM     71  CG2 ILE E1023     -45.356  26.279  -6.415  1.00 39.01 LIG 0.01  C 
BRANCH 70 72
ATOM     72  CG1 ILE E1023     -44.508  26.997  -4.114  1.00 39.61 LIG 0.00  C 
ATOM     73  CD1 ILE E1023     -44.580  28.406  -4.646  1.00 43.21 LIG 0.01  C 
ENDBRANCH 70 72
ENDBRANCH 42 70
ENDBRANCH 1 42
TORSDOF 26
ENDMDL
MODEL 43
USER: ADFR SOLUTION from run 86
USER: SCORE 22.892079 LL:  -6.240 LR: -17.756 RR:   0.000 FEB: -10.000
USER: RMSD 12.302499
USER: SEED 85
USER: STATUS searching
USER: GENES 28
USER: genes 0 Translation |==|  0.46080 0.55850 0.53296
USER: genes 1 Rotation |==|  0.24458 0.21036 0.81714 0.51707
USER: genes 2 Torsion [N]-CA--C-[O] |==|  0.96042
USER: genes 3 Torsion [C]-N--CA-[CB] |==|  0.87222
USER: genes 4 Torsion [N]-CA--C-[N] |==|  0.87005
USER: genes 5 Torsion [C]-N--CA-[C] |==|  0.80833
USER: genes 6 Torsion [N]-CA--CB-[CG] |==|  0.64066
USER: genes 7 Torsion [CA]-CB--CG-[CD1] |==|  0.21262
USER: genes 8 Torsion [N]-CA--C-[N] |==|  0.96705
USER: genes 9 Torsion [C]-N--CA-[C] |==|  0.49744
USER: genes 10 Torsion [N]-CA--CB-[CG] |==|  0.67079
USER: genes 11 Torsion [CA]-CB--CG-[OD1] |==|  0.36306
USER: genes 12 Torsion [N]-CA--C-[O] |==|  0.99360
USER: genes 13 Torsion [N]-CA--CB-[CG2] |==|  0.49684
USER: genes 14 Torsion [CA]-CB--CG1-[CD1] |==|  0.89958
USER: genes 15 Torsion [N]-C--CA-[N] |==|  0.13658
USER: genes 16 Torsion [C]-CA--N-[C] |==|  0.62653
USER: genes 17 Torsion [N]-C--CA-[N] |==|  0.91823
USER: genes 18 Torsion [C]-CA--N-[C] |==|  0.65634
USER: genes 19 Torsion [N]-C--CA-[N] |==|  0.36505
USER: genes 20 Torsion [C]-CA--CB-[CG1] |==|  0.65157
USER: genes 21 Torsion [CA]-CB--CG1-[CD1] |==|  0.71373
USER: genes 22 Torsion [C]-CA--CB-[CG] |==|  0.47110
USER: genes 23 Torsion [CA]-CB--CG-[CD] |==|  0.69995
USER: genes 24 Torsion [CB]-CG--CD-[NE] |==|  0.71292
USER: genes 25 Torsion [CG]-CD--NE-[CZ] |==|  0.34231
USER: genes 26 Torsion [C]-CA--CB-[CG1] |==|  0.55999
USER: genes 27 Torsion [CA]-CB--CG1-[CD1] |==|  0.62152
ROOT
ATOM      1  C   ILE E1023     -48.944  26.390   1.397  1.00 40.02 LIG 0.24  C 
ATOM      2 O    ILE E1023     -48.130  26.192   0.483  1.00 38.38 LIG-0.27  OA
ATOM      3  N   PRO E1024     -49.402  25.403   2.207  1.00 37.38 LIG-0.34  N 
ATOM      4  CA  PRO E1024     -49.038  24.008   1.920  1.00 36.67 LIG 0.18  C 
ATOM      5  CB  PRO E1024     -49.410  23.271   3.204  1.00 38.74 LIG 0.04  C 
ATOM      6  CG  PRO E1024     -50.516  24.064   3.791  1.00 43.33 LIG 0.02  C 
ATOM      7  CD  PRO E1024     -50.367  25.485   3.328  1.00 39.42 LIG 0.13  C 
ENDROOT
BRANCH 4 8
ATOM      8  C   PRO E1024     -49.850  23.520   0.727  1.00 39.60 LIG 0.24  C 
ATOM      9 O    PRO E1024     -50.822  24.176   0.358  1.00 37.18 LIG-0.27  OA
ATOM     10  N   ILE E1025     -49.422  22.397   0.116  1.00 37.20 LIG-0.35  N 
ATOM     11 H    ILE E1025     -48.731  21.969   0.397  1.00 37.20 LIG 0.16  HD
BRANCH 10 12
ATOM     12  CA  ILE E1025     -50.027  21.756  -1.060  1.00 37.42 LIG 0.18  C 
BRANCH 12 13
ATOM     13  C   ILE E1025     -49.827  22.614  -2.306  1.00 40.88 LIG 0.24  C 
ATOM     14 O    ILE E1025     -49.249  22.126  -3.279  1.00 40.29 LIG-0.27  OA
ATOM     15  N   PHE E1026     -50.092  23.932  -2.213  1.00 36.23 LIG-0.35  N 
ATOM     16 H    PHE E1026     -50.506  24.297  -1.554  1.00 36.23 LIG 0.16  HD
BRANCH 15 17
ATOM     17  CA  PHE E1026     -49.678  24.864  -3.270  1.00 36.58 LIG 0.18  C 
BRANCH 17 18
ATOM     18  CB  PHE E1026     -50.333  26.232  -3.103  1.00 38.58 LIG 0.07  C 
BRANCH 18 19
ATOM     19  CG  PHE E1026     -50.987  26.714  -4.364  1.00 40.24 LIG-0.06  A 
ATOM     20  CD1 PHE E1026     -52.200  26.199  -4.768  1.00 42.20 LIG 0.01  A 
ATOM     21  CE1 PHE E1026     -52.797  26.636  -5.938  1.00 42.54 LIG 0.00  A 
ATOM     22  CZ  PHE E1026     -52.185  27.590  -6.709  1.00 41.81 LIG 0.00  A 
ATOM     23  CE2 PHE E1026     -50.976  28.110  -6.331  1.00 44.36 LIG 0.00  A 
ATOM     24  CD2 PHE E1026     -50.373  27.671  -5.163  1.00 42.30 LIG 0.01  A 
ENDBRANCH 18 19
ENDBRANCH 17 18
BRANCH 17 25
ATOM     25  C   PHE E1026     -48.168  25.010  -3.301  1.00 38.60 LIG 0.24  C 
ATOM     26  N   ASN E1027     -47.498  24.492  -2.241  1.00 38.80 LIG-0.35  N 
ATOM     27 H    ASN E1027     -47.902  24.123  -1.577  1.00 38.80 LIG 0.16  HD
ATOM     28 O    PHE E1026     -47.623  25.518  -4.279  1.00 31.59 LIG-0.27  OA
BRANCH 26 29
ATOM     29  CA  ASN E1027     -46.038  24.493  -2.095  1.00 74.37 LIG 0.17  C 
BRANCH 29 30
ATOM     30  CB  ASN E1027     -45.501  25.920  -2.145  1.00 75.17 LIG 0.14  C 
BRANCH 30 31
ATOM     31  CG  ASN E1027     -44.555  26.159  -3.295  1.00 99.64 LIG 0.22  C 
ATOM     32  ND2 ASN E1027     -43.562  25.291  -3.467  1.00 92.55 LIG-0.37  N 
ATOM     33 22HD ASN E1027     -43.481  24.620  -2.935  1.00 92.55 LIG 0.16  HD
ATOM     34 21HD ASN E1027     -43.000  25.401  -4.108  1.00 92.55 LIG 0.16  HD
ATOM     35 OD1  ASN E1027     -44.697  27.131  -4.040  1.00 94.01 LIG-0.27  OA
ENDBRANCH 30 31
ENDBRANCH 29 30
BRANCH 29 36
ATOM     36  C   ASN E1027     -45.640  23.847  -0.770  1.00103.37 LIG 0.22  C 
ATOM     37 O    ASN E1027     -46.501  23.457   0.014  1.00 69.20 LIG-0.29  OA
ENDBRANCH 29 36
ENDBRANCH 26 29
ENDBRANCH 17 25
ENDBRANCH 15 17
ENDBRANCH 12 13
BRANCH 12 38
ATOM     38  CB  ILE E1025     -51.602  21.692  -0.839  1.00 40.50 LIG 0.01  C 
ATOM     39  CG2 ILE E1025     -52.319  21.058  -2.040  1.00 43.95 LIG 0.01  C 
BRANCH 38 40
ATOM     40  CG1 ILE E1025     -52.001  20.995   0.462  1.00 41.58 LIG 0.00  C 
ATOM     41  CD1 ILE E1025     -51.024  19.750   0.833  1.00 52.05 LIG 0.01  C 
ENDBRANCH 38 40
ENDBRANCH 12 38
ENDBRANCH 10 12
ENDBRANCH 4 8
BRANCH 1 42
ATOM     42  CA  ILE E1023     -49.370  27.819   1.687  1.00 36.06 LIG 0.18  C 
BRANCH 42 43
ATOM     43  N   ILE E1023     -49.133  28.049   3.125  1.00 37.96 LIG-0.35  N 
ATOM     44  C   ARG E1022     -50.035  28.649   3.931  1.00 45.42 LIG 0.24  C 
ATOM     45 O    ARG E1022     -51.094  29.122   3.519  1.00 45.23 LIG-0.27  OA
ATOM     46 H    ILE E1023     -48.369  27.766   3.400  1.00 37.96 LIG 0.16  HD
BRANCH 44 47
ATOM     47  CA  ARG E1022     -49.692  28.813   5.412  1.00 45.59 LIG 0.18  C 
BRANCH 47 48
ATOM     48  N   ARG E1022     -48.800  27.758   5.921  1.00 48.30 LIG-0.35  N 
ATOM     49 H    ARG E1022     -48.060  27.680   5.490  1.00 48.30 LIG 0.16  HD
ATOM     50  C   ILE E1021     -49.141  26.990   6.979  1.00 57.51 LIG 0.26  C 
ATOM     51 O    ILE E1021     -50.212  27.124   7.586  1.00 59.03 LIG-0.27  OA
BRANCH 50 52
ATOM     52  CA  ILE E1021     -48.144  25.918   7.448  1.00 57.59 LIG 0.40  C 
ATOM     53  N   ILE E1021     -47.981  26.031   8.895  1.00 58.96 LIG 0.61  N 
BRANCH 52 54
ATOM     54  CB  ILE E1021     -48.633  24.472   7.154  1.00 60.58 LIG 0.03  C 
ATOM     55  CG2 ILE E1021     -47.825  23.784   6.058  1.00 61.37 LIG 0.01  C 
BRANCH 54 56
ATOM     56  CG1 ILE E1021     -48.635  23.623   8.450  1.00 60.59 LIG 0.00  C 
ATOM     57  CD1 ILE E1021     -47.485  22.690   8.526  1.00 60.15 LIG 0.01  C 
ENDBRANCH 54 56
ENDBRANCH 52 54
ENDBRANCH 50 52
ENDBRANCH 47 48
BRANCH 47 58
ATOM     58  CB  ARG E1022     -49.102  30.213   5.624  1.00 44.33 LIG 0.04  C 
BRANCH 58 59
ATOM     59  CG  ARG E1022     -48.956  30.584   7.095  1.00 47.73 LIG 0.02  C 
BRANCH 59 60
ATOM     60  CD  ARG E1022     -49.957  31.628   7.547  1.00 47.87 LIG 0.14  C 
BRANCH 60 61
ATOM     61  NE  ARG E1022     -49.320  32.938   7.663  1.00 55.98 LIG-0.23  N 
ATOM     62  CZ  ARG E1022     -49.693  34.052   7.039  1.00 56.00 LIG 0.67  C 
ATOM     63  NH1 ARG E1022     -50.753  34.056   6.238  1.00 48.69 LIG-0.23  N 
ATOM     64  NH2 ARG E1022     -49.030  35.182   7.238  1.00 32.20 LIG-0.23  N 
ATOM     65 1HH1 ARG E1022     -51.203  33.333   6.118  1.00 48.69 LIG 0.17  HD
ATOM     66 2HH1 ARG E1022     -50.987  34.780   5.838  1.00 48.69 LIG 0.17  HD
ATOM     67 2HH2 ARG E1022     -49.274  35.900   6.833  1.00 32.20 LIG 0.17  HD
ATOM     68 1HH2 ARG E1022     -48.356  35.197   7.772  1.00 32.20 LIG 0.17  HD
ATOM     69 HE   ARG E1022     -48.638  32.995   8.185  1.00 55.98 LIG 0.18  HD
ENDBRANCH 60 61
ENDBRANCH 59 60
ENDBRANCH 58 59
ENDBRANCH 47 58
ENDBRANCH 44 47
ENDBRANCH 42 43
BRANCH 42 70
ATOM     70  CB  ILE E1023     -48.566  28.797   0.768  1.00 38.78 LIG 0.01  C 
ATOM     71  CG2 ILE E1023     -49.109  28.761  -0.668  1.00 39.01 LIG 0.01  C 
BRANCH 70 72
ATOM     72  CG1 ILE E1023     -48.509  30.254   1.316  1.00 39.61 LIG 0.00  C 
ATOM     73  CD1 ILE E1023     -48.733  31.375   0.332  1.00 43.21 LIG 0.01  C 
ENDBRANCH 70 72
ENDBRANCH 42 70
ENDBRANCH 1 42
TORSDOF 26
ENDMDL
MODEL 44
USER: ADFR SOLUTION from run 68
USER: SCORE 21.406114 LL:  -6.569 LR: -17.736 RR:   0.000 FEB:  -9.980
USER: RMSD 12.152988
USER: SEED 67
USER: STATUS no improvement in best in 12 clusters for 5 generations
USER: GENES 28
USER: genes 0 Translation |==|  0.46223 0.55883 0.53701
USER: genes 1 Rotation |==|  0.77899 0.79697 0.21025 0.50398
USER: genes 2 Torsion [N]-CA--C-[O] |==|  0.44501
USER: genes 3 Torsion [C]-N--CA-[CB] |==|  0.45070
USER: genes 4 Torsion [N]-CA--C-[N] |==|  0.90374
USER: genes 5 Torsion [C]-N--CA-[C] |==|  0.21545
USER: genes 6 Torsion [N]-CA--CB-[CG] |==|  0.81563
USER: genes 7 Torsion [CA]-CB--CG-[CD1] |==|  0.33836
USER: genes 8 Torsion [N]-CA--C-[N] |==|  0.66588
USER: genes 9 Torsion [C]-N--CA-[C] |==|  0.10921
USER: genes 10 Torsion [N]-CA--CB-[CG] |==|  0.22377
USER: genes 11 Torsion [CA]-CB--CG-[OD1] |==|  0.71915
USER: genes 12 Torsion [N]-CA--C-[O] |==|  0.15958
USER: genes 13 Torsion [N]-CA--CB-[CG2] |==|  0.42149
USER: genes 14 Torsion [CA]-CB--CG1-[CD1] |==|  0.20547
USER: genes 15 Torsion [N]-C--CA-[N] |==|  0.18019
USER: genes 16 Torsion [C]-CA--N-[C] |==|  0.58333
USER: genes 17 Torsion [N]-C--CA-[N] |==|  0.45385
USER: genes 18 Torsion [C]-CA--N-[C] |==|  0.60333
USER: genes 19 Torsion [N]-C--CA-[N] |==|  0.46180
USER: genes 20 Torsion [C]-CA--CB-[CG1] |==|  0.38414
USER: genes 21 Torsion [CA]-CB--CG1-[CD1] |==|  0.82089
USER: genes 22 Torsion [C]-CA--CB-[CG] |==|  0.37946
USER: genes 23 Torsion [CA]-CB--CG-[CD] |==|  0.27281
USER: genes 24 Torsion [CB]-CG--CD-[NE] |==|  0.50149
USER: genes 25 Torsion [CG]-CD--NE-[CZ] |==|  0.61580
USER: genes 26 Torsion [C]-CA--CB-[CG1] |==|  0.55884
USER: genes 27 Torsion [CA]-CB--CG1-[CD1] |==|  0.60287
ROOT
ATOM      1  C   ILE E1023     -48.923  26.398   1.513  1.00 40.02 LIG 0.24  C 
ATOM      2 O    ILE E1023     -47.967  26.238   0.739  1.00 38.38 LIG-0.27  OA
ATOM      3  N   PRO E1024     -49.495  25.378   2.201  1.00 37.38 LIG-0.34  N 
ATOM      4  CA  PRO E1024     -49.070  23.997   1.930  1.00 36.67 LIG 0.18  C 
ATOM      5  CB  PRO E1024     -49.640  23.211   3.108  1.00 38.74 LIG 0.04  C 
ATOM      6  CG  PRO E1024     -50.837  23.975   3.531  1.00 43.33 LIG 0.02  C 
ATOM      7  CD  PRO E1024     -50.632  25.413   3.149  1.00 39.42 LIG 0.13  C 
ENDROOT
BRANCH 4 8
ATOM      8  C   PRO E1024     -49.668  23.548   0.603  1.00 39.60 LIG 0.24  C 
ATOM      9 O    PRO E1024     -49.164  22.594   0.011  1.00 37.18 LIG-0.27  OA
ATOM     10  N   ILE E1025     -50.757  24.215   0.168  1.00 37.20 LIG-0.35  N 
ATOM     11 H    ILE E1025     -51.088  24.872   0.613  1.00 37.20 LIG 0.16  HD
BRANCH 10 12
ATOM     12  CA  ILE E1025     -51.513  23.946  -1.063  1.00 37.42 LIG 0.18  C 
BRANCH 12 13
ATOM     13  C   ILE E1025     -50.844  24.609  -2.265  1.00 40.88 LIG 0.24  C 
ATOM     14 O    ILE E1025     -50.709  23.960  -3.304  1.00 40.29 LIG-0.27  OA
ATOM     15  N   PHE E1026     -50.233  25.794  -2.072  1.00 36.23 LIG-0.35  N 
ATOM     16 H    PHE E1026     -50.320  26.274  -1.364  1.00 36.23 LIG 0.16  HD
BRANCH 15 17
ATOM     17  CA  PHE E1026     -49.347  26.365  -3.095  1.00 36.58 LIG 0.18  C 
BRANCH 17 18
ATOM     18  CB  PHE E1026     -48.383  25.321  -3.651  1.00 38.58 LIG 0.07  C 
BRANCH 18 19
ATOM     19  CG  PHE E1026     -47.397  24.846  -2.624  1.00 40.24 LIG-0.06  A 
ATOM     20  CD1 PHE E1026     -47.314  23.511  -2.294  1.00 42.20 LIG 0.01  A 
ATOM     21  CE1 PHE E1026     -46.411  23.076  -1.338  1.00 42.54 LIG 0.00  A 
ATOM     22  CZ  PHE E1026     -45.588  23.973  -0.709  1.00 41.81 LIG 0.00  A 
ATOM     23  CE2 PHE E1026     -45.658  25.305  -1.016  1.00 44.36 LIG 0.00  A 
ATOM     24  CD2 PHE E1026     -46.565  25.745  -1.968  1.00 42.30 LIG 0.01  A 
ENDBRANCH 18 19
ENDBRANCH 17 18
BRANCH 17 25
ATOM     25  C   PHE E1026     -50.151  26.983  -4.223  1.00 38.60 LIG 0.24  C 
ATOM     26  N   ASN E1027     -49.940  26.464  -5.459  1.00 38.80 LIG-0.35  N 
ATOM     27 H    ASN E1027     -49.367  25.838  -5.604  1.00 38.80 LIG 0.16  HD
ATOM     28 O    PHE E1026     -50.981  27.855  -3.976  1.00 31.59 LIG-0.27  OA
BRANCH 26 29
ATOM     29  CA  ASN E1027     -50.642  26.890  -6.675  1.00 74.37 LIG 0.17  C 
BRANCH 29 30
ATOM     30  CB  ASN E1027     -52.005  26.212  -6.766  1.00 75.17 LIG 0.14  C 
BRANCH 30 31
ATOM     31  CG  ASN E1027     -53.059  26.878  -5.916  1.00 99.64 LIG 0.22  C 
ATOM     32  ND2 ASN E1027     -53.611  27.994  -6.382  1.00 92.55 LIG-0.37  N 
ATOM     33 22HD ASN E1027     -53.369  28.307  -7.146  1.00 92.55 LIG 0.16  HD
ATOM     34 21HD ASN E1027     -54.210  28.404  -5.920  1.00 92.55 LIG 0.16  HD
ATOM     35 OD1  ASN E1027     -53.385  26.405  -4.825  1.00 94.01 LIG-0.27  OA
ENDBRANCH 30 31
ENDBRANCH 29 30
BRANCH 29 36
ATOM     36  C   ASN E1027     -50.830  28.406  -6.671  1.00103.37 LIG 0.22  C 
ATOM     37 O    ASN E1027     -49.858  29.151  -6.584  1.00 69.20 LIG-0.29  OA
ENDBRANCH 29 36
ENDBRANCH 26 29
ENDBRANCH 17 25
ENDBRANCH 15 17
ENDBRANCH 12 13
BRANCH 12 38
ATOM     38  CB  ILE E1025     -52.939  24.642  -0.937  1.00 40.50 LIG 0.01  C 
ATOM     39  CG2 ILE E1025     -53.506  25.030  -2.309  1.00 43.95 LIG 0.01  C 
BRANCH 38 40
ATOM     40  CG1 ILE E1025     -53.948  23.810  -0.146  1.00 41.58 LIG 0.00  C 
ATOM     41  CD1 ILE E1025     -53.654  23.819   1.452  1.00 52.05 LIG 0.01  C 
ENDBRANCH 38 40
ENDBRANCH 12 38
ENDBRANCH 10 12
ENDBRANCH 4 8
BRANCH 1 42
ATOM     42  CA  ILE E1023     -49.409  27.812   1.777  1.00 36.06 LIG 0.18  C 
BRANCH 42 43
ATOM     43  N   ILE E1023     -49.059  28.125   3.176  1.00 37.96 LIG-0.35  N 
ATOM     44  C   ARG E1022     -49.784  28.969   3.942  1.00 45.42 LIG 0.24  C 
ATOM     45 O    ARG E1022     -50.748  29.604   3.516  1.00 45.23 LIG-0.27  OA
ATOM     46 H    ILE E1023     -48.353  27.722   3.456  1.00 37.96 LIG 0.16  HD
BRANCH 44 47
ATOM     47  CA  ARG E1022     -49.341  29.202   5.387  1.00 45.59 LIG 0.18  C 
BRANCH 47 48
ATOM     48  N   ARG E1022     -49.946  30.400   5.993  1.00 48.30 LIG-0.35  N 
ATOM     49 H    ARG E1022     -50.761  30.542   5.762  1.00 48.30 LIG 0.16  HD
ATOM     50  C   ILE E1021     -49.253  31.193   6.840  1.00 57.51 LIG 0.26  C 
ATOM     51 O    ILE E1021     -48.080  30.966   7.161  1.00 59.03 LIG-0.27  OA
BRANCH 50 52
ATOM     52  CA  ILE E1021     -49.968  32.419   7.433  1.00 57.59 LIG 0.40  C 
ATOM     53  N   ILE E1021     -49.173  32.931   8.545  1.00 58.96 LIG 0.61  N 
BRANCH 52 54
ATOM     54  CB  ILE E1021     -50.124  33.578   6.408  1.00 60.58 LIG 0.03  C 
ATOM     55  CG2 ILE E1021     -49.842  33.141   4.973  1.00 61.37 LIG 0.01  C 
BRANCH 54 56
ATOM     56  CG1 ILE E1021     -51.528  34.220   6.521  1.00 60.59 LIG 0.00  C 
ATOM     57  CD1 ILE E1021     -52.619  33.283   6.158  1.00 60.15 LIG 0.01  C 
ENDBRANCH 54 56
ENDBRANCH 52 54
ENDBRANCH 50 52
ENDBRANCH 47 48
BRANCH 47 58
ATOM     58  CB  ARG E1022     -49.640  27.936   6.200  1.00 44.33 LIG 0.04  C 
BRANCH 58 59
ATOM     59  CG  ARG E1022     -48.506  27.544   7.139  1.00 47.73 LIG 0.02  C 
BRANCH 59 60
ATOM     60  CD  ARG E1022     -48.727  28.006   8.564  1.00 47.87 LIG 0.14  C 
BRANCH 60 61
ATOM     61  NE  ARG E1022     -47.604  27.614   9.414  1.00 55.98 LIG-0.23  N 
ATOM     62  CZ  ARG E1022     -47.686  27.130  10.651  1.00 56.00 LIG 0.67  C 
ATOM     63  NH1 ARG E1022     -48.868  26.933  11.223  1.00 48.69 LIG-0.23  N 
ATOM     64  NH2 ARG E1022     -46.586  26.806  11.314  1.00 32.20 LIG-0.23  N 
ATOM     65 1HH1 ARG E1022     -49.590  27.120  10.794  1.00 48.69 LIG 0.17  HD
ATOM     66 2HH1 ARG E1022     -48.912  26.620  12.023  1.00 48.69 LIG 0.17  HD
ATOM     67 2HH2 ARG E1022     -46.642  26.494  12.113  1.00 32.20 LIG 0.17  HD
ATOM     68 1HH2 ARG E1022     -45.815  26.909  10.945  1.00 32.20 LIG 0.17  HD
ATOM     69 HE   ARG E1022     -46.816  27.705   9.083  1.00 55.98 LIG 0.18  HD
ENDBRANCH 60 61
ENDBRANCH 59 60
ENDBRANCH 58 59
ENDBRANCH 47 58
ENDBRANCH 44 47
ENDBRANCH 42 43
BRANCH 42 70
ATOM     70  CB  ILE E1023     -48.752  28.789   0.747  1.00 38.78 LIG 0.01  C 
ATOM     71  CG2 ILE E1023     -49.411  28.644  -0.633  1.00 39.01 LIG 0.01  C 
BRANCH 70 72
ATOM     72  CG1 ILE E1023     -48.747  30.274   1.219  1.00 39.61 LIG 0.00  C 
ATOM     73  CD1 ILE E1023     -48.975  31.336   0.172  1.00 43.21 LIG 0.01  C 
ENDBRANCH 70 72
ENDBRANCH 42 70
ENDBRANCH 1 42
TORSDOF 26
ENDMDL
MODEL 45
USER: ADFR SOLUTION from run 101
USER: SCORE 22.024895 LL:  -5.619 LR: -17.737 RR:   0.000 FEB:  -9.981
USER: RMSD 4.810674
USER: SEED 100
USER: STATUS no improvement in best in 5 clusters for 5 generations
USER: GENES 28
USER: genes 0 Translation |==|  0.48482 0.57324 0.46779
USER: genes 1 Rotation |==|  0.63549 0.36819 0.07250 0.67753
USER: genes 2 Torsion [N]-CA--C-[O] |==|  0.72804
USER: genes 3 Torsion [C]-N--CA-[CB] |==|  0.54468
USER: genes 4 Torsion [N]-CA--C-[N] |==|  0.91195
USER: genes 5 Torsion [C]-N--CA-[C] |==|  0.71369
USER: genes 6 Torsion [N]-CA--CB-[CG] |==|  0.76716
USER: genes 7 Torsion [CA]-CB--CG-[CD1] |==|  0.65943
USER: genes 8 Torsion [N]-CA--C-[N] |==|  0.42709
USER: genes 9 Torsion [C]-N--CA-[C] |==|  0.23036
USER: genes 10 Torsion [N]-CA--CB-[CG] |==|  0.50180
USER: genes 11 Torsion [CA]-CB--CG-[OD1] |==|  0.94357
USER: genes 12 Torsion [N]-CA--C-[O] |==|  0.93582
USER: genes 13 Torsion [N]-CA--CB-[CG2] |==|  0.40372
USER: genes 14 Torsion [CA]-CB--CG1-[CD1] |==|  0.21257
USER: genes 15 Torsion [N]-C--CA-[N] |==|  0.38230
USER: genes 16 Torsion [C]-CA--N-[C] |==|  0.85937
USER: genes 17 Torsion [N]-C--CA-[N] |==|  0.32778
USER: genes 18 Torsion [C]-CA--N-[C] |==|  0.80456
USER: genes 19 Torsion [N]-C--CA-[N] |==|  0.39156
USER: genes 20 Torsion [C]-CA--CB-[CG1] |==|  0.47333
USER: genes 21 Torsion [CA]-CB--CG1-[CD1] |==|  0.46456
USER: genes 22 Torsion [C]-CA--CB-[CG] |==|  0.16593
USER: genes 23 Torsion [CA]-CB--CG-[CD] |==|  0.23760
USER: genes 24 Torsion [CB]-CG--CD-[NE] |==|  0.02699
USER: genes 25 Torsion [CG]-CD--NE-[CZ] |==|  0.58885
USER: genes 26 Torsion [C]-CA--CB-[CG1] |==|  0.96254
USER: genes 27 Torsion [CA]-CB--CG1-[CD1] |==|  0.53945
ROOT
ATOM      1  C   ILE E1023     -48.584  26.733  -0.460  1.00 40.02 LIG 0.24  C 
ATOM      2 O    ILE E1023     -47.887  25.898   0.136  1.00 38.38 LIG-0.27  OA
ATOM      3  N   PRO E1024     -48.851  27.965   0.041  1.00 37.38 LIG-0.34  N 
ATOM      4  CA  PRO E1024     -48.420  28.297   1.407  1.00 36.67 LIG 0.18  C 
ATOM      5  CB  PRO E1024     -48.559  29.816   1.465  1.00 38.74 LIG 0.04  C 
ATOM      6  CG  PRO E1024     -49.635  30.137   0.497  1.00 43.33 LIG 0.02  C 
ATOM      7  CD  PRO E1024     -49.660  29.058  -0.546  1.00 39.42 LIG 0.13  C 
ENDROOT
BRANCH 4 8
ATOM      8  C   PRO E1024     -49.345  27.602   2.399  1.00 39.60 LIG 0.24  C 
ATOM      9 O    PRO E1024     -50.274  28.236   2.896  1.00 37.18 LIG-0.27  OA
ATOM     10  N   ILE E1025     -49.103  26.298   2.647  1.00 37.20 LIG-0.35  N 
ATOM     11 H    ILE E1025     -48.449  25.884   2.272  1.00 37.20 LIG 0.16  HD
BRANCH 10 12
ATOM     12  CA  ILE E1025     -49.871  25.422   3.542  1.00 37.42 LIG 0.18  C 
BRANCH 12 13
ATOM     13  C   ILE E1025     -50.087  26.089   4.898  1.00 40.88 LIG 0.24  C 
ATOM     14 O    ILE E1025     -51.193  26.004   5.434  1.00 40.29 LIG-0.27  OA
ATOM     15  N   PHE E1026     -49.131  26.926   5.348  1.00 36.23 LIG-0.35  N 
ATOM     16 H    PHE E1026     -48.347  26.996   5.002  1.00 36.23 LIG 0.16  HD
BRANCH 15 17
ATOM     17  CA  PHE E1026     -49.375  27.804   6.500  1.00 36.58 LIG 0.18  C 
BRANCH 17 18
ATOM     18  CB  PHE E1026     -48.215  27.769   7.490  1.00 38.58 LIG 0.07  C 
BRANCH 18 19
ATOM     19  CG  PHE E1026     -48.309  26.615   8.443  1.00 40.24 LIG-0.06  A 
ATOM     20  CD1 PHE E1026     -48.335  26.827   9.805  1.00 42.20 LIG 0.01  A 
ATOM     21  CE1 PHE E1026     -48.410  25.761  10.684  1.00 42.54 LIG 0.00  A 
ATOM     22  CZ  PHE E1026     -48.461  24.477  10.206  1.00 41.81 LIG 0.00  A 
ATOM     23  CE2 PHE E1026     -48.429  24.242   8.858  1.00 44.36 LIG 0.00  A 
ATOM     24  CD2 PHE E1026     -48.348  25.307   7.975  1.00 42.30 LIG 0.01  A 
ENDBRANCH 18 19
ENDBRANCH 17 18
BRANCH 17 25
ATOM     25  C   PHE E1026     -49.630  29.230   6.047  1.00 38.60 LIG 0.24  C 
ATOM     26  N   ASN E1027     -50.382  29.993   6.880  1.00 38.80 LIG-0.35  N 
ATOM     27 H    ASN E1027     -50.718  29.685   7.609  1.00 38.80 LIG 0.16  HD
ATOM     28 O    PHE E1026     -49.112  29.645   5.013  1.00 31.59 LIG-0.27  OA
BRANCH 26 29
ATOM     29  CA  ASN E1027     -50.712  31.405   6.649  1.00 74.37 LIG 0.17  C 
BRANCH 29 30
ATOM     30  CB  ASN E1027     -49.520  32.134   6.038  1.00 75.17 LIG 0.14  C 
BRANCH 30 31
ATOM     31  CG  ASN E1027     -49.784  33.598   5.787  1.00 99.64 LIG 0.22  C 
ATOM     32  ND2 ASN E1027     -48.732  34.402   5.667  1.00 92.55 LIG-0.37  N 
ATOM     33 22HD ASN E1027     -47.936  34.081   5.726  1.00 92.55 LIG 0.16  HD
ATOM     34 21HD ASN E1027     -48.846  35.244   5.530  1.00 92.55 LIG 0.16  HD
ATOM     35 OD1  ASN E1027     -50.936  34.029   5.708  1.00 94.01 LIG-0.27  OA
ENDBRANCH 30 31
ENDBRANCH 29 30
BRANCH 29 36
ATOM     36  C   ASN E1027     -51.912  31.519   5.711  1.00103.37 LIG 0.22  C 
ATOM     37 O    ASN E1027     -52.192  30.601   4.946  1.00 69.20 LIG-0.29  OA
ENDBRANCH 29 36
ENDBRANCH 26 29
ENDBRANCH 17 25
ENDBRANCH 15 17
ENDBRANCH 12 13
BRANCH 12 38
ATOM     38  CB  ILE E1025     -48.998  24.126   3.843  1.00 40.50 LIG 0.01  C 
ATOM     39  CG2 ILE E1025     -49.217  23.611   5.272  1.00 43.95 LIG 0.01  C 
BRANCH 38 40
ATOM     40  CG1 ILE E1025     -49.210  23.006   2.823  1.00 41.58 LIG 0.00  C 
ATOM     41  CD1 ILE E1025     -48.445  23.284   1.416  1.00 52.05 LIG 0.01  C 
ENDBRANCH 38 40
ENDBRANCH 12 38
ENDBRANCH 10 12
ENDBRANCH 4 8
BRANCH 1 42
ATOM     42  CA  ILE E1023     -49.077  26.397  -1.856  1.00 36.06 LIG 0.18  C 
BRANCH 42 43
ATOM     43  N   ILE E1023     -47.981  25.676  -2.531  1.00 37.96 LIG-0.35  N 
ATOM     44  C   ARG E1022     -46.713  26.139  -2.570  1.00 45.42 LIG 0.24  C 
ATOM     45 O    ARG E1022     -46.383  27.234  -2.115  1.00 45.23 LIG-0.27  OA
ATOM     46 H    ILE E1023     -48.224  24.936  -2.896  1.00 37.96 LIG 0.16  HD
BRANCH 44 47
ATOM     47  CA  ARG E1022     -45.652  25.296  -3.278  1.00 45.59 LIG 0.18  C 
BRANCH 47 48
ATOM     48  N   ARG E1022     -45.048  25.977  -4.435  1.00 48.30 LIG-0.35  N 
ATOM     49 H    ARG E1022     -44.230  26.216  -4.320  1.00 48.30 LIG 0.16  HD
ATOM     50  C   ILE E1021     -45.743  26.194  -5.573  1.00 57.51 LIG 0.26  C 
ATOM     51 O    ILE E1021     -46.919  25.837  -5.718  1.00 59.03 LIG-0.27  OA
BRANCH 50 52
ATOM     52  CA  ILE E1021     -45.028  26.905  -6.735  1.00 57.59 LIG 0.40  C 
ATOM     53  N   ILE E1021     -45.441  26.282  -7.989  1.00 58.96 LIG 0.61  N 
BRANCH 52 54
ATOM     54  CB  ILE E1021     -45.392  28.413  -6.832  1.00 60.58 LIG 0.03  C 
ATOM     55  CG2 ILE E1021     -45.353  29.119  -5.480  1.00 61.37 LIG 0.01  C 
BRANCH 54 56
ATOM     56  CG1 ILE E1021     -44.474  29.130  -7.853  1.00 60.59 LIG 0.00  C 
ATOM     57  CD1 ILE E1021     -44.961  30.485  -8.209  1.00 60.15 LIG 0.01  C 
ENDBRANCH 54 56
ENDBRANCH 52 54
ENDBRANCH 50 52
ENDBRANCH 47 48
BRANCH 47 58
ATOM     58  CB  ARG E1022     -44.598  24.872  -2.248  1.00 44.33 LIG 0.04  C 
BRANCH 58 59
ATOM     59  CG  ARG E1022     -45.175  24.050  -1.102  1.00 47.73 LIG 0.02  C 
BRANCH 59 60
ATOM     60  CD  ARG E1022     -45.266  22.572  -1.418  1.00 47.87 LIG 0.14  C 
BRANCH 60 61
ATOM     61  NE  ARG E1022     -44.564  22.265  -2.663  1.00 55.98 LIG-0.23  N 
ATOM     62  CZ  ARG E1022     -44.888  21.314  -3.535  1.00 56.00 LIG 0.67  C 
ATOM     63  NH1 ARG E1022     -45.955  20.548  -3.334  1.00 48.69 LIG-0.23  N 
ATOM     64  NH2 ARG E1022     -44.168  21.144  -4.634  1.00 32.20 LIG-0.23  N 
ATOM     65 1HH1 ARG E1022     -46.442  20.664  -2.635  1.00 48.69 LIG 0.17  HD
ATOM     66 2HH1 ARG E1022     -46.157  19.936  -3.903  1.00 48.69 LIG 0.17  HD
ATOM     67 2HH2 ARG E1022     -44.381  20.528  -5.195  1.00 32.20 LIG 0.17  HD
ATOM     68 1HH2 ARG E1022     -43.489  21.649  -4.785  1.00 32.20 LIG 0.17  HD
ATOM     69 HE   ARG E1022     -43.875  22.745  -2.849  1.00 55.98 LIG 0.18  HD
ENDBRANCH 60 61
ENDBRANCH 59 60
ENDBRANCH 58 59
ENDBRANCH 47 58
ENDBRANCH 44 47
ENDBRANCH 42 43
BRANCH 42 70
ATOM     70  CB  ILE E1023     -50.393  25.557  -1.754  1.00 38.78 LIG 0.01  C 
ATOM     71  CG2 ILE E1023     -50.398  24.428  -2.796  1.00 39.01 LIG 0.01  C 
BRANCH 70 72
ATOM     72  CG1 ILE E1023     -50.666  25.007  -0.322  1.00 39.61 LIG 0.00  C 
ATOM     73  CD1 ILE E1023     -51.710  23.928  -0.180  1.00 43.21 LIG 0.01  C 
ENDBRANCH 70 72
ENDBRANCH 42 70
ENDBRANCH 1 42
TORSDOF 26
ENDMDL
MODEL 46
USER: ADFR SOLUTION from run 68
USER: SCORE 22.620359 LL:  -6.928 LR: -17.716 RR:   0.000 FEB:  -9.961
USER: RMSD 12.252523
USER: SEED 67
USER: STATUS no improvement in best in 12 clusters for 5 generations
USER: GENES 28
USER: genes 0 Translation |==|  0.42648 0.52827 0.54195
USER: genes 1 Rotation |==|  0.85951 0.75108 0.26047 0.51838
USER: genes 2 Torsion [N]-CA--C-[O] |==|  0.39860
USER: genes 3 Torsion [C]-N--CA-[CB] |==|  0.52805
USER: genes 4 Torsion [N]-CA--C-[N] |==|  0.90327
USER: genes 5 Torsion [C]-N--CA-[C] |==|  0.84268
USER: genes 6 Torsion [N]-CA--CB-[CG] |==|  0.51504
USER: genes 7 Torsion [CA]-CB--CG-[CD1] |==|  0.19722
USER: genes 8 Torsion [N]-CA--C-[N] |==|  0.38454
USER: genes 9 Torsion [C]-N--CA-[C] |==|  0.85964
USER: genes 10 Torsion [N]-CA--CB-[CG] |==|  0.10753
USER: genes 11 Torsion [CA]-CB--CG-[OD1] |==|  0.77598
USER: genes 12 Torsion [N]-CA--C-[O] |==|  0.90219
USER: genes 13 Torsion [N]-CA--CB-[CG2] |==|  0.42064
USER: genes 14 Torsion [CA]-CB--CG1-[CD1] |==|  0.56903
USER: genes 15 Torsion [N]-C--CA-[N] |==|  0.22100
USER: genes 16 Torsion [C]-CA--N-[C] |==|  0.62462
USER: genes 17 Torsion [N]-C--CA-[N] |==|  0.95000
USER: genes 18 Torsion [C]-CA--N-[C] |==|  0.63399
USER: genes 19 Torsion [N]-C--CA-[N] |==|  0.43524
USER: genes 20 Torsion [C]-CA--CB-[CG1] |==|  0.06156
USER: genes 21 Torsion [CA]-CB--CG1-[CD1] |==|  0.39985
USER: genes 22 Torsion [C]-CA--CB-[CG] |==|  0.52206
USER: genes 23 Torsion [CA]-CB--CG-[CD] |==|  0.62756
USER: genes 24 Torsion [CB]-CG--CD-[NE] |==|  0.02301
USER: genes 25 Torsion [CG]-CD--NE-[CZ] |==|  0.62993
USER: genes 26 Torsion [C]-CA--CB-[CG1] |==|  0.55332
USER: genes 27 Torsion [CA]-CB--CG1-[CD1] |==|  0.76272
ROOT
ATOM      1  C   ILE E1023     -49.459  25.687   1.654  1.00 40.02 LIG 0.24  C 
ATOM      2 O    ILE E1023     -48.378  25.248   1.233  1.00 38.38 LIG-0.27  OA
ATOM      3  N   PRO E1024     -50.464  24.886   2.087  1.00 37.38 LIG-0.34  N 
ATOM      4  CA  PRO E1024     -50.342  23.429   1.934  1.00 36.67 LIG 0.18  C 
ATOM      5  CB  PRO E1024     -51.444  22.882   2.838  1.00 38.74 LIG 0.04  C 
ATOM      6  CG  PRO E1024     -52.477  23.945   2.864  1.00 43.33 LIG 0.02  C 
ATOM      7  CD  PRO E1024     -51.799  25.260   2.610  1.00 39.42 LIG 0.13  C 
ENDROOT
BRANCH 4 8
ATOM      8  C   PRO E1024     -50.571  23.066   0.472  1.00 39.60 LIG 0.24  C 
ATOM      9 O    PRO E1024     -49.915  22.153  -0.027  1.00 37.18 LIG-0.27  OA
ATOM     10  N   ILE E1025     -51.523  23.758  -0.186  1.00 37.20 LIG-0.35  N 
ATOM     11 H    ILE E1025     -51.969  24.384   0.198  1.00 37.20 LIG 0.16  HD
BRANCH 10 12
ATOM     12  CA  ILE E1025     -51.932  23.568  -1.585  1.00 37.42 LIG 0.18  C 
BRANCH 12 13
ATOM     13  C   ILE E1025     -50.729  23.671  -2.519  1.00 40.88 LIG 0.24  C 
ATOM     14 O    ILE E1025     -50.593  22.830  -3.409  1.00 40.29 LIG-0.27  OA
ATOM     15  N   PHE E1026     -49.754  24.543  -2.197  1.00 36.23 LIG-0.35  N 
ATOM     16 H    PHE E1026     -49.827  25.149  -1.591  1.00 36.23 LIG 0.16  HD
BRANCH 15 17
ATOM     17  CA  PHE E1026     -48.456  24.516  -2.884  1.00 36.58 LIG 0.18  C 
BRANCH 17 18
ATOM     18  CB  PHE E1026     -47.512  25.587  -2.348  1.00 38.58 LIG 0.07  C 
BRANCH 18 19
ATOM     19  CG  PHE E1026     -46.229  25.662  -3.123  1.00 40.24 LIG-0.06  A 
ATOM     20  CD1 PHE E1026     -46.211  26.163  -4.407  1.00 42.20 LIG 0.01  A 
ATOM     21  CE1 PHE E1026     -45.029  26.220  -5.125  1.00 42.54 LIG 0.00  A 
ATOM     22  CZ  PHE E1026     -43.860  25.778  -4.563  1.00 41.81 LIG 0.00  A 
ATOM     23  CE2 PHE E1026     -43.855  25.269  -3.292  1.00 44.36 LIG 0.00  A 
ATOM     24  CD2 PHE E1026     -45.038  25.205  -2.572  1.00 42.30 LIG 0.01  A 
ENDBRANCH 18 19
ENDBRANCH 17 18
BRANCH 17 25
ATOM     25  C   PHE E1026     -47.811  23.147  -2.765  1.00 38.60 LIG 0.24  C 
ATOM     26  N   ASN E1027     -47.209  22.673  -3.885  1.00 38.80 LIG-0.35  N 
ATOM     27 H    ASN E1027     -47.212  23.107  -4.628  1.00 38.80 LIG 0.16  HD
ATOM     28 O    PHE E1026     -47.801  22.568  -1.681  1.00 31.59 LIG-0.27  OA
BRANCH 26 29
ATOM     29  CA  ASN E1027     -46.496  21.394  -3.972  1.00 74.37 LIG 0.17  C 
BRANCH 29 30
ATOM     30  CB  ASN E1027     -45.770  21.280  -5.309  1.00 75.17 LIG 0.14  C 
BRANCH 30 31
ATOM     31  CG  ASN E1027     -45.155  22.580  -5.764  1.00 99.64 LIG 0.22  C 
ATOM     32  ND2 ASN E1027     -43.856  22.758  -5.541  1.00 92.55 LIG-0.37  N 
ATOM     33 22HD ASN E1027     -43.397  22.140  -5.156  1.00 92.55 LIG 0.16  HD
ATOM     34 21HD ASN E1027     -43.474  23.490  -5.781  1.00 92.55 LIG 0.16  HD
ATOM     35 OD1  ASN E1027     -45.839  23.446  -6.313  1.00 94.01 LIG-0.27  OA
ENDBRANCH 30 31
ENDBRANCH 29 30
BRANCH 29 36
ATOM     36  C   ASN E1027     -45.483  21.277  -2.834  1.00103.37 LIG 0.22  C 
ATOM     37 O    ASN E1027     -44.884  22.270  -2.432  1.00 69.20 LIG-0.29  OA
ENDBRANCH 29 36
ENDBRANCH 26 29
ENDBRANCH 17 25
ENDBRANCH 15 17
ENDBRANCH 12 13
BRANCH 12 38
ATOM     38  CB  ILE E1025     -52.889  24.772  -1.994  1.00 40.50 LIG 0.01  C 
ATOM     39  CG2 ILE E1025     -52.809  25.078  -3.496  1.00 43.95 LIG 0.01  C 
BRANCH 38 40
ATOM     40  CG1 ILE E1025     -54.340  24.564  -1.559  1.00 41.58 LIG 0.00  C 
ATOM     41  CD1 ILE E1025     -55.396  25.393  -2.475  1.00 52.05 LIG 0.01  C 
ENDBRANCH 38 40
ENDBRANCH 12 38
ENDBRANCH 10 12
ENDBRANCH 4 8
BRANCH 1 42
ATOM     42  CA  ILE E1023     -49.626  27.191   1.782  1.00 36.06 LIG 0.18  C 
BRANCH 42 43
ATOM     43  N   ILE E1023     -49.325  27.533   3.185  1.00 37.96 LIG-0.35  N 
ATOM     44  C   ARG E1022     -50.087  28.376   3.915  1.00 45.42 LIG 0.24  C 
ATOM     45 O    ARG E1022     -51.048  28.988   3.449  1.00 45.23 LIG-0.27  OA
ATOM     46 H    ILE E1023     -48.622  27.147   3.493  1.00 37.96 LIG 0.16  HD
BRANCH 44 47
ATOM     47  CA  ARG E1022     -49.693  28.639   5.368  1.00 45.59 LIG 0.18  C 
BRANCH 47 48
ATOM     48  N   ARG E1022     -48.777  27.624   5.914  1.00 48.30 LIG-0.35  N 
ATOM     49 H    ARG E1022     -48.105  27.443   5.408  1.00 48.30 LIG 0.16  HD
ATOM     50  C   ILE E1021     -48.996  27.041   7.113  1.00 57.51 LIG 0.26  C 
ATOM     51 O    ILE E1021     -49.968  27.321   7.826  1.00 59.03 LIG-0.27  OA
BRANCH 50 52
ATOM     52  CA  ILE E1021     -47.981  25.997   7.608  1.00 57.59 LIG 0.40  C 
ATOM     53  N   ILE E1021     -48.066  25.915   9.063  1.00 58.96 LIG 0.61  N 
BRANCH 52 54
ATOM     54  CB  ILE E1021     -48.263  24.573   7.052  1.00 60.58 LIG 0.03  C 
ATOM     55  CG2 ILE E1021     -48.929  23.659   8.075  1.00 61.37 LIG 0.01  C 
BRANCH 54 56
ATOM     56  CG1 ILE E1021     -49.106  24.652   5.755  1.00 60.59 LIG 0.00  C 
ATOM     57  CD1 ILE E1021     -48.731  23.615   4.763  1.00 60.15 LIG 0.01  C 
ENDBRANCH 54 56
ENDBRANCH 52 54
ENDBRANCH 50 52
ENDBRANCH 47 48
BRANCH 47 58
ATOM     58  CB  ARG E1022     -49.106  30.053   5.468  1.00 44.33 LIG 0.04  C 
BRANCH 58 59
ATOM     59  CG  ARG E1022     -48.502  30.356   6.833  1.00 47.73 LIG 0.02  C 
BRANCH 59 60
ATOM     60  CD  ARG E1022     -48.912  31.709   7.377  1.00 47.87 LIG 0.14  C 
BRANCH 60 61
ATOM     61  NE  ARG E1022     -49.948  32.310   6.539  1.00 55.98 LIG-0.23  N 
ATOM     62  CZ  ARG E1022     -49.970  33.564   6.094  1.00 56.00 LIG 0.67  C 
ATOM     63  NH1 ARG E1022     -48.977  34.400   6.377  1.00 48.69 LIG-0.23  N 
ATOM     64  NH2 ARG E1022     -50.970  33.983   5.333  1.00 32.20 LIG-0.23  N 
ATOM     65 1HH1 ARG E1022     -48.312  34.132   6.852  1.00 48.69 LIG 0.17  HD
ATOM     66 2HH1 ARG E1022     -48.999  35.208   6.085  1.00 48.69 LIG 0.17  HD
ATOM     67 2HH2 ARG E1022     -50.981  34.794   5.047  1.00 32.20 LIG 0.17  HD
ATOM     68 1HH2 ARG E1022     -51.607  33.445   5.125  1.00 32.20 LIG 0.17  HD
ATOM     69 HE   ARG E1022     -50.606  31.805   6.312  1.00 55.98 LIG 0.18  HD
ENDBRANCH 60 61
ENDBRANCH 59 60
ENDBRANCH 58 59
ENDBRANCH 47 58
ENDBRANCH 44 47
ENDBRANCH 42 43
BRANCH 42 70
ATOM     70  CB  ILE E1023     -48.683  27.908   0.760  1.00 38.78 LIG 0.01  C 
ATOM     71  CG2 ILE E1023     -49.221  27.758  -0.671  1.00 39.01 LIG 0.01  C 
BRANCH 70 72
ATOM     72  CG1 ILE E1023     -48.413  29.402   1.110  1.00 39.61 LIG 0.00  C 
ATOM     73  CD1 ILE E1023     -49.416  30.420   0.627  1.00 43.21 LIG 0.01  C 
ENDBRANCH 70 72
ENDBRANCH 42 70
ENDBRANCH 1 42
TORSDOF 26
ENDMDL
MODEL 47
USER: ADFR SOLUTION from run 118
USER: SCORE 21.739165 LL:  -6.069 LR: -17.713 RR:   0.000 FEB:  -9.957
USER: RMSD 12.583748
USER: SEED 117
USER: STATUS no improvement in best in 14 clusters for 5 generations
USER: GENES 28
USER: genes 0 Translation |==|  0.48203 0.58986 0.53586
USER: genes 1 Rotation |==|  0.80451 0.89249 0.44358 0.50642
USER: genes 2 Torsion [N]-CA--C-[O] |==|  0.94793
USER: genes 3 Torsion [C]-N--CA-[CB] |==|  0.50784
USER: genes 4 Torsion [N]-CA--C-[N] |==|  0.01164
USER: genes 5 Torsion [C]-N--CA-[C] |==|  0.77447
USER: genes 6 Torsion [N]-CA--CB-[CG] |==|  0.30041
USER: genes 7 Torsion [CA]-CB--CG-[CD1] |==|  0.78654
USER: genes 8 Torsion [N]-CA--C-[N] |==|  0.42841
USER: genes 9 Torsion [C]-N--CA-[C] |==|  0.70213
USER: genes 10 Torsion [N]-CA--CB-[CG] |==|  0.64906
USER: genes 11 Torsion [CA]-CB--CG-[OD1] |==|  0.04508
USER: genes 12 Torsion [N]-CA--C-[O] |==|  0.74957
USER: genes 13 Torsion [N]-CA--CB-[CG2] |==|  0.25407
USER: genes 14 Torsion [CA]-CB--CG1-[CD1] |==|  0.95978
USER: genes 15 Torsion [N]-C--CA-[N] |==|  0.33433
USER: genes 16 Torsion [C]-CA--N-[C] |==|  0.57244
USER: genes 17 Torsion [N]-C--CA-[N] |==|  0.85569
USER: genes 18 Torsion [C]-CA--N-[C] |==|  0.69159
USER: genes 19 Torsion [N]-C--CA-[N] |==|  0.38792
USER: genes 20 Torsion [C]-CA--CB-[CG1] |==|  0.17833
USER: genes 21 Torsion [CA]-CB--CG1-[CD1] |==|  0.69740
USER: genes 22 Torsion [C]-CA--CB-[CG] |==|  0.34428
USER: genes 23 Torsion [CA]-CB--CG-[CD] |==|  0.70845
USER: genes 24 Torsion [CB]-CG--CD-[NE] |==|  0.69325
USER: genes 25 Torsion [CG]-CD--NE-[CZ] |==|  0.48084
USER: genes 26 Torsion [C]-CA--CB-[CG1] |==|  0.05908
USER: genes 27 Torsion [CA]-CB--CG1-[CD1] |==|  0.70199
ROOT
ATOM      1  C   ILE E1023     -48.626  27.119   1.480  1.00 40.02 LIG 0.24  C 
ATOM      2 O    ILE E1023     -47.443  27.490   1.515  1.00 38.38 LIG-0.27  OA
ATOM      3  N   PRO E1024     -49.022  25.967   0.883  1.00 37.38 LIG-0.34  N 
ATOM      4  CA  PRO E1024     -48.045  25.177   0.120  1.00 36.67 LIG 0.18  C 
ATOM      5  CB  PRO E1024     -48.743  23.832  -0.067  1.00 38.74 LIG 0.04  C 
ATOM      6  CG  PRO E1024     -50.191  24.150  -0.050  1.00 43.33 LIG 0.02  C 
ATOM      7  CD  PRO E1024     -50.385  25.399   0.761  1.00 39.42 LIG 0.13  C 
ENDROOT
BRANCH 4 8
ATOM      8  C   PRO E1024     -47.779  25.871  -1.209  1.00 39.60 LIG 0.24  C 
ATOM      9 O    PRO E1024     -48.586  26.703  -1.622  1.00 37.18 LIG-0.27  OA
ATOM     10  N   ILE E1025     -46.634  25.551  -1.846  1.00 37.20 LIG-0.35  N 
ATOM     11 H    ILE E1025     -46.088  24.971  -1.522  1.00 37.20 LIG 0.16  HD
BRANCH 10 12
ATOM     12  CA  ILE E1025     -46.157  26.106  -3.120  1.00 37.42 LIG 0.18  C 
BRANCH 12 13
ATOM     13  C   ILE E1025     -47.131  25.781  -4.250  1.00 40.88 LIG 0.24  C 
ATOM     14 O    ILE E1025     -46.941  26.277  -5.361  1.00 40.29 LIG-0.27  OA
ATOM     15  N   PHE E1026     -48.275  25.144  -3.932  1.00 36.23 LIG-0.35  N 
ATOM     16 H    PHE E1026     -48.429  24.777  -3.170  1.00 36.23 LIG 0.16  HD
BRANCH 15 17
ATOM     17  CA  PHE E1026     -49.374  25.032  -4.900  1.00 36.58 LIG 0.18  C 
BRANCH 17 18
ATOM     18  CB  PHE E1026     -50.271  23.835  -4.599  1.00 38.58 LIG 0.07  C 
BRANCH 18 19
ATOM     19  CG  PHE E1026     -51.609  24.243  -4.058  1.00 40.24 LIG-0.06  A 
ATOM     20  CD1 PHE E1026     -51.744  24.649  -2.747  1.00 42.20 LIG 0.01  A 
ATOM     21  CE1 PHE E1026     -52.982  25.014  -2.246  1.00 42.54 LIG 0.00  A 
ATOM     22  CZ  PHE E1026     -54.090  24.977  -3.052  1.00 41.81 LIG 0.00  A 
ATOM     23  CE2 PHE E1026     -53.981  24.570  -4.355  1.00 44.36 LIG 0.00  A 
ATOM     24  CD2 PHE E1026     -52.744  24.198  -4.858  1.00 42.30 LIG 0.01  A 
ENDBRANCH 18 19
ENDBRANCH 17 18
BRANCH 17 25
ATOM     25  C   PHE E1026     -50.199  26.305  -4.931  1.00 38.60 LIG 0.24  C 
ATOM     26  N   ASN E1027     -50.859  26.559  -6.089  1.00 38.80 LIG-0.35  N 
ATOM     27 H    ASN E1027     -50.798  26.046  -6.776  1.00 38.80 LIG 0.16  HD
ATOM     28 O    PHE E1026     -50.287  27.001  -3.922  1.00 31.59 LIG-0.27  OA
BRANCH 26 29
ATOM     29  CA  ASN E1027     -51.740  27.712  -6.312  1.00 74.37 LIG 0.17  C 
BRANCH 29 30
ATOM     30  CB  ASN E1027     -51.396  28.395  -7.631  1.00 75.17 LIG 0.14  C 
BRANCH 30 31
ATOM     31  CG  ASN E1027     -51.128  29.872  -7.484  1.00 99.64 LIG 0.22  C 
ATOM     32  ND2 ASN E1027     -51.136  30.613  -8.589  1.00 92.55 LIG-0.37  N 
ATOM     33 22HD ASN E1027     -51.297  30.247  -9.350  1.00 92.55 LIG 0.16  HD
ATOM     34 21HD ASN E1027     -50.981  31.457  -8.542  1.00 92.55 LIG 0.16  HD
ATOM     35 OD1  ASN E1027     -50.901  30.367  -6.378  1.00 94.01 LIG-0.27  OA
ENDBRANCH 30 31
ENDBRANCH 29 30
BRANCH 29 36
ATOM     36  C   ASN E1027     -53.200  27.263  -6.339  1.00103.37 LIG 0.22  C 
ATOM     37 O    ASN E1027     -53.727  26.931  -7.397  1.00 69.20 LIG-0.29  OA
ENDBRANCH 29 36
ENDBRANCH 26 29
ENDBRANCH 17 25
ENDBRANCH 15 17
ENDBRANCH 12 13
BRANCH 12 38
ATOM     38  CB  ILE E1025     -44.799  25.373  -3.508  1.00 40.50 LIG 0.01  C 
ATOM     39  CG2 ILE E1025     -45.049  24.138  -4.386  1.00 43.95 LIG 0.01  C 
BRANCH 38 40
ATOM     40  CG1 ILE E1025     -43.776  26.304  -4.158  1.00 41.58 LIG 0.00  C 
ATOM     41  CD1 ILE E1025     -44.427  27.712  -4.643  1.00 52.05 LIG 0.01  C 
ENDBRANCH 38 40
ENDBRANCH 12 38
ENDBRANCH 10 12
ENDBRANCH 4 8
BRANCH 1 42
ATOM     42  CA  ILE E1023     -49.662  27.942   2.225  1.00 36.06 LIG 0.18  C 
BRANCH 42 43
ATOM     43  N   ILE E1023     -49.202  28.036   3.624  1.00 37.96 LIG-0.35  N 
ATOM     44  C   ARG E1022     -50.045  28.223   4.662  1.00 45.42 LIG 0.24  C 
ATOM     45 O    ARG E1022     -51.254  28.407   4.522  1.00 45.23 LIG-0.27  OA
ATOM     46 H    ILE E1023     -48.351  27.961   3.715  1.00 37.96 LIG 0.16  HD
BRANCH 44 47
ATOM     47  CA  ARG E1022     -49.459  28.282   6.074  1.00 45.59 LIG 0.18  C 
BRANCH 47 48
ATOM     48  N   ARG E1022     -48.591  27.135   6.389  1.00 48.30 LIG-0.35  N 
ATOM     49 H    ARG E1022     -47.850  27.120   5.954  1.00 48.30 LIG 0.16  HD
ATOM     50  C   ILE E1021     -48.955  26.198   7.293  1.00 57.51 LIG 0.26  C 
ATOM     51 O    ILE E1021     -50.026  26.243   7.910  1.00 59.03 LIG-0.27  OA
BRANCH 50 52
ATOM     52  CA  ILE E1021     -47.981  25.039   7.566  1.00 57.59 LIG 0.40  C 
ATOM     53  N   ILE E1021     -47.976  24.761   8.999  1.00 58.96 LIG 0.61  N 
BRANCH 52 54
ATOM     54  CB  ILE E1021     -48.393  23.725   6.845  1.00 60.58 LIG 0.03  C 
ATOM     55  CG2 ILE E1021     -49.765  23.217   7.278  1.00 61.37 LIG 0.01  C 
BRANCH 54 56
ATOM     56  CG1 ILE E1021     -48.333  23.905   5.308  1.00 60.59 LIG 0.00  C 
ATOM     57  CD1 ILE E1021     -49.677  23.940   4.682  1.00 60.15 LIG 0.01  C 
ENDBRANCH 54 56
ENDBRANCH 52 54
ENDBRANCH 50 52
ENDBRANCH 47 48
BRANCH 47 58
ATOM     58  CB  ARG E1022     -48.726  29.619   6.243  1.00 44.33 LIG 0.04  C 
BRANCH 58 59
ATOM     59  CG  ARG E1022     -49.230  30.432   7.429  1.00 47.73 LIG 0.02  C 
BRANCH 59 60
ATOM     60  CD  ARG E1022     -50.095  31.606   7.020  1.00 47.87 LIG 0.14  C 
BRANCH 60 61
ATOM     61  NE  ARG E1022     -49.404  32.870   7.271  1.00 55.98 LIG-0.23  N 
ATOM     62  CZ  ARG E1022     -49.822  34.080   6.911  1.00 56.00 LIG 0.67  C 
ATOM     63  NH1 ARG E1022     -50.981  34.236   6.281  1.00 48.69 LIG-0.23  N 
ATOM     64  NH2 ARG E1022     -49.100  35.151   7.208  1.00 32.20 LIG-0.23  N 
ATOM     65 1HH1 ARG E1022     -51.469  33.550   6.103  1.00 48.69 LIG 0.17  HD
ATOM     66 2HH1 ARG E1022     -51.244  35.022   6.052  1.00 48.69 LIG 0.17  HD
ATOM     67 2HH2 ARG E1022     -49.373  35.931   6.973  1.00 32.20 LIG 0.17  HD
ATOM     68 1HH2 ARG E1022     -48.358  35.064   7.635  1.00 32.20 LIG 0.17  HD
ATOM     69 HE   ARG E1022     -48.655  32.826   7.693  1.00 55.98 LIG 0.18  HD
ENDBRANCH 60 61
ENDBRANCH 59 60
ENDBRANCH 58 59
ENDBRANCH 47 58
ENDBRANCH 44 47
ENDBRANCH 42 43
BRANCH 42 70
ATOM     70  CB  ILE E1023     -49.813  29.337   1.533  1.00 38.78 LIG 0.01  C 
ATOM     71  CG2 ILE E1023     -49.118  30.430   2.359  1.00 39.01 LIG 0.01  C 
BRANCH 70 72
ATOM     72  CG1 ILE E1023     -49.326  29.349   0.053  1.00 39.61 LIG 0.00  C 
ATOM     73  CD1 ILE E1023     -48.030  30.060  -0.245  1.00 43.21 LIG 0.01  C 
ENDBRANCH 70 72
ENDBRANCH 42 70
ENDBRANCH 1 42
TORSDOF 26
ENDMDL
MODEL 48
USER: ADFR SOLUTION from run 104
USER: SCORE 22.508464 LL:  -6.061 LR: -17.708 RR:   0.000 FEB:  -9.952
USER: RMSD 12.335070
USER: SEED 103
USER: STATUS no improvement in best in 14 clusters for 5 generations
USER: GENES 28
USER: genes 0 Translation |==|  0.40197 0.61104 0.68012
USER: genes 1 Rotation |==|  0.03109 0.65344 0.47110 0.57579
USER: genes 2 Torsion [N]-CA--C-[O] |==|  0.28249
USER: genes 3 Torsion [C]-N--CA-[CB] |==|  0.55000
USER: genes 4 Torsion [N]-CA--C-[N] |==|  0.34578
USER: genes 5 Torsion [C]-N--CA-[C] |==|  0.70837
USER: genes 6 Torsion [N]-CA--CB-[CG] |==|  0.76599
USER: genes 7 Torsion [CA]-CB--CG-[CD1] |==|  0.02542
USER: genes 8 Torsion [N]-CA--C-[N] |==|  0.43388
USER: genes 9 Torsion [C]-N--CA-[C] |==|  0.57391
USER: genes 10 Torsion [N]-CA--CB-[CG] |==|  0.70255
USER: genes 11 Torsion [CA]-CB--CG-[OD1] |==|  0.04622
USER: genes 12 Torsion [N]-CA--C-[O] |==|  0.90626
USER: genes 13 Torsion [N]-CA--CB-[CG2] |==|  0.43451
USER: genes 14 Torsion [CA]-CB--CG1-[CD1] |==|  0.05923
USER: genes 15 Torsion [N]-C--CA-[N] |==|  0.15014
USER: genes 16 Torsion [C]-CA--N-[C] |==|  0.56852
USER: genes 17 Torsion [N]-C--CA-[N] |==|  0.87819
USER: genes 18 Torsion [C]-CA--N-[C] |==|  0.80755
USER: genes 19 Torsion [N]-C--CA-[N] |==|  0.49280
USER: genes 20 Torsion [C]-CA--CB-[CG1] |==|  0.47114
USER: genes 21 Torsion [CA]-CB--CG1-[CD1] |==|  0.95784
USER: genes 22 Torsion [C]-CA--CB-[CG] |==|  0.88370
USER: genes 23 Torsion [CA]-CB--CG-[CD] |==|  0.35481
USER: genes 24 Torsion [CB]-CG--CD-[NE] |==|  0.92498
USER: genes 25 Torsion [CG]-CD--NE-[CZ] |==|  0.66453
USER: genes 26 Torsion [C]-CA--CB-[CG1] |==|  0.17247
USER: genes 27 Torsion [CA]-CB--CG1-[CD1] |==|  0.50097
ROOT
ATOM      1  C   ILE E1023     -49.826  27.612   5.592  1.00 40.02 LIG 0.24  C 
ATOM      2 O    ILE E1023     -50.519  26.595   5.435  1.00 38.38 LIG-0.27  OA
ATOM      3  N   PRO E1024     -50.073  28.781   4.949  1.00 37.38 LIG-0.34  N 
ATOM      4  CA  PRO E1024     -51.117  28.829   3.915  1.00 36.67 LIG 0.18  C 
ATOM      5  CB  PRO E1024     -51.343  30.324   3.707  1.00 38.74 LIG 0.04  C 
ATOM      6  CG  PRO E1024     -50.048  30.957   4.051  1.00 43.33 LIG 0.02  C 
ATOM      7  CD  PRO E1024     -49.341  30.066   5.032  1.00 39.42 LIG 0.13  C 
ENDROOT
BRANCH 4 8
ATOM      8  C   PRO E1024     -50.596  28.150   2.655  1.00 39.60 LIG 0.24  C 
ATOM      9 O    PRO E1024     -50.959  27.003   2.400  1.00 37.18 LIG-0.27  OA
ATOM     10  N   ILE E1025     -49.780  28.877   1.864  1.00 37.20 LIG-0.35  N 
ATOM     11 H    ILE E1025     -49.555  29.681   2.070  1.00 37.20 LIG 0.16  HD
BRANCH 10 12
ATOM     12  CA  ILE E1025     -49.179  28.443   0.595  1.00 37.42 LIG 0.18  C 
BRANCH 12 13
ATOM     13  C   ILE E1025     -48.569  27.051   0.734  1.00 40.88 LIG 0.24  C 
ATOM     14 O    ILE E1025     -47.595  26.898   1.473  1.00 40.29 LIG-0.27  OA
ATOM     15  N   PHE E1026     -48.979  26.095  -0.124  1.00 36.23 LIG-0.35  N 
ATOM     16 H    PHE E1026     -49.662  26.169  -0.640  1.00 36.23 LIG 0.16  HD
BRANCH 15 17
ATOM     17  CA  PHE E1026     -48.261  24.819  -0.234  1.00 36.58 LIG 0.18  C 
BRANCH 17 18
ATOM     18  CB  PHE E1026     -49.215  23.629  -0.184  1.00 38.58 LIG 0.07  C 
BRANCH 18 19
ATOM     19  CG  PHE E1026     -49.552  23.223   1.220  1.00 40.24 LIG-0.06  A 
ATOM     20  CD1 PHE E1026     -49.174  24.007   2.289  1.00 42.20 LIG 0.01  A 
ATOM     21  CE1 PHE E1026     -49.476  23.625   3.585  1.00 42.54 LIG 0.00  A 
ATOM     22  CZ  PHE E1026     -50.158  22.459   3.819  1.00 41.81 LIG 0.00  A 
ATOM     23  CE2 PHE E1026     -50.537  21.662   2.773  1.00 44.36 LIG 0.00  A 
ATOM     24  CD2 PHE E1026     -50.232  22.038   1.474  1.00 42.30 LIG 0.01  A 
ENDBRANCH 18 19
ENDBRANCH 17 18
BRANCH 17 25
ATOM     25  C   PHE E1026     -47.437  24.771  -1.508  1.00 38.60 LIG 0.24  C 
ATOM     26  N   ASN E1027     -46.378  23.922  -1.500  1.00 38.80 LIG-0.35  N 
ATOM     27 H    ASN E1027     -46.167  23.455  -0.809  1.00 38.80 LIG 0.16  HD
ATOM     28 O    PHE E1026     -47.783  25.430  -2.485  1.00 31.59 LIG-0.27  OA
BRANCH 26 29
ATOM     29  CA  ASN E1027     -45.480  23.698  -2.639  1.00 74.37 LIG 0.17  C 
BRANCH 29 30
ATOM     30  CB  ASN E1027     -44.369  24.743  -2.653  1.00 75.17 LIG 0.14  C 
BRANCH 30 31
ATOM     31  CG  ASN E1027     -44.534  25.771  -3.744  1.00 99.64 LIG 0.22  C 
ATOM     32  ND2 ASN E1027     -43.477  26.516  -4.054  1.00 92.55 LIG-0.37  N 
ATOM     33 22HD ASN E1027     -42.732  26.397  -3.641  1.00 92.55 LIG 0.16  HD
ATOM     34 21HD ASN E1027     -43.538  27.116  -4.666  1.00 92.55 LIG 0.16  HD
ATOM     35 OD1  ASN E1027     -45.615  25.917  -4.318  1.00 94.01 LIG-0.27  OA
ENDBRANCH 30 31
ENDBRANCH 29 30
BRANCH 29 36
ATOM     36  C   ASN E1027     -44.863  22.303  -2.557  1.00103.37 LIG 0.22  C 
ATOM     37 O    ASN E1027     -44.606  21.801  -1.466  1.00 69.20 LIG-0.29  OA
ENDBRANCH 29 36
ENDBRANCH 26 29
ENDBRANCH 17 25
ENDBRANCH 15 17
ENDBRANCH 12 13
BRANCH 12 38
ATOM     38  CB  ILE E1025     -47.958  29.409   0.265  1.00 40.50 LIG 0.01  C 
ATOM     39  CG2 ILE E1025     -46.938  28.739  -0.667  1.00 43.95 LIG 0.01  C 
BRANCH 38 40
ATOM     40  CG1 ILE E1025     -48.394  30.764  -0.292  1.00 41.58 LIG 0.00  C 
ATOM     41  CD1 ILE E1025     -49.932  31.131   0.083  1.00 52.05 LIG 0.01  C 
ENDBRANCH 38 40
ENDBRANCH 12 38
ENDBRANCH 10 12
ENDBRANCH 4 8
BRANCH 1 42
ATOM     42  CA  ILE E1023     -48.713  27.575   6.624  1.00 36.06 LIG 0.18  C 
BRANCH 42 43
ATOM     43  N   ILE E1023     -48.992  28.657   7.587  1.00 37.96 LIG-0.35  N 
ATOM     44  C   ARG E1022     -48.030  29.242   8.331  1.00 45.42 LIG 0.24  C 
ATOM     45 O    ARG E1022     -46.856  28.871   8.326  1.00 45.23 LIG-0.27  OA
ATOM     46 H    ILE E1023     -49.821  28.880   7.629  1.00 37.96 LIG 0.16  HD
BRANCH 44 47
ATOM     47  CA  ARG E1022     -48.430  30.373   9.280  1.00 45.59 LIG 0.18  C 
BRANCH 47 48
ATOM     48  N   ARG E1022     -49.363  31.336   8.673  1.00 48.30 LIG-0.35  N 
ATOM     49 H    ARG E1022     -50.159  31.315   8.999  1.00 48.30 LIG 0.16  HD
ATOM     50  C   ILE E1021     -48.975  32.174   7.686  1.00 57.51 LIG 0.26  C 
ATOM     51 O    ILE E1021     -47.823  32.189   7.235  1.00 59.03 LIG-0.27  OA
BRANCH 50 52
ATOM     52  CA  ILE E1021     -50.015  33.154   7.117  1.00 57.59 LIG 0.40  C 
ATOM     53  N   ILE E1021     -49.366  33.995   6.116  1.00 58.96 LIG 0.61  N 
BRANCH 52 54
ATOM     54  CB  ILE E1021     -51.198  32.432   6.412  1.00 60.58 LIG 0.03  C 
ATOM     55  CG2 ILE E1021     -51.732  31.249   7.213  1.00 61.37 LIG 0.01  C 
BRANCH 54 56
ATOM     56  CG1 ILE E1021     -52.334  33.435   6.090  1.00 60.59 LIG 0.00  C 
ATOM     57  CD1 ILE E1021     -52.194  34.715   6.826  1.00 60.15 LIG 0.01  C 
ENDBRANCH 54 56
ENDBRANCH 52 54
ENDBRANCH 50 52
ENDBRANCH 47 48
BRANCH 47 58
ATOM     58  CB  ARG E1022     -49.000  29.755  10.563  1.00 44.33 LIG 0.04  C 
BRANCH 58 59
ATOM     59  CG  ARG E1022     -49.921  28.570  10.301  1.00 47.73 LIG 0.02  C 
BRANCH 59 60
ATOM     60  CD  ARG E1022     -49.541  27.335  11.091  1.00 47.87 LIG 0.14  C 
BRANCH 60 61
ATOM     61  NE  ARG E1022     -48.111  27.336  11.396  1.00 55.98 LIG-0.23  N 
ATOM     62  CZ  ARG E1022     -47.229  26.407  11.037  1.00 56.00 LIG 0.67  C 
ATOM     63  NH1 ARG E1022     -47.607  25.362  10.310  1.00 48.69 LIG-0.23  N 
ATOM     64  NH2 ARG E1022     -45.954  26.532  11.374  1.00 32.20 LIG-0.23  N 
ATOM     65 1HH1 ARG E1022     -48.428  25.281  10.067  1.00 48.69 LIG 0.17  HD
ATOM     66 2HH1 ARG E1022     -47.031  24.766  10.082  1.00 48.69 LIG 0.17  HD
ATOM     67 2HH2 ARG E1022     -45.387  25.930  11.141  1.00 32.20 LIG 0.17  HD
ATOM     68 1HH2 ARG E1022     -45.694  27.216  11.827  1.00 32.20 LIG 0.17  HD
ATOM     69 HE   ARG E1022     -47.811  28.002  11.851  1.00 55.98 LIG 0.18  HD
ENDBRANCH 60 61
ENDBRANCH 59 60
ENDBRANCH 58 59
ENDBRANCH 47 58
ENDBRANCH 44 47
ENDBRANCH 42 43
BRANCH 42 70
ATOM     70  CB  ILE E1023     -48.668  26.159   7.288  1.00 38.78 LIG 0.01  C 
ATOM     71  CG2 ILE E1023     -49.966  25.882   8.062  1.00 39.01 LIG 0.01  C 
BRANCH 70 72
ATOM     72  CG1 ILE E1023     -48.354  25.013   6.281  1.00 39.61 LIG 0.00  C 
ATOM     73  CD1 ILE E1023     -48.296  23.607   6.825  1.00 43.21 LIG 0.01  C 
ENDBRANCH 70 72
ENDBRANCH 42 70
ENDBRANCH 1 42
TORSDOF 26
ENDMDL
MODEL 49
USER: ADFR SOLUTION from run 89
USER: SCORE 23.774960 LL:  -6.955 LR: -17.689 RR:   0.000 FEB:  -9.933
USER: RMSD 4.984749
USER: SEED 88
USER: STATUS no improvement in best in 3 clusters for 5 generations
USER: GENES 28
USER: genes 0 Translation |==|  0.58381 0.49139 0.37492
USER: genes 1 Rotation |==|  0.56508 0.27506 0.36549 0.92080
USER: genes 2 Torsion [N]-CA--C-[O] |==|  0.41993
USER: genes 3 Torsion [C]-N--CA-[CB] |==|  0.58581
USER: genes 4 Torsion [N]-CA--C-[N] |==|  0.38365
USER: genes 5 Torsion [C]-N--CA-[C] |==|  0.66036
USER: genes 6 Torsion [N]-CA--CB-[CG] |==|  0.79312
USER: genes 7 Torsion [CA]-CB--CG-[CD1] |==|  0.92187
USER: genes 8 Torsion [N]-CA--C-[N] |==|  0.37436
USER: genes 9 Torsion [C]-N--CA-[C] |==|  0.62247
USER: genes 10 Torsion [N]-CA--CB-[CG] |==|  0.86411
USER: genes 11 Torsion [CA]-CB--CG-[OD1] |==|  0.81086
USER: genes 12 Torsion [N]-CA--C-[O] |==|  0.99542
USER: genes 13 Torsion [N]-CA--CB-[CG2] |==|  0.47979
USER: genes 14 Torsion [CA]-CB--CG1-[CD1] |==|  0.23994
USER: genes 15 Torsion [N]-C--CA-[N] |==|  0.25556
USER: genes 16 Torsion [C]-CA--N-[C] |==|  0.68438
USER: genes 17 Torsion [N]-C--CA-[N] |==|  0.89898
USER: genes 18 Torsion [C]-CA--N-[C] |==|  0.85498
USER: genes 19 Torsion [N]-C--CA-[N] |==|  0.44522
USER: genes 20 Torsion [C]-CA--CB-[CG1] |==|  0.97673
USER: genes 21 Torsion [CA]-CB--CG1-[CD1] |==|  0.42515
USER: genes 22 Torsion [C]-CA--CB-[CG] |==|  0.15598
USER: genes 23 Torsion [CA]-CB--CG-[CD] |==|  0.27689
USER: genes 24 Torsion [CB]-CG--CD-[NE] |==|  0.56592
USER: genes 25 Torsion [CG]-CD--NE-[CZ] |==|  0.67838
USER: genes 26 Torsion [C]-CA--CB-[CG1] |==|  0.47910
USER: genes 27 Torsion [CA]-CB--CG1-[CD1] |==|  0.93816
ROOT
ATOM      1  C   ILE E1023     -47.099  24.830  -3.107  1.00 40.02 LIG 0.24  C 
ATOM      2 O    ILE E1023     -46.470  25.798  -2.654  1.00 38.38 LIG-0.27  OA
ATOM      3  N   PRO E1024     -48.394  24.910  -3.504  1.00 37.38 LIG-0.34  N 
ATOM      4  CA  PRO E1024     -49.144  26.152  -3.270  1.00 36.67 LIG 0.18  C 
ATOM      5  CB  PRO E1024     -50.380  25.993  -4.151  1.00 38.74 LIG 0.04  C 
ATOM      6  CG  PRO E1024     -50.595  24.530  -4.244  1.00 43.33 LIG 0.02  C 
ATOM      7  CD  PRO E1024     -49.269  23.851  -4.057  1.00 39.42 LIG 0.13  C 
ENDROOT
BRANCH 4 8
ATOM      8  C   PRO E1024     -49.505  26.239  -1.792  1.00 39.60 LIG 0.24  C 
ATOM      9 O    PRO E1024     -49.635  27.347  -1.273  1.00 37.18 LIG-0.27  OA
ATOM     10  N   ILE E1025     -49.699  25.074  -1.142  1.00 37.20 LIG-0.35  N 
ATOM     11 H    ILE E1025     -49.608  24.317  -1.541  1.00 37.20 LIG 0.16  HD
BRANCH 10 12
ATOM     12  CA  ILE E1025     -50.074  24.912   0.270  1.00 37.42 LIG 0.18  C 
BRANCH 12 13
ATOM     13  C   ILE E1025     -49.454  26.014   1.124  1.00 40.88 LIG 0.24  C 
ATOM     14 O    ILE E1025     -48.240  26.212   1.053  1.00 40.29 LIG-0.27  OA
ATOM     15  N   PHE E1026     -50.220  26.576   2.081  1.00 36.23 LIG-0.35  N 
ATOM     16 H    PHE E1026     -51.070  26.466   2.147  1.00 36.23 LIG 0.16  HD
BRANCH 15 17
ATOM     17  CA  PHE E1026     -49.631  27.442   3.111  1.00 36.58 LIG 0.18  C 
BRANCH 17 18
ATOM     18  CB  PHE E1026     -50.130  28.878   2.991  1.00 38.58 LIG 0.07  C 
BRANCH 18 19
ATOM     19  CG  PHE E1026     -49.511  29.606   1.834  1.00 40.24 LIG-0.06  A 
ATOM     20  CD1 PHE E1026     -48.256  29.264   1.378  1.00 42.20 LIG 0.01  A 
ATOM     21  CE1 PHE E1026     -47.681  29.944   0.318  1.00 42.54 LIG 0.00  A 
ATOM     22  CZ  PHE E1026     -48.358  30.968  -0.292  1.00 41.81 LIG 0.00  A 
ATOM     23  CE2 PHE E1026     -49.603  31.330   0.149  1.00 44.36 LIG 0.00  A 
ATOM     24  CD2 PHE E1026     -50.179  30.655   1.213  1.00 42.30 LIG 0.01  A 
ENDBRANCH 18 19
ENDBRANCH 17 18
BRANCH 17 25
ATOM     25  C   PHE E1026     -49.921  26.905   4.500  1.00 38.60 LIG 0.24  C 
ATOM     26  N   ASN E1027     -48.874  26.887   5.362  1.00 38.80 LIG-0.35  N 
ATOM     27 H    ASN E1027     -48.084  27.141   5.133  1.00 38.80 LIG 0.16  HD
ATOM     28 O    PHE E1026     -51.066  26.577   4.801  1.00 31.59 LIG-0.27  OA
BRANCH 26 29
ATOM     29  CA  ASN E1027     -48.950  26.445   6.760  1.00 74.37 LIG 0.17  C 
BRANCH 29 30
ATOM     30  CB  ASN E1027     -48.357  25.048   6.907  1.00 75.17 LIG 0.14  C 
BRANCH 30 31
ATOM     31  CG  ASN E1027     -48.883  24.068   5.888  1.00 99.64 LIG 0.22  C 
ATOM     32  ND2 ASN E1027     -48.037  23.632   4.959  1.00 92.55 LIG-0.37  N 
ATOM     33 22HD ASN E1027     -47.222  23.905   4.958  1.00 92.55 LIG 0.16  HD
ATOM     34 21HD ASN E1027     -48.306  23.078   4.358  1.00 92.55 LIG 0.16  HD
ATOM     35 OD1  ASN E1027     -50.058  23.696   5.916  1.00 94.01 LIG-0.27  OA
ENDBRANCH 30 31
ENDBRANCH 29 30
BRANCH 29 36
ATOM     36  C   ASN E1027     -48.192  27.416   7.662  1.00103.37 LIG 0.22  C 
ATOM     37 O    ASN E1027     -47.606  28.382   7.181  1.00 69.20 LIG-0.29  OA
ENDBRANCH 29 36
ENDBRANCH 26 29
ENDBRANCH 17 25
ENDBRANCH 15 17
ENDBRANCH 12 13
BRANCH 12 38
ATOM     38  CB  ILE E1025     -49.439  23.554   0.804  1.00 40.50 LIG 0.01  C 
ATOM     39  CG2 ILE E1025     -49.630  23.393   2.319  1.00 43.95 LIG 0.01  C 
BRANCH 38 40
ATOM     40  CG1 ILE E1025     -49.941  22.318   0.058  1.00 41.58 LIG 0.00  C 
ATOM     41  CD1 ILE E1025     -49.082  22.003  -1.285  1.00 52.05 LIG 0.01  C 
ENDBRANCH 38 40
ENDBRANCH 12 38
ENDBRANCH 10 12
ENDBRANCH 4 8
BRANCH 1 42
ATOM     42  CA  ILE E1023     -46.357  23.522  -3.319  1.00 36.06 LIG 0.18  C 
BRANCH 42 43
ATOM     43  N   ILE E1023     -45.691  23.621  -4.632  1.00 37.96 LIG-0.35  N 
ATOM     44  C   ARG E1022     -46.031  22.849  -5.686  1.00 45.42 LIG 0.24  C 
ATOM     45 O    ARG E1022     -46.868  21.949  -5.619  1.00 45.23 LIG-0.27  OA
ATOM     46 H    ILE E1023     -45.069  24.213  -4.662  1.00 37.96 LIG 0.16  HD
BRANCH 44 47
ATOM     47  CA  ARG E1022     -45.288  23.054  -7.007  1.00 45.59 LIG 0.18  C 
BRANCH 47 48
ATOM     48  N   ARG E1022     -44.955  24.464  -7.272  1.00 48.30 LIG-0.35  N 
ATOM     49 H    ARG E1022     -44.128  24.605  -7.458  1.00 48.30 LIG 0.16  HD
ATOM     50  C   ILE E1021     -45.892  25.436  -7.221  1.00 57.51 LIG 0.26  C 
ATOM     51 O    ILE E1021     -47.079  25.209  -6.955  1.00 59.03 LIG-0.27  OA
BRANCH 50 52
ATOM     52  CA  ILE E1021     -45.456  26.880  -7.520  1.00 57.59 LIG 0.40  C 
ATOM     53  N   ILE E1021     -46.637  27.662  -7.872  1.00 58.96 LIG 0.61  N 
BRANCH 52 54
ATOM     54  CB  ILE E1021     -44.794  27.574  -6.297  1.00 60.58 LIG 0.03  C 
ATOM     55  CG2 ILE E1021     -45.338  28.978  -6.047  1.00 61.37 LIG 0.01  C 
BRANCH 54 56
ATOM     56  CG1 ILE E1021     -44.937  26.697  -5.029  1.00 60.59 LIG 0.00  C 
ATOM     57  CD1 ILE E1021     -43.856  26.934  -4.042  1.00 60.15 LIG 0.01  C 
ENDBRANCH 54 56
ENDBRANCH 52 54
ENDBRANCH 50 52
ENDBRANCH 47 48
BRANCH 47 58
ATOM     58  CB  ARG E1022     -44.042  22.161  -7.012  1.00 44.33 LIG 0.04  C 
BRANCH 58 59
ATOM     59  CG  ARG E1022     -44.359  20.688  -6.784  1.00 47.73 LIG 0.02  C 
BRANCH 59 60
ATOM     60  CD  ARG E1022     -44.389  19.881  -8.066  1.00 47.87 LIG 0.14  C 
BRANCH 60 61
ATOM     61  NE  ARG E1022     -45.210  18.682  -7.903  1.00 55.98 LIG-0.23  N 
ATOM     62  CZ  ARG E1022     -44.784  17.424  -7.965  1.00 56.00 LIG 0.67  C 
ATOM     63  NH1 ARG E1022     -43.499  17.154  -8.167  1.00 48.69 LIG-0.23  N 
ATOM     64  NH2 ARG E1022     -45.634  16.423  -7.792  1.00 32.20 LIG-0.23  N 
ATOM     65 1HH1 ARG E1022     -42.934  17.796  -8.259  1.00 48.69 LIG 0.17  HD
ATOM     66 2HH1 ARG E1022     -43.232  16.337  -8.206  1.00 48.69 LIG 0.17  HD
ATOM     67 2HH2 ARG E1022     -45.356  15.610  -7.833  1.00 32.20 LIG 0.17  HD
ATOM     68 1HH2 ARG E1022     -46.465  16.586  -7.639  1.00 32.20 LIG 0.17  HD
ATOM     69 HE   ARG E1022     -46.048  18.802  -7.752  1.00 55.98 LIG 0.18  HD
ENDBRANCH 60 61
ENDBRANCH 59 60
ENDBRANCH 58 59
ENDBRANCH 47 58
ENDBRANCH 44 47
ENDBRANCH 42 43
BRANCH 42 70
ATOM     70  CB  ILE E1023     -45.355  23.296  -2.138  1.00 38.78 LIG 0.01  C 
ATOM     71  CG2 ILE E1023     -46.039  23.562  -0.789  1.00 39.01 LIG 0.01  C 
BRANCH 70 72
ATOM     72  CG1 ILE E1023     -44.677  21.893  -2.163  1.00 39.61 LIG 0.00  C 
ATOM     73  CD1 ILE E1023     -45.384  20.794  -2.917  1.00 43.21 LIG 0.01  C 
ENDBRANCH 70 72
ENDBRANCH 42 70
ENDBRANCH 1 42
TORSDOF 26
ENDMDL
MODEL 50
USER: ADFR SOLUTION from run 30
USER: SCORE 22.205558 LL:  -5.835 LR: -17.676 RR:   0.000 FEB:  -9.920
USER: RMSD 13.043993
USER: SEED 29
USER: STATUS no improvement in best in 7 clusters for 5 generations
USER: GENES 28
USER: genes 0 Translation |==|  0.47121 0.57839 0.50703
USER: genes 1 Rotation |==|  0.93491 0.66558 0.62259 0.63567
USER: genes 2 Torsion [N]-CA--C-[O] |==|  0.31193
USER: genes 3 Torsion [C]-N--CA-[CB] |==|  0.21864
USER: genes 4 Torsion [N]-CA--C-[N] |==|  0.89049
USER: genes 5 Torsion [C]-N--CA-[C] |==|  0.54604
USER: genes 6 Torsion [N]-CA--CB-[CG] |==|  0.53389
USER: genes 7 Torsion [CA]-CB--CG-[CD1] |==|  0.60033
USER: genes 8 Torsion [N]-CA--C-[N] |==|  0.42855
USER: genes 9 Torsion [C]-N--CA-[C] |==|  0.15339
USER: genes 10 Torsion [N]-CA--CB-[CG] |==|  0.47210
USER: genes 11 Torsion [CA]-CB--CG-[OD1] |==|  0.66781
USER: genes 12 Torsion [N]-CA--C-[O] |==|  0.24376
USER: genes 13 Torsion [N]-CA--CB-[CG2] |==|  0.78250
USER: genes 14 Torsion [CA]-CB--CG1-[CD1] |==|  0.68883
USER: genes 15 Torsion [N]-C--CA-[N] |==|  0.41002
USER: genes 16 Torsion [C]-CA--N-[C] |==|  0.62506
USER: genes 17 Torsion [N]-C--CA-[N] |==|  0.42944
USER: genes 18 Torsion [C]-CA--N-[C] |==|  0.56978
USER: genes 19 Torsion [N]-C--CA-[N] |==|  0.40773
USER: genes 20 Torsion [C]-CA--CB-[CG1] |==|  0.99817
USER: genes 21 Torsion [CA]-CB--CG1-[CD1] |==|  0.72475
USER: genes 22 Torsion [C]-CA--CB-[CG] |==|  0.29173
USER: genes 23 Torsion [CA]-CB--CG-[CD] |==|  0.24696
USER: genes 24 Torsion [CB]-CG--CD-[NE] |==|  0.73917
USER: genes 25 Torsion [CG]-CD--NE-[CZ] |==|  0.74179
USER: genes 26 Torsion [C]-CA--CB-[CG1] |==|  0.39564
USER: genes 27 Torsion [CA]-CB--CG1-[CD1] |==|  0.10163
ROOT
ATOM      1  C   ILE E1023     -48.788  26.853   0.658  1.00 40.02 LIG 0.24  C 
ATOM      2 O    ILE E1023     -48.369  26.189   1.618  1.00 38.38 LIG-0.27  OA
ATOM      3  N   PRO E1024     -49.113  26.299  -0.537  1.00 37.38 LIG-0.34  N 
ATOM      4  CA  PRO E1024     -48.836  24.875  -0.772  1.00 36.67 LIG 0.18  C 
ATOM      5  CB  PRO E1024     -49.648  24.556  -2.024  1.00 38.74 LIG 0.04  C 
ATOM      6  CG  PRO E1024     -49.731  25.838  -2.761  1.00 43.33 LIG 0.02  C 
ATOM      7  CD  PRO E1024     -49.619  26.956  -1.765  1.00 39.42 LIG 0.13  C 
ENDROOT
BRANCH 4 8
ATOM      8  C   PRO E1024     -47.340  24.694  -1.001  1.00 39.60 LIG 0.24  C 
ATOM      9 O    PRO E1024     -46.676  24.087  -0.162  1.00 37.18 LIG-0.27  OA
ATOM     10  N   ILE E1025     -46.835  25.190  -2.149  1.00 37.20 LIG-0.35  N 
ATOM     11 H    ILE E1025     -47.332  25.601  -2.717  1.00 37.20 LIG 0.16  HD
BRANCH 10 12
ATOM     12  CA  ILE E1025     -45.436  25.114  -2.592  1.00 37.42 LIG 0.18  C 
BRANCH 12 13
ATOM     13  C   ILE E1025     -45.185  26.070  -3.757  1.00 40.88 LIG 0.24  C 
ATOM     14 O    ILE E1025     -44.225  26.839  -3.700  1.00 40.29 LIG-0.27  OA
ATOM     15  N   PHE E1026     -46.146  26.186  -4.695  1.00 36.23 LIG-0.35  N 
ATOM     16 H    PHE E1026     -46.819  25.655  -4.766  1.00 36.23 LIG 0.16  HD
BRANCH 15 17
ATOM     17  CA  PHE E1026     -46.105  27.264  -5.691  1.00 36.58 LIG 0.18  C 
BRANCH 17 18
ATOM     18  CB  PHE E1026     -45.029  27.016  -6.744  1.00 38.58 LIG 0.07  C 
BRANCH 18 19
ATOM     19  CG  PHE E1026     -44.769  28.225  -7.593  1.00 40.24 LIG-0.06  A 
ATOM     20  CD1 PHE E1026     -44.475  28.094  -8.934  1.00 42.20 LIG 0.01  A 
ATOM     21  CE1 PHE E1026     -44.224  29.210  -9.713  1.00 42.54 LIG 0.00  A 
ATOM     22  CZ  PHE E1026     -44.266  30.462  -9.158  1.00 41.81 LIG 0.00  A 
ATOM     23  CE2 PHE E1026     -44.548  30.616  -7.827  1.00 44.36 LIG 0.00  A 
ATOM     24  CD2 PHE E1026     -44.795  29.501  -7.042  1.00 42.30 LIG 0.01  A 
ENDBRANCH 18 19
ENDBRANCH 17 18
BRANCH 17 25
ATOM     25  C   PHE E1026     -47.457  27.435  -6.359  1.00 38.60 LIG 0.24  C 
ATOM     26  N   ASN E1027     -47.721  28.667  -6.862  1.00 38.80 LIG-0.35  N 
ATOM     27 H    ASN E1027     -47.168  29.322  -6.788  1.00 38.80 LIG 0.16  HD
ATOM     28 O    PHE E1026     -48.209  26.470  -6.472  1.00 31.59 LIG-0.27  OA
BRANCH 26 29
ATOM     29  CA  ASN E1027     -48.949  29.030  -7.578  1.00 74.37 LIG 0.17  C 
BRANCH 29 30
ATOM     30  CB  ASN E1027     -49.038  28.272  -8.898  1.00 75.17 LIG 0.14  C 
BRANCH 30 31
ATOM     31  CG  ASN E1027     -50.380  28.409  -9.573  1.00 99.64 LIG 0.22  C 
ATOM     32  ND2 ASN E1027     -50.781  29.634  -9.903  1.00 92.55 LIG-0.37  N 
ATOM     33 22HD ASN E1027     -50.277  30.311  -9.736  1.00 92.55 LIG 0.16  HD
ATOM     34 21HD ASN E1027     -51.543  29.749 -10.284  1.00 92.55 LIG 0.16  HD
ATOM     35 OD1  ASN E1027     -51.079  27.420  -9.800  1.00 94.01 LIG-0.27  OA
ENDBRANCH 30 31
ENDBRANCH 29 30
BRANCH 29 36
ATOM     36  C   ASN E1027     -50.173  28.707  -6.723  1.00103.37 LIG 0.22  C 
ATOM     37 O    ASN E1027     -50.606  29.530  -5.922  1.00 69.20 LIG-0.29  OA
ENDBRANCH 29 36
ENDBRANCH 26 29
ENDBRANCH 17 25
ENDBRANCH 15 17
ENDBRANCH 12 13
BRANCH 12 38
ATOM     38  CB  ILE E1025     -45.175  23.658  -3.177  1.00 40.50 LIG 0.01  C 
ATOM     39  CG2 ILE E1025     -44.977  22.623  -2.061  1.00 43.95 LIG 0.01  C 
BRANCH 38 40
ATOM     40  CG1 ILE E1025     -46.254  23.199  -4.158  1.00 41.58 LIG 0.00  C 
ATOM     41  CD1 ILE E1025     -47.149  21.972  -3.579  1.00 52.05 LIG 0.01  C 
ENDBRANCH 38 40
ENDBRANCH 12 38
ENDBRANCH 10 12
ENDBRANCH 4 8
BRANCH 1 42
ATOM     42  CA  ILE E1023     -49.043  28.336   0.862  1.00 36.06 LIG 0.18  C 
BRANCH 42 43
ATOM     43  N   ILE E1023     -49.374  28.517   2.289  1.00 37.96 LIG-0.35  N 
ATOM     44  C   ARG E1022     -50.402  29.284   2.711  1.00 45.42 LIG 0.24  C 
ATOM     45 O    ARG E1022     -51.098  29.955   1.949  1.00 45.23 LIG-0.27  OA
ATOM     46 H    ILE E1023     -48.853  28.089   2.823  1.00 37.96 LIG 0.16  HD
BRANCH 44 47
ATOM     47  CA  ARG E1022     -50.668  29.380   4.214  1.00 45.59 LIG 0.18  C 
BRANCH 47 48
ATOM     48  N   ARG E1022     -51.356  30.622   4.602  1.00 48.30 LIG-0.35  N 
ATOM     49 H    ARG E1022     -51.824  30.980   3.976  1.00 48.30 LIG 0.16  HD
ATOM     50  C   ILE E1021     -51.245  31.135   5.848  1.00 57.51 LIG 0.26  C 
ATOM     51 O    ILE E1021     -50.568  30.599   6.734  1.00 59.03 LIG-0.27  OA
BRANCH 50 52
ATOM     52  CA  ILE E1021     -52.007  32.432   6.168  1.00 57.59 LIG 0.40  C 
ATOM     53  N   ILE E1021     -52.424  32.397   7.566  1.00 58.96 LIG 0.61  N 
BRANCH 52 54
ATOM     54  CB  ILE E1021     -51.132  33.704   5.982  1.00 60.58 LIG 0.03  C 
ATOM     55  CG2 ILE E1021     -51.092  34.582   7.230  1.00 61.37 LIG 0.01  C 
BRANCH 54 56
ATOM     56  CG1 ILE E1021     -49.701  33.321   5.534  1.00 60.59 LIG 0.00  C 
ATOM     57  CD1 ILE E1021     -48.731  33.312   6.656  1.00 60.15 LIG 0.01  C 
ENDBRANCH 54 56
ENDBRANCH 52 54
ENDBRANCH 50 52
ENDBRANCH 47 48
BRANCH 47 58
ATOM     58  CB  ARG E1022     -51.445  28.133   4.653  1.00 44.33 LIG 0.04  C 
BRANCH 58 59
ATOM     59  CG  ARG E1022     -50.588  27.129   5.414  1.00 47.73 LIG 0.02  C 
BRANCH 59 60
ATOM     60  CD  ARG E1022     -50.561  27.381   6.907  1.00 47.87 LIG 0.14  C 
BRANCH 60 61
ATOM     61  NE  ARG E1022     -49.409  28.204   7.272  1.00 55.98 LIG-0.23  N 
ATOM     62  CZ  ARG E1022     -48.217  27.759   7.660  1.00 56.00 LIG 0.67  C 
ATOM     63  NH1 ARG E1022     -47.968  26.456   7.722  1.00 48.69 LIG-0.23  N 
ATOM     64  NH2 ARG E1022     -47.250  28.615   7.957  1.00 32.20 LIG-0.23  N 
ATOM     65 1HH1 ARG E1022     -48.581  25.891   7.510  1.00 48.69 LIG 0.17  HD
ATOM     66 2HH1 ARG E1022     -47.195  26.177   7.974  1.00 48.69 LIG 0.17  HD
ATOM     67 2HH2 ARG E1022     -46.481  28.325   8.208  1.00 32.20 LIG 0.17  HD
ATOM     68 1HH2 ARG E1022     -47.393  29.462   7.900  1.00 32.20 LIG 0.17  HD
ATOM     69 HE   ARG E1022     -49.512  29.057   7.231  1.00 55.98 LIG 0.18  HD
ENDBRANCH 60 61
ENDBRANCH 59 60
ENDBRANCH 58 59
ENDBRANCH 47 58
ENDBRANCH 44 47
ENDBRANCH 42 43
BRANCH 42 70
ATOM     70  CB  ILE E1023     -47.780  29.145   0.418  1.00 38.78 LIG 0.01  C 
ATOM     71  CG2 ILE E1023     -46.856  28.277  -0.449  1.00 39.01 LIG 0.01  C 
BRANCH 70 72
ATOM     72  CG1 ILE E1023     -48.125  30.489  -0.292  1.00 39.61 LIG 0.00  C 
ATOM     73  CD1 ILE E1023     -49.319  31.256   0.217  1.00 43.21 LIG 0.01  C 
ENDBRANCH 70 72
ENDBRANCH 42 70
ENDBRANCH 1 42
TORSDOF 26
ENDMDL
MODEL 51
USER: ADFR SOLUTION from run 35
USER: SCORE 21.361579 LL:  -5.157 LR: -17.670 RR:   0.000 FEB:  -9.914
USER: RMSD 13.242075
USER: SEED 34
USER: STATUS no improvement in best in 11 clusters for 5 generations
USER: GENES 28
USER: genes 0 Translation |==|  0.46734 0.58105 0.53584
USER: genes 1 Rotation |==|  0.83906 0.81672 0.34557 0.60430
USER: genes 2 Torsion [N]-CA--C-[O] |==|  0.85147
USER: genes 3 Torsion [C]-N--CA-[CB] |==|  0.85543
USER: genes 4 Torsion [N]-CA--C-[N] |==|  0.45435
USER: genes 5 Torsion [C]-N--CA-[C] |==|  0.72673
USER: genes 6 Torsion [N]-CA--CB-[CG] |==|  0.49993
USER: genes 7 Torsion [CA]-CB--CG-[CD1] |==|  0.21686
USER: genes 8 Torsion [N]-CA--C-[N] |==|  0.88044
USER: genes 9 Torsion [C]-N--CA-[C] |==|  0.78504
USER: genes 10 Torsion [N]-CA--CB-[CG] |==|  0.08123
USER: genes 11 Torsion [CA]-CB--CG-[OD1] |==|  0.77237
USER: genes 12 Torsion [N]-CA--C-[O] |==|  0.14825
USER: genes 13 Torsion [N]-CA--CB-[CG2] |==|  0.26478
USER: genes 14 Torsion [CA]-CB--CG1-[CD1] |==|  0.03749
USER: genes 15 Torsion [N]-C--CA-[N] |==|  0.30425
USER: genes 16 Torsion [C]-CA--N-[C] |==|  0.55852
USER: genes 17 Torsion [N]-C--CA-[N] |==|  0.45167
USER: genes 18 Torsion [C]-CA--N-[C] |==|  0.58307
USER: genes 19 Torsion [N]-C--CA-[N] |==|  0.04950
USER: genes 20 Torsion [C]-CA--CB-[CG1] |==|  0.23982
USER: genes 21 Torsion [CA]-CB--CG1-[CD1] |==|  0.67353
USER: genes 22 Torsion [C]-CA--CB-[CG] |==|  0.27523
USER: genes 23 Torsion [CA]-CB--CG-[CD] |==|  0.22526
USER: genes 24 Torsion [CB]-CG--CD-[NE] |==|  0.38490
USER: genes 25 Torsion [CG]-CD--NE-[CZ] |==|  0.74798
USER: genes 26 Torsion [C]-CA--CB-[CG1] |==|  0.51979
USER: genes 27 Torsion [CA]-CB--CG1-[CD1] |==|  0.36595
ROOT
ATOM      1  C   ILE E1023     -48.846  26.914   1.479  1.00 40.02 LIG 0.24  C 
ATOM      2 O    ILE E1023     -47.608  26.976   1.495  1.00 38.38 LIG-0.27  OA
ATOM      3  N   PRO E1024     -49.529  25.744   1.542  1.00 37.38 LIG-0.34  N 
ATOM      4  CA  PRO E1024     -48.790  24.474   1.487  1.00 36.67 LIG 0.18  C 
ATOM      5  CB  PRO E1024     -49.819  23.443   1.944  1.00 38.74 LIG 0.04  C 
ATOM      6  CG  PRO E1024     -51.130  24.018   1.561  1.00 43.33 LIG 0.02  C 
ATOM      7  CD  PRO E1024     -50.992  25.513   1.531  1.00 39.42 LIG 0.13  C 
ENDROOT
BRANCH 4 8
ATOM      8  C   PRO E1024     -48.335  24.229   0.054  1.00 39.60 LIG 0.24  C 
ATOM      9 O    PRO E1024     -49.167  24.260  -0.851  1.00 37.18 LIG-0.27  OA
ATOM     10  N   ILE E1025     -47.016  24.024  -0.140  1.00 37.20 LIG-0.35  N 
ATOM     11 H    ILE E1025     -46.461  24.019   0.517  1.00 37.20 LIG 0.16  HD
BRANCH 10 12
ATOM     12  CA  ILE E1025     -46.348  23.792  -1.428  1.00 37.42 LIG 0.18  C 
BRANCH 12 13
ATOM     13  C   ILE E1025     -46.496  25.006  -2.341  1.00 40.88 LIG 0.24  C 
ATOM     14 O    ILE E1025     -47.473  25.744  -2.198  1.00 40.29 LIG-0.27  OA
ATOM     15  N   PHE E1026     -45.674  25.099  -3.406  1.00 36.23 LIG-0.35  N 
ATOM     16 H    PHE E1026     -44.978  24.607  -3.524  1.00 36.23 LIG 0.16  HD
BRANCH 15 17
ATOM     17  CA  PHE E1026     -45.921  26.080  -4.470  1.00 36.58 LIG 0.18  C 
BRANCH 17 18
ATOM     18  CB  PHE E1026     -44.628  26.744  -4.935  1.00 38.58 LIG 0.07  C 
BRANCH 18 19
ATOM     19  CG  PHE E1026     -44.860  27.750  -6.024  1.00 40.24 LIG-0.06  A 
ATOM     20  CD1 PHE E1026     -45.349  29.005  -5.730  1.00 42.20 LIG 0.01  A 
ATOM     21  CE1 PHE E1026     -45.572  29.928  -6.737  1.00 42.54 LIG 0.00  A 
ATOM     22  CZ  PHE E1026     -45.308  29.602  -8.041  1.00 41.81 LIG 0.00  A 
ATOM     23  CE2 PHE E1026     -44.829  28.359  -8.358  1.00 44.36 LIG 0.00  A 
ATOM     24  CD2 PHE E1026     -44.609  27.430  -7.353  1.00 42.30 LIG 0.01  A 
ENDBRANCH 18 19
ENDBRANCH 17 18
BRANCH 17 25
ATOM     25  C   PHE E1026     -46.626  25.433  -5.648  1.00 38.60 LIG 0.24  C 
ATOM     26  N   ASN E1027     -46.163  24.214  -6.023  1.00 38.80 LIG-0.35  N 
ATOM     27 H    ASN E1027     -45.494  23.836  -5.635  1.00 38.80 LIG 0.16  HD
ATOM     28 O    PHE E1026     -47.596  25.988  -6.160  1.00 31.59 LIG-0.27  OA
BRANCH 26 29
ATOM     29  CA  ASN E1027     -46.729  23.404  -7.108  1.00 74.37 LIG 0.17  C 
BRANCH 29 30
ATOM     30  CB  ASN E1027     -45.729  22.342  -7.554  1.00 75.17 LIG 0.14  C 
BRANCH 30 31
ATOM     31  CG  ASN E1027     -44.803  21.896  -6.450  1.00 99.64 LIG 0.22  C 
ATOM     32  ND2 ASN E1027     -45.114  20.778  -5.800  1.00 92.55 LIG-0.37  N 
ATOM     33 22HD ASN E1027     -45.817  20.334  -6.019  1.00 92.55 LIG 0.16  HD
ATOM     34 21HD ASN E1027     -44.611  20.498  -5.160  1.00 92.55 LIG 0.16  HD
ATOM     35 OD1  ASN E1027     -43.802  22.554  -6.158  1.00 94.01 LIG-0.27  OA
ENDBRANCH 30 31
ENDBRANCH 29 30
BRANCH 29 36
ATOM     36  C   ASN E1027     -48.016  22.725  -6.644  1.00103.37 LIG 0.22  C 
ATOM     37 O    ASN E1027     -48.925  23.389  -6.153  1.00 69.20 LIG-0.29  OA
ENDBRANCH 29 36
ENDBRANCH 26 29
ENDBRANCH 17 25
ENDBRANCH 15 17
ENDBRANCH 12 13
BRANCH 12 38
ATOM     38  CB  ILE E1025     -47.101  22.606  -2.176  1.00 40.50 LIG 0.01  C 
ATOM     39  CG2 ILE E1025     -48.152  23.133  -3.164  1.00 43.95 LIG 0.01  C 
BRANCH 38 40
ATOM     40  CG1 ILE E1025     -46.150  21.627  -2.865  1.00 41.58 LIG 0.00  C 
ATOM     41  CD1 ILE E1025     -44.606  21.813  -2.392  1.00 52.05 LIG 0.01  C 
ENDBRANCH 38 40
ENDBRANCH 12 38
ENDBRANCH 10 12
ENDBRANCH 4 8
BRANCH 1 42
ATOM     42  CA  ILE E1023     -49.634  28.213   1.492  1.00 36.06 LIG 0.18  C 
BRANCH 42 43
ATOM     43  N   ILE E1023     -49.380  28.849   2.799  1.00 37.96 LIG-0.35  N 
ATOM     44  C   ARG E1022     -50.201  29.777   3.335  1.00 45.42 LIG 0.24  C 
ATOM     45 O    ARG E1022     -51.186  30.224   2.746  1.00 45.23 LIG-0.27  OA
ATOM     46 H    ILE E1023     -48.662  28.575   3.185  1.00 37.96 LIG 0.16  HD
BRANCH 44 47
ATOM     47  CA  ARG E1022     -49.851  30.353   4.708  1.00 45.59 LIG 0.18  C 
BRANCH 47 48
ATOM     48  N   ARG E1022     -50.557  31.610   5.006  1.00 48.30 LIG-0.35  N 
ATOM     49 H    ARG E1022     -51.329  31.681   4.634  1.00 48.30 LIG 0.16  HD
ATOM     50  C   ILE E1021     -50.014  32.557   5.803  1.00 57.51 LIG 0.26  C 
ATOM     51 O    ILE E1021     -48.902  32.429   6.331  1.00 59.03 LIG-0.27  OA
BRANCH 50 52
ATOM     52  CA  ILE E1021     -50.826  33.835   6.068  1.00 57.59 LIG 0.40  C 
ATOM     53  N   ILE E1021     -52.223  33.581   5.727  1.00 58.96 LIG 0.61  N 
BRANCH 52 54
ATOM     54  CB  ILE E1021     -50.791  34.272   7.559  1.00 60.58 LIG 0.03  C 
ATOM     55  CG2 ILE E1021     -50.844  33.091   8.524  1.00 61.37 LIG 0.01  C 
BRANCH 54 56
ATOM     56  CG1 ILE E1021     -49.549  35.155   7.839  1.00 60.59 LIG 0.00  C 
ATOM     57  CD1 ILE E1021     -48.622  34.545   8.822  1.00 60.15 LIG 0.01  C 
ENDBRANCH 54 56
ENDBRANCH 52 54
ENDBRANCH 50 52
ENDBRANCH 47 48
BRANCH 47 58
ATOM     58  CB  ARG E1022     -50.120  29.279   5.770  1.00 44.33 LIG 0.04  C 
BRANCH 58 59
ATOM     59  CG  ARG E1022     -48.861  28.540   6.206  1.00 47.73 LIG 0.02  C 
BRANCH 59 60
ATOM     60  CD  ARG E1022     -48.048  29.302   7.232  1.00 47.87 LIG 0.14  C 
BRANCH 60 61
ATOM     61  NE  ARG E1022     -47.551  28.401   8.270  1.00 55.98 LIG-0.23  N 
ATOM     62  CZ  ARG E1022     -48.165  28.098   9.411  1.00 56.00 LIG 0.67  C 
ATOM     63  NH1 ARG E1022     -49.360  28.607   9.690  1.00 48.69 LIG-0.23  N 
ATOM     64  NH2 ARG E1022     -47.605  27.257  10.267  1.00 32.20 LIG-0.23  N 
ATOM     65 1HH1 ARG E1022     -49.743  29.137   9.131  1.00 48.69 LIG 0.17  HD
ATOM     66 2HH1 ARG E1022     -49.751  28.406  10.429  1.00 48.69 LIG 0.17  HD
ATOM     67 2HH2 ARG E1022     -48.005  27.064  11.004  1.00 32.20 LIG 0.17  HD
ATOM     68 1HH2 ARG E1022     -46.842  26.905  10.087  1.00 32.20 LIG 0.17  HD
ATOM     69 HE   ARG E1022     -46.787  28.030   8.130  1.00 55.98 LIG 0.18  HD
ENDBRANCH 60 61
ENDBRANCH 59 60
ENDBRANCH 58 59
ENDBRANCH 47 58
ENDBRANCH 44 47
ENDBRANCH 42 43
BRANCH 42 70
ATOM     70  CB  ILE E1023     -49.193  29.100   0.282  1.00 38.78 LIG 0.01  C 
ATOM     71  CG2 ILE E1023     -49.481  28.386  -1.047  1.00 39.01 LIG 0.01  C 
BRANCH 70 72
ATOM     72  CG1 ILE E1023     -49.814  30.529   0.303  1.00 39.61 LIG 0.00  C 
ATOM     73  CD1 ILE E1023     -48.882  31.694   0.083  1.00 43.21 LIG 0.01  C 
ENDBRANCH 70 72
ENDBRANCH 42 70
ENDBRANCH 1 42
TORSDOF 26
ENDMDL
MODEL 52
USER: ADFR SOLUTION from run 20
USER: SCORE 23.162837 LL:  -6.719 LR: -17.648 RR:   0.000 FEB:  -9.892
USER: RMSD 12.319998
USER: SEED 19
USER: STATUS searching
USER: GENES 28
USER: genes 0 Translation |==|  0.47554 0.56225 0.52286
USER: genes 1 Rotation |==|  0.85605 0.83144 0.39992 0.55797
USER: genes 2 Torsion [N]-CA--C-[O] |==|  0.68031
USER: genes 3 Torsion [C]-N--CA-[CB] |==|  0.76968
USER: genes 4 Torsion [N]-CA--C-[N] |==|  0.17627
USER: genes 5 Torsion [C]-N--CA-[C] |==|  0.76380
USER: genes 6 Torsion [N]-CA--CB-[CG] |==|  0.81276
USER: genes 7 Torsion [CA]-CB--CG-[CD1] |==|  0.43962
USER: genes 8 Torsion [N]-CA--C-[N] |==|  0.19210
USER: genes 9 Torsion [C]-N--CA-[C] |==|  0.57830
USER: genes 10 Torsion [N]-CA--CB-[CG] |==|  0.16951
USER: genes 11 Torsion [CA]-CB--CG-[OD1] |==|  0.83619
USER: genes 12 Torsion [N]-CA--C-[O] |==|  0.87974
USER: genes 13 Torsion [N]-CA--CB-[CG2] |==|  0.60416
USER: genes 14 Torsion [CA]-CB--CG1-[CD1] |==|  0.34360
USER: genes 15 Torsion [N]-C--CA-[N] |==|  0.31727
USER: genes 16 Torsion [C]-CA--N-[C] |==|  0.59458
USER: genes 17 Torsion [N]-C--CA-[N] |==|  0.90611
USER: genes 18 Torsion [C]-CA--N-[C] |==|  0.67488
USER: genes 19 Torsion [N]-C--CA-[N] |==|  0.42556
USER: genes 20 Torsion [C]-CA--CB-[CG1] |==|  0.02779
USER: genes 21 Torsion [CA]-CB--CG1-[CD1] |==|  0.47715
USER: genes 22 Torsion [C]-CA--CB-[CG] |==|  0.27062
USER: genes 23 Torsion [CA]-CB--CG-[CD] |==|  0.64178
USER: genes 24 Torsion [CB]-CG--CD-[NE] |==|  0.63888
USER: genes 25 Torsion [CG]-CD--NE-[CZ] |==|  0.17101
USER: genes 26 Torsion [C]-CA--CB-[CG1] |==|  0.53735
USER: genes 27 Torsion [CA]-CB--CG1-[CD1] |==|  0.49390
ROOT
ATOM      1  C   ILE E1023     -48.723  26.477   1.109  1.00 40.02 LIG 0.24  C 
ATOM      2 O    ILE E1023     -47.486  26.506   1.187  1.00 38.38 LIG-0.27  OA
ATOM      3  N   PRO E1024     -49.418  25.354   0.801  1.00 37.38 LIG-0.34  N 
ATOM      4  CA  PRO E1024     -48.690  24.141   0.405  1.00 36.67 LIG 0.18  C 
ATOM      5  CB  PRO E1024     -49.745  23.042   0.502  1.00 38.74 LIG 0.04  C 
ATOM      6  CG  PRO E1024     -51.034  23.731   0.257  1.00 43.33 LIG 0.02  C 
ATOM      7  CD  PRO E1024     -50.882  25.167   0.671  1.00 39.42 LIG 0.13  C 
ENDROOT
BRANCH 4 8
ATOM      8  C   PRO E1024     -48.179  24.315  -1.020  1.00 39.60 LIG 0.24  C 
ATOM      9 O    PRO E1024     -48.618  23.584  -1.907  1.00 37.18 LIG-0.27  OA
ATOM     10  N   ILE E1025     -47.286  25.304  -1.231  1.00 37.20 LIG-0.35  N 
ATOM     11 H    ILE E1025     -47.008  25.802  -0.587  1.00 37.20 LIG 0.16  HD
BRANCH 10 12
ATOM     12  CA  ILE E1025     -46.677  25.673  -2.516  1.00 37.42 LIG 0.18  C 
BRANCH 12 13
ATOM     13  C   ILE E1025     -47.647  25.419  -3.667  1.00 40.88 LIG 0.24  C 
ATOM     14 O    ILE E1025     -47.272  24.739  -4.624  1.00 40.29 LIG-0.27  OA
ATOM     15  N   PHE E1026     -48.794  26.127  -3.693  1.00 36.23 LIG-0.35  N 
ATOM     16 H    PHE E1026     -49.087  26.598  -3.036  1.00 36.23 LIG 0.16  HD
BRANCH 15 17
ATOM     17  CA  PHE E1026     -49.648  26.141  -4.888  1.00 36.58 LIG 0.18  C 
BRANCH 17 18
ATOM     18  CB  PHE E1026     -51.112  26.376  -4.530  1.00 38.58 LIG 0.07  C 
BRANCH 18 19
ATOM     19  CG  PHE E1026     -51.708  25.228  -3.769  1.00 40.24 LIG-0.06  A 
ATOM     20  CD1 PHE E1026     -52.828  25.408  -2.986  1.00 42.20 LIG 0.01  A 
ATOM     21  CE1 PHE E1026     -53.369  24.351  -2.276  1.00 42.54 LIG 0.00  A 
ATOM     22  CZ  PHE E1026     -52.795  23.108  -2.345  1.00 41.81 LIG 0.00  A 
ATOM     23  CE2 PHE E1026     -51.678  22.907  -3.111  1.00 44.36 LIG 0.00  A 
ATOM     24  CD2 PHE E1026     -51.130  23.965  -3.819  1.00 42.30 LIG 0.01  A 
ENDBRANCH 18 19
ENDBRANCH 17 18
BRANCH 17 25
ATOM     25  C   PHE E1026     -49.179  27.193  -5.876  1.00 38.60 LIG 0.24  C 
ATOM     26  N   ASN E1027     -47.994  26.948  -6.489  1.00 38.80 LIG-0.35  N 
ATOM     27 H    ASN E1027     -47.520  26.252  -6.313  1.00 38.80 LIG 0.16  HD
ATOM     28 O    PHE E1026     -49.894  28.162  -6.123  1.00 31.59 LIG-0.27  OA
BRANCH 26 29
ATOM     29  CA  ASN E1027     -47.383  27.816  -7.502  1.00 74.37 LIG 0.17  C 
BRANCH 29 30
ATOM     30  CB  ASN E1027     -46.535  28.895  -6.836  1.00 75.17 LIG 0.14  C 
BRANCH 30 31
ATOM     31  CG  ASN E1027     -45.398  28.335  -6.018  1.00 99.64 LIG 0.22  C 
ATOM     32  ND2 ASN E1027     -44.162  28.693  -6.355  1.00 92.55 LIG-0.37  N 
ATOM     33 22HD ASN E1027     -44.035  29.230  -7.015  1.00 92.55 LIG 0.16  HD
ATOM     34 21HD ASN E1027     -43.490  28.387  -5.914  1.00 92.55 LIG 0.16  HD
ATOM     35 OD1  ASN E1027     -45.612  27.567  -5.078  1.00 94.01 LIG-0.27  OA
ENDBRANCH 30 31
ENDBRANCH 29 30
BRANCH 29 36
ATOM     36  C   ASN E1027     -46.507  26.992  -8.444  1.00103.37 LIG 0.22  C 
ATOM     37 O    ASN E1027     -45.760  26.126  -7.998  1.00 69.20 LIG-0.29  OA
ENDBRANCH 29 36
ENDBRANCH 26 29
ENDBRANCH 17 25
ENDBRANCH 15 17
ENDBRANCH 12 13
BRANCH 12 38
ATOM     38  CB  ILE E1025     -45.443  24.704  -2.782  1.00 40.50 LIG 0.01  C 
ATOM     39  CG2 ILE E1025     -44.273  25.441  -3.448  1.00 43.95 LIG 0.01  C 
BRANCH 38 40
ATOM     40  CG1 ILE E1025     -44.977  23.964  -1.528  1.00 41.58 LIG 0.00  C 
ATOM     41  CD1 ILE E1025     -44.980  22.349  -1.713  1.00 52.05 LIG 0.01  C 
ENDBRANCH 38 40
ENDBRANCH 12 38
ENDBRANCH 10 12
ENDBRANCH 4 8
BRANCH 1 42
ATOM     42  CA  ILE E1023     -49.499  27.731   1.473  1.00 36.06 LIG 0.18  C 
BRANCH 42 43
ATOM     43  N   ILE E1023     -49.200  28.018   2.890  1.00 37.96 LIG-0.35  N 
ATOM     44  C   ARG E1022     -50.104  28.558   3.735  1.00 45.42 LIG 0.24  C 
ATOM     45 O    ARG E1022     -51.223  28.927   3.377  1.00 45.23 LIG-0.27  OA
ATOM     46 H    ILE E1023     -48.400  27.809   3.125  1.00 37.96 LIG 0.16  HD
BRANCH 44 47
ATOM     47  CA  ARG E1022     -49.693  28.790   5.189  1.00 45.59 LIG 0.18  C 
BRANCH 47 48
ATOM     48  N   ARG E1022     -48.762  27.769   5.698  1.00 48.30 LIG-0.35  N 
ATOM     49 H    ARG E1022     -48.005  27.744   5.291  1.00 48.30 LIG 0.16  HD
ATOM     50  C   ILE E1021     -49.095  26.951   6.721  1.00 57.51 LIG 0.26  C 
ATOM     51 O    ILE E1021     -50.190  27.009   7.294  1.00 59.03 LIG-0.27  OA
BRANCH 50 52
ATOM     52  CA  ILE E1021     -48.056  25.920   7.193  1.00 57.59 LIG 0.40  C 
ATOM     53  N   ILE E1021     -48.303  25.618   8.600  1.00 58.96 LIG 0.61  N 
BRANCH 52 54
ATOM     54  CB  ILE E1021     -48.144  24.578   6.413  1.00 60.58 LIG 0.03  C 
ATOM     55  CG2 ILE E1021     -48.566  23.407   7.296  1.00 61.37 LIG 0.01  C 
BRANCH 54 56
ATOM     56  CG1 ILE E1021     -49.090  24.717   5.195  1.00 60.59 LIG 0.00  C 
ATOM     57  CD1 ILE E1021     -49.060  23.529   4.308  1.00 60.15 LIG 0.01  C 
ENDBRANCH 54 56
ENDBRANCH 52 54
ENDBRANCH 50 52
ENDBRANCH 47 48
BRANCH 47 58
ATOM     58  CB  ARG E1022     -49.114  30.205   5.314  1.00 44.33 LIG 0.04  C 
BRANCH 58 59
ATOM     59  CG  ARG E1022     -50.128  31.224   5.820  1.00 47.73 LIG 0.02  C 
BRANCH 59 60
ATOM     60  CD  ARG E1022     -50.211  32.461   4.950  1.00 47.87 LIG 0.14  C 
BRANCH 60 61
ATOM     61  NE  ARG E1022     -50.109  33.672   5.763  1.00 55.98 LIG-0.23  N 
ATOM     62  CZ  ARG E1022     -49.072  34.027   6.518  1.00 56.00 LIG 0.67  C 
ATOM     63  NH1 ARG E1022     -47.981  33.271   6.567  1.00 48.69 LIG-0.23  N 
ATOM     64  NH2 ARG E1022     -49.104  35.160   7.204  1.00 32.20 LIG-0.23  N 
ATOM     65 1HH1 ARG E1022     -47.941  32.544   6.108  1.00 48.69 LIG 0.17  HD
ATOM     66 2HH1 ARG E1022     -47.316  33.508   7.057  1.00 48.69 LIG 0.17  HD
ATOM     67 2HH2 ARG E1022     -48.433  35.386   7.691  1.00 32.20 LIG 0.17  HD
ATOM     68 1HH2 ARG E1022     -49.797  35.668   7.163  1.00 32.20 LIG 0.17  HD
ATOM     69 HE   ARG E1022     -50.783  34.206   5.753  1.00 55.98 LIG 0.18  HD
ENDBRANCH 60 61
ENDBRANCH 59 60
ENDBRANCH 58 59
ENDBRANCH 47 58
ENDBRANCH 44 47
ENDBRANCH 42 43
BRANCH 42 70
ATOM     70  CB  ILE E1023     -49.086  28.894   0.512  1.00 38.78 LIG 0.01  C 
ATOM     71  CG2 ILE E1023     -49.561  28.608  -0.921  1.00 39.01 LIG 0.01  C 
BRANCH 70 72
ATOM     72  CG1 ILE E1023     -49.564  30.296   0.997  1.00 39.61 LIG 0.00  C 
ATOM     73  CD1 ILE E1023     -49.171  31.490   0.163  1.00 43.21 LIG 0.01  C 
ENDBRANCH 70 72
ENDBRANCH 42 70
ENDBRANCH 1 42
TORSDOF 26
ENDMDL
MODEL 53
USER: ADFR SOLUTION from run 95
USER: SCORE 22.171482 LL:  -6.285 LR: -17.643 RR:   0.000 FEB:  -9.887
USER: RMSD 12.810703
USER: SEED 94
USER: STATUS no improvement in best in 5 clusters for 5 generations
USER: GENES 28
USER: genes 0 Translation |==|  0.38523 0.61425 0.66590
USER: genes 1 Rotation |==|  0.24428 0.08701 0.61429 0.53131
USER: genes 2 Torsion [N]-CA--C-[O] |==|  0.79429
USER: genes 3 Torsion [C]-N--CA-[CB] |==|  0.46324
USER: genes 4 Torsion [N]-CA--C-[N] |==|  0.92635
USER: genes 5 Torsion [C]-N--CA-[C] |==|  0.70611
USER: genes 6 Torsion [N]-CA--CB-[CG] |==|  0.74402
USER: genes 7 Torsion [CA]-CB--CG-[CD1] |==|  0.12244
USER: genes 8 Torsion [N]-CA--C-[N] |==|  0.05638
USER: genes 9 Torsion [C]-N--CA-[C] |==|  0.90684
USER: genes 10 Torsion [N]-CA--CB-[CG] |==|  0.17463
USER: genes 11 Torsion [CA]-CB--CG-[OD1] |==|  0.29634
USER: genes 12 Torsion [N]-CA--C-[O] |==|  0.46878
USER: genes 13 Torsion [N]-CA--CB-[CG2] |==|  0.36390
USER: genes 14 Torsion [CA]-CB--CG1-[CD1] |==|  0.88775
USER: genes 15 Torsion [N]-C--CA-[N] |==|  0.35588
USER: genes 16 Torsion [C]-CA--N-[C] |==|  0.85730
USER: genes 17 Torsion [N]-C--CA-[N] |==|  0.49927
USER: genes 18 Torsion [C]-CA--N-[C] |==|  0.77066
USER: genes 19 Torsion [N]-C--CA-[N] |==|  0.32261
USER: genes 20 Torsion [C]-CA--CB-[CG1] |==|  0.48499
USER: genes 21 Torsion [CA]-CB--CG1-[CD1] |==|  0.59966
USER: genes 22 Torsion [C]-CA--CB-[CG] |==|  0.22029
USER: genes 23 Torsion [CA]-CB--CG-[CD] |==|  0.58575
USER: genes 24 Torsion [CB]-CG--CD-[NE] |==|  0.36954
USER: genes 25 Torsion [CG]-CD--NE-[CZ] |==|  0.32524
USER: genes 26 Torsion [C]-CA--CB-[CG1] |==|  0.89315
USER: genes 27 Torsion [CA]-CB--CG1-[CD1] |==|  0.28021
ROOT
ATOM      1  C   ILE E1023     -50.078  27.686   5.186  1.00 40.02 LIG 0.24  C 
ATOM      2 O    ILE E1023     -49.024  28.253   4.860  1.00 38.38 LIG-0.27  OA
ATOM      3  N   PRO E1024     -50.392  26.426   4.793  1.00 37.38 LIG-0.34  N 
ATOM      4  CA  PRO E1024     -49.525  25.735   3.828  1.00 36.67 LIG 0.18  C 
ATOM      5  CB  PRO E1024     -49.976  24.279   3.923  1.00 38.74 LIG 0.04  C 
ATOM      6  CG  PRO E1024     -51.398  24.348   4.335  1.00 43.33 LIG 0.02  C 
ATOM      7  CD  PRO E1024     -51.601  25.627   5.097  1.00 39.42 LIG 0.13  C 
ENDROOT
BRANCH 4 8
ATOM      8  C   PRO E1024     -49.767  26.317   2.441  1.00 39.60 LIG 0.24  C 
ATOM      9 O    PRO E1024     -50.804  26.031   1.845  1.00 37.18 LIG-0.27  OA
ATOM     10  N   ILE E1025     -48.826  27.155   1.959  1.00 37.20 LIG-0.35  N 
ATOM     11 H    ILE E1025     -48.117  27.340   2.409  1.00 37.20 LIG 0.16  HD
BRANCH 10 12
ATOM     12  CA  ILE E1025     -48.855  27.850   0.665  1.00 37.42 LIG 0.18  C 
BRANCH 12 13
ATOM     13  C   ILE E1025     -48.468  26.902  -0.467  1.00 40.88 LIG 0.24  C 
ATOM     14 O    ILE E1025     -49.044  27.003  -1.551  1.00 40.29 LIG-0.27  OA
ATOM     15  N   PHE E1026     -47.673  25.856  -0.169  1.00 36.23 LIG-0.35  N 
ATOM     16 H    PHE E1026     -47.248  25.767   0.573  1.00 36.23 LIG 0.16  HD
BRANCH 15 17
ATOM     17  CA  PHE E1026     -47.473  24.760  -1.126  1.00 36.58 LIG 0.18  C 
BRANCH 17 18
ATOM     18  CB  PHE E1026     -45.994  24.431  -1.304  1.00 38.58 LIG 0.07  C 
BRANCH 18 19
ATOM     19  CG  PHE E1026     -45.369  25.188  -2.439  1.00 40.24 LIG-0.06  A 
ATOM     20  CD1 PHE E1026     -45.625  26.531  -2.613  1.00 42.20 LIG 0.01  A 
ATOM     21  CE1 PHE E1026     -45.058  27.226  -3.667  1.00 42.54 LIG 0.00  A 
ATOM     22  CZ  PHE E1026     -44.231  26.583  -4.551  1.00 41.81 LIG 0.00  A 
ATOM     23  CE2 PHE E1026     -43.968  25.247  -4.401  1.00 44.36 LIG 0.00  A 
ATOM     24  CD2 PHE E1026     -44.540  24.547  -3.350  1.00 42.30 LIG 0.01  A 
ENDBRANCH 18 19
ENDBRANCH 17 18
BRANCH 17 25
ATOM     25  C   PHE E1026     -48.234  23.520  -0.696  1.00 38.60 LIG 0.24  C 
ATOM     26  N   ASN E1027     -49.255  23.720   0.175  1.00 38.80 LIG-0.35  N 
ATOM     27 H    ASN E1027     -49.448  24.499   0.487  1.00 38.80 LIG 0.16  HD
ATOM     28 O    PHE E1026     -47.949  22.428  -1.182  1.00 31.59 LIG-0.27  OA
BRANCH 26 29
ATOM     29  CA  ASN E1027     -50.137  22.664   0.684  1.00 74.37 LIG 0.17  C 
BRANCH 29 30
ATOM     30  CB  ASN E1027     -51.485  23.250   1.093  1.00 75.17 LIG 0.14  C 
BRANCH 30 31
ATOM     31  CG  ASN E1027     -52.241  23.863  -0.060  1.00 99.64 LIG 0.22  C 
ATOM     32  ND2 ASN E1027     -51.808  25.030  -0.529  1.00 92.55 LIG-0.37  N 
ATOM     33 22HD ASN E1027     -51.117  25.404  -0.180  1.00 92.55 LIG 0.16  HD
ATOM     34 21HD ASN E1027     -52.220  25.411  -1.181  1.00 92.55 LIG 0.16  HD
ATOM     35 OD1  ASN E1027     -53.228  23.302  -0.539  1.00 94.01 LIG-0.27  OA
ENDBRANCH 30 31
ENDBRANCH 29 30
BRANCH 29 36
ATOM     36  C   ASN E1027     -50.352  21.596  -0.387  1.00103.37 LIG 0.22  C 
ATOM     37 O    ASN E1027     -50.888  20.529  -0.100  1.00 69.20 LIG-0.29  OA
ENDBRANCH 29 36
ENDBRANCH 26 29
ENDBRANCH 17 25
ENDBRANCH 15 17
ENDBRANCH 12 13
BRANCH 12 38
ATOM     38  CB  ILE E1025     -47.730  28.976   0.677  1.00 40.50 LIG 0.01  C 
ATOM     39  CG2 ILE E1025     -46.856  28.921  -0.584  1.00 43.95 LIG 0.01  C 
BRANCH 38 40
ATOM     40  CG1 ILE E1025     -48.288  30.383   0.891  1.00 41.58 LIG 0.00  C 
ATOM     41  CD1 ILE E1025     -49.671  30.641   0.077  1.00 52.05 LIG 0.01  C 
ENDBRANCH 38 40
ENDBRANCH 12 38
ENDBRANCH 10 12
ENDBRANCH 4 8
BRANCH 1 42
ATOM     42  CA  ILE E1023     -51.012  28.398   6.149  1.00 36.06 LIG 0.18  C 
BRANCH 42 43
ATOM     43  N   ILE E1023     -50.179  28.885   7.265  1.00 37.96 LIG-0.35  N 
ATOM     44  C   ARG E1022     -49.324  28.090   7.944  1.00 45.42 LIG 0.24  C 
ATOM     45 O    ARG E1022     -49.226  26.880   7.741  1.00 45.23 LIG-0.27  OA
ATOM     46 H    ILE E1023     -50.288  29.719   7.442  1.00 37.96 LIG 0.16  HD
BRANCH 44 47
ATOM     47  CA  ARG E1022     -48.492  28.709   9.068  1.00 45.59 LIG 0.18  C 
BRANCH 47 48
ATOM     48  N   ARG E1022     -47.606  27.740   9.734  1.00 48.30 LIG-0.35  N 
ATOM     49 H    ARG E1022     -46.795  27.745   9.449  1.00 48.30 LIG 0.16  HD
ATOM     50  C   ILE E1021     -48.056  26.922  10.711  1.00 57.51 LIG 0.26  C 
ATOM     51 O    ILE E1021     -49.228  26.935  11.109  1.00 59.03 LIG-0.27  OA
BRANCH 50 52
ATOM     52  CA  ILE E1021     -47.057  25.947  11.358  1.00 57.59 LIG 0.40  C 
ATOM     53  N   ILE E1021     -46.908  26.296  12.767  1.00 58.96 LIG 0.61  N 
BRANCH 52 54
ATOM     54  CB  ILE E1021     -47.536  24.469  11.300  1.00 60.58 LIG 0.03  C 
ATOM     55  CG2 ILE E1021     -47.981  24.045   9.903  1.00 61.37 LIG 0.01  C 
BRANCH 54 56
ATOM     56  CG1 ILE E1021     -46.439  23.519  11.839  1.00 60.59 LIG 0.00  C 
ATOM     57  CD1 ILE E1021     -46.390  22.228  11.111  1.00 60.15 LIG 0.01  C 
ENDBRANCH 54 56
ENDBRANCH 52 54
ENDBRANCH 50 52
ENDBRANCH 47 48
BRANCH 47 58
ATOM     58  CB  ARG E1022     -47.713  29.901   8.500  1.00 44.33 LIG 0.04  C 
BRANCH 58 59
ATOM     59  CG  ARG E1022     -48.561  31.159   8.360  1.00 47.73 LIG 0.02  C 
BRANCH 59 60
ATOM     60  CD  ARG E1022     -48.128  32.043   7.208  1.00 47.87 LIG 0.14  C 
BRANCH 60 61
ATOM     61  NE  ARG E1022     -49.283  32.461   6.415  1.00 55.98 LIG-0.23  N 
ATOM     62  CZ  ARG E1022     -49.710  33.709   6.246  1.00 56.00 LIG 0.67  C 
ATOM     63  NH1 ARG E1022     -49.060  34.727   6.799  1.00 48.69 LIG-0.23  N 
ATOM     64  NH2 ARG E1022     -50.772  33.954   5.493  1.00 32.20 LIG-0.23  N 
ATOM     65 1HH1 ARG E1022     -48.356  34.582   7.272  1.00 48.69 LIG 0.17  HD
ATOM     66 2HH1 ARG E1022     -49.342  35.531   6.684  1.00 48.69 LIG 0.17  HD
ATOM     67 2HH2 ARG E1022     -51.045  34.762   5.386  1.00 32.20 LIG 0.17  HD
ATOM     68 1HH2 ARG E1022     -51.188  33.305   5.112  1.00 32.20 LIG 0.17  HD
ATOM     69 HE   ARG E1022     -49.729  31.840   6.021  1.00 55.98 LIG 0.18  HD
ENDBRANCH 60 61
ENDBRANCH 59 60
ENDBRANCH 58 59
ENDBRANCH 47 58
ENDBRANCH 44 47
ENDBRANCH 42 43
BRANCH 42 70
ATOM     70  CB  ILE E1023     -51.760  29.546   5.395  1.00 38.78 LIG 0.01  C 
ATOM     71  CG2 ILE E1023     -52.404  30.520   6.392  1.00 39.01 LIG 0.01  C 
BRANCH 70 72
ATOM     72  CG1 ILE E1023     -50.861  30.299   4.368  1.00 39.61 LIG 0.00  C 
ATOM     73  CD1 ILE E1023     -51.014  29.934   2.912  1.00 43.21 LIG 0.01  C 
ENDBRANCH 70 72
ENDBRANCH 42 70
ENDBRANCH 1 42
TORSDOF 26
ENDMDL
MODEL 54
USER: ADFR SOLUTION from run 85
USER: SCORE 19.598343 LL:  -5.321 LR: -17.644 RR:   0.000 FEB:  -9.889
USER: RMSD 12.905357
USER: SEED 84
USER: STATUS no improvement in best in 7 clusters for 5 generations
USER: GENES 28
USER: genes 0 Translation |==|  0.42991 0.60095 0.49752
USER: genes 1 Rotation |==|  0.90112 0.70320 0.66589 0.64244
USER: genes 2 Torsion [N]-CA--C-[O] |==|  0.17794
USER: genes 3 Torsion [C]-N--CA-[CB] |==|  0.27778
USER: genes 4 Torsion [N]-CA--C-[N] |==|  0.92670
USER: genes 5 Torsion [C]-N--CA-[C] |==|  0.72229
USER: genes 6 Torsion [N]-CA--CB-[CG] |==|  0.86050
USER: genes 7 Torsion [CA]-CB--CG-[CD1] |==|  0.35995
USER: genes 8 Torsion [N]-CA--C-[N] |==|  0.40649
USER: genes 9 Torsion [C]-N--CA-[C] |==|  0.85115
USER: genes 10 Torsion [N]-CA--CB-[CG] |==|  0.77870
USER: genes 11 Torsion [CA]-CB--CG-[OD1] |==|  0.71797
USER: genes 12 Torsion [N]-CA--C-[O] |==|  0.74101
USER: genes 13 Torsion [N]-CA--CB-[CG2] |==|  0.84801
USER: genes 14 Torsion [CA]-CB--CG1-[CD1] |==|  0.73617
USER: genes 15 Torsion [N]-C--CA-[N] |==|  0.42087
USER: genes 16 Torsion [C]-CA--N-[C] |==|  0.19602
USER: genes 17 Torsion [N]-C--CA-[N] |==|  0.29471
USER: genes 18 Torsion [C]-CA--N-[C] |==|  0.20257
USER: genes 19 Torsion [N]-C--CA-[N] |==|  0.85997
USER: genes 20 Torsion [C]-CA--CB-[CG1] |==|  0.35185
USER: genes 21 Torsion [CA]-CB--CG1-[CD1] |==|  0.12308
USER: genes 22 Torsion [C]-CA--CB-[CG] |==|  0.21415
USER: genes 23 Torsion [CA]-CB--CG-[CD] |==|  0.28966
USER: genes 24 Torsion [CB]-CG--CD-[NE] |==|  0.31357
USER: genes 25 Torsion [CG]-CD--NE-[CZ] |==|  0.81022
USER: genes 26 Torsion [C]-CA--CB-[CG1] |==|  0.92745
USER: genes 27 Torsion [CA]-CB--CG1-[CD1] |==|  0.27529
ROOT
ATOM      1  C   ILE E1023     -49.407  27.377   0.387  1.00 40.02 LIG 0.24  C 
ATOM      2 O    ILE E1023     -49.012  26.842   1.434  1.00 38.38 LIG-0.27  OA
ATOM      3  N   PRO E1024     -49.419  26.739  -0.810  1.00 37.38 LIG-0.34  N 
ATOM      4  CA  PRO E1024     -48.815  25.404  -0.922  1.00 36.67 LIG 0.18  C 
ATOM      5  CB  PRO E1024     -49.337  24.887  -2.260  1.00 38.74 LIG 0.04  C 
ATOM      6  CG  PRO E1024     -49.574  26.104  -3.071  1.00 43.33 LIG 0.02  C 
ATOM      7  CD  PRO E1024     -49.856  27.242  -2.133  1.00 39.42 LIG 0.13  C 
ENDROOT
BRANCH 4 8
ATOM      8  C   PRO E1024     -47.298  25.547  -0.919  1.00 39.60 LIG 0.24  C 
ATOM      9 O    PRO E1024     -46.741  25.991   0.084  1.00 37.18 LIG-0.27  OA
ATOM     10  N   ILE E1025     -46.644  25.135  -2.025  1.00 37.20 LIG-0.35  N 
ATOM     11 H    ILE E1025     -47.067  24.821  -2.705  1.00 37.20 LIG 0.16  HD
BRANCH 10 12
ATOM     12  CA  ILE E1025     -45.191  25.154  -2.239  1.00 37.42 LIG 0.18  C 
BRANCH 12 13
ATOM     13  C   ILE E1025     -44.863  25.464  -3.698  1.00 40.88 LIG 0.24  C 
ATOM     14 O    ILE E1025     -43.883  26.166  -3.952  1.00 40.29 LIG-0.27  OA
ATOM     15  N   PHE E1026     -45.780  25.142  -4.632  1.00 36.23 LIG-0.35  N 
ATOM     16 H    PHE E1026     -46.465  24.642  -4.486  1.00 36.23 LIG 0.16  HD
BRANCH 15 17
ATOM     17  CA  PHE E1026     -45.665  25.639  -6.009  1.00 36.58 LIG 0.18  C 
BRANCH 17 18
ATOM     18  CB  PHE E1026     -45.973  24.548  -7.030  1.00 38.58 LIG 0.07  C 
BRANCH 18 19
ATOM     19  CG  PHE E1026     -45.207  23.285  -6.768  1.00 40.24 LIG-0.06  A 
ATOM     20  CD1 PHE E1026     -45.852  22.068  -6.717  1.00 42.20 LIG 0.01  A 
ATOM     21  CE1 PHE E1026     -45.145  20.905  -6.465  1.00 42.54 LIG 0.00  A 
ATOM     22  CZ  PHE E1026     -43.790  20.952  -6.263  1.00 41.81 LIG 0.00  A 
ATOM     23  CE2 PHE E1026     -43.129  22.151  -6.302  1.00 44.36 LIG 0.00  A 
ATOM     24  CD2 PHE E1026     -43.835  23.318  -6.549  1.00 42.30 LIG 0.01  A 
ENDBRANCH 18 19
ENDBRANCH 17 18
BRANCH 17 25
ATOM     25  C   PHE E1026     -46.577  26.831  -6.231  1.00 38.60 LIG 0.24  C 
ATOM     26  N   ASN E1027     -46.120  27.779  -7.088  1.00 38.80 LIG-0.35  N 
ATOM     27 H    ASN E1027     -45.350  27.724  -7.467  1.00 38.80 LIG 0.16  HD
ATOM     28 O    PHE E1026     -47.683  26.863  -5.696  1.00 31.59 LIG-0.27  OA
BRANCH 26 29
ATOM     29  CA  ASN E1027     -46.862  28.987  -7.469  1.00 74.37 LIG 0.17  C 
BRANCH 29 30
ATOM     30  CB  ASN E1027     -46.106  29.754  -8.549  1.00 75.17 LIG 0.14  C 
BRANCH 30 31
ATOM     31  CG  ASN E1027     -44.975  30.589  -8.004  1.00 99.64 LIG 0.22  C 
ATOM     32  ND2 ASN E1027     -43.846  29.963  -7.683  1.00 92.55 LIG-0.37  N 
ATOM     33 22HD ASN E1027     -43.779  29.113  -7.796  1.00 92.55 LIG 0.16  HD
ATOM     34 21HD ASN E1027     -43.183  30.408  -7.363  1.00 92.55 LIG 0.16  HD
ATOM     35 OD1  ASN E1027     -45.101  31.806  -7.854  1.00 94.01 LIG-0.27  OA
ENDBRANCH 30 31
ENDBRANCH 29 30
BRANCH 29 36
ATOM     36  C   ASN E1027     -48.248  28.612  -7.989  1.00103.37 LIG 0.22  C 
ATOM     37 O    ASN E1027     -48.436  28.445  -9.191  1.00 69.20 LIG-0.29  OA
ENDBRANCH 29 36
ENDBRANCH 26 29
ENDBRANCH 17 25
ENDBRANCH 15 17
ENDBRANCH 12 13
BRANCH 12 38
ATOM     38  CB  ILE E1025     -44.628  23.688  -1.982  1.00 40.50 LIG 0.01  C 
ATOM     39  CG2 ILE E1025     -45.026  23.161  -0.596  1.00 43.95 LIG 0.01  C 
BRANCH 38 40
ATOM     40  CG1 ILE E1025     -45.016  22.693  -3.074  1.00 41.58 LIG 0.00  C 
ATOM     41  CD1 ILE E1025     -46.353  21.845  -2.706  1.00 52.05 LIG 0.01  C 
ENDBRANCH 38 40
ENDBRANCH 12 38
ENDBRANCH 10 12
ENDBRANCH 4 8
BRANCH 1 42
ATOM     42  CA  ILE E1023     -49.998  28.774   0.469  1.00 36.06 LIG 0.18  C 
BRANCH 42 43
ATOM     43  N   ILE E1023     -50.492  28.945   1.848  1.00 37.96 LIG-0.35  N 
ATOM     44  C   ARG E1022     -49.669  29.067   2.912  1.00 45.42 LIG 0.24  C 
ATOM     45 O    ARG E1022     -48.445  28.969   2.830  1.00 45.23 LIG-0.27  OA
ATOM     46 H    ILE E1023     -51.349  28.960   1.911  1.00 37.96 LIG 0.16  HD
BRANCH 44 47
ATOM     47  CA  ARG E1022     -50.292  29.265   4.295  1.00 45.59 LIG 0.18  C 
BRANCH 47 48
ATOM     48  N   ARG E1022     -50.215  28.063   5.142  1.00 48.30 LIG-0.35  N 
ATOM     49 H    ARG E1022     -50.964  27.656   5.251  1.00 48.30 LIG 0.16  HD
ATOM     50  C   ILE E1021     -49.049  27.656   5.691  1.00 57.51 LIG 0.26  C 
ATOM     51 O    ILE E1021     -47.981  28.256   5.517  1.00 59.03 LIG-0.27  OA
BRANCH 50 52
ATOM     52  CA  ILE E1021     -49.061  26.383   6.555  1.00 57.59 LIG 0.40  C 
ATOM     53  N   ILE E1021     -50.131  26.497   7.541  1.00 58.96 LIG 0.61  N 
BRANCH 52 54
ATOM     54  CB  ILE E1021     -49.336  25.097   5.727  1.00 60.58 LIG 0.03  C 
ATOM     55  CG2 ILE E1021     -49.487  25.375   4.234  1.00 61.37 LIG 0.01  C 
BRANCH 54 56
ATOM     56  CG1 ILE E1021     -48.234  24.039   5.980  1.00 60.59 LIG 0.00  C 
ATOM     57  CD1 ILE E1021     -47.888  23.904   7.416  1.00 60.15 LIG 0.01  C 
ENDBRANCH 54 56
ENDBRANCH 52 54
ENDBRANCH 50 52
ENDBRANCH 47 48
BRANCH 47 58
ATOM     58  CB  ARG E1022     -49.630  30.478   4.960  1.00 44.33 LIG 0.04  C 
BRANCH 58 59
ATOM     59  CG  ARG E1022     -50.141  31.809   4.423  1.00 47.73 LIG 0.02  C 
BRANCH 59 60
ATOM     60  CD  ARG E1022     -51.096  32.505   5.371  1.00 47.87 LIG 0.14  C 
BRANCH 60 61
ATOM     61  NE  ARG E1022     -50.502  33.735   5.891  1.00 55.98 LIG-0.23  N 
ATOM     62  CZ  ARG E1022     -49.468  33.818   6.724  1.00 56.00 LIG 0.67  C 
ATOM     63  NH1 ARG E1022     -48.850  32.720   7.146  1.00 48.69 LIG-0.23  N 
ATOM     64  NH2 ARG E1022     -49.021  35.002   7.117  1.00 32.20 LIG-0.23  N 
ATOM     65 1HH1 ARG E1022     -49.118  31.948   6.880  1.00 48.69 LIG 0.17  HD
ATOM     66 2HH1 ARG E1022     -48.182  32.783   7.684  1.00 48.69 LIG 0.17  HD
ATOM     67 2HH2 ARG E1022     -48.352  35.052   7.655  1.00 32.20 LIG 0.17  HD
ATOM     68 1HH2 ARG E1022     -49.399  35.720   6.833  1.00 32.20 LIG 0.17  HD
ATOM     69 HE   ARG E1022     -50.855  34.477   5.634  1.00 55.98 LIG 0.18  HD
ENDBRANCH 60 61
ENDBRANCH 59 60
ENDBRANCH 58 59
ENDBRANCH 47 58
ENDBRANCH 44 47
ENDBRANCH 42 43
BRANCH 42 70
ATOM     70  CB  ILE E1023     -48.907  29.823   0.073  1.00 38.78 LIG 0.01  C 
ATOM     71  CG2 ILE E1023     -49.171  31.168   0.765  1.00 39.01 LIG 0.01  C 
BRANCH 70 72
ATOM     72  CG1 ILE E1023     -47.451  29.329   0.331  1.00 39.61 LIG 0.00  C 
ATOM     73  CD1 ILE E1023     -46.683  28.785  -0.848  1.00 43.21 LIG 0.01  C 
ENDBRANCH 70 72
ENDBRANCH 42 70
ENDBRANCH 1 42
TORSDOF 26
ENDMDL
MODEL 55
USER: ADFR SOLUTION from run 148
USER: SCORE 22.846172 LL:  -6.552 LR: -17.627 RR:   0.000 FEB:  -9.871
USER: RMSD 13.114837
USER: SEED 147
USER: STATUS no improvement in best in 9 clusters for 5 generations
USER: GENES 28
USER: genes 0 Translation |==|  0.52109 0.58497 0.51664
USER: genes 1 Rotation |==|  0.82783 0.87157 0.46364 0.55607
USER: genes 2 Torsion [N]-CA--C-[O] |==|  0.19754
USER: genes 3 Torsion [C]-N--CA-[CB] |==|  0.20145
USER: genes 4 Torsion [N]-CA--C-[N] |==|  0.00055
USER: genes 5 Torsion [C]-N--CA-[C] |==|  0.14029
USER: genes 6 Torsion [N]-CA--CB-[CG] |==|  0.93880
USER: genes 7 Torsion [CA]-CB--CG-[CD1] |==|  0.80961
USER: genes 8 Torsion [N]-CA--C-[N] |==|  0.10352
USER: genes 9 Torsion [C]-N--CA-[C] |==|  0.79146
USER: genes 10 Torsion [N]-CA--CB-[CG] |==|  0.77904
USER: genes 11 Torsion [CA]-CB--CG-[OD1] |==|  0.93401
USER: genes 12 Torsion [N]-CA--C-[O] |==|  0.96767
USER: genes 13 Torsion [N]-CA--CB-[CG2] |==|  0.71127
USER: genes 14 Torsion [CA]-CB--CG1-[CD1] |==|  0.21457
USER: genes 15 Torsion [N]-C--CA-[N] |==|  0.33750
USER: genes 16 Torsion [C]-CA--N-[C] |==|  0.56443
USER: genes 17 Torsion [N]-C--CA-[N] |==|  0.90114
USER: genes 18 Torsion [C]-CA--N-[C] |==|  0.65003
USER: genes 19 Torsion [N]-C--CA-[N] |==|  0.39058
USER: genes 20 Torsion [C]-CA--CB-[CG1] |==|  0.04396
USER: genes 21 Torsion [CA]-CB--CG1-[CD1] |==|  0.29703
USER: genes 22 Torsion [C]-CA--CB-[CG] |==|  0.52198
USER: genes 23 Torsion [CA]-CB--CG-[CD] |==|  0.59051
USER: genes 24 Torsion [CB]-CG--CD-[NE] |==|  0.07254
USER: genes 25 Torsion [CG]-CD--NE-[CZ] |==|  0.61504
USER: genes 26 Torsion [C]-CA--CB-[CG1] |==|  0.67148
USER: genes 27 Torsion [CA]-CB--CG1-[CD1] |==|  0.47783
ROOT
ATOM      1  C   ILE E1023     -48.040  27.006   0.932  1.00 40.02 LIG 0.24  C 
ATOM      2 O    ILE E1023     -46.858  27.267   1.204  1.00 38.38 LIG-0.27  OA
ATOM      3  N   PRO E1024     -48.422  25.853   0.327  1.00 37.38 LIG-0.34  N 
ATOM      4  CA  PRO E1024     -47.397  24.919  -0.160  1.00 36.67 LIG 0.18  C 
ATOM      5  CB  PRO E1024     -48.179  23.635  -0.421  1.00 38.74 LIG 0.04  C 
ATOM      6  CG  PRO E1024     -49.555  24.086  -0.737  1.00 43.33 LIG 0.02  C 
ATOM      7  CD  PRO E1024     -49.781  25.406  -0.058  1.00 39.42 LIG 0.13  C 
ENDROOT
BRANCH 4 8
ATOM      8  C   PRO E1024     -46.782  25.482  -1.435  1.00 39.60 LIG 0.24  C 
ATOM      9 O    PRO E1024     -46.046  26.465  -1.361  1.00 37.18 LIG-0.27  OA
ATOM     10  N   ILE E1025     -47.061  24.833  -2.584  1.00 37.20 LIG-0.35  N 
ATOM     11 H    ILE E1025     -47.573  24.142  -2.596  1.00 37.20 LIG 0.16  HD
BRANCH 10 12
ATOM     12  CA  ILE E1025     -46.565  25.176  -3.924  1.00 37.42 LIG 0.18  C 
BRANCH 12 13
ATOM     13  C   ILE E1025     -47.251  24.323  -4.989  1.00 40.88 LIG 0.24  C 
ATOM     14 O    ILE E1025     -47.097  24.616  -6.176  1.00 40.29 LIG-0.27  OA
ATOM     15  N   PHE E1026     -48.168  23.424  -4.582  1.00 36.23 LIG-0.35  N 
ATOM     16 H    PHE E1026     -48.288  23.191  -3.763  1.00 36.23 LIG 0.16  HD
BRANCH 15 17
ATOM     17  CA  PHE E1026     -49.057  22.760  -5.545  1.00 36.58 LIG 0.18  C 
BRANCH 17 18
ATOM     18  CB  PHE E1026     -50.120  23.714  -6.081  1.00 38.58 LIG 0.07  C 
BRANCH 18 19
ATOM     19  CG  PHE E1026     -50.358  24.880  -5.167  1.00 40.24 LIG-0.06  A 
ATOM     20  CD1 PHE E1026     -50.951  24.699  -3.936  1.00 42.20 LIG 0.01  A 
ATOM     21  CE1 PHE E1026     -51.180  25.777  -3.098  1.00 42.54 LIG 0.00  A 
ATOM     22  CZ  PHE E1026     -50.816  27.040  -3.486  1.00 41.81 LIG 0.00  A 
ATOM     23  CE2 PHE E1026     -50.232  27.245  -4.708  1.00 44.36 LIG 0.00  A 
ATOM     24  CD2 PHE E1026     -50.007  26.168  -5.551  1.00 42.30 LIG 0.01  A 
ENDBRANCH 18 19
ENDBRANCH 17 18
BRANCH 17 25
ATOM     25  C   PHE E1026     -48.262  22.169  -6.695  1.00 38.60 LIG 0.24  C 
ATOM     26  N   ASN E1027     -47.060  21.629  -6.372  1.00 38.80 LIG-0.35  N 
ATOM     27 H    ASN E1027     -46.751  21.641  -5.569  1.00 38.80 LIG 0.16  HD
ATOM     28 O    PHE E1026     -48.746  22.145  -7.824  1.00 31.59 LIG-0.27  OA
BRANCH 26 29
ATOM     29  CA  ASN E1027     -46.156  20.974  -7.325  1.00 74.37 LIG 0.17  C 
BRANCH 29 30
ATOM     30  CB  ASN E1027     -44.759  20.842  -6.727  1.00 75.17 LIG 0.14  C 
BRANCH 30 31
ATOM     31  CG  ASN E1027     -43.958  22.118  -6.800  1.00 99.64 LIG 0.22  C 
ATOM     32  ND2 ASN E1027     -42.977  22.282  -5.917  1.00 92.55 LIG-0.37  N 
ATOM     33 22HD ASN E1027     -42.816  21.669  -5.336  1.00 92.55 LIG 0.16  HD
ATOM     34 21HD ASN E1027     -42.505  23.001  -5.926  1.00 92.55 LIG 0.16  HD
ATOM     35 OD1  ASN E1027     -44.215  22.979  -7.645  1.00 94.01 LIG-0.27  OA
ENDBRANCH 30 31
ENDBRANCH 29 30
BRANCH 29 36
ATOM     36  C   ASN E1027     -46.686  19.587  -7.686  1.00103.37 LIG 0.22  C 
ATOM     37 O    ASN E1027     -47.604  19.087  -7.042  1.00 69.20 LIG-0.29  OA
ENDBRANCH 29 36
ENDBRANCH 26 29
ENDBRANCH 17 25
ENDBRANCH 15 17
ENDBRANCH 12 13
BRANCH 12 38
ATOM     38  CB  ILE E1025     -45.023  24.791  -4.002  1.00 40.50 LIG 0.01  C 
ATOM     39  CG2 ILE E1025     -44.121  26.029  -3.905  1.00 43.95 LIG 0.01  C 
BRANCH 38 40
ATOM     40  CG1 ILE E1025     -44.613  23.737  -2.973  1.00 41.58 LIG 0.00  C 
ATOM     41  CD1 ILE E1025     -45.068  22.235  -3.396  1.00 52.05 LIG 0.01  C 
ENDBRANCH 38 40
ENDBRANCH 12 38
ENDBRANCH 10 12
ENDBRANCH 4 8
BRANCH 1 42
ATOM     42  CA  ILE E1023     -49.116  27.976   1.387  1.00 36.06 LIG 0.18  C 
BRANCH 42 43
ATOM     43  N   ILE E1023     -48.937  28.155   2.841  1.00 37.96 LIG-0.35  N 
ATOM     44  C   ARG E1022     -49.934  28.559   3.658  1.00 45.42 LIG 0.24  C 
ATOM     45 O    ARG E1022     -51.049  28.884   3.249  1.00 45.23 LIG-0.27  OA
ATOM     46 H    ILE E1023     -48.143  27.980   3.117  1.00 37.96 LIG 0.16  HD
BRANCH 44 47
ATOM     47  CA  ARG E1022     -49.641  28.688   5.153  1.00 45.59 LIG 0.18  C 
BRANCH 47 48
ATOM     48  N   ARG E1022     -48.709  27.664   5.652  1.00 48.30 LIG-0.35  N 
ATOM     49 H    ARG E1022     -47.966  27.619   5.221  1.00 48.30 LIG 0.16  HD
ATOM     50  C   ILE E1021     -49.020  26.872   6.702  1.00 57.51 LIG 0.26  C 
ATOM     51 O    ILE E1021     -50.095  26.958   7.310  1.00 59.03 LIG-0.27  OA
BRANCH 50 52
ATOM     52  CA  ILE E1021     -47.981  25.835   7.161  1.00 57.59 LIG 0.40  C 
ATOM     53  N   ILE E1021     -47.982  25.786   8.620  1.00 58.96 LIG 0.61  N 
BRANCH 52 54
ATOM     54  CB  ILE E1021     -48.299  24.401   6.654  1.00 60.58 LIG 0.03  C 
ATOM     55  CG2 ILE E1021     -48.763  23.468   7.769  1.00 61.37 LIG 0.01  C 
BRANCH 54 56
ATOM     56  CG1 ILE E1021     -49.340  24.446   5.508  1.00 60.59 LIG 0.00  C 
ATOM     57  CD1 ILE E1021     -48.744  24.161   4.181  1.00 60.15 LIG 0.01  C 
ENDBRANCH 54 56
ENDBRANCH 52 54
ENDBRANCH 50 52
ENDBRANCH 47 48
BRANCH 47 58
ATOM     58  CB  ARG E1022     -49.133  30.109   5.431  1.00 44.33 LIG 0.04  C 
BRANCH 58 59
ATOM     59  CG  ARG E1022     -48.628  30.297   6.856  1.00 47.73 LIG 0.02  C 
BRANCH 59 60
ATOM     60  CD  ARG E1022     -48.863  31.694   7.390  1.00 47.87 LIG 0.14  C 
BRANCH 60 61
ATOM     61  NE  ARG E1022     -50.003  32.318   6.722  1.00 55.98 LIG-0.23  N 
ATOM     62  CZ  ARG E1022     -50.079  33.580   6.308  1.00 56.00 LIG 0.67  C 
ATOM     63  NH1 ARG E1022     -49.049  34.405   6.462  1.00 48.69 LIG-0.23  N 
ATOM     64  NH2 ARG E1022     -51.174  34.021   5.707  1.00 32.20 LIG-0.23  N 
ATOM     65 1HH1 ARG E1022     -48.325  34.124   6.832  1.00 48.69 LIG 0.17  HD
ATOM     66 2HH1 ARG E1022     -49.106  35.219   6.192  1.00 48.69 LIG 0.17  HD
ATOM     67 2HH2 ARG E1022     -51.220  34.837   5.441  1.00 32.20 LIG 0.17  HD
ATOM     68 1HH2 ARG E1022     -51.839  33.490   5.583  1.00 32.20 LIG 0.17  HD
ATOM     69 HE   ARG E1022     -50.691  31.821   6.582  1.00 55.98 LIG 0.18  HD
ENDBRANCH 60 61
ENDBRANCH 59 60
ENDBRANCH 58 59
ENDBRANCH 47 58
ENDBRANCH 44 47
ENDBRANCH 42 43
BRANCH 42 70
ATOM     70  CB  ILE E1023     -48.985  29.311   0.583  1.00 38.78 LIG 0.01  C 
ATOM     71  CG2 ILE E1023     -50.230  29.544  -0.286  1.00 39.01 LIG 0.01  C 
BRANCH 70 72
ATOM     72  CG1 ILE E1023     -48.683  30.547   1.482  1.00 39.61 LIG 0.00  C 
ATOM     73  CD1 ILE E1023     -48.356  31.846   0.789  1.00 43.21 LIG 0.01  C 
ENDBRANCH 70 72
ENDBRANCH 42 70
ENDBRANCH 1 42
TORSDOF 26
ENDMDL
MODEL 56
USER: ADFR SOLUTION from run 102
USER: SCORE 22.377918 LL:  -5.395 LR: -17.617 RR:   0.000 FEB:  -9.861
USER: RMSD 3.134212
USER: SEED 101
USER: STATUS no improvement in best in 6 clusters for 5 generations
USER: GENES 28
USER: genes 0 Translation |==|  0.55134 0.49648 0.37593
USER: genes 1 Rotation |==|  0.40454 0.60389 0.65069 0.95540
USER: genes 2 Torsion [N]-CA--C-[O] |==|  0.07880
USER: genes 3 Torsion [C]-N--CA-[CB] |==|  0.13990
USER: genes 4 Torsion [N]-CA--C-[N] |==|  0.17777
USER: genes 5 Torsion [C]-N--CA-[C] |==|  0.77068
USER: genes 6 Torsion [N]-CA--CB-[CG] |==|  0.98123
USER: genes 7 Torsion [CA]-CB--CG-[CD1] |==|  0.80769
USER: genes 8 Torsion [N]-CA--C-[N] |==|  0.34943
USER: genes 9 Torsion [C]-N--CA-[C] |==|  0.85920
USER: genes 10 Torsion [N]-CA--CB-[CG] |==|  0.75201
USER: genes 11 Torsion [CA]-CB--CG-[OD1] |==|  0.29762
USER: genes 12 Torsion [N]-CA--C-[O] |==|  0.24046
USER: genes 13 Torsion [N]-CA--CB-[CG2] |==|  0.16358
USER: genes 14 Torsion [CA]-CB--CG1-[CD1] |==|  0.56063
USER: genes 15 Torsion [N]-C--CA-[N] |==|  0.34000
USER: genes 16 Torsion [C]-CA--N-[C] |==|  0.74016
USER: genes 17 Torsion [N]-C--CA-[N] |==|  0.91906
USER: genes 18 Torsion [C]-CA--N-[C] |==|  0.79965
USER: genes 19 Torsion [N]-C--CA-[N] |==|  0.36308
USER: genes 20 Torsion [C]-CA--CB-[CG1] |==|  0.26684
USER: genes 21 Torsion [CA]-CB--CG1-[CD1] |==|  0.81365
USER: genes 22 Torsion [C]-CA--CB-[CG] |==|  0.25826
USER: genes 23 Torsion [CA]-CB--CG-[CD] |==|  0.49326
USER: genes 24 Torsion [CB]-CG--CD-[NE] |==|  0.53872
USER: genes 25 Torsion [CG]-CD--NE-[CZ] |==|  0.62453
USER: genes 26 Torsion [C]-CA--CB-[CG1] |==|  0.46146
USER: genes 27 Torsion [CA]-CB--CG1-[CD1] |==|  0.15402
ROOT
ATOM      1  C   ILE E1023     -47.586  24.948  -3.078  1.00 40.02 LIG 0.24  C 
ATOM      2 O    ILE E1023     -48.382  25.759  -3.575  1.00 38.38 LIG-0.27  OA
ATOM      3  N   PRO E1024     -47.675  24.515  -1.795  1.00 37.38 LIG-0.34  N 
ATOM      4  CA  PRO E1024     -48.668  25.122  -0.897  1.00 36.67 LIG 0.18  C 
ATOM      5  CB  PRO E1024     -48.716  24.157   0.285  1.00 38.74 LIG 0.04  C 
ATOM      6  CG  PRO E1024     -47.372  23.535   0.323  1.00 43.33 LIG 0.02  C 
ATOM      7  CD  PRO E1024     -46.807  23.561  -1.068  1.00 39.42 LIG 0.13  C 
ENDROOT
BRANCH 4 8
ATOM      8  C   PRO E1024     -48.180  26.505  -0.484  1.00 39.60 LIG 0.24  C 
ATOM      9 O    PRO E1024     -47.448  27.134  -1.247  1.00 37.18 LIG-0.27  OA
ATOM     10  N   ILE E1025     -48.618  26.977   0.701  1.00 37.20 LIG-0.35  N 
ATOM     11 H    ILE E1025     -49.137  26.513   1.205  1.00 37.20 LIG 0.16  HD
BRANCH 10 12
ATOM     12  CA  ILE E1025     -48.301  28.285   1.292  1.00 37.42 LIG 0.18  C 
BRANCH 12 13
ATOM     13  C   ILE E1025     -49.249  28.601   2.447  1.00 40.88 LIG 0.24  C 
ATOM     14 O    ILE E1025     -49.863  29.669   2.438  1.00 40.29 LIG-0.27  OA
ATOM     15  N   PHE E1026     -49.207  27.803   3.532  1.00 36.23 LIG-0.35  N 
ATOM     16 H    PHE E1026     -48.798  27.047   3.562  1.00 36.23 LIG 0.16  HD
BRANCH 15 17
ATOM     17  CA  PHE E1026     -49.882  28.185   4.779  1.00 36.58 LIG 0.18  C 
BRANCH 17 18
ATOM     18  CB  PHE E1026     -50.252  26.965   5.616  1.00 38.58 LIG 0.07  C 
BRANCH 18 19
ATOM     19  CG  PHE E1026     -49.987  25.675   4.898  1.00 40.24 LIG-0.06  A 
ATOM     20  CD1 PHE E1026     -50.747  25.307   3.809  1.00 42.20 LIG 0.01  A 
ATOM     21  CE1 PHE E1026     -50.509  24.111   3.154  1.00 42.54 LIG 0.00  A 
ATOM     22  CZ  PHE E1026     -49.510  23.278   3.583  1.00 41.81 LIG 0.00  A 
ATOM     23  CE2 PHE E1026     -48.746  23.619   4.668  1.00 44.36 LIG 0.00  A 
ATOM     24  CD2 PHE E1026     -48.986  24.813   5.329  1.00 42.30 LIG 0.01  A 
ENDBRANCH 18 19
ENDBRANCH 17 18
BRANCH 17 25
ATOM     25  C   PHE E1026     -49.019  29.132   5.593  1.00 38.60 LIG 0.24  C 
ATOM     26  N   ASN E1027     -49.598  30.304   5.954  1.00 38.80 LIG-0.35  N 
ATOM     27 H    ASN E1027     -50.398  30.514   5.718  1.00 38.80 LIG 0.16  HD
ATOM     28 O    PHE E1026     -47.890  28.787   5.936  1.00 31.59 LIG-0.27  OA
BRANCH 26 29
ATOM     29  CA  ASN E1027     -48.952  31.337   6.772  1.00 74.37 LIG 0.17  C 
BRANCH 29 30
ATOM     30  CB  ASN E1027     -49.958  32.418   7.153  1.00 75.17 LIG 0.14  C 
BRANCH 30 31
ATOM     31  CG  ASN E1027     -50.039  33.537   6.145  1.00 99.64 LIG 0.22  C 
ATOM     32  ND2 ASN E1027     -49.027  34.400   6.100  1.00 92.55 LIG-0.37  N 
ATOM     33 22HD ASN E1027     -48.356  34.303   6.629  1.00 92.55 LIG 0.16  HD
ATOM     34 21HD ASN E1027     -49.043  35.054   5.542  1.00 92.55 LIG 0.16  HD
ATOM     35 OD1  ASN E1027     -51.014  33.649   5.399  1.00 94.01 LIG-0.27  OA
ENDBRANCH 30 31
ENDBRANCH 29 30
BRANCH 29 36
ATOM     36  C   ASN E1027     -48.369  30.717   8.040  1.00103.37 LIG 0.22  C 
ATOM     37 O    ASN E1027     -47.240  30.236   8.033  1.00 69.20 LIG-0.29  OA
ENDBRANCH 29 36
ENDBRANCH 26 29
ENDBRANCH 17 25
ENDBRANCH 15 17
ENDBRANCH 12 13
BRANCH 12 38
ATOM     38  CB  ILE E1025     -48.578  29.408   0.199  1.00 40.50 LIG 0.01  C 
ATOM     39  CG2 ILE E1025     -50.037  29.392  -0.277  1.00 43.95 LIG 0.01  C 
BRANCH 38 40
ATOM     40  CG1 ILE E1025     -48.171  30.809   0.657  1.00 41.58 LIG 0.00  C 
ATOM     41  CD1 ILE E1025     -48.936  31.985  -0.163  1.00 52.05 LIG 0.01  C 
ENDBRANCH 38 40
ENDBRANCH 12 38
ENDBRANCH 10 12
ENDBRANCH 4 8
BRANCH 1 42
ATOM     42  CA  ILE E1023     -46.523  24.338  -3.975  1.00 36.06 LIG 0.18  C 
BRANCH 42 43
ATOM     43  N   ILE E1023     -47.229  23.763  -5.136  1.00 37.96 LIG-0.35  N 
ATOM     44  C   ARG E1022     -47.620  22.471  -5.191  1.00 45.42 LIG 0.24  C 
ATOM     45 O    ARG E1022     -47.353  21.650  -4.313  1.00 45.23 LIG-0.27  OA
ATOM     46 H    ILE E1023     -47.367  24.324  -5.772  1.00 37.96 LIG 0.16  HD
BRANCH 44 47
ATOM     47  CA  ARG E1022     -48.365  21.989  -6.436  1.00 45.59 LIG 0.18  C 
BRANCH 47 48
ATOM     48  N   ARG E1022     -49.144  23.052  -7.093  1.00 48.30 LIG-0.35  N 
ATOM     49 H    ARG E1022     -48.816  23.324  -7.839  1.00 48.30 LIG 0.16  HD
ATOM     50  C   ILE E1021     -50.280  23.540  -6.546  1.00 57.51 LIG 0.26  C 
ATOM     51 O    ILE E1021     -50.736  23.129  -5.472  1.00 59.03 LIG-0.27  OA
BRANCH 50 52
ATOM     52  CA  ILE E1021     -51.034  24.644  -7.307  1.00 57.59 LIG 0.40  C 
ATOM     53  N   ILE E1021     -52.444  24.273  -7.392  1.00 58.96 LIG 0.61  N 
BRANCH 52 54
ATOM     54  CB  ILE E1021     -50.965  26.022  -6.592  1.00 60.58 LIG 0.03  C 
ATOM     55  CG2 ILE E1021     -50.821  25.897  -5.078  1.00 61.37 LIG 0.01  C 
BRANCH 54 56
ATOM     56  CG1 ILE E1021     -49.823  26.886  -7.183  1.00 60.59 LIG 0.00  C 
ATOM     57  CD1 ILE E1021     -48.478  26.333  -6.893  1.00 60.15 LIG 0.01  C 
ENDBRANCH 54 56
ENDBRANCH 52 54
ENDBRANCH 50 52
ENDBRANCH 47 48
BRANCH 47 58
ATOM     58  CB  ARG E1022     -47.354  21.345  -7.393  1.00 44.33 LIG 0.04  C 
BRANCH 58 59
ATOM     59  CG  ARG E1022     -47.226  19.839  -7.205  1.00 47.73 LIG 0.02  C 
BRANCH 59 60
ATOM     60  CD  ARG E1022     -46.271  19.196  -8.189  1.00 47.87 LIG 0.14  C 
BRANCH 60 61
ATOM     61  NE  ARG E1022     -46.430  17.743  -8.190  1.00 55.98 LIG-0.23  N 
ATOM     62  CZ  ARG E1022     -45.450  16.844  -8.174  1.00 56.00 LIG 0.67  C 
ATOM     63  NH1 ARG E1022     -44.179  17.231  -8.129  1.00 48.69 LIG-0.23  N 
ATOM     64  NH2 ARG E1022     -45.731  15.550  -8.170  1.00 32.20 LIG-0.23  N 
ATOM     65 1HH1 ARG E1022     -43.985  18.068  -8.109  1.00 48.69 LIG 0.17  HD
ATOM     66 2HH1 ARG E1022     -43.551  16.643  -8.119  1.00 48.69 LIG 0.17  HD
ATOM     67 2HH2 ARG E1022     -45.095  14.972  -8.160  1.00 32.20 LIG 0.17  HD
ATOM     68 1HH2 ARG E1022     -46.550  15.288  -8.177  1.00 32.20 LIG 0.17  HD
ATOM     69 HE   ARG E1022     -47.235  17.440  -8.201  1.00 55.98 LIG 0.18  HD
ENDBRANCH 60 61
ENDBRANCH 59 60
ENDBRANCH 58 59
ENDBRANCH 47 58
ENDBRANCH 44 47
ENDBRANCH 42 43
BRANCH 42 70
ATOM     70  CB  ILE E1023     -45.484  25.438  -4.372  1.00 38.78 LIG 0.01  C 
ATOM     71  CG2 ILE E1023     -45.172  26.347  -3.173  1.00 39.01 LIG 0.01  C 
BRANCH 70 72
ATOM     72  CG1 ILE E1023     -44.180  24.859  -4.998  1.00 39.61 LIG 0.00  C 
ATOM     73  CD1 ILE E1023     -44.327  23.964  -6.203  1.00 43.21 LIG 0.01  C 
ENDBRANCH 70 72
ENDBRANCH 42 70
ENDBRANCH 1 42
TORSDOF 26
ENDMDL
MODEL 57
USER: ADFR SOLUTION from run 186
USER: SCORE 22.184468 LL:  -7.293 LR: -17.610 RR:   0.000 FEB:  -9.854
USER: RMSD 12.118626
USER: SEED 185
USER: STATUS no improvement in best in 3 clusters for 5 generations
USER: GENES 28
USER: genes 0 Translation |==|  0.39984 0.51903 0.53712
USER: genes 1 Rotation |==|  0.10441 0.76518 0.36450 0.56947
USER: genes 2 Torsion [N]-CA--C-[O] |==|  0.75291
USER: genes 3 Torsion [C]-N--CA-[CB] |==|  0.85793
USER: genes 4 Torsion [N]-CA--C-[N] |==|  0.59647
USER: genes 5 Torsion [C]-N--CA-[C] |==|  0.83173
USER: genes 6 Torsion [N]-CA--CB-[CG] |==|  0.19999
USER: genes 7 Torsion [CA]-CB--CG-[CD1] |==|  0.82322
USER: genes 8 Torsion [N]-CA--C-[N] |==|  0.92398
USER: genes 9 Torsion [C]-N--CA-[C] |==|  0.78577
USER: genes 10 Torsion [N]-CA--CB-[CG] |==|  0.70829
USER: genes 11 Torsion [CA]-CB--CG-[OD1] |==|  0.57746
USER: genes 12 Torsion [N]-CA--C-[O] |==|  0.98867
USER: genes 13 Torsion [N]-CA--CB-[CG2] |==|  0.56521
USER: genes 14 Torsion [CA]-CB--CG1-[CD1] |==|  0.43500
USER: genes 15 Torsion [N]-C--CA-[N] |==|  0.16938
USER: genes 16 Torsion [C]-CA--N-[C] |==|  0.14282
USER: genes 17 Torsion [N]-C--CA-[N] |==|  0.81744
USER: genes 18 Torsion [C]-CA--N-[C] |==|  0.21635
USER: genes 19 Torsion [N]-C--CA-[N] |==|  0.39472
USER: genes 20 Torsion [C]-CA--CB-[CG1] |==|  0.91184
USER: genes 21 Torsion [CA]-CB--CG1-[CD1] |==|  0.30715
USER: genes 22 Torsion [C]-CA--CB-[CG] |==|  0.35168
USER: genes 23 Torsion [CA]-CB--CG-[CD] |==|  0.16514
USER: genes 24 Torsion [CB]-CG--CD-[NE] |==|  0.30971
USER: genes 25 Torsion [CG]-CD--NE-[CZ] |==|  0.29431
USER: genes 26 Torsion [C]-CA--CB-[CG1] |==|  0.56160
USER: genes 27 Torsion [CA]-CB--CG1-[CD1] |==|  0.87114
ROOT
ATOM      1  C   ILE E1023     -49.858  25.472   1.516  1.00 40.02 LIG 0.24  C 
ATOM      2 O    ILE E1023     -50.915  24.965   1.110  1.00 38.38 LIG-0.27  OA
ATOM      3  N   PRO E1024     -49.209  26.460   0.850  1.00 37.38 LIG-0.34  N 
ATOM      4  CA  PRO E1024     -49.685  26.867  -0.480  1.00 36.67 LIG 0.18  C 
ATOM      5  CB  PRO E1024     -48.968  28.192  -0.725  1.00 38.74 LIG 0.04  C 
ATOM      6  CG  PRO E1024     -47.713  28.095   0.057  1.00 43.33 LIG 0.02  C 
ATOM      7  CD  PRO E1024     -47.951  27.156   1.205  1.00 39.42 LIG 0.13  C 
ENDROOT
BRANCH 4 8
ATOM      8  C   PRO E1024     -49.284  25.804  -1.495  1.00 39.60 LIG 0.24  C 
ATOM      9 O    PRO E1024     -48.191  25.893  -2.053  1.00 37.18 LIG-0.27  OA
ATOM     10  N   ILE E1025     -50.154  24.793  -1.696  1.00 37.20 LIG-0.35  N 
ATOM     11 H    ILE E1025     -50.906  24.759  -1.280  1.00 37.20 LIG 0.16  HD
BRANCH 10 12
ATOM     12  CA  ILE E1025     -49.972  23.651  -2.602  1.00 37.42 LIG 0.18  C 
BRANCH 12 13
ATOM     13  C   ILE E1025     -48.793  22.789  -2.157  1.00 40.88 LIG 0.24  C 
ATOM     14 O    ILE E1025     -48.443  22.821  -0.976  1.00 40.29 LIG-0.27  OA
ATOM     15  N   PHE E1026     -48.047  22.201  -3.113  1.00 36.23 LIG-0.35  N 
ATOM     16 H    PHE E1026     -48.272  22.152  -3.942  1.00 36.23 LIG 0.16  HD
BRANCH 15 17
ATOM     17  CA  PHE E1026     -46.754  21.583  -2.791  1.00 36.58 LIG 0.18  C 
BRANCH 17 18
ATOM     18  CB  PHE E1026     -46.135  20.905  -4.009  1.00 38.58 LIG 0.07  C 
BRANCH 18 19
ATOM     19  CG  PHE E1026     -45.624  21.892  -5.018  1.00 40.24 LIG-0.06  A 
ATOM     20  CD1 PHE E1026     -46.489  22.750  -5.663  1.00 42.20 LIG 0.01  A 
ATOM     21  CE1 PHE E1026     -46.018  23.652  -6.601  1.00 42.54 LIG 0.00  A 
ATOM     22  CZ  PHE E1026     -44.681  23.702  -6.898  1.00 41.81 LIG 0.00  A 
ATOM     23  CE2 PHE E1026     -43.804  22.854  -6.276  1.00 44.36 LIG 0.00  A 
ATOM     24  CD2 PHE E1026     -44.274  21.945  -5.340  1.00 42.30 LIG 0.01  A 
ENDBRANCH 18 19
ENDBRANCH 17 18
BRANCH 17 25
ATOM     25  C   PHE E1026     -45.791  22.610  -2.222  1.00 38.60 LIG 0.24  C 
ATOM     26  N   ASN E1027     -45.988  23.893  -2.616  1.00 38.80 LIG-0.35  N 
ATOM     27 H    ASN E1027     -46.605  24.114  -3.173  1.00 38.80 LIG 0.16  HD
ATOM     28 O    PHE E1026     -44.940  22.263  -1.407  1.00 31.59 LIG-0.27  OA
BRANCH 26 29
ATOM     29  CA  ASN E1027     -45.196  25.039  -2.153  1.00 74.37 LIG 0.17  C 
BRANCH 29 30
ATOM     30  CB  ASN E1027     -45.375  26.223  -3.098  1.00 75.17 LIG 0.14  C 
BRANCH 30 31
ATOM     31  CG  ASN E1027     -44.183  26.456  -3.991  1.00 99.64 LIG 0.22  C 
ATOM     32  ND2 ASN E1027     -43.423  25.406  -4.290  1.00 92.55 LIG-0.37  N 
ATOM     33 22HD ASN E1027     -43.623  24.629  -3.981  1.00 92.55 LIG 0.16  HD
ATOM     34 21HD ASN E1027     -42.731  25.504  -4.792  1.00 92.55 LIG 0.16  HD
ATOM     35 OD1  ASN E1027     -43.922  27.582  -4.419  1.00 94.01 LIG-0.27  OA
ENDBRANCH 30 31
ENDBRANCH 29 30
BRANCH 29 36
ATOM     36  C   ASN E1027     -45.627  25.443  -0.745  1.00103.37 LIG 0.22  C 
ATOM     37 O    ASN E1027     -46.571  24.879  -0.198  1.00 69.20 LIG-0.29  OA
ENDBRANCH 29 36
ENDBRANCH 26 29
ENDBRANCH 17 25
ENDBRANCH 15 17
ENDBRANCH 12 13
BRANCH 12 38
ATOM     38  CB  ILE E1025     -49.571  24.209  -4.037  1.00 40.50 LIG 0.01  C 
ATOM     39  CG2 ILE E1025     -49.915  23.213  -5.152  1.00 43.95 LIG 0.01  C 
BRANCH 38 40
ATOM     40  CG1 ILE E1025     -50.164  25.586  -4.335  1.00 41.58 LIG 0.00  C 
ATOM     41  CD1 ILE E1025     -49.319  26.404  -5.458  1.00 52.05 LIG 0.01  C 
ENDBRANCH 38 40
ENDBRANCH 12 38
ENDBRANCH 10 12
ENDBRANCH 4 8
BRANCH 1 42
ATOM     42  CA  ILE E1023     -49.322  25.038   2.869  1.00 36.06 LIG 0.18  C 
BRANCH 42 43
ATOM     43  N   ILE E1023     -49.381  26.221   3.748  1.00 37.96 LIG-0.35  N 
ATOM     44  C   ARG E1022     -50.499  26.963   3.906  1.00 45.42 LIG 0.24  C 
ATOM     45 O    ARG E1022     -51.535  26.760   3.272  1.00 45.23 LIG-0.27  OA
ATOM     46 H    ILE E1023     -48.640  26.394   4.149  1.00 37.96 LIG 0.16  HD
BRANCH 44 47
ATOM     47  CA  ARG E1022     -50.452  28.155   4.862  1.00 45.59 LIG 0.18  C 
BRANCH 47 48
ATOM     48  N   ARG E1022     -50.255  27.763   6.268  1.00 48.30 LIG-0.35  N 
ATOM     49 H    ARG E1022     -50.970  27.780   6.745  1.00 48.30 LIG 0.16  HD
ATOM     50  C   ILE E1021     -49.041  27.408   6.742  1.00 57.51 LIG 0.26  C 
ATOM     51 O    ILE E1021     -48.026  27.386   6.034  1.00 59.03 LIG-0.27  OA
BRANCH 50 52
ATOM     52  CA  ILE E1021     -48.930  27.004   8.222  1.00 57.59 LIG 0.40  C 
ATOM     53  N   ILE E1021     -47.981  25.901   8.336  1.00 58.96 LIG 0.61  N 
BRANCH 52 54
ATOM     54  CB  ILE E1021     -48.404  28.157   9.122  1.00 60.58 LIG 0.03  C 
ATOM     55  CG2 ILE E1021     -47.759  27.654  10.411  1.00 61.37 LIG 0.01  C 
BRANCH 54 56
ATOM     56  CG1 ILE E1021     -47.424  29.060   8.333  1.00 60.59 LIG 0.00  C 
ATOM     57  CD1 ILE E1021     -47.981  30.407   8.059  1.00 60.15 LIG 0.01  C 
ENDBRANCH 54 56
ENDBRANCH 52 54
ENDBRANCH 50 52
ENDBRANCH 47 48
BRANCH 47 58
ATOM     58  CB  ARG E1022     -49.366  29.125   4.381  1.00 44.33 LIG 0.04  C 
BRANCH 58 59
ATOM     59  CG  ARG E1022     -49.873  30.550   4.201  1.00 47.73 LIG 0.02  C 
BRANCH 59 60
ATOM     60  CD  ARG E1022     -50.433  31.148   5.475  1.00 47.87 LIG 0.14  C 
BRANCH 60 61
ATOM     61  NE  ARG E1022     -49.572  32.226   5.961  1.00 55.98 LIG-0.23  N 
ATOM     62  CZ  ARG E1022     -49.830  33.529   5.895  1.00 56.00 LIG 0.67  C 
ATOM     63  NH1 ARG E1022     -50.970  33.967   5.372  1.00 48.69 LIG-0.23  N 
ATOM     64  NH2 ARG E1022     -48.964  34.406   6.381  1.00 32.20 LIG-0.23  N 
ATOM     65 1HH1 ARG E1022     -51.549  33.406   5.073  1.00 48.69 LIG 0.17  HD
ATOM     66 2HH1 ARG E1022     -51.129  34.811   5.333  1.00 48.69 LIG 0.17  HD
ATOM     67 2HH2 ARG E1022     -49.134  35.247   6.336  1.00 32.20 LIG 0.17  HD
ATOM     68 1HH2 ARG E1022     -48.232  34.133   6.741  1.00 32.20 LIG 0.17  HD
ATOM     69 HE   ARG E1022     -48.828  31.994   6.325  1.00 55.98 LIG 0.18  HD
ENDBRANCH 60 61
ENDBRANCH 59 60
ENDBRANCH 58 59
ENDBRANCH 47 58
ENDBRANCH 44 47
ENDBRANCH 42 43
BRANCH 42 70
ATOM     70  CB  ILE E1023     -50.168  23.835   3.401  1.00 38.78 LIG 0.01  C 
ATOM     71  CG2 ILE E1023     -49.784  22.538   2.673  1.00 39.01 LIG 0.01  C 
BRANCH 70 72
ATOM     72  CG1 ILE E1023     -50.090  23.660   4.948  1.00 39.61 LIG 0.00  C 
ATOM     73  CD1 ILE E1023     -48.725  23.727   5.586  1.00 43.21 LIG 0.01  C 
ENDBRANCH 70 72
ENDBRANCH 42 70
ENDBRANCH 1 42
TORSDOF 26
ENDMDL
MODEL 58
USER: ADFR SOLUTION from run 144
USER: SCORE 23.165318 LL:  -6.640 LR: -17.606 RR:   0.000 FEB:  -9.850
USER: RMSD 2.988682
USER: SEED 143
USER: STATUS no improvement in best in 8 clusters for 5 generations
USER: GENES 28
USER: genes 0 Translation |==|  0.51299 0.47862 0.41574
USER: genes 1 Rotation |==|  0.45617 0.46355 0.51859 0.99639
USER: genes 2 Torsion [N]-CA--C-[O] |==|  0.86448
USER: genes 3 Torsion [C]-N--CA-[CB] |==|  0.48891
USER: genes 4 Torsion [N]-CA--C-[N] |==|  0.36182
USER: genes 5 Torsion [C]-N--CA-[C] |==|  0.54675
USER: genes 6 Torsion [N]-CA--CB-[CG] |==|  0.14763
USER: genes 7 Torsion [CA]-CB--CG-[CD1] |==|  0.74438
USER: genes 8 Torsion [N]-CA--C-[N] |==|  0.45050
USER: genes 9 Torsion [C]-N--CA-[C] |==|  0.19373
USER: genes 10 Torsion [N]-CA--CB-[CG] |==|  0.79723
USER: genes 11 Torsion [CA]-CB--CG-[OD1] |==|  0.04979
USER: genes 12 Torsion [N]-CA--C-[O] |==|  0.22975
USER: genes 13 Torsion [N]-CA--CB-[CG2] |==|  0.39996
USER: genes 14 Torsion [CA]-CB--CG1-[CD1] |==|  0.97419
USER: genes 15 Torsion [N]-C--CA-[N] |==|  0.34570
USER: genes 16 Torsion [C]-CA--N-[C] |==|  0.81526
USER: genes 17 Torsion [N]-C--CA-[N] |==|  0.92830
USER: genes 18 Torsion [C]-CA--N-[C] |==|  0.83451
USER: genes 19 Torsion [N]-C--CA-[N] |==|  0.43889
USER: genes 20 Torsion [C]-CA--CB-[CG1] |==|  0.02676
USER: genes 21 Torsion [CA]-CB--CG1-[CD1] |==|  0.50716
USER: genes 22 Torsion [C]-CA--CB-[CG] |==|  0.75439
USER: genes 23 Torsion [CA]-CB--CG-[CD] |==|  0.19829
USER: genes 24 Torsion [CB]-CG--CD-[NE] |==|  0.54124
USER: genes 25 Torsion [CG]-CD--NE-[CZ] |==|  0.78757
USER: genes 26 Torsion [C]-CA--CB-[CG1] |==|  0.37923
USER: genes 27 Torsion [CA]-CB--CG1-[CD1] |==|  0.13886
ROOT
ATOM      1  C   ILE E1023     -48.161  24.533  -1.943  1.00 40.02 LIG 0.24  C 
ATOM      2 O    ILE E1023     -48.156  25.688  -2.393  1.00 38.38 LIG-0.27  OA
ATOM      3  N   PRO E1024     -49.146  24.056  -1.141  1.00 37.38 LIG-0.34  N 
ATOM      4  CA  PRO E1024     -50.191  24.971  -0.660  1.00 36.67 LIG 0.18  C 
ATOM      5  CB  PRO E1024     -51.269  24.032  -0.127  1.00 38.74 LIG 0.04  C 
ATOM      6  CG  PRO E1024     -50.539  22.813   0.292  1.00 43.33 LIG 0.02  C 
ATOM      7  CD  PRO E1024     -49.287  22.714  -0.531  1.00 39.42 LIG 0.13  C 
ENDROOT
BRANCH 4 8
ATOM      8  C   PRO E1024     -49.608  25.852   0.438  1.00 39.60 LIG 0.24  C 
ATOM      9 O    PRO E1024     -48.976  25.327   1.354  1.00 37.18 LIG-0.27  OA
ATOM     10  N   ILE E1025     -49.794  27.182   0.316  1.00 37.20 LIG-0.35  N 
ATOM     11 H    ILE E1025     -50.234  27.515  -0.344  1.00 37.20 LIG 0.16  HD
BRANCH 10 12
ATOM     12  CA  ILE E1025     -49.306  28.221   1.234  1.00 37.42 LIG 0.18  C 
BRANCH 12 13
ATOM     13  C   ILE E1025     -50.038  28.148   2.572  1.00 40.88 LIG 0.24  C 
ATOM     14 O    ILE E1025     -51.260  28.301   2.592  1.00 40.29 LIG-0.27  OA
ATOM     15  N   PHE E1026     -49.294  28.140   3.696  1.00 36.23 LIG-0.35  N 
ATOM     16 H    PHE E1026     -48.443  28.022   3.713  1.00 36.23 LIG 0.16  HD
BRANCH 15 17
ATOM     17  CA  PHE E1026     -49.913  28.340   5.014  1.00 36.58 LIG 0.18  C 
BRANCH 17 18
ATOM     18  CB  PHE E1026     -50.694  27.108   5.461  1.00 38.58 LIG 0.07  C 
BRANCH 18 19
ATOM     19  CG  PHE E1026     -49.867  25.856   5.412  1.00 40.24 LIG-0.06  A 
ATOM     20  CD1 PHE E1026     -49.860  25.061   4.286  1.00 42.20 LIG 0.01  A 
ATOM     21  CE1 PHE E1026     -49.106  23.901   4.247  1.00 42.54 LIG 0.00  A 
ATOM     22  CZ  PHE E1026     -48.356  23.530   5.332  1.00 41.81 LIG 0.00  A 
ATOM     23  CE2 PHE E1026     -48.354  24.300   6.464  1.00 44.36 LIG 0.00  A 
ATOM     24  CD2 PHE E1026     -49.112  25.460   6.509  1.00 42.30 LIG 0.01  A 
ENDBRANCH 18 19
ENDBRANCH 17 18
BRANCH 17 25
ATOM     25  C   PHE E1026     -48.867  28.698   6.053  1.00 38.60 LIG 0.24  C 
ATOM     26  N   ASN E1027     -49.332  29.265   7.195  1.00 38.80 LIG-0.35  N 
ATOM     27 H    ASN E1027     -50.166  29.435   7.317  1.00 38.80 LIG 0.16  HD
ATOM     28 O    PHE E1026     -47.687  28.415   5.856  1.00 31.59 LIG-0.27  OA
BRANCH 26 29
ATOM     29  CA  ASN E1027     -48.494  29.649   8.337  1.00 74.37 LIG 0.17  C 
BRANCH 29 30
ATOM     30  CB  ASN E1027     -47.606  28.483   8.760  1.00 75.17 LIG 0.14  C 
BRANCH 30 31
ATOM     31  CG  ASN E1027     -48.363  27.383   9.462  1.00 99.64 LIG 0.22  C 
ATOM     32  ND2 ASN E1027     -47.658  26.508  10.173  1.00 92.55 LIG-0.37  N 
ATOM     33 22HD ASN E1027     -46.803  26.586  10.226  1.00 92.55 LIG 0.16  HD
ATOM     34 21HD ASN E1027     -48.057  25.864  10.581  1.00 92.55 LIG 0.16  HD
ATOM     35 OD1  ASN E1027     -49.589  27.299   9.368  1.00 94.01 LIG-0.27  OA
ENDBRANCH 30 31
ENDBRANCH 29 30
BRANCH 29 36
ATOM     36  C   ASN E1027     -47.619  30.846   7.971  1.00103.37 LIG 0.22  C 
ATOM     37 O    ASN E1027     -48.071  31.986   8.031  1.00 69.20 LIG-0.29  OA
ENDBRANCH 29 36
ENDBRANCH 26 29
ENDBRANCH 17 25
ENDBRANCH 15 17
ENDBRANCH 12 13
BRANCH 12 38
ATOM     38  CB  ILE E1025     -49.681  29.643   0.624  1.00 40.50 LIG 0.01  C 
ATOM     39  CG2 ILE E1025     -50.053  30.652   1.720  1.00 43.95 LIG 0.01  C 
BRANCH 38 40
ATOM     40  CG1 ILE E1025     -48.597  30.211  -0.292  1.00 41.58 LIG 0.00  C 
ATOM     41  CD1 ILE E1025     -47.219  29.350  -0.243  1.00 52.05 LIG 0.01  C 
ENDBRANCH 38 40
ENDBRANCH 12 38
ENDBRANCH 10 12
ENDBRANCH 4 8
BRANCH 1 42
ATOM     42  CA  ILE E1023     -47.068  23.579  -2.392  1.00 36.06 LIG 0.18  C 
BRANCH 42 43
ATOM     43  N   ILE E1023     -47.045  23.624  -3.866  1.00 37.96 LIG-0.35  N 
ATOM     44  C   ARG E1022     -48.062  23.172  -4.630  1.00 45.42 LIG 0.24  C 
ATOM     45 O    ARG E1022     -49.056  22.615  -4.165  1.00 45.23 LIG-0.27  OA
ATOM     46 H    ILE E1023     -46.325  23.965  -4.192  1.00 37.96 LIG 0.16  HD
BRANCH 44 47
ATOM     47  CA  ARG E1022     -47.939  23.291  -6.150  1.00 45.59 LIG 0.18  C 
BRANCH 47 48
ATOM     48  N   ARG E1022     -47.049  24.384  -6.576  1.00 48.30 LIG-0.35  N 
ATOM     49 H    ARG E1022     -46.378  24.131  -7.049  1.00 48.30 LIG 0.16  HD
ATOM     50  C   ILE E1021     -47.292  25.669  -6.237  1.00 57.51 LIG 0.26  C 
ATOM     51 O    ILE E1021     -48.268  26.009  -5.557  1.00 59.03 LIG-0.27  OA
BRANCH 50 52
ATOM     52  CA  ILE E1021     -46.313  26.747  -6.733  1.00 57.59 LIG 0.40  C 
ATOM     53  N   ILE E1021     -46.996  28.037  -6.728  1.00 58.96 LIG 0.61  N 
BRANCH 52 54
ATOM     54  CB  ILE E1021     -45.061  26.887  -5.823  1.00 60.58 LIG 0.03  C 
ATOM     55  CG2 ILE E1021     -44.981  28.245  -5.132  1.00 61.37 LIG 0.01  C 
BRANCH 54 56
ATOM     56  CG1 ILE E1021     -45.009  25.738  -4.786  1.00 60.59 LIG 0.00  C 
ATOM     57  CD1 ILE E1021     -43.864  25.860  -3.852  1.00 60.15 LIG 0.01  C 
ENDBRANCH 54 56
ENDBRANCH 52 54
ENDBRANCH 50 52
ENDBRANCH 47 48
BRANCH 47 58
ATOM     58  CB  ARG E1022     -47.492  21.936  -6.712  1.00 44.33 LIG 0.04  C 
BRANCH 58 59
ATOM     59  CG  ARG E1022     -45.977  21.777  -6.758  1.00 47.73 LIG 0.02  C 
BRANCH 59 60
ATOM     60  CD  ARG E1022     -45.355  21.611  -5.387  1.00 47.87 LIG 0.14  C 
BRANCH 60 61
ATOM     61  NE  ARG E1022     -43.908  21.814  -5.448  1.00 55.98 LIG-0.23  N 
ATOM     62  CZ  ARG E1022     -43.012  20.947  -5.912  1.00 56.00 LIG 0.67  C 
ATOM     63  NH1 ARG E1022     -43.396  19.775  -6.405  1.00 48.69 LIG-0.23  N 
ATOM     64  NH2 ARG E1022     -41.724  21.259  -5.917  1.00 32.20 LIG-0.23  N 
ATOM     65 1HH1 ARG E1022     -44.232  19.571  -6.426  1.00 48.69 LIG 0.17  HD
ATOM     66 2HH1 ARG E1022     -42.810  19.221  -6.702  1.00 48.69 LIG 0.17  HD
ATOM     67 2HH2 ARG E1022     -41.147  20.696  -6.217  1.00 32.20 LIG 0.17  HD
ATOM     68 1HH2 ARG E1022     -41.465  22.023  -5.620  1.00 32.20 LIG 0.17  HD
ATOM     69 HE   ARG E1022     -43.608  22.566  -5.157  1.00 55.98 LIG 0.18  HD
ENDBRANCH 60 61
ENDBRANCH 59 60
ENDBRANCH 58 59
ENDBRANCH 47 58
ENDBRANCH 44 47
ENDBRANCH 42 43
BRANCH 42 70
ATOM     70  CB  ILE E1023     -45.709  24.004  -1.743  1.00 38.78 LIG 0.01  C 
ATOM     71  CG2 ILE E1023     -45.935  25.072  -0.662  1.00 39.01 LIG 0.01  C 
BRANCH 70 72
ATOM     72  CG1 ILE E1023     -44.885  22.803  -1.190  1.00 39.61 LIG 0.00  C 
ATOM     73  CD1 ILE E1023     -44.671  21.626  -2.109  1.00 43.21 LIG 0.01  C 
ENDBRANCH 70 72
ENDBRANCH 42 70
ENDBRANCH 1 42
TORSDOF 26
ENDMDL
MODEL 59
USER: ADFR SOLUTION from run 186
USER: SCORE 23.398816 LL:  -6.573 LR: -17.607 RR:   0.000 FEB:  -9.851
USER: RMSD 12.541462
USER: SEED 185
USER: STATUS no improvement in best in 3 clusters for 5 generations
USER: GENES 28
USER: genes 0 Translation |==|  0.38788 0.59358 0.57052
USER: genes 1 Rotation |==|  0.08130 0.71658 0.36694 0.60040
USER: genes 2 Torsion [N]-CA--C-[O] |==|  0.72161
USER: genes 3 Torsion [C]-N--CA-[CB] |==|  0.83618
USER: genes 4 Torsion [N]-CA--C-[N] |==|  0.43474
USER: genes 5 Torsion [C]-N--CA-[C] |==|  0.81669
USER: genes 6 Torsion [N]-CA--CB-[CG] |==|  0.21892
USER: genes 7 Torsion [CA]-CB--CG-[CD1] |==|  0.81399
USER: genes 8 Torsion [N]-CA--C-[N] |==|  0.91941
USER: genes 9 Torsion [C]-N--CA-[C] |==|  0.18981
USER: genes 10 Torsion [N]-CA--CB-[CG] |==|  0.54760
USER: genes 11 Torsion [CA]-CB--CG-[OD1] |==|  0.17720
USER: genes 12 Torsion [N]-CA--C-[O] |==|  0.19318
USER: genes 13 Torsion [N]-CA--CB-[CG2] |==|  0.54559
USER: genes 14 Torsion [CA]-CB--CG1-[CD1] |==|  0.50990
USER: genes 15 Torsion [N]-C--CA-[N] |==|  0.17975
USER: genes 16 Torsion [C]-CA--N-[C] |==|  0.65427
USER: genes 17 Torsion [N]-C--CA-[N] |==|  0.04630
USER: genes 18 Torsion [C]-CA--N-[C] |==|  0.70080
USER: genes 19 Torsion [N]-C--CA-[N] |==|  0.49933
USER: genes 20 Torsion [C]-CA--CB-[CG1] |==|  0.91785
USER: genes 21 Torsion [CA]-CB--CG1-[CD1] |==|  0.40366
USER: genes 22 Torsion [C]-CA--CB-[CG] |==|  0.38339
USER: genes 23 Torsion [CA]-CB--CG-[CD] |==|  0.87658
USER: genes 24 Torsion [CB]-CG--CD-[NE] |==|  0.21215
USER: genes 25 Torsion [CG]-CD--NE-[CZ] |==|  0.32138
USER: genes 26 Torsion [C]-CA--CB-[CG1] |==|  0.55235
USER: genes 27 Torsion [CA]-CB--CG1-[CD1] |==|  0.85290
ROOT
ATOM      1  C   ILE E1023     -50.038  27.206   2.468  1.00 40.02 LIG 0.24  C 
ATOM      2 O    ILE E1023     -50.920  26.483   1.980  1.00 38.38 LIG-0.27  OA
ATOM      3  N   PRO E1024     -49.605  28.347   1.874  1.00 37.38 LIG-0.34  N 
ATOM      4  CA  PRO E1024     -50.091  28.689   0.530  1.00 36.67 LIG 0.18  C 
ATOM      5  CB  PRO E1024     -49.695  30.155   0.371  1.00 38.74 LIG 0.04  C 
ATOM      6  CG  PRO E1024     -48.498  30.321   1.229  1.00 43.33 LIG 0.02  C 
ATOM      7  CD  PRO E1024     -48.569  29.302   2.330  1.00 39.42 LIG 0.13  C 
ENDROOT
BRANCH 4 8
ATOM      8  C   PRO E1024     -49.394  27.796  -0.489  1.00 39.60 LIG 0.24  C 
ATOM      9 O    PRO E1024     -48.443  28.246  -1.127  1.00 37.18 LIG-0.27  OA
ATOM     10  N   ILE E1025     -49.849  26.532  -0.604  1.00 37.20 LIG-0.35  N 
ATOM     11 H    ILE E1025     -50.511  26.249  -0.134  1.00 37.20 LIG 0.16  HD
BRANCH 10 12
ATOM     12  CA  ILE E1025     -49.322  25.491  -1.497  1.00 37.42 LIG 0.18  C 
BRANCH 12 13
ATOM     13  C   ILE E1025     -47.831  25.270  -1.249  1.00 40.88 LIG 0.24  C 
ATOM     14 O    ILE E1025     -47.131  26.233  -0.933  1.00 40.29 LIG-0.27  OA
ATOM     15  N   PHE E1026     -47.304  24.080  -1.599  1.00 36.23 LIG-0.35  N 
ATOM     16 H    PHE E1026     -47.769  23.388  -1.810  1.00 36.23 LIG 0.16  HD
BRANCH 15 17
ATOM     17  CA  PHE E1026     -45.850  23.880  -1.644  1.00 36.58 LIG 0.18  C 
BRANCH 17 18
ATOM     18  CB  PHE E1026     -45.489  22.411  -1.845  1.00 38.58 LIG 0.07  C 
BRANCH 18 19
ATOM     19  CG  PHE E1026     -45.631  21.977  -3.274  1.00 40.24 LIG-0.06  A 
ATOM     20  CD1 PHE E1026     -46.872  21.920  -3.872  1.00 42.20 LIG 0.01  A 
ATOM     21  CE1 PHE E1026     -47.003  21.508  -5.187  1.00 42.54 LIG 0.00  A 
ATOM     22  CZ  PHE E1026     -45.895  21.152  -5.911  1.00 41.81 LIG 0.00  A 
ATOM     23  CE2 PHE E1026     -44.653  21.193  -5.335  1.00 44.36 LIG 0.00  A 
ATOM     24  CD2 PHE E1026     -44.519  21.600  -4.017  1.00 42.30 LIG 0.01  A 
ENDBRANCH 18 19
ENDBRANCH 17 18
BRANCH 17 25
ATOM     25  C   PHE E1026     -45.221  24.724  -2.737  1.00 38.60 LIG 0.24  C 
ATOM     26  N   ASN E1027     -46.009  24.994  -3.808  1.00 38.80 LIG-0.35  N 
ATOM     27 H    ASN E1027     -46.809  24.686  -3.880  1.00 38.80 LIG 0.16  HD
ATOM     28 O    PHE E1026     -44.086  25.170  -2.589  1.00 31.59 LIG-0.27  OA
BRANCH 26 29
ATOM     29  CA  ASN E1027     -45.609  25.822  -4.952  1.00 74.37 LIG 0.17  C 
BRANCH 29 30
ATOM     30  CB  ASN E1027     -45.089  27.173  -4.472  1.00 75.17 LIG 0.14  C 
BRANCH 30 31
ATOM     31  CG  ASN E1027     -45.046  28.215  -5.562  1.00 99.64 LIG 0.22  C 
ATOM     32  ND2 ASN E1027     -43.856  28.701  -5.903  1.00 92.55 LIG-0.37  N 
ATOM     33 22HD ASN E1027     -43.146  28.416  -5.510  1.00 92.55 LIG 0.16  HD
ATOM     34 21HD ASN E1027     -43.796  29.302  -6.516  1.00 92.55 LIG 0.16  HD
ATOM     35 OD1  ASN E1027     -46.081  28.604  -6.107  1.00 94.01 LIG-0.27  OA
ENDBRANCH 30 31
ENDBRANCH 29 30
BRANCH 29 36
ATOM     36  C   ASN E1027     -44.520  25.117  -5.758  1.00103.37 LIG 0.22  C 
ATOM     37 O    ASN E1027     -44.783  24.110  -6.409  1.00 69.20 LIG-0.29  OA
ENDBRANCH 29 36
ENDBRANCH 26 29
ENDBRANCH 17 25
ENDBRANCH 15 17
ENDBRANCH 12 13
BRANCH 12 38
ATOM     38  CB  ILE E1025     -49.427  26.016  -2.995  1.00 40.50 LIG 0.01  C 
ATOM     39  CG2 ILE E1025     -49.286  24.873  -4.011  1.00 43.95 LIG 0.01  C 
BRANCH 38 40
ATOM     40  CG1 ILE E1025     -50.696  26.826  -3.262  1.00 41.58 LIG 0.00  C 
ATOM     41  CD1 ILE E1025     -50.837  27.278  -4.817  1.00 52.05 LIG 0.01  C 
ENDBRANCH 38 40
ENDBRANCH 12 38
ENDBRANCH 10 12
ENDBRANCH 4 8
BRANCH 1 42
ATOM     42  CA  ILE E1023     -49.488  26.850   3.838  1.00 36.06 LIG 0.18  C 
BRANCH 42 43
ATOM     43  N   ILE E1023     -49.952  27.899   4.766  1.00 37.96 LIG-0.35  N 
ATOM     44  C   ARG E1022     -49.110  28.626   5.531  1.00 45.42 LIG 0.24  C 
ATOM     45 O    ARG E1022     -47.896  28.422   5.577  1.00 45.23 LIG-0.27  OA
ATOM     46 H    ILE E1023     -50.805  28.004   4.773  1.00 37.96 LIG 0.16  HD
BRANCH 44 47
ATOM     47  CA  ARG E1022     -49.700  29.705   6.440  1.00 45.59 LIG 0.18  C 
BRANCH 47 48
ATOM     48  N   ARG E1022     -51.149  29.555   6.652  1.00 48.30 LIG-0.35  N 
ATOM     49 H    ARG E1022     -51.368  28.897   7.159  1.00 48.30 LIG 0.16  HD
ATOM     50  C   ILE E1021     -52.040  30.398   6.083  1.00 57.51 LIG 0.26  C 
ATOM     51 O    ILE E1021     -51.700  31.343   5.359  1.00 59.03 LIG-0.27  OA
BRANCH 50 52
ATOM     52  CA  ILE E1021     -53.534  30.172   6.367  1.00 57.59 LIG 0.40  C 
ATOM     53  N   ILE E1021     -54.304  31.194   5.663  1.00 58.96 LIG 0.61  N 
BRANCH 52 54
ATOM     54  CB  ILE E1021     -54.039  28.790   5.865  1.00 60.58 LIG 0.03  C 
ATOM     55  CG2 ILE E1021     -55.534  28.782   5.558  1.00 61.37 LIG 0.01  C 
BRANCH 54 56
ATOM     56  CG1 ILE E1021     -53.223  28.327   4.633  1.00 60.59 LIG 0.00  C 
ATOM     57  CD1 ILE E1021     -53.027  26.858   4.595  1.00 60.15 LIG 0.01  C 
ENDBRANCH 54 56
ENDBRANCH 52 54
ENDBRANCH 50 52
ENDBRANCH 47 48
BRANCH 47 58
ATOM     58  CB  ARG E1022     -48.925  29.707   7.764  1.00 44.33 LIG 0.04  C 
BRANCH 58 59
ATOM     59  CG  ARG E1022     -48.622  31.108   8.279  1.00 47.73 LIG 0.02  C 
BRANCH 59 60
ATOM     60  CD  ARG E1022     -48.124  32.044   7.198  1.00 47.87 LIG 0.14  C 
BRANCH 60 61
ATOM     61  NE  ARG E1022     -49.229  32.492   6.353  1.00 55.98 LIG-0.23  N 
ATOM     62  CZ  ARG E1022     -49.671  33.741   6.232  1.00 56.00 LIG 0.67  C 
ATOM     63  NH1 ARG E1022     -49.083  34.733   6.893  1.00 48.69 LIG-0.23  N 
ATOM     64  NH2 ARG E1022     -50.683  34.016   5.422  1.00 32.20 LIG-0.23  N 
ATOM     65 1HH1 ARG E1022     -48.412  34.570   7.405  1.00 48.69 LIG 0.17  HD
ATOM     66 2HH1 ARG E1022     -49.375  35.537   6.809  1.00 48.69 LIG 0.17  HD
ATOM     67 2HH2 ARG E1022     -50.965  34.824   5.347  1.00 32.20 LIG 0.17  HD
ATOM     68 1HH2 ARG E1022     -51.057  33.385   4.972  1.00 32.20 LIG 0.17  HD
ATOM     69 HE   ARG E1022     -49.633  31.891   5.889  1.00 55.98 LIG 0.18  HD
ENDBRANCH 60 61
ENDBRANCH 59 60
ENDBRANCH 58 59
ENDBRANCH 47 58
ENDBRANCH 44 47
ENDBRANCH 42 43
BRANCH 42 70
ATOM     70  CB  ILE E1023     -49.977  25.418   4.238  1.00 38.78 LIG 0.01  C 
ATOM     71  CG2 ILE E1023     -49.238  24.346   3.422  1.00 39.01 LIG 0.01  C 
BRANCH 70 72
ATOM     72  CG1 ILE E1023     -49.877  25.135   5.767  1.00 39.61 LIG 0.00  C 
ATOM     73  CD1 ILE E1023     -48.544  25.375   6.431  1.00 43.21 LIG 0.01  C 
ENDBRANCH 70 72
ENDBRANCH 42 70
ENDBRANCH 1 42
TORSDOF 26
ENDMDL
MODEL 60
USER: ADFR SOLUTION from run 104
USER: SCORE 21.887236 LL:  -5.480 LR: -17.599 RR:   0.000 FEB:  -9.843
USER: RMSD 13.264714
USER: SEED 103
USER: STATUS no improvement in best in 14 clusters for 5 generations
USER: GENES 28
USER: genes 0 Translation |==|  0.38763 0.56649 0.67032
USER: genes 1 Rotation |==|  0.05440 0.69613 0.49075 0.61354
USER: genes 2 Torsion [N]-CA--C-[O] |==|  0.28380
USER: genes 3 Torsion [C]-N--CA-[CB] |==|  0.56670
USER: genes 4 Torsion [N]-CA--C-[N] |==|  0.35533
USER: genes 5 Torsion [C]-N--CA-[C] |==|  0.82603
USER: genes 6 Torsion [N]-CA--CB-[CG] |==|  0.14993
USER: genes 7 Torsion [CA]-CB--CG-[CD1] |==|  0.73624
USER: genes 8 Torsion [N]-CA--C-[N] |==|  0.40037
USER: genes 9 Torsion [C]-N--CA-[C] |==|  0.12430
USER: genes 10 Torsion [N]-CA--CB-[CG] |==|  0.72348
USER: genes 11 Torsion [CA]-CB--CG-[OD1] |==|  0.17628
USER: genes 12 Torsion [N]-CA--C-[O] |==|  0.10751
USER: genes 13 Torsion [N]-CA--CB-[CG2] |==|  0.42276
USER: genes 14 Torsion [CA]-CB--CG1-[CD1] |==|  0.04384
USER: genes 15 Torsion [N]-C--CA-[N] |==|  0.17346
USER: genes 16 Torsion [C]-CA--N-[C] |==|  0.69315
USER: genes 17 Torsion [N]-C--CA-[N] |==|  0.23628
USER: genes 18 Torsion [C]-CA--N-[C] |==|  0.76970
USER: genes 19 Torsion [N]-C--CA-[N] |==|  0.46949
USER: genes 20 Torsion [C]-CA--CB-[CG1] |==|  0.74699
USER: genes 21 Torsion [CA]-CB--CG1-[CD1] |==|  0.56533
USER: genes 22 Torsion [C]-CA--CB-[CG] |==|  0.24591
USER: genes 23 Torsion [CA]-CB--CG-[CD] |==|  0.64215
USER: genes 24 Torsion [CB]-CG--CD-[NE] |==|  0.43970
USER: genes 25 Torsion [CG]-CD--NE-[CZ] |==|  0.33732
USER: genes 26 Torsion [C]-CA--CB-[CG1] |==|  0.61745
USER: genes 27 Torsion [CA]-CB--CG1-[CD1] |==|  0.64540
ROOT
ATOM      1  C   ILE E1023     -50.041  26.576   5.312  1.00 40.02 LIG 0.24  C 
ATOM      2 O    ILE E1023     -50.903  25.734   5.015  1.00 38.38 LIG-0.27  OA
ATOM      3  N   PRO E1024     -50.105  27.871   4.913  1.00 37.38 LIG-0.34  N 
ATOM      4  CA  PRO E1024     -51.157  28.286   3.974  1.00 36.67 LIG 0.18  C 
ATOM      5  CB  PRO E1024     -51.130  29.810   4.059  1.00 38.74 LIG 0.04  C 
ATOM      6  CG  PRO E1024     -49.735  30.145   4.431  1.00 43.33 LIG 0.02  C 
ATOM      7  CD  PRO E1024     -49.161  28.980   5.184  1.00 39.42 LIG 0.13  C 
ENDROOT
BRANCH 4 8
ATOM      8  C   PRO E1024     -50.799  27.786   2.580  1.00 39.60 LIG 0.24  C 
ATOM      9 O    PRO E1024     -51.368  26.789   2.138  1.00 37.18 LIG-0.27  OA
ATOM     10  N   ILE E1025     -49.889  28.504   1.890  1.00 37.20 LIG-0.35  N 
ATOM     11 H    ILE E1025     -49.519  29.202   2.228  1.00 37.20 LIG 0.16  HD
BRANCH 10 12
ATOM     12  CA  ILE E1025     -49.410  28.229   0.528  1.00 37.42 LIG 0.18  C 
BRANCH 12 13
ATOM     13  C   ILE E1025     -49.195  26.732   0.322  1.00 40.88 LIG 0.24  C 
ATOM     14 O    ILE E1025     -48.350  26.152   1.006  1.00 40.29 LIG-0.27  OA
ATOM     15  N   PHE E1026     -49.778  26.153  -0.747  1.00 36.23 LIG-0.35  N 
ATOM     16 H    PHE E1026     -50.379  26.529  -1.233  1.00 36.23 LIG 0.16  HD
BRANCH 15 17
ATOM     17  CA  PHE E1026     -49.411  24.794  -1.166  1.00 36.58 LIG 0.18  C 
BRANCH 17 18
ATOM     18  CB  PHE E1026     -50.295  24.299  -2.306  1.00 38.58 LIG 0.07  C 
BRANCH 18 19
ATOM     19  CG  PHE E1026     -50.311  25.243  -3.472  1.00 40.24 LIG-0.06  A 
ATOM     20  CD1 PHE E1026     -51.306  26.189  -3.597  1.00 42.20 LIG 0.01  A 
ATOM     21  CE1 PHE E1026     -51.327  27.052  -4.679  1.00 42.54 LIG 0.00  A 
ATOM     22  CZ  PHE E1026     -50.352  26.976  -5.639  1.00 41.81 LIG 0.00  A 
ATOM     23  CE2 PHE E1026     -49.357  26.040  -5.539  1.00 44.36 LIG 0.00  A 
ATOM     24  CD2 PHE E1026     -49.337  25.170  -4.460  1.00 42.30 LIG 0.01  A 
ENDBRANCH 18 19
ENDBRANCH 17 18
BRANCH 17 25
ATOM     25  C   PHE E1026     -47.951  24.730  -1.574  1.00 38.60 LIG 0.24  C 
ATOM     26  N   ASN E1027     -47.295  23.584  -1.262  1.00 38.80 LIG-0.35  N 
ATOM     27 H    ASN E1027     -47.673  22.939  -0.836  1.00 38.80 LIG 0.16  HD
ATOM     28 O    PHE E1026     -47.451  25.659  -2.206  1.00 31.59 LIG-0.27  OA
BRANCH 26 29
ATOM     29  CA  ASN E1027     -45.895  23.305  -1.601  1.00 74.37 LIG 0.17  C 
BRANCH 29 30
ATOM     30  CB  ASN E1027     -45.767  22.950  -3.079  1.00 75.17 LIG 0.14  C 
BRANCH 30 31
ATOM     31  CG  ASN E1027     -45.682  21.465  -3.329  1.00 99.64 LIG 0.22  C 
ATOM     32  ND2 ASN E1027     -44.565  20.997  -3.879  1.00 92.55 LIG-0.37  N 
ATOM     33 22HD ASN E1027     -43.923  21.535  -4.073  1.00 92.55 LIG 0.16  HD
ATOM     34 21HD ASN E1027     -44.485  20.156  -4.042  1.00 92.55 LIG 0.16  HD
ATOM     35 OD1  ASN E1027     -46.620  20.720  -3.040  1.00 94.01 LIG-0.27  OA
ENDBRANCH 30 31
ENDBRANCH 29 30
BRANCH 29 36
ATOM     36  C   ASN E1027     -45.025  24.522  -1.295  1.00103.37 LIG 0.22  C 
ATOM     37 O    ASN E1027     -45.235  25.199  -0.292  1.00 69.20 LIG-0.29  OA
ENDBRANCH 29 36
ENDBRANCH 26 29
ENDBRANCH 17 25
ENDBRANCH 15 17
ENDBRANCH 12 13
BRANCH 12 38
ATOM     38  CB  ILE E1025     -47.971  28.890   0.362  1.00 40.50 LIG 0.01  C 
ATOM     39  CG2 ILE E1025     -47.118  28.142  -0.672  1.00 43.95 LIG 0.01  C 
BRANCH 38 40
ATOM     40  CG1 ILE E1025     -48.027  30.384   0.043  1.00 41.58 LIG 0.00  C 
ATOM     41  CD1 ILE E1025     -49.484  31.037   0.345  1.00 52.05 LIG 0.01  C 
ENDBRANCH 38 40
ENDBRANCH 12 38
ENDBRANCH 10 12
ENDBRANCH 4 8
BRANCH 1 42
ATOM     42  CA  ILE E1023     -48.919  26.161   6.247  1.00 36.06 LIG 0.18  C 
BRANCH 42 43
ATOM     43  N   ILE E1023     -49.102  26.928   7.495  1.00 37.96 LIG-0.35  N 
ATOM     44  C   ARG E1022     -48.261  27.911   7.881  1.00 45.42 LIG 0.24  C 
ATOM     45 O    ARG E1022     -47.234  28.198   7.267  1.00 45.23 LIG-0.27  OA
ATOM     46 H    ILE E1023     -49.791  26.690   7.951  1.00 37.96 LIG 0.16  HD
BRANCH 44 47
ATOM     47  CA  ARG E1022     -48.562  28.656   9.182  1.00 45.59 LIG 0.18  C 
BRANCH 47 48
ATOM     48  N   ARG E1022     -48.034  27.974  10.376  1.00 48.30 LIG-0.35  N 
ATOM     49 H    ARG E1022     -47.276  28.272  10.649  1.00 48.30 LIG 0.16  HD
ATOM     50  C   ILE E1021     -48.707  26.965  10.972  1.00 57.51 LIG 0.26  C 
ATOM     51 O    ILE E1021     -49.800  26.555  10.562  1.00 59.03 LIG-0.27  OA
BRANCH 50 52
ATOM     52  CA  ILE E1021     -48.084  26.316  12.220  1.00 57.59 LIG 0.40  C 
ATOM     53  N   ILE E1021     -49.080  25.450  12.844  1.00 58.96 LIG 0.61  N 
BRANCH 52 54
ATOM     54  CB  ILE E1021     -46.851  25.431  11.885  1.00 60.58 LIG 0.03  C 
ATOM     55  CG2 ILE E1021     -45.766  25.496  12.957  1.00 61.37 LIG 0.01  C 
BRANCH 54 56
ATOM     56  CG1 ILE E1021     -47.285  23.966  11.632  1.00 60.59 LIG 0.00  C 
ATOM     57  CD1 ILE E1021     -46.187  22.995  11.857  1.00 60.15 LIG 0.01  C 
ENDBRANCH 54 56
ENDBRANCH 52 54
ENDBRANCH 50 52
ENDBRANCH 47 48
BRANCH 47 58
ATOM     58  CB  ARG E1022     -48.030  30.089   9.060  1.00 44.33 LIG 0.04  C 
BRANCH 58 59
ATOM     59  CG  ARG E1022     -49.043  31.055   8.457  1.00 47.73 LIG 0.02  C 
BRANCH 59 60
ATOM     60  CD  ARG E1022     -48.484  31.858   7.301  1.00 47.87 LIG 0.14  C 
BRANCH 60 61
ATOM     61  NE  ARG E1022     -49.563  32.361   6.452  1.00 55.98 LIG-0.23  N 
ATOM     62  CZ  ARG E1022     -49.811  33.636   6.169  1.00 56.00 LIG 0.67  C 
ATOM     63  NH1 ARG E1022     -49.031  34.600   6.647  1.00 48.69 LIG-0.23  N 
ATOM     64  NH2 ARG E1022     -50.822  33.959   5.376  1.00 32.20 LIG-0.23  N 
ATOM     65 1HH1 ARG E1022     -48.359  34.400   7.145  1.00 48.69 LIG 0.17  HD
ATOM     66 2HH1 ARG E1022     -49.199  35.422   6.459  1.00 48.69 LIG 0.17  HD
ATOM     67 2HH2 ARG E1022     -50.980  34.785   5.195  1.00 32.20 LIG 0.17  HD
ATOM     68 1HH2 ARG E1022     -51.321  33.342   5.043  1.00 32.20 LIG 0.17  HD
ATOM     69 HE   ARG E1022     -50.087  31.775   6.102  1.00 55.98 LIG 0.18  HD
ENDBRANCH 60 61
ENDBRANCH 59 60
ENDBRANCH 58 59
ENDBRANCH 47 58
ENDBRANCH 44 47
ENDBRANCH 42 43
BRANCH 42 70
ATOM     70  CB  ILE E1023     -48.970  24.613   6.465  1.00 38.78 LIG 0.01  C 
ATOM     71  CG2 ILE E1023     -47.996  23.899   5.517  1.00 39.01 LIG 0.01  C 
BRANCH 70 72
ATOM     72  CG1 ILE E1023     -48.732  24.189   7.946  1.00 39.61 LIG 0.00  C 
ATOM     73  CD1 ILE E1023     -47.667  23.153   8.208  1.00 43.21 LIG 0.01  C 
ENDBRANCH 70 72
ENDBRANCH 42 70
ENDBRANCH 1 42
TORSDOF 26
ENDMDL
MODEL 61
USER: ADFR SOLUTION from run 172
USER: SCORE 22.161758 LL:  -5.850 LR: -17.603 RR:   0.000 FEB:  -9.847
USER: RMSD 12.095786
USER: SEED 171
USER: STATUS no improvement in best in 6 clusters for 5 generations
USER: GENES 28
USER: genes 0 Translation |==|  0.51584 0.59642 0.52187
USER: genes 1 Rotation |==|  0.76118 0.92470 0.50476 0.53733
USER: genes 2 Torsion [N]-CA--C-[O] |==|  0.16566
USER: genes 3 Torsion [C]-N--CA-[CB] |==|  0.23180
USER: genes 4 Torsion [N]-CA--C-[N] |==|  0.06588
USER: genes 5 Torsion [C]-N--CA-[C] |==|  0.75227
USER: genes 6 Torsion [N]-CA--CB-[CG] |==|  0.90766
USER: genes 7 Torsion [CA]-CB--CG-[CD1] |==|  0.29563
USER: genes 8 Torsion [N]-CA--C-[N] |==|  0.00999
USER: genes 9 Torsion [C]-N--CA-[C] |==|  0.61521
USER: genes 10 Torsion [N]-CA--CB-[CG] |==|  0.12916
USER: genes 11 Torsion [CA]-CB--CG-[OD1] |==|  0.09877
USER: genes 12 Torsion [N]-CA--C-[O] |==|  0.60782
USER: genes 13 Torsion [N]-CA--CB-[CG2] |==|  0.20166
USER: genes 14 Torsion [CA]-CB--CG1-[CD1] |==|  0.03179
USER: genes 15 Torsion [N]-C--CA-[N] |==|  0.32151
USER: genes 16 Torsion [C]-CA--N-[C] |==|  0.57835
USER: genes 17 Torsion [N]-C--CA-[N] |==|  0.23458
USER: genes 18 Torsion [C]-CA--N-[C] |==|  0.75148
USER: genes 19 Torsion [N]-C--CA-[N] |==|  0.39567
USER: genes 20 Torsion [C]-CA--CB-[CG1] |==|  0.53665
USER: genes 21 Torsion [CA]-CB--CG1-[CD1] |==|  0.67761
USER: genes 22 Torsion [C]-CA--CB-[CG] |==|  0.49732
USER: genes 23 Torsion [CA]-CB--CG-[CD] |==|  0.76287
USER: genes 24 Torsion [CB]-CG--CD-[NE] |==|  0.38444
USER: genes 25 Torsion [CG]-CD--NE-[CZ] |==|  0.78156
USER: genes 26 Torsion [C]-CA--CB-[CG1] |==|  0.07464
USER: genes 27 Torsion [CA]-CB--CG1-[CD1] |==|  0.61102
ROOT
ATOM      1  C   ILE E1023     -48.118  27.272   1.081  1.00 40.02 LIG 0.24  C 
ATOM      2 O    ILE E1023     -47.094  27.877   1.432  1.00 38.38 LIG-0.27  OA
ATOM      3  N   PRO E1024     -48.091  26.167   0.294  1.00 37.38 LIG-0.34  N 
ATOM      4  CA  PRO E1024     -46.816  25.730  -0.292  1.00 36.67 LIG 0.18  C 
ATOM      5  CB  PRO E1024     -47.113  24.312  -0.774  1.00 38.74 LIG 0.04  C 
ATOM      6  CG  PRO E1024     -48.566  24.307  -1.068  1.00 43.33 LIG 0.02  C 
ATOM      7  CD  PRO E1024     -49.220  25.347  -0.204  1.00 39.42 LIG 0.13  C 
ENDROOT
BRANCH 4 8
ATOM      8  C   PRO E1024     -46.458  26.661  -1.443  1.00 39.60 LIG 0.24  C 
ATOM      9 O    PRO E1024     -46.312  27.861  -1.219  1.00 37.18 LIG-0.27  OA
ATOM     10  N   ILE E1025     -46.284  26.093  -2.655  1.00 37.20 LIG-0.35  N 
ATOM     11 H    ILE E1025     -46.385  25.247  -2.772  1.00 37.20 LIG 0.16  HD
BRANCH 10 12
ATOM     12  CA  ILE E1025     -45.914  26.783  -3.898  1.00 37.42 LIG 0.18  C 
BRANCH 12 13
ATOM     13  C   ILE E1025     -46.253  25.924  -5.114  1.00 40.88 LIG 0.24  C 
ATOM     14 O    ILE E1025     -45.794  26.240  -6.213  1.00 40.29 LIG-0.27  OA
ATOM     15  N   PHE E1026     -47.214  24.989  -4.977  1.00 36.23 LIG-0.35  N 
ATOM     16 H    PHE E1026     -47.542  24.739  -4.223  1.00 36.23 LIG 0.16  HD
BRANCH 15 17
ATOM     17  CA  PHE E1026     -47.782  24.311  -6.150  1.00 36.58 LIG 0.18  C 
BRANCH 17 18
ATOM     18  CB  PHE E1026     -48.187  22.875  -5.828  1.00 38.58 LIG 0.07  C 
BRANCH 18 19
ATOM     19  CG  PHE E1026     -47.286  22.239  -4.812  1.00 40.24 LIG-0.06  A 
ATOM     20  CD1 PHE E1026     -47.716  22.035  -3.518  1.00 42.20 LIG 0.01  A 
ATOM     21  CE1 PHE E1026     -46.879  21.458  -2.579  1.00 42.54 LIG 0.00  A 
ATOM     22  CZ  PHE E1026     -45.609  21.081  -2.928  1.00 41.81 LIG 0.00  A 
ATOM     23  CE2 PHE E1026     -45.157  21.280  -4.205  1.00 44.36 LIG 0.00  A 
ATOM     24  CD2 PHE E1026     -45.991  21.863  -5.146  1.00 42.30 LIG 0.01  A 
ENDBRANCH 18 19
ENDBRANCH 17 18
BRANCH 17 25
ATOM     25  C   PHE E1026     -48.973  25.078  -6.693  1.00 38.60 LIG 0.24  C 
ATOM     26  N   ASN E1027     -49.254  26.255  -6.079  1.00 38.80 LIG-0.35  N 
ATOM     27 H    ASN E1027     -48.802  26.542  -5.406  1.00 38.80 LIG 0.16  HD
ATOM     28 O    PHE E1026     -49.579  24.652  -7.674  1.00 31.59 LIG-0.27  OA
BRANCH 26 29
ATOM     29  CA  ASN E1027     -50.335  27.165  -6.474  1.00 74.37 LIG 0.17  C 
BRANCH 29 30
ATOM     30  CB  ASN E1027     -51.537  26.993  -5.551  1.00 75.17 LIG 0.14  C 
BRANCH 30 31
ATOM     31  CG  ASN E1027     -51.165  26.960  -4.090  1.00 99.64 LIG 0.22  C 
ATOM     32  ND2 ASN E1027     -51.872  26.165  -3.292  1.00 92.55 LIG-0.37  N 
ATOM     33 22HD ASN E1027     -52.510  25.689  -3.616  1.00 92.55 LIG 0.16  HD
ATOM     34 21HD ASN E1027     -51.691  26.127  -2.452  1.00 92.55 LIG 0.16  HD
ATOM     35 OD1  ASN E1027     -50.244  27.655  -3.655  1.00 94.01 LIG-0.27  OA
ENDBRANCH 30 31
ENDBRANCH 29 30
BRANCH 29 36
ATOM     36  C   ASN E1027     -49.853  28.613  -6.414  1.00103.37 LIG 0.22  C 
ATOM     37 O    ASN E1027     -50.598  29.499  -6.006  1.00 69.20 LIG-0.29  OA
ENDBRANCH 29 36
ENDBRANCH 26 29
ENDBRANCH 17 25
ENDBRANCH 15 17
ENDBRANCH 12 13
BRANCH 12 38
ATOM     38  CB  ILE E1025     -44.332  26.950  -3.926  1.00 40.50 LIG 0.01  C 
ATOM     39  CG2 ILE E1025     -43.623  25.614  -4.190  1.00 43.95 LIG 0.01  C 
BRANCH 38 40
ATOM     40  CG1 ILE E1025     -43.856  28.021  -4.908  1.00 41.58 LIG 0.00  C 
ATOM     41  CD1 ILE E1025     -45.072  28.940  -5.473  1.00 52.05 LIG 0.01  C 
ENDBRANCH 38 40
ENDBRANCH 12 38
ENDBRANCH 10 12
ENDBRANCH 4 8
BRANCH 1 42
ATOM     42  CA  ILE E1023     -49.454  27.730   1.640  1.00 36.06 LIG 0.18  C 
BRANCH 42 43
ATOM     43  N   ILE E1023     -49.368  27.598   3.107  1.00 37.96 LIG-0.35  N 
ATOM     44  C   ARG E1022     -50.447  27.372   3.887  1.00 45.42 LIG 0.24  C 
ATOM     45 O    ARG E1022     -51.597  27.335   3.451  1.00 45.23 LIG-0.27  OA
ATOM     46 H    ILE E1023     -48.570  27.678   3.416  1.00 37.96 LIG 0.16  HD
BRANCH 44 47
ATOM     47  CA  ARG E1022     -50.236  27.229   5.395  1.00 45.59 LIG 0.18  C 
BRANCH 47 48
ATOM     48  N   ARG E1022     -50.196  28.521   6.100  1.00 48.30 LIG-0.35  N 
ATOM     49 H    ARG E1022     -50.961  28.795   6.383  1.00 48.30 LIG 0.16  HD
ATOM     50  C   ILE E1021     -49.040  29.198   6.277  1.00 57.51 LIG 0.26  C 
ATOM     51 O    ILE E1021     -47.950  28.780   5.865  1.00 59.03 LIG-0.27  OA
BRANCH 50 52
ATOM     52  CA  ILE E1021     -49.092  30.535   7.034  1.00 57.59 LIG 0.40  C 
ATOM     53  N   ILE E1021     -47.897  30.649   7.865  1.00 58.96 LIG 0.61  N 
BRANCH 52 54
ATOM     54  CB  ILE E1021     -49.106  31.764   6.082  1.00 60.58 LIG 0.03  C 
ATOM     55  CG2 ILE E1021     -50.403  31.881   5.286  1.00 61.37 LIG 0.01  C 
BRANCH 54 56
ATOM     56  CG1 ILE E1021     -48.826  33.067   6.871  1.00 60.59 LIG 0.00  C 
ATOM     57  CD1 ILE E1021     -49.974  34.006   6.853  1.00 60.15 LIG 0.01  C 
ENDBRANCH 54 56
ENDBRANCH 52 54
ENDBRANCH 50 52
ENDBRANCH 47 48
BRANCH 47 58
ATOM     58  CB  ARG E1022     -51.324  26.304   5.955  1.00 44.33 LIG 0.04  C 
BRANCH 58 59
ATOM     59  CG  ARG E1022     -51.198  26.069   7.455  1.00 47.73 LIG 0.02  C 
BRANCH 59 60
ATOM     60  CD  ARG E1022     -50.246  24.943   7.802  1.00 47.87 LIG 0.14  C 
BRANCH 60 61
ATOM     61  NE  ARG E1022     -49.415  25.304   8.950  1.00 55.98 LIG-0.23  N 
ATOM     62  CZ  ARG E1022     -48.346  26.094   8.930  1.00 56.00 LIG 0.67  C 
ATOM     63  NH1 ARG E1022     -47.949  26.666   7.798  1.00 48.69 LIG-0.23  N 
ATOM     64  NH2 ARG E1022     -47.682  26.348  10.048  1.00 32.20 LIG-0.23  N 
ATOM     65 1HH1 ARG E1022     -48.385  26.526   7.070  1.00 48.69 LIG 0.17  HD
ATOM     66 2HH1 ARG E1022     -47.256  27.175   7.793  1.00 48.69 LIG 0.17  HD
ATOM     67 2HH2 ARG E1022     -46.991  26.859  10.031  1.00 32.20 LIG 0.17  HD
ATOM     68 1HH2 ARG E1022     -47.943  26.001  10.790  1.00 32.20 LIG 0.17  HD
ATOM     69 HE   ARG E1022     -49.641  24.974   9.712  1.00 55.98 LIG 0.18  HD
ENDBRANCH 60 61
ENDBRANCH 59 60
ENDBRANCH 58 59
ENDBRANCH 47 58
ENDBRANCH 44 47
ENDBRANCH 42 43
BRANCH 42 70
ATOM     70  CB  ILE E1023     -49.738  29.195   1.171  1.00 38.78 LIG 0.01  C 
ATOM     71  CG2 ILE E1023     -49.378  30.198   2.278  1.00 39.01 LIG 0.01  C 
BRANCH 70 72
ATOM     72  CG1 ILE E1023     -49.039  29.561  -0.173  1.00 39.61 LIG 0.00  C 
ATOM     73  CD1 ILE E1023     -48.438  30.940  -0.291  1.00 43.21 LIG 0.01  C 
ENDBRANCH 70 72
ENDBRANCH 42 70
ENDBRANCH 1 42
TORSDOF 26
ENDMDL
MODEL 62
USER: ADFR SOLUTION from run 130
USER: SCORE 22.035149 LL:  -5.480 LR: -17.603 RR:   0.000 FEB:  -9.848
USER: RMSD 12.877186
USER: SEED 129
USER: STATUS no improvement in best in 22 clusters for 5 generations
USER: GENES 28
USER: genes 0 Translation |==|  0.44542 0.57022 0.54093
USER: genes 1 Rotation |==|  0.82000 0.77638 0.24371 0.57435
USER: genes 2 Torsion [N]-CA--C-[O] |==|  0.09001
USER: genes 3 Torsion [C]-N--CA-[CB] |==|  0.75227
USER: genes 4 Torsion [N]-CA--C-[N] |==|  0.15401
USER: genes 5 Torsion [C]-N--CA-[C] |==|  0.80558
USER: genes 6 Torsion [N]-CA--CB-[CG] |==|  0.61034
USER: genes 7 Torsion [CA]-CB--CG-[CD1] |==|  0.26928
USER: genes 8 Torsion [N]-CA--C-[N] |==|  0.38346
USER: genes 9 Torsion [C]-N--CA-[C] |==|  0.71673
USER: genes 10 Torsion [N]-CA--CB-[CG] |==|  0.60359
USER: genes 11 Torsion [CA]-CB--CG-[OD1] |==|  0.42346
USER: genes 12 Torsion [N]-CA--C-[O] |==|  0.14064
USER: genes 13 Torsion [N]-CA--CB-[CG2] |==|  0.72525
USER: genes 14 Torsion [CA]-CB--CG1-[CD1] |==|  0.25373
USER: genes 15 Torsion [N]-C--CA-[N] |==|  0.20156
USER: genes 16 Torsion [C]-CA--N-[C] |==|  0.58333
USER: genes 17 Torsion [N]-C--CA-[N] |==|  0.42730
USER: genes 18 Torsion [C]-CA--N-[C] |==|  0.61806
USER: genes 19 Torsion [N]-C--CA-[N] |==|  0.07224
USER: genes 20 Torsion [C]-CA--CB-[CG1] |==|  0.54837
USER: genes 21 Torsion [CA]-CB--CG1-[CD1] |==|  0.44824
USER: genes 22 Torsion [C]-CA--CB-[CG] |==|  0.21537
USER: genes 23 Torsion [CA]-CB--CG-[CD] |==|  0.09229
USER: genes 24 Torsion [CB]-CG--CD-[NE] |==|  0.11840
USER: genes 25 Torsion [CG]-CD--NE-[CZ] |==|  0.32444
USER: genes 26 Torsion [C]-CA--CB-[CG1] |==|  0.59436
USER: genes 27 Torsion [CA]-CB--CG1-[CD1] |==|  0.70951
ROOT
ATOM      1  C   ILE E1023     -49.175  26.663   1.624  1.00 40.02 LIG 0.24  C 
ATOM      2 O    ILE E1023     -48.016  26.453   1.237  1.00 38.38 LIG-0.27  OA
ATOM      3  N   PRO E1024     -49.944  25.709   2.206  1.00 37.38 LIG-0.34  N 
ATOM      4  CA  PRO E1024     -49.454  24.324   2.267  1.00 36.67 LIG 0.18  C 
ATOM      5  CB  PRO E1024     -50.384  23.661   3.279  1.00 38.74 LIG 0.04  C 
ATOM      6  CG  PRO E1024     -51.654  24.419   3.183  1.00 43.33 LIG 0.02  C 
ATOM      7  CD  PRO E1024     -51.332  25.809   2.713  1.00 39.42 LIG 0.13  C 
ENDROOT
BRANCH 4 8
ATOM      8  C   PRO E1024     -49.576  23.697   0.884  1.00 39.60 LIG 0.24  C 
ATOM      9 O    PRO E1024     -49.438  24.408  -0.110  1.00 37.18 LIG-0.27  OA
ATOM     10  N   ILE E1025     -49.797  22.367   0.835  1.00 37.20 LIG-0.35  N 
ATOM     11 H    ILE E1025     -49.879  21.899   1.552  1.00 37.20 LIG 0.16  HD
BRANCH 10 12
ATOM     12  CA  ILE E1025     -49.925  21.546  -0.377  1.00 37.42 LIG 0.18  C 
BRANCH 12 13
ATOM     13  C   ILE E1025     -49.177  22.185  -1.545  1.00 40.88 LIG 0.24  C 
ATOM     14 O    ILE E1025     -49.726  22.237  -2.647  1.00 40.29 LIG-0.27  OA
ATOM     15  N   PHE E1026     -47.870  22.466  -1.378  1.00 36.23 LIG-0.35  N 
ATOM     16 H    PHE E1026     -47.464  22.451  -0.620  1.00 36.23 LIG 0.16  HD
BRANCH 15 17
ATOM     17  CA  PHE E1026     -47.021  22.828  -2.521  1.00 36.58 LIG 0.18  C 
BRANCH 17 18
ATOM     18  CB  PHE E1026     -45.684  23.407  -2.069  1.00 38.58 LIG 0.07  C 
BRANCH 18 19
ATOM     19  CG  PHE E1026     -45.241  24.561  -2.920  1.00 40.24 LIG-0.06  A 
ATOM     20  CD1 PHE E1026     -45.480  25.859  -2.524  1.00 42.20 LIG 0.01  A 
ATOM     21  CE1 PHE E1026     -45.081  26.922  -3.316  1.00 42.54 LIG 0.00  A 
ATOM     22  CZ  PHE E1026     -44.441  26.693  -4.506  1.00 41.81 LIG 0.00  A 
ATOM     23  CE2 PHE E1026     -44.200  25.411  -4.923  1.00 44.36 LIG 0.00  A 
ATOM     24  CD2 PHE E1026     -44.603  24.344  -4.135  1.00 42.30 LIG 0.01  A 
ENDBRANCH 18 19
ENDBRANCH 17 18
BRANCH 17 25
ATOM     25  C   PHE E1026     -46.790  21.630  -3.424  1.00 38.60 LIG 0.24  C 
ATOM     26  N   ASN E1027     -46.856  21.869  -4.758  1.00 38.80 LIG-0.35  N 
ATOM     27 H    ASN E1027     -47.041  22.646  -5.078  1.00 38.80 LIG 0.16  HD
ATOM     28 O    PHE E1026     -46.500  20.542  -2.933  1.00 31.59 LIG-0.27  OA
BRANCH 26 29
ATOM     29  CA  ASN E1027     -46.625  20.860  -5.798  1.00 74.37 LIG 0.17  C 
BRANCH 29 30
ATOM     30  CB  ASN E1027     -47.664  20.994  -6.907  1.00 75.17 LIG 0.14  C 
BRANCH 30 31
ATOM     31  CG  ASN E1027     -48.108  19.666  -7.468  1.00 99.64 LIG 0.22  C 
ATOM     32  ND2 ASN E1027     -47.244  18.656  -7.418  1.00 92.55 LIG-0.37  N 
ATOM     33 22HD ASN E1027     -46.467  18.772  -7.069  1.00 92.55 LIG 0.16  HD
ATOM     34 21HD ASN E1027     -47.462  17.887  -7.735  1.00 92.55 LIG 0.16  HD
ATOM     35 OD1  ASN E1027     -49.229  19.531  -7.963  1.00 94.01 LIG-0.27  OA
ENDBRANCH 30 31
ENDBRANCH 29 30
BRANCH 29 36
ATOM     36  C   ASN E1027     -45.227  21.025  -6.391  1.00103.37 LIG 0.22  C 
ATOM     37 O    ASN E1027     -44.246  21.098  -5.657  1.00 69.20 LIG-0.29  OA
ENDBRANCH 29 36
ENDBRANCH 26 29
ENDBRANCH 17 25
ENDBRANCH 15 17
ENDBRANCH 12 13
BRANCH 12 38
ATOM     38  CB  ILE E1025     -51.455  21.532  -0.812  1.00 40.50 LIG 0.01  C 
ATOM     39  CG2 ILE E1025     -52.169  20.256  -0.343  1.00 43.95 LIG 0.01  C 
BRANCH 38 40
ATOM     40  CG1 ILE E1025     -52.221  22.778  -0.366  1.00 41.58 LIG 0.00  C 
ATOM     41  CD1 ILE E1025     -52.205  23.958  -1.483  1.00 52.05 LIG 0.01  C 
ENDBRANCH 38 40
ENDBRANCH 12 38
ENDBRANCH 10 12
ENDBRANCH 4 8
BRANCH 1 42
ATOM     42  CA  ILE E1023     -49.721  28.077   1.534  1.00 36.06 LIG 0.18  C 
BRANCH 42 43
ATOM     43  N   ILE E1023     -49.681  28.635   2.899  1.00 37.96 LIG-0.35  N 
ATOM     44  C   ARG E1022     -50.560  29.560   3.340  1.00 45.42 LIG 0.24  C 
ATOM     45 O    ARG E1022     -51.418  30.069   2.619  1.00 45.23 LIG-0.27  OA
ATOM     46 H    ILE E1023     -49.047  28.317   3.385  1.00 37.96 LIG 0.16  HD
BRANCH 44 47
ATOM     47  CA  ARG E1022     -50.439  30.050   4.783  1.00 45.59 LIG 0.18  C 
BRANCH 47 48
ATOM     48  N   ARG E1022     -50.977  31.406   4.982  1.00 48.30 LIG-0.35  N 
ATOM     49 H    ARG E1022     -51.723  31.555   4.581  1.00 48.30 LIG 0.16  HD
ATOM     50  C   ILE E1021     -50.332  32.322   5.738  1.00 57.51 LIG 0.26  C 
ATOM     51 O    ILE E1021     -49.261  32.083   6.310  1.00 59.03 LIG-0.27  OA
BRANCH 50 52
ATOM     52  CA  ILE E1021     -50.973  33.710   5.898  1.00 57.59 LIG 0.40  C 
ATOM     53  N   ILE E1021     -52.416  33.583   5.718  1.00 58.96 LIG 0.61  N 
BRANCH 52 54
ATOM     54  CB  ILE E1021     -50.740  34.321   7.309  1.00 60.58 LIG 0.03  C 
ATOM     55  CG2 ILE E1021     -49.302  34.786   7.522  1.00 61.37 LIG 0.01  C 
BRANCH 54 56
ATOM     56  CG1 ILE E1021     -51.736  35.476   7.574  1.00 60.59 LIG 0.00  C 
ATOM     57  CD1 ILE E1021     -51.868  35.800   9.015  1.00 60.15 LIG 0.01  C 
ENDBRANCH 54 56
ENDBRANCH 52 54
ENDBRANCH 50 52
ENDBRANCH 47 48
BRANCH 47 58
ATOM     58  CB  ARG E1022     -51.111  29.026   5.706  1.00 44.33 LIG 0.04  C 
BRANCH 58 59
ATOM     59  CG  ARG E1022     -50.256  27.789   5.953  1.00 47.73 LIG 0.02  C 
BRANCH 59 60
ATOM     60  CD  ARG E1022     -48.771  28.087   5.974  1.00 47.87 LIG 0.14  C 
BRANCH 60 61
ATOM     61  NE  ARG E1022     -48.501  29.314   6.722  1.00 55.98 LIG-0.23  N 
ATOM     62  CZ  ARG E1022     -47.792  29.411   7.843  1.00 56.00 LIG 0.67  C 
ATOM     63  NH1 ARG E1022     -47.223  28.336   8.379  1.00 48.69 LIG-0.23  N 
ATOM     64  NH2 ARG E1022     -47.616  30.590   8.421  1.00 32.20 LIG-0.23  N 
ATOM     65 1HH1 ARG E1022     -47.312  27.569   8.000  1.00 48.69 LIG 0.17  HD
ATOM     66 2HH1 ARG E1022     -46.766  28.408   9.103  1.00 48.69 LIG 0.17  HD
ATOM     67 2HH2 ARG E1022     -47.157  30.649   9.146  1.00 32.20 LIG 0.17  HD
ATOM     68 1HH2 ARG E1022     -47.962  31.296   8.072  1.00 32.20 LIG 0.17  HD
ATOM     69 HE   ARG E1022     -48.833  30.043   6.407  1.00 55.98 LIG 0.18  HD
ENDBRANCH 60 61
ENDBRANCH 59 60
ENDBRANCH 58 59
ENDBRANCH 47 58
ENDBRANCH 44 47
ENDBRANCH 42 43
BRANCH 42 70
ATOM     70  CB  ILE E1023     -48.869  28.898   0.510  1.00 38.78 LIG 0.01  C 
ATOM     71  CG2 ILE E1023     -49.427  28.736  -0.912  1.00 39.01 LIG 0.01  C 
BRANCH 70 72
ATOM     72  CG1 ILE E1023     -48.722  30.401   0.893  1.00 39.61 LIG 0.00  C 
ATOM     73  CD1 ILE E1023     -49.544  31.399   0.115  1.00 43.21 LIG 0.01  C 
ENDBRANCH 70 72
ENDBRANCH 42 70
ENDBRANCH 1 42
TORSDOF 26
ENDMDL
MODEL 63
USER: ADFR SOLUTION from run 23
USER: SCORE 22.788541 LL:  -5.997 LR: -17.589 RR:   0.000 FEB:  -9.833
USER: RMSD 13.630543
USER: SEED 22
USER: STATUS no improvement in best in 6 clusters for 5 generations
USER: GENES 28
USER: genes 0 Translation |==|  0.42784 0.52519 0.52430
USER: genes 1 Rotation |==|  0.90712 0.77134 0.42585 0.57161
USER: genes 2 Torsion [N]-CA--C-[O] |==|  0.69782
USER: genes 3 Torsion [C]-N--CA-[CB] |==|  0.54650
USER: genes 4 Torsion [N]-CA--C-[N] |==|  0.46653
USER: genes 5 Torsion [C]-N--CA-[C] |==|  0.60725
USER: genes 6 Torsion [N]-CA--CB-[CG] |==|  0.30719
USER: genes 7 Torsion [CA]-CB--CG-[CD1] |==|  0.28527
USER: genes 8 Torsion [N]-CA--C-[N] |==|  0.43162
USER: genes 9 Torsion [C]-N--CA-[C] |==|  0.84593
USER: genes 10 Torsion [N]-CA--CB-[CG] |==|  0.23820
USER: genes 11 Torsion [CA]-CB--CG-[OD1] |==|  0.29040
USER: genes 12 Torsion [N]-CA--C-[O] |==|  0.34827
USER: genes 13 Torsion [N]-CA--CB-[CG2] |==|  0.18413
USER: genes 14 Torsion [CA]-CB--CG1-[CD1] |==|  0.14261
USER: genes 15 Torsion [N]-C--CA-[N] |==|  0.35204
USER: genes 16 Torsion [C]-CA--N-[C] |==|  0.61284
USER: genes 17 Torsion [N]-C--CA-[N] |==|  0.91737
USER: genes 18 Torsion [C]-CA--N-[C] |==|  0.70246
USER: genes 19 Torsion [N]-C--CA-[N] |==|  0.39407
USER: genes 20 Torsion [C]-CA--CB-[CG1] |==|  0.12656
USER: genes 21 Torsion [CA]-CB--CG1-[CD1] |==|  0.61752
USER: genes 22 Torsion [C]-CA--CB-[CG] |==|  0.16584
USER: genes 23 Torsion [CA]-CB--CG-[CD] |==|  0.27293
USER: genes 24 Torsion [CB]-CG--CD-[NE] |==|  0.24015
USER: genes 25 Torsion [CG]-CD--NE-[CZ] |==|  0.32362
USER: genes 26 Torsion [C]-CA--CB-[CG1] |==|  0.44992
USER: genes 27 Torsion [CA]-CB--CG1-[CD1] |==|  0.34256
ROOT
ATOM      1  C   ILE E1023     -49.438  25.616   1.151  1.00 40.02 LIG 0.24  C 
ATOM      2 O    ILE E1023     -48.276  25.298   1.445  1.00 38.38 LIG-0.27  OA
ATOM      3  N   PRO E1024     -50.354  24.726   0.691  1.00 37.38 LIG-0.34  N 
ATOM      4  CA  PRO E1024     -49.934  23.349   0.391  1.00 36.67 LIG 0.18  C 
ATOM      5  CB  PRO E1024     -51.255  22.593   0.268  1.00 38.74 LIG 0.04  C 
ATOM      6  CG  PRO E1024     -52.235  23.610  -0.178  1.00 43.33 LIG 0.02  C 
ATOM      7  CD  PRO E1024     -51.764  24.954   0.300  1.00 39.42 LIG 0.13  C 
ENDROOT
BRANCH 4 8
ATOM      8  C   PRO E1024     -49.152  23.346  -0.916  1.00 39.60 LIG 0.24  C 
ATOM      9 O    PRO E1024     -49.664  22.851  -1.919  1.00 37.18 LIG-0.27  OA
ATOM     10  N   ILE E1025     -47.935  23.928  -0.900  1.00 37.20 LIG-0.35  N 
ATOM     11 H    ILE E1025     -47.612  24.273  -0.181  1.00 37.20 LIG 0.16  HD
BRANCH 10 12
ATOM     12  CA  ILE E1025     -47.016  24.065  -2.038  1.00 37.42 LIG 0.18  C 
BRANCH 12 13
ATOM     13  C   ILE E1025     -46.861  22.734  -2.771  1.00 40.88 LIG 0.24  C 
ATOM     14 O    ILE E1025     -47.106  21.689  -2.166  1.00 40.29 LIG-0.27  OA
ATOM     15  N   PHE E1026     -46.254  22.745  -3.974  1.00 36.23 LIG-0.35  N 
ATOM     16 H    PHE E1026     -46.083  23.457  -4.424  1.00 36.23 LIG 0.16  HD
BRANCH 15 17
ATOM     17  CA  PHE E1026     -45.829  21.495  -4.618  1.00 36.58 LIG 0.18  C 
BRANCH 17 18
ATOM     18  CB  PHE E1026     -46.875  20.987  -5.606  1.00 38.58 LIG 0.07  C 
BRANCH 18 19
ATOM     19  CG  PHE E1026     -46.417  21.096  -7.031  1.00 40.24 LIG-0.06  A 
ATOM     20  CD1 PHE E1026     -45.975  19.984  -7.715  1.00 42.20 LIG 0.01  A 
ATOM     21  CE1 PHE E1026     -45.543  20.088  -9.026  1.00 42.54 LIG 0.00  A 
ATOM     22  CZ  PHE E1026     -45.551  21.302  -9.660  1.00 41.81 LIG 0.00  A 
ATOM     23  CE2 PHE E1026     -45.980  22.422  -8.998  1.00 44.36 LIG 0.00  A 
ATOM     24  CD2 PHE E1026     -46.408  22.323  -7.684  1.00 42.30 LIG 0.01  A 
ENDBRANCH 18 19
ENDBRANCH 17 18
BRANCH 17 25
ATOM     25  C   PHE E1026     -44.495  21.674  -5.319  1.00 38.60 LIG 0.24  C 
ATOM     26  N   ASN E1027     -43.758  20.548  -5.494  1.00 38.80 LIG-0.35  N 
ATOM     27 H    ASN E1027     -44.016  19.780  -5.205  1.00 38.80 LIG 0.16  HD
ATOM     28 O    PHE E1026     -44.171  22.781  -5.743  1.00 31.59 LIG-0.27  OA
BRANCH 26 29
ATOM     29  CA  ASN E1027     -42.462  20.497  -6.180  1.00 74.37 LIG 0.17  C 
BRANCH 29 30
ATOM     30  CB  ASN E1027     -41.965  19.058  -6.269  1.00 75.17 LIG 0.14  C 
BRANCH 30 31
ATOM     31  CG  ASN E1027     -42.503  18.316  -7.467  1.00 99.64 LIG 0.22  C 
ATOM     32  ND2 ASN E1027     -43.765  17.899  -7.417  1.00 92.55 LIG-0.37  N 
ATOM     33 22HD ASN E1027     -44.244  18.061  -6.721  1.00 92.55 LIG 0.16  HD
ATOM     34 21HD ASN E1027     -44.102  17.467  -8.080  1.00 92.55 LIG 0.16  HD
ATOM     35 OD1  ASN E1027     -41.792  18.099  -8.450  1.00 94.01 LIG-0.27  OA
ENDBRANCH 30 31
ENDBRANCH 29 30
BRANCH 29 36
ATOM     36  C   ASN E1027     -42.587  21.078  -7.587  1.00103.37 LIG 0.22  C 
ATOM     37 O    ASN E1027     -41.849  21.990  -7.950  1.00 69.20 LIG-0.29  OA
ENDBRANCH 29 36
ENDBRANCH 26 29
ENDBRANCH 17 25
ENDBRANCH 15 17
ENDBRANCH 12 13
BRANCH 12 38
ATOM     38  CB  ILE E1025     -45.568  24.407  -1.473  1.00 40.50 LIG 0.01  C 
ATOM     39  CG2 ILE E1025     -44.980  23.240  -0.667  1.00 43.95 LIG 0.01  C 
BRANCH 38 40
ATOM     40  CG1 ILE E1025     -44.591  24.865  -2.556  1.00 41.58 LIG 0.00  C 
ATOM     41  CD1 ILE E1025     -45.190  26.065  -3.475  1.00 52.05 LIG 0.01  C 
ENDBRANCH 38 40
ENDBRANCH 12 38
ENDBRANCH 10 12
ENDBRANCH 4 8
BRANCH 1 42
ATOM     42  CA  ILE E1023     -49.885  27.044   1.411  1.00 36.06 LIG 0.18  C 
BRANCH 42 43
ATOM     43  N   ILE E1023     -49.491  27.364   2.797  1.00 37.96 LIG-0.35  N 
ATOM     44  C   ARG E1022     -50.280  28.064   3.640  1.00 45.42 LIG 0.24  C 
ATOM     45 O    ARG E1022     -51.356  28.558   3.301  1.00 45.23 LIG-0.27  OA
ATOM     46 H    ILE E1023     -48.716  27.065   3.016  1.00 37.96 LIG 0.16  HD
BRANCH 44 47
ATOM     47  CA  ARG E1022     -49.780  28.318   5.062  1.00 45.59 LIG 0.18  C 
BRANCH 47 48
ATOM     48  N   ARG E1022     -48.891  27.256   5.562  1.00 48.30 LIG-0.35  N 
ATOM     49 H    ARG E1022     -48.107  27.253   5.210  1.00 48.30 LIG 0.16  HD
ATOM     50  C   ILE E1021     -49.300  26.371   6.498  1.00 57.51 LIG 0.26  C 
ATOM     51 O    ILE E1021     -50.434  26.396   6.994  1.00 59.03 LIG-0.27  OA
BRANCH 50 52
ATOM     52  CA  ILE E1021     -48.301  25.300   6.969  1.00 57.59 LIG 0.40  C 
ATOM     53  N   ILE E1021     -48.475  25.096   8.404  1.00 58.96 LIG 0.61  N 
BRANCH 52 54
ATOM     54  CB  ILE E1021     -48.526  23.924   6.280  1.00 60.58 LIG 0.03  C 
ATOM     55  CG2 ILE E1021     -49.681  23.137   6.893  1.00 61.37 LIG 0.01  C 
BRANCH 54 56
ATOM     56  CG1 ILE E1021     -48.731  24.105   4.756  1.00 60.59 LIG 0.00  C 
ATOM     57  CD1 ILE E1021     -49.820  23.254   4.219  1.00 60.15 LIG 0.01  C 
ENDBRANCH 54 56
ENDBRANCH 52 54
ENDBRANCH 50 52
ENDBRANCH 47 48
BRANCH 47 58
ATOM     58  CB  ARG E1022     -49.107  29.695   5.106  1.00 44.33 LIG 0.04  C 
BRANCH 58 59
ATOM     59  CG  ARG E1022     -50.044  30.833   4.718  1.00 47.73 LIG 0.02  C 
BRANCH 59 60
ATOM     60  CD  ARG E1022     -50.635  31.549   5.914  1.00 47.87 LIG 0.14  C 
BRANCH 60 61
ATOM     61  NE  ARG E1022     -49.741  32.610   6.375  1.00 55.98 LIG-0.23  N 
ATOM     62  CZ  ARG E1022     -50.006  33.914   6.382  1.00 56.00 LIG 0.67  C 
ATOM     63  NH1 ARG E1022     -51.184  34.367   5.968  1.00 48.69 LIG-0.23  N 
ATOM     64  NH2 ARG E1022     -49.106  34.774   6.834  1.00 32.20 LIG-0.23  N 
ATOM     65 1HH1 ARG E1022     -51.784  33.816   5.692  1.00 48.69 LIG 0.17  HD
ATOM     66 2HH1 ARG E1022     -51.347  35.211   5.976  1.00 48.69 LIG 0.17  HD
ATOM     67 2HH2 ARG E1022     -49.280  35.616   6.837  1.00 32.20 LIG 0.17  HD
ATOM     68 1HH2 ARG E1022     -48.348  34.491   7.125  1.00 32.20 LIG 0.17  HD
ATOM     69 HE   ARG E1022     -48.970  32.368   6.670  1.00 55.98 LIG 0.18  HD
ENDBRANCH 60 61
ENDBRANCH 59 60
ENDBRANCH 58 59
ENDBRANCH 47 58
ENDBRANCH 44 47
ENDBRANCH 42 43
BRANCH 42 70
ATOM     70  CB  ILE E1023     -49.233  27.993   0.353  1.00 38.78 LIG 0.01  C 
ATOM     71  CG2 ILE E1023     -49.138  27.298  -1.014  1.00 39.01 LIG 0.01  C 
BRANCH 70 72
ATOM     72  CG1 ILE E1023     -49.946  29.374   0.238  1.00 39.61 LIG 0.00  C 
ATOM     73  CD1 ILE E1023     -49.107  30.608   0.457  1.00 43.21 LIG 0.01  C 
ENDBRANCH 70 72
ENDBRANCH 42 70
ENDBRANCH 1 42
TORSDOF 26
ENDMDL
MODEL 64
USER: ADFR SOLUTION from run 88
USER: SCORE 23.153146 LL:  -6.448 LR: -17.578 RR:   0.000 FEB:  -9.822
USER: RMSD 12.016980
USER: SEED 87
USER: STATUS no improvement in best in 10 clusters for 5 generations
USER: GENES 28
USER: genes 0 Translation |==|  0.49968 0.59113 0.50525
USER: genes 1 Rotation |==|  0.24794 0.11021 0.68398 0.52619
USER: genes 2 Torsion [N]-CA--C-[O] |==|  0.10430
USER: genes 3 Torsion [C]-N--CA-[CB] |==|  0.85978
USER: genes 4 Torsion [N]-CA--C-[N] |==|  0.91612
USER: genes 5 Torsion [C]-N--CA-[C] |==|  0.15000
USER: genes 6 Torsion [N]-CA--CB-[CG] |==|  0.93410
USER: genes 7 Torsion [CA]-CB--CG-[CD1] |==|  0.82443
USER: genes 8 Torsion [N]-CA--C-[N] |==|  0.10507
USER: genes 9 Torsion [C]-N--CA-[C] |==|  0.78152
USER: genes 10 Torsion [N]-CA--CB-[CG] |==|  0.30114
USER: genes 11 Torsion [CA]-CB--CG-[OD1] |==|  0.75478
USER: genes 12 Torsion [N]-CA--C-[O] |==|  0.02242
USER: genes 13 Torsion [N]-CA--CB-[CG2] |==|  0.91351
USER: genes 14 Torsion [CA]-CB--CG1-[CD1] |==|  0.61931
USER: genes 15 Torsion [N]-C--CA-[N] |==|  0.15799
USER: genes 16 Torsion [C]-CA--N-[C] |==|  0.61877
USER: genes 17 Torsion [N]-C--CA-[N] |==|  0.29199
USER: genes 18 Torsion [C]-CA--N-[C] |==|  0.76333
USER: genes 19 Torsion [N]-C--CA-[N] |==|  0.41989
USER: genes 20 Torsion [C]-CA--CB-[CG1] |==|  0.03324
USER: genes 21 Torsion [CA]-CB--CG1-[CD1] |==|  0.48651
USER: genes 22 Torsion [C]-CA--CB-[CG] |==|  0.71238
USER: genes 23 Torsion [CA]-CB--CG-[CD] |==|  0.21423
USER: genes 24 Torsion [CB]-CG--CD-[NE] |==|  0.69292
USER: genes 25 Torsion [CG]-CD--NE-[CZ] |==|  0.38687
USER: genes 26 Torsion [C]-CA--CB-[CG1] |==|  0.52020
USER: genes 27 Torsion [CA]-CB--CG1-[CD1] |==|  0.86093
ROOT
ATOM      1  C   ILE E1023     -48.361  27.149   0.608  1.00 40.02 LIG 0.24  C 
ATOM      2 O    ILE E1023     -47.363  27.580   0.011  1.00 38.38 LIG-0.27  OA
ATOM      3  N   PRO E1024     -48.720  25.840   0.599  1.00 37.38 LIG-0.34  N 
ATOM      4  CA  PRO E1024     -47.988  24.897  -0.259  1.00 36.67 LIG 0.18  C 
ATOM      5  CB  PRO E1024     -48.416  23.530   0.269  1.00 38.74 LIG 0.04  C 
ATOM      6  CG  PRO E1024     -49.769  23.746   0.832  1.00 43.33 LIG 0.02  C 
ATOM      7  CD  PRO E1024     -49.873  25.183   1.256  1.00 39.42 LIG 0.13  C 
ENDROOT
BRANCH 4 8
ATOM      8  C   PRO E1024     -48.418  25.111  -1.705  1.00 39.60 LIG 0.24  C 
ATOM      9 O    PRO E1024     -48.639  26.254  -2.101  1.00 37.18 LIG-0.27  OA
ATOM     10  N   ILE E1025     -48.496  24.013  -2.486  1.00 37.20 LIG-0.35  N 
ATOM     11 H    ILE E1025     -48.324  23.230  -2.176  1.00 37.20 LIG 0.16  HD
BRANCH 10 12
ATOM     12  CA  ILE E1025     -48.863  23.977  -3.908  1.00 37.42 LIG 0.18  C 
BRANCH 12 13
ATOM     13  C   ILE E1025     -47.826  24.713  -4.754  1.00 40.88 LIG 0.24  C 
ATOM     14 O    ILE E1025     -47.486  24.229  -5.834  1.00 40.29 LIG-0.27  OA
ATOM     15  N   PHE E1026     -47.166  25.743  -4.186  1.00 36.23 LIG-0.35  N 
ATOM     16 H    PHE E1026     -47.390  26.109  -3.441  1.00 36.23 LIG 0.16  HD
BRANCH 15 17
ATOM     17  CA  PHE E1026     -45.981  26.327  -4.827  1.00 36.58 LIG 0.18  C 
BRANCH 17 18
ATOM     18  CB  PHE E1026     -44.796  25.366  -4.802  1.00 38.58 LIG 0.07  C 
BRANCH 18 19
ATOM     19  CG  PHE E1026     -44.901  24.355  -3.699  1.00 40.24 LIG-0.06  A 
ATOM     20  CD1 PHE E1026     -44.896  24.751  -2.378  1.00 42.20 LIG 0.01  A 
ATOM     21  CE1 PHE E1026     -44.981  23.816  -1.361  1.00 42.54 LIG 0.00  A 
ATOM     22  CZ  PHE E1026     -45.073  22.481  -1.658  1.00 41.81 LIG 0.00  A 
ATOM     23  CE2 PHE E1026     -45.072  22.064  -2.962  1.00 44.36 LIG 0.00  A 
ATOM     24  CD2 PHE E1026     -44.981  22.997  -3.983  1.00 42.30 LIG 0.01  A 
ENDBRANCH 18 19
ENDBRANCH 17 18
BRANCH 17 25
ATOM     25  C   PHE E1026     -46.286  26.740  -6.255  1.00 38.60 LIG 0.24  C 
ATOM     26  N   ASN E1027     -47.516  27.269  -6.471  1.00 38.80 LIG-0.35  N 
ATOM     27 H    ASN E1027     -48.101  27.346  -5.845  1.00 38.80 LIG 0.16  HD
ATOM     28 O    PHE E1026     -45.417  26.641  -7.119  1.00 31.59 LIG-0.27  OA
BRANCH 26 29
ATOM     29  CA  ASN E1027     -47.995  27.766  -7.767  1.00 74.37 LIG 0.17  C 
BRANCH 29 30
ATOM     30  CB  ASN E1027     -49.519  27.834  -7.779  1.00 75.17 LIG 0.14  C 
BRANCH 30 31
ATOM     31  CG  ASN E1027     -50.051  29.245  -7.740  1.00 99.64 LIG 0.22  C 
ATOM     32  ND2 ASN E1027     -50.281  29.848  -8.903  1.00 92.55 LIG-0.37  N 
ATOM     33 22HD ASN E1027     -50.132  29.431  -9.640  1.00 92.55 LIG 0.16  HD
ATOM     34 21HD ASN E1027     -50.578  30.655  -8.918  1.00 92.55 LIG 0.16  HD
ATOM     35 OD1  ASN E1027     -50.254  29.816  -6.667  1.00 94.01 LIG-0.27  OA
ENDBRANCH 30 31
ENDBRANCH 29 30
BRANCH 29 36
ATOM     36  C   ASN E1027     -47.423  29.155  -8.043  1.00103.37 LIG 0.22  C 
ATOM     37 O    ASN E1027     -46.564  29.630  -7.305  1.00 69.20 LIG-0.29  OA
ENDBRANCH 29 36
ENDBRANCH 26 29
ENDBRANCH 17 25
ENDBRANCH 15 17
ENDBRANCH 12 13
BRANCH 12 38
ATOM     38  CB  ILE E1025     -50.217  24.791  -4.096  1.00 40.50 LIG 0.01  C 
ATOM     39  CG2 ILE E1025     -51.111  24.704  -2.852  1.00 43.95 LIG 0.01  C 
BRANCH 38 40
ATOM     40  CG1 ILE E1025     -49.993  26.247  -4.505  1.00 41.58 LIG 0.00  C 
ATOM     41  CD1 ILE E1025     -50.960  27.280  -3.704  1.00 52.05 LIG 0.01  C 
ENDBRANCH 38 40
ENDBRANCH 12 38
ENDBRANCH 10 12
ENDBRANCH 4 8
BRANCH 1 42
ATOM     42  CA  ILE E1023     -49.159  28.112   1.468  1.00 36.06 LIG 0.18  C 
BRANCH 42 43
ATOM     43  N   ILE E1023     -49.104  27.594   2.848  1.00 37.96 LIG-0.35  N 
ATOM     44  C   ARG E1022     -50.180  27.563   3.664  1.00 45.42 LIG 0.24  C 
ATOM     45 O    ARG E1022     -51.274  28.034   3.352  1.00 45.23 LIG-0.27  OA
ATOM     46 H    ILE E1023     -48.326  27.314   3.083  1.00 37.96 LIG 0.16  HD
BRANCH 44 47
ATOM     47  CA  ARG E1022     -50.012  26.980   5.067  1.00 45.59 LIG 0.18  C 
BRANCH 47 48
ATOM     48  N   ARG E1022     -49.979  28.008   6.121  1.00 48.30 LIG-0.35  N 
ATOM     49 H    ARG E1022     -50.739  28.161   6.493  1.00 48.30 LIG 0.16  HD
ATOM     50  C   ILE E1021     -48.835  28.644   6.456  1.00 57.51 LIG 0.26  C 
ATOM     51 O    ILE E1021     -47.751  28.405   5.908  1.00 59.03 LIG-0.27  OA
BRANCH 50 52
ATOM     52  CA  ILE E1021     -48.892  29.698   7.575  1.00 57.59 LIG 0.40  C 
ATOM     53  N   ILE E1021     -47.592  29.748   8.237  1.00 58.96 LIG 0.61  N 
BRANCH 52 54
ATOM     54  CB  ILE E1021     -49.190  31.127   7.041  1.00 60.58 LIG 0.03  C 
ATOM     55  CG2 ILE E1021     -48.010  32.080   7.208  1.00 61.37 LIG 0.01  C 
BRANCH 54 56
ATOM     56  CG1 ILE E1021     -49.646  31.072   5.562  1.00 60.59 LIG 0.00  C 
ATOM     57  CD1 ILE E1021     -50.054  32.398   5.038  1.00 60.15 LIG 0.01  C 
ENDBRANCH 54 56
ENDBRANCH 52 54
ENDBRANCH 50 52
ENDBRANCH 47 48
BRANCH 47 58
ATOM     58  CB  ARG E1022     -51.125  25.952   5.306  1.00 44.33 LIG 0.04  C 
BRANCH 58 59
ATOM     59  CG  ARG E1022     -52.241  26.473   6.202  1.00 47.73 LIG 0.02  C 
BRANCH 59 60
ATOM     60  CD  ARG E1022     -53.191  27.410   5.485  1.00 47.87 LIG 0.14  C 
BRANCH 60 61
ATOM     61  NE  ARG E1022     -53.037  28.778   5.977  1.00 55.98 LIG-0.23  N 
ATOM     62  CZ  ARG E1022     -53.044  29.885   5.239  1.00 56.00 LIG 0.67  C 
ATOM     63  NH1 ARG E1022     -53.228  29.820   3.925  1.00 48.69 LIG-0.23  N 
ATOM     64  NH2 ARG E1022     -52.899  31.070   5.813  1.00 32.20 LIG-0.23  N 
ATOM     65 1HH1 ARG E1022     -53.345  29.057   3.545  1.00 48.69 LIG 0.17  HD
ATOM     66 2HH1 ARG E1022     -53.231  30.540   3.455  1.00 48.69 LIG 0.17  HD
ATOM     67 2HH2 ARG E1022     -52.904  31.783   5.333  1.00 32.20 LIG 0.17  HD
ATOM     68 1HH2 ARG E1022     -52.801  31.125   6.666  1.00 32.20 LIG 0.17  HD
ATOM     69 HE   ARG E1022     -52.931  28.877   6.825  1.00 55.98 LIG 0.18  HD
ENDBRANCH 60 61
ENDBRANCH 59 60
ENDBRANCH 58 59
ENDBRANCH 47 58
ENDBRANCH 44 47
ENDBRANCH 42 43
BRANCH 42 70
ATOM     70  CB  ILE E1023     -48.561  29.551   1.329  1.00 38.78 LIG 0.01  C 
ATOM     71  CG2 ILE E1023     -48.649  30.037  -0.126  1.00 39.01 LIG 0.01  C 
BRANCH 70 72
ATOM     72  CG1 ILE E1023     -49.196  30.582   2.310  1.00 39.61 LIG 0.00  C 
ATOM     73  CD1 ILE E1023     -50.702  30.655   2.361  1.00 43.21 LIG 0.01  C 
ENDBRANCH 70 72
ENDBRANCH 42 70
ENDBRANCH 1 42
TORSDOF 26
ENDMDL
MODEL 65
USER: ADFR SOLUTION from run 162
USER: SCORE 22.158200 LL:  -5.311 LR: -17.568 RR:   0.000 FEB:  -9.813
USER: RMSD 6.481306
USER: SEED 161
USER: STATUS no improvement in best in 13 clusters for 5 generations
USER: GENES 28
USER: genes 0 Translation |==|  0.55515 0.62314 0.48562
USER: genes 1 Rotation |==|  0.61003 0.33254 0.16677 0.81434
USER: genes 2 Torsion [N]-CA--C-[O] |==|  0.18222
USER: genes 3 Torsion [C]-N--CA-[CB] |==|  0.75476
USER: genes 4 Torsion [N]-CA--C-[N] |==|  0.26746
USER: genes 5 Torsion [C]-N--CA-[C] |==|  0.87585
USER: genes 6 Torsion [N]-CA--CB-[CG] |==|  0.03069
USER: genes 7 Torsion [CA]-CB--CG-[CD1] |==|  0.76971
USER: genes 8 Torsion [N]-CA--C-[N] |==|  0.34452
USER: genes 9 Torsion [C]-N--CA-[C] |==|  0.74167
USER: genes 10 Torsion [N]-CA--CB-[CG] |==|  0.83161
USER: genes 11 Torsion [CA]-CB--CG-[OD1] |==|  0.94617
USER: genes 12 Torsion [N]-CA--C-[O] |==|  0.07967
USER: genes 13 Torsion [N]-CA--CB-[CG2] |==|  0.70239
USER: genes 14 Torsion [CA]-CB--CG1-[CD1] |==|  0.27176
USER: genes 15 Torsion [N]-C--CA-[N] |==|  0.41680
USER: genes 16 Torsion [C]-CA--N-[C] |==|  0.55557
USER: genes 17 Torsion [N]-C--CA-[N] |==|  0.38211
USER: genes 18 Torsion [C]-CA--N-[C] |==|  0.83333
USER: genes 19 Torsion [N]-C--CA-[N] |==|  0.58203
USER: genes 20 Torsion [C]-CA--CB-[CG1] |==|  0.70125
USER: genes 21 Torsion [CA]-CB--CG1-[CD1] |==|  0.39912
USER: genes 22 Torsion [C]-CA--CB-[CG] |==|  0.87172
USER: genes 23 Torsion [CA]-CB--CG-[CD] |==|  0.35563
USER: genes 24 Torsion [CB]-CG--CD-[NE] |==|  0.30448
USER: genes 25 Torsion [CG]-CD--NE-[CZ] |==|  0.31764
USER: genes 26 Torsion [C]-CA--CB-[CG1] |==|  0.72007
USER: genes 27 Torsion [CA]-CB--CG1-[CD1] |==|  0.58407
ROOT
ATOM      1  C   ILE E1023     -47.529  27.893   0.048  1.00 40.02 LIG 0.24  C 
ATOM      2 O    ILE E1023     -46.520  27.827   0.767  1.00 38.38 LIG-0.27  OA
ATOM      3  N   PRO E1024     -48.416  28.918   0.111  1.00 37.38 LIG-0.34  N 
ATOM      4  CA  PRO E1024     -48.269  29.936   1.161  1.00 36.67 LIG 0.18  C 
ATOM      5  CB  PRO E1024     -49.180  31.067   0.691  1.00 38.74 LIG 0.04  C 
ATOM      6  CG  PRO E1024     -50.231  30.400  -0.112  1.00 43.33 LIG 0.02  C 
ATOM      7  CD  PRO E1024     -49.654  29.131  -0.673  1.00 39.42 LIG 0.13  C 
ENDROOT
BRANCH 4 8
ATOM      8  C   PRO E1024     -48.730  29.345   2.488  1.00 39.60 LIG 0.24  C 
ATOM      9 O    PRO E1024     -48.094  28.416   2.983  1.00 37.18 LIG-0.27  OA
ATOM     10  N   ILE E1025     -49.808  29.914   3.066  1.00 37.20 LIG-0.35  N 
ATOM     11 H    ILE E1025     -50.223  30.570   2.695  1.00 37.20 LIG 0.16  HD
BRANCH 10 12
ATOM     12  CA  ILE E1025     -50.416  29.532   4.348  1.00 37.42 LIG 0.18  C 
BRANCH 12 13
ATOM     13  C   ILE E1025     -49.378  28.896   5.270  1.00 40.88 LIG 0.24  C 
ATOM     14 O    ILE E1025     -49.270  27.669   5.288  1.00 40.29 LIG-0.27  OA
ATOM     15  N   PHE E1026     -48.780  29.685   6.185  1.00 36.23 LIG-0.35  N 
ATOM     16 H    PHE E1026     -48.827  30.543   6.188  1.00 36.23 LIG 0.16  HD
BRANCH 15 17
ATOM     17  CA  PHE E1026     -47.979  29.109   7.273  1.00 36.58 LIG 0.18  C 
BRANCH 17 18
ATOM     18  CB  PHE E1026     -47.653  30.147   8.342  1.00 38.58 LIG 0.07  C 
BRANCH 18 19
ATOM     19  CG  PHE E1026     -48.436  31.415   8.168  1.00 40.24 LIG-0.06  A 
ATOM     20  CD1 PHE E1026     -48.014  32.387   7.287  1.00 42.20 LIG 0.01  A 
ATOM     21  CE1 PHE E1026     -48.731  33.561   7.135  1.00 42.54 LIG 0.00  A 
ATOM     22  CZ  PHE E1026     -49.873  33.769   7.863  1.00 41.81 LIG 0.00  A 
ATOM     23  CE2 PHE E1026     -50.307  32.821   8.750  1.00 44.36 LIG 0.00  A 
ATOM     24  CD2 PHE E1026     -49.589  31.647   8.908  1.00 42.30 LIG 0.01  A 
ENDBRANCH 18 19
ENDBRANCH 17 18
BRANCH 17 25
ATOM     25  C   PHE E1026     -48.690  27.924   7.899  1.00 38.60 LIG 0.24  C 
ATOM     26  N   ASN E1027     -47.999  26.757   7.919  1.00 38.80 LIG-0.35  N 
ATOM     27 H    ASN E1027     -47.213  26.681   7.576  1.00 38.80 LIG 0.16  HD
ATOM     28 O    PHE E1026     -49.801  28.074   8.403  1.00 31.59 LIG-0.27  OA
BRANCH 26 29
ATOM     29  CA  ASN E1027     -48.488  25.506   8.511  1.00 74.37 LIG 0.17  C 
BRANCH 29 30
ATOM     30  CB  ASN E1027     -47.980  24.308   7.716  1.00 75.17 LIG 0.14  C 
BRANCH 30 31
ATOM     31  CG  ASN E1027     -48.438  24.312   6.278  1.00 99.64 LIG 0.22  C 
ATOM     32  ND2 ASN E1027     -47.752  23.572   5.412  1.00 92.55 LIG-0.37  N 
ATOM     33 22HD ASN E1027     -47.078  23.109   5.680  1.00 92.55 LIG 0.16  HD
ATOM     34 21HD ASN E1027     -47.981  23.556   4.583  1.00 92.55 LIG 0.16  HD
ATOM     35 OD1  ASN E1027     -49.407  24.986   5.924  1.00 94.01 LIG-0.27  OA
ENDBRANCH 30 31
ENDBRANCH 29 30
BRANCH 29 36
ATOM     36  C   ASN E1027     -48.018  25.390   9.960  1.00103.37 LIG 0.22  C 
ATOM     37 O    ASN E1027     -47.812  26.398  10.629  1.00 69.20 LIG-0.29  OA
ENDBRANCH 29 36
ENDBRANCH 26 29
ENDBRANCH 17 25
ENDBRANCH 15 17
ENDBRANCH 12 13
BRANCH 12 38
ATOM     38  CB  ILE E1025     -51.492  28.393   4.073  1.00 40.50 LIG 0.01  C 
ATOM     39  CG2 ILE E1025     -52.927  28.919   4.212  1.00 43.95 LIG 0.01  C 
BRANCH 38 40
ATOM     40  CG1 ILE E1025     -51.297  27.693   2.728  1.00 41.58 LIG 0.00  C 
ATOM     41  CD1 ILE E1025     -50.489  26.289   2.862  1.00 52.05 LIG 0.01  C 
ENDBRANCH 38 40
ENDBRANCH 12 38
ENDBRANCH 10 12
ENDBRANCH 4 8
BRANCH 1 42
ATOM     42  CA  ILE E1023     -47.726  26.829  -1.018  1.00 36.06 LIG 0.18  C 
BRANCH 42 43
ATOM     43  N   ILE E1023     -46.385  26.318  -1.360  1.00 37.96 LIG-0.35  N 
ATOM     44  C   ARG E1022     -46.121  25.667  -2.513  1.00 45.42 LIG 0.24  C 
ATOM     45 O    ARG E1022     -46.989  25.377  -3.336  1.00 45.23 LIG-0.27  OA
ATOM     46 H    ILE E1023     -45.791  26.474  -0.759  1.00 37.96 LIG 0.16  HD
BRANCH 44 47
ATOM     47  CA  ARG E1022     -44.687  25.202  -2.773  1.00 45.59 LIG 0.18  C 
BRANCH 47 48
ATOM     48  N   ARG E1022     -44.612  23.845  -3.341  1.00 48.30 LIG-0.35  N 
ATOM     49 H    ARG E1022     -44.232  23.803  -4.111  1.00 48.30 LIG 0.16  HD
ATOM     50  C   ILE E1021     -45.107  22.773  -2.684  1.00 57.51 LIG 0.26  C 
ATOM     51 O    ILE E1021     -45.646  22.858  -1.574  1.00 59.03 LIG-0.27  OA
BRANCH 50 52
ATOM     52  CA  ILE E1021     -44.976  21.392  -3.349  1.00 57.59 LIG 0.40  C 
ATOM     53  N   ILE E1021     -46.093  20.557  -2.917  1.00 58.96 LIG 0.61  N 
BRANCH 52 54
ATOM     54  CB  ILE E1021     -45.032  21.465  -4.901  1.00 60.58 LIG 0.03  C 
ATOM     55  CG2 ILE E1021     -43.856  20.759  -5.570  1.00 61.37 LIG 0.01  C 
BRANCH 54 56
ATOM     56  CG1 ILE E1021     -46.378  20.906  -5.425  1.00 60.59 LIG 0.00  C 
ATOM     57  CD1 ILE E1021     -46.885  21.643  -6.607  1.00 60.15 LIG 0.01  C 
ENDBRANCH 54 56
ENDBRANCH 52 54
ENDBRANCH 50 52
ENDBRANCH 47 48
BRANCH 47 58
ATOM     58  CB  ARG E1022     -43.993  26.236  -3.667  1.00 44.33 LIG 0.04  C 
BRANCH 58 59
ATOM     59  CG  ARG E1022     -44.844  26.671  -4.853  1.00 47.73 LIG 0.02  C 
BRANCH 59 60
ATOM     60  CD  ARG E1022     -44.976  28.176  -4.970  1.00 47.87 LIG 0.14  C 
BRANCH 60 61
ATOM     61  NE  ARG E1022     -44.231  28.672  -6.126  1.00 55.98 LIG-0.23  N 
ATOM     62  CZ  ARG E1022     -44.749  29.238  -7.212  1.00 56.00 LIG 0.67  C 
ATOM     63  NH1 ARG E1022     -46.061  29.427  -7.316  1.00 48.69 LIG-0.23  N 
ATOM     64  NH2 ARG E1022     -43.958  29.652  -8.190  1.00 32.20 LIG-0.23  N 
ATOM     65 1HH1 ARG E1022     -46.582  29.182  -6.677  1.00 48.69 LIG 0.17  HD
ATOM     66 2HH1 ARG E1022     -46.387  29.794  -8.021  1.00 48.69 LIG 0.17  HD
ATOM     67 2HH2 ARG E1022     -44.297  30.018  -8.891  1.00 32.20 LIG 0.17  HD
ATOM     68 1HH2 ARG E1022     -43.106  29.555  -8.125  1.00 32.20 LIG 0.17  HD
ATOM     69 HE   ARG E1022     -43.375  28.590  -6.101  1.00 55.98 LIG 0.18  HD
ENDBRANCH 60 61
ENDBRANCH 59 60
ENDBRANCH 58 59
ENDBRANCH 47 58
ENDBRANCH 44 47
ENDBRANCH 42 43
BRANCH 42 70
ATOM     70  CB  ILE E1023     -48.685  25.720  -0.473  1.00 38.78 LIG 0.01  C 
ATOM     71  CG2 ILE E1023     -49.763  25.377  -1.513  1.00 39.01 LIG 0.01  C 
BRANCH 70 72
ATOM     72  CG1 ILE E1023     -47.939  24.441   0.013  1.00 39.61 LIG 0.00  C 
ATOM     73  CD1 ILE E1023     -48.666  23.125  -0.108  1.00 43.21 LIG 0.01  C 
ENDBRANCH 70 72
ENDBRANCH 42 70
ENDBRANCH 1 42
TORSDOF 26
ENDMDL
MODEL 66
USER: ADFR SOLUTION from run 118
USER: SCORE 23.291530 LL:  -6.515 LR: -17.571 RR:   0.000 FEB:  -9.816
USER: RMSD 11.844010
USER: SEED 117
USER: STATUS no improvement in best in 14 clusters for 5 generations
USER: GENES 28
USER: genes 0 Translation |==|  0.44639 0.59454 0.55576
USER: genes 1 Rotation |==|  0.81284 0.85255 0.34720 0.56705
USER: genes 2 Torsion [N]-CA--C-[O] |==|  0.67680
USER: genes 3 Torsion [C]-N--CA-[CB] |==|  0.77652
USER: genes 4 Torsion [N]-CA--C-[N] |==|  0.16839
USER: genes 5 Torsion [C]-N--CA-[C] |==|  0.71906
USER: genes 6 Torsion [N]-CA--CB-[CG] |==|  0.82472
USER: genes 7 Torsion [CA]-CB--CG-[CD1] |==|  0.92540
USER: genes 8 Torsion [N]-CA--C-[N] |==|  0.45380
USER: genes 9 Torsion [C]-N--CA-[C] |==|  0.54040
USER: genes 10 Torsion [N]-CA--CB-[CG] |==|  0.62669
USER: genes 11 Torsion [CA]-CB--CG-[OD1] |==|  0.16852
USER: genes 12 Torsion [N]-CA--C-[O] |==|  0.67388
USER: genes 13 Torsion [N]-CA--CB-[CG2] |==|  0.59487
USER: genes 14 Torsion [CA]-CB--CG1-[CD1] |==|  0.33498
USER: genes 15 Torsion [N]-C--CA-[N] |==|  0.34025
USER: genes 16 Torsion [C]-CA--N-[C] |==|  0.60154
USER: genes 17 Torsion [N]-C--CA-[N] |==|  0.40305
USER: genes 18 Torsion [C]-CA--N-[C] |==|  0.78711
USER: genes 19 Torsion [N]-C--CA-[N] |==|  0.81515
USER: genes 20 Torsion [C]-CA--CB-[CG1] |==|  0.45351
USER: genes 21 Torsion [CA]-CB--CG1-[CD1] |==|  0.55389
USER: genes 22 Torsion [C]-CA--CB-[CG] |==|  0.15485
USER: genes 23 Torsion [CA]-CB--CG-[CD] |==|  0.69654
USER: genes 24 Torsion [CB]-CG--CD-[NE] |==|  0.45914
USER: genes 25 Torsion [CG]-CD--NE-[CZ] |==|  0.36530
USER: genes 26 Torsion [C]-CA--CB-[CG1] |==|  0.00730
USER: genes 27 Torsion [CA]-CB--CG1-[CD1] |==|  0.74105
ROOT
ATOM      1  C   ILE E1023     -49.160  27.228   2.047  1.00 40.02 LIG 0.24  C 
ATOM      2 O    ILE E1023     -47.949  27.445   1.893  1.00 38.38 LIG-0.27  OA
ATOM      3  N   PRO E1024     -49.693  25.981   2.047  1.00 37.38 LIG-0.34  N 
ATOM      4  CA  PRO E1024     -48.839  24.831   1.716  1.00 36.67 LIG 0.18  C 
ATOM      5  CB  PRO E1024     -49.665  23.631   2.171  1.00 38.74 LIG 0.04  C 
ATOM      6  CG  PRO E1024     -51.074  24.074   2.062  1.00 43.33 LIG 0.02  C 
ATOM      7  CD  PRO E1024     -51.106  25.568   2.216  1.00 39.42 LIG 0.13  C 
ENDROOT
BRANCH 4 8
ATOM      8  C   PRO E1024     -48.594  24.816   0.212  1.00 39.60 LIG 0.24  C 
ATOM      9 O    PRO E1024     -49.014  23.871  -0.454  1.00 37.18 LIG-0.27  OA
ATOM     10  N   ILE E1025     -47.949  25.879  -0.311  1.00 37.20 LIG-0.35  N 
ATOM     11 H    ILE E1025     -47.678  26.528   0.185  1.00 37.20 LIG 0.16  HD
BRANCH 10 12
ATOM     12  CA  ILE E1025     -47.624  26.095  -1.728  1.00 37.42 LIG 0.18  C 
BRANCH 12 13
ATOM     13  C   ILE E1025     -48.721  25.529  -2.627  1.00 40.88 LIG 0.24  C 
ATOM     14 O    ILE E1025     -48.404  24.789  -3.559  1.00 40.29 LIG-0.27  OA
ATOM     15  N   PHE E1026     -49.964  26.036  -2.499  1.00 36.23 LIG-0.35  N 
ATOM     16 H    PHE E1026     -50.216  26.543  -1.852  1.00 36.23 LIG 0.16  HD
BRANCH 15 17
ATOM     17  CA  PHE E1026     -51.005  25.744  -3.493  1.00 36.58 LIG 0.18  C 
BRANCH 17 18
ATOM     18  CB  PHE E1026     -52.336  25.403  -2.830  1.00 38.58 LIG 0.07  C 
BRANCH 18 19
ATOM     19  CG  PHE E1026     -52.259  24.157  -1.997  1.00 40.24 LIG-0.06  A 
ATOM     20  CD1 PHE E1026     -51.339  23.173  -2.287  1.00 42.20 LIG 0.01  A 
ATOM     21  CE1 PHE E1026     -51.276  22.019  -1.524  1.00 42.54 LIG 0.00  A 
ATOM     22  CZ  PHE E1026     -52.131  21.844  -0.468  1.00 41.81 LIG 0.00  A 
ATOM     23  CE2 PHE E1026     -53.059  22.806  -0.166  1.00 44.36 LIG 0.00  A 
ATOM     24  CD2 PHE E1026     -53.128  23.959  -0.931  1.00 42.30 LIG 0.01  A 
ENDBRANCH 18 19
ENDBRANCH 17 18
BRANCH 17 25
ATOM     25  C   PHE E1026     -51.184  26.911  -4.447  1.00 38.60 LIG 0.24  C 
ATOM     26  N   ASN E1027     -51.848  26.642  -5.599  1.00 38.80 LIG-0.35  N 
ATOM     27 H    ASN E1027     -52.130  25.853  -5.794  1.00 38.80 LIG 0.16  HD
ATOM     28 O    PHE E1026     -50.792  28.030  -4.124  1.00 31.59 LIG-0.27  OA
BRANCH 26 29
ATOM     29  CA  ASN E1027     -52.160  27.634  -6.634  1.00 74.37 LIG 0.17  C 
BRANCH 29 30
ATOM     30  CB  ASN E1027     -50.900  28.005  -7.411  1.00 75.17 LIG 0.14  C 
BRANCH 30 31
ATOM     31  CG  ASN E1027     -50.744  29.491  -7.615  1.00 99.64 LIG 0.22  C 
ATOM     32  ND2 ASN E1027     -50.701  29.940  -8.867  1.00 92.55 LIG-0.37  N 
ATOM     33 22HD ASN E1027     -50.768  29.388  -9.523  1.00 92.55 LIG 0.16  HD
ATOM     34 21HD ASN E1027     -50.606  30.781  -9.019  1.00 92.55 LIG 0.16  HD
ATOM     35 OD1  ASN E1027     -50.651  30.256  -6.653  1.00 94.01 LIG-0.27  OA
ENDBRANCH 30 31
ENDBRANCH 29 30
BRANCH 29 36
ATOM     36  C   ASN E1027     -53.205  27.079  -7.599  1.00103.37 LIG 0.22  C 
ATOM     37 O    ASN E1027     -52.933  26.920  -8.786  1.00 69.20 LIG-0.29  OA
ENDBRANCH 29 36
ENDBRANCH 26 29
ENDBRANCH 17 25
ENDBRANCH 15 17
ENDBRANCH 12 13
BRANCH 12 38
ATOM     38  CB  ILE E1025     -46.318  25.254  -2.075  1.00 40.50 LIG 0.01  C 
ATOM     39  CG2 ILE E1025     -45.441  25.968  -3.112  1.00 43.95 LIG 0.01  C 
BRANCH 38 40
ATOM     40  CG1 ILE E1025     -45.501  24.873  -0.841  1.00 41.58 LIG 0.00  C 
ATOM     41  CD1 ILE E1025     -45.334  23.266  -0.669  1.00 52.05 LIG 0.01  C 
ENDBRANCH 38 40
ENDBRANCH 12 38
ENDBRANCH 10 12
ENDBRANCH 4 8
BRANCH 1 42
ATOM     42  CA  ILE E1023     -50.072  28.405   2.349  1.00 36.06 LIG 0.18  C 
BRANCH 42 43
ATOM     43  N   ILE E1023     -49.492  29.102   3.513  1.00 37.96 LIG-0.35  N 
ATOM     44  C   ARG E1022     -50.246  29.667   4.480  1.00 45.42 LIG 0.24  C 
ATOM     45 O    ARG E1022     -51.475  29.716   4.433  1.00 45.23 LIG-0.27  OA
ATOM     46 H    ILE E1023     -48.632  29.115   3.517  1.00 37.96 LIG 0.16  HD
BRANCH 44 47
ATOM     47  CA  ARG E1022     -49.536  30.344   5.653  1.00 45.59 LIG 0.18  C 
BRANCH 47 48
ATOM     48  N   ARG E1022     -50.247  31.533   6.153  1.00 48.30 LIG-0.35  N 
ATOM     49 H    ARG E1022     -50.678  31.408   6.885  1.00 48.30 LIG 0.16  HD
ATOM     50  C   ILE E1021     -50.206  32.712   5.494  1.00 57.51 LIG 0.26  C 
ATOM     51 O    ILE E1021     -49.574  32.870   4.442  1.00 59.03 LIG-0.27  OA
BRANCH 50 52
ATOM     52  CA  ILE E1021     -50.971  33.904   6.094  1.00 57.59 LIG 0.40  C 
ATOM     53  N   ILE E1021     -52.402  33.618   6.038  1.00 58.96 LIG 0.61  N 
BRANCH 52 54
ATOM     54  CB  ILE E1021     -50.613  34.159   7.585  1.00 60.58 LIG 0.03  C 
ATOM     55  CG2 ILE E1021     -49.131  33.947   7.882  1.00 61.37 LIG 0.01  C 
BRANCH 54 56
ATOM     56  CG1 ILE E1021     -51.062  35.576   8.019  1.00 60.59 LIG 0.00  C 
ATOM     57  CD1 ILE E1021     -50.367  36.050   9.240  1.00 60.15 LIG 0.01  C 
ENDBRANCH 54 56
ENDBRANCH 52 54
ENDBRANCH 50 52
ENDBRANCH 47 48
BRANCH 47 58
ATOM     58  CB  ARG E1022     -49.316  29.303   6.758  1.00 44.33 LIG 0.04  C 
BRANCH 58 59
ATOM     59  CG  ARG E1022     -48.553  28.074   6.280  1.00 47.73 LIG 0.02  C 
BRANCH 59 60
ATOM     60  CD  ARG E1022     -49.417  26.833   6.193  1.00 47.87 LIG 0.14  C 
BRANCH 60 61
ATOM     61  NE  ARG E1022     -48.748  25.791   5.416  1.00 55.98 LIG-0.23  N 
ATOM     62  CZ  ARG E1022     -48.606  24.516   5.768  1.00 56.00 LIG 0.67  C 
ATOM     63  NH1 ARG E1022     -49.116  24.070   6.911  1.00 48.69 LIG-0.23  N 
ATOM     64  NH2 ARG E1022     -47.981  23.668   4.965  1.00 32.20 LIG-0.23  N 
ATOM     65 1HH1 ARG E1022     -49.543  24.606   7.430  1.00 48.69 LIG 0.17  HD
ATOM     66 2HH1 ARG E1022     -49.020  23.244   7.131  1.00 48.69 LIG 0.17  HD
ATOM     67 2HH2 ARG E1022     -47.891  22.845   5.196  1.00 32.20 LIG 0.17  HD
ATOM     68 1HH2 ARG E1022     -47.666  23.941   4.213  1.00 32.20 LIG 0.17  HD
ATOM     69 HE   ARG E1022     -48.415  26.025   4.658  1.00 55.98 LIG 0.18  HD
ENDBRANCH 60 61
ENDBRANCH 59 60
ENDBRANCH 58 59
ENDBRANCH 47 58
ENDBRANCH 44 47
ENDBRANCH 42 43
BRANCH 42 70
ATOM     70  CB  ILE E1023     -50.183  29.314   1.081  1.00 38.78 LIG 0.01  C 
ATOM     71  CG2 ILE E1023     -49.757  30.753   1.407  1.00 39.01 LIG 0.01  C 
BRANCH 70 72
ATOM     72  CG1 ILE E1023     -49.406  28.758  -0.149  1.00 39.61 LIG 0.00  C 
ATOM     73  CD1 ILE E1023     -47.991  29.241  -0.352  1.00 43.21 LIG 0.01  C 
ENDBRANCH 70 72
ENDBRANCH 42 70
ENDBRANCH 1 42
TORSDOF 26
ENDMDL
MODEL 67
USER: ADFR SOLUTION from run 188
USER: SCORE 22.610471 LL:  -6.622 LR: -17.555 RR:   0.000 FEB:  -9.800
USER: RMSD 12.230003
USER: SEED 187
USER: STATUS searching
USER: GENES 28
USER: genes 0 Translation |==|  0.47153 0.55427 0.50125
USER: genes 1 Rotation |==|  0.22265 0.16932 0.75134 0.52356
USER: genes 2 Torsion [N]-CA--C-[O] |==|  0.74554
USER: genes 3 Torsion [C]-N--CA-[CB] |==|  0.20416
USER: genes 4 Torsion [N]-CA--C-[N] |==|  0.87764
USER: genes 5 Torsion [C]-N--CA-[C] |==|  0.17295
USER: genes 6 Torsion [N]-CA--CB-[CG] |==|  0.90268
USER: genes 7 Torsion [CA]-CB--CG-[CD1] |==|  0.87128
USER: genes 8 Torsion [N]-CA--C-[N] |==|  0.10280
USER: genes 9 Torsion [C]-N--CA-[C] |==|  0.75453
USER: genes 10 Torsion [N]-CA--CB-[CG] |==|  0.30983
USER: genes 11 Torsion [CA]-CB--CG-[OD1] |==|  0.75464
USER: genes 12 Torsion [N]-CA--C-[O] |==|  0.04054
USER: genes 13 Torsion [N]-CA--CB-[CG2] |==|  0.09597
USER: genes 14 Torsion [CA]-CB--CG1-[CD1] |==|  0.55672
USER: genes 15 Torsion [N]-C--CA-[N] |==|  0.19322
USER: genes 16 Torsion [C]-CA--N-[C] |==|  0.61418
USER: genes 17 Torsion [N]-C--CA-[N] |==|  0.38717
USER: genes 18 Torsion [C]-CA--N-[C] |==|  0.58640
USER: genes 19 Torsion [N]-C--CA-[N] |==|  0.57731
USER: genes 20 Torsion [C]-CA--CB-[CG1] |==|  0.63965
USER: genes 21 Torsion [CA]-CB--CG1-[CD1] |==|  0.35402
USER: genes 22 Torsion [C]-CA--CB-[CG] |==|  0.42106
USER: genes 23 Torsion [CA]-CB--CG-[CD] |==|  0.27858
USER: genes 24 Torsion [CB]-CG--CD-[NE] |==|  0.58794
USER: genes 25 Torsion [CG]-CD--NE-[CZ] |==|  0.57461
USER: genes 26 Torsion [C]-CA--CB-[CG1] |==|  0.65398
USER: genes 27 Torsion [CA]-CB--CG1-[CD1] |==|  0.73182
ROOT
ATOM      1  C   ILE E1023     -48.783  26.292   0.494  1.00 40.02 LIG 0.24  C 
ATOM      2 O    ILE E1023     -47.814  26.328  -0.280  1.00 38.38 LIG-0.27  OA
ATOM      3  N   PRO E1024     -49.346  25.133   0.920  1.00 37.38 LIG-0.34  N 
ATOM      4  CA  PRO E1024     -48.893  23.858   0.347  1.00 36.67 LIG 0.18  C 
ATOM      5  CB  PRO E1024     -49.463  22.814   1.304  1.00 38.74 LIG 0.04  C 
ATOM      6  CG  PRO E1024     -50.680  23.443   1.870  1.00 43.33 LIG 0.02  C 
ATOM      7  CD  PRO E1024     -50.496  24.933   1.831  1.00 39.42 LIG 0.13  C 
ENDROOT
BRANCH 4 8
ATOM      8  C   PRO E1024     -49.465  23.716  -1.058  1.00 39.60 LIG 0.24  C 
ATOM      9 O    PRO E1024     -50.543  23.145  -1.210  1.00 37.18 LIG-0.27  OA
ATOM     10  N   ILE E1025     -48.756  24.269  -2.064  1.00 37.20 LIG-0.35  N 
ATOM     11 H    ILE E1025     -48.009  24.670  -1.918  1.00 37.20 LIG 0.16  HD
BRANCH 10 12
ATOM     12  CA  ILE E1025     -49.119  24.279  -3.487  1.00 37.42 LIG 0.18  C 
BRANCH 12 13
ATOM     13  C   ILE E1025     -47.967  24.811  -4.336  1.00 40.88 LIG 0.24  C 
ATOM     14 O    ILE E1025     -47.546  24.122  -5.267  1.00 40.29 LIG-0.27  OA
ATOM     15  N   PHE E1026     -47.315  25.906  -3.899  1.00 36.23 LIG-0.35  N 
ATOM     16 H    PHE E1026     -47.593  26.413  -3.262  1.00 36.23 LIG 0.16  HD
BRANCH 15 17
ATOM     17  CA  PHE E1026     -46.043  26.322  -4.504  1.00 36.58 LIG 0.18  C 
BRANCH 17 18
ATOM     18  CB  PHE E1026     -44.969  25.250  -4.350  1.00 38.58 LIG 0.07  C 
BRANCH 18 19
ATOM     19  CG  PHE E1026     -45.082  24.507  -3.051  1.00 40.24 LIG-0.06  A 
ATOM     20  CD1 PHE E1026     -45.266  25.187  -1.866  1.00 42.20 LIG 0.01  A 
ATOM     21  CE1 PHE E1026     -45.359  24.502  -0.667  1.00 42.54 LIG 0.00  A 
ATOM     22  CZ  PHE E1026     -45.270  23.134  -0.647  1.00 41.81 LIG 0.00  A 
ATOM     23  CE2 PHE E1026     -45.080  22.439  -1.811  1.00 44.36 LIG 0.00  A 
ATOM     24  CD2 PHE E1026     -44.981  23.122  -3.012  1.00 42.30 LIG 0.01  A 
ENDBRANCH 18 19
ENDBRANCH 17 18
BRANCH 17 25
ATOM     25  C   PHE E1026     -46.229  26.665  -5.971  1.00 38.60 LIG 0.24  C 
ATOM     26  N   ASN E1027     -47.392  27.285  -6.295  1.00 38.80 LIG-0.35  N 
ATOM     27 H    ASN E1027     -48.001  27.454  -5.712  1.00 38.80 LIG 0.16  HD
ATOM     28 O    PHE E1026     -45.326  26.434  -6.772  1.00 31.59 LIG-0.27  OA
BRANCH 26 29
ATOM     29  CA  ASN E1027     -47.749  27.735  -7.645  1.00 74.37 LIG 0.17  C 
BRANCH 29 30
ATOM     30  CB  ASN E1027     -49.263  27.706  -7.831  1.00 75.17 LIG 0.14  C 
BRANCH 30 31
ATOM     31  CG  ASN E1027     -49.873  29.079  -7.955  1.00 99.64 LIG 0.22  C 
ATOM     32  ND2 ASN E1027     -50.001  29.589  -9.176  1.00 92.55 LIG-0.37  N 
ATOM     33 22HD ASN E1027     -49.745  29.135  -9.860  1.00 92.55 LIG 0.16  HD
ATOM     34 21HD ASN E1027     -50.338  30.373  -9.283  1.00 92.55 LIG 0.16  HD
ATOM     35 OD1  ASN E1027     -50.231  29.705  -6.955  1.00 94.01 LIG-0.27  OA
ENDBRANCH 30 31
ENDBRANCH 29 30
BRANCH 29 36
ATOM     36  C   ASN E1027     -47.237  29.155  -7.881  1.00103.37 LIG 0.22  C 
ATOM     37 O    ASN E1027     -46.406  29.649  -7.123  1.00 69.20 LIG-0.29  OA
ENDBRANCH 29 36
ENDBRANCH 26 29
ENDBRANCH 17 25
ENDBRANCH 15 17
ENDBRANCH 12 13
BRANCH 12 38
ATOM     38  CB  ILE E1025     -50.309  25.316  -3.693  1.00 40.50 LIG 0.01  C 
ATOM     39  CG2 ILE E1025     -50.182  26.522  -2.751  1.00 43.95 LIG 0.01  C 
BRANCH 38 40
ATOM     40  CG1 ILE E1025     -50.467  25.773  -5.143  1.00 41.58 LIG 0.00  C 
ATOM     41  CD1 ILE E1025     -51.282  27.173  -5.275  1.00 52.05 LIG 0.01  C 
ENDBRANCH 38 40
ENDBRANCH 12 38
ENDBRANCH 10 12
ENDBRANCH 4 8
BRANCH 1 42
ATOM     42  CA  ILE E1023     -49.299  27.600   1.067  1.00 36.06 LIG 0.18  C 
BRANCH 42 43
ATOM     43  N   ILE E1023     -48.873  27.641   2.479  1.00 37.96 LIG-0.35  N 
ATOM     44  C   ARG E1022     -49.672  28.085   3.473  1.00 45.42 LIG 0.24  C 
ATOM     45 O    ARG E1022     -50.789  28.563   3.276  1.00 45.23 LIG-0.27  OA
ATOM     46 H    ILE E1023     -48.072  27.356   2.609  1.00 37.96 LIG 0.16  HD
BRANCH 44 47
ATOM     47  CA  ARG E1022     -49.134  28.059   4.905  1.00 45.59 LIG 0.18  C 
BRANCH 47 48
ATOM     48  N   ARG E1022     -49.496  29.257   5.681  1.00 48.30 LIG-0.35  N 
ATOM     49 H    ARG E1022     -50.249  29.609   5.462  1.00 48.30 LIG 0.16  HD
ATOM     50  C   ILE E1021     -48.692  29.742   6.653  1.00 57.51 LIG 0.26  C 
ATOM     51 O    ILE E1021     -47.613  29.216   6.954  1.00 59.03 LIG-0.27  OA
BRANCH 50 52
ATOM     52  CA  ILE E1021     -49.155  30.992   7.419  1.00 57.59 LIG 0.40  C 
ATOM     53  N   ILE E1021     -47.977  31.714   7.892  1.00 58.96 LIG 0.61  N 
BRANCH 52 54
ATOM     54  CB  ILE E1021     -49.969  31.975   6.531  1.00 60.58 LIG 0.03  C 
ATOM     55  CG2 ILE E1021     -51.464  31.946   6.833  1.00 61.37 LIG 0.01  C 
BRANCH 54 56
ATOM     56  CG1 ILE E1021     -49.410  33.414   6.657  1.00 60.59 LIG 0.00  C 
ATOM     57  CD1 ILE E1021     -49.106  34.028   5.342  1.00 60.15 LIG 0.01  C 
ENDBRANCH 54 56
ENDBRANCH 52 54
ENDBRANCH 50 52
ENDBRANCH 47 48
BRANCH 47 58
ATOM     58  CB  ARG E1022     -49.613  26.770   5.584  1.00 44.33 LIG 0.04  C 
BRANCH 58 59
ATOM     59  CG  ARG E1022     -48.665  26.278   6.671  1.00 47.73 LIG 0.02  C 
BRANCH 59 60
ATOM     60  CD  ARG E1022     -49.127  26.636   8.068  1.00 47.87 LIG 0.14  C 
BRANCH 60 61
ATOM     61  NE  ARG E1022     -47.982  26.849   8.952  1.00 55.98 LIG-0.23  N 
ATOM     62  CZ  ARG E1022     -47.965  26.683  10.272  1.00 56.00 LIG 0.67  C 
ATOM     63  NH1 ARG E1022     -49.049  26.260  10.914  1.00 48.69 LIG-0.23  N 
ATOM     64  NH2 ARG E1022     -46.854  26.905  10.958  1.00 32.20 LIG-0.23  N 
ATOM     65 1HH1 ARG E1022     -49.770  26.092  10.476  1.00 48.69 LIG 0.17  HD
ATOM     66 2HH1 ARG E1022     -49.030  26.155  11.767  1.00 48.69 LIG 0.17  HD
ATOM     67 2HH2 ARG E1022     -46.847  26.797  11.811  1.00 32.20 LIG 0.17  HD
ATOM     68 1HH2 ARG E1022     -46.141  27.158  10.550  1.00 32.20 LIG 0.17  HD
ATOM     69 HE   ARG E1022     -47.249  27.107   8.583  1.00 55.98 LIG 0.18  HD
ENDBRANCH 60 61
ENDBRANCH 59 60
ENDBRANCH 58 59
ENDBRANCH 47 58
ENDBRANCH 44 47
ENDBRANCH 42 43
BRANCH 42 70
ATOM     70  CB  ILE E1023     -48.740  28.793   0.223  1.00 38.78 LIG 0.01  C 
ATOM     71  CG2 ILE E1023     -49.860  29.447  -0.600  1.00 39.01 LIG 0.01  C 
BRANCH 70 72
ATOM     72  CG1 ILE E1023     -47.973  29.848   1.076  1.00 39.61 LIG 0.00  C 
ATOM     73  CD1 ILE E1023     -48.739  31.068   1.523  1.00 43.21 LIG 0.01  C 
ENDBRANCH 70 72
ENDBRANCH 42 70
ENDBRANCH 1 42
TORSDOF 26
ENDMDL
MODEL 68
USER: ADFR SOLUTION from run 34
USER: SCORE 21.955738 LL:  -5.685 LR: -17.555 RR:   0.000 FEB:  -9.800
USER: RMSD 13.386418
USER: SEED 33
USER: STATUS no improvement in best in 1 clusters for 5 generations
USER: GENES 28
USER: genes 0 Translation |==|  0.47446 0.56197 0.51066
USER: genes 1 Rotation |==|  0.94154 0.65297 0.64391 0.60457
USER: genes 2 Torsion [N]-CA--C-[O] |==|  0.22686
USER: genes 3 Torsion [C]-N--CA-[CB] |==|  0.21831
USER: genes 4 Torsion [N]-CA--C-[N] |==|  0.88768
USER: genes 5 Torsion [C]-N--CA-[C] |==|  0.17453
USER: genes 6 Torsion [N]-CA--CB-[CG] |==|  0.74114
USER: genes 7 Torsion [CA]-CB--CG-[CD1] |==|  0.09355
USER: genes 8 Torsion [N]-CA--C-[N] |==|  0.06550
USER: genes 9 Torsion [C]-N--CA-[C] |==|  0.80152
USER: genes 10 Torsion [N]-CA--CB-[CG] |==|  0.15392
USER: genes 11 Torsion [CA]-CB--CG-[OD1] |==|  0.15842
USER: genes 12 Torsion [N]-CA--C-[O] |==|  0.31843
USER: genes 13 Torsion [N]-CA--CB-[CG2] |==|  0.80555
USER: genes 14 Torsion [CA]-CB--CG1-[CD1] |==|  0.70918
USER: genes 15 Torsion [N]-C--CA-[N] |==|  0.45367
USER: genes 16 Torsion [C]-CA--N-[C] |==|  0.61117
USER: genes 17 Torsion [N]-C--CA-[N] |==|  0.97778
USER: genes 18 Torsion [C]-CA--N-[C] |==|  0.65212
USER: genes 19 Torsion [N]-C--CA-[N] |==|  0.38060
USER: genes 20 Torsion [C]-CA--CB-[CG1] |==|  0.08492
USER: genes 21 Torsion [CA]-CB--CG1-[CD1] |==|  0.48866
USER: genes 22 Torsion [C]-CA--CB-[CG] |==|  0.23475
USER: genes 23 Torsion [CA]-CB--CG-[CD] |==|  0.35646
USER: genes 24 Torsion [CB]-CG--CD-[NE] |==|  0.21499
USER: genes 25 Torsion [CG]-CD--NE-[CZ] |==|  0.19233
USER: genes 26 Torsion [C]-CA--CB-[CG1] |==|  0.34421
USER: genes 27 Torsion [CA]-CB--CG1-[CD1] |==|  0.23711
ROOT
ATOM      1  C   ILE E1023     -48.739  26.471   0.762  1.00 40.02 LIG 0.24  C 
ATOM      2 O    ILE E1023     -48.356  25.665   1.623  1.00 38.38 LIG-0.27  OA
ATOM      3  N   PRO E1024     -49.014  26.111  -0.517  1.00 37.38 LIG-0.34  N 
ATOM      4  CA  PRO E1024     -48.722  24.740  -0.959  1.00 36.67 LIG 0.18  C 
ATOM      5  CB  PRO E1024     -49.482  24.621  -2.278  1.00 38.74 LIG 0.04  C 
ATOM      6  CG  PRO E1024     -49.541  26.003  -2.809  1.00 43.33 LIG 0.02  C 
ATOM      7  CD  PRO E1024     -49.473  26.952  -1.647  1.00 39.42 LIG 0.13  C 
ENDROOT
BRANCH 4 8
ATOM      8  C   PRO E1024     -47.218  24.594  -1.153  1.00 39.60 LIG 0.24  C 
ATOM      9 O    PRO E1024     -46.506  24.379  -0.173  1.00 37.18 LIG-0.27  OA
ATOM     10  N   ILE E1025     -46.755  24.674  -2.417  1.00 37.20 LIG-0.35  N 
ATOM     11 H    ILE E1025     -47.284  24.816  -3.080  1.00 37.20 LIG 0.16  HD
BRANCH 10 12
ATOM     12  CA  ILE E1025     -45.356  24.541  -2.847  1.00 37.42 LIG 0.18  C 
BRANCH 12 13
ATOM     13  C   ILE E1025     -45.183  25.022  -4.285  1.00 40.88 LIG 0.24  C 
ATOM     14 O    ILE E1025     -44.297  25.840  -4.538  1.00 40.29 LIG-0.27  OA
ATOM     15  N   PHE E1026     -46.143  24.703  -5.176  1.00 36.23 LIG-0.35  N 
ATOM     16 H    PHE E1026     -46.765  24.127  -5.032  1.00 36.23 LIG 0.16  HD
BRANCH 15 17
ATOM     17  CA  PHE E1026     -46.192  25.342  -6.498  1.00 36.58 LIG 0.18  C 
BRANCH 17 18
ATOM     18  CB  PHE E1026     -46.358  26.854  -6.387  1.00 38.58 LIG 0.07  C 
BRANCH 18 19
ATOM     19  CG  PHE E1026     -47.796  27.279  -6.444  1.00 40.24 LIG-0.06  A 
ATOM     20  CD1 PHE E1026     -48.786  26.482  -5.910  1.00 42.20 LIG 0.01  A 
ATOM     21  CE1 PHE E1026     -50.114  26.870  -5.974  1.00 42.54 LIG 0.00  A 
ATOM     22  CZ  PHE E1026     -50.457  28.055  -6.570  1.00 41.81 LIG 0.00  A 
ATOM     23  CE2 PHE E1026     -49.491  28.859  -7.114  1.00 44.36 LIG 0.00  A 
ATOM     24  CD2 PHE E1026     -48.162  28.471  -7.057  1.00 42.30 LIG 0.01  A 
ENDBRANCH 18 19
ENDBRANCH 17 18
BRANCH 17 25
ATOM     25  C   PHE E1026     -44.948  25.013  -7.303  1.00 38.60 LIG 0.24  C 
ATOM     26  N   ASN E1027     -44.293  23.878  -6.950  1.00 38.80 LIG-0.35  N 
ATOM     27 H    ASN E1027     -44.550  23.383  -6.295  1.00 38.80 LIG 0.16  HD
ATOM     28 O    PHE E1026     -44.626  25.727  -8.250  1.00 31.59 LIG-0.27  OA
BRANCH 26 29
ATOM     29  CA  ASN E1027     -43.096  23.361  -7.624  1.00 74.37 LIG 0.17  C 
BRANCH 29 30
ATOM     30  CB  ASN E1027     -42.455  22.255  -6.792  1.00 75.17 LIG 0.14  C 
BRANCH 30 31
ATOM     31  CG  ASN E1027     -43.406  21.132  -6.464  1.00 99.64 LIG 0.22  C 
ATOM     32  ND2 ASN E1027     -43.587  20.833  -5.180  1.00 92.55 LIG-0.37  N 
ATOM     33 22HD ASN E1027     -43.173  21.280  -4.572  1.00 92.55 LIG 0.16  HD
ATOM     34 21HD ASN E1027     -44.117  20.194  -4.957  1.00 92.55 LIG 0.16  HD
ATOM     35 OD1  ASN E1027     -43.984  20.510  -7.357  1.00 94.01 LIG-0.27  OA
ENDBRANCH 30 31
ENDBRANCH 29 30
BRANCH 29 36
ATOM     36  C   ASN E1027     -43.462  22.813  -9.002  1.00103.37 LIG 0.22  C 
ATOM     37 O    ASN E1027     -43.031  23.350 -10.018  1.00 69.20 LIG-0.29  OA
ENDBRANCH 29 36
ENDBRANCH 26 29
ENDBRANCH 17 25
ENDBRANCH 15 17
ENDBRANCH 12 13
BRANCH 12 38
ATOM     38  CB  ILE E1025     -44.986  22.994  -2.871  1.00 40.50 LIG 0.01  C 
ATOM     39  CG2 ILE E1025     -44.905  22.405  -1.456  1.00 43.95 LIG 0.01  C 
BRANCH 38 40
ATOM     40  CG1 ILE E1025     -45.919  22.164  -3.753  1.00 41.58 LIG 0.00  C 
ATOM     41  CD1 ILE E1025     -46.978  21.282  -2.892  1.00 52.05 LIG 0.01  C 
ENDBRANCH 38 40
ENDBRANCH 12 38
ENDBRANCH 10 12
ENDBRANCH 4 8
BRANCH 1 42
ATOM     42  CA  ILE E1023     -49.008  27.905   1.184  1.00 36.06 LIG 0.18  C 
BRANCH 42 43
ATOM     43  N   ILE E1023     -49.018  27.918   2.659  1.00 37.96 LIG-0.35  N 
ATOM     44  C   ARG E1022     -49.898  28.645   3.380  1.00 45.42 LIG 0.24  C 
ATOM     45 O    ARG E1022     -50.713  29.414   2.870  1.00 45.23 LIG-0.27  OA
ATOM     46 H    ILE E1023     -48.413  27.421   3.015  1.00 37.96 LIG 0.16  HD
BRANCH 44 47
ATOM     47  CA  ARG E1022     -49.832  28.563   4.906  1.00 45.59 LIG 0.18  C 
BRANCH 47 48
ATOM     48  N   ARG E1022     -48.903  27.529   5.391  1.00 48.30 LIG-0.35  N 
ATOM     49 H    ARG E1022     -48.103  27.598   5.084  1.00 48.30 LIG 0.16  HD
ATOM     50  C   ILE E1021     -49.301  26.563   6.248  1.00 57.51 LIG 0.26  C 
ATOM     51 O    ILE E1021     -50.459  26.487   6.680  1.00 59.03 LIG-0.27  OA
BRANCH 50 52
ATOM     52  CA  ILE E1021     -48.260  25.530   6.710  1.00 57.59 LIG 0.40  C 
ATOM     53  N   ILE E1021     -48.421  25.312   8.144  1.00 58.96 LIG 0.61  N 
BRANCH 52 54
ATOM     54  CB  ILE E1021     -48.434  24.150   6.015  1.00 60.58 LIG 0.03  C 
ATOM     55  CG2 ILE E1021     -49.283  23.179   6.830  1.00 61.37 LIG 0.01  C 
BRANCH 54 56
ATOM     56  CG1 ILE E1021     -49.016  24.326   4.591  1.00 60.59 LIG 0.00  C 
ATOM     57  CD1 ILE E1021     -49.112  23.047   3.848  1.00 60.15 LIG 0.01  C 
ENDBRANCH 54 56
ENDBRANCH 52 54
ENDBRANCH 50 52
ENDBRANCH 47 48
BRANCH 47 58
ATOM     58  CB  ARG E1022     -49.481  29.951   5.454  1.00 44.33 LIG 0.04  C 
BRANCH 58 59
ATOM     59  CG  ARG E1022     -50.696  30.856   5.620  1.00 47.73 LIG 0.02  C 
BRANCH 59 60
ATOM     60  CD  ARG E1022     -50.796  31.471   7.000  1.00 47.87 LIG 0.14  C 
BRANCH 60 61
ATOM     61  NE  ARG E1022     -49.859  32.584   7.139  1.00 55.98 LIG-0.23  N 
ATOM     62  CZ  ARG E1022     -49.939  33.761   6.523  1.00 56.00 LIG 0.67  C 
ATOM     63  NH1 ARG E1022     -50.954  34.030   5.709  1.00 48.69 LIG-0.23  N 
ATOM     64  NH2 ARG E1022     -49.023  34.692   6.742  1.00 32.20 LIG-0.23  N 
ATOM     65 1HH1 ARG E1022     -51.567  33.441   5.576  1.00 48.69 LIG 0.17  HD
ATOM     66 2HH1 ARG E1022     -50.998  34.793   5.315  1.00 48.69 LIG 0.17  HD
ATOM     67 2HH2 ARG E1022     -49.077  35.451   6.342  1.00 32.20 LIG 0.17  HD
ATOM     68 1HH2 ARG E1022     -48.373  34.537   7.284  1.00 32.20 LIG 0.17  HD
ATOM     69 HE   ARG E1022     -49.192  32.468   7.669  1.00 55.98 LIG 0.18  HD
ENDBRANCH 60 61
ENDBRANCH 59 60
ENDBRANCH 58 59
ENDBRANCH 47 58
ENDBRANCH 44 47
ENDBRANCH 42 43
BRANCH 42 70
ATOM     70  CB  ILE E1023     -47.915  28.840   0.569  1.00 38.78 LIG 0.01  C 
ATOM     71  CG2 ILE E1023     -46.885  28.022  -0.225  1.00 39.01 LIG 0.01  C 
BRANCH 70 72
ATOM     72  CG1 ILE E1023     -48.504  29.998  -0.292  1.00 39.61 LIG 0.00  C 
ATOM     73  CD1 ILE E1023     -48.923  31.255   0.429  1.00 43.21 LIG 0.01  C 
ENDBRANCH 70 72
ENDBRANCH 42 70
ENDBRANCH 1 42
TORSDOF 26
ENDMDL
MODEL 69
USER: ADFR SOLUTION from run 137
USER: SCORE 22.134140 LL:  -5.615 LR: -17.527 RR:   0.000 FEB:  -9.771
USER: RMSD 5.722982
USER: SEED 136
USER: STATUS no improvement in best in 6 clusters for 5 generations
USER: GENES 28
USER: genes 0 Translation |==|  0.46994 0.58985 0.51159
USER: genes 1 Rotation |==|  0.55374 0.28733 0.10572 0.71546
USER: genes 2 Torsion [N]-CA--C-[O] |==|  0.68023
USER: genes 3 Torsion [C]-N--CA-[CB] |==|  0.48892
USER: genes 4 Torsion [N]-CA--C-[N] |==|  0.47361
USER: genes 5 Torsion [C]-N--CA-[C] |==|  0.63182
USER: genes 6 Torsion [N]-CA--CB-[CG] |==|  0.85816
USER: genes 7 Torsion [CA]-CB--CG-[CD1] |==|  0.72499
USER: genes 8 Torsion [N]-CA--C-[N] |==|  0.31212
USER: genes 9 Torsion [C]-N--CA-[C] |==|  0.60581
USER: genes 10 Torsion [N]-CA--CB-[CG] |==|  0.92748
USER: genes 11 Torsion [CA]-CB--CG-[OD1] |==|  0.28674
USER: genes 12 Torsion [N]-CA--C-[O] |==|  0.30919
USER: genes 13 Torsion [N]-CA--CB-[CG2] |==|  0.56579
USER: genes 14 Torsion [CA]-CB--CG1-[CD1] |==|  0.55814
USER: genes 15 Torsion [N]-C--CA-[N] |==|  0.35004
USER: genes 16 Torsion [C]-CA--N-[C] |==|  0.85785
USER: genes 17 Torsion [N]-C--CA-[N] |==|  0.40253
USER: genes 18 Torsion [C]-CA--N-[C] |==|  0.79066
USER: genes 19 Torsion [N]-C--CA-[N] |==|  0.51492
USER: genes 20 Torsion [C]-CA--CB-[CG1] |==|  0.55071
USER: genes 21 Torsion [CA]-CB--CG1-[CD1] |==|  0.30852
USER: genes 22 Torsion [C]-CA--CB-[CG] |==|  0.37036
USER: genes 23 Torsion [CA]-CB--CG-[CD] |==|  0.02600
USER: genes 24 Torsion [CB]-CG--CD-[NE] |==|  0.25854
USER: genes 25 Torsion [CG]-CD--NE-[CZ] |==|  0.48106
USER: genes 26 Torsion [C]-CA--CB-[CG1] |==|  0.46008
USER: genes 27 Torsion [CA]-CB--CG1-[CD1] |==|  0.15133
ROOT
ATOM      1  C   ILE E1023     -48.807  27.119   0.788  1.00 40.02 LIG 0.24  C 
ATOM      2 O    ILE E1023     -47.988  26.621   1.574  1.00 38.38 LIG-0.27  OA
ATOM      3  N   PRO E1024     -49.041  28.453   0.712  1.00 37.38 LIG-0.34  N 
ATOM      4  CA  PRO E1024     -48.409  29.353   1.687  1.00 36.67 LIG 0.18  C 
ATOM      5  CB  PRO E1024     -48.600  30.737   1.071  1.00 38.74 LIG 0.04  C 
ATOM      6  CG  PRO E1024     -49.832  30.623   0.255  1.00 43.33 LIG 0.02  C 
ATOM      7  CD  PRO E1024     -49.981  29.188  -0.166  1.00 39.42 LIG 0.13  C 
ENDROOT
BRANCH 4 8
ATOM      8  C   PRO E1024     -49.129  29.219   3.023  1.00 39.60 LIG 0.24  C 
ATOM      9 O    PRO E1024     -49.743  30.186   3.471  1.00 37.18 LIG-0.27  OA
ATOM     10  N   ILE E1025     -49.077  28.013   3.625  1.00 37.20 LIG-0.35  N 
ATOM     11 H    ILE E1025     -48.645  27.356   3.276  1.00 37.20 LIG 0.16  HD
BRANCH 10 12
ATOM     12  CA  ILE E1025     -49.712  27.643   4.897  1.00 37.42 LIG 0.18  C 
BRANCH 12 13
ATOM     13  C   ILE E1025     -49.038  28.359   6.066  1.00 40.88 LIG 0.24  C 
ATOM     14 O    ILE E1025     -47.899  28.805   5.914  1.00 40.29 LIG-0.27  OA
ATOM     15  N   PHE E1026     -49.625  28.279   7.276  1.00 36.23 LIG-0.35  N 
ATOM     16 H    PHE E1026     -50.422  27.985   7.409  1.00 36.23 LIG 0.16  HD
BRANCH 15 17
ATOM     17  CA  PHE E1026     -48.916  28.704   8.491  1.00 36.58 LIG 0.18  C 
BRANCH 17 18
ATOM     18  CB  PHE E1026     -49.421  30.053   8.994  1.00 38.58 LIG 0.07  C 
BRANCH 18 19
ATOM     19  CG  PHE E1026     -49.441  31.097   7.916  1.00 40.24 LIG-0.06  A 
ATOM     20  CD1 PHE E1026     -48.420  32.017   7.809  1.00 42.20 LIG 0.01  A 
ATOM     21  CE1 PHE E1026     -48.445  32.986   6.821  1.00 42.54 LIG 0.00  A 
ATOM     22  CZ  PHE E1026     -49.488  33.039   5.934  1.00 41.81 LIG 0.00  A 
ATOM     23  CE2 PHE E1026     -50.517  32.140   6.026  1.00 44.36 LIG 0.00  A 
ATOM     24  CD2 PHE E1026     -50.498  31.172   7.018  1.00 42.30 LIG 0.01  A 
ENDBRANCH 18 19
ENDBRANCH 17 18
BRANCH 17 25
ATOM     25  C   PHE E1026     -49.044  27.660   9.585  1.00 38.60 LIG 0.24  C 
ATOM     26  N   ASN E1027     -47.902  27.013   9.926  1.00 38.80 LIG-0.35  N 
ATOM     27 H    ASN E1027     -47.152  27.163   9.532  1.00 38.80 LIG 0.16  HD
ATOM     28 O    PHE E1026     -50.125  27.491  10.145  1.00 31.59 LIG-0.27  OA
BRANCH 26 29
ATOM     29  CA  ASN E1027     -47.801  25.999  10.983  1.00 74.37 LIG 0.17  C 
BRANCH 29 30
ATOM     30  CB  ASN E1027     -47.883  24.599  10.385  1.00 75.17 LIG 0.14  C 
BRANCH 30 31
ATOM     31  CG  ASN E1027     -48.638  24.554   9.080  1.00 99.64 LIG 0.22  C 
ATOM     32  ND2 ASN E1027     -49.966  24.604   9.135  1.00 92.55 LIG-0.37  N 
ATOM     33 22HD ASN E1027     -50.363  24.667   9.895  1.00 92.55 LIG 0.16  HD
ATOM     34 21HD ASN E1027     -50.428  24.574   8.410  1.00 92.55 LIG 0.16  HD
ATOM     35 OD1  ASN E1027     -48.041  24.463   8.005  1.00 94.01 LIG-0.27  OA
ENDBRANCH 30 31
ENDBRANCH 29 30
BRANCH 29 36
ATOM     36  C   ASN E1027     -46.480  26.153  11.736  1.00103.37 LIG 0.22  C 
ATOM     37 O    ASN E1027     -46.472  26.536  12.902  1.00 69.20 LIG-0.29  OA
ENDBRANCH 29 36
ENDBRANCH 26 29
ENDBRANCH 17 25
ENDBRANCH 15 17
ENDBRANCH 12 13
BRANCH 12 38
ATOM     38  CB  ILE E1025     -49.460  26.092   5.150  1.00 40.50 LIG 0.01  C 
ATOM     39  CG2 ILE E1025     -50.518  25.489   6.085  1.00 43.95 LIG 0.01  C 
BRANCH 38 40
ATOM     40  CG1 ILE E1025     -49.350  25.281   3.858  1.00 41.58 LIG 0.00  C 
ATOM     41  CD1 ILE E1025     -49.636  23.698   4.085  1.00 52.05 LIG 0.01  C 
ENDBRANCH 38 40
ENDBRANCH 12 38
ENDBRANCH 10 12
ENDBRANCH 4 8
BRANCH 1 42
ATOM     42  CA  ILE E1023     -49.506  26.204  -0.201  1.00 36.06 LIG 0.18  C 
BRANCH 42 43
ATOM     43  N   ILE E1023     -48.453  25.403  -0.855  1.00 37.96 LIG-0.35  N 
ATOM     44  C   ARG E1022     -47.356  25.953  -1.418  1.00 45.42 LIG 0.24  C 
ATOM     45 O    ARG E1022     -47.181  27.169  -1.500  1.00 45.23 LIG-0.27  OA
ATOM     46 H    ILE E1023     -48.604  24.557  -0.844  1.00 37.96 LIG 0.16  HD
BRANCH 44 47
ATOM     47  CA  ARG E1022     -46.317  25.024  -2.046  1.00 45.59 LIG 0.18  C 
BRANCH 47 48
ATOM     48  N   ARG E1022     -45.680  25.594  -3.245  1.00 48.30 LIG-0.35  N 
ATOM     49 H    ARG E1022     -44.877  25.877  -3.120  1.00 48.30 LIG 0.16  HD
ATOM     50  C   ILE E1021     -46.325  25.655  -4.431  1.00 57.51 LIG 0.26  C 
ATOM     51 O    ILE E1021     -47.479  25.238  -4.587  1.00 59.03 LIG-0.27  OA
BRANCH 50 52
ATOM     52  CA  ILE E1021     -45.578  26.259  -5.632  1.00 57.59 LIG 0.40  C 
ATOM     53  N   ILE E1021     -46.498  26.342  -6.762  1.00 58.96 LIG 0.61  N 
BRANCH 52 54
ATOM     54  CB  ILE E1021     -45.060  27.698  -5.356  1.00 60.58 LIG 0.03  C 
ATOM     55  CG2 ILE E1021     -43.857  27.725  -4.417  1.00 61.37 LIG 0.01  C 
BRANCH 54 56
ATOM     56  CG1 ILE E1021     -44.736  28.425  -6.685  1.00 60.59 LIG 0.00  C 
ATOM     57  CD1 ILE E1021     -45.676  29.534  -6.976  1.00 60.15 LIG 0.01  C 
ENDBRANCH 54 56
ENDBRANCH 52 54
ENDBRANCH 50 52
ENDBRANCH 47 48
BRANCH 47 58
ATOM     58  CB  ARG E1022     -45.288  24.646  -0.975  1.00 44.33 LIG 0.04  C 
BRANCH 58 59
ATOM     59  CG  ARG E1022     -44.979  23.154  -0.940  1.00 47.73 LIG 0.02  C 
BRANCH 59 60
ATOM     60  CD  ARG E1022     -45.576  22.396  -2.108  1.00 47.87 LIG 0.14  C 
BRANCH 60 61
ATOM     61  NE  ARG E1022     -44.613  22.294  -3.204  1.00 55.98 LIG-0.23  N 
ATOM     62  CZ  ARG E1022     -44.765  21.588  -4.321  1.00 56.00 LIG 0.67  C 
ATOM     63  NH1 ARG E1022     -45.884  20.905  -4.542  1.00 48.69 LIG-0.23  N 
ATOM     64  NH2 ARG E1022     -43.814  21.585  -5.243  1.00 32.20 LIG-0.23  N 
ATOM     65 1HH1 ARG E1022     -46.517  20.917  -3.960  1.00 48.69 LIG 0.17  HD
ATOM     66 2HH1 ARG E1022     -45.974  20.451  -5.267  1.00 48.69 LIG 0.17  HD
ATOM     67 2HH2 ARG E1022     -43.916  21.128  -5.964  1.00 32.20 LIG 0.17  HD
ATOM     68 1HH2 ARG E1022     -43.095  22.041  -5.120  1.00 32.20 LIG 0.17  HD
ATOM     69 HE   ARG E1022     -43.878  22.733  -3.118  1.00 55.98 LIG 0.18  HD
ENDBRANCH 60 61
ENDBRANCH 59 60
ENDBRANCH 58 59
ENDBRANCH 47 58
ENDBRANCH 44 47
ENDBRANCH 42 43
BRANCH 42 70
ATOM     70  CB  ILE E1023     -50.561  25.330   0.555  1.00 38.78 LIG 0.01  C 
ATOM     71  CG2 ILE E1023     -51.288  26.161   1.623  1.00 39.01 LIG 0.01  C 
BRANCH 70 72
ATOM     72  CG1 ILE E1023     -51.573  24.622  -0.396  1.00 39.61 LIG 0.00  C 
ATOM     73  CD1 ILE E1023     -51.004  23.765  -1.500  1.00 43.21 LIG 0.01  C 
ENDBRANCH 70 72
ENDBRANCH 42 70
ENDBRANCH 1 42
TORSDOF 26
ENDMDL
MODEL 70
USER: ADFR SOLUTION from run 81
USER: SCORE 21.355906 LL:  -5.846 LR: -17.515 RR:   0.000 FEB:  -9.759
USER: RMSD 3.281919
USER: SEED 80
USER: STATUS no improvement in best in 3 clusters for 5 generations
USER: GENES 28
USER: genes 0 Translation |==|  0.54044 0.48910 0.42234
USER: genes 1 Rotation |==|  0.40610 0.49955 0.48922 0.99099
USER: genes 2 Torsion [N]-CA--C-[O] |==|  0.07327
USER: genes 3 Torsion [C]-N--CA-[CB] |==|  0.23332
USER: genes 4 Torsion [N]-CA--C-[N] |==|  0.89728
USER: genes 5 Torsion [C]-N--CA-[C] |==|  0.09585
USER: genes 6 Torsion [N]-CA--CB-[CG] |==|  0.12295
USER: genes 7 Torsion [CA]-CB--CG-[CD1] |==|  0.73866
USER: genes 8 Torsion [N]-CA--C-[N] |==|  0.17164
USER: genes 9 Torsion [C]-N--CA-[C] |==|  0.52126
USER: genes 10 Torsion [N]-CA--CB-[CG] |==|  0.51869
USER: genes 11 Torsion [CA]-CB--CG-[OD1] |==|  0.21431
USER: genes 12 Torsion [N]-CA--C-[O] |==|  0.30089
USER: genes 13 Torsion [N]-CA--CB-[CG2] |==|  0.80230
USER: genes 14 Torsion [CA]-CB--CG1-[CD1] |==|  0.78245
USER: genes 15 Torsion [N]-C--CA-[N] |==|  0.34777
USER: genes 16 Torsion [C]-CA--N-[C] |==|  0.58095
USER: genes 17 Torsion [N]-C--CA-[N] |==|  0.04928
USER: genes 18 Torsion [C]-CA--N-[C] |==|  0.18872
USER: genes 19 Torsion [N]-C--CA-[N] |==|  0.89501
USER: genes 20 Torsion [C]-CA--CB-[CG1] |==|  0.71810
USER: genes 21 Torsion [CA]-CB--CG1-[CD1] |==|  0.26971
USER: genes 22 Torsion [C]-CA--CB-[CG] |==|  0.36216
USER: genes 23 Torsion [CA]-CB--CG-[CD] |==|  0.46077
USER: genes 24 Torsion [CB]-CG--CD-[NE] |==|  0.39249
USER: genes 25 Torsion [CG]-CD--NE-[CZ] |==|  0.57433
USER: genes 26 Torsion [C]-CA--CB-[CG1] |==|  0.71631
USER: genes 27 Torsion [CA]-CB--CG1-[CD1] |==|  0.21441
ROOT
ATOM      1  C   ILE E1023     -47.749  24.777  -1.755  1.00 40.02 LIG 0.24  C 
ATOM      2 O    ILE E1023     -47.656  25.813  -2.430  1.00 38.38 LIG-0.27  OA
ATOM      3  N   PRO E1024     -48.669  24.616  -0.771  1.00 37.38 LIG-0.34  N 
ATOM      4  CA  PRO E1024     -49.511  25.754  -0.376  1.00 36.67 LIG 0.18  C 
ATOM      5  CB  PRO E1024     -50.619  25.109   0.451  1.00 38.74 LIG 0.04  C 
ATOM      6  CG  PRO E1024     -50.002  23.891   1.029  1.00 43.33 LIG 0.02  C 
ATOM      7  CD  PRO E1024     -48.898  23.449   0.113  1.00 39.42 LIG 0.13  C 
ENDROOT
BRANCH 4 8
ATOM      8  C   PRO E1024     -48.674  26.724   0.449  1.00 39.60 LIG 0.24  C 
ATOM      9 O    PRO E1024     -47.456  26.757   0.280  1.00 37.18 LIG-0.27  OA
ATOM     10  N   ILE E1025     -49.339  27.527   1.305  1.00 37.20 LIG-0.35  N 
ATOM     11 H    ILE E1025     -50.194  27.482   1.390  1.00 37.20 LIG 0.16  HD
BRANCH 10 12
ATOM     12  CA  ILE E1025     -48.751  28.550   2.180  1.00 37.42 LIG 0.18  C 
BRANCH 12 13
ATOM     13  C   ILE E1025     -49.710  28.912   3.311  1.00 40.88 LIG 0.24  C 
ATOM     14 O    ILE E1025     -49.281  28.955   4.465  1.00 40.29 LIG-0.27  OA
ATOM     15  N   PHE E1026     -51.028  28.953   3.030  1.00 36.23 LIG-0.35  N 
ATOM     16 H    PHE E1026     -51.354  28.938   2.235  1.00 36.23 LIG 0.16  HD
BRANCH 15 17
ATOM     17  CA  PHE E1026     -52.028  29.028   4.103  1.00 36.58 LIG 0.18  C 
BRANCH 17 18
ATOM     18  CB  PHE E1026     -52.440  27.641   4.587  1.00 38.58 LIG 0.07  C 
BRANCH 18 19
ATOM     19  CG  PHE E1026     -51.266  26.726   4.773  1.00 40.24 LIG-0.06  A 
ATOM     20  CD1 PHE E1026     -50.870  25.875   3.763  1.00 42.20 LIG 0.01  A 
ATOM     21  CE1 PHE E1026     -49.793  25.023   3.940  1.00 42.54 LIG 0.00  A 
ATOM     22  CZ  PHE E1026     -49.106  25.019   5.126  1.00 41.81 LIG 0.00  A 
ATOM     23  CE2 PHE E1026     -49.485  25.851   6.145  1.00 44.36 LIG 0.00  A 
ATOM     24  CD2 PHE E1026     -50.567  26.701   5.973  1.00 42.30 LIG 0.01  A 
ENDBRANCH 18 19
ENDBRANCH 17 18
BRANCH 17 25
ATOM     25  C   PHE E1026     -51.511  29.852   5.267  1.00 38.60 LIG 0.24  C 
ATOM     26  N   ASN E1027     -51.225  31.151   4.997  1.00 38.80 LIG-0.35  N 
ATOM     27 H    ASN E1027     -51.306  31.485   4.208  1.00 38.80 LIG 0.16  HD
ATOM     28 O    PHE E1026     -51.434  29.350   6.386  1.00 31.59 LIG-0.27  OA
BRANCH 26 29
ATOM     29  CA  ASN E1027     -50.752  32.125   5.987  1.00 74.37 LIG 0.17  C 
BRANCH 29 30
ATOM     30  CB  ASN E1027     -49.358  31.750   6.477  1.00 75.17 LIG 0.14  C 
BRANCH 30 31
ATOM     31  CG  ASN E1027     -48.875  32.615   7.614  1.00 99.64 LIG 0.22  C 
ATOM     32  ND2 ASN E1027     -47.982  33.560   7.332  1.00 92.55 LIG-0.37  N 
ATOM     33 22HD ASN E1027     -47.707  33.664   6.524  1.00 92.55 LIG 0.16  HD
ATOM     34 21HD ASN E1027     -47.680  34.068   7.958  1.00 92.55 LIG 0.16  HD
ATOM     35 OD1  ASN E1027     -49.289  32.442   8.762  1.00 94.01 LIG-0.27  OA
ENDBRANCH 30 31
ENDBRANCH 29 30
BRANCH 29 36
ATOM     36  C   ASN E1027     -50.715  33.524   5.374  1.00103.37 LIG 0.22  C 
ATOM     37 O    ASN E1027     -51.536  34.372   5.712  1.00 69.20 LIG-0.29  OA
ENDBRANCH 29 36
ENDBRANCH 26 29
ENDBRANCH 17 25
ENDBRANCH 15 17
ENDBRANCH 12 13
BRANCH 12 38
ATOM     38  CB  ILE E1025     -48.569  29.887   1.336  1.00 40.50 LIG 0.01  C 
ATOM     39  CG2 ILE E1025     -47.445  29.757   0.299  1.00 43.95 LIG 0.01  C 
BRANCH 38 40
ATOM     40  CG1 ILE E1025     -49.863  30.365   0.678  1.00 41.58 LIG 0.00  C 
ATOM     41  CD1 ILE E1025     -50.230  29.528  -0.667  1.00 52.05 LIG 0.01  C 
ENDBRANCH 38 40
ENDBRANCH 12 38
ENDBRANCH 10 12
ENDBRANCH 4 8
BRANCH 1 42
ATOM     42  CA  ILE E1023     -46.861  23.599  -2.115  1.00 36.06 LIG 0.18  C 
BRANCH 42 43
ATOM     43  N   ILE E1023     -47.019  23.375  -3.565  1.00 37.96 LIG-0.35  N 
ATOM     44  C   ARG E1022     -46.880  22.162  -4.139  1.00 45.42 LIG 0.24  C 
ATOM     45 O    ARG E1022     -46.534  21.158  -3.516  1.00 45.23 LIG-0.27  OA
ATOM     46 H    ILE E1023     -47.208  24.088  -4.007  1.00 37.96 LIG 0.16  HD
BRANCH 44 47
ATOM     47  CA  ARG E1022     -47.091  22.043  -5.649  1.00 45.59 LIG 0.18  C 
BRANCH 47 48
ATOM     48  N   ARG E1022     -47.018  23.337  -6.348  1.00 48.30 LIG-0.35  N 
ATOM     49 H    ARG E1022     -47.764  23.604  -6.680  1.00 48.30 LIG 0.16  HD
ATOM     50  C   ILE E1021     -45.859  24.026  -6.445  1.00 57.51 LIG 0.26  C 
ATOM     51 O    ILE E1021     -44.797  23.623  -5.955  1.00 59.03 LIG-0.27  OA
BRANCH 50 52
ATOM     52  CA  ILE E1021     -45.878  25.374  -7.185  1.00 57.59 LIG 0.40  C 
ATOM     53  N   ILE E1021     -46.777  25.266  -8.330  1.00 58.96 LIG 0.61  N 
BRANCH 52 54
ATOM     54  CB  ILE E1021     -46.402  26.539  -6.300  1.00 60.58 LIG 0.03  C 
ATOM     55  CG2 ILE E1021     -45.530  27.789  -6.388  1.00 61.37 LIG 0.01  C 
BRANCH 54 56
ATOM     56  CG1 ILE E1021     -47.874  26.870  -6.650  1.00 60.59 LIG 0.00  C 
ATOM     57  CD1 ILE E1021     -48.842  26.219  -5.734  1.00 60.15 LIG 0.01  C 
ENDBRANCH 54 56
ENDBRANCH 52 54
ENDBRANCH 50 52
ENDBRANCH 47 48
BRANCH 47 58
ATOM     58  CB  ARG E1022     -46.079  21.033  -6.206  1.00 44.33 LIG 0.04  C 
BRANCH 58 59
ATOM     59  CG  ARG E1022     -46.717  19.976  -7.098  1.00 47.73 LIG 0.02  C 
BRANCH 59 60
ATOM     60  CD  ARG E1022     -45.706  19.196  -7.912  1.00 47.87 LIG 0.14  C 
BRANCH 60 61
ATOM     61  NE  ARG E1022     -46.084  17.786  -7.993  1.00 55.98 LIG-0.23  N 
ATOM     62  CZ  ARG E1022     -45.257  16.758  -8.166  1.00 56.00 LIG 0.67  C 
ATOM     63  NH1 ARG E1022     -43.946  16.953  -8.257  1.00 48.69 LIG-0.23  N 
ATOM     64  NH2 ARG E1022     -45.731  15.522  -8.216  1.00 32.20 LIG-0.23  N 
ATOM     65 1HH1 ARG E1022     -43.626  17.750  -8.204  1.00 48.69 LIG 0.17  HD
ATOM     66 2HH1 ARG E1022     -43.419  16.284  -8.369  1.00 48.69 LIG 0.17  HD
ATOM     67 2HH2 ARG E1022     -45.194  14.860  -8.328  1.00 32.20 LIG 0.17  HD
ATOM     68 1HH2 ARG E1022     -46.576  15.382  -8.136  1.00 32.20 LIG 0.17  HD
ATOM     69 HE   ARG E1022     -46.922  17.603  -7.922  1.00 55.98 LIG 0.18  HD
ENDBRANCH 60 61
ENDBRANCH 59 60
ENDBRANCH 58 59
ENDBRANCH 47 58
ENDBRANCH 44 47
ENDBRANCH 42 43
BRANCH 42 70
ATOM     70  CB  ILE E1023     -45.386  23.916  -1.701  1.00 38.78 LIG 0.01  C 
ATOM     71  CG2 ILE E1023     -44.775  22.739  -0.926  1.00 39.01 LIG 0.01  C 
BRANCH 70 72
ATOM     72  CG1 ILE E1023     -44.483  24.334  -2.900  1.00 39.61 LIG 0.00  C 
ATOM     73  CD1 ILE E1023     -44.634  25.739  -3.427  1.00 43.21 LIG 0.01  C 
ENDBRANCH 70 72
ENDBRANCH 42 70
ENDBRANCH 1 42
TORSDOF 26
ENDMDL
MODEL 71
USER: ADFR SOLUTION from run 182
USER: SCORE 22.302084 LL:  -6.363 LR: -17.505 RR:   0.000 FEB:  -9.750
USER: RMSD 12.466622
USER: SEED 181
USER: STATUS no improvement in best in 14 clusters for 5 generations
USER: GENES 28
USER: genes 0 Translation |==|  0.46969 0.56153 0.52434
USER: genes 1 Rotation |==|  0.85062 0.83938 0.40263 0.54904
USER: genes 2 Torsion [N]-CA--C-[O] |==|  0.69171
USER: genes 3 Torsion [C]-N--CA-[CB] |==|  0.66020
USER: genes 4 Torsion [N]-CA--C-[N] |==|  0.31871
USER: genes 5 Torsion [C]-N--CA-[C] |==|  0.62225
USER: genes 6 Torsion [N]-CA--CB-[CG] |==|  0.03805
USER: genes 7 Torsion [CA]-CB--CG-[CD1] |==|  0.65899
USER: genes 8 Torsion [N]-CA--C-[N] |==|  0.91310
USER: genes 9 Torsion [C]-N--CA-[C] |==|  0.66109
USER: genes 10 Torsion [N]-CA--CB-[CG] |==|  0.13183
USER: genes 11 Torsion [CA]-CB--CG-[OD1] |==|  0.08672
USER: genes 12 Torsion [N]-CA--C-[O] |==|  0.13164
USER: genes 13 Torsion [N]-CA--CB-[CG2] |==|  0.11763
USER: genes 14 Torsion [CA]-CB--CG1-[CD1] |==|  0.16285
USER: genes 15 Torsion [N]-C--CA-[N] |==|  0.31690
USER: genes 16 Torsion [C]-CA--N-[C] |==|  0.56423
USER: genes 17 Torsion [N]-C--CA-[N] |==|  0.93226
USER: genes 18 Torsion [C]-CA--N-[C] |==|  0.65933
USER: genes 19 Torsion [N]-C--CA-[N] |==|  0.41468
USER: genes 20 Torsion [C]-CA--CB-[CG1] |==|  0.07531
USER: genes 21 Torsion [CA]-CB--CG1-[CD1] |==|  0.48439
USER: genes 22 Torsion [C]-CA--CB-[CG] |==|  0.24971
USER: genes 23 Torsion [CA]-CB--CG-[CD] |==|  0.64447
USER: genes 24 Torsion [CB]-CG--CD-[NE] |==|  0.64577
USER: genes 25 Torsion [CG]-CD--NE-[CZ] |==|  0.17595
USER: genes 26 Torsion [C]-CA--CB-[CG1] |==|  0.46762
USER: genes 27 Torsion [CA]-CB--CG1-[CD1] |==|  0.47913
ROOT
ATOM      1  C   ILE E1023     -48.811  26.461   1.152  1.00 40.02 LIG 0.24  C 
ATOM      2 O    ILE E1023     -47.573  26.526   1.201  1.00 38.38 LIG-0.27  OA
ATOM      3  N   PRO E1024     -49.479  25.327   0.819  1.00 37.38 LIG-0.34  N 
ATOM      4  CA  PRO E1024     -48.723  24.153   0.361  1.00 36.67 LIG 0.18  C 
ATOM      5  CB  PRO E1024     -49.742  23.019   0.443  1.00 38.74 LIG 0.04  C 
ATOM      6  CG  PRO E1024     -51.057  23.675   0.253  1.00 43.33 LIG 0.02  C 
ATOM      7  CD  PRO E1024     -50.939  25.099   0.716  1.00 39.42 LIG 0.13  C 
ENDROOT
BRANCH 4 8
ATOM      8  C   PRO E1024     -48.253  24.395  -1.068  1.00 39.60 LIG 0.24  C 
ATOM      9 O    PRO E1024     -48.748  23.735  -1.980  1.00 37.18 LIG-0.27  OA
ATOM     10  N   ILE E1025     -47.332  25.363  -1.251  1.00 37.20 LIG-0.35  N 
ATOM     11 H    ILE E1025     -47.015  25.811  -0.590  1.00 37.20 LIG 0.16  HD
BRANCH 10 12
ATOM     12  CA  ILE E1025     -46.752  25.787  -2.533  1.00 37.42 LIG 0.18  C 
BRANCH 12 13
ATOM     13  C   ILE E1025     -47.198  24.860  -3.662  1.00 40.88 LIG 0.24  C 
ATOM     14 O    ILE E1025     -46.680  23.746  -3.758  1.00 40.29 LIG-0.27  OA
ATOM     15  N   PHE E1026     -47.976  25.379  -4.632  1.00 36.23 LIG-0.35  N 
ATOM     16 H    PHE E1026     -48.361  26.146  -4.586  1.00 36.23 LIG 0.16  HD
BRANCH 15 17
ATOM     17  CA  PHE E1026     -48.227  24.640  -5.877  1.00 36.58 LIG 0.18  C 
BRANCH 17 18
ATOM     18  CB  PHE E1026     -49.594  23.964  -5.865  1.00 38.58 LIG 0.07  C 
BRANCH 18 19
ATOM     19  CG  PHE E1026     -50.475  24.470  -4.760  1.00 40.24 LIG-0.06  A 
ATOM     20  CD1 PHE E1026     -50.999  23.604  -3.826  1.00 42.20 LIG 0.01  A 
ATOM     21  CE1 PHE E1026     -51.820  24.071  -2.814  1.00 42.54 LIG 0.00  A 
ATOM     22  CZ  PHE E1026     -52.120  25.405  -2.731  1.00 41.81 LIG 0.00  A 
ATOM     23  CE2 PHE E1026     -51.617  26.283  -3.653  1.00 44.36 LIG 0.00  A 
ATOM     24  CD2 PHE E1026     -50.799  25.818  -4.670  1.00 42.30 LIG 0.01  A 
ENDBRANCH 18 19
ENDBRANCH 17 18
BRANCH 17 25
ATOM     25  C   PHE E1026     -48.110  25.556  -7.082  1.00 38.60 LIG 0.24  C 
ATOM     26  N   ASN E1027     -48.460  26.851  -6.881  1.00 38.80 LIG-0.35  N 
ATOM     27 H    ASN E1027     -48.755  27.137  -6.125  1.00 38.80 LIG 0.16  HD
ATOM     28 O    PHE E1026     -47.659  25.121  -8.139  1.00 31.59 LIG-0.27  OA
BRANCH 26 29
ATOM     29  CA  ASN E1027     -48.384  27.904  -7.900  1.00 74.37 LIG 0.17  C 
BRANCH 29 30
ATOM     30  CB  ASN E1027     -49.774  28.452  -8.203  1.00 75.17 LIG 0.14  C 
BRANCH 30 31
ATOM     31  CG  ASN E1027     -50.570  28.774  -6.963  1.00 99.64 LIG 0.22  C 
ATOM     32  ND2 ASN E1027     -51.892  28.649  -7.029  1.00 92.55 LIG-0.37  N 
ATOM     33 22HD ASN E1027     -52.263  28.386  -7.759  1.00 92.55 LIG 0.16  HD
ATOM     34 21HD ASN E1027     -52.377  28.831  -6.342  1.00 92.55 LIG 0.16  HD
ATOM     35 OD1  ASN E1027     -50.009  29.149  -5.931  1.00 94.01 LIG-0.27  OA
ENDBRANCH 30 31
ENDBRANCH 29 30
BRANCH 29 36
ATOM     36  C   ASN E1027     -47.485  29.041  -7.418  1.00103.37 LIG 0.22  C 
ATOM     37 O    ASN E1027     -46.387  28.798  -6.925  1.00 69.20 LIG-0.29  OA
ENDBRANCH 29 36
ENDBRANCH 26 29
ENDBRANCH 17 25
ENDBRANCH 15 17
ENDBRANCH 12 13
BRANCH 12 38
ATOM     38  CB  ILE E1025     -45.172  25.618  -2.448  1.00 40.50 LIG 0.01  C 
ATOM     39  CG2 ILE E1025     -44.776  24.303  -1.762  1.00 43.95 LIG 0.01  C 
BRANCH 38 40
ATOM     40  CG1 ILE E1025     -44.477  25.756  -3.802  1.00 41.58 LIG 0.00  C 
ATOM     41  CD1 ILE E1025     -44.758  27.192  -4.510  1.00 52.05 LIG 0.01  C 
ENDBRANCH 38 40
ENDBRANCH 12 38
ENDBRANCH 10 12
ENDBRANCH 4 8
BRANCH 1 42
ATOM     42  CA  ILE E1023     -49.615  27.675   1.580  1.00 36.06 LIG 0.18  C 
BRANCH 42 43
ATOM     43  N   ILE E1023     -49.294  27.918   2.999  1.00 37.96 LIG-0.35  N 
ATOM     44  C   ARG E1022     -50.115  28.592   3.833  1.00 45.42 LIG 0.24  C 
ATOM     45 O    ARG E1022     -51.160  29.126   3.461  1.00 45.23 LIG-0.27  OA
ATOM     46 H    ILE E1023     -48.537  27.591   3.245  1.00 37.96 LIG 0.16  HD
BRANCH 44 47
ATOM     47  CA  ARG E1022     -49.690  28.764   5.291  1.00 45.59 LIG 0.18  C 
BRANCH 47 48
ATOM     48  N   ARG E1022     -48.750  27.725   5.747  1.00 48.30 LIG-0.35  N 
ATOM     49 H    ARG E1022     -48.028  27.671   5.284  1.00 48.30 LIG 0.16  HD
ATOM     50  C   ILE E1021     -49.025  26.937   6.810  1.00 57.51 LIG 0.26  C 
ATOM     51 O    ILE E1021     -50.070  27.037   7.465  1.00 59.03 LIG-0.27  OA
BRANCH 50 52
ATOM     52  CA  ILE E1021     -47.981  25.885   7.221  1.00 57.59 LIG 0.40  C 
ATOM     53  N   ILE E1021     -48.062  25.685   8.665  1.00 58.96 LIG 0.61  N 
BRANCH 52 54
ATOM     54  CB  ILE E1021     -48.224  24.503   6.552  1.00 60.58 LIG 0.03  C 
ATOM     55  CG2 ILE E1021     -48.972  23.530   7.458  1.00 61.37 LIG 0.01  C 
BRANCH 54 56
ATOM     56  CG1 ILE E1021     -48.963  24.674   5.202  1.00 60.59 LIG 0.00  C 
ATOM     57  CD1 ILE E1021     -49.103  23.399   4.458  1.00 60.15 LIG 0.01  C 
ENDBRANCH 54 56
ENDBRANCH 52 54
ENDBRANCH 50 52
ENDBRANCH 47 48
BRANCH 47 58
ATOM     58  CB  ARG E1022     -49.116  30.174   5.471  1.00 44.33 LIG 0.04  C 
BRANCH 58 59
ATOM     59  CG  ARG E1022     -50.169  31.206   5.855  1.00 47.73 LIG 0.02  C 
BRANCH 59 60
ATOM     60  CD  ARG E1022     -50.159  32.427   4.959  1.00 47.87 LIG 0.14  C 
BRANCH 60 61
ATOM     61  NE  ARG E1022     -50.073  33.651   5.754  1.00 55.98 LIG-0.23  N 
ATOM     62  CZ  ARG E1022     -49.062  34.007   6.542  1.00 56.00 LIG 0.67  C 
ATOM     63  NH1 ARG E1022     -47.983  33.238   6.647  1.00 48.69 LIG-0.23  N 
ATOM     64  NH2 ARG E1022     -49.106  35.151   7.208  1.00 32.20 LIG-0.23  N 
ATOM     65 1HH1 ARG E1022     -47.934  32.503   6.203  1.00 48.69 LIG 0.17  HD
ATOM     66 2HH1 ARG E1022     -47.334  33.476   7.159  1.00 48.69 LIG 0.17  HD
ATOM     67 2HH2 ARG E1022     -48.451  35.378   7.716  1.00 32.20 LIG 0.17  HD
ATOM     68 1HH2 ARG E1022     -49.790  35.667   7.131  1.00 32.20 LIG 0.17  HD
ATOM     69 HE   ARG E1022     -50.739  34.193   5.708  1.00 55.98 LIG 0.18  HD
ENDBRANCH 60 61
ENDBRANCH 59 60
ENDBRANCH 58 59
ENDBRANCH 47 58
ENDBRANCH 44 47
ENDBRANCH 42 43
BRANCH 42 70
ATOM     70  CB  ILE E1023     -49.260  28.886   0.655  1.00 38.78 LIG 0.01  C 
ATOM     71  CG2 ILE E1023     -49.167  28.439  -0.812  1.00 39.01 LIG 0.01  C 
BRANCH 70 72
ATOM     72  CG1 ILE E1023     -50.230  30.094   0.818  1.00 39.61 LIG 0.00  C 
ATOM     73  CD1 ILE E1023     -49.873  31.373   0.100  1.00 43.21 LIG 0.01  C 
ENDBRANCH 70 72
ENDBRANCH 42 70
ENDBRANCH 1 42
TORSDOF 26
ENDMDL
MODEL 72
USER: ADFR SOLUTION from run 111
USER: SCORE 21.338992 LL:  -4.951 LR: -17.501 RR:   0.000 FEB:  -9.745
USER: RMSD 12.980051
USER: SEED 110
USER: STATUS no improvement in best in 3 clusters for 5 generations
USER: GENES 28
USER: genes 0 Translation |==|  0.52510 0.58483 0.50622
USER: genes 1 Rotation |==|  0.82515 0.86840 0.47473 0.58901
USER: genes 2 Torsion [N]-CA--C-[O] |==|  0.15481
USER: genes 3 Torsion [C]-N--CA-[CB] |==|  0.53334
USER: genes 4 Torsion [N]-CA--C-[N] |==|  0.37222
USER: genes 5 Torsion [C]-N--CA-[C] |==|  0.86553
USER: genes 6 Torsion [N]-CA--CB-[CG] |==|  0.43022
USER: genes 7 Torsion [CA]-CB--CG-[CD1] |==|  0.21504
USER: genes 8 Torsion [N]-CA--C-[N] |==|  0.37152
USER: genes 9 Torsion [C]-N--CA-[C] |==|  0.85526
USER: genes 10 Torsion [N]-CA--CB-[CG] |==|  0.84085
USER: genes 11 Torsion [CA]-CB--CG-[OD1] |==|  0.03890
USER: genes 12 Torsion [N]-CA--C-[O] |==|  0.72835
USER: genes 13 Torsion [N]-CA--CB-[CG2] |==|  0.52087
USER: genes 14 Torsion [CA]-CB--CG1-[CD1] |==|  0.91782
USER: genes 15 Torsion [N]-C--CA-[N] |==|  0.35511
USER: genes 16 Torsion [C]-CA--N-[C] |==|  0.54719
USER: genes 17 Torsion [N]-C--CA-[N] |==|  0.44565
USER: genes 18 Torsion [C]-CA--N-[C] |==|  0.55536
USER: genes 19 Torsion [N]-C--CA-[N] |==|  0.43497
USER: genes 20 Torsion [C]-CA--CB-[CG1] |==|  0.93076
USER: genes 21 Torsion [CA]-CB--CG1-[CD1] |==|  0.77703
USER: genes 22 Torsion [C]-CA--CB-[CG] |==|  0.39576
USER: genes 23 Torsion [CA]-CB--CG-[CD] |==|  0.54446
USER: genes 24 Torsion [CB]-CG--CD-[NE] |==|  0.14757
USER: genes 25 Torsion [CG]-CD--NE-[CZ] |==|  0.53694
USER: genes 26 Torsion [C]-CA--CB-[CG1] |==|  0.77195
USER: genes 27 Torsion [CA]-CB--CG1-[CD1] |==|  0.68003
ROOT
ATOM      1  C   ILE E1023     -47.979  27.002   0.635  1.00 40.02 LIG 0.24  C 
ATOM      2 O    ILE E1023     -46.845  27.299   1.039  1.00 38.38 LIG-0.27  OA
ATOM      3  N   PRO E1024     -48.269  25.812   0.053  1.00 37.38 LIG-0.34  N 
ATOM      4  CA  PRO E1024     -47.180  24.871  -0.247  1.00 36.67 LIG 0.18  C 
ATOM      5  CB  PRO E1024     -47.909  23.561  -0.533  1.00 38.74 LIG 0.04  C 
ATOM      6  CG  PRO E1024     -49.238  23.969  -1.046  1.00 43.33 LIG 0.02  C 
ATOM      7  CD  PRO E1024     -49.563  25.320  -0.476  1.00 39.42 LIG 0.13  C 
ENDROOT
BRANCH 4 8
ATOM      8  C   PRO E1024     -46.414  25.375  -1.464  1.00 39.60 LIG 0.24  C 
ATOM      9 O    PRO E1024     -45.940  26.510  -1.444  1.00 37.18 LIG-0.27  OA
ATOM     10  N   ILE E1025     -46.270  24.514  -2.492  1.00 37.20 LIG-0.35  N 
ATOM     11 H    ILE E1025     -46.608  23.724  -2.467  1.00 37.20 LIG 0.16  HD
BRANCH 10 12
ATOM     12  CA  ILE E1025     -45.555  24.768  -3.751  1.00 37.42 LIG 0.18  C 
BRANCH 12 13
ATOM     13  C   ILE E1025     -46.056  26.052  -4.408  1.00 40.88 LIG 0.24  C 
ATOM     14 O    ILE E1025     -47.255  26.159  -4.669  1.00 40.29 LIG-0.27  OA
ATOM     15  N   PHE E1026     -45.137  26.920  -4.876  1.00 36.23 LIG-0.35  N 
ATOM     16 H    PHE E1026     -44.297  26.878  -4.699  1.00 36.23 LIG 0.16  HD
BRANCH 15 17
ATOM     17  CA  PHE E1026     -45.525  28.036  -5.749  1.00 36.58 LIG 0.18  C 
BRANCH 17 18
ATOM     18  CB  PHE E1026     -44.307  28.756  -6.318  1.00 38.58 LIG 0.07  C 
BRANCH 18 19
ATOM     19  CG  PHE E1026     -44.606  29.454  -7.612  1.00 40.24 LIG-0.06  A 
ATOM     20  CD1 PHE E1026     -45.283  30.655  -7.623  1.00 42.20 LIG 0.01  A 
ATOM     21  CE1 PHE E1026     -45.568  31.292  -8.818  1.00 42.54 LIG 0.00  A 
ATOM     22  CZ  PHE E1026     -45.177  30.734 -10.007  1.00 41.81 LIG 0.00  A 
ATOM     23  CE2 PHE E1026     -44.510  29.538 -10.021  1.00 44.36 LIG 0.00  A 
ATOM     24  CD2 PHE E1026     -44.228  28.894  -8.826  1.00 42.30 LIG 0.01  A 
ENDBRANCH 18 19
ENDBRANCH 17 18
BRANCH 17 25
ATOM     25  C   PHE E1026     -46.419  27.554  -6.877  1.00 38.60 LIG 0.24  C 
ATOM     26  N   ASN E1027     -47.529  28.297  -7.116  1.00 38.80 LIG-0.35  N 
ATOM     27 H    ASN E1027     -47.732  28.986  -6.644  1.00 38.80 LIG 0.16  HD
ATOM     28 O    PHE E1026     -46.083  26.581  -7.549  1.00 31.59 LIG-0.27  OA
BRANCH 26 29
ATOM     29  CA  ASN E1027     -48.500  28.027  -8.183  1.00 74.37 LIG 0.17  C 
BRANCH 29 30
ATOM     30  CB  ASN E1027     -49.522  29.155  -8.268  1.00 75.17 LIG 0.14  C 
BRANCH 30 31
ATOM     31  CG  ASN E1027     -50.260  29.387  -6.973  1.00 99.64 LIG 0.22  C 
ATOM     32  ND2 ASN E1027     -51.350  30.148  -7.013  1.00 92.55 LIG-0.37  N 
ATOM     33 22HD ASN E1027     -51.614  30.482  -7.760  1.00 92.55 LIG 0.16  HD
ATOM     34 21HD ASN E1027     -51.791  30.306  -6.292  1.00 92.55 LIG 0.16  HD
ATOM     35 OD1  ASN E1027     -49.858  28.893  -5.918  1.00 94.01 LIG-0.27  OA
ENDBRANCH 30 31
ENDBRANCH 29 30
BRANCH 29 36
ATOM     36  C   ASN E1027     -47.783  27.889  -9.525  1.00103.37 LIG 0.22  C 
ATOM     37 O    ASN E1027     -47.726  28.841 -10.298  1.00 69.20 LIG-0.29  OA
ENDBRANCH 29 36
ENDBRANCH 26 29
ENDBRANCH 17 25
ENDBRANCH 15 17
ENDBRANCH 12 13
BRANCH 12 38
ATOM     38  CB  ILE E1025     -45.912  23.602  -4.773  1.00 40.50 LIG 0.01  C 
ATOM     39  CG2 ILE E1025     -45.066  23.686  -6.051  1.00 43.95 LIG 0.01  C 
BRANCH 38 40
ATOM     40  CG1 ILE E1025     -45.824  22.208  -4.153  1.00 41.58 LIG 0.00  C 
ATOM     41  CD1 ILE E1025     -44.725  22.121  -2.958  1.00 52.05 LIG 0.01  C 
ENDBRANCH 38 40
ENDBRANCH 12 38
ENDBRANCH 10 12
ENDBRANCH 4 8
BRANCH 1 42
ATOM     42  CA  ILE E1023     -49.115  27.976   0.895  1.00 36.06 LIG 0.18  C 
BRANCH 42 43
ATOM     43  N   ILE E1023     -49.030  28.358   2.318  1.00 37.96 LIG-0.35  N 
ATOM     44  C   ARG E1022     -50.051  28.937   2.984  1.00 45.42 LIG 0.24  C 
ATOM     45 O    ARG E1022     -51.108  29.264   2.444  1.00 45.23 LIG-0.27  OA
ATOM     46 H    ILE E1023     -48.271  28.178   2.680  1.00 37.96 LIG 0.16  HD
BRANCH 44 47
ATOM     47  CA  ARG E1022     -49.859  29.268   4.465  1.00 45.59 LIG 0.18  C 
BRANCH 47 48
ATOM     48  N   ARG E1022     -50.811  30.275   4.962  1.00 48.30 LIG-0.35  N 
ATOM     49 H    ARG E1022     -51.516  30.366   4.479  1.00 48.30 LIG 0.16  HD
ATOM     50  C   ILE E1021     -50.571  30.984   6.088  1.00 57.51 LIG 0.26  C 
ATOM     51 O    ILE E1021     -49.549  30.832   6.769  1.00 59.03 LIG-0.27  OA
BRANCH 50 52
ATOM     52  CA  ILE E1021     -51.625  32.008   6.538  1.00 57.59 LIG 0.40  C 
ATOM     53  N   ILE E1021     -51.476  32.234   7.972  1.00 58.96 LIG 0.61  N 
BRANCH 52 54
ATOM     54  CB  ILE E1021     -51.462  33.386   5.837  1.00 60.58 LIG 0.03  C 
ATOM     55  CG2 ILE E1021     -51.924  34.552   6.707  1.00 61.37 LIG 0.01  C 
BRANCH 54 56
ATOM     56  CG1 ILE E1021     -49.998  33.593   5.375  1.00 60.59 LIG 0.00  C 
ATOM     57  CD1 ILE E1021     -49.106  34.030   6.476  1.00 60.15 LIG 0.01  C 
ENDBRANCH 54 56
ENDBRANCH 52 54
ENDBRANCH 50 52
ENDBRANCH 47 48
BRANCH 47 58
ATOM     58  CB  ARG E1022     -49.931  27.965   5.271  1.00 44.33 LIG 0.04  C 
BRANCH 58 59
ATOM     59  CG  ARG E1022     -48.951  27.927   6.437  1.00 47.73 LIG 0.02  C 
BRANCH 59 60
ATOM     60  CD  ARG E1022     -48.739  26.532   6.990  1.00 47.87 LIG 0.14  C 
BRANCH 60 61
ATOM     61  NE  ARG E1022     -48.365  25.605   5.923  1.00 55.98 LIG-0.23  N 
ATOM     62  CZ  ARG E1022     -48.347  24.277   6.006  1.00 56.00 LIG 0.67  C 
ATOM     63  NH1 ARG E1022     -48.715  23.665   7.126  1.00 48.69 LIG-0.23  N 
ATOM     64  NH2 ARG E1022     -47.992  23.549   4.958  1.00 32.20 LIG-0.23  N 
ATOM     65 1HH1 ARG E1022     -48.968  24.127   7.805  1.00 48.69 LIG 0.17  HD
ATOM     66 2HH1 ARG E1022     -48.700  22.806   7.171  1.00 48.69 LIG 0.17  HD
ATOM     67 2HH2 ARG E1022     -47.981  22.691   5.015  1.00 32.20 LIG 0.17  HD
ATOM     68 1HH2 ARG E1022     -47.772  23.934   4.221  1.00 32.20 LIG 0.17  HD
ATOM     69 HE   ARG E1022     -48.134  25.951   5.170  1.00 55.98 LIG 0.18  HD
ENDBRANCH 60 61
ENDBRANCH 59 60
ENDBRANCH 58 59
ENDBRANCH 47 58
ENDBRANCH 44 47
ENDBRANCH 42 43
BRANCH 42 70
ATOM     70  CB  ILE E1023     -48.986  29.196  -0.077  1.00 38.78 LIG 0.01  C 
ATOM     71  CG2 ILE E1023     -50.364  29.811  -0.361  1.00 39.01 LIG 0.01  C 
BRANCH 70 72
ATOM     72  CG1 ILE E1023     -47.975  30.274   0.416  1.00 39.61 LIG 0.00  C 
ATOM     73  CD1 ILE E1023     -48.526  31.635   0.764  1.00 43.21 LIG 0.01  C 
ENDBRANCH 70 72
ENDBRANCH 42 70
ENDBRANCH 1 42
TORSDOF 26
ENDMDL
MODEL 73
USER: ADFR SOLUTION from run 24
USER: SCORE 23.352730 LL:  -6.747 LR: -17.493 RR:   0.000 FEB:  -9.738
USER: RMSD 2.984820
USER: SEED 23
USER: STATUS no improvement in best in 11 clusters for 5 generations
USER: GENES 28
USER: genes 0 Translation |==|  0.50670 0.45993 0.39775
USER: genes 1 Rotation |==|  0.45700 0.42570 0.44816 0.98984
USER: genes 2 Torsion [N]-CA--C-[O] |==|  0.90501
USER: genes 3 Torsion [C]-N--CA-[CB] |==|  0.51587
USER: genes 4 Torsion [N]-CA--C-[N] |==|  0.38617
USER: genes 5 Torsion [C]-N--CA-[C] |==|  0.63790
USER: genes 6 Torsion [N]-CA--CB-[CG] |==|  0.87523
USER: genes 7 Torsion [CA]-CB--CG-[CD1] |==|  0.32584
USER: genes 8 Torsion [N]-CA--C-[N] |==|  0.35390
USER: genes 9 Torsion [C]-N--CA-[C] |==|  0.23820
USER: genes 10 Torsion [N]-CA--CB-[CG] |==|  0.83496
USER: genes 11 Torsion [CA]-CB--CG-[OD1] |==|  0.87882
USER: genes 12 Torsion [N]-CA--C-[O] |==|  0.06359
USER: genes 13 Torsion [N]-CA--CB-[CG2] |==|  0.37873
USER: genes 14 Torsion [CA]-CB--CG1-[CD1] |==|  0.97936
USER: genes 15 Torsion [N]-C--CA-[N] |==|  0.37978
USER: genes 16 Torsion [C]-CA--N-[C] |==|  0.75515
USER: genes 17 Torsion [N]-C--CA-[N] |==|  0.89608
USER: genes 18 Torsion [C]-CA--N-[C] |==|  0.82230
USER: genes 19 Torsion [N]-C--CA-[N] |==|  0.51354
USER: genes 20 Torsion [C]-CA--CB-[CG1] |==|  0.93096
USER: genes 21 Torsion [CA]-CB--CG1-[CD1] |==|  0.42187
USER: genes 22 Torsion [C]-CA--CB-[CG] |==|  0.14793
USER: genes 23 Torsion [CA]-CB--CG-[CD] |==|  0.31889
USER: genes 24 Torsion [CB]-CG--CD-[NE] |==|  0.41752
USER: genes 25 Torsion [CG]-CD--NE-[CZ] |==|  0.72454
USER: genes 26 Torsion [C]-CA--CB-[CG1] |==|  0.99811
USER: genes 27 Torsion [CA]-CB--CG1-[CD1] |==|  0.73685
ROOT
ATOM      1  C   ILE E1023     -48.256  24.098  -2.456  1.00 40.02 LIG 0.24  C 
ATOM      2 O    ILE E1023     -47.871  25.213  -2.840  1.00 38.38 LIG-0.27  OA
ATOM      3  N   PRO E1024     -49.457  23.896  -1.859  1.00 37.38 LIG-0.34  N 
ATOM      4  CA  PRO E1024     -50.297  25.053  -1.518  1.00 36.67 LIG 0.18  C 
ATOM      5  CB  PRO E1024     -51.659  24.430  -1.225  1.00 38.74 LIG 0.04  C 
ATOM      6  CG  PRO E1024     -51.357  23.060  -0.749  1.00 43.33 LIG 0.02  C 
ATOM      7  CD  PRO E1024     -50.048  22.636  -1.350  1.00 39.42 LIG 0.13  C 
ENDROOT
BRANCH 4 8
ATOM      8  C   PRO E1024     -49.711  25.745  -0.294  1.00 39.60 LIG 0.24  C 
ATOM      9 O    PRO E1024     -49.164  25.065   0.573  1.00 37.18 LIG-0.27  OA
ATOM     10  N   ILE E1025     -49.799  27.090  -0.253  1.00 37.20 LIG-0.35  N 
ATOM     11 H    ILE E1025     -50.182  27.534  -0.882  1.00 37.20 LIG 0.16  HD
BRANCH 10 12
ATOM     12  CA  ILE E1025     -49.288  27.968   0.809  1.00 37.42 LIG 0.18  C 
BRANCH 12 13
ATOM     13  C   ILE E1025     -49.923  27.618   2.153  1.00 40.88 LIG 0.24  C 
ATOM     14 O    ILE E1025     -51.150  27.546   2.231  1.00 40.29 LIG-0.27  OA
ATOM     15  N   PHE E1026     -49.130  27.620   3.243  1.00 36.23 LIG-0.35  N 
ATOM     16 H    PHE E1026     -48.271  27.655   3.217  1.00 36.23 LIG 0.16  HD
BRANCH 15 17
ATOM     17  CA  PHE E1026     -49.702  27.559   4.595  1.00 36.58 LIG 0.18  C 
BRANCH 17 18
ATOM     18  CB  PHE E1026     -49.495  26.188   5.232  1.00 38.58 LIG 0.07  C 
BRANCH 18 19
ATOM     19  CG  PHE E1026     -49.804  25.064   4.289  1.00 40.24 LIG-0.06  A 
ATOM     20  CD1 PHE E1026     -48.822  24.176   3.906  1.00 42.20 LIG 0.01  A 
ATOM     21  CE1 PHE E1026     -49.106  23.145   3.027  1.00 42.54 LIG 0.00  A 
ATOM     22  CZ  PHE E1026     -50.373  22.997   2.526  1.00 41.81 LIG 0.00  A 
ATOM     23  CE2 PHE E1026     -51.363  23.871   2.887  1.00 44.36 LIG 0.00  A 
ATOM     24  CD2 PHE E1026     -51.081  24.908   3.763  1.00 42.30 LIG 0.01  A 
ENDBRANCH 18 19
ENDBRANCH 17 18
BRANCH 17 25
ATOM     25  C   PHE E1026     -49.112  28.640   5.481  1.00 38.60 LIG 0.24  C 
ATOM     26  N   ASN E1027     -50.003  29.437   6.122  1.00 38.80 LIG-0.35  N 
ATOM     27 H    ASN E1027     -50.853  29.354   6.017  1.00 38.80 LIG 0.16  HD
ATOM     28 O    PHE E1026     -47.894  28.710   5.630  1.00 31.59 LIG-0.27  OA
BRANCH 26 29
ATOM     29  CA  ASN E1027     -49.642  30.512   7.053  1.00 74.37 LIG 0.17  C 
BRANCH 29 30
ATOM     30  CB  ASN E1027     -48.405  30.126   7.857  1.00 75.17 LIG 0.14  C 
BRANCH 30 31
ATOM     31  CG  ASN E1027     -48.592  28.867   8.667  1.00 99.64 LIG 0.22  C 
ATOM     32  ND2 ASN E1027     -47.606  27.975   8.657  1.00 92.55 LIG-0.37  N 
ATOM     33 22HD ASN E1027     -46.892  28.130   8.204  1.00 92.55 LIG 0.16  HD
ATOM     34 21HD ASN E1027     -47.683  27.243   9.102  1.00 92.55 LIG 0.16  HD
ATOM     35 OD1  ASN E1027     -49.628  28.675   9.307  1.00 94.01 LIG-0.27  OA
ENDBRANCH 30 31
ENDBRANCH 29 30
BRANCH 29 36
ATOM     36  C   ASN E1027     -49.364  31.803   6.285  1.00103.37 LIG 0.22  C 
ATOM     37 O    ASN E1027     -49.839  31.973   5.165  1.00 69.20 LIG-0.29  OA
ENDBRANCH 29 36
ENDBRANCH 26 29
ENDBRANCH 17 25
ENDBRANCH 15 17
ENDBRANCH 12 13
BRANCH 12 38
ATOM     38  CB  ILE E1025     -49.755  29.457   0.496  1.00 40.50 LIG 0.01  C 
ATOM     39  CG2 ILE E1025     -50.266  30.170   1.755  1.00 43.95 LIG 0.01  C 
BRANCH 38 40
ATOM     40  CG1 ILE E1025     -48.682  30.291  -0.204  1.00 41.58 LIG 0.00  C 
ATOM     41  CD1 ILE E1025     -47.250  29.526  -0.293  1.00 52.05 LIG 0.01  C 
ENDBRANCH 38 40
ENDBRANCH 12 38
ENDBRANCH 10 12
ENDBRANCH 4 8
BRANCH 1 42
ATOM     42  CA  ILE E1023     -47.385  22.891  -2.758  1.00 36.06 LIG 0.18  C 
BRANCH 42 43
ATOM     43  N   ILE E1023     -46.844  23.088  -4.117  1.00 37.96 LIG-0.35  N 
ATOM     44  C   ARG E1022     -47.490  22.681  -5.230  1.00 45.42 LIG 0.24  C 
ATOM     45 O    ARG E1022     -48.544  22.044  -5.202  1.00 45.23 LIG-0.27  OA
ATOM     46 H    ILE E1023     -46.082  23.486  -4.133  1.00 37.96 LIG 0.16  HD
BRANCH 44 47
ATOM     47  CA  ARG E1022     -46.846  22.959  -6.589  1.00 45.59 LIG 0.18  C 
BRANCH 47 48
ATOM     48  N   ARG E1022     -46.163  24.262  -6.650  1.00 48.30 LIG-0.35  N 
ATOM     49 H    ARG E1022     -45.313  24.213  -6.770  1.00 48.30 LIG 0.16  HD
ATOM     50  C   ILE E1021     -46.840  25.425  -6.525  1.00 57.51 LIG 0.26  C 
ATOM     51 O    ILE E1021     -48.066  25.471  -6.356  1.00 59.03 LIG-0.27  OA
BRANCH 50 52
ATOM     52  CA  ILE E1021     -46.046  26.739  -6.610  1.00 57.59 LIG 0.40  C 
ATOM     53  N   ILE E1021     -46.951  27.851  -6.335  1.00 58.96 LIG 0.61  N 
BRANCH 52 54
ATOM     54  CB  ILE E1021     -44.895  26.815  -5.568  1.00 60.58 LIG 0.03  C 
ATOM     55  CG2 ILE E1021     -44.599  28.243  -5.116  1.00 61.37 LIG 0.01  C 
BRANCH 54 56
ATOM     56  CG1 ILE E1021     -45.200  25.906  -4.352  1.00 60.59 LIG 0.00  C 
ATOM     57  CD1 ILE E1021     -43.972  25.408  -3.687  1.00 60.15 LIG 0.01  C 
ENDBRANCH 54 56
ENDBRANCH 52 54
ENDBRANCH 50 52
ENDBRANCH 47 48
BRANCH 47 58
ATOM     58  CB  ARG E1022     -45.900  21.801  -6.928  1.00 44.33 LIG 0.04  C 
BRANCH 58 59
ATOM     59  CG  ARG E1022     -46.572  20.435  -6.848  1.00 47.73 LIG 0.02  C 
BRANCH 59 60
ATOM     60  CD  ARG E1022     -46.659  19.736  -8.189  1.00 47.87 LIG 0.14  C 
BRANCH 60 61
ATOM     61  NE  ARG E1022     -46.627  18.285  -8.017  1.00 55.98 LIG-0.23  N 
ATOM     62  CZ  ARG E1022     -45.565  17.498  -8.170  1.00 56.00 LIG 0.67  C 
ATOM     63  NH1 ARG E1022     -44.382  18.013  -8.485  1.00 48.69 LIG-0.23  N 
ATOM     64  NH2 ARG E1022     -45.670  16.191  -7.978  1.00 32.20 LIG-0.23  N 
ATOM     65 1HH1 ARG E1022     -44.297  18.862  -8.591  1.00 48.69 LIG 0.17  HD
ATOM     66 2HH1 ARG E1022     -43.701  17.498  -8.582  1.00 48.69 LIG 0.17  HD
ATOM     67 2HH2 ARG E1022     -44.982  15.686  -8.078  1.00 32.20 LIG 0.17  HD
ATOM     68 1HH2 ARG E1022     -46.427  15.849  -7.753  1.00 32.20 LIG 0.17  HD
ATOM     69 HE   ARG E1022     -47.365  17.903  -7.796  1.00 55.98 LIG 0.18  HD
ENDBRANCH 60 61
ENDBRANCH 59 60
ENDBRANCH 58 59
ENDBRANCH 47 58
ENDBRANCH 44 47
ENDBRANCH 42 43
BRANCH 42 70
ATOM     70  CB  ILE E1023     -46.272  22.767  -1.666  1.00 38.78 LIG 0.01  C 
ATOM     71  CG2 ILE E1023     -44.882  22.688  -2.316  1.00 39.01 LIG 0.01  C 
BRANCH 70 72
ATOM     72  CG1 ILE E1023     -46.332  23.893  -0.591  1.00 39.61 LIG 0.00  C 
ATOM     73  CD1 ILE E1023     -45.458  25.104  -0.804  1.00 43.21 LIG 0.01  C 
ENDBRANCH 70 72
ENDBRANCH 42 70
ENDBRANCH 1 42
TORSDOF 26
ENDMDL
MODEL 74
USER: ADFR SOLUTION from run 26
USER: SCORE 21.246377 LL:  -5.047 LR: -17.478 RR:   0.000 FEB:  -9.722
USER: RMSD 13.156219
USER: SEED 25
USER: STATUS no improvement in best in 34 clusters for 5 generations
USER: GENES 28
USER: genes 0 Translation |==|  0.54407 0.57870 0.50627
USER: genes 1 Rotation |==|  0.84948 0.84936 0.44690 0.55468
USER: genes 2 Torsion [N]-CA--C-[O] |==|  0.11671
USER: genes 3 Torsion [C]-N--CA-[CB] |==|  0.56789
USER: genes 4 Torsion [N]-CA--C-[N] |==|  0.44601
USER: genes 5 Torsion [C]-N--CA-[C] |==|  0.89221
USER: genes 6 Torsion [N]-CA--CB-[CG] |==|  0.56872
USER: genes 7 Torsion [CA]-CB--CG-[CD1] |==|  0.62738
USER: genes 8 Torsion [N]-CA--C-[N] |==|  0.36557
USER: genes 9 Torsion [C]-N--CA-[C] |==|  0.19157
USER: genes 10 Torsion [N]-CA--CB-[CG] |==|  0.77240
USER: genes 11 Torsion [CA]-CB--CG-[OD1] |==|  0.23275
USER: genes 12 Torsion [N]-CA--C-[O] |==|  0.21259
USER: genes 13 Torsion [N]-CA--CB-[CG2] |==|  0.73716
USER: genes 14 Torsion [CA]-CB--CG1-[CD1] |==|  0.26590
USER: genes 15 Torsion [N]-C--CA-[N] |==|  0.28950
USER: genes 16 Torsion [C]-CA--N-[C] |==|  0.57778
USER: genes 17 Torsion [N]-C--CA-[N] |==|  0.88879
USER: genes 18 Torsion [C]-CA--N-[C] |==|  0.73905
USER: genes 19 Torsion [N]-C--CA-[N] |==|  0.79248
USER: genes 20 Torsion [C]-CA--CB-[CG1] |==|  0.46436
USER: genes 21 Torsion [CA]-CB--CG1-[CD1] |==|  0.77043
USER: genes 22 Torsion [C]-CA--CB-[CG] |==|  0.27163
USER: genes 23 Torsion [CA]-CB--CG-[CD] |==|  0.76544
USER: genes 24 Torsion [CB]-CG--CD-[NE] |==|  0.51215
USER: genes 25 Torsion [CG]-CD--NE-[CZ] |==|  0.25191
USER: genes 26 Torsion [C]-CA--CB-[CG1] |==|  0.41275
USER: genes 27 Torsion [CA]-CB--CG1-[CD1] |==|  0.45073
ROOT
ATOM      1  C   ILE E1023     -47.695  26.860   0.637  1.00 40.02 LIG 0.24  C 
ATOM      2 O    ILE E1023     -46.481  26.975   0.862  1.00 38.38 LIG-0.27  OA
ATOM      3  N   PRO E1024     -48.244  25.743   0.096  1.00 37.38 LIG-0.34  N 
ATOM      4  CA  PRO E1024     -47.366  24.664  -0.379  1.00 36.67 LIG 0.18  C 
ATOM      5  CB  PRO E1024     -48.317  23.484  -0.560  1.00 38.74 LIG 0.04  C 
ATOM      6  CG  PRO E1024     -49.632  24.098  -0.856  1.00 43.33 LIG 0.02  C 
ATOM      7  CD  PRO E1024     -49.662  25.463  -0.230  1.00 39.42 LIG 0.13  C 
ENDROOT
BRANCH 4 8
ATOM      8  C   PRO E1024     -46.728  25.090  -1.695  1.00 39.60 LIG 0.24  C 
ATOM      9 O    PRO E1024     -46.317  26.243  -1.816  1.00 37.18 LIG-0.27  OA
ATOM     10  N   ILE E1025     -46.620  24.146  -2.653  1.00 37.20 LIG-0.35  N 
ATOM     11 H    ILE E1025     -46.911  23.347  -2.530  1.00 37.20 LIG 0.16  HD
BRANCH 10 12
ATOM     12  CA  ILE E1025     -46.023  24.317  -3.985  1.00 37.42 LIG 0.18  C 
BRANCH 12 13
ATOM     13  C   ILE E1025     -46.410  25.668  -4.582  1.00 40.88 LIG 0.24  C 
ATOM     14 O    ILE E1025     -47.494  26.166  -4.275  1.00 40.29 LIG-0.27  OA
ATOM     15  N   PHE E1026     -45.652  26.153  -5.586  1.00 36.23 LIG-0.35  N 
ATOM     16 H    PHE E1026     -44.887  25.834  -5.813  1.00 36.23 LIG 0.16  HD
BRANCH 15 17
ATOM     17  CA  PHE E1026     -46.102  27.299  -6.387  1.00 36.58 LIG 0.18  C 
BRANCH 17 18
ATOM     18  CB  PHE E1026     -45.341  27.397  -7.706  1.00 38.58 LIG 0.07  C 
BRANCH 18 19
ATOM     19  CG  PHE E1026     -45.319  28.794  -8.253  1.00 40.24 LIG-0.06  A 
ATOM     20  CD1 PHE E1026     -45.587  29.033  -9.584  1.00 42.20 LIG 0.01  A 
ATOM     21  CE1 PHE E1026     -45.556  30.321 -10.090  1.00 42.54 LIG 0.00  A 
ATOM     22  CZ  PHE E1026     -45.258  31.376  -9.269  1.00 41.81 LIG 0.00  A 
ATOM     23  CE2 PHE E1026     -44.981  31.163  -7.945  1.00 44.36 LIG 0.00  A 
ATOM     24  CD2 PHE E1026     -45.006  29.873  -7.436  1.00 42.30 LIG 0.01  A 
ENDBRANCH 18 19
ENDBRANCH 17 18
BRANCH 17 25
ATOM     25  C   PHE E1026     -47.594  27.222  -6.653  1.00 38.60 LIG 0.24  C 
ATOM     26  N   ASN E1027     -48.301  28.354  -6.412  1.00 38.80 LIG-0.35  N 
ATOM     27 H    ASN E1027     -47.935  29.069  -6.103  1.00 38.80 LIG 0.16  HD
ATOM     28 O    PHE E1026     -48.079  26.193  -7.120  1.00 31.59 LIG-0.27  OA
BRANCH 26 29
ATOM     29  CA  ASN E1027     -49.743  28.502  -6.640  1.00 74.37 LIG 0.17  C 
BRANCH 29 30
ATOM     30  CB  ASN E1027     -50.103  28.072  -8.058  1.00 75.17 LIG 0.14  C 
BRANCH 30 31
ATOM     31  CG  ASN E1027     -49.855  29.148  -9.086  1.00 99.64 LIG 0.22  C 
ATOM     32  ND2 ASN E1027     -50.888  29.903  -9.449  1.00 92.55 LIG-0.37  N 
ATOM     33 22HD ASN E1027     -51.661  29.772  -9.096  1.00 92.55 LIG 0.16  HD
ATOM     34 21HD ASN E1027     -50.784  30.521 -10.038  1.00 92.55 LIG 0.16  HD
ATOM     35 OD1  ASN E1027     -48.735  29.312  -9.574  1.00 94.01 LIG-0.27  OA
ENDBRANCH 30 31
ENDBRANCH 29 30
BRANCH 29 36
ATOM     36  C   ASN E1027     -50.525  27.652  -5.639  1.00103.37 LIG 0.22  C 
ATOM     37 O    ASN E1027     -50.653  28.024  -4.476  1.00 69.20 LIG-0.29  OA
ENDBRANCH 29 36
ENDBRANCH 26 29
ENDBRANCH 17 25
ENDBRANCH 15 17
ENDBRANCH 12 13
BRANCH 12 38
ATOM     38  CB  ILE E1025     -46.653  23.228  -4.959  1.00 40.50 LIG 0.01  C 
ATOM     39  CG2 ILE E1025     -45.779  21.969  -5.047  1.00 43.95 LIG 0.01  C 
BRANCH 38 40
ATOM     40  CG1 ILE E1025     -48.095  22.866  -4.606  1.00 41.58 LIG 0.00  C 
ATOM     41  CD1 ILE E1025     -49.184  23.707  -5.471  1.00 52.05 LIG 0.01  C 
ENDBRANCH 38 40
ENDBRANCH 12 38
ENDBRANCH 10 12
ENDBRANCH 4 8
BRANCH 1 42
ATOM     42  CA  ILE E1023     -48.620  27.980   1.079  1.00 36.06 LIG 0.18  C 
BRANCH 42 43
ATOM     43  N   ILE E1023     -48.689  27.916   2.551  1.00 37.96 LIG-0.35  N 
ATOM     44  C   ARG E1022     -49.762  28.338   3.254  1.00 45.42 LIG 0.24  C 
ATOM     45 O    ARG E1022     -50.737  28.880   2.733  1.00 45.23 LIG-0.27  OA
ATOM     46 H    ILE E1023     -47.985  27.587   2.918  1.00 37.96 LIG 0.16  HD
BRANCH 44 47
ATOM     47  CA  ARG E1022     -49.734  28.202   4.777  1.00 45.59 LIG 0.18  C 
BRANCH 47 48
ATOM     48  N   ARG E1022     -49.130  26.940   5.235  1.00 48.30 LIG-0.35  N 
ATOM     49 H    ARG E1022     -48.274  26.963   5.312  1.00 48.30 LIG 0.16  HD
ATOM     50  C   ILE E1021     -49.882  25.850   5.505  1.00 57.51 LIG 0.26  C 
ATOM     51 O    ILE E1021     -51.115  25.843   5.391  1.00 59.03 LIG-0.27  OA
BRANCH 50 52
ATOM     52  CA  ILE E1021     -49.167  24.577   5.988  1.00 57.59 LIG 0.40  C 
ATOM     53  N   ILE E1021     -48.497  23.957   4.849  1.00 58.96 LIG 0.61  N 
BRANCH 52 54
ATOM     54  CB  ILE E1021     -48.078  24.868   7.058  1.00 60.58 LIG 0.03  C 
ATOM     55  CG2 ILE E1021     -48.528  25.889   8.099  1.00 61.37 LIG 0.01  C 
BRANCH 54 56
ATOM     56  CG1 ILE E1021     -47.618  23.555   7.738  1.00 60.59 LIG 0.00  C 
ATOM     57  CD1 ILE E1021     -48.524  23.129   8.832  1.00 60.15 LIG 0.01  C 
ENDBRANCH 54 56
ENDBRANCH 52 54
ENDBRANCH 50 52
ENDBRANCH 47 48
BRANCH 47 58
ATOM     58  CB  ARG E1022     -49.018  29.425   5.364  1.00 44.33 LIG 0.04  C 
BRANCH 58 59
ATOM     59  CG  ARG E1022     -49.977  30.505   5.850  1.00 47.73 LIG 0.02  C 
BRANCH 59 60
ATOM     60  CD  ARG E1022     -50.431  31.438   4.747  1.00 47.87 LIG 0.14  C 
BRANCH 60 61
ATOM     61  NE  ARG E1022     -51.264  32.511   5.288  1.00 55.98 LIG-0.23  N 
ATOM     62  CZ  ARG E1022     -50.839  33.696   5.717  1.00 56.00 LIG 0.67  C 
ATOM     63  NH1 ARG E1022     -49.550  34.015   5.656  1.00 48.69 LIG-0.23  N 
ATOM     64  NH2 ARG E1022     -51.702  34.586   6.181  1.00 32.20 LIG-0.23  N 
ATOM     65 1HH1 ARG E1022     -48.983  33.452   5.336  1.00 48.69 LIG 0.17  HD
ATOM     66 2HH1 ARG E1022     -49.284  34.783   5.935  1.00 48.69 LIG 0.17  HD
ATOM     67 2HH2 ARG E1022     -51.424  35.351   6.458  1.00 32.20 LIG 0.17  HD
ATOM     68 1HH2 ARG E1022     -52.542  34.399   6.206  1.00 32.20 LIG 0.17  HD
ATOM     69 HE   ARG E1022     -52.110  32.361   5.333  1.00 55.98 LIG 0.18  HD
ENDBRANCH 60 61
ENDBRANCH 59 60
ENDBRANCH 58 59
ENDBRANCH 47 58
ENDBRANCH 44 47
ENDBRANCH 42 43
BRANCH 42 70
ATOM     70  CB  ILE E1023     -48.072  29.346   0.549  1.00 38.78 LIG 0.01  C 
ATOM     71  CG2 ILE E1023     -47.159  29.129  -0.667  1.00 39.01 LIG 0.01  C 
BRANCH 70 72
ATOM     72  CG1 ILE E1023     -49.193  30.383   0.237  1.00 39.61 LIG 0.00  C 
ATOM     73  CD1 ILE E1023     -48.786  31.831   0.120  1.00 43.21 LIG 0.01  C 
ENDBRANCH 70 72
ENDBRANCH 42 70
ENDBRANCH 1 42
TORSDOF 26
ENDMDL
MODEL 75
USER: ADFR SOLUTION from run 137
USER: SCORE 23.003998 LL:  -6.836 LR: -17.480 RR:   0.000 FEB:  -9.724
USER: RMSD 5.384246
USER: SEED 136
USER: STATUS no improvement in best in 6 clusters for 5 generations
USER: GENES 28
USER: genes 0 Translation |==|  0.45343 0.57725 0.49819
USER: genes 1 Rotation |==|  0.53305 0.27525 0.09193 0.67853
USER: genes 2 Torsion [N]-CA--C-[O] |==|  0.69244
USER: genes 3 Torsion [C]-N--CA-[CB] |==|  0.49503
USER: genes 4 Torsion [N]-CA--C-[N] |==|  0.44745
USER: genes 5 Torsion [C]-N--CA-[C] |==|  0.17413
USER: genes 6 Torsion [N]-CA--CB-[CG] |==|  0.87405
USER: genes 7 Torsion [CA]-CB--CG-[CD1] |==|  0.81533
USER: genes 8 Torsion [N]-CA--C-[N] |==|  0.11408
USER: genes 9 Torsion [C]-N--CA-[C] |==|  0.76518
USER: genes 10 Torsion [N]-CA--CB-[CG] |==|  0.12173
USER: genes 11 Torsion [CA]-CB--CG-[OD1] |==|  0.27049
USER: genes 12 Torsion [N]-CA--C-[O] |==|  0.23466
USER: genes 13 Torsion [N]-CA--CB-[CG2] |==|  0.58765
USER: genes 14 Torsion [CA]-CB--CG1-[CD1] |==|  0.48100
USER: genes 15 Torsion [N]-C--CA-[N] |==|  0.22511
USER: genes 16 Torsion [C]-CA--N-[C] |==|  0.64925
USER: genes 17 Torsion [N]-C--CA-[N] |==|  0.06106
USER: genes 18 Torsion [C]-CA--N-[C] |==|  0.69223
USER: genes 19 Torsion [N]-C--CA-[N] |==|  0.53508
USER: genes 20 Torsion [C]-CA--CB-[CG1] |==|  0.76183
USER: genes 21 Torsion [CA]-CB--CG1-[CD1] |==|  0.19071
USER: genes 22 Torsion [C]-CA--CB-[CG] |==|  0.24094
USER: genes 23 Torsion [CA]-CB--CG-[CD] |==|  0.13987
USER: genes 24 Torsion [CB]-CG--CD-[NE] |==|  0.43066
USER: genes 25 Torsion [CG]-CD--NE-[CZ] |==|  0.17173
USER: genes 26 Torsion [C]-CA--CB-[CG1] |==|  0.62414
USER: genes 27 Torsion [CA]-CB--CG1-[CD1] |==|  0.24391
ROOT
ATOM      1  C   ILE E1023     -49.055  26.826   0.406  1.00 40.02 LIG 0.24  C 
ATOM      2 O    ILE E1023     -48.346  26.217   1.221  1.00 38.38 LIG-0.27  OA
ATOM      3  N   PRO E1024     -49.044  28.177   0.282  1.00 37.38 LIG-0.34  N 
ATOM      4  CA  PRO E1024     -48.269  28.983   1.236  1.00 36.67 LIG 0.18  C 
ATOM      5  CB  PRO E1024     -48.202  30.356   0.572  1.00 38.74 LIG 0.04  C 
ATOM      6  CG  PRO E1024     -49.427  30.436  -0.259  1.00 43.33 LIG 0.02  C 
ATOM      7  CD  PRO E1024     -49.828  29.038  -0.634  1.00 39.42 LIG 0.13  C 
ENDROOT
BRANCH 4 8
ATOM      8  C   PRO E1024     -49.014  29.027   2.564  1.00 39.60 LIG 0.24  C 
ATOM      9 O    PRO E1024     -49.518  30.087   2.932  1.00 37.18 LIG-0.27  OA
ATOM     10  N   ILE E1025     -49.106  27.870   3.251  1.00 37.20 LIG-0.35  N 
ATOM     11 H    ILE E1025     -48.748  27.145   2.958  1.00 37.20 LIG 0.16  HD
BRANCH 10 12
ATOM     12  CA  ILE E1025     -49.792  27.667   4.534  1.00 37.42 LIG 0.18  C 
BRANCH 12 13
ATOM     13  C   ILE E1025     -49.085  28.429   5.653  1.00 40.88 LIG 0.24  C 
ATOM     14 O    ILE E1025     -47.869  28.615   5.570  1.00 40.29 LIG-0.27  OA
ATOM     15  N   PHE E1026     -49.775  28.672   6.784  1.00 36.23 LIG-0.35  N 
ATOM     16 H    PHE E1026     -50.624  28.564   6.866  1.00 36.23 LIG 0.16  HD
BRANCH 15 17
ATOM     17  CA  PHE E1026     -49.098  29.155   7.995  1.00 36.58 LIG 0.18  C 
BRANCH 17 18
ATOM     18  CB  PHE E1026     -48.043  28.166   8.482  1.00 38.58 LIG 0.07  C 
BRANCH 18 19
ATOM     19  CG  PHE E1026     -48.540  26.750   8.482  1.00 40.24 LIG-0.06  A 
ATOM     20  CD1 PHE E1026     -49.546  26.358   9.339  1.00 42.20 LIG 0.01  A 
ATOM     21  CE1 PHE E1026     -49.995  25.049   9.346  1.00 42.54 LIG 0.00  A 
ATOM     22  CZ  PHE E1026     -49.443  24.126   8.497  1.00 41.81 LIG 0.00  A 
ATOM     23  CE2 PHE E1026     -48.437  24.492   7.642  1.00 44.36 LIG 0.00  A 
ATOM     24  CD2 PHE E1026     -47.981  25.800   7.636  1.00 42.30 LIG 0.01  A 
ENDBRANCH 18 19
ENDBRANCH 17 18
BRANCH 17 25
ATOM     25  C   PHE E1026     -48.467  30.514   7.756  1.00 38.60 LIG 0.24  C 
ATOM     26  N   ASN E1027     -49.204  31.394   7.032  1.00 38.80 LIG-0.35  N 
ATOM     27 H    ASN E1027     -49.973  31.190   6.706  1.00 38.80 LIG 0.16  HD
ATOM     28 O    PHE E1026     -47.378  30.779   8.261  1.00 31.59 LIG-0.27  OA
BRANCH 26 29
ATOM     29  CA  ASN E1027     -48.795  32.769   6.723  1.00 74.37 LIG 0.17  C 
BRANCH 29 30
ATOM     30  CB  ASN E1027     -49.477  33.251   5.447  1.00 75.17 LIG 0.14  C 
BRANCH 30 31
ATOM     31  CG  ASN E1027     -50.941  32.892   5.384  1.00 99.64 LIG 0.22  C 
ATOM     32  ND2 ASN E1027     -51.258  31.672   4.958  1.00 92.55 LIG-0.37  N 
ATOM     33 22HD ASN E1027     -50.638  31.119   4.737  1.00 92.55 LIG 0.16  HD
ATOM     34 21HD ASN E1027     -52.084  31.437   4.903  1.00 92.55 LIG 0.16  HD
ATOM     35 OD1  ASN E1027     -51.807  33.707   5.708  1.00 94.01 LIG-0.27  OA
ENDBRANCH 30 31
ENDBRANCH 29 30
BRANCH 29 36
ATOM     36  C   ASN E1027     -49.161  33.700   7.877  1.00103.37 LIG 0.22  C 
ATOM     37 O    ASN E1027     -48.409  33.820   8.840  1.00 69.20 LIG-0.29  OA
ENDBRANCH 29 36
ENDBRANCH 26 29
ENDBRANCH 17 25
ENDBRANCH 15 17
ENDBRANCH 12 13
BRANCH 12 38
ATOM     38  CB  ILE E1025     -49.672  26.130   4.928  1.00 40.50 LIG 0.01  C 
ATOM     39  CG2 ILE E1025     -50.893  25.649   5.725  1.00 43.95 LIG 0.01  C 
BRANCH 38 40
ATOM     40  CG1 ILE E1025     -49.413  25.219   3.729  1.00 41.58 LIG 0.00  C 
ATOM     41  CD1 ILE E1025     -49.116  23.680   4.161  1.00 52.05 LIG 0.01  C 
ENDBRANCH 38 40
ENDBRANCH 12 38
ENDBRANCH 10 12
ENDBRANCH 4 8
BRANCH 1 42
ATOM     42  CA  ILE E1023     -49.898  26.017  -0.563  1.00 36.06 LIG 0.18  C 
BRANCH 42 43
ATOM     43  N   ILE E1023     -49.111  25.888  -1.805  1.00 37.96 LIG-0.35  N 
ATOM     44  C   ARG E1022     -49.590  26.240  -3.017  1.00 45.42 LIG 0.24  C 
ATOM     45 O    ARG E1022     -50.746  26.623  -3.198  1.00 45.23 LIG-0.27  OA
ATOM     46 H    ILE E1023     -48.321  25.570  -1.684  1.00 37.96 LIG 0.16  HD
BRANCH 44 47
ATOM     47  CA  ARG E1022     -48.676  26.086  -4.233  1.00 45.59 LIG 0.18  C 
BRANCH 47 48
ATOM     48  N   ARG E1022     -47.589  25.116  -4.022  1.00 48.30 LIG-0.35  N 
ATOM     49 H    ARG E1022     -47.848  24.298  -3.968  1.00 48.30 LIG 0.16  HD
ATOM     50  C   ILE E1021     -46.298  25.506  -3.925  1.00 57.51 LIG 0.26  C 
ATOM     51 O    ILE E1021     -45.949  26.690  -4.010  1.00 59.03 LIG-0.27  OA
BRANCH 50 52
ATOM     52  CA  ILE E1021     -45.227  24.423  -3.714  1.00 57.59 LIG 0.40  C 
ATOM     53  N   ILE E1021     -43.974  25.071  -3.339  1.00 58.96 LIG 0.61  N 
BRANCH 52 54
ATOM     54  CB  ILE E1021     -45.591  23.433  -2.571  1.00 60.58 LIG 0.03  C 
ATOM     55  CG2 ILE E1021     -45.028  22.033  -2.799  1.00 61.37 LIG 0.01  C 
BRANCH 54 56
ATOM     56  CG1 ILE E1021     -45.136  23.992  -1.201  1.00 60.59 LIG 0.00  C 
ATOM     57  CD1 ILE E1021     -45.916  25.180  -0.778  1.00 60.15 LIG 0.01  C 
ENDBRANCH 54 56
ENDBRANCH 52 54
ENDBRANCH 50 52
ENDBRANCH 47 48
BRANCH 47 58
ATOM     58  CB  ARG E1022     -49.537  25.725  -5.449  1.00 44.33 LIG 0.04  C 
BRANCH 58 59
ATOM     59  CG  ARG E1022     -50.098  26.944  -6.171  1.00 47.73 LIG 0.02  C 
BRANCH 59 60
ATOM     60  CD  ARG E1022     -49.043  27.983  -6.491  1.00 47.87 LIG 0.14  C 
BRANCH 60 61
ATOM     61  NE  ARG E1022     -49.450  28.797  -7.635  1.00 55.98 LIG-0.23  N 
ATOM     62  CZ  ARG E1022     -50.523  29.581  -7.699  1.00 56.00 LIG 0.67  C 
ATOM     63  NH1 ARG E1022     -51.334  29.705  -6.654  1.00 48.69 LIG-0.23  N 
ATOM     64  NH2 ARG E1022     -50.776  30.276  -8.799  1.00 32.20 LIG-0.23  N 
ATOM     65 1HH1 ARG E1022     -51.168  29.276  -5.928  1.00 48.69 LIG 0.17  HD
ATOM     66 2HH1 ARG E1022     -52.025  30.214  -6.705  1.00 48.69 LIG 0.17  HD
ATOM     67 2HH2 ARG E1022     -51.470  30.781  -8.837  1.00 32.20 LIG 0.17  HD
ATOM     68 1HH2 ARG E1022     -50.246  30.220  -9.474  1.00 32.20 LIG 0.17  HD
ATOM     69 HE   ARG E1022     -48.948  28.767  -8.332  1.00 55.98 LIG 0.18  HD
ENDBRANCH 60 61
ENDBRANCH 59 60
ENDBRANCH 58 59
ENDBRANCH 47 58
ENDBRANCH 44 47
ENDBRANCH 42 43
BRANCH 42 70
ATOM     70  CB  ILE E1023     -50.254  24.638   0.083  1.00 38.78 LIG 0.01  C 
ATOM     71  CG2 ILE E1023     -51.668  24.668   0.682  1.00 39.01 LIG 0.01  C 
BRANCH 70 72
ATOM     72  CG1 ILE E1023     -50.076  23.434  -0.890  1.00 39.61 LIG 0.00  C 
ATOM     73  CD1 ILE E1023     -48.713  22.792  -0.959  1.00 43.21 LIG 0.01  C 
ENDBRANCH 70 72
ENDBRANCH 42 70
ENDBRANCH 1 42
TORSDOF 26
ENDMDL
MODEL 76
USER: ADFR SOLUTION from run 42
USER: SCORE 21.181449 LL:  -5.971 LR: -17.483 RR:   0.000 FEB:  -9.727
USER: RMSD 13.047110
USER: SEED 41
USER: STATUS no improvement in best in 1 clusters for 5 generations
USER: GENES 28
USER: genes 0 Translation |==|  0.39801 0.64468 0.57354
USER: genes 1 Rotation |==|  0.06762 0.66756 0.33727 0.59214
USER: genes 2 Torsion [N]-CA--C-[O] |==|  0.77727
USER: genes 3 Torsion [C]-N--CA-[CB] |==|  0.26628
USER: genes 4 Torsion [N]-CA--C-[N] |==|  0.39106
USER: genes 5 Torsion [C]-N--CA-[C] |==|  0.63542
USER: genes 6 Torsion [N]-CA--CB-[CG] |==|  0.06709
USER: genes 7 Torsion [CA]-CB--CG-[CD1] |==|  0.20246
USER: genes 8 Torsion [N]-CA--C-[N] |==|  0.04047
USER: genes 9 Torsion [C]-N--CA-[C] |==|  0.69144
USER: genes 10 Torsion [N]-CA--CB-[CG] |==|  0.09353
USER: genes 11 Torsion [CA]-CB--CG-[OD1] |==|  0.80150
USER: genes 12 Torsion [N]-CA--C-[O] |==|  0.69972
USER: genes 13 Torsion [N]-CA--CB-[CG2] |==|  0.11058
USER: genes 14 Torsion [CA]-CB--CG1-[CD1] |==|  0.35208
USER: genes 15 Torsion [N]-C--CA-[N] |==|  0.11333
USER: genes 16 Torsion [C]-CA--N-[C] |==|  0.15556
USER: genes 17 Torsion [N]-C--CA-[N] |==|  0.59311
USER: genes 18 Torsion [C]-CA--N-[C] |==|  0.55355
USER: genes 19 Torsion [N]-C--CA-[N] |==|  0.43082
USER: genes 20 Torsion [C]-CA--CB-[CG1] |==|  0.18418
USER: genes 21 Torsion [CA]-CB--CG1-[CD1] |==|  0.12472
USER: genes 22 Torsion [C]-CA--CB-[CG] |==|  0.82346
USER: genes 23 Torsion [CA]-CB--CG-[CD] |==|  0.49533
USER: genes 24 Torsion [CB]-CG--CD-[NE] |==|  0.54883
USER: genes 25 Torsion [CG]-CD--NE-[CZ] |==|  0.28088
USER: genes 26 Torsion [C]-CA--CB-[CG1] |==|  0.54515
USER: genes 27 Torsion [CA]-CB--CG1-[CD1] |==|  0.73882
ROOT
ATOM      1  C   ILE E1023     -49.886  28.394   2.554  1.00 40.02 LIG 0.24  C 
ATOM      2 O    ILE E1023     -50.588  27.480   2.096  1.00 38.38 LIG-0.27  OA
ATOM      3  N   PRO E1024     -49.557  29.501   1.842  1.00 37.38 LIG-0.34  N 
ATOM      4  CA  PRO E1024     -49.922  29.579   0.420  1.00 36.67 LIG 0.18  C 
ATOM      5  CB  PRO E1024     -49.729  31.055   0.083  1.00 38.74 LIG 0.04  C 
ATOM      6  CG  PRO E1024     -48.682  31.525   1.019  1.00 43.33 LIG 0.02  C 
ATOM      7  CD  PRO E1024     -48.734  30.664   2.248  1.00 39.42 LIG 0.13  C 
ENDROOT
BRANCH 4 8
ATOM      8  C   PRO E1024     -48.985  28.684  -0.380  1.00 39.60 LIG 0.24  C 
ATOM      9 O    PRO E1024     -47.862  29.097  -0.667  1.00 37.18 LIG-0.27  OA
ATOM     10  N   ILE E1025     -49.440  27.455  -0.700  1.00 37.20 LIG-0.35  N 
ATOM     11 H    ILE E1025     -50.228  27.196  -0.474  1.00 37.20 LIG 0.16  HD
BRANCH 10 12
ATOM     12  CA  ILE E1025     -48.710  26.417  -1.441  1.00 37.42 LIG 0.18  C 
BRANCH 12 13
ATOM     13  C   ILE E1025     -49.672  25.551  -2.250  1.00 40.88 LIG 0.24  C 
ATOM     14 O    ILE E1025     -50.660  25.075  -1.689  1.00 40.29 LIG-0.27  OA
ATOM     15  N   PHE E1026     -49.287  25.164  -3.482  1.00 36.23 LIG-0.35  N 
ATOM     16 H    PHE E1026     -48.611  25.489  -3.903  1.00 36.23 LIG 0.16  HD
BRANCH 15 17
ATOM     17  CA  PHE E1026     -50.023  24.124  -4.213  1.00 36.58 LIG 0.18  C 
BRANCH 17 18
ATOM     18  CB  PHE E1026     -50.865  24.717  -5.339  1.00 38.58 LIG 0.07  C 
BRANCH 18 19
ATOM     19  CG  PHE E1026     -50.340  26.040  -5.813  1.00 40.24 LIG-0.06  A 
ATOM     20  CD1 PHE E1026     -49.187  26.111  -6.565  1.00 42.20 LIG 0.01  A 
ATOM     21  CE1 PHE E1026     -48.697  27.333  -6.992  1.00 42.54 LIG 0.00  A 
ATOM     22  CZ  PHE E1026     -49.357  28.490  -6.670  1.00 41.81 LIG 0.00  A 
ATOM     23  CE2 PHE E1026     -50.500  28.444  -5.917  1.00 44.36 LIG 0.00  A 
ATOM     24  CD2 PHE E1026     -50.990  27.223  -5.483  1.00 42.30 LIG 0.01  A 
ENDBRANCH 18 19
ENDBRANCH 17 18
BRANCH 17 25
ATOM     25  C   PHE E1026     -49.074  23.079  -4.769  1.00 38.60 LIG 0.24  C 
ATOM     26  N   ASN E1027     -47.815  23.090  -4.264  1.00 38.80 LIG-0.35  N 
ATOM     27 H    ASN E1027     -47.557  23.668  -3.682  1.00 38.80 LIG 0.16  HD
ATOM     28 O    PHE E1026     -49.483  22.250  -5.579  1.00 31.59 LIG-0.27  OA
BRANCH 26 29
ATOM     29  CA  ASN E1027     -46.758  22.142  -4.637  1.00 74.37 LIG 0.17  C 
BRANCH 29 30
ATOM     30  CB  ASN E1027     -45.494  22.890  -5.048  1.00 75.17 LIG 0.14  C 
BRANCH 30 31
ATOM     31  CG  ASN E1027     -45.289  24.174  -4.284  1.00 99.64 LIG 0.22  C 
ATOM     32  ND2 ASN E1027     -44.313  24.203  -3.380  1.00 92.55 LIG-0.37  N 
ATOM     33 22HD ASN E1027     -43.823  23.508  -3.254  1.00 92.55 LIG 0.16  HD
ATOM     34 21HD ASN E1027     -44.172  24.917  -2.921  1.00 92.55 LIG 0.16  HD
ATOM     35 OD1  ASN E1027     -46.008  25.155  -4.487  1.00 94.01 LIG-0.27  OA
ENDBRANCH 30 31
ENDBRANCH 29 30
BRANCH 29 36
ATOM     36  C   ASN E1027     -46.440  21.218  -3.462  1.00103.37 LIG 0.22  C 
ATOM     37 O    ASN E1027     -45.386  21.340  -2.844  1.00 69.20 LIG-0.29  OA
ENDBRANCH 29 36
ENDBRANCH 26 29
ENDBRANCH 17 25
ENDBRANCH 15 17
ENDBRANCH 12 13
BRANCH 12 38
ATOM     38  CB  ILE E1025     -48.036  25.431  -0.389  1.00 40.50 LIG 0.01  C 
ATOM     39  CG2 ILE E1025     -48.964  25.147   0.800  1.00 43.95 LIG 0.01  C 
BRANCH 38 40
ATOM     40  CG1 ILE E1025     -47.541  24.128  -1.016  1.00 41.58 LIG 0.00  C 
ATOM     41  CD1 ILE E1025     -45.980  23.823  -0.679  1.00 52.05 LIG 0.01  C 
ENDBRANCH 38 40
ENDBRANCH 12 38
ENDBRANCH 10 12
ENDBRANCH 4 8
BRANCH 1 42
ATOM     42  CA  ILE E1023     -49.459  28.317   4.009  1.00 36.06 LIG 0.18  C 
BRANCH 42 43
ATOM     43  N   ILE E1023     -49.675  29.658   4.586  1.00 37.96 LIG-0.35  N 
ATOM     44  C   ARG E1022     -50.871  30.285   4.556  1.00 45.42 LIG 0.24  C 
ATOM     45 O    ARG E1022     -51.857  29.826   3.979  1.00 45.23 LIG-0.27  OA
ATOM     46 H    ILE E1023     -48.972  30.000   4.941  1.00 37.96 LIG 0.16  HD
BRANCH 44 47
ATOM     47  CA  ARG E1022     -50.985  31.664   5.206  1.00 45.59 LIG 0.18  C 
BRANCH 47 48
ATOM     48  N   ARG E1022     -52.304  31.911   5.814  1.00 48.30 LIG-0.35  N 
ATOM     49 H    ARG E1022     -52.760  31.200   5.973  1.00 48.30 LIG 0.16  HD
ATOM     50  C   ILE E1021     -52.735  33.162   6.088  1.00 57.51 LIG 0.26  C 
ATOM     51 O    ILE E1021     -52.058  34.170   5.854  1.00 59.03 LIG-0.27  OA
BRANCH 50 52
ATOM     52  CA  ILE E1021     -54.123  33.325   6.732  1.00 57.59 LIG 0.40  C 
ATOM     53  N   ILE E1021     -54.153  34.586   7.465  1.00 58.96 LIG 0.61  N 
BRANCH 52 54
ATOM     54  CB  ILE E1021     -55.269  33.376   5.683  1.00 60.58 LIG 0.03  C 
ATOM     55  CG2 ILE E1021     -55.102  34.513   4.679  1.00 61.37 LIG 0.01  C 
BRANCH 54 56
ATOM     56  CG1 ILE E1021     -55.404  32.016   4.956  1.00 60.59 LIG 0.00  C 
ATOM     57  CD1 ILE E1021     -55.350  30.861   5.885  1.00 60.15 LIG 0.01  C 
ENDBRANCH 54 56
ENDBRANCH 52 54
ENDBRANCH 50 52
ENDBRANCH 47 48
BRANCH 47 58
ATOM     58  CB  ARG E1022     -49.848  31.821   6.223  1.00 44.33 LIG 0.04  C 
BRANCH 58 59
ATOM     59  CG  ARG E1022     -49.932  30.827   7.375  1.00 47.73 LIG 0.02  C 
BRANCH 59 60
ATOM     60  CD  ARG E1022     -48.786  30.956   8.357  1.00 47.87 LIG 0.14  C 
BRANCH 60 61
ATOM     61  NE  ARG E1022     -48.676  29.755   9.183  1.00 55.98 LIG-0.23  N 
ATOM     62  CZ  ARG E1022     -47.802  28.766   9.020  1.00 56.00 LIG 0.67  C 
ATOM     63  NH1 ARG E1022     -46.896  28.817   8.050  1.00 48.69 LIG-0.23  N 
ATOM     64  NH2 ARG E1022     -47.804  27.731   9.847  1.00 32.20 LIG-0.23  N 
ATOM     65 1HH1 ARG E1022     -46.871  29.495   7.520  1.00 48.69 LIG 0.17  HD
ATOM     66 2HH1 ARG E1022     -46.334  28.174   7.952  1.00 48.69 LIG 0.17  HD
ATOM     67 2HH2 ARG E1022     -47.237  27.093   9.739  1.00 32.20 LIG 0.17  HD
ATOM     68 1HH2 ARG E1022     -48.372  27.697  10.492  1.00 32.20 LIG 0.17  HD
ATOM     69 HE   ARG E1022     -49.230  29.681   9.838  1.00 55.98 LIG 0.18  HD
ENDBRANCH 60 61
ENDBRANCH 59 60
ENDBRANCH 58 59
ENDBRANCH 47 58
ENDBRANCH 44 47
ENDBRANCH 42 43
BRANCH 42 70
ATOM     70  CB  ILE E1023     -50.279  27.198   4.733  1.00 38.78 LIG 0.01  C 
ATOM     71  CG2 ILE E1023     -49.847  25.807   4.244  1.00 39.01 LIG 0.01  C 
BRANCH 70 72
ATOM     72  CG1 ILE E1023     -50.222  27.296   6.287  1.00 39.61 LIG 0.00  C 
ATOM     73  CD1 ILE E1023     -49.171  26.478   6.995  1.00 43.21 LIG 0.01  C 
ENDBRANCH 70 72
ENDBRANCH 42 70
ENDBRANCH 1 42
TORSDOF 26
ENDMDL
MODEL 77
USER: ADFR SOLUTION from run 101
USER: SCORE 21.904775 LL:  -5.698 LR: -17.474 RR:   0.000 FEB:  -9.718
USER: RMSD 5.758764
USER: SEED 100
USER: STATUS no improvement in best in 5 clusters for 5 generations
USER: GENES 28
USER: genes 0 Translation |==|  0.51151 0.58330 0.47275
USER: genes 1 Rotation |==|  0.66670 0.35683 0.09863 0.70154
USER: genes 2 Torsion [N]-CA--C-[O] |==|  0.71630
USER: genes 3 Torsion [C]-N--CA-[CB] |==|  0.52850
USER: genes 4 Torsion [N]-CA--C-[N] |==|  0.90601
USER: genes 5 Torsion [C]-N--CA-[C] |==|  0.72366
USER: genes 6 Torsion [N]-CA--CB-[CG] |==|  0.76857
USER: genes 7 Torsion [CA]-CB--CG-[CD1] |==|  0.65390
USER: genes 8 Torsion [N]-CA--C-[N] |==|  0.44259
USER: genes 9 Torsion [C]-N--CA-[C] |==|  0.23079
USER: genes 10 Torsion [N]-CA--CB-[CG] |==|  0.50995
USER: genes 11 Torsion [CA]-CB--CG-[OD1] |==|  0.86265
USER: genes 12 Torsion [N]-CA--C-[O] |==|  0.93173
USER: genes 13 Torsion [N]-CA--CB-[CG2] |==|  0.39880
USER: genes 14 Torsion [CA]-CB--CG1-[CD1] |==|  0.86581
USER: genes 15 Torsion [N]-C--CA-[N] |==|  0.42001
USER: genes 16 Torsion [C]-CA--N-[C] |==|  0.81656
USER: genes 17 Torsion [N]-C--CA-[N] |==|  0.03618
USER: genes 18 Torsion [C]-CA--N-[C] |==|  0.69734
USER: genes 19 Torsion [N]-C--CA-[N] |==|  0.77086
USER: genes 20 Torsion [C]-CA--CB-[CG1] |==|  0.12567
USER: genes 21 Torsion [CA]-CB--CG1-[CD1] |==|  0.51489
USER: genes 22 Torsion [C]-CA--CB-[CG] |==|  0.85298
USER: genes 23 Torsion [CA]-CB--CG-[CD] |==|  0.32236
USER: genes 24 Torsion [CB]-CG--CD-[NE] |==|  0.54395
USER: genes 25 Torsion [CG]-CD--NE-[CZ] |==|  0.65334
USER: genes 26 Torsion [C]-CA--CB-[CG1] |==|  0.72781
USER: genes 27 Torsion [CA]-CB--CG1-[CD1] |==|  0.16049
ROOT
ATOM      1  C   ILE E1023     -48.183  26.967  -0.319  1.00 40.02 LIG 0.24  C 
ATOM      2 O    ILE E1023     -47.462  26.263   0.404  1.00 38.38 LIG-0.27  OA
ATOM      3  N   PRO E1024     -48.678  28.167   0.076  1.00 37.38 LIG-0.34  N 
ATOM      4  CA  PRO E1024     -48.476  28.610   1.462  1.00 36.67 LIG 0.18  C 
ATOM      5  CB  PRO E1024     -48.826  30.095   1.417  1.00 38.74 LIG 0.04  C 
ATOM      6  CG  PRO E1024     -49.802  30.222   0.309  1.00 43.33 LIG 0.02  C 
ATOM      7  CD  PRO E1024     -49.546  29.110  -0.667  1.00 39.42 LIG 0.13  C 
ENDROOT
BRANCH 4 8
ATOM      8  C   PRO E1024     -49.417  27.830   2.372  1.00 39.60 LIG 0.24  C 
ATOM      9 O    PRO E1024     -50.442  28.374   2.779  1.00 37.18 LIG-0.27  OA
ATOM     10  N   ILE E1025     -49.078  26.554   2.650  1.00 37.20 LIG-0.35  N 
ATOM     11 H    ILE E1025     -48.357  26.204   2.339  1.00 37.20 LIG 0.16  HD
BRANCH 10 12
ATOM     12  CA  ILE E1025     -49.838  25.608   3.478  1.00 37.42 LIG 0.18  C 
BRANCH 12 13
ATOM     13  C   ILE E1025     -50.113  26.198   4.859  1.00 40.88 LIG 0.24  C 
ATOM     14 O    ILE E1025     -51.241  26.084   5.342  1.00 40.29 LIG-0.27  OA
ATOM     15  N   PHE E1026     -49.179  27.008   5.396  1.00 36.23 LIG-0.35  N 
ATOM     16 H    PHE E1026     -48.381  27.097   5.088  1.00 36.23 LIG 0.16  HD
BRANCH 15 17
ATOM     17  CA  PHE E1026     -49.473  27.821   6.584  1.00 36.58 LIG 0.18  C 
BRANCH 17 18
ATOM     18  CB  PHE E1026     -48.318  27.801   7.580  1.00 38.58 LIG 0.07  C 
BRANCH 18 19
ATOM     19  CG  PHE E1026     -48.352  26.595   8.473  1.00 40.24 LIG-0.06  A 
ATOM     20  CD1 PHE E1026     -48.356  26.735   9.844  1.00 42.20 LIG 0.01  A 
ATOM     21  CE1 PHE E1026     -48.376  25.621  10.666  1.00 42.54 LIG 0.00  A 
ATOM     22  CZ  PHE E1026     -48.392  24.364  10.122  1.00 41.81 LIG 0.00  A 
ATOM     23  CE2 PHE E1026     -48.381  24.201   8.763  1.00 44.36 LIG 0.00  A 
ATOM     24  CD2 PHE E1026     -48.356  25.313   7.937  1.00 42.30 LIG 0.01  A 
ENDBRANCH 18 19
ENDBRANCH 17 18
BRANCH 17 25
ATOM     25  C   PHE E1026     -49.798  29.251   6.193  1.00 38.60 LIG 0.24  C 
ATOM     26  N   ASN E1027     -50.494  29.974   7.106  1.00 38.80 LIG-0.35  N 
ATOM     27 H    ASN E1027     -50.759  29.639   7.853  1.00 38.80 LIG 0.16  HD
ATOM     28 O    PHE E1026     -49.380  29.704   5.130  1.00 31.59 LIG-0.27  OA
BRANCH 26 29
ATOM     29  CA  ASN E1027     -50.874  31.382   6.942  1.00 74.37 LIG 0.17  C 
BRANCH 29 30
ATOM     30  CB  ASN E1027     -49.757  32.155   6.249  1.00 75.17 LIG 0.14  C 
BRANCH 30 31
ATOM     31  CG  ASN E1027     -50.045  33.631   6.124  1.00 99.64 LIG 0.22  C 
ATOM     32  ND2 ASN E1027     -49.100  34.478   6.523  1.00 92.55 LIG-0.37  N 
ATOM     33 22HD ASN E1027     -48.356  34.178   6.832  1.00 92.55 LIG 0.16  HD
ATOM     34 21HD ASN E1027     -49.234  35.326   6.472  1.00 92.55 LIG 0.16  HD
ATOM     35 OD1  ASN E1027     -51.122  34.030   5.677  1.00 94.01 LIG-0.27  OA
ENDBRANCH 30 31
ENDBRANCH 29 30
BRANCH 29 36
ATOM     36  C   ASN E1027     -52.154  31.490   6.116  1.00103.37 LIG 0.22  C 
ATOM     37 O    ASN E1027     -52.466  30.596   5.335  1.00 69.20 LIG-0.29  OA
ENDBRANCH 29 36
ENDBRANCH 26 29
ENDBRANCH 17 25
ENDBRANCH 15 17
ENDBRANCH 12 13
BRANCH 12 38
ATOM     38  CB  ILE E1025     -48.928  24.329   3.739  1.00 40.50 LIG 0.01  C 
ATOM     39  CG2 ILE E1025     -49.135  23.761   5.150  1.00 43.95 LIG 0.01  C 
BRANCH 38 40
ATOM     40  CG1 ILE E1025     -49.106  23.238   2.683  1.00 41.58 LIG 0.00  C 
ATOM     41  CD1 ILE E1025     -50.668  22.899   2.386  1.00 52.05 LIG 0.01  C 
ENDBRANCH 38 40
ENDBRANCH 12 38
ENDBRANCH 10 12
ENDBRANCH 4 8
BRANCH 1 42
ATOM     42  CA  ILE E1023     -48.443  26.510  -1.744  1.00 36.06 LIG 0.18  C 
BRANCH 42 43
ATOM     43  N   ILE E1023     -47.312  25.641  -2.123  1.00 37.96 LIG-0.35  N 
ATOM     44  C   ARG E1022     -46.048  26.098  -2.254  1.00 45.42 LIG 0.24  C 
ATOM     45 O    ARG E1022     -45.748  27.287  -2.144  1.00 45.23 LIG-0.27  OA
ATOM     46 H    ILE E1023     -47.532  24.821  -2.252  1.00 37.96 LIG 0.16  HD
BRANCH 44 47
ATOM     47  CA  ARG E1022     -44.950  25.102  -2.628  1.00 45.59 LIG 0.18  C 
BRANCH 47 48
ATOM     48  N   ARG E1022     -45.475  23.808  -3.094  1.00 48.30 LIG-0.35  N 
ATOM     49 H    ARG E1022     -45.846  23.834  -3.869  1.00 48.30 LIG 0.16  HD
ATOM     50  C   ILE E1021     -45.369  22.688  -2.346  1.00 57.51 LIG 0.26  C 
ATOM     51 O    ILE E1021     -44.826  22.675  -1.234  1.00 59.03 LIG-0.27  OA
BRANCH 50 52
ATOM     52  CA  ILE E1021     -45.938  21.378  -2.917  1.00 57.59 LIG 0.40  C 
ATOM     53  N   ILE E1021     -47.374  21.341  -2.659  1.00 58.96 LIG 0.61  N 
BRANCH 52 54
ATOM     54  CB  ILE E1021     -45.744  21.259  -4.455  1.00 60.58 LIG 0.03  C 
ATOM     55  CG2 ILE E1021     -46.775  22.061  -5.245  1.00 61.37 LIG 0.01  C 
BRANCH 54 56
ATOM     56  CG1 ILE E1021     -44.306  21.667  -4.857  1.00 60.59 LIG 0.00  C 
ATOM     57  CD1 ILE E1021     -44.106  21.693  -6.326  1.00 60.15 LIG 0.01  C 
ENDBRANCH 54 56
ENDBRANCH 52 54
ENDBRANCH 50 52
ENDBRANCH 47 48
BRANCH 47 58
ATOM     58  CB  ARG E1022     -44.031  25.756  -3.667  1.00 44.33 LIG 0.04  C 
BRANCH 58 59
ATOM     59  CG  ARG E1022     -44.785  26.311  -4.869  1.00 47.73 LIG 0.02  C 
BRANCH 59 60
ATOM     60  CD  ARG E1022     -44.672  27.816  -4.998  1.00 47.87 LIG 0.14  C 
BRANCH 60 61
ATOM     61  NE  ARG E1022     -45.688  28.334  -5.912  1.00 55.98 LIG-0.23  N 
ATOM     62  CZ  ARG E1022     -45.469  29.081  -6.991  1.00 56.00 LIG 0.67  C 
ATOM     63  NH1 ARG E1022     -44.231  29.407  -7.347  1.00 48.69 LIG-0.23  N 
ATOM     64  NH2 ARG E1022     -46.483  29.482  -7.742  1.00 32.20 LIG-0.23  N 
ATOM     65 1HH1 ARG E1022     -43.563  29.134  -6.879  1.00 48.69 LIG 0.17  HD
ATOM     66 2HH1 ARG E1022     -44.098  29.890  -8.046  1.00 48.69 LIG 0.17  HD
ATOM     67 2HH2 ARG E1022     -46.338  29.965  -8.439  1.00 32.20 LIG 0.17  HD
ATOM     68 1HH2 ARG E1022     -47.288  29.259  -7.534  1.00 32.20 LIG 0.17  HD
ATOM     69 HE   ARG E1022     -46.507  28.136  -5.736  1.00 55.98 LIG 0.18  HD
ENDBRANCH 60 61
ENDBRANCH 59 60
ENDBRANCH 58 59
ENDBRANCH 47 58
ENDBRANCH 44 47
ENDBRANCH 42 43
BRANCH 42 70
ATOM     70  CB  ILE E1023     -49.826  25.782  -1.812  1.00 38.78 LIG 0.01  C 
ATOM     71  CG2 ILE E1023     -50.618  26.237  -3.047  1.00 39.01 LIG 0.01  C 
BRANCH 70 72
ATOM     72  CG1 ILE E1023     -49.710  24.229  -1.754  1.00 39.61 LIG 0.00  C 
ATOM     73  CD1 ILE E1023     -49.023  23.628  -0.553  1.00 43.21 LIG 0.01  C 
ENDBRANCH 70 72
ENDBRANCH 42 70
ENDBRANCH 1 42
TORSDOF 26
ENDMDL
MODEL 78
USER: ADFR SOLUTION from run 110
USER: SCORE 22.158399 LL:  -5.615 LR: -17.464 RR:   0.000 FEB:  -9.709
USER: RMSD 12.418927
USER: SEED 109
USER: STATUS no improvement in best in 11 clusters for 5 generations
USER: GENES 28
USER: genes 0 Translation |==|  0.45069 0.60160 0.54111
USER: genes 1 Rotation |==|  0.85435 0.80047 0.34977 0.60765
USER: genes 2 Torsion [N]-CA--C-[O] |==|  0.37289
USER: genes 3 Torsion [C]-N--CA-[CB] |==|  0.52222
USER: genes 4 Torsion [N]-CA--C-[N] |==|  0.48600
USER: genes 5 Torsion [C]-N--CA-[C] |==|  0.60763
USER: genes 6 Torsion [N]-CA--CB-[CG] |==|  0.95083
USER: genes 7 Torsion [CA]-CB--CG-[CD1] |==|  0.27608
USER: genes 8 Torsion [N]-CA--C-[N] |==|  0.39181
USER: genes 9 Torsion [C]-N--CA-[C] |==|  0.63298
USER: genes 10 Torsion [N]-CA--CB-[CG] |==|  0.88315
USER: genes 11 Torsion [CA]-CB--CG-[OD1] |==|  0.33137
USER: genes 12 Torsion [N]-CA--C-[O] |==|  0.91920
USER: genes 13 Torsion [N]-CA--CB-[CG2] |==|  0.87985
USER: genes 14 Torsion [CA]-CB--CG1-[CD1] |==|  0.43919
USER: genes 15 Torsion [N]-C--CA-[N] |==|  0.31750
USER: genes 16 Torsion [C]-CA--N-[C] |==|  0.62303
USER: genes 17 Torsion [N]-C--CA-[N] |==|  0.43960
USER: genes 18 Torsion [C]-CA--N-[C] |==|  0.66069
USER: genes 19 Torsion [N]-C--CA-[N] |==|  0.96216
USER: genes 20 Torsion [C]-CA--CB-[CG1] |==|  0.44150
USER: genes 21 Torsion [CA]-CB--CG1-[CD1] |==|  0.20673
USER: genes 22 Torsion [C]-CA--CB-[CG] |==|  0.25432
USER: genes 23 Torsion [CA]-CB--CG-[CD] |==|  0.57443
USER: genes 24 Torsion [CB]-CG--CD-[NE] |==|  0.68809
USER: genes 25 Torsion [CG]-CD--NE-[CZ] |==|  0.28813
USER: genes 26 Torsion [C]-CA--CB-[CG1] |==|  0.82096
USER: genes 27 Torsion [CA]-CB--CG1-[CD1] |==|  0.30313
ROOT
ATOM      1  C   ILE E1023     -49.096  27.392   1.630  1.00 40.02 LIG 0.24  C 
ATOM      2 O    ILE E1023     -47.859  27.361   1.710  1.00 38.38 LIG-0.27  OA
ATOM      3  N   PRO E1024     -49.867  26.276   1.660  1.00 37.38 LIG-0.34  N 
ATOM      4  CA  PRO E1024     -49.224  24.955   1.650  1.00 36.67 LIG 0.18  C 
ATOM      5  CB  PRO E1024     -50.350  24.007   2.056  1.00 38.74 LIG 0.04  C 
ATOM      6  CG  PRO E1024     -51.592  24.676   1.602  1.00 43.33 LIG 0.02  C 
ATOM      7  CD  PRO E1024     -51.341  26.156   1.574  1.00 39.42 LIG 0.13  C 
ENDROOT
BRANCH 4 8
ATOM      8  C   PRO E1024     -48.715  24.665   0.243  1.00 39.60 LIG 0.24  C 
ATOM      9 O    PRO E1024     -47.579  24.214   0.099  1.00 37.18 LIG-0.27  OA
ATOM     10  N   ILE E1025     -49.571  24.892  -0.774  1.00 37.20 LIG-0.35  N 
ATOM     11 H    ILE E1025     -50.362  25.199  -0.635  1.00 37.20 LIG 0.16  HD
BRANCH 10 12
ATOM     12  CA  ILE E1025     -49.311  24.665  -2.202  1.00 37.42 LIG 0.18  C 
BRANCH 12 13
ATOM     13  C   ILE E1025     -48.080  25.444  -2.659  1.00 40.88 LIG 0.24  C 
ATOM     14 O    ILE E1025     -47.649  26.350  -1.944  1.00 40.29 LIG-0.27  OA
ATOM     15  N   PHE E1026     -47.650  25.258  -3.923  1.00 36.23 LIG-0.35  N 
ATOM     16 H    PHE E1026     -47.923  24.627  -4.439  1.00 36.23 LIG 0.16  HD
BRANCH 15 17
ATOM     17  CA  PHE E1026     -46.651  26.153  -4.522  1.00 36.58 LIG 0.18  C 
BRANCH 17 18
ATOM     18  CB  PHE E1026     -45.240  25.587  -4.395  1.00 38.58 LIG 0.07  C 
BRANCH 18 19
ATOM     19  CG  PHE E1026     -45.146  24.510  -3.355  1.00 40.24 LIG-0.06  A 
ATOM     20  CD1 PHE E1026     -45.163  23.180  -3.716  1.00 42.20 LIG 0.01  A 
ATOM     21  CE1 PHE E1026     -45.087  22.188  -2.754  1.00 42.54 LIG 0.00  A 
ATOM     22  CZ  PHE E1026     -44.992  22.519  -1.428  1.00 41.81 LIG 0.00  A 
ATOM     23  CE2 PHE E1026     -44.980  23.834  -1.045  1.00 44.36 LIG 0.00  A 
ATOM     24  CD2 PHE E1026     -45.062  24.830  -2.006  1.00 42.30 LIG 0.01  A 
ENDBRANCH 18 19
ENDBRANCH 17 18
BRANCH 17 25
ATOM     25  C   PHE E1026     -46.974  26.425  -5.980  1.00 38.60 LIG 0.24  C 
ATOM     26  N   ASN E1027     -46.754  27.692  -6.412  1.00 38.80 LIG-0.35  N 
ATOM     27 H    ASN E1027     -46.472  28.314  -5.889  1.00 38.80 LIG 0.16  HD
ATOM     28 O    PHE E1026     -47.349  25.506  -6.704  1.00 31.59 LIG-0.27  OA
BRANCH 26 29
ATOM     29  CA  ASN E1027     -46.963  28.152  -7.790  1.00 74.37 LIG 0.17  C 
BRANCH 29 30
ATOM     30  CB  ASN E1027     -48.207  29.030  -7.873  1.00 75.17 LIG 0.14  C 
BRANCH 30 31
ATOM     31  CG  ASN E1027     -49.366  28.497  -7.068  1.00 99.64 LIG 0.22  C 
ATOM     32  ND2 ASN E1027     -49.845  27.301  -7.397  1.00 92.55 LIG-0.37  N 
ATOM     33 22HD ASN E1027     -49.491  26.858  -8.043  1.00 92.55 LIG 0.16  HD
ATOM     34 21HD ASN E1027     -50.510  26.970  -6.963  1.00 92.55 LIG 0.16  HD
ATOM     35 OD1  ASN E1027     -49.852  29.155  -6.146  1.00 94.01 LIG-0.27  OA
ENDBRANCH 30 31
ENDBRANCH 29 30
BRANCH 29 36
ATOM     36  C   ASN E1027     -45.749  28.945  -8.271  1.00103.37 LIG 0.22  C 
ATOM     37 O    ASN E1027     -45.058  29.569  -7.470  1.00 69.20 LIG-0.29  OA
ENDBRANCH 29 36
ENDBRANCH 26 29
ENDBRANCH 17 25
ENDBRANCH 15 17
ENDBRANCH 12 13
BRANCH 12 38
ATOM     38  CB  ILE E1025     -50.526  25.268  -3.034  1.00 40.50 LIG 0.01  C 
ATOM     39  CG2 ILE E1025     -51.879  24.925  -2.396  1.00 43.95 LIG 0.01  C 
BRANCH 38 40
ATOM     40  CG1 ILE E1025     -50.405  26.773  -3.274  1.00 41.58 LIG 0.00  C 
ATOM     41  CD1 ILE E1025     -51.281  27.280  -4.545  1.00 52.05 LIG 0.01  C 
ENDBRANCH 38 40
ENDBRANCH 12 38
ENDBRANCH 10 12
ENDBRANCH 4 8
BRANCH 1 42
ATOM     42  CA  ILE E1023     -49.783  28.746   1.596  1.00 36.06 LIG 0.18  C 
BRANCH 42 43
ATOM     43  N   ILE E1023     -49.453  29.420   2.867  1.00 37.96 LIG-0.35  N 
ATOM     44  C   ARG E1022     -50.369  30.081   3.606  1.00 45.42 LIG 0.24  C 
ATOM     45 O    ARG E1022     -51.535  30.243   3.245  1.00 45.23 LIG-0.27  OA
ATOM     46 H    ILE E1023     -48.626  29.352   3.091  1.00 37.96 LIG 0.16  HD
BRANCH 44 47
ATOM     47  CA  ARG E1022     -49.919  30.723   4.919  1.00 45.59 LIG 0.18  C 
BRANCH 47 48
ATOM     48  N   ARG E1022     -50.810  31.804   5.371  1.00 48.30 LIG-0.35  N 
ATOM     49 H    ARG E1022     -51.628  31.567   5.485  1.00 48.30 LIG 0.16  HD
ATOM     50  C   ILE E1021     -50.352  33.059   5.582  1.00 57.51 LIG 0.26  C 
ATOM     51 O    ILE E1021     -49.168  33.376   5.415  1.00 59.03 LIG-0.27  OA
BRANCH 50 52
ATOM     52  CA  ILE E1021     -51.352  34.123   6.063  1.00 57.59 LIG 0.40  C 
ATOM     53  N   ILE E1021     -52.706  33.607   5.886  1.00 58.96 LIG 0.61  N 
BRANCH 52 54
ATOM     54  CB  ILE E1021     -51.186  34.467   7.570  1.00 60.58 LIG 0.03  C 
ATOM     55  CG2 ILE E1021     -49.735  34.402   8.035  1.00 61.37 LIG 0.01  C 
BRANCH 54 56
ATOM     56  CG1 ILE E1021     -51.803  35.853   7.883  1.00 60.59 LIG 0.00  C 
ATOM     57  CD1 ILE E1021     -53.285  35.830   7.906  1.00 60.15 LIG 0.01  C 
ENDBRANCH 54 56
ENDBRANCH 52 54
ENDBRANCH 50 52
ENDBRANCH 47 48
BRANCH 47 58
ATOM     58  CB  ARG E1022     -49.774  29.621   5.976  1.00 44.33 LIG 0.04  C 
BRANCH 58 59
ATOM     59  CG  ARG E1022     -48.368  29.037   6.045  1.00 47.73 LIG 0.02  C 
BRANCH 59 60
ATOM     60  CD  ARG E1022     -48.342  27.610   6.552  1.00 47.87 LIG 0.14  C 
BRANCH 60 61
ATOM     61  NE  ARG E1022     -47.697  27.540   7.863  1.00 55.98 LIG-0.23  N 
ATOM     62  CZ  ARG E1022     -48.311  27.398   9.034  1.00 56.00 LIG 0.67  C 
ATOM     63  NH1 ARG E1022     -49.633  27.276   9.095  1.00 48.69 LIG-0.23  N 
ATOM     64  NH2 ARG E1022     -47.606  27.342  10.154  1.00 32.20 LIG-0.23  N 
ATOM     65 1HH1 ARG E1022     -50.099  27.289   8.372  1.00 48.69 LIG 0.17  HD
ATOM     66 2HH1 ARG E1022     -50.022  27.184   9.856  1.00 48.69 LIG 0.17  HD
ATOM     67 2HH2 ARG E1022     -48.006  27.250  10.910  1.00 32.20 LIG 0.17  HD
ATOM     68 1HH2 ARG E1022     -46.748  27.397  10.125  1.00 32.20 LIG 0.17  HD
ATOM     69 HE   ARG E1022     -46.839  27.596   7.878  1.00 55.98 LIG 0.18  HD
ENDBRANCH 60 61
ENDBRANCH 59 60
ENDBRANCH 58 59
ENDBRANCH 47 58
ENDBRANCH 44 47
ENDBRANCH 42 43
BRANCH 42 70
ATOM     70  CB  ILE E1023     -49.303  29.541   0.337  1.00 38.78 LIG 0.01  C 
ATOM     71  CG2 ILE E1023     -50.161  30.798   0.131  1.00 39.01 LIG 0.01  C 
BRANCH 70 72
ATOM     72  CG1 ILE E1023     -47.785  29.890   0.368  1.00 39.61 LIG 0.00  C 
ATOM     73  CD1 ILE E1023     -46.885  29.157  -0.595  1.00 43.21 LIG 0.01  C 
ENDBRANCH 70 72
ENDBRANCH 42 70
ENDBRANCH 1 42
TORSDOF 26
ENDMDL
MODEL 79
USER: ADFR SOLUTION from run 122
USER: SCORE 21.780123 LL:  -5.707 LR: -17.446 RR:   0.000 FEB:  -9.690
USER: RMSD 3.302556
USER: SEED 121
USER: STATUS no improvement in best in 10 clusters for 5 generations
USER: GENES 28
USER: genes 0 Translation |==|  0.50138 0.46098 0.42729
USER: genes 1 Rotation |==|  0.44218 0.45836 0.52080 0.99446
USER: genes 2 Torsion [N]-CA--C-[O] |==|  0.85716
USER: genes 3 Torsion [C]-N--CA-[CB] |==|  0.53432
USER: genes 4 Torsion [N]-CA--C-[N] |==|  0.36202
USER: genes 5 Torsion [C]-N--CA-[C] |==|  0.82022
USER: genes 6 Torsion [N]-CA--CB-[CG] |==|  0.41237
USER: genes 7 Torsion [CA]-CB--CG-[CD1] |==|  0.22816
USER: genes 8 Torsion [N]-CA--C-[N] |==|  0.39629
USER: genes 9 Torsion [C]-N--CA-[C] |==|  0.21415
USER: genes 10 Torsion [N]-CA--CB-[CG] |==|  0.37475
USER: genes 11 Torsion [CA]-CB--CG-[OD1] |==|  0.71526
USER: genes 12 Torsion [N]-CA--C-[O] |==|  0.02192
USER: genes 13 Torsion [N]-CA--CB-[CG2] |==|  0.40482
USER: genes 14 Torsion [CA]-CB--CG1-[CD1] |==|  0.69581
USER: genes 15 Torsion [N]-C--CA-[N] |==|  0.35208
USER: genes 16 Torsion [C]-CA--N-[C] |==|  0.61426
USER: genes 17 Torsion [N]-C--CA-[N] |==|  0.06896
USER: genes 18 Torsion [C]-CA--N-[C] |==|  0.78136
USER: genes 19 Torsion [N]-C--CA-[N] |==|  0.53024
USER: genes 20 Torsion [C]-CA--CB-[CG1] |==|  0.87462
USER: genes 21 Torsion [CA]-CB--CG1-[CD1] |==|  0.61632
USER: genes 22 Torsion [C]-CA--CB-[CG] |==|  0.30658
USER: genes 23 Torsion [CA]-CB--CG-[CD] |==|  0.42637
USER: genes 24 Torsion [CB]-CG--CD-[NE] |==|  0.39365
USER: genes 25 Torsion [CG]-CD--NE-[CZ] |==|  0.62401
USER: genes 26 Torsion [C]-CA--CB-[CG1] |==|  0.86899
USER: genes 27 Torsion [CA]-CB--CG1-[CD1] |==|  0.25543
ROOT
ATOM      1  C   ILE E1023     -48.335  24.123  -1.614  1.00 40.02 LIG 0.24  C 
ATOM      2 O    ILE E1023     -48.327  25.251  -2.128  1.00 38.38 LIG-0.27  OA
ATOM      3  N   PRO E1024     -49.335  23.684  -0.808  1.00 37.38 LIG-0.34  N 
ATOM      4  CA  PRO E1024     -50.396  24.617  -0.403  1.00 36.67 LIG 0.18  C 
ATOM      5  CB  PRO E1024     -51.481  23.701   0.158  1.00 38.74 LIG 0.04  C 
ATOM      6  CG  PRO E1024     -50.753  22.513   0.661  1.00 43.33 LIG 0.02  C 
ATOM      7  CD  PRO E1024     -49.481  22.377  -0.127  1.00 39.42 LIG 0.13  C 
ENDROOT
BRANCH 4 8
ATOM      8  C   PRO E1024     -49.844  25.562   0.657  1.00 39.60 LIG 0.24  C 
ATOM      9 O    PRO E1024     -49.273  25.091   1.639  1.00 37.18 LIG-0.27  OA
ATOM     10  N   ILE E1025     -49.987  26.884   0.429  1.00 37.20 LIG-0.35  N 
ATOM     11 H    ILE E1025     -50.385  27.178  -0.274  1.00 37.20 LIG 0.16  HD
BRANCH 10 12
ATOM     12  CA  ILE E1025     -49.517  27.976   1.293  1.00 37.42 LIG 0.18  C 
BRANCH 12 13
ATOM     13  C   ILE E1025     -50.010  27.785   2.725  1.00 40.88 LIG 0.24  C 
ATOM     14 O    ILE E1025     -51.223  27.753   2.938  1.00 40.29 LIG-0.27  OA
ATOM     15  N   PHE E1026     -49.106  27.879   3.720  1.00 36.23 LIG-0.35  N 
ATOM     16 H    PHE E1026     -48.255  27.888   3.602  1.00 36.23 LIG 0.16  HD
BRANCH 15 17
ATOM     17  CA  PHE E1026     -49.533  27.973   5.123  1.00 36.58 LIG 0.18  C 
BRANCH 17 18
ATOM     18  CB  PHE E1026     -48.348  27.877   6.079  1.00 38.58 LIG 0.07  C 
BRANCH 18 19
ATOM     19  CG  PHE E1026     -48.557  28.674   7.334  1.00 40.24 LIG-0.06  A 
ATOM     20  CD1 PHE E1026     -49.290  28.157   8.380  1.00 42.20 LIG 0.01  A 
ATOM     21  CE1 PHE E1026     -49.492  28.897   9.532  1.00 42.54 LIG 0.00  A 
ATOM     22  CZ  PHE E1026     -48.962  30.156   9.644  1.00 41.81 LIG 0.00  A 
ATOM     23  CE2 PHE E1026     -48.236  30.692   8.614  1.00 44.36 LIG 0.00  A 
ATOM     24  CD2 PHE E1026     -48.037  29.956   7.457  1.00 42.30 LIG 0.01  A 
ENDBRANCH 18 19
ENDBRANCH 17 18
BRANCH 17 25
ATOM     25  C   PHE E1026     -50.297  29.261   5.370  1.00 38.60 LIG 0.24  C 
ATOM     26  N   ASN E1027     -51.345  29.176   6.228  1.00 38.80 LIG-0.35  N 
ATOM     27 H    ASN E1027     -51.581  28.434   6.594  1.00 38.80 LIG 0.16  HD
ATOM     28 O    PHE E1026     -49.915  30.308   4.852  1.00 31.59 LIG-0.27  OA
BRANCH 26 29
ATOM     29  CA  ASN E1027     -52.187  30.308   6.631  1.00 74.37 LIG 0.17  C 
BRANCH 29 30
ATOM     30  CB  ASN E1027     -51.324  31.527   6.940  1.00 75.17 LIG 0.14  C 
BRANCH 30 31
ATOM     31  CG  ASN E1027     -51.859  32.802   6.337  1.00 99.64 LIG 0.22  C 
ATOM     32  ND2 ASN E1027     -52.894  33.381   6.938  1.00 92.55 LIG-0.37  N 
ATOM     33 22HD ASN E1027     -53.230  33.031   7.648  1.00 92.55 LIG 0.16  HD
ATOM     34 21HD ASN E1027     -53.229  34.106   6.617  1.00 92.55 LIG 0.16  HD
ATOM     35 OD1  ASN E1027     -51.356  33.280   5.318  1.00 94.01 LIG-0.27  OA
ENDBRANCH 30 31
ENDBRANCH 29 30
BRANCH 29 36
ATOM     36  C   ASN E1027     -53.174  30.654   5.518  1.00103.37 LIG 0.22  C 
ATOM     37 O    ASN E1027     -53.279  29.927   4.535  1.00 69.20 LIG-0.29  OA
ENDBRANCH 29 36
ENDBRANCH 26 29
ENDBRANCH 17 25
ENDBRANCH 15 17
ENDBRANCH 12 13
BRANCH 12 38
ATOM     38  CB  ILE E1025     -50.183  29.332   0.794  1.00 40.50 LIG 0.01  C 
ATOM     39  CG2 ILE E1025     -50.481  30.283   1.961  1.00 43.95 LIG 0.01  C 
BRANCH 38 40
ATOM     40  CG1 ILE E1025     -49.372  30.039  -0.291  1.00 41.58 LIG 0.00  C 
ATOM     41  CD1 ILE E1025     -48.674  31.408   0.238  1.00 52.05 LIG 0.01  C 
ENDBRANCH 38 40
ENDBRANCH 12 38
ENDBRANCH 10 12
ENDBRANCH 4 8
BRANCH 1 42
ATOM     42  CA  ILE E1023     -47.226  23.153  -1.984  1.00 36.06 LIG 0.18  C 
BRANCH 42 43
ATOM     43  N   ILE E1023     -47.132  23.159  -3.456  1.00 37.96 LIG-0.35  N 
ATOM     44  C   ARG E1022     -46.948  22.036  -4.184  1.00 45.42 LIG 0.24  C 
ATOM     45 O    ARG E1022     -46.765  20.929  -3.677  1.00 45.23 LIG-0.27  OA
ATOM     46 H    ILE E1023     -47.206  23.940  -3.806  1.00 37.96 LIG 0.16  HD
BRANCH 44 47
ATOM     47  CA  ARG E1022     -46.889  22.157  -5.707  1.00 45.59 LIG 0.18  C 
BRANCH 47 48
ATOM     48  N   ARG E1022     -46.470  23.492  -6.166  1.00 48.30 LIG-0.35  N 
ATOM     49 H    ARG E1022     -45.648  23.541  -6.413  1.00 48.30 LIG 0.16  HD
ATOM     50  C   ILE E1021     -47.328  24.536  -6.188  1.00 57.51 LIG 0.26  C 
ATOM     51 O    ILE E1021     -48.509  24.440  -5.832  1.00 59.03 LIG-0.27  OA
BRANCH 50 52
ATOM     52  CA  ILE E1021     -46.806  25.892  -6.693  1.00 57.59 LIG 0.40  C 
ATOM     53  N   ILE E1021     -47.799  26.918  -6.390  1.00 58.96 LIG 0.61  N 
BRANCH 52 54
ATOM     54  CB  ILE E1021     -45.480  26.320  -6.003  1.00 60.58 LIG 0.03  C 
ATOM     55  CG2 ILE E1021     -45.090  27.762  -6.313  1.00 61.37 LIG 0.01  C 
BRANCH 54 56
ATOM     56  CG1 ILE E1021     -45.563  26.090  -4.474  1.00 60.59 LIG 0.00  C 
ATOM     57  CD1 ILE E1021     -44.975  27.206  -3.693  1.00 60.15 LIG 0.01  C 
ENDBRANCH 54 56
ENDBRANCH 52 54
ENDBRANCH 50 52
ENDBRANCH 47 48
BRANCH 47 58
ATOM     58  CB  ARG E1022     -45.976  21.052  -6.250  1.00 44.33 LIG 0.04  C 
BRANCH 58 59
ATOM     59  CG  ARG E1022     -46.731  19.975  -7.021  1.00 47.73 LIG 0.02  C 
BRANCH 59 60
ATOM     60  CD  ARG E1022     -45.877  19.277  -8.058  1.00 47.87 LIG 0.14  C 
BRANCH 60 61
ATOM     61  NE  ARG E1022     -46.191  17.850  -8.111  1.00 55.98 LIG-0.23  N 
ATOM     62  CZ  ARG E1022     -45.312  16.853  -8.164  1.00 56.00 LIG 0.67  C 
ATOM     63  NH1 ARG E1022     -44.007  17.100  -8.147  1.00 48.69 LIG-0.23  N 
ATOM     64  NH2 ARG E1022     -45.731  15.597  -8.202  1.00 32.20 LIG-0.23  N 
ATOM     65 1HH1 ARG E1022     -43.724  17.911  -8.100  1.00 48.69 LIG 0.17  HD
ATOM     66 2HH1 ARG E1022     -43.446  16.449  -8.182  1.00 48.69 LIG 0.17  HD
ATOM     67 2HH2 ARG E1022     -45.160  14.954  -8.237  1.00 32.20 LIG 0.17  HD
ATOM     68 1HH2 ARG E1022     -46.574  15.424  -8.192  1.00 32.20 LIG 0.17  HD
ATOM     69 HE   ARG E1022     -47.024  17.635  -8.107  1.00 55.98 LIG 0.18  HD
ENDBRANCH 60 61
ENDBRANCH 59 60
ENDBRANCH 58 59
ENDBRANCH 47 58
ENDBRANCH 44 47
ENDBRANCH 42 43
BRANCH 42 70
ATOM     70  CB  ILE E1023     -45.898  23.592  -1.283  1.00 38.78 LIG 0.01  C 
ATOM     71  CG2 ILE E1023     -44.720  22.736  -1.770  1.00 39.01 LIG 0.01  C 
BRANCH 70 72
ATOM     72  CG1 ILE E1023     -45.593  25.112  -1.431  1.00 39.61 LIG 0.00  C 
ATOM     73  CD1 ILE E1023     -46.096  26.030  -0.345  1.00 43.21 LIG 0.01  C 
ENDBRANCH 70 72
ENDBRANCH 42 70
ENDBRANCH 1 42
TORSDOF 26
ENDMDL
MODEL 80
USER: ADFR SOLUTION from run 143
USER: SCORE 22.151544 LL:  -6.188 LR: -17.442 RR:   0.000 FEB:  -9.686
USER: RMSD 11.494108
USER: SEED 142
USER: STATUS no improvement in best in 7 clusters for 5 generations
USER: GENES 28
USER: genes 0 Translation |==|  0.53253 0.59276 0.51593
USER: genes 1 Rotation |==|  0.81969 0.88304 0.49895 0.53281
USER: genes 2 Torsion [N]-CA--C-[O] |==|  0.18904
USER: genes 3 Torsion [C]-N--CA-[CB] |==|  0.19487
USER: genes 4 Torsion [N]-CA--C-[N] |==|  0.96137
USER: genes 5 Torsion [C]-N--CA-[C] |==|  0.73432
USER: genes 6 Torsion [N]-CA--CB-[CG] |==|  0.98400
USER: genes 7 Torsion [CA]-CB--CG-[CD1] |==|  0.22281
USER: genes 8 Torsion [N]-CA--C-[N] |==|  0.94510
USER: genes 9 Torsion [C]-N--CA-[C] |==|  0.11783
USER: genes 10 Torsion [N]-CA--CB-[CG] |==|  0.79660
USER: genes 11 Torsion [CA]-CB--CG-[OD1] |==|  0.38405
USER: genes 12 Torsion [N]-CA--C-[O] |==|  0.70867
USER: genes 13 Torsion [N]-CA--CB-[CG2] |==|  0.27514
USER: genes 14 Torsion [CA]-CB--CG1-[CD1] |==|  0.95527
USER: genes 15 Torsion [N]-C--CA-[N] |==|  0.27979
USER: genes 16 Torsion [C]-CA--N-[C] |==|  0.55291
USER: genes 17 Torsion [N]-C--CA-[N] |==|  0.29066
USER: genes 18 Torsion [C]-CA--N-[C] |==|  0.75965
USER: genes 19 Torsion [N]-C--CA-[N] |==|  0.46554
USER: genes 20 Torsion [C]-CA--CB-[CG1] |==|  0.98842
USER: genes 21 Torsion [CA]-CB--CG1-[CD1] |==|  0.41540
USER: genes 22 Torsion [C]-CA--CB-[CG] |==|  0.07470
USER: genes 23 Torsion [CA]-CB--CG-[CD] |==|  0.21023
USER: genes 24 Torsion [CB]-CG--CD-[NE] |==|  0.00448
USER: genes 25 Torsion [CG]-CD--NE-[CZ] |==|  0.60943
USER: genes 26 Torsion [C]-CA--CB-[CG1] |==|  0.43022
USER: genes 27 Torsion [CA]-CB--CG1-[CD1] |==|  0.67996
ROOT
ATOM      1  C   ILE E1023     -47.868  27.187   0.912  1.00 40.02 LIG 0.24  C 
ATOM      2 O    ILE E1023     -46.709  27.472   1.248  1.00 38.38 LIG-0.27  OA
ATOM      3  N   PRO E1024     -48.169  26.129   0.118  1.00 37.38 LIG-0.34  N 
ATOM      4  CA  PRO E1024     -47.080  25.354  -0.494  1.00 36.67 LIG 0.18  C 
ATOM      5  CB  PRO E1024     -47.776  24.084  -0.980  1.00 38.74 LIG 0.04  C 
ATOM      6  CG  PRO E1024     -49.174  24.495  -1.247  1.00 43.33 LIG 0.02  C 
ATOM      7  CD  PRO E1024     -49.492  25.668  -0.364  1.00 39.42 LIG 0.13  C 
ENDROOT
BRANCH 4 8
ATOM      8  C   PRO E1024     -46.490  26.157  -1.646  1.00 39.60 LIG 0.24  C 
ATOM      9 O    PRO E1024     -45.868  27.189  -1.399  1.00 37.18 LIG-0.27  OA
ATOM     10  N   ILE E1025     -46.659  25.657  -2.888  1.00 37.20 LIG-0.35  N 
ATOM     11 H    ILE E1025     -47.093  24.927  -3.022  1.00 37.20 LIG 0.16  HD
BRANCH 10 12
ATOM     12  CA  ILE E1025     -46.161  26.241  -4.141  1.00 37.42 LIG 0.18  C 
BRANCH 12 13
ATOM     13  C   ILE E1025     -46.668  25.451  -5.345  1.00 40.88 LIG 0.24  C 
ATOM     14 O    ILE E1025     -46.750  26.017  -6.437  1.00 40.29 LIG-0.27  OA
ATOM     15  N   PHE E1026     -47.211  24.238  -5.120  1.00 36.23 LIG-0.35  N 
ATOM     16 H    PHE E1026     -47.157  23.815  -4.373  1.00 36.23 LIG 0.16  HD
BRANCH 15 17
ATOM     17  CA  PHE E1026     -47.956  23.535  -6.172  1.00 36.58 LIG 0.18  C 
BRANCH 17 18
ATOM     18  CB  PHE E1026     -47.674  22.036  -6.156  1.00 38.58 LIG 0.07  C 
BRANCH 18 19
ATOM     19  CG  PHE E1026     -46.607  21.664  -5.169  1.00 40.24 LIG-0.06  A 
ATOM     20  CD1 PHE E1026     -46.903  21.538  -3.828  1.00 42.20 LIG 0.01  A 
ATOM     21  CE1 PHE E1026     -45.915  21.206  -2.917  1.00 42.54 LIG 0.00  A 
ATOM     22  CZ  PHE E1026     -44.629  20.996  -3.340  1.00 41.81 LIG 0.00  A 
ATOM     23  CE2 PHE E1026     -44.311  21.123  -4.666  1.00 44.36 LIG 0.00  A 
ATOM     24  CD2 PHE E1026     -45.296  21.461  -5.581  1.00 42.30 LIG 0.01  A 
ENDBRANCH 18 19
ENDBRANCH 17 18
BRANCH 17 25
ATOM     25  C   PHE E1026     -49.447  23.785  -6.038  1.00 38.60 LIG 0.24  C 
ATOM     26  N   ASN E1027     -49.872  24.213  -4.823  1.00 38.80 LIG-0.35  N 
ATOM     27 H    ASN E1027     -49.337  24.314  -4.158  1.00 38.80 LIG 0.16  HD
ATOM     28 O    PHE E1026     -50.179  23.657  -7.018  1.00 31.59 LIG-0.27  OA
BRANCH 26 29
ATOM     29  CA  ASN E1027     -51.263  24.548  -4.496  1.00 74.37 LIG 0.17  C 
BRANCH 29 30
ATOM     30  CB  ASN E1027     -51.615  25.932  -5.031  1.00 75.17 LIG 0.14  C 
BRANCH 30 31
ATOM     31  CG  ASN E1027     -50.981  27.052  -4.243  1.00 99.64 LIG 0.22  C 
ATOM     32  ND2 ASN E1027     -50.980  26.949  -2.917  1.00 92.55 LIG-0.37  N 
ATOM     33 22HD ASN E1027     -51.326  26.258  -2.540  1.00 92.55 LIG 0.16  HD
ATOM     34 21HD ASN E1027     -50.633  27.572  -2.437  1.00 92.55 LIG 0.16  HD
ATOM     35 OD1  ASN E1027     -50.493  28.030  -4.813  1.00 94.01 LIG-0.27  OA
ENDBRANCH 30 31
ENDBRANCH 29 30
BRANCH 29 36
ATOM     36  C   ASN E1027     -52.211  23.515  -5.101  1.00103.37 LIG 0.22  C 
ATOM     37 O    ASN E1027     -52.875  23.789  -6.097  1.00 69.20 LIG-0.29  OA
ENDBRANCH 29 36
ENDBRANCH 26 29
ENDBRANCH 17 25
ENDBRANCH 15 17
ENDBRANCH 12 13
BRANCH 12 38
ATOM     38  CB  ILE E1025     -44.578  26.086  -4.170  1.00 40.50 LIG 0.01  C 
ATOM     39  CG2 ILE E1025     -44.139  24.883  -5.016  1.00 43.95 LIG 0.01  C 
BRANCH 38 40
ATOM     40  CG1 ILE E1025     -43.856  27.358  -4.617  1.00 41.58 LIG 0.00  C 
ATOM     41  CD1 ILE E1025     -44.847  28.419  -5.348  1.00 52.05 LIG 0.01  C 
ENDBRANCH 38 40
ENDBRANCH 12 38
ENDBRANCH 10 12
ENDBRANCH 4 8
BRANCH 1 42
ATOM     42  CA  ILE E1023     -49.010  28.000   1.498  1.00 36.06 LIG 0.18  C 
BRANCH 42 43
ATOM     43  N   ILE E1023     -49.174  27.553   2.895  1.00 37.96 LIG-0.35  N 
ATOM     44  C   ARG E1022     -50.302  27.769   3.605  1.00 45.42 LIG 0.24  C 
ATOM     45 O    ARG E1022     -51.254  28.421   3.175  1.00 45.23 LIG-0.27  OA
ATOM     46 H    ILE E1023     -48.488  27.145   3.212  1.00 37.96 LIG 0.16  HD
BRANCH 44 47
ATOM     47  CA  ARG E1022     -50.371  27.241   5.038  1.00 45.59 LIG 0.18  C 
BRANCH 47 48
ATOM     48  N   ARG E1022     -50.219  28.297   6.053  1.00 48.30 LIG-0.35  N 
ATOM     49 H    ARG E1022     -50.961  28.628   6.336  1.00 48.30 LIG 0.16  HD
ATOM     50  C   ILE E1021     -49.003  28.694   6.488  1.00 57.51 LIG 0.26  C 
ATOM     51 O    ILE E1021     -47.948  28.200   6.069  1.00 59.03 LIG-0.27  OA
BRANCH 50 52
ATOM     52  CA  ILE E1021     -48.940  29.798   7.557  1.00 57.59 LIG 0.40  C 
ATOM     53  N   ILE E1021     -47.581  29.860   8.086  1.00 58.96 LIG 0.61  N 
BRANCH 52 54
ATOM     54  CB  ILE E1021     -49.275  31.206   6.988  1.00 60.58 LIG 0.03  C 
ATOM     55  CG2 ILE E1021     -48.224  32.254   7.346  1.00 61.37 LIG 0.01  C 
BRANCH 54 56
ATOM     56  CG1 ILE E1021     -49.485  31.138   5.456  1.00 60.59 LIG 0.00  C 
ATOM     57  CD1 ILE E1021     -50.449  32.152   4.964  1.00 60.15 LIG 0.01  C 
ENDBRANCH 54 56
ENDBRANCH 52 54
ENDBRANCH 50 52
ENDBRANCH 47 48
BRANCH 47 58
ATOM     58  CB  ARG E1022     -51.682  26.465   5.211  1.00 44.33 LIG 0.04  C 
BRANCH 58 59
ATOM     59  CG  ARG E1022     -52.204  25.872   3.908  1.00 47.73 LIG 0.02  C 
BRANCH 59 60
ATOM     60  CD  ARG E1022     -51.438  24.643   3.466  1.00 47.87 LIG 0.14  C 
BRANCH 60 61
ATOM     61  NE  ARG E1022     -50.397  24.306   4.436  1.00 55.98 LIG-0.23  N 
ATOM     62  CZ  ARG E1022     -49.171  23.873   4.155  1.00 56.00 LIG 0.67  C 
ATOM     63  NH1 ARG E1022     -48.775  23.733   2.895  1.00 48.69 LIG-0.23  N 
ATOM     64  NH2 ARG E1022     -48.317  23.608   5.133  1.00 32.20 LIG-0.23  N 
ATOM     65 1HH1 ARG E1022     -49.314  23.922   2.252  1.00 48.69 LIG 0.17  HD
ATOM     66 2HH1 ARG E1022     -47.981  23.452   2.722  1.00 48.69 LIG 0.17  HD
ATOM     67 2HH2 ARG E1022     -47.525  23.329   4.948  1.00 32.20 LIG 0.17  HD
ATOM     68 1HH2 ARG E1022     -48.555  23.717   5.952  1.00 32.20 LIG 0.17  HD
ATOM     69 HE   ARG E1022     -50.596  24.397   5.268  1.00 55.98 LIG 0.18  HD
ENDBRANCH 60 61
ENDBRANCH 59 60
ENDBRANCH 58 59
ENDBRANCH 47 58
ENDBRANCH 44 47
ENDBRANCH 42 43
BRANCH 42 70
ATOM     70  CB  ILE E1023     -48.678  29.524   1.375  1.00 38.78 LIG 0.01  C 
ATOM     71  CG2 ILE E1023     -47.776  29.786   0.160  1.00 39.01 LIG 0.01  C 
BRANCH 70 72
ATOM     72  CG1 ILE E1023     -49.944  30.431   1.348  1.00 39.61 LIG 0.00  C 
ATOM     73  CD1 ILE E1023     -50.213  31.209   0.083  1.00 43.21 LIG 0.01  C 
ENDBRANCH 70 72
ENDBRANCH 42 70
ENDBRANCH 1 42
TORSDOF 26
ENDMDL
MODEL 81
USER: ADFR SOLUTION from run 169
USER: SCORE 21.850115 LL:  -6.186 LR: -17.426 RR:   0.000 FEB:  -9.670
USER: RMSD 11.855887
USER: SEED 168
USER: STATUS no improvement in best in 2 clusters for 5 generations
USER: GENES 28
USER: genes 0 Translation |==|  0.53337 0.50379 0.42984
USER: genes 1 Rotation |==|  0.61542 0.95958 0.48193 0.65856
USER: genes 2 Torsion [N]-CA--C-[O] |==|  0.19856
USER: genes 3 Torsion [C]-N--CA-[CB] |==|  0.57778
USER: genes 4 Torsion [N]-CA--C-[N] |==|  0.24639
USER: genes 5 Torsion [C]-N--CA-[C] |==|  0.15478
USER: genes 6 Torsion [N]-CA--CB-[CG] |==|  0.62382
USER: genes 7 Torsion [CA]-CB--CG-[CD1] |==|  0.04225
USER: genes 8 Torsion [N]-CA--C-[N] |==|  0.55310
USER: genes 9 Torsion [C]-N--CA-[C] |==|  0.77592
USER: genes 10 Torsion [N]-CA--CB-[CG] |==|  0.72409
USER: genes 11 Torsion [CA]-CB--CG-[OD1] |==|  0.01759
USER: genes 12 Torsion [N]-CA--C-[O] |==|  0.97404
USER: genes 13 Torsion [N]-CA--CB-[CG2] |==|  0.66576
USER: genes 14 Torsion [CA]-CB--CG1-[CD1] |==|  0.24714
USER: genes 15 Torsion [N]-C--CA-[N] |==|  0.37878
USER: genes 16 Torsion [C]-CA--N-[C] |==|  0.82317
USER: genes 17 Torsion [N]-C--CA-[N] |==|  0.91002
USER: genes 18 Torsion [C]-CA--N-[C] |==|  0.67698
USER: genes 19 Torsion [N]-C--CA-[N] |==|  0.46228
USER: genes 20 Torsion [C]-CA--CB-[CG1] |==|  0.00412
USER: genes 21 Torsion [CA]-CB--CG1-[CD1] |==|  0.71778
USER: genes 22 Torsion [C]-CA--CB-[CG] |==|  0.36226
USER: genes 23 Torsion [CA]-CB--CG-[CD] |==|  0.70438
USER: genes 24 Torsion [CB]-CG--CD-[NE] |==|  0.31807
USER: genes 25 Torsion [CG]-CD--NE-[CZ] |==|  0.75218
USER: genes 26 Torsion [C]-CA--CB-[CG1] |==|  0.76489
USER: genes 27 Torsion [CA]-CB--CG1-[CD1] |==|  0.47438
ROOT
ATOM      1  C   ILE E1023     -47.855  25.118  -1.541  1.00 40.02 LIG 0.24  C 
ATOM      2 O    ILE E1023     -47.480  26.270  -1.276  1.00 38.38 LIG-0.27  OA
ATOM      3  N   PRO E1024     -46.997  24.083  -1.722  1.00 37.38 LIG-0.34  N 
ATOM      4  CA  PRO E1024     -45.550  24.342  -1.743  1.00 36.67 LIG 0.18  C 
ATOM      5  CB  PRO E1024     -44.937  22.952  -1.593  1.00 38.74 LIG 0.04  C 
ATOM      6  CG  PRO E1024     -45.940  22.030  -2.175  1.00 43.33 LIG 0.02  C 
ATOM      7  CD  PRO E1024     -47.293  22.668  -2.042  1.00 39.42 LIG 0.13  C 
ENDROOT
BRANCH 4 8
ATOM      8  C   PRO E1024     -45.183  24.987  -3.073  1.00 39.60 LIG 0.24  C 
ATOM      9 O    PRO E1024     -45.525  26.149  -3.290  1.00 37.18 LIG-0.27  OA
ATOM     10  N   ILE E1025     -44.461  24.241  -3.934  1.00 37.20 LIG-0.35  N 
ATOM     11 H    ILE E1025     -44.231  23.434  -3.745  1.00 37.20 LIG 0.16  HD
BRANCH 10 12
ATOM     12  CA  ILE E1025     -43.975  24.657  -5.257  1.00 37.42 LIG 0.18  C 
BRANCH 12 13
ATOM     13  C   ILE E1025     -45.001  25.546  -5.955  1.00 40.88 LIG 0.24  C 
ATOM     14 O    ILE E1025     -45.710  25.059  -6.837  1.00 40.29 LIG-0.27  OA
ATOM     15  N   PHE E1026     -44.937  26.874  -5.734  1.00 36.23 LIG-0.35  N 
ATOM     16 H    PHE E1026     -44.462  27.240  -5.118  1.00 36.23 LIG 0.16  HD
BRANCH 15 17
ATOM     17  CA  PHE E1026     -45.702  27.817  -6.561  1.00 36.58 LIG 0.18  C 
BRANCH 17 18
ATOM     18  CB  PHE E1026     -45.189  27.850  -7.998  1.00 38.58 LIG 0.07  C 
BRANCH 18 19
ATOM     19  CG  PHE E1026     -45.062  29.248  -8.528  1.00 40.24 LIG-0.06  A 
ATOM     20  CD1 PHE E1026     -45.087  30.330  -7.675  1.00 42.20 LIG 0.01  A 
ATOM     21  CE1 PHE E1026     -44.981  31.619  -8.167  1.00 42.54 LIG 0.00  A 
ATOM     22  CZ  PHE E1026     -44.850  31.834  -9.514  1.00 41.81 LIG 0.00  A 
ATOM     23  CE2 PHE E1026     -44.830  30.775 -10.382  1.00 44.36 LIG 0.00  A 
ATOM     24  CD2 PHE E1026     -44.941  29.483  -9.893  1.00 42.30 LIG 0.01  A 
ENDBRANCH 18 19
ENDBRANCH 17 18
BRANCH 17 25
ATOM     25  C   PHE E1026     -47.180  27.473  -6.545  1.00 38.60 LIG 0.24  C 
ATOM     26  N   ASN E1027     -47.923  27.992  -7.555  1.00 38.80 LIG-0.35  N 
ATOM     27 H    ASN E1027     -47.586  28.505  -8.157  1.00 38.80 LIG 0.16  HD
ATOM     28 O    PHE E1026     -47.622  26.713  -5.686  1.00 31.59 LIG-0.27  OA
BRANCH 26 29
ATOM     29  CA  ASN E1027     -49.358  27.749  -7.745  1.00 74.37 LIG 0.17  C 
BRANCH 29 30
ATOM     30  CB  ASN E1027     -49.973  28.852  -8.601  1.00 75.17 LIG 0.14  C 
BRANCH 30 31
ATOM     31  CG  ASN E1027     -50.686  29.906  -7.791  1.00 99.64 LIG 0.22  C 
ATOM     32  ND2 ASN E1027     -51.356  30.844  -8.454  1.00 92.55 LIG-0.37  N 
ATOM     33 22HD ASN E1027     -51.377  30.831  -9.313  1.00 92.55 LIG 0.16  HD
ATOM     34 21HD ASN E1027     -51.768  31.464  -8.023  1.00 92.55 LIG 0.16  HD
ATOM     35 OD1  ASN E1027     -50.637  29.898  -6.559  1.00 94.01 LIG-0.27  OA
ENDBRANCH 30 31
ENDBRANCH 29 30
BRANCH 29 36
ATOM     36  C   ASN E1027     -49.579  26.398  -8.423  1.00103.37 LIG 0.22  C 
ATOM     37 O    ASN E1027     -48.629  25.769  -8.878  1.00 69.20 LIG-0.29  OA
ENDBRANCH 29 36
ENDBRANCH 26 29
ENDBRANCH 17 25
ENDBRANCH 15 17
ENDBRANCH 12 13
BRANCH 12 38
ATOM     38  CB  ILE E1025     -43.846  23.361  -6.172  1.00 40.50 LIG 0.01  C 
ATOM     39  CG2 ILE E1025     -42.408  23.154  -6.667  1.00 43.95 LIG 0.01  C 
BRANCH 38 40
ATOM     40  CG1 ILE E1025     -44.378  22.094  -5.503  1.00 41.58 LIG 0.00  C 
ATOM     41  CD1 ILE E1025     -45.963  21.857  -5.778  1.00 52.05 LIG 0.01  C 
ENDBRANCH 38 40
ENDBRANCH 12 38
ENDBRANCH 10 12
ENDBRANCH 4 8
BRANCH 1 42
ATOM     42  CA  ILE E1023     -49.347  24.833  -1.568  1.00 36.06 LIG 0.18  C 
BRANCH 42 43
ATOM     43  N   ILE E1023     -49.942  25.588  -0.448  1.00 37.96 LIG-0.35  N 
ATOM     44  C   ARG E1022     -49.642  25.342   0.845  1.00 45.42 LIG 0.24  C 
ATOM     45 O    ARG E1022     -48.908  24.419   1.201  1.00 45.23 LIG-0.27  OA
ATOM     46 H    ILE E1023     -50.496  26.197  -0.696  1.00 37.96 LIG 0.16  HD
BRANCH 44 47
ATOM     47  CA  ARG E1022     -50.302  26.203   1.922  1.00 45.59 LIG 0.18  C 
BRANCH 47 48
ATOM     48  N   ARG E1022     -50.557  27.585   1.483  1.00 48.30 LIG-0.35  N 
ATOM     49 H    ARG E1022     -51.115  27.655   0.833  1.00 48.30 LIG 0.16  HD
ATOM     50  C   ILE E1021     -49.950  28.640   2.072  1.00 57.51 LIG 0.26  C 
ATOM     51 O    ILE E1021     -49.153  28.516   3.010  1.00 59.03 LIG-0.27  OA
BRANCH 50 52
ATOM     52  CA  ILE E1021     -50.284  30.049   1.554  1.00 57.59 LIG 0.40  C 
ATOM     53  N   ILE E1021     -49.789  31.030   2.516  1.00 58.96 LIG 0.61  N 
BRANCH 52 54
ATOM     54  CB  ILE E1021     -49.608  30.364   0.190  1.00 60.58 LIG 0.03  C 
ATOM     55  CG2 ILE E1021     -48.733  31.614   0.237  1.00 61.37 LIG 0.01  C 
BRANCH 54 56
ATOM     56  CG1 ILE E1021     -48.796  29.144  -0.310  1.00 60.59 LIG 0.00  C 
ATOM     57  CD1 ILE E1021     -47.338  29.290  -0.077  1.00 60.15 LIG 0.01  C 
ENDBRANCH 54 56
ENDBRANCH 52 54
ENDBRANCH 50 52
ENDBRANCH 47 48
BRANCH 47 58
ATOM     58  CB  ARG E1022     -51.585  25.505   2.389  1.00 44.33 LIG 0.04  C 
BRANCH 58 59
ATOM     59  CG  ARG E1022     -51.690  25.395   3.905  1.00 47.73 LIG 0.02  C 
BRANCH 59 60
ATOM     60  CD  ARG E1022     -51.451  23.990   4.417  1.00 47.87 LIG 0.14  C 
BRANCH 60 61
ATOM     61  NE  ARG E1022     -50.235  23.935   5.226  1.00 55.98 LIG-0.23  N 
ATOM     62  CZ  ARG E1022     -49.004  23.697   4.780  1.00 56.00 LIG 0.67  C 
ATOM     63  NH1 ARG E1022     -48.779  23.506   3.485  1.00 48.69 LIG-0.23  N 
ATOM     64  NH2 ARG E1022     -47.981  23.680   5.622  1.00 32.20 LIG-0.23  N 
ATOM     65 1HH1 ARG E1022     -49.433  23.536   2.926  1.00 48.69 LIG 0.17  HD
ATOM     66 2HH1 ARG E1022     -47.981  23.353   3.205  1.00 48.69 LIG 0.17  HD
ATOM     67 2HH2 ARG E1022     -47.187  23.526   5.331  1.00 32.20 LIG 0.17  HD
ATOM     68 1HH2 ARG E1022     -48.112  23.824   6.460  1.00 32.20 LIG 0.17  HD
ATOM     69 HE   ARG E1022     -50.323  24.070   6.071  1.00 55.98 LIG 0.18  HD
ENDBRANCH 60 61
ENDBRANCH 59 60
ENDBRANCH 58 59
ENDBRANCH 47 58
ENDBRANCH 44 47
ENDBRANCH 42 43
BRANCH 42 70
ATOM     70  CB  ILE E1023     -49.929  25.241  -2.961  1.00 38.78 LIG 0.01  C 
ATOM     71  CG2 ILE E1023     -51.125  24.351  -3.331  1.00 39.01 LIG 0.01  C 
BRANCH 70 72
ATOM     72  CG1 ILE E1023     -50.297  26.752  -3.060  1.00 39.61 LIG 0.00  C 
ATOM     73  CD1 ILE E1023     -50.663  27.290  -4.421  1.00 43.21 LIG 0.01  C 
ENDBRANCH 70 72
ENDBRANCH 42 70
ENDBRANCH 1 42
TORSDOF 26
ENDMDL
MODEL 82
USER: ADFR SOLUTION from run 152
USER: SCORE 22.933269 LL:  -6.323 LR: -17.417 RR:   0.000 FEB:  -9.661
USER: RMSD 3.687266
USER: SEED 151
USER: STATUS no improvement in best in 8 clusters for 5 generations
USER: GENES 28
USER: genes 0 Translation |==|  0.47943 0.50684 0.41946
USER: genes 1 Rotation |==|  0.50566 0.49122 0.58680 0.99230
USER: genes 2 Torsion [N]-CA--C-[O] |==|  0.79654
USER: genes 3 Torsion [C]-N--CA-[CB] |==|  0.55000
USER: genes 4 Torsion [N]-CA--C-[N] |==|  0.34861
USER: genes 5 Torsion [C]-N--CA-[C] |==|  0.83173
USER: genes 6 Torsion [N]-CA--CB-[CG] |==|  0.36724
USER: genes 7 Torsion [CA]-CB--CG-[CD1] |==|  0.74645
USER: genes 8 Torsion [N]-CA--C-[N] |==|  0.87382
USER: genes 9 Torsion [C]-N--CA-[C] |==|  0.86060
USER: genes 10 Torsion [N]-CA--CB-[CG] |==|  0.55174
USER: genes 11 Torsion [CA]-CB--CG-[OD1] |==|  0.83096
USER: genes 12 Torsion [N]-CA--C-[O] |==|  0.93469
USER: genes 13 Torsion [N]-CA--CB-[CG2] |==|  0.47931
USER: genes 14 Torsion [CA]-CB--CG1-[CD1] |==|  0.75148
USER: genes 15 Torsion [N]-C--CA-[N] |==|  0.34284
USER: genes 16 Torsion [C]-CA--N-[C] |==|  0.66625
USER: genes 17 Torsion [N]-C--CA-[N] |==|  0.87650
USER: genes 18 Torsion [C]-CA--N-[C] |==|  0.83044
USER: genes 19 Torsion [N]-C--CA-[N] |==|  0.47292
USER: genes 20 Torsion [C]-CA--CB-[CG1] |==|  0.21992
USER: genes 21 Torsion [CA]-CB--CG1-[CD1] |==|  0.16316
USER: genes 22 Torsion [C]-CA--CB-[CG] |==|  0.00632
USER: genes 23 Torsion [CA]-CB--CG-[CD] |==|  0.30348
USER: genes 24 Torsion [CB]-CG--CD-[NE] |==|  0.64782
USER: genes 25 Torsion [CG]-CD--NE-[CZ] |==|  0.29454
USER: genes 26 Torsion [C]-CA--CB-[CG1] |==|  0.38571
USER: genes 27 Torsion [CA]-CB--CG1-[CD1] |==|  0.92043
ROOT
ATOM      1  C   ILE E1023     -48.665  25.189  -1.837  1.00 40.02 LIG 0.24  C 
ATOM      2 O    ILE E1023     -49.032  26.352  -2.060  1.00 38.38 LIG-0.27  OA
ATOM      3  N   PRO E1024     -49.349  24.338  -1.032  1.00 37.38 LIG-0.34  N 
ATOM      4  CA  PRO E1024     -50.504  24.837  -0.271  1.00 36.67 LIG 0.18  C 
ATOM      5  CB  PRO E1024     -51.201  23.562   0.196  1.00 38.74 LIG 0.04  C 
ATOM      6  CG  PRO E1024     -50.121  22.552   0.292  1.00 43.33 LIG 0.02  C 
ATOM      7  CD  PRO E1024     -49.036  22.936  -0.673  1.00 39.42 LIG 0.13  C 
ENDROOT
BRANCH 4 8
ATOM      8  C   PRO E1024     -50.000  25.673   0.899  1.00 39.60 LIG 0.24  C 
ATOM      9 O    PRO E1024     -49.485  25.106   1.861  1.00 37.18 LIG-0.27  OA
ATOM     10  N   ILE E1025     -50.121  27.012   0.788  1.00 37.20 LIG-0.35  N 
ATOM     11 H    ILE E1025     -50.479  27.374   0.095  1.00 37.20 LIG 0.16  HD
BRANCH 10 12
ATOM     12  CA  ILE E1025     -49.688  28.013   1.773  1.00 37.42 LIG 0.18  C 
BRANCH 12 13
ATOM     13  C   ILE E1025     -50.141  27.622   3.177  1.00 40.88 LIG 0.24  C 
ATOM     14 O    ILE E1025     -51.347  27.589   3.427  1.00 40.29 LIG-0.27  OA
ATOM     15  N   PHE E1026     -49.203  27.544   4.143  1.00 36.23 LIG-0.35  N 
ATOM     16 H    PHE E1026     -48.356  27.551   3.996  1.00 36.23 LIG 0.16  HD
BRANCH 15 17
ATOM     17  CA  PHE E1026     -49.581  27.439   5.558  1.00 36.58 LIG 0.18  C 
BRANCH 17 18
ATOM     18  CB  PHE E1026     -48.359  27.274   6.456  1.00 38.58 LIG 0.07  C 
BRANCH 18 19
ATOM     19  CG  PHE E1026     -48.386  28.201   7.636  1.00 40.24 LIG-0.06  A 
ATOM     20  CD1 PHE E1026     -47.800  29.447   7.566  1.00 42.20 LIG 0.01  A 
ATOM     21  CE1 PHE E1026     -47.815  30.296   8.659  1.00 42.54 LIG 0.00  A 
ATOM     22  CZ  PHE E1026     -48.416  29.905   9.827  1.00 41.81 LIG 0.00  A 
ATOM     23  CE2 PHE E1026     -48.998  28.669   9.922  1.00 44.36 LIG 0.00  A 
ATOM     24  CD2 PHE E1026     -48.980  27.814   8.831  1.00 42.30 LIG 0.01  A 
ENDBRANCH 18 19
ENDBRANCH 17 18
BRANCH 17 25
ATOM     25  C   PHE E1026     -50.388  28.649   5.994  1.00 38.60 LIG 0.24  C 
ATOM     26  N   ASN E1027     -49.909  29.856   5.602  1.00 38.80 LIG-0.35  N 
ATOM     27 H    ASN E1027     -49.179  29.938   5.154  1.00 38.80 LIG 0.16  HD
ATOM     28 O    PHE E1026     -51.440  28.492   6.609  1.00 31.59 LIG-0.27  OA
BRANCH 26 29
ATOM     29  CA  ASN E1027     -50.557  31.142   5.884  1.00 74.37 LIG 0.17  C 
BRANCH 29 30
ATOM     30  CB  ASN E1027     -49.867  32.264   5.113  1.00 75.17 LIG 0.14  C 
BRANCH 30 31
ATOM     31  CG  ASN E1027     -50.162  33.635   5.669  1.00 99.64 LIG 0.22  C 
ATOM     32  ND2 ASN E1027     -49.135  34.350   6.120  1.00 92.55 LIG-0.37  N 
ATOM     33 22HD ASN E1027     -48.338  34.030   6.082  1.00 92.55 LIG 0.16  HD
ATOM     34 21HD ASN E1027     -49.268  35.133   6.449  1.00 92.55 LIG 0.16  HD
ATOM     35 OD1  ASN E1027     -51.316  34.067   5.709  1.00 94.01 LIG-0.27  OA
ENDBRANCH 30 31
ENDBRANCH 29 30
BRANCH 29 36
ATOM     36  C   ASN E1027     -52.031  31.087   5.489  1.00103.37 LIG 0.22  C 
ATOM     37 O    ASN E1027     -52.419  30.280   4.649  1.00 69.20 LIG-0.29  OA
ENDBRANCH 29 36
ENDBRANCH 26 29
ENDBRANCH 17 25
ENDBRANCH 15 17
ENDBRANCH 12 13
BRANCH 12 38
ATOM     38  CB  ILE E1025     -50.433  29.383   1.455  1.00 40.50 LIG 0.01  C 
ATOM     39  CG2 ILE E1025     -50.180  30.435   2.543  1.00 43.95 LIG 0.01  C 
BRANCH 38 40
ATOM     40  CG1 ILE E1025     -50.102  29.942   0.071  1.00 41.58 LIG 0.00  C 
ATOM     41  CD1 ILE E1025     -48.806  30.923   0.083  1.00 52.05 LIG 0.01  C 
ENDBRANCH 38 40
ENDBRANCH 12 38
ENDBRANCH 10 12
ENDBRANCH 4 8
BRANCH 1 42
ATOM     42  CA  ILE E1023     -47.448  24.663  -2.579  1.00 36.06 LIG 0.18  C 
BRANCH 42 43
ATOM     43  N   ILE E1023     -47.687  24.909  -4.014  1.00 37.96 LIG-0.35  N 
ATOM     44  C   ARG E1022     -47.730  23.919  -4.931  1.00 45.42 LIG 0.24  C 
ATOM     45 O    ARG E1022     -47.499  22.741  -4.660  1.00 45.23 LIG-0.27  OA
ATOM     46 H    ILE E1023     -47.795  25.739  -4.210  1.00 37.96 LIG 0.16  HD
BRANCH 44 47
ATOM     47  CA  ARG E1022     -48.009  24.289  -6.388  1.00 45.59 LIG 0.18  C 
BRANCH 47 48
ATOM     48  N   ARG E1022     -49.105  25.261  -6.540  1.00 48.30 LIG-0.35  N 
ATOM     49 H    ARG E1022     -48.874  26.002  -6.909  1.00 48.30 LIG 0.16  HD
ATOM     50  C   ILE E1021     -50.361  24.984  -6.126  1.00 57.51 LIG 0.26  C 
ATOM     51 O    ILE E1021     -50.671  23.907  -5.601  1.00 59.03 LIG-0.27  OA
BRANCH 50 52
ATOM     52  CA  ILE E1021     -51.445  26.055  -6.333  1.00 57.59 LIG 0.40  C 
ATOM     53  N   ILE E1021     -52.747  25.466  -6.035  1.00 58.96 LIG 0.61  N 
BRANCH 52 54
ATOM     54  CB  ILE E1021     -51.269  27.279  -5.391  1.00 60.58 LIG 0.03  C 
ATOM     55  CG2 ILE E1021     -50.977  26.878  -3.948  1.00 61.37 LIG 0.01  C 
BRANCH 54 56
ATOM     56  CG1 ILE E1021     -50.170  28.228  -5.931  1.00 60.59 LIG 0.00  C 
ATOM     57  CD1 ILE E1021     -50.467  28.732  -7.294  1.00 60.15 LIG 0.01  C 
ENDBRANCH 54 56
ENDBRANCH 52 54
ENDBRANCH 50 52
ENDBRANCH 47 48
BRANCH 47 58
ATOM     58  CB  ARG E1022     -46.706  24.791  -7.022  1.00 44.33 LIG 0.04  C 
BRANCH 58 59
ATOM     59  CG  ARG E1022     -45.516  24.733  -6.073  1.00 47.73 LIG 0.02  C 
BRANCH 59 60
ATOM     60  CD  ARG E1022     -44.511  23.661  -6.445  1.00 47.87 LIG 0.14  C 
BRANCH 60 61
ATOM     61  NE  ARG E1022     -44.241  22.789  -5.304  1.00 55.98 LIG-0.23  N 
ATOM     62  CZ  ARG E1022     -44.675  21.541  -5.147  1.00 56.00 LIG 0.67  C 
ATOM     63  NH1 ARG E1022     -45.411  20.958  -6.088  1.00 48.69 LIG-0.23  N 
ATOM     64  NH2 ARG E1022     -44.351  20.853  -4.063  1.00 32.20 LIG-0.23  N 
ATOM     65 1HH1 ARG E1022     -45.609  21.388  -6.806  1.00 48.69 LIG 0.17  HD
ATOM     66 2HH1 ARG E1022     -45.688  20.152  -5.978  1.00 48.69 LIG 0.17  HD
ATOM     67 2HH2 ARG E1022     -44.634  20.047  -3.964  1.00 32.20 LIG 0.17  HD
ATOM     68 1HH2 ARG E1022     -43.857  21.213  -3.457  1.00 32.20 LIG 0.17  HD
ATOM     69 HE   ARG E1022     -43.753  23.113  -4.674  1.00 55.98 LIG 0.18  HD
ENDBRANCH 60 61
ENDBRANCH 59 60
ENDBRANCH 58 59
ENDBRANCH 47 58
ENDBRANCH 44 47
ENDBRANCH 42 43
BRANCH 42 70
ATOM     70  CB  ILE E1023     -46.163  25.374  -2.039  1.00 38.78 LIG 0.01  C 
ATOM     71  CG2 ILE E1023     -46.467  26.127  -0.736  1.00 39.01 LIG 0.01  C 
BRANCH 70 72
ATOM     72  CG1 ILE E1023     -44.950  24.411  -1.867  1.00 39.61 LIG 0.00  C 
ATOM     73  CD1 ILE E1023     -45.250  22.962  -1.573  1.00 43.21 LIG 0.01  C 
ENDBRANCH 70 72
ENDBRANCH 42 70
ENDBRANCH 1 42
TORSDOF 26
ENDMDL
MODEL 83
USER: ADFR SOLUTION from run 104
USER: SCORE 22.468038 LL:  -6.413 LR: -17.412 RR:   0.000 FEB:  -9.657
USER: RMSD 12.656798
USER: SEED 103
USER: STATUS no improvement in best in 14 clusters for 5 generations
USER: GENES 28
USER: genes 0 Translation |==|  0.38749 0.56552 0.67248
USER: genes 1 Rotation |==|  0.05272 0.69202 0.49274 0.61411
USER: genes 2 Torsion [N]-CA--C-[O] |==|  0.27786
USER: genes 3 Torsion [C]-N--CA-[CB] |==|  0.55904
USER: genes 4 Torsion [N]-CA--C-[N] |==|  0.39323
USER: genes 5 Torsion [C]-N--CA-[C] |==|  0.19361
USER: genes 6 Torsion [N]-CA--CB-[CG] |==|  0.54842
USER: genes 7 Torsion [CA]-CB--CG-[CD1] |==|  0.06057
USER: genes 8 Torsion [N]-CA--C-[N] |==|  0.04877
USER: genes 9 Torsion [C]-N--CA-[C] |==|  0.61449
USER: genes 10 Torsion [N]-CA--CB-[CG] |==|  0.79765
USER: genes 11 Torsion [CA]-CB--CG-[OD1] |==|  0.71196
USER: genes 12 Torsion [N]-CA--C-[O] |==|  0.98903
USER: genes 13 Torsion [N]-CA--CB-[CG2] |==|  0.41632
USER: genes 14 Torsion [CA]-CB--CG1-[CD1] |==|  0.04419
USER: genes 15 Torsion [N]-C--CA-[N] |==|  0.17052
USER: genes 16 Torsion [C]-CA--N-[C] |==|  0.69371
USER: genes 17 Torsion [N]-C--CA-[N] |==|  0.23814
USER: genes 18 Torsion [C]-CA--N-[C] |==|  0.76667
USER: genes 19 Torsion [N]-C--CA-[N] |==|  0.46853
USER: genes 20 Torsion [C]-CA--CB-[CG1] |==|  0.74728
USER: genes 21 Torsion [CA]-CB--CG1-[CD1] |==|  0.56562
USER: genes 22 Torsion [C]-CA--CB-[CG] |==|  0.24577
USER: genes 23 Torsion [CA]-CB--CG-[CD] |==|  0.64275
USER: genes 24 Torsion [CB]-CG--CD-[NE] |==|  0.44880
USER: genes 25 Torsion [CG]-CD--NE-[CZ] |==|  0.33401
USER: genes 26 Torsion [C]-CA--CB-[CG1] |==|  0.62457
USER: genes 27 Torsion [CA]-CB--CG1-[CD1] |==|  0.64563
ROOT
ATOM      1  C   ILE E1023     -50.044  26.553   5.374  1.00 40.02 LIG 0.24  C 
ATOM      2 O    ILE E1023     -50.889  25.697   5.076  1.00 38.38 LIG-0.27  OA
ATOM      3  N   PRO E1024     -50.132  27.848   4.979  1.00 37.38 LIG-0.34  N 
ATOM      4  CA  PRO E1024     -51.195  28.246   4.044  1.00 36.67 LIG 0.18  C 
ATOM      5  CB  PRO E1024     -51.197  29.770   4.134  1.00 38.74 LIG 0.04  C 
ATOM      6  CG  PRO E1024     -49.808  30.131   4.504  1.00 43.33 LIG 0.02  C 
ATOM      7  CD  PRO E1024     -49.209  28.974   5.251  1.00 39.42 LIG 0.13  C 
ENDROOT
BRANCH 4 8
ATOM      8  C   PRO E1024     -50.832  27.758   2.647  1.00 39.60 LIG 0.24  C 
ATOM      9 O    PRO E1024     -51.353  26.730   2.219  1.00 37.18 LIG-0.27  OA
ATOM     10  N   ILE E1025     -49.971  28.519   1.940  1.00 37.20 LIG-0.35  N 
ATOM     11 H    ILE E1025     -49.634  29.238   2.269  1.00 37.20 LIG 0.16  HD
BRANCH 10 12
ATOM     12  CA  ILE E1025     -49.498  28.263   0.573  1.00 37.42 LIG 0.18  C 
BRANCH 12 13
ATOM     13  C   ILE E1025     -49.142  26.789   0.391  1.00 40.88 LIG 0.24  C 
ATOM     14 O    ILE E1025     -48.418  26.244   1.226  1.00 40.29 LIG-0.27  OA
ATOM     15  N   PHE E1026     -49.450  26.207  -0.785  1.00 36.23 LIG-0.35  N 
ATOM     16 H    PHE E1026     -49.963  26.558  -1.379  1.00 36.23 LIG 0.16  HD
BRANCH 15 17
ATOM     17  CA  PHE E1026     -48.912  24.887  -1.140  1.00 36.58 LIG 0.18  C 
BRANCH 17 18
ATOM     18  CB  PHE E1026     -47.391  24.850  -1.022  1.00 38.58 LIG 0.07  C 
BRANCH 18 19
ATOM     19  CG  PHE E1026     -46.787  23.690  -1.759  1.00 40.24 LIG-0.06  A 
ATOM     20  CD1 PHE E1026     -47.474  23.072  -2.782  1.00 42.20 LIG 0.01  A 
ATOM     21  CE1 PHE E1026     -46.920  21.996  -3.453  1.00 42.54 LIG 0.00  A 
ATOM     22  CZ  PHE E1026     -45.678  21.532  -3.106  1.00 41.81 LIG 0.00  A 
ATOM     23  CE2 PHE E1026     -44.981  22.126  -2.088  1.00 44.36 LIG 0.00  A 
ATOM     24  CD2 PHE E1026     -45.535  23.200  -1.410  1.00 42.30 LIG 0.01  A 
ENDBRANCH 18 19
ENDBRANCH 17 18
BRANCH 17 25
ATOM     25  C   PHE E1026     -49.527  23.802  -0.277  1.00 38.60 LIG 0.24  C 
ATOM     26  N   ASN E1027     -50.674  24.133   0.368  1.00 38.80 LIG-0.35  N 
ATOM     27 H    ASN E1027     -51.022  24.918   0.314  1.00 38.80 LIG 0.16  HD
ATOM     28 O    PHE E1026     -49.018  22.684  -0.245  1.00 31.59 LIG-0.27  OA
BRANCH 26 29
ATOM     29  CA  ASN E1027     -51.447  23.220   1.218  1.00 74.37 LIG 0.17  C 
BRANCH 29 30
ATOM     30  CB  ASN E1027     -51.148  23.484   2.690  1.00 75.17 LIG 0.14  C 
BRANCH 30 31
ATOM     31  CG  ASN E1027     -49.782  23.006   3.115  1.00 99.64 LIG 0.22  C 
ATOM     32  ND2 ASN E1027     -48.733  23.736   2.747  1.00 92.55 LIG-0.37  N 
ATOM     33 22HD ASN E1027     -48.848  24.455   2.289  1.00 92.55 LIG 0.16  HD
ATOM     34 21HD ASN E1027     -47.938  23.489   2.966  1.00 92.55 LIG 0.16  HD
ATOM     35 OD1  ASN E1027     -49.649  21.971   3.770  1.00 94.01 LIG-0.27  OA
ENDBRANCH 30 31
ENDBRANCH 29 30
BRANCH 29 36
ATOM     36  C   ASN E1027     -52.942  23.401   0.963  1.00103.37 LIG 0.22  C 
ATOM     37 O    ASN E1027     -53.340  24.272   0.195  1.00 69.20 LIG-0.29  OA
ENDBRANCH 29 36
ENDBRANCH 26 29
ENDBRANCH 17 25
ENDBRANCH 15 17
ENDBRANCH 12 13
BRANCH 12 38
ATOM     38  CB  ILE E1025     -48.135  29.056   0.358  1.00 40.50 LIG 0.01  C 
ATOM     39  CG2 ILE E1025     -47.211  28.342  -0.638  1.00 43.95 LIG 0.01  C 
BRANCH 38 40
ATOM     40  CG1 ILE E1025     -48.344  30.516  -0.044  1.00 41.58 LIG 0.00  C 
ATOM     41  CD1 ILE E1025     -49.860  31.033   0.235  1.00 52.05 LIG 0.01  C 
ENDBRANCH 38 40
ENDBRANCH 12 38
ENDBRANCH 10 12
ENDBRANCH 4 8
BRANCH 1 42
ATOM     42  CA  ILE E1023     -48.911  26.157   6.304  1.00 36.06 LIG 0.18  C 
BRANCH 42 43
ATOM     43  N   ILE E1023     -49.090  26.935   7.545  1.00 37.96 LIG-0.35  N 
ATOM     44  C   ARG E1022     -48.257  27.932   7.913  1.00 45.42 LIG 0.24  C 
ATOM     45 O    ARG E1022     -47.238  28.223   7.286  1.00 45.23 LIG-0.27  OA
ATOM     46 H    ILE E1023     -49.773  26.695   8.010  1.00 37.96 LIG 0.16  HD
BRANCH 44 47
ATOM     47  CA  ARG E1022     -48.554  28.687   9.209  1.00 45.59 LIG 0.18  C 
BRANCH 47 48
ATOM     48  N   ARG E1022     -47.994  28.032  10.403  1.00 48.30 LIG-0.35  N 
ATOM     49 H    ARG E1022     -47.231  28.340  10.652  1.00 48.30 LIG 0.16  HD
ATOM     50  C   ILE E1021     -48.647  27.032  11.035  1.00 57.51 LIG 0.26  C 
ATOM     51 O    ILE E1021     -49.747  26.608  10.660  1.00 59.03 LIG-0.27  OA
BRANCH 50 52
ATOM     52  CA  ILE E1021     -47.991  26.412  12.281  1.00 57.59 LIG 0.40  C 
ATOM     53  N   ILE E1021     -48.970  25.560  12.950  1.00 58.96 LIG 0.61  N 
BRANCH 52 54
ATOM     54  CB  ILE E1021     -46.767  25.519  11.934  1.00 60.58 LIG 0.03  C 
ATOM     55  CG2 ILE E1021     -45.655  25.607  12.976  1.00 61.37 LIG 0.01  C 
BRANCH 54 56
ATOM     56  CG1 ILE E1021     -47.207  24.050  11.722  1.00 60.59 LIG 0.00  C 
ATOM     57  CD1 ILE E1021     -46.104  23.083  11.943  1.00 60.15 LIG 0.01  C 
ENDBRANCH 54 56
ENDBRANCH 52 54
ENDBRANCH 50 52
ENDBRANCH 47 48
BRANCH 47 58
ATOM     58  CB  ARG E1022     -48.054  30.130   9.059  1.00 44.33 LIG 0.04  C 
BRANCH 58 59
ATOM     59  CG  ARG E1022     -49.095  31.066   8.459  1.00 47.73 LIG 0.02  C 
BRANCH 59 60
ATOM     60  CD  ARG E1022     -48.571  31.861   7.281  1.00 47.87 LIG 0.14  C 
BRANCH 60 61
ATOM     61  NE  ARG E1022     -49.675  32.394   6.486  1.00 55.98 LIG-0.23  N 
ATOM     62  CZ  ARG E1022     -49.917  33.679   6.237  1.00 56.00 LIG 0.67  C 
ATOM     63  NH1 ARG E1022     -49.106  34.622   6.704  1.00 48.69 LIG-0.23  N 
ATOM     64  NH2 ARG E1022     -50.954  34.030   5.492  1.00 32.20 LIG-0.23  N 
ATOM     65 1HH1 ARG E1022     -48.417  34.404   7.171  1.00 48.69 LIG 0.17  HD
ATOM     66 2HH1 ARG E1022     -49.269  35.450   6.539  1.00 48.69 LIG 0.17  HD
ATOM     67 2HH2 ARG E1022     -51.107  34.861   5.333  1.00 32.20 LIG 0.17  HD
ATOM     68 1HH2 ARG E1022     -51.474  33.427   5.166  1.00 32.20 LIG 0.17  HD
ATOM     69 HE   ARG E1022     -50.221  31.823   6.145  1.00 55.98 LIG 0.18  HD
ENDBRANCH 60 61
ENDBRANCH 59 60
ENDBRANCH 58 59
ENDBRANCH 47 58
ENDBRANCH 44 47
ENDBRANCH 42 43
BRANCH 42 70
ATOM     70  CB  ILE E1023     -48.948  24.611   6.539  1.00 38.78 LIG 0.01  C 
ATOM     71  CG2 ILE E1023     -47.930  23.900   5.635  1.00 39.01 LIG 0.01  C 
BRANCH 70 72
ATOM     72  CG1 ILE E1023     -48.759  24.207   8.032  1.00 39.61 LIG 0.00  C 
ATOM     73  CD1 ILE E1023     -47.688  23.192   8.346  1.00 43.21 LIG 0.01  C 
ENDBRANCH 70 72
ENDBRANCH 42 70
ENDBRANCH 1 42
TORSDOF 26
ENDMDL
MODEL 84
USER: ADFR SOLUTION from run 163
USER: SCORE 22.871441 LL:  -6.525 LR: -17.408 RR:   0.000 FEB:  -9.652
USER: RMSD 11.994349
USER: SEED 162
USER: STATUS no improvement in best in 21 clusters for 5 generations
USER: GENES 28
USER: genes 0 Translation |==|  0.53313 0.52307 0.42245
USER: genes 1 Rotation |==|  0.56618 0.96618 0.47100 0.66570
USER: genes 2 Torsion [N]-CA--C-[O] |==|  0.23976
USER: genes 3 Torsion [C]-N--CA-[CB] |==|  0.58662
USER: genes 4 Torsion [N]-CA--C-[N] |==|  0.31897
USER: genes 5 Torsion [C]-N--CA-[C] |==|  0.52778
USER: genes 6 Torsion [N]-CA--CB-[CG] |==|  0.62186
USER: genes 7 Torsion [CA]-CB--CG-[CD1] |==|  0.95449
USER: genes 8 Torsion [N]-CA--C-[N] |==|  0.42390
USER: genes 9 Torsion [C]-N--CA-[C] |==|  0.13031
USER: genes 10 Torsion [N]-CA--CB-[CG] |==|  0.54600
USER: genes 11 Torsion [CA]-CB--CG-[OD1] |==|  0.00241
USER: genes 12 Torsion [N]-CA--C-[O] |==|  0.40691
USER: genes 13 Torsion [N]-CA--CB-[CG2] |==|  0.67949
USER: genes 14 Torsion [CA]-CB--CG1-[CD1] |==|  0.21646
USER: genes 15 Torsion [N]-C--CA-[N] |==|  0.36190
USER: genes 16 Torsion [C]-CA--N-[C] |==|  0.81424
USER: genes 17 Torsion [N]-C--CA-[N] |==|  0.88353
USER: genes 18 Torsion [C]-CA--N-[C] |==|  0.72054
USER: genes 19 Torsion [N]-C--CA-[N] |==|  0.44983
USER: genes 20 Torsion [C]-CA--CB-[CG1] |==|  0.99039
USER: genes 21 Torsion [CA]-CB--CG1-[CD1] |==|  0.72701
USER: genes 22 Torsion [C]-CA--CB-[CG] |==|  0.40138
USER: genes 23 Torsion [CA]-CB--CG-[CD] |==|  0.87205
USER: genes 24 Torsion [CB]-CG--CD-[NE] |==|  0.80866
USER: genes 25 Torsion [CG]-CD--NE-[CZ] |==|  0.33059
USER: genes 26 Torsion [C]-CA--CB-[CG1] |==|  0.14537
USER: genes 27 Torsion [CA]-CB--CG1-[CD1] |==|  0.56862
ROOT
ATOM      1  C   ILE E1023     -47.859  25.566  -1.752  1.00 40.02 LIG 0.24  C 
ATOM      2 O    ILE E1023     -47.692  26.787  -1.615  1.00 38.38 LIG-0.27  OA
ATOM      3  N   PRO E1024     -46.832  24.683  -1.827  1.00 37.38 LIG-0.34  N 
ATOM      4  CA  PRO E1024     -45.452  25.185  -1.889  1.00 36.67 LIG 0.18  C 
ATOM      5  CB  PRO E1024     -44.609  23.947  -1.596  1.00 38.74 LIG 0.04  C 
ATOM      6  CG  PRO E1024     -45.431  22.807  -2.066  1.00 43.33 LIG 0.02  C 
ATOM      7  CD  PRO E1024     -46.875  23.211  -1.991  1.00 39.42 LIG 0.13  C 
ENDROOT
BRANCH 4 8
ATOM      8  C   PRO E1024     -45.189  25.737  -3.284  1.00 39.60 LIG 0.24  C 
ATOM      9 O    PRO E1024     -45.488  26.904  -3.532  1.00 37.18 LIG-0.27  OA
ATOM     10  N   ILE E1025     -44.600  24.905  -4.168  1.00 37.20 LIG-0.35  N 
ATOM     11 H    ILE E1025     -44.397  24.096  -3.956  1.00 37.20 LIG 0.16  HD
BRANCH 10 12
ATOM     12  CA  ILE E1025     -44.231  25.221  -5.555  1.00 37.42 LIG 0.18  C 
BRANCH 12 13
ATOM     13  C   ILE E1025     -45.231  26.196  -6.172  1.00 40.88 LIG 0.24  C 
ATOM     14 O    ILE E1025     -46.333  25.774  -6.526  1.00 40.29 LIG-0.27  OA
ATOM     15  N   PHE E1026     -44.789  27.424  -6.506  1.00 36.23 LIG-0.35  N 
ATOM     16 H    PHE E1026     -44.032  27.749  -6.262  1.00 36.23 LIG 0.16  HD
BRANCH 15 17
ATOM     17  CA  PHE E1026     -45.603  28.320  -7.339  1.00 36.58 LIG 0.18  C 
BRANCH 17 18
ATOM     18  CB  PHE E1026     -46.868  28.768  -6.614  1.00 38.58 LIG 0.07  C 
BRANCH 18 19
ATOM     19  CG  PHE E1026     -48.082  28.718  -7.495  1.00 40.24 LIG-0.06  A 
ATOM     20  CD1 PHE E1026     -47.954  28.633  -8.865  1.00 42.20 LIG 0.01  A 
ATOM     21  CE1 PHE E1026     -49.075  28.598  -9.676  1.00 42.54 LIG 0.00  A 
ATOM     22  CZ  PHE E1026     -50.327  28.648  -9.124  1.00 41.81 LIG 0.00  A 
ATOM     23  CE2 PHE E1026     -50.479  28.740  -7.766  1.00 44.36 LIG 0.00  A 
ATOM     24  CD2 PHE E1026     -49.359  28.780  -6.950  1.00 42.30 LIG 0.01  A 
ENDBRANCH 18 19
ENDBRANCH 17 18
BRANCH 17 25
ATOM     25  C   PHE E1026     -44.798  29.531  -7.776  1.00 38.60 LIG 0.24  C 
ATOM     26  N   ASN E1027     -45.177  30.107  -8.944  1.00 38.80 LIG-0.35  N 
ATOM     27 H    ASN E1027     -45.818  29.794  -9.425  1.00 38.80 LIG 0.16  HD
ATOM     28 O    PHE E1026     -43.907  29.966  -7.051  1.00 31.59 LIG-0.27  OA
BRANCH 26 29
ATOM     29  CA  ASN E1027     -44.558  31.305  -9.523  1.00 74.37 LIG 0.17  C 
BRANCH 29 30
ATOM     30  CB  ASN E1027     -44.981  32.548  -8.747  1.00 75.17 LIG 0.14  C 
BRANCH 30 31
ATOM     31  CG  ASN E1027     -44.722  33.832  -9.494  1.00 99.64 LIG 0.22  C 
ATOM     32  ND2 ASN E1027     -45.052  34.972  -8.893  1.00 92.55 LIG-0.37  N 
ATOM     33 22HD ASN E1027     -45.393  34.959  -8.104  1.00 92.55 LIG 0.16  HD
ATOM     34 21HD ASN E1027     -44.924  35.723  -9.294  1.00 92.55 LIG 0.16  HD
ATOM     35 OD1  ASN E1027     -44.231  33.819 -10.625  1.00 94.01 LIG-0.27  OA
ENDBRANCH 30 31
ENDBRANCH 29 30
BRANCH 29 36
ATOM     36  C   ASN E1027     -43.036  31.181  -9.490  1.00103.37 LIG 0.22  C 
ATOM     37 O    ASN E1027     -42.353  31.675 -10.384  1.00 69.20 LIG-0.29  OA
ENDBRANCH 29 36
ENDBRANCH 26 29
ENDBRANCH 17 25
ENDBRANCH 15 17
ENDBRANCH 12 13
BRANCH 12 38
ATOM     38  CB  ILE E1025     -44.348  23.891  -6.420  1.00 40.50 LIG 0.01  C 
ATOM     39  CG2 ILE E1025     -42.984  23.443  -6.963  1.00 43.95 LIG 0.01  C 
BRANCH 38 40
ATOM     40  CG1 ILE E1025     -45.039  22.747  -5.677  1.00 41.58 LIG 0.00  C 
ATOM     41  CD1 ILE E1025     -46.656  22.911  -5.637  1.00 52.05 LIG 0.01  C 
ENDBRANCH 38 40
ENDBRANCH 12 38
ENDBRANCH 10 12
ENDBRANCH 4 8
BRANCH 1 42
ATOM     42  CA  ILE E1023     -49.278  25.026  -1.735  1.00 36.06 LIG 0.18  C 
BRANCH 42 43
ATOM     43  N   ILE E1023     -49.965  25.676  -0.602  1.00 37.96 LIG-0.35  N 
ATOM     44  C   ARG E1022     -49.631  25.447   0.687  1.00 45.42 LIG 0.24  C 
ATOM     45 O    ARG E1022     -48.781  24.624   1.026  1.00 45.23 LIG-0.27  OA
ATOM     46 H    ILE E1023     -50.595  26.211  -0.838  1.00 37.96 LIG 0.16  HD
BRANCH 44 47
ATOM     47  CA  ARG E1022     -50.396  26.195   1.780  1.00 45.59 LIG 0.18  C 
BRANCH 47 48
ATOM     48  N   ARG E1022     -50.637  27.610   1.454  1.00 48.30 LIG-0.35  N 
ATOM     49 H    ARG E1022     -51.293  27.744   0.914  1.00 48.30 LIG 0.16  HD
ATOM     50  C   ILE E1021     -49.875  28.598   1.974  1.00 57.51 LIG 0.26  C 
ATOM     51 O    ILE E1021     -48.938  28.381   2.752  1.00 59.03 LIG-0.27  OA
BRANCH 50 52
ATOM     52  CA  ILE E1021     -50.206  30.049   1.585  1.00 57.59 LIG 0.40  C 
ATOM     53  N   ILE E1021     -49.582  30.946   2.553  1.00 58.96 LIG 0.61  N 
BRANCH 52 54
ATOM     54  CB  ILE E1021     -49.658  30.435   0.183  1.00 60.58 LIG 0.03  C 
ATOM     55  CG2 ILE E1021     -48.835  31.720   0.202  1.00 61.37 LIG 0.01  C 
BRANCH 54 56
ATOM     56  CG1 ILE E1021     -48.841  29.268  -0.423  1.00 60.59 LIG 0.00  C 
ATOM     57  CD1 ILE E1021     -47.379  29.433  -0.235  1.00 60.15 LIG 0.01  C 
ENDBRANCH 54 56
ENDBRANCH 52 54
ENDBRANCH 50 52
ENDBRANCH 47 48
BRANCH 47 58
ATOM     58  CB  ARG E1022     -51.701  25.442   2.065  1.00 44.33 LIG 0.04  C 
BRANCH 58 59
ATOM     59  CG  ARG E1022     -52.108  25.482   3.533  1.00 47.73 LIG 0.02  C 
BRANCH 59 60
ATOM     60  CD  ARG E1022     -50.960  25.184   4.476  1.00 47.87 LIG 0.14  C 
BRANCH 60 61
ATOM     61  NE  ARG E1022     -50.553  23.784   4.367  1.00 55.98 LIG-0.23  N 
ATOM     62  CZ  ARG E1022     -49.354  23.340   3.996  1.00 56.00 LIG 0.67  C 
ATOM     63  NH1 ARG E1022     -48.377  24.193   3.707  1.00 48.69 LIG-0.23  N 
ATOM     64  NH2 ARG E1022     -49.112  22.039   3.944  1.00 32.20 LIG-0.23  N 
ATOM     65 1HH1 ARG E1022     -48.517  25.040   3.758  1.00 48.69 LIG 0.17  HD
ATOM     66 2HH1 ARG E1022     -47.606  23.898   3.469  1.00 48.69 LIG 0.17  HD
ATOM     67 2HH2 ARG E1022     -48.336  21.756   3.705  1.00 32.20 LIG 0.17  HD
ATOM     68 1HH2 ARG E1022     -49.730  21.478   4.151  1.00 32.20 LIG 0.17  HD
ATOM     69 HE   ARG E1022     -51.144  23.190   4.561  1.00 55.98 LIG 0.18  HD
ENDBRANCH 60 61
ENDBRANCH 59 60
ENDBRANCH 58 59
ENDBRANCH 47 58
ENDBRANCH 44 47
ENDBRANCH 42 43
BRANCH 42 70
ATOM     70  CB  ILE E1023     -49.961  25.314  -3.113  1.00 38.78 LIG 0.01  C 
ATOM     71  CG2 ILE E1023     -50.312  26.804  -3.243  1.00 39.01 LIG 0.01  C 
BRANCH 70 72
ATOM     72  CG1 ILE E1023     -49.125  24.820  -4.332  1.00 39.61 LIG 0.00  C 
ATOM     73  CD1 ILE E1023     -49.355  25.507  -5.655  1.00 43.21 LIG 0.01  C 
ENDBRANCH 70 72
ENDBRANCH 42 70
ENDBRANCH 1 42
TORSDOF 26
ENDMDL
MODEL 85
USER: ADFR SOLUTION from run 103
USER: SCORE 21.190670 LL:  -6.071 LR: -17.392 RR:   0.000 FEB:  -9.636
USER: RMSD 12.685191
USER: SEED 102
USER: STATUS no improvement in best in 10 clusters for 5 generations
USER: GENES 28
USER: genes 0 Translation |==|  0.42763 0.57025 0.49633
USER: genes 1 Rotation |==|  0.91279 0.67378 0.66358 0.65048
USER: genes 2 Torsion [N]-CA--C-[O] |==|  0.26954
USER: genes 3 Torsion [C]-N--CA-[CB] |==|  0.20562
USER: genes 4 Torsion [N]-CA--C-[N] |==|  0.95391
USER: genes 5 Torsion [C]-N--CA-[C] |==|  0.64462
USER: genes 6 Torsion [N]-CA--CB-[CG] |==|  0.03307
USER: genes 7 Torsion [CA]-CB--CG-[CD1] |==|  0.70277
USER: genes 8 Torsion [N]-CA--C-[N] |==|  0.85348
USER: genes 9 Torsion [C]-N--CA-[C] |==|  0.51401
USER: genes 10 Torsion [N]-CA--CB-[CG] |==|  0.60454
USER: genes 11 Torsion [CA]-CB--CG-[OD1] |==|  0.99949
USER: genes 12 Torsion [N]-CA--C-[O] |==|  0.94581
USER: genes 13 Torsion [N]-CA--CB-[CG2] |==|  0.77270
USER: genes 14 Torsion [CA]-CB--CG1-[CD1] |==|  0.51488
USER: genes 15 Torsion [N]-C--CA-[N] |==|  0.45050
USER: genes 16 Torsion [C]-CA--N-[C] |==|  0.20173
USER: genes 17 Torsion [N]-C--CA-[N] |==|  0.40657
USER: genes 18 Torsion [C]-CA--N-[C] |==|  0.56905
USER: genes 19 Torsion [N]-C--CA-[N] |==|  0.42760
USER: genes 20 Torsion [C]-CA--CB-[CG1] |==|  0.04604
USER: genes 21 Torsion [CA]-CB--CG1-[CD1] |==|  0.48221
USER: genes 22 Torsion [C]-CA--CB-[CG] |==|  0.39027
USER: genes 23 Torsion [CA]-CB--CG-[CD] |==|  0.30126
USER: genes 24 Torsion [CB]-CG--CD-[NE] |==|  0.27451
USER: genes 25 Torsion [CG]-CD--NE-[CZ] |==|  0.67974
USER: genes 26 Torsion [C]-CA--CB-[CG1] |==|  0.91509
USER: genes 27 Torsion [CA]-CB--CG1-[CD1] |==|  0.27909
ROOT
ATOM      1  C   ILE E1023     -49.442  26.663   0.354  1.00 40.02 LIG 0.24  C 
ATOM      2 O    ILE E1023     -49.143  26.061   1.395  1.00 38.38 LIG-0.27  OA
ATOM      3  N   PRO E1024     -49.504  26.058  -0.859  1.00 37.38 LIG-0.34  N 
ATOM      4  CA  PRO E1024     -49.070  24.659  -0.990  1.00 36.67 LIG 0.18  C 
ATOM      5  CB  PRO E1024     -49.620  24.241  -2.351  1.00 38.74 LIG 0.04  C 
ATOM      6  CG  PRO E1024     -49.681  25.495  -3.138  1.00 43.33 LIG 0.02  C 
ATOM      7  CD  PRO E1024     -49.840  26.640  -2.179  1.00 39.42 LIG 0.13  C 
ENDROOT
BRANCH 4 8
ATOM      8  C   PRO E1024     -47.548  24.609  -0.949  1.00 39.60 LIG 0.24  C 
ATOM      9 O    PRO E1024     -46.986  24.349   0.113  1.00 37.18 LIG-0.27  OA
ATOM     10  N   ILE E1025     -46.900  24.821  -2.113  1.00 37.20 LIG-0.35  N 
ATOM     11 H    ILE E1025     -47.327  24.991  -2.840  1.00 37.20 LIG 0.16  HD
BRANCH 10 12
ATOM     12  CA  ILE E1025     -45.445  24.798  -2.321  1.00 37.42 LIG 0.18  C 
BRANCH 12 13
ATOM     13  C   ILE E1025     -45.090  25.304  -3.717  1.00 40.88 LIG 0.24  C 
ATOM     14 O    ILE E1025     -43.989  25.827  -3.899  1.00 40.29 LIG-0.27  OA
ATOM     15  N   PHE E1026     -46.073  25.358  -4.637  1.00 36.23 LIG-0.35  N 
ATOM     16 H    PHE E1026     -46.845  24.991  -4.542  1.00 36.23 LIG 0.16  HD
BRANCH 15 17
ATOM     17  CA  PHE E1026     -45.884  26.073  -5.906  1.00 36.58 LIG 0.18  C 
BRANCH 17 18
ATOM     18  CB  PHE E1026     -45.774  25.109  -7.084  1.00 38.58 LIG 0.07  C 
BRANCH 18 19
ATOM     19  CG  PHE E1026     -46.166  23.708  -6.717  1.00 40.24 LIG-0.06  A 
ATOM     20  CD1 PHE E1026     -45.212  22.722  -6.585  1.00 42.20 LIG 0.01  A 
ATOM     21  CE1 PHE E1026     -45.576  21.428  -6.257  1.00 42.54 LIG 0.00  A 
ATOM     22  CZ  PHE E1026     -46.895  21.112  -6.059  1.00 41.81 LIG 0.00  A 
ATOM     23  CE2 PHE E1026     -47.861  22.073  -6.192  1.00 44.36 LIG 0.00  A 
ATOM     24  CD2 PHE E1026     -47.500  23.369  -6.525  1.00 42.30 LIG 0.01  A 
ENDBRANCH 18 19
ENDBRANCH 17 18
BRANCH 17 25
ATOM     25  C   PHE E1026     -47.012  27.059  -6.144  1.00 38.60 LIG 0.24  C 
ATOM     26  N   ASN E1027     -48.270  26.557  -6.062  1.00 38.80 LIG-0.35  N 
ATOM     27 H    ASN E1027     -48.424  25.724  -5.909  1.00 38.80 LIG 0.16  HD
ATOM     28 O    PHE E1026     -46.757  28.246  -6.333  1.00 31.59 LIG-0.27  OA
BRANCH 26 29
ATOM     29  CA  ASN E1027     -49.496  27.347  -6.220  1.00 74.37 LIG 0.17  C 
BRANCH 29 30
ATOM     30  CB  ASN E1027     -49.586  27.911  -7.634  1.00 75.17 LIG 0.14  C 
BRANCH 30 31
ATOM     31  CG  ASN E1027     -50.161  29.304  -7.683  1.00 99.64 LIG 0.22  C 
ATOM     32  ND2 ASN E1027     -50.265  29.886  -8.875  1.00 92.55 LIG-0.37  N 
ATOM     33 22HD ASN E1027     -50.015  29.466  -9.582  1.00 92.55 LIG 0.16  HD
ATOM     34 21HD ASN E1027     -50.583  30.683  -8.938  1.00 92.55 LIG 0.16  HD
ATOM     35 OD1  ASN E1027     -50.510  29.881  -6.652  1.00 94.01 LIG-0.27  OA
ENDBRANCH 30 31
ENDBRANCH 29 30
BRANCH 29 36
ATOM     36  C   ASN E1027     -50.722  26.479  -5.942  1.00103.37 LIG 0.22  C 
ATOM     37 O    ASN E1027     -50.640  25.255  -5.989  1.00 69.20 LIG-0.29  OA
ENDBRANCH 29 36
ENDBRANCH 26 29
ENDBRANCH 17 25
ENDBRANCH 15 17
ENDBRANCH 12 13
BRANCH 12 38
ATOM     38  CB  ILE E1025     -44.958  23.283  -2.284  1.00 40.50 LIG 0.01  C 
ATOM     39  CG2 ILE E1025     -44.775  22.780  -0.845  1.00 43.95 LIG 0.01  C 
BRANCH 38 40
ATOM     40  CG1 ILE E1025     -45.861  22.340  -3.079  1.00 41.58 LIG 0.00  C 
ATOM     41  CD1 ILE E1025     -45.434  20.780  -2.920  1.00 52.05 LIG 0.01  C 
ENDBRANCH 38 40
ENDBRANCH 12 38
ENDBRANCH 10 12
ENDBRANCH 4 8
BRANCH 1 42
ATOM     42  CA  ILE E1023     -49.853  28.122   0.456  1.00 36.06 LIG 0.18  C 
BRANCH 42 43
ATOM     43  N   ILE E1023     -50.108  28.391   1.884  1.00 37.96 LIG-0.35  N 
ATOM     44  C   ARG E1022     -49.120  28.487   2.799  1.00 45.42 LIG 0.24  C 
ATOM     45 O    ARG E1022     -47.935  28.282   2.535  1.00 45.23 LIG-0.27  OA
ATOM     46 H    ILE E1023     -50.940  28.481   2.077  1.00 37.96 LIG 0.16  HD
BRANCH 44 47
ATOM     47  CA  ARG E1022     -49.499  28.794   4.249  1.00 45.59 LIG 0.18  C 
BRANCH 47 48
ATOM     48  N   ARG E1022     -48.613  28.145   5.229  1.00 48.30 LIG-0.35  N 
ATOM     49 H    ARG E1022     -47.827  27.963   4.932  1.00 48.30 LIG 0.16  HD
ATOM     50  C   ILE E1021     -49.026  27.869   6.486  1.00 57.51 LIG 0.26  C 
ATOM     51 O    ILE E1021     -50.162  28.145   6.893  1.00 59.03 LIG-0.27  OA
BRANCH 50 52
ATOM     52  CA  ILE E1021     -48.030  27.198   7.446  1.00 57.59 LIG 0.40  C 
ATOM     53  N   ILE E1021     -48.395  27.544   8.817  1.00 58.96 LIG 0.61  N 
BRANCH 52 54
ATOM     54  CB  ILE E1021     -48.048  25.647   7.344  1.00 60.58 LIG 0.03  C 
ATOM     55  CG2 ILE E1021     -48.690  24.981   8.558  1.00 61.37 LIG 0.01  C 
BRANCH 54 56
ATOM     56  CG1 ILE E1021     -48.746  25.196   6.037  1.00 60.59 LIG 0.00  C 
ATOM     57  CD1 ILE E1021     -48.657  23.732   5.816  1.00 60.15 LIG 0.01  C 
ENDBRANCH 54 56
ENDBRANCH 52 54
ENDBRANCH 50 52
ENDBRANCH 47 48
BRANCH 47 58
ATOM     58  CB  ARG E1022     -49.539  30.316   4.432  1.00 44.33 LIG 0.04  C 
BRANCH 58 59
ATOM     59  CG  ARG E1022     -50.689  30.783   5.315  1.00 47.73 LIG 0.02  C 
BRANCH 59 60
ATOM     60  CD  ARG E1022     -50.235  31.276   6.673  1.00 47.87 LIG 0.14  C 
BRANCH 60 61
ATOM     61  NE  ARG E1022     -50.151  32.735   6.693  1.00 55.98 LIG-0.23  N 
ATOM     62  CZ  ARG E1022     -49.045  33.457   6.849  1.00 56.00 LIG 0.67  C 
ATOM     63  NH1 ARG E1022     -47.863  32.865   6.980  1.00 48.69 LIG-0.23  N 
ATOM     64  NH2 ARG E1022     -49.106  34.781   6.841  1.00 32.20 LIG-0.23  N 
ATOM     65 1HH1 ARG E1022     -47.809  32.006   6.965  1.00 48.69 LIG 0.17  HD
ATOM     66 2HH1 ARG E1022     -47.153  33.339   7.081  1.00 48.69 LIG 0.17  HD
ATOM     67 2HH2 ARG E1022     -48.389  35.244   6.942  1.00 32.20 LIG 0.17  HD
ATOM     68 1HH2 ARG E1022     -49.863  35.175   6.734  1.00 32.20 LIG 0.17  HD
ATOM     69 HE   ARG E1022     -50.888  33.168   6.593  1.00 55.98 LIG 0.18  HD
ENDBRANCH 60 61
ENDBRANCH 59 60
ENDBRANCH 58 59
ENDBRANCH 47 58
ENDBRANCH 44 47
ENDBRANCH 42 43
BRANCH 42 70
ATOM     70  CB  ILE E1023     -48.725  29.023  -0.147  1.00 38.78 LIG 0.01  C 
ATOM     71  CG2 ILE E1023     -48.798  30.443   0.432  1.00 39.01 LIG 0.01  C 
BRANCH 70 72
ATOM     72  CG1 ILE E1023     -47.298  28.418   0.014  1.00 39.61 LIG 0.00  C 
ATOM     73  CD1 ILE E1023     -46.697  27.729  -1.186  1.00 43.21 LIG 0.01  C 
ENDBRANCH 70 72
ENDBRANCH 42 70
ENDBRANCH 1 42
TORSDOF 26
ENDMDL
MODEL 86
USER: ADFR SOLUTION from run 186
USER: SCORE 21.916964 LL:  -6.140 LR: -17.378 RR:   0.000 FEB:  -9.622
USER: RMSD 12.802952
USER: SEED 185
USER: STATUS no improvement in best in 3 clusters for 5 generations
USER: GENES 28
USER: genes 0 Translation |==|  0.41161 0.54937 0.53025
USER: genes 1 Rotation |==|  0.10423 0.75824 0.36927 0.59792
USER: genes 2 Torsion [N]-CA--C-[O] |==|  0.85961
USER: genes 3 Torsion [C]-N--CA-[CB] |==|  0.54201
USER: genes 4 Torsion [N]-CA--C-[N] |==|  0.26111
USER: genes 5 Torsion [C]-N--CA-[C] |==|  0.81134
USER: genes 6 Torsion [N]-CA--CB-[CG] |==|  0.02746
USER: genes 7 Torsion [CA]-CB--CG-[CD1] |==|  0.76513
USER: genes 8 Torsion [N]-CA--C-[N] |==|  0.94601
USER: genes 9 Torsion [C]-N--CA-[C] |==|  0.78384
USER: genes 10 Torsion [N]-CA--CB-[CG] |==|  0.76229
USER: genes 11 Torsion [CA]-CB--CG-[OD1] |==|  0.65027
USER: genes 12 Torsion [N]-CA--C-[O] |==|  0.95457
USER: genes 13 Torsion [N]-CA--CB-[CG2] |==|  0.57110
USER: genes 14 Torsion [CA]-CB--CG1-[CD1] |==|  0.82369
USER: genes 15 Torsion [N]-C--CA-[N] |==|  0.16441
USER: genes 16 Torsion [C]-CA--N-[C] |==|  0.14495
USER: genes 17 Torsion [N]-C--CA-[N] |==|  0.82310
USER: genes 18 Torsion [C]-CA--N-[C] |==|  0.20829
USER: genes 19 Torsion [N]-C--CA-[N] |==|  0.38944
USER: genes 20 Torsion [C]-CA--CB-[CG1] |==|  0.91145
USER: genes 21 Torsion [CA]-CB--CG1-[CD1] |==|  0.28061
USER: genes 22 Torsion [C]-CA--CB-[CG] |==|  0.35281
USER: genes 23 Torsion [CA]-CB--CG-[CD] |==|  0.17510
USER: genes 24 Torsion [CB]-CG--CD-[NE] |==|  0.30386
USER: genes 25 Torsion [CG]-CD--NE-[CZ] |==|  0.29332
USER: genes 26 Torsion [C]-CA--CB-[CG1] |==|  0.56434
USER: genes 27 Torsion [CA]-CB--CG1-[CD1] |==|  0.85430
ROOT
ATOM      1  C   ILE E1023     -49.682  26.178   1.320  1.00 40.02 LIG 0.24  C 
ATOM      2 O    ILE E1023     -50.687  25.655   0.816  1.00 38.38 LIG-0.27  OA
ATOM      3  N   PRO E1024     -49.061  27.257   0.781  1.00 37.38 LIG-0.34  N 
ATOM      4  CA  PRO E1024     -49.498  27.761  -0.529  1.00 36.67 LIG 0.18  C 
ATOM      5  CB  PRO E1024     -48.848  29.139  -0.616  1.00 38.74 LIG 0.04  C 
ATOM      6  CG  PRO E1024     -47.627  29.037   0.218  1.00 43.33 LIG 0.02  C 
ATOM      7  CD  PRO E1024     -47.862  27.983   1.262  1.00 39.42 LIG 0.13  C 
ENDROOT
BRANCH 4 8
ATOM      8  C   PRO E1024     -48.989  26.821  -1.614  1.00 39.60 LIG 0.24  C 
ATOM      9 O    PRO E1024     -47.799  26.507  -1.624  1.00 37.18 LIG-0.27  OA
ATOM     10  N   ILE E1025     -49.899  26.354  -2.493  1.00 37.20 LIG-0.35  N 
ATOM     11 H    ILE E1025     -50.726  26.588  -2.450  1.00 37.20 LIG 0.16  HD
BRANCH 10 12
ATOM     12  CA  ILE E1025     -49.647  25.424  -3.602  1.00 37.42 LIG 0.18  C 
BRANCH 12 13
ATOM     13  C   ILE E1025     -48.458  25.888  -4.438  1.00 40.88 LIG 0.24  C 
ATOM     14 O    ILE E1025     -48.668  26.535  -5.465  1.00 40.29 LIG-0.27  OA
ATOM     15  N   PHE E1026     -47.243  25.386  -4.140  1.00 36.23 LIG-0.35  N 
ATOM     16 H    PHE E1026     -47.065  24.943  -3.424  1.00 36.23 LIG 0.16  HD
BRANCH 15 17
ATOM     17  CA  PHE E1026     -46.104  25.568  -5.049  1.00 36.58 LIG 0.18  C 
BRANCH 17 18
ATOM     18  CB  PHE E1026     -44.789  25.159  -4.392  1.00 38.58 LIG 0.07  C 
BRANCH 18 19
ATOM     19  CG  PHE E1026     -44.995  24.455  -3.084  1.00 40.24 LIG-0.06  A 
ATOM     20  CD1 PHE E1026     -45.163  25.171  -1.918  1.00 42.20 LIG 0.01  A 
ATOM     21  CE1 PHE E1026     -45.342  24.520  -0.710  1.00 42.54 LIG 0.00  A 
ATOM     22  CZ  PHE E1026     -45.356  23.150  -0.661  1.00 41.81 LIG 0.00  A 
ATOM     23  CE2 PHE E1026     -45.184  22.418  -1.805  1.00 44.36 LIG 0.00  A 
ATOM     24  CD2 PHE E1026     -44.999  23.067  -3.016  1.00 42.30 LIG 0.01  A 
ENDBRANCH 18 19
ENDBRANCH 17 18
BRANCH 17 25
ATOM     25  C   PHE E1026     -46.308  24.789  -6.335  1.00 38.60 LIG 0.24  C 
ATOM     26  N   ASN E1027     -47.217  23.784  -6.284  1.00 38.80 LIG-0.35  N 
ATOM     27 H    ASN E1027     -47.638  23.580  -5.561  1.00 38.80 LIG 0.16  HD
ATOM     28 O    PHE E1026     -45.711  25.126  -7.355  1.00 31.59 LIG-0.27  OA
BRANCH 26 29
ATOM     29  CA  ASN E1027     -47.591  22.937  -7.423  1.00 74.37 LIG 0.17  C 
BRANCH 29 30
ATOM     30  CB  ASN E1027     -48.258  21.655  -6.935  1.00 75.17 LIG 0.14  C 
BRANCH 30 31
ATOM     31  CG  ASN E1027     -47.272  20.568  -6.587  1.00 99.64 LIG 0.22  C 
ATOM     32  ND2 ASN E1027     -46.303  20.867  -5.727  1.00 92.55 LIG-0.37  N 
ATOM     33 22HD ASN E1027     -46.259  21.655  -5.386  1.00 92.55 LIG 0.16  HD
ATOM     34 21HD ASN E1027     -45.720  20.272  -5.511  1.00 92.55 LIG 0.16  HD
ATOM     35 OD1  ASN E1027     -47.362  19.447  -7.093  1.00 94.01 LIG-0.27  OA
ENDBRANCH 30 31
ENDBRANCH 29 30
BRANCH 29 36
ATOM     36  C   ASN E1027     -48.549  23.688  -8.346  1.00103.37 LIG 0.22  C 
ATOM     37 O    ASN E1027     -49.129  24.696  -7.951  1.00 69.20 LIG-0.29  OA
ENDBRANCH 29 36
ENDBRANCH 26 29
ENDBRANCH 17 25
ENDBRANCH 15 17
ENDBRANCH 12 13
BRANCH 12 38
ATOM     38  CB  ILE E1025     -50.898  25.467  -4.585  1.00 40.50 LIG 0.01  C 
ATOM     39  CG2 ILE E1025     -51.045  24.160  -5.377  1.00 43.95 LIG 0.01  C 
BRANCH 38 40
ATOM     40  CG1 ILE E1025     -52.206  25.827  -3.882  1.00 41.58 LIG 0.00  C 
ATOM     41  CD1 ILE E1025     -52.648  24.724  -2.774  1.00 52.05 LIG 0.01  C 
ENDBRANCH 38 40
ENDBRANCH 12 38
ENDBRANCH 10 12
ENDBRANCH 4 8
BRANCH 1 42
ATOM     42  CA  ILE E1023     -49.184  25.648   2.653  1.00 36.06 LIG 0.18  C 
BRANCH 42 43
ATOM     43  N   ILE E1023     -49.312  26.753   3.623  1.00 37.96 LIG-0.35  N 
ATOM     44  C   ARG E1022     -50.460  27.439   3.806  1.00 45.42 LIG 0.24  C 
ATOM     45 O    ARG E1022     -51.471  27.252   3.128  1.00 45.23 LIG-0.27  OA
ATOM     46 H    ILE E1023     -48.589  26.918   4.058  1.00 37.96 LIG 0.16  HD
BRANCH 44 47
ATOM     47  CA  ARG E1022     -50.485  28.550   4.856  1.00 45.59 LIG 0.18  C 
BRANCH 47 48
ATOM     48  N   ARG E1022     -50.264  28.057   6.226  1.00 48.30 LIG-0.35  N 
ATOM     49 H    ARG E1022     -50.972  28.030   6.713  1.00 48.30 LIG 0.16  HD
ATOM     50  C   ILE E1021     -49.039  27.684   6.657  1.00 57.51 LIG 0.26  C 
ATOM     51 O    ILE E1021     -48.034  27.727   5.937  1.00 59.03 LIG-0.27  OA
BRANCH 50 52
ATOM     52  CA  ILE E1021     -48.903  27.173   8.102  1.00 57.59 LIG 0.40  C 
ATOM     53  N   ILE E1021     -47.974  26.047   8.114  1.00 58.96 LIG 0.61  N 
BRANCH 52 54
ATOM     54  CB  ILE E1021     -48.333  28.248   9.069  1.00 60.58 LIG 0.03  C 
ATOM     55  CG2 ILE E1021     -47.672  27.643  10.304  1.00 61.37 LIG 0.01  C 
BRANCH 54 56
ATOM     56  CG1 ILE E1021     -47.351  29.185   8.324  1.00 60.59 LIG 0.00  C 
ATOM     57  CD1 ILE E1021     -47.965  30.485   7.958  1.00 60.15 LIG 0.01  C 
ENDBRANCH 54 56
ENDBRANCH 52 54
ENDBRANCH 50 52
ENDBRANCH 47 48
BRANCH 47 58
ATOM     58  CB  ARG E1022     -49.459  29.619   4.461  1.00 44.33 LIG 0.04  C 
BRANCH 58 59
ATOM     59  CG  ARG E1022     -50.049  31.023   4.404  1.00 47.73 LIG 0.02  C 
BRANCH 59 60
ATOM     60  CD  ARG E1022     -50.556  31.509   5.745  1.00 47.87 LIG 0.14  C 
BRANCH 60 61
ATOM     61  NE  ARG E1022     -49.694  32.566   6.272  1.00 55.98 LIG-0.23  N 
ATOM     62  CZ  ARG E1022     -49.977  33.865   6.312  1.00 56.00 LIG 0.67  C 
ATOM     63  NH1 ARG E1022     -51.147  34.316   5.872  1.00 48.69 LIG-0.23  N 
ATOM     64  NH2 ARG E1022     -49.106  34.722   6.824  1.00 32.20 LIG-0.23  N 
ATOM     65 1HH1 ARG E1022     -51.729  33.766   5.558  1.00 48.69 LIG 0.17  HD
ATOM     66 2HH1 ARG E1022     -51.322  35.157   5.902  1.00 48.69 LIG 0.17  HD
ATOM     67 2HH2 ARG E1022     -49.293  35.561   6.849  1.00 32.20 LIG 0.17  HD
ATOM     68 1HH2 ARG E1022     -48.355  34.439   7.132  1.00 32.20 LIG 0.17  HD
ATOM     69 HE   ARG E1022     -48.931  32.324   6.586  1.00 55.98 LIG 0.18  HD
ENDBRANCH 60 61
ENDBRANCH 59 60
ENDBRANCH 58 59
ENDBRANCH 47 58
ENDBRANCH 44 47
ENDBRANCH 42 43
BRANCH 42 70
ATOM     70  CB  ILE E1023     -50.013  24.383   3.052  1.00 38.78 LIG 0.01  C 
ATOM     71  CG2 ILE E1023     -49.547  23.155   2.255  1.00 39.01 LIG 0.01  C 
BRANCH 70 72
ATOM     72  CG1 ILE E1023     -50.009  24.098   4.584  1.00 39.61 LIG 0.00  C 
ATOM     73  CD1 ILE E1023     -48.669  24.022   5.272  1.00 43.21 LIG 0.01  C 
ENDBRANCH 70 72
ENDBRANCH 42 70
ENDBRANCH 1 42
TORSDOF 26
ENDMDL
MODEL 87
USER: ADFR SOLUTION from run 130
USER: SCORE 22.584194 LL:  -6.451 LR: -17.338 RR:   0.000 FEB:  -9.582
USER: RMSD 12.374761
USER: SEED 129
USER: STATUS no improvement in best in 22 clusters for 5 generations
USER: GENES 28
USER: genes 0 Translation |==|  0.43674 0.56060 0.55067
USER: genes 1 Rotation |==|  0.80940 0.72438 0.18195 0.55268
USER: genes 2 Torsion [N]-CA--C-[O] |==|  0.95613
USER: genes 3 Torsion [C]-N--CA-[CB] |==|  0.77778
USER: genes 4 Torsion [N]-CA--C-[N] |==|  0.13604
USER: genes 5 Torsion [C]-N--CA-[C] |==|  0.73499
USER: genes 6 Torsion [N]-CA--CB-[CG] |==|  0.24173
USER: genes 7 Torsion [CA]-CB--CG-[CD1] |==|  0.28977
USER: genes 8 Torsion [N]-CA--C-[N] |==|  0.91320
USER: genes 9 Torsion [C]-N--CA-[C] |==|  0.41731
USER: genes 10 Torsion [N]-CA--CB-[CG] |==|  0.34221
USER: genes 11 Torsion [CA]-CB--CG-[OD1] |==|  0.72220
USER: genes 12 Torsion [N]-CA--C-[O] |==|  0.01457
USER: genes 13 Torsion [N]-CA--CB-[CG2] |==|  0.57585
USER: genes 14 Torsion [CA]-CB--CG1-[CD1] |==|  0.77963
USER: genes 15 Torsion [N]-C--CA-[N] |==|  0.15353
USER: genes 16 Torsion [C]-CA--N-[C] |==|  0.63029
USER: genes 17 Torsion [N]-C--CA-[N] |==|  0.93442
USER: genes 18 Torsion [C]-CA--N-[C] |==|  0.78925
USER: genes 19 Torsion [N]-C--CA-[N] |==|  0.83423
USER: genes 20 Torsion [C]-CA--CB-[CG1] |==|  0.78377
USER: genes 21 Torsion [CA]-CB--CG1-[CD1] |==|  0.33832
USER: genes 22 Torsion [C]-CA--CB-[CG] |==|  0.51026
USER: genes 23 Torsion [CA]-CB--CG-[CD] |==|  0.64278
USER: genes 24 Torsion [CB]-CG--CD-[NE] |==|  0.16640
USER: genes 25 Torsion [CG]-CD--NE-[CZ] |==|  0.43968
USER: genes 26 Torsion [C]-CA--CB-[CG1] |==|  0.55318
USER: genes 27 Torsion [CA]-CB--CG1-[CD1] |==|  0.81854
ROOT
ATOM      1  C   ILE E1023     -49.305  26.439   1.902  1.00 40.02 LIG 0.24  C 
ATOM      2 O    ILE E1023     -48.307  25.929   1.370  1.00 38.38 LIG-0.27  OA
ATOM      3  N   PRO E1024     -50.083  25.780   2.797  1.00 37.38 LIG-0.34  N 
ATOM      4  CA  PRO E1024     -49.832  24.356   3.060  1.00 36.67 LIG 0.18  C 
ATOM      5  CB  PRO E1024     -50.624  24.084   4.336  1.00 38.74 LIG 0.04  C 
ATOM      6  CG  PRO E1024     -51.739  25.060   4.308  1.00 43.33 LIG 0.02  C 
ATOM      7  CD  PRO E1024     -51.294  26.251   3.508  1.00 39.42 LIG 0.13  C 
ENDROOT
BRANCH 4 8
ATOM      8  C   PRO E1024     -50.350  23.538   1.883  1.00 39.60 LIG 0.24  C 
ATOM      9 O    PRO E1024     -51.120  24.065   1.082  1.00 37.18 LIG-0.27  OA
ATOM     10  N   ILE E1025     -49.893  22.274   1.771  1.00 37.20 LIG-0.35  N 
ATOM     11 H    ILE E1025     -49.346  21.942   2.346  1.00 37.20 LIG 0.16  HD
BRANCH 10 12
ATOM     12  CA  ILE E1025     -50.231  21.313   0.713  1.00 37.42 LIG 0.18  C 
BRANCH 12 13
ATOM     13  C   ILE E1025     -50.412  22.024  -0.626  1.00 40.88 LIG 0.24  C 
ATOM     14 O    ILE E1025     -51.302  21.642  -1.388  1.00 40.29 LIG-0.27  OA
ATOM     15  N   PHE E1026     -49.455  22.890  -1.014  1.00 36.23 LIG-0.35  N 
ATOM     16 H    PHE E1026     -48.831  23.184  -0.500  1.00 36.23 LIG 0.16  HD
BRANCH 15 17
ATOM     17  CA  PHE E1026     -49.415  23.409  -2.388  1.00 36.58 LIG 0.18  C 
BRANCH 17 18
ATOM     18  CB  PHE E1026     -49.014  24.880  -2.423  1.00 38.58 LIG 0.07  C 
BRANCH 18 19
ATOM     19  CG  PHE E1026     -47.526  25.067  -2.463  1.00 40.24 LIG-0.06  A 
ATOM     20  CD1 PHE E1026     -46.893  25.427  -3.634  1.00 42.20 LIG 0.01  A 
ATOM     21  CE1 PHE E1026     -45.519  25.588  -3.673  1.00 42.54 LIG 0.00  A 
ATOM     22  CZ  PHE E1026     -44.771  25.393  -2.542  1.00 41.81 LIG 0.00  A 
ATOM     23  CE2 PHE E1026     -45.376  25.028  -1.369  1.00 44.36 LIG 0.00  A 
ATOM     24  CD2 PHE E1026     -46.751  24.860  -1.328  1.00 42.30 LIG 0.01  A 
ENDBRANCH 18 19
ENDBRANCH 17 18
BRANCH 17 25
ATOM     25  C   PHE E1026     -48.469  22.591  -3.247  1.00 38.60 LIG 0.24  C 
ATOM     26  N   ASN E1027     -47.404  22.046  -2.606  1.00 38.80 LIG-0.35  N 
ATOM     27 H    ASN E1027     -47.255  22.174  -1.769  1.00 38.80 LIG 0.16  HD
ATOM     28 O    PHE E1026     -48.727  22.405  -4.434  1.00 31.59 LIG-0.27  OA
BRANCH 26 29
ATOM     29  CA  ASN E1027     -46.394  21.192  -3.243  1.00 74.37 LIG 0.17  C 
BRANCH 29 30
ATOM     30  CB  ASN E1027     -46.245  21.555  -4.717  1.00 75.17 LIG 0.14  C 
BRANCH 30 31
ATOM     31  CG  ASN E1027     -44.834  21.928  -5.097  1.00 99.64 LIG 0.22  C 
ATOM     32  ND2 ASN E1027     -43.969  20.938  -5.300  1.00 92.55 LIG-0.37  N 
ATOM     33 22HD ASN E1027     -44.224  20.121  -5.219  1.00 92.55 LIG 0.16  HD
ATOM     34 21HD ASN E1027     -43.154  21.115  -5.511  1.00 92.55 LIG 0.16  HD
ATOM     35 OD1  ASN E1027     -44.498  23.109  -5.204  1.00 94.01 LIG-0.27  OA
ENDBRANCH 30 31
ENDBRANCH 29 30
BRANCH 29 36
ATOM     36  C   ASN E1027     -45.047  21.354  -2.541  1.00103.37 LIG 0.22  C 
ATOM     37 O    ASN E1027     -44.954  22.044  -1.530  1.00 69.20 LIG-0.29  OA
ENDBRANCH 29 36
ENDBRANCH 26 29
ENDBRANCH 17 25
ENDBRANCH 15 17
ENDBRANCH 12 13
BRANCH 12 38
ATOM     38  CB  ILE E1025     -51.651  20.677   1.049  1.00 40.50 LIG 0.01  C 
ATOM     39  CG2 ILE E1025     -51.798  19.268   0.458  1.00 43.95 LIG 0.01  C 
BRANCH 38 40
ATOM     40  CG1 ILE E1025     -51.972  20.676   2.544  1.00 41.58 LIG 0.00  C 
ATOM     41  CD1 ILE E1025     -51.234  19.470   3.344  1.00 52.05 LIG 0.01  C 
ENDBRANCH 38 40
ENDBRANCH 12 38
ENDBRANCH 10 12
ENDBRANCH 4 8
BRANCH 1 42
ATOM     42  CA  ILE E1023     -49.611  27.898   1.614  1.00 36.06 LIG 0.18  C 
BRANCH 42 43
ATOM     43  N   ILE E1023     -49.593  28.599   2.912  1.00 37.96 LIG-0.35  N 
ATOM     44  C   ARG E1022     -50.559  29.463   3.292  1.00 45.42 LIG 0.24  C 
ATOM     45 O    ARG E1022     -51.490  29.796   2.559  1.00 45.23 LIG-0.27  OA
ATOM     46 H    ILE E1023     -48.913  28.407   3.401  1.00 37.96 LIG 0.16  HD
BRANCH 44 47
ATOM     47  CA  ARG E1022     -50.450  30.115   4.671  1.00 45.59 LIG 0.18  C 
BRANCH 47 48
ATOM     48  N   ARG E1022     -49.635  29.336   5.618  1.00 48.30 LIG-0.35  N 
ATOM     49 H    ARG E1022     -48.849  29.654   5.756  1.00 48.30 LIG 0.16  HD
ATOM     50  C   ILE E1021     -50.109  28.216   6.207  1.00 57.51 LIG 0.26  C 
ATOM     51 O    ILE E1021     -51.247  27.778   5.996  1.00 59.03 LIG-0.27  OA
BRANCH 50 52
ATOM     52  CA  ILE E1021     -49.191  27.470   7.190  1.00 57.59 LIG 0.40  C 
ATOM     53  N   ILE E1021     -47.981  27.062   6.483  1.00 58.96 LIG 0.61  N 
BRANCH 52 54
ATOM     54  CB  ILE E1021     -48.746  28.357   8.387  1.00 60.58 LIG 0.03  C 
ATOM     55  CG2 ILE E1021     -48.323  27.539   9.605  1.00 61.37 LIG 0.01  C 
BRANCH 54 56
ATOM     56  CG1 ILE E1021     -47.617  29.326   7.957  1.00 60.59 LIG 0.00  C 
ATOM     57  CD1 ILE E1021     -47.971  30.750   8.172  1.00 60.15 LIG 0.01  C 
ENDBRANCH 54 56
ENDBRANCH 52 54
ENDBRANCH 50 52
ENDBRANCH 47 48
BRANCH 47 58
ATOM     58  CB  ARG E1022     -49.917  31.542   4.497  1.00 44.33 LIG 0.04  C 
BRANCH 58 59
ATOM     59  CG  ARG E1022     -49.683  32.261   5.820  1.00 47.73 LIG 0.02  C 
BRANCH 59 60
ATOM     60  CD  ARG E1022     -50.341  33.623   5.881  1.00 47.87 LIG 0.14  C 
BRANCH 60 61
ATOM     61  NE  ARG E1022     -51.788  33.507   5.708  1.00 55.98 LIG-0.23  N 
ATOM     62  CZ  ARG E1022     -52.701  34.394   6.095  1.00 56.00 LIG 0.67  C 
ATOM     63  NH1 ARG E1022     -52.335  35.529   6.680  1.00 48.69 LIG-0.23  N 
ATOM     64  NH2 ARG E1022     -53.987  34.168   5.871  1.00 32.20 LIG-0.23  N 
ATOM     65 1HH1 ARG E1022     -51.501  35.696   6.811  1.00 48.69 LIG 0.17  HD
ATOM     66 2HH1 ARG E1022     -52.931  36.097   6.927  1.00 48.69 LIG 0.17  HD
ATOM     67 2HH2 ARG E1022     -54.574  34.744   6.123  1.00 32.20 LIG 0.17  HD
ATOM     68 1HH2 ARG E1022     -54.234  33.447   5.474  1.00 32.20 LIG 0.17  HD
ATOM     69 HE   ARG E1022     -52.077  32.796   5.318  1.00 55.98 LIG 0.18  HD
ENDBRANCH 60 61
ENDBRANCH 59 60
ENDBRANCH 58 59
ENDBRANCH 47 58
ENDBRANCH 44 47
ENDBRANCH 42 43
BRANCH 42 70
ATOM     70  CB  ILE E1023     -48.560  28.459   0.599  1.00 38.78 LIG 0.01  C 
ATOM     71  CG2 ILE E1023     -48.819  27.907  -0.810  1.00 39.01 LIG 0.01  C 
BRANCH 70 72
ATOM     72  CG1 ILE E1023     -48.476  30.015   0.592  1.00 39.61 LIG 0.00  C 
ATOM     73  CD1 ILE E1023     -49.691  30.773   0.118  1.00 43.21 LIG 0.01  C 
ENDBRANCH 70 72
ENDBRANCH 42 70
ENDBRANCH 1 42
TORSDOF 26
ENDMDL
MODEL 88
USER: ADFR SOLUTION from run 3
USER: SCORE 22.766262 LL:  -6.330 LR: -17.344 RR:   0.000 FEB:  -9.588
USER: RMSD 3.903298
USER: SEED 457125
USER: STATUS no improvement in best in 12 clusters for 5 generations
USER: GENES 28
USER: genes 0 Translation |==|  0.49327 0.46026 0.42846
USER: genes 1 Rotation |==|  0.44781 0.44447 0.50825 0.99409
USER: genes 2 Torsion [N]-CA--C-[O] |==|  0.84840
USER: genes 3 Torsion [C]-N--CA-[CB] |==|  0.55347
USER: genes 4 Torsion [N]-CA--C-[N] |==|  0.36983
USER: genes 5 Torsion [C]-N--CA-[C] |==|  0.66077
USER: genes 6 Torsion [N]-CA--CB-[CG] |==|  0.84378
USER: genes 7 Torsion [CA]-CB--CG-[CD1] |==|  0.84454
USER: genes 8 Torsion [N]-CA--C-[N] |==|  0.29878
USER: genes 9 Torsion [C]-N--CA-[C] |==|  0.56638
USER: genes 10 Torsion [N]-CA--CB-[CG] |==|  0.39069
USER: genes 11 Torsion [CA]-CB--CG-[OD1] |==|  0.78740
USER: genes 12 Torsion [N]-CA--C-[O] |==|  0.06709
USER: genes 13 Torsion [N]-CA--CB-[CG2] |==|  0.41900
USER: genes 14 Torsion [CA]-CB--CG1-[CD1] |==|  0.69224
USER: genes 15 Torsion [N]-C--CA-[N] |==|  0.36850
USER: genes 16 Torsion [C]-CA--N-[C] |==|  0.82906
USER: genes 17 Torsion [N]-C--CA-[N] |==|  0.48570
USER: genes 18 Torsion [C]-CA--N-[C] |==|  0.57509
USER: genes 19 Torsion [N]-C--CA-[N] |==|  0.37637
USER: genes 20 Torsion [C]-CA--CB-[CG1] |==|  0.02452
USER: genes 21 Torsion [CA]-CB--CG1-[CD1] |==|  0.36371
USER: genes 22 Torsion [C]-CA--CB-[CG] |==|  0.26497
USER: genes 23 Torsion [CA]-CB--CG-[CD] |==|  0.11144
USER: genes 24 Torsion [CB]-CG--CD-[NE] |==|  0.71278
USER: genes 25 Torsion [CG]-CD--NE-[CZ] |==|  0.32321
USER: genes 26 Torsion [C]-CA--CB-[CG1] |==|  0.85571
USER: genes 27 Torsion [CA]-CB--CG1-[CD1] |==|  0.81635
ROOT
ATOM      1  C   ILE E1023     -48.457  24.106  -1.581  1.00 40.02 LIG 0.24  C 
ATOM      2 O    ILE E1023     -48.372  25.247  -2.059  1.00 38.38 LIG-0.27  OA
ATOM      3  N   PRO E1024     -49.521  23.688  -0.849  1.00 37.38 LIG-0.34  N 
ATOM      4  CA  PRO E1024     -50.566  24.654  -0.480  1.00 36.67 LIG 0.18  C 
ATOM      5  CB  PRO E1024     -51.718  23.769  -0.012  1.00 38.74 LIG 0.04  C 
ATOM      6  CG  PRO E1024     -51.071  22.538   0.498  1.00 43.33 LIG 0.02  C 
ATOM      7  CD  PRO E1024     -49.761  22.370  -0.217  1.00 39.42 LIG 0.13  C 
ENDROOT
BRANCH 4 8
ATOM      8  C   PRO E1024     -50.041  25.545   0.639  1.00 39.60 LIG 0.24  C 
ATOM      9 O    PRO E1024     -49.603  25.024   1.663  1.00 37.18 LIG-0.27  OA
ATOM     10  N   ILE E1025     -50.056  26.876   0.416  1.00 37.20 LIG-0.35  N 
ATOM     11 H    ILE E1025     -50.362  27.204  -0.318  1.00 37.20 LIG 0.16  HD
BRANCH 10 12
ATOM     12  CA  ILE E1025     -49.582  27.921   1.333  1.00 37.42 LIG 0.18  C 
BRANCH 12 13
ATOM     13  C   ILE E1025     -50.085  27.665   2.752  1.00 40.88 LIG 0.24  C 
ATOM     14 O    ILE E1025     -51.299  27.581   2.947  1.00 40.29 LIG-0.27  OA
ATOM     15  N   PHE E1026     -49.198  27.761   3.762  1.00 36.23 LIG-0.35  N 
ATOM     16 H    PHE E1026     -48.346  27.807   3.655  1.00 36.23 LIG 0.16  HD
BRANCH 15 17
ATOM     17  CA  PHE E1026     -49.644  27.795   5.161  1.00 36.58 LIG 0.18  C 
BRANCH 17 18
ATOM     18  CB  PHE E1026     -49.174  26.565   5.931  1.00 38.58 LIG 0.07  C 
BRANCH 18 19
ATOM     19  CG  PHE E1026     -49.617  25.283   5.291  1.00 40.24 LIG-0.06  A 
ATOM     20  CD1 PHE E1026     -50.952  25.044   5.044  1.00 42.20 LIG 0.01  A 
ATOM     21  CE1 PHE E1026     -51.360  23.856   4.464  1.00 42.54 LIG 0.00  A 
ATOM     22  CZ  PHE E1026     -50.437  22.901   4.126  1.00 41.81 LIG 0.00  A 
ATOM     23  CE2 PHE E1026     -49.106  23.113   4.369  1.00 44.36 LIG 0.00  A 
ATOM     24  CD2 PHE E1026     -48.694  24.300   4.955  1.00 42.30 LIG 0.01  A 
ENDBRANCH 18 19
ENDBRANCH 17 18
BRANCH 17 25
ATOM     25  C   PHE E1026     -49.163  29.057   5.851  1.00 38.60 LIG 0.24  C 
ATOM     26  N   ASN E1027     -50.111  29.993   6.110  1.00 38.80 LIG-0.35  N 
ATOM     27 H    ASN E1027     -50.933  29.893   5.876  1.00 38.80 LIG 0.16  HD
ATOM     28 O    PHE E1026     -47.987  29.155   6.196  1.00 31.59 LIG-0.27  OA
BRANCH 26 29
ATOM     29  CA  ASN E1027     -49.863  31.263   6.803  1.00 74.37 LIG 0.17  C 
BRANCH 29 30
ATOM     30  CB  ASN E1027     -49.328  32.305   5.826  1.00 75.17 LIG 0.14  C 
BRANCH 30 31
ATOM     31  CG  ASN E1027     -49.887  33.685   6.064  1.00 99.64 LIG 0.22  C 
ATOM     32  ND2 ASN E1027     -49.106  34.570   6.677  1.00 92.55 LIG-0.37  N 
ATOM     33 22HD ASN E1027     -48.311  34.347   6.917  1.00 92.55 LIG 0.16  HD
ATOM     34 21HD ASN E1027     -49.396  35.364   6.834  1.00 92.55 LIG 0.16  HD
ATOM     35 OD1  ASN E1027     -51.032  33.974   5.708  1.00 94.01 LIG-0.27  OA
ENDBRANCH 30 31
ENDBRANCH 29 30
BRANCH 29 36
ATOM     36  C   ASN E1027     -51.154  31.778   7.437  1.00103.37 LIG 0.22  C 
ATOM     37 O    ASN E1027     -52.060  31.000   7.719  1.00 69.20 LIG-0.29  OA
ENDBRANCH 29 36
ENDBRANCH 26 29
ENDBRANCH 17 25
ENDBRANCH 15 17
ENDBRANCH 12 13
BRANCH 12 38
ATOM     38  CB  ILE E1025     -50.236  29.304   0.896  1.00 40.50 LIG 0.01  C 
ATOM     39  CG2 ILE E1025     -50.417  30.251   2.090  1.00 43.95 LIG 0.01  C 
BRANCH 38 40
ATOM     40  CG1 ILE E1025     -49.479  29.997  -0.238  1.00 41.58 LIG 0.00  C 
ATOM     41  CD1 ILE E1025     -48.726  31.354   0.247  1.00 52.05 LIG 0.01  C 
ENDBRANCH 38 40
ENDBRANCH 12 38
ENDBRANCH 10 12
ENDBRANCH 4 8
BRANCH 1 42
ATOM     42  CA  ILE E1023     -47.368  23.101  -1.913  1.00 36.06 LIG 0.18  C 
BRANCH 42 43
ATOM     43  N   ILE E1023     -47.083  23.245  -3.354  1.00 37.96 LIG-0.35  N 
ATOM     44  C   ARG E1022     -48.010  23.021  -4.310  1.00 45.42 LIG 0.24  C 
ATOM     45 O    ARG E1022     -49.142  22.604  -4.065  1.00 45.23 LIG-0.27  OA
ATOM     46 H    ILE E1023     -46.276  23.484  -3.526  1.00 37.96 LIG 0.16  HD
BRANCH 44 47
ATOM     47  CA  ARG E1022     -47.610  23.224  -5.772  1.00 45.59 LIG 0.18  C 
BRANCH 47 48
ATOM     48  N   ARG E1022     -48.666  22.833  -6.721  1.00 48.30 LIG-0.35  N 
ATOM     49 H    ARG E1022     -49.464  22.890  -6.408  1.00 48.30 LIG 0.16  HD
ATOM     50  C   ILE E1021     -48.375  22.424  -7.976  1.00 57.51 LIG 0.26  C 
ATOM     51 O    ILE E1021     -47.217  22.354  -8.406  1.00 59.03 LIG-0.27  OA
BRANCH 50 52
ATOM     52  CA  ILE E1021     -49.543  22.044  -8.903  1.00 57.59 LIG 0.40  C 
ATOM     53  N   ILE E1021     -49.309  22.637 -10.216  1.00 58.96 LIG 0.61  N 
BRANCH 52 54
ATOM     54  CB  ILE E1021     -49.671  20.509  -9.109  1.00 60.58 LIG 0.03  C 
ATOM     55  CG2 ILE E1021     -49.433  20.083 -10.555  1.00 61.37 LIG 0.01  C 
BRANCH 54 56
ATOM     56  CG1 ILE E1021     -48.723  19.749  -8.149  1.00 60.59 LIG 0.00  C 
ATOM     57  CD1 ILE E1021     -49.404  18.654  -7.417  1.00 60.15 LIG 0.01  C 
ENDBRANCH 54 56
ENDBRANCH 52 54
ENDBRANCH 50 52
ENDBRANCH 47 48
BRANCH 47 58
ATOM     58  CB  ARG E1022     -47.180  24.684  -5.963  1.00 44.33 LIG 0.04  C 
BRANCH 58 59
ATOM     59  CG  ARG E1022     -45.673  24.884  -5.853  1.00 47.73 LIG 0.02  C 
BRANCH 59 60
ATOM     60  CD  ARG E1022     -44.877  23.779  -6.516  1.00 47.87 LIG 0.14  C 
BRANCH 60 61
ATOM     61  NE  ARG E1022     -44.328  22.866  -5.516  1.00 55.98 LIG-0.23  N 
ATOM     62  CZ  ARG E1022     -44.627  21.577  -5.380  1.00 56.00 LIG 0.67  C 
ATOM     63  NH1 ARG E1022     -45.479  20.989  -6.213  1.00 48.69 LIG-0.23  N 
ATOM     64  NH2 ARG E1022     -44.051  20.855  -4.430  1.00 32.20 LIG-0.23  N 
ATOM     65 1HH1 ARG E1022     -45.843  21.442  -6.846  1.00 48.69 LIG 0.17  HD
ATOM     66 2HH1 ARG E1022     -45.667  20.155  -6.118  1.00 48.69 LIG 0.17  HD
ATOM     67 2HH2 ARG E1022     -44.247  20.022  -4.345  1.00 32.20 LIG 0.17  HD
ATOM     68 1HH2 ARG E1022     -43.482  21.220  -3.899  1.00 32.20 LIG 0.17  HD
ATOM     69 HE   ARG E1022     -43.757  23.193  -4.962  1.00 55.98 LIG 0.18  HD
ENDBRANCH 60 61
ENDBRANCH 59 60
ENDBRANCH 58 59
ENDBRANCH 47 58
ENDBRANCH 44 47
ENDBRANCH 42 43
BRANCH 42 70
ATOM     70  CB  ILE E1023     -46.119  23.372  -1.011  1.00 38.78 LIG 0.01  C 
ATOM     71  CG2 ILE E1023     -44.978  22.405  -1.360  1.00 39.01 LIG 0.01  C 
BRANCH 70 72
ATOM     72  CG1 ILE E1023     -45.637  24.854  -1.050  1.00 39.61 LIG 0.00  C 
ATOM     73  CD1 ILE E1023     -45.085  25.370  -2.356  1.00 43.21 LIG 0.01  C 
ENDBRANCH 70 72
ENDBRANCH 42 70
ENDBRANCH 1 42
TORSDOF 26
ENDMDL
MODEL 89
USER: ADFR SOLUTION from run 17
USER: SCORE 21.885835 LL:  -5.508 LR: -17.341 RR:   0.000 FEB:  -9.585
USER: RMSD 12.311699
USER: SEED 16
USER: STATUS no improvement in best in 10 clusters for 5 generations
USER: GENES 28
USER: genes 0 Translation |==|  0.55298 0.57506 0.50010
USER: genes 1 Rotation |==|  0.79386 0.89804 0.48190 0.56989
USER: genes 2 Torsion [N]-CA--C-[O] |==|  0.11708
USER: genes 3 Torsion [C]-N--CA-[CB] |==|  0.56805
USER: genes 4 Torsion [N]-CA--C-[N] |==|  0.44523
USER: genes 5 Torsion [C]-N--CA-[C] |==|  0.86111
USER: genes 6 Torsion [N]-CA--CB-[CG] |==|  0.40548
USER: genes 7 Torsion [CA]-CB--CG-[CD1] |==|  0.22455
USER: genes 8 Torsion [N]-CA--C-[N] |==|  0.36329
USER: genes 9 Torsion [C]-N--CA-[C] |==|  0.56516
USER: genes 10 Torsion [N]-CA--CB-[CG] |==|  0.26917
USER: genes 11 Torsion [CA]-CB--CG-[OD1] |==|  0.78596
USER: genes 12 Torsion [N]-CA--C-[O] |==|  0.87688
USER: genes 13 Torsion [N]-CA--CB-[CG2] |==|  0.56921
USER: genes 14 Torsion [CA]-CB--CG1-[CD1] |==|  0.26882
USER: genes 15 Torsion [N]-C--CA-[N] |==|  0.28427
USER: genes 16 Torsion [C]-CA--N-[C] |==|  0.54523
USER: genes 17 Torsion [N]-C--CA-[N] |==|  0.29777
USER: genes 18 Torsion [C]-CA--N-[C] |==|  0.72583
USER: genes 19 Torsion [N]-C--CA-[N] |==|  0.46469
USER: genes 20 Torsion [C]-CA--CB-[CG1] |==|  0.57438
USER: genes 21 Torsion [CA]-CB--CG1-[CD1] |==|  0.51161
USER: genes 22 Torsion [C]-CA--CB-[CG] |==|  0.06629
USER: genes 23 Torsion [CA]-CB--CG-[CD] |==|  0.29670
USER: genes 24 Torsion [CB]-CG--CD-[NE] |==|  0.69088
USER: genes 25 Torsion [CG]-CD--NE-[CZ] |==|  0.28447
USER: genes 26 Torsion [C]-CA--CB-[CG1] |==|  0.71079
USER: genes 27 Torsion [CA]-CB--CG1-[CD1] |==|  0.72189
ROOT
ATOM      1  C   ILE E1023     -47.561  26.775   0.461  1.00 40.02 LIG 0.24  C 
ATOM      2 O    ILE E1023     -46.468  27.242   0.813  1.00 38.38 LIG-0.27  OA
ATOM      3  N   PRO E1024     -47.687  25.582  -0.173  1.00 37.38 LIG-0.34  N 
ATOM      4  CA  PRO E1024     -46.479  24.859  -0.594  1.00 36.67 LIG 0.18  C 
ATOM      5  CB  PRO E1024     -46.995  23.458  -0.913  1.00 38.74 LIG 0.04  C 
ATOM      6  CG  PRO E1024     -48.406  23.657  -1.320  1.00 43.33 LIG 0.02  C 
ATOM      7  CD  PRO E1024     -48.913  24.903  -0.652  1.00 39.42 LIG 0.13  C 
ENDROOT
BRANCH 4 8
ATOM      8  C   PRO E1024     -45.894  25.545  -1.822  1.00 39.60 LIG 0.24  C 
ATOM      9 O    PRO E1024     -45.852  26.774  -1.857  1.00 37.18 LIG-0.27  OA
ATOM     10  N   ILE E1025     -45.418  24.745  -2.799  1.00 37.20 LIG-0.35  N 
ATOM     11 H    ILE E1025     -45.456  23.888  -2.735  1.00 37.20 LIG 0.16  HD
BRANCH 10 12
ATOM     12  CA  ILE E1025     -44.792  25.178  -4.056  1.00 37.42 LIG 0.18  C 
BRANCH 12 13
ATOM     13  C   ILE E1025     -45.525  26.384  -4.638  1.00 40.88 LIG 0.24  C 
ATOM     14 O    ILE E1025     -46.733  26.505  -4.428  1.00 40.29 LIG-0.27  OA
ATOM     15  N   PHE E1026     -44.870  27.146  -5.537  1.00 36.23 LIG-0.35  N 
ATOM     16 H    PHE E1026     -44.027  27.093  -5.693  1.00 36.23 LIG 0.16  HD
BRANCH 15 17
ATOM     17  CA  PHE E1026     -45.581  28.153  -6.336  1.00 36.58 LIG 0.18  C 
BRANCH 17 18
ATOM     18  CB  PHE E1026     -44.676  28.770  -7.398  1.00 38.58 LIG 0.07  C 
BRANCH 18 19
ATOM     19  CG  PHE E1026     -45.419  29.114  -8.655  1.00 40.24 LIG-0.06  A 
ATOM     20  CD1 PHE E1026     -46.153  30.277  -8.741  1.00 42.20 LIG 0.01  A 
ATOM     21  CE1 PHE E1026     -46.848  30.588  -9.898  1.00 42.54 LIG 0.00  A 
ATOM     22  CZ  PHE E1026     -46.810  29.740 -10.973  1.00 41.81 LIG 0.00  A 
ATOM     23  CE2 PHE E1026     -46.092  28.575 -10.907  1.00 44.36 LIG 0.00  A 
ATOM     24  CD2 PHE E1026     -45.401  28.258  -9.749  1.00 42.30 LIG 0.01  A 
ENDBRANCH 18 19
ENDBRANCH 17 18
BRANCH 17 25
ATOM     25  C   PHE E1026     -46.814  27.554  -6.987  1.00 38.60 LIG 0.24  C 
ATOM     26  N   ASN E1027     -47.966  28.255  -6.838  1.00 38.80 LIG-0.35  N 
ATOM     27 H    ASN E1027     -48.006  28.983  -6.381  1.00 38.80 LIG 0.16  HD
ATOM     28 O    PHE E1026     -46.714  26.528  -7.656  1.00 31.59 LIG-0.27  OA
BRANCH 26 29
ATOM     29  CA  ASN E1027     -49.257  27.872  -7.420  1.00 74.37 LIG 0.17  C 
BRANCH 29 30
ATOM     30  CB  ASN E1027     -49.949  26.836  -6.541  1.00 75.17 LIG 0.14  C 
BRANCH 30 31
ATOM     31  CG  ASN E1027     -50.964  27.436  -5.601  1.00 99.64 LIG 0.22  C 
ATOM     32  ND2 ASN E1027     -52.249  27.319  -5.924  1.00 92.55 LIG-0.37  N 
ATOM     33 22HD ASN E1027     -52.475  26.906  -6.644  1.00 92.55 LIG 0.16  HD
ATOM     34 21HD ASN E1027     -52.854  27.655  -5.413  1.00 92.55 LIG 0.16  HD
ATOM     35 OD1  ASN E1027     -50.608  28.021  -4.575  1.00 94.01 LIG-0.27  OA
ENDBRANCH 30 31
ENDBRANCH 29 30
BRANCH 29 36
ATOM     36  C   ASN E1027     -50.156  29.099  -7.561  1.00103.37 LIG 0.22  C 
ATOM     37 O    ASN E1027     -50.246  29.912  -6.645  1.00 69.20 LIG-0.29  OA
ENDBRANCH 29 36
ENDBRANCH 26 29
ENDBRANCH 17 25
ENDBRANCH 15 17
ENDBRANCH 12 13
BRANCH 12 38
ATOM     38  CB  ILE E1025     -44.970  24.017  -5.129  1.00 40.50 LIG 0.01  C 
ATOM     39  CG2 ILE E1025     -43.885  24.073  -6.213  1.00 43.95 LIG 0.01  C 
BRANCH 38 40
ATOM     40  CG1 ILE E1025     -45.043  22.624  -4.504  1.00 41.58 LIG 0.00  C 
ATOM     41  CD1 ILE E1025     -46.570  22.106  -4.299  1.00 52.05 LIG 0.01  C 
ENDBRANCH 38 40
ENDBRANCH 12 38
ENDBRANCH 10 12
ENDBRANCH 4 8
BRANCH 1 42
ATOM     42  CA  ILE E1023     -48.824  27.526   0.846  1.00 36.06 LIG 0.18  C 
BRANCH 42 43
ATOM     43  N   ILE E1023     -49.021  27.309   2.292  1.00 37.96 LIG-0.35  N 
ATOM     44  C   ARG E1022     -50.193  27.552   2.917  1.00 45.42 LIG 0.24  C 
ATOM     45 O    ARG E1022     -51.168  28.046   2.350  1.00 45.23 LIG-0.27  OA
ATOM     46 H    ILE E1023     -48.323  27.015   2.698  1.00 37.96 LIG 0.16  HD
BRANCH 44 47
ATOM     47  CA  ARG E1022     -50.291  27.268   4.416  1.00 45.59 LIG 0.18  C 
BRANCH 47 48
ATOM     48  N   ARG E1022     -50.324  28.491   5.237  1.00 48.30 LIG-0.35  N 
ATOM     49 H    ARG E1022     -51.097  28.863   5.289  1.00 48.30 LIG 0.16  HD
ATOM     50  C   ILE E1021     -49.215  28.966   5.847  1.00 57.51 LIG 0.26  C 
ATOM     51 O    ILE E1021     -48.113  28.410   5.760  1.00 59.03 LIG-0.27  OA
BRANCH 50 52
ATOM     52  CA  ILE E1021     -49.344  30.244   6.692  1.00 57.59 LIG 0.40  C 
ATOM     53  N   ILE E1021     -48.132  30.403   7.488  1.00 58.96 LIG 0.61  N 
BRANCH 52 54
ATOM     54  CB  ILE E1021     -49.494  31.526   5.824  1.00 60.58 LIG 0.03  C 
ATOM     55  CG2 ILE E1021     -50.926  31.755   5.348  1.00 61.37 LIG 0.01  C 
BRANCH 54 56
ATOM     56  CG1 ILE E1021     -48.963  32.765   6.586  1.00 60.59 LIG 0.00  C 
ATOM     57  CD1 ILE E1021     -49.173  34.030   5.841  1.00 60.15 LIG 0.01  C 
ENDBRANCH 54 56
ENDBRANCH 52 54
ENDBRANCH 50 52
ENDBRANCH 47 48
BRANCH 47 58
ATOM     58  CB  ARG E1022     -51.514  26.378   4.667  1.00 44.33 LIG 0.04  C 
BRANCH 58 59
ATOM     59  CG  ARG E1022     -51.928  25.569   3.443  1.00 47.73 LIG 0.02  C 
BRANCH 59 60
ATOM     60  CD  ARG E1022     -51.590  24.097   3.562  1.00 47.87 LIG 0.14  C 
BRANCH 60 61
ATOM     61  NE  ARG E1022     -50.529  23.733   2.623  1.00 55.98 LIG-0.23  N 
ATOM     62  CZ  ARG E1022     -49.247  23.544   2.920  1.00 56.00 LIG 0.67  C 
ATOM     63  NH1 ARG E1022     -48.819  23.655   4.174  1.00 48.69 LIG-0.23  N 
ATOM     64  NH2 ARG E1022     -48.385  23.209   1.972  1.00 32.20 LIG-0.23  N 
ATOM     65 1HH1 ARG E1022     -49.374  23.850   4.801  1.00 48.69 LIG 0.17  HD
ATOM     66 2HH1 ARG E1022     -47.989  23.530   4.357  1.00 48.69 LIG 0.17  HD
ATOM     67 2HH2 ARG E1022     -47.556  23.088   2.167  1.00 32.20 LIG 0.17  HD
ATOM     68 1HH2 ARG E1022     -48.654  23.113   1.161  1.00 32.20 LIG 0.17  HD
ATOM     69 HE   ARG E1022     -50.757  23.632   1.800  1.00 55.98 LIG 0.18  HD
ENDBRANCH 60 61
ENDBRANCH 59 60
ENDBRANCH 58 59
ENDBRANCH 47 58
ENDBRANCH 44 47
ENDBRANCH 42 43
BRANCH 42 70
ATOM     70  CB  ILE E1023     -48.666  29.036   0.468  1.00 38.78 LIG 0.01  C 
ATOM     71  CG2 ILE E1023     -49.884  29.525  -0.331  1.00 39.01 LIG 0.01  C 
BRANCH 70 72
ATOM     72  CG1 ILE E1023     -48.388  29.955   1.695  1.00 39.61 LIG 0.00  C 
ATOM     73  CD1 ILE E1023     -49.553  30.728   2.261  1.00 43.21 LIG 0.01  C 
ENDBRANCH 70 72
ENDBRANCH 42 70
ENDBRANCH 1 42
TORSDOF 26
ENDMDL
MODEL 90
USER: ADFR SOLUTION from run 26
USER: SCORE 21.758298 LL:  -6.001 LR: -17.322 RR:   0.000 FEB:  -9.566
USER: RMSD 12.370061
USER: SEED 25
USER: STATUS no improvement in best in 34 clusters for 5 generations
USER: GENES 28
USER: genes 0 Translation |==|  0.53621 0.60783 0.52482
USER: genes 1 Rotation |==|  0.81781 0.88534 0.48809 0.51916
USER: genes 2 Torsion [N]-CA--C-[O] |==|  0.14889
USER: genes 3 Torsion [C]-N--CA-[CB] |==|  0.23184
USER: genes 4 Torsion [N]-CA--C-[N] |==|  0.98298
USER: genes 5 Torsion [C]-N--CA-[C] |==|  0.71111
USER: genes 6 Torsion [N]-CA--CB-[CG] |==|  0.00103
USER: genes 7 Torsion [CA]-CB--CG-[CD1] |==|  0.21149
USER: genes 8 Torsion [N]-CA--C-[N] |==|  0.02798
USER: genes 9 Torsion [C]-N--CA-[C] |==|  0.53135
USER: genes 10 Torsion [N]-CA--CB-[CG] |==|  0.38563
USER: genes 11 Torsion [CA]-CB--CG-[OD1] |==|  0.20896
USER: genes 12 Torsion [N]-CA--C-[O] |==|  0.13070
USER: genes 13 Torsion [N]-CA--CB-[CG2] |==|  0.24639
USER: genes 14 Torsion [CA]-CB--CG1-[CD1] |==|  0.01704
USER: genes 15 Torsion [N]-C--CA-[N] |==|  0.33174
USER: genes 16 Torsion [C]-CA--N-[C] |==|  0.63221
USER: genes 17 Torsion [N]-C--CA-[N] |==|  0.77461
USER: genes 18 Torsion [C]-CA--N-[C] |==|  0.75529
USER: genes 19 Torsion [N]-C--CA-[N] |==|  0.86021
USER: genes 20 Torsion [C]-CA--CB-[CG1] |==|  0.40228
USER: genes 21 Torsion [CA]-CB--CG1-[CD1] |==|  0.87789
USER: genes 22 Torsion [C]-CA--CB-[CG] |==|  0.30730
USER: genes 23 Torsion [CA]-CB--CG-[CD] |==|  0.61273
USER: genes 24 Torsion [CB]-CG--CD-[NE] |==|  0.32502
USER: genes 25 Torsion [CG]-CD--NE-[CZ] |==|  0.44277
USER: genes 26 Torsion [C]-CA--CB-[CG1] |==|  0.44165
USER: genes 27 Torsion [CA]-CB--CG1-[CD1] |==|  0.15640
ROOT
ATOM      1  C   ILE E1023     -47.813  27.537   1.165  1.00 40.02 LIG 0.24  C 
ATOM      2 O    ILE E1023     -46.635  27.832   1.419  1.00 38.38 LIG-0.27  OA
ATOM      3  N   PRO E1024     -48.160  26.477   0.393  1.00 37.38 LIG-0.34  N 
ATOM      4  CA  PRO E1024     -47.110  25.712  -0.296  1.00 36.67 LIG 0.18  C 
ATOM      5  CB  PRO E1024     -47.827  24.437  -0.733  1.00 38.74 LIG 0.04  C 
ATOM      6  CG  PRO E1024     -49.244  24.836  -0.901  1.00 43.33 LIG 0.02  C 
ATOM      7  CD  PRO E1024     -49.509  26.006   0.004  1.00 39.42 LIG 0.13  C 
ENDROOT
BRANCH 4 8
ATOM      8  C   PRO E1024     -46.609  26.521  -1.485  1.00 39.60 LIG 0.24  C 
ATOM      9 O    PRO E1024     -46.223  27.675  -1.304  1.00 37.18 LIG-0.27  OA
ATOM     10  N   ILE E1025     -46.586  25.898  -2.681  1.00 37.20 LIG-0.35  N 
ATOM     11 H    ILE E1025     -46.856  25.086  -2.768  1.00 37.20 LIG 0.16  HD
BRANCH 10 12
ATOM     12  CA  ILE E1025     -46.125  26.466  -3.955  1.00 37.42 LIG 0.18  C 
BRANCH 12 13
ATOM     13  C   ILE E1025     -46.662  25.659  -5.134  1.00 40.88 LIG 0.24  C 
ATOM     14 O    ILE E1025     -46.641  26.161  -6.259  1.00 40.29 LIG-0.27  OA
ATOM     15  N   PHE E1026     -47.337  24.524  -4.865  1.00 36.23 LIG-0.35  N 
ATOM     16 H    PHE E1026     -47.358  24.144  -4.094  1.00 36.23 LIG 0.16  HD
BRANCH 15 17
ATOM     17  CA  PHE E1026     -48.108  23.836  -5.909  1.00 36.58 LIG 0.18  C 
BRANCH 17 18
ATOM     18  CB  PHE E1026     -47.825  22.337  -5.923  1.00 38.58 LIG 0.07  C 
BRANCH 18 19
ATOM     19  CG  PHE E1026     -46.839  21.930  -4.868  1.00 40.24 LIG-0.06  A 
ATOM     20  CD1 PHE E1026     -47.221  21.838  -3.547  1.00 42.20 LIG 0.01  A 
ATOM     21  CE1 PHE E1026     -46.308  21.473  -2.573  1.00 42.54 LIG 0.00  A 
ATOM     22  CZ  PHE E1026     -45.010  21.197  -2.914  1.00 41.81 LIG 0.00  A 
ATOM     23  CE2 PHE E1026     -44.606  21.289  -4.219  1.00 44.36 LIG 0.00  A 
ATOM     24  CD2 PHE E1026     -45.516  21.659  -5.196  1.00 42.30 LIG 0.01  A 
ENDBRANCH 18 19
ENDBRANCH 17 18
BRANCH 17 25
ATOM     25  C   PHE E1026     -49.595  24.082  -5.733  1.00 38.60 LIG 0.24  C 
ATOM     26  N   ASN E1027     -49.939  25.027  -4.822  1.00 38.80 LIG-0.35  N 
ATOM     27 H    ASN E1027     -49.354  25.447  -4.351  1.00 38.80 LIG 0.16  HD
ATOM     28 O    PHE E1026     -50.402  23.484  -6.441  1.00 31.59 LIG-0.27  OA
BRANCH 26 29
ATOM     29  CA  ASN E1027     -51.315  25.443  -4.529  1.00 74.37 LIG 0.17  C 
BRANCH 29 30
ATOM     30  CB  ASN E1027     -52.061  24.332  -3.797  1.00 75.17 LIG 0.14  C 
BRANCH 30 31
ATOM     31  CG  ASN E1027     -52.933  24.840  -2.676  1.00 99.64 LIG 0.22  C 
ATOM     32  ND2 ASN E1027     -52.507  24.650  -1.430  1.00 92.55 LIG-0.37  N 
ATOM     33 22HD ASN E1027     -51.756  24.256  -1.288  1.00 92.55 LIG 0.16  HD
ATOM     34 21HD ASN E1027     -52.982  24.921  -0.767  1.00 92.55 LIG 0.16  HD
ATOM     35 OD1  ASN E1027     -54.004  25.402  -2.912  1.00 94.01 LIG-0.27  OA
ENDBRANCH 30 31
ENDBRANCH 29 30
BRANCH 29 36
ATOM     36  C   ASN E1027     -51.313  26.705  -3.669  1.00103.37 LIG 0.22  C 
ATOM     37 O    ASN E1027     -50.595  27.656  -3.963  1.00 69.20 LIG-0.29  OA
ENDBRANCH 29 36
ENDBRANCH 26 29
ENDBRANCH 17 25
ENDBRANCH 15 17
ENDBRANCH 12 13
BRANCH 12 38
ATOM     38  CB  ILE E1025     -44.542  26.315  -4.026  1.00 40.50 LIG 0.01  C 
ATOM     39  CG2 ILE E1025     -44.125  24.974  -4.645  1.00 43.95 LIG 0.01  C 
BRANCH 38 40
ATOM     40  CG1 ILE E1025     -43.857  27.480  -4.741  1.00 41.58 LIG 0.00  C 
ATOM     41  CD1 ILE E1025     -44.888  28.677  -5.121  1.00 52.05 LIG 0.01  C 
ENDBRANCH 38 40
ENDBRANCH 12 38
ENDBRANCH 10 12
ENDBRANCH 4 8
BRANCH 1 42
ATOM     42  CA  ILE E1023     -48.917  28.339   1.831  1.00 36.06 LIG 0.18  C 
BRANCH 42 43
ATOM     43  N   ILE E1023     -48.692  28.245   3.286  1.00 37.96 LIG-0.35  N 
ATOM     44  C   ARG E1022     -49.675  27.949   4.163  1.00 45.42 LIG 0.24  C 
ATOM     45 O    ARG E1022     -50.853  27.810   3.831  1.00 45.23 LIG-0.27  OA
ATOM     46 H    ILE E1023     -47.879  28.395   3.522  1.00 37.96 LIG 0.16  HD
BRANCH 44 47
ATOM     47  CA  ARG E1022     -49.322  27.854   5.647  1.00 45.59 LIG 0.18  C 
BRANCH 47 48
ATOM     48  N   ARG E1022     -48.727  26.559   6.020  1.00 48.30 LIG-0.35  N 
ATOM     49 H    ARG E1022     -47.868  26.539   5.983  1.00 48.30 LIG 0.16  HD
ATOM     50  C   ILE E1021     -49.491  25.507   6.386  1.00 57.51 LIG 0.26  C 
ATOM     51 O    ILE E1021     -50.727  25.561   6.435  1.00 59.03 LIG-0.27  OA
BRANCH 50 52
ATOM     52  CA  ILE E1021     -48.784  24.196   6.767  1.00 57.59 LIG 0.40  C 
ATOM     53  N   ILE E1021     -47.831  23.855   5.716  1.00 58.96 LIG 0.61  N 
BRANCH 52 54
ATOM     54  CB  ILE E1021     -47.981  24.310   8.094  1.00 60.58 LIG 0.03  C 
ATOM     55  CG2 ILE E1021     -48.439  25.477   8.964  1.00 61.37 LIG 0.01  C 
BRANCH 54 56
ATOM     56  CG1 ILE E1021     -48.040  22.979   8.883  1.00 60.59 LIG 0.00  C 
ATOM     57  CD1 ILE E1021     -49.401  22.391   8.914  1.00 60.15 LIG 0.01  C 
ENDBRANCH 54 56
ENDBRANCH 52 54
ENDBRANCH 50 52
ENDBRANCH 47 48
BRANCH 47 58
ATOM     58  CB  ARG E1022     -48.406  29.030   6.008  1.00 44.33 LIG 0.04  C 
BRANCH 58 59
ATOM     59  CG  ARG E1022     -49.076  30.057   6.912  1.00 47.73 LIG 0.02  C 
BRANCH 59 60
ATOM     60  CD  ARG E1022     -48.744  31.486   6.537  1.00 47.87 LIG 0.14  C 
BRANCH 60 61
ATOM     61  NE  ARG E1022     -49.948  32.207   6.129  1.00 55.98 LIG-0.23  N 
ATOM     62  CZ  ARG E1022     -50.105  33.528   6.107  1.00 56.00 LIG 0.67  C 
ATOM     63  NH1 ARG E1022     -49.106  34.333   6.453  1.00 48.69 LIG-0.23  N 
ATOM     64  NH2 ARG E1022     -51.252  34.057   5.708  1.00 32.20 LIG-0.23  N 
ATOM     65 1HH1 ARG E1022     -48.350  34.001   6.693  1.00 48.69 LIG 0.17  HD
ATOM     66 2HH1 ARG E1022     -49.216  35.186   6.436  1.00 48.69 LIG 0.17  HD
ATOM     67 2HH2 ARG E1022     -51.350  34.911   5.695  1.00 32.20 LIG 0.17  HD
ATOM     68 1HH2 ARG E1022     -51.898  33.546   5.462  1.00 32.20 LIG 0.17  HD
ATOM     69 HE   ARG E1022     -50.620  31.732   5.879  1.00 55.98 LIG 0.18  HD
ENDBRANCH 60 61
ENDBRANCH 59 60
ENDBRANCH 58 59
ENDBRANCH 47 58
ENDBRANCH 44 47
ENDBRANCH 42 43
BRANCH 42 70
ATOM     70  CB  ILE E1023     -48.883  29.810   1.299  1.00 38.78 LIG 0.01  C 
ATOM     71  CG2 ILE E1023     -48.426  29.846  -0.167  1.00 39.01 LIG 0.01  C 
BRANCH 70 72
ATOM     72  CG1 ILE E1023     -50.231  30.568   1.491  1.00 39.61 LIG 0.00  C 
ATOM     73  CD1 ILE E1023     -50.786  30.655   2.891  1.00 43.21 LIG 0.01  C 
ENDBRANCH 70 72
ENDBRANCH 42 70
ENDBRANCH 1 42
TORSDOF 26
ENDMDL
MODEL 91
USER: ADFR SOLUTION from run 122
USER: SCORE 21.721366 LL:  -5.503 LR: -17.324 RR:   0.000 FEB:  -9.568
USER: RMSD 2.935159
USER: SEED 121
USER: STATUS no improvement in best in 10 clusters for 5 generations
USER: GENES 28
USER: genes 0 Translation |==|  0.46635 0.47314 0.45038
USER: genes 1 Rotation |==|  0.44822 0.47505 0.54036 0.99504
USER: genes 2 Torsion [N]-CA--C-[O] |==|  0.81905
USER: genes 3 Torsion [C]-N--CA-[CB] |==|  0.55005
USER: genes 4 Torsion [N]-CA--C-[N] |==|  0.32245
USER: genes 5 Torsion [C]-N--CA-[C] |==|  0.65506
USER: genes 6 Torsion [N]-CA--CB-[CG] |==|  0.43925
USER: genes 7 Torsion [CA]-CB--CG-[CD1] |==|  0.17139
USER: genes 8 Torsion [N]-CA--C-[N] |==|  0.34015
USER: genes 9 Torsion [C]-N--CA-[C] |==|  0.57065
USER: genes 10 Torsion [N]-CA--CB-[CG] |==|  0.22079
USER: genes 11 Torsion [CA]-CB--CG-[OD1] |==|  0.85527
USER: genes 12 Torsion [N]-CA--C-[O] |==|  0.47201
USER: genes 13 Torsion [N]-CA--CB-[CG2] |==|  0.46105
USER: genes 14 Torsion [CA]-CB--CG1-[CD1] |==|  0.80549
USER: genes 15 Torsion [N]-C--CA-[N] |==|  0.32916
USER: genes 16 Torsion [C]-CA--N-[C] |==|  0.59880
USER: genes 17 Torsion [N]-C--CA-[N] |==|  0.05813
USER: genes 18 Torsion [C]-CA--N-[C] |==|  0.71014
USER: genes 19 Torsion [N]-C--CA-[N] |==|  0.39889
USER: genes 20 Torsion [C]-CA--CB-[CG1] |==|  0.98802
USER: genes 21 Torsion [CA]-CB--CG1-[CD1] |==|  0.58316
USER: genes 22 Torsion [C]-CA--CB-[CG] |==|  0.33473
USER: genes 23 Torsion [CA]-CB--CG-[CD] |==|  0.42188
USER: genes 24 Torsion [CB]-CG--CD-[NE] |==|  0.41467
USER: genes 25 Torsion [CG]-CD--NE-[CZ] |==|  0.63714
USER: genes 26 Torsion [C]-CA--CB-[CG1] |==|  0.81232
USER: genes 27 Torsion [CA]-CB--CG1-[CD1] |==|  0.27103
ROOT
ATOM      1  C   ILE E1023     -48.861  24.406  -0.956  1.00 40.02 LIG 0.24  C 
ATOM      2 O    ILE E1023     -48.972  25.538  -1.449  1.00 38.38 LIG-0.27  OA
ATOM      3  N   PRO E1024     -49.762  23.887  -0.085  1.00 37.38 LIG-0.34  N 
ATOM      4  CA  PRO E1024     -50.852  24.736   0.416  1.00 36.67 LIG 0.18  C 
ATOM      5  CB  PRO E1024     -51.823  23.737   1.041  1.00 38.74 LIG 0.04  C 
ATOM      6  CG  PRO E1024     -50.976  22.598   1.466  1.00 43.33 LIG 0.02  C 
ATOM      7  CD  PRO E1024     -49.763  22.564   0.582  1.00 39.42 LIG 0.13  C 
ENDROOT
BRANCH 4 8
ATOM      8  C   PRO E1024     -50.289  25.705   1.447  1.00 39.60 LIG 0.24  C 
ATOM      9 O    PRO E1024     -49.836  25.261   2.501  1.00 37.18 LIG-0.27  OA
ATOM     10  N   ILE E1025     -50.290  27.013   1.119  1.00 37.20 LIG-0.35  N 
ATOM     11 H    ILE E1025     -50.607  27.287   0.368  1.00 37.20 LIG 0.16  HD
BRANCH 10 12
ATOM     12  CA  ILE E1025     -49.779  28.121   1.938  1.00 37.42 LIG 0.18  C 
BRANCH 12 13
ATOM     13  C   ILE E1025     -50.278  28.005   3.376  1.00 40.88 LIG 0.24  C 
ATOM     14 O    ILE E1025     -51.452  28.288   3.624  1.00 40.29 LIG-0.27  OA
ATOM     15  N   PHE E1026     -49.364  27.811   4.347  1.00 36.23 LIG-0.35  N 
ATOM     16 H    PHE E1026     -48.543  27.599   4.203  1.00 36.23 LIG 0.16  HD
BRANCH 15 17
ATOM     17  CA  PHE E1026     -49.722  27.954   5.764  1.00 36.58 LIG 0.18  C 
BRANCH 17 18
ATOM     18  CB  PHE E1026     -49.664  26.617   6.497  1.00 38.58 LIG 0.07  C 
BRANCH 18 19
ATOM     19  CG  PHE E1026     -49.504  26.782   7.980  1.00 40.24 LIG-0.06  A 
ATOM     20  CD1 PHE E1026     -50.465  27.433   8.723  1.00 42.20 LIG 0.01  A 
ATOM     21  CE1 PHE E1026     -50.310  27.595  10.089  1.00 42.54 LIG 0.00  A 
ATOM     22  CZ  PHE E1026     -49.196  27.106  10.719  1.00 41.81 LIG 0.00  A 
ATOM     23  CE2 PHE E1026     -48.224  26.462  10.000  1.00 44.36 LIG 0.00  A 
ATOM     24  CD2 PHE E1026     -48.373  26.304   8.631  1.00 42.30 LIG 0.01  A 
ENDBRANCH 18 19
ENDBRANCH 17 18
BRANCH 17 25
ATOM     25  C   PHE E1026     -48.821  28.963   6.451  1.00 38.60 LIG 0.24  C 
ATOM     26  N   ASN E1027     -49.444  30.014   7.041  1.00 38.80 LIG-0.35  N 
ATOM     27 H    ASN E1027     -50.297  30.119   7.009  1.00 38.80 LIG 0.16  HD
ATOM     28 O    PHE E1026     -47.609  28.766   6.501  1.00 31.59 LIG-0.27  OA
BRANCH 26 29
ATOM     29  CA  ASN E1027     -48.762  31.076   7.789  1.00 74.37 LIG 0.17  C 
BRANCH 29 30
ATOM     30  CB  ASN E1027     -48.257  32.155   6.836  1.00 75.17 LIG 0.14  C 
BRANCH 30 31
ATOM     31  CG  ASN E1027     -49.336  33.114   6.398  1.00 99.64 LIG 0.22  C 
ATOM     32  ND2 ASN E1027     -49.104  34.414   6.552  1.00 92.55 LIG-0.37  N 
ATOM     33 22HD ASN E1027     -48.357  34.681   6.884  1.00 92.55 LIG 0.16  HD
ATOM     34 21HD ASN E1027     -49.701  34.989   6.319  1.00 92.55 LIG 0.16  HD
ATOM     35 OD1  ASN E1027     -50.396  32.700   5.924  1.00 94.01 LIG-0.27  OA
ENDBRANCH 30 31
ENDBRANCH 29 30
BRANCH 29 36
ATOM     36  C   ASN E1027     -49.716  31.703   8.804  1.00103.37 LIG 0.22  C 
ATOM     37 O    ASN E1027     -49.294  32.481   9.655  1.00 69.20 LIG-0.29  OA
ENDBRANCH 29 36
ENDBRANCH 26 29
ENDBRANCH 17 25
ENDBRANCH 15 17
ENDBRANCH 12 13
BRANCH 12 38
ATOM     38  CB  ILE E1025     -50.397  29.479   1.385  1.00 40.50 LIG 0.01  C 
ATOM     39  CG2 ILE E1025     -50.202  30.637   2.373  1.00 43.95 LIG 0.01  C 
BRANCH 38 40
ATOM     40  CG1 ILE E1025     -49.879  29.856  -0.003  1.00 41.58 LIG 0.00  C 
ATOM     41  CD1 ILE E1025     -48.318  30.310   0.011  1.00 52.05 LIG 0.01  C 
ENDBRANCH 38 40
ENDBRANCH 12 38
ENDBRANCH 10 12
ENDBRANCH 4 8
BRANCH 1 42
ATOM     42  CA  ILE E1023     -47.717  23.523  -1.426  1.00 36.06 LIG 0.18  C 
BRANCH 42 43
ATOM     43  N   ILE E1023     -47.858  23.390  -2.888  1.00 37.96 LIG-0.35  N 
ATOM     44  C   ARG E1022     -47.554  22.255  -3.554  1.00 45.42 LIG 0.24  C 
ATOM     45 O    ARG E1022     -47.063  21.266  -3.009  1.00 45.23 LIG-0.27  OA
ATOM     46 H    ILE E1023     -48.150  24.100  -3.275  1.00 37.96 LIG 0.16  HD
BRANCH 44 47
ATOM     47  CA  ARG E1022     -47.762  22.222  -5.069  1.00 45.59 LIG 0.18  C 
BRANCH 47 48
ATOM     48  N   ARG E1022     -47.805  23.563  -5.677  1.00 48.30 LIG-0.35  N 
ATOM     49 H    ARG E1022     -47.038  23.944  -5.752  1.00 48.30 LIG 0.16  HD
ATOM     50  C   ILE E1021     -48.968  24.123  -6.076  1.00 57.51 LIG 0.26  C 
ATOM     51 O    ILE E1021     -50.060  23.553  -5.961  1.00 59.03 LIG-0.27  OA
BRANCH 50 52
ATOM     52  CA  ILE E1021     -48.917  25.524  -6.710  1.00 57.59 LIG 0.40  C 
ATOM     53  N   ILE E1021     -49.916  25.593  -7.772  1.00 58.96 LIG 0.61  N 
BRANCH 52 54
ATOM     54  CB  ILE E1021     -49.248  26.655  -5.696  1.00 60.58 LIG 0.03  C 
ATOM     55  CG2 ILE E1021     -50.322  27.612  -6.205  1.00 61.37 LIG 0.01  C 
BRANCH 54 56
ATOM     56  CG1 ILE E1021     -49.649  26.057  -4.325  1.00 60.59 LIG 0.00  C 
ATOM     57  CD1 ILE E1021     -50.605  26.916  -3.583  1.00 60.15 LIG 0.01  C 
ENDBRANCH 54 56
ENDBRANCH 52 54
ENDBRANCH 50 52
ENDBRANCH 47 48
BRANCH 47 58
ATOM     58  CB  ARG E1022     -46.670  21.345  -5.693  1.00 44.33 LIG 0.04  C 
BRANCH 58 59
ATOM     59  CG  ARG E1022     -47.225  20.154  -6.464  1.00 47.73 LIG 0.02  C 
BRANCH 59 60
ATOM     60  CD  ARG E1022     -46.319  19.700  -7.590  1.00 47.87 LIG 0.14  C 
BRANCH 60 61
ATOM     61  NE  ARG E1022     -46.450  18.261  -7.810  1.00 55.98 LIG-0.23  N 
ATOM     62  CZ  ARG E1022     -45.453  17.386  -7.907  1.00 56.00 LIG 0.67  C 
ATOM     63  NH1 ARG E1022     -44.191  17.781  -7.777  1.00 48.69 LIG-0.23  N 
ATOM     64  NH2 ARG E1022     -45.710  16.101  -8.102  1.00 32.20 LIG-0.23  N 
ATOM     65 1HH1 ARG E1022     -44.014  18.610  -7.629  1.00 48.69 LIG 0.17  HD
ATOM     66 2HH1 ARG E1022     -43.553  17.209  -7.841  1.00 48.69 LIG 0.17  HD
ATOM     67 2HH2 ARG E1022     -45.063  15.538  -8.164  1.00 32.20 LIG 0.17  HD
ATOM     68 1HH2 ARG E1022     -46.524  15.830  -8.165  1.00 32.20 LIG 0.17  HD
ATOM     69 HE   ARG E1022     -47.249  17.950  -7.883  1.00 55.98 LIG 0.18  HD
ENDBRANCH 60 61
ENDBRANCH 59 60
ENDBRANCH 58 59
ENDBRANCH 47 58
ENDBRANCH 44 47
ENDBRANCH 42 43
BRANCH 42 70
ATOM     70  CB  ILE E1023     -46.356  24.164  -0.996  1.00 38.78 LIG 0.01  C 
ATOM     71  CG2 ILE E1023     -45.209  23.155  -1.151  1.00 39.01 LIG 0.01  C 
BRANCH 70 72
ATOM     72  CG1 ILE E1023     -46.041  25.499  -1.735  1.00 39.61 LIG 0.00  C 
ATOM     73  CD1 ILE E1023     -46.370  26.784  -1.017  1.00 43.21 LIG 0.01  C 
ENDBRANCH 70 72
ENDBRANCH 42 70
ENDBRANCH 1 42
TORSDOF 26
ENDMDL
MODEL 92
USER: ADFR SOLUTION from run 140
USER: SCORE 20.677573 LL:  -6.512 LR: -17.323 RR:   0.000 FEB:  -9.567
USER: RMSD 12.800730
USER: SEED 139
USER: STATUS no improvement in best in 4 clusters for 5 generations
USER: GENES 28
USER: genes 0 Translation |==|  0.39336 0.62474 0.63449
USER: genes 1 Rotation |==|  0.13851 0.18067 0.63109 0.51290
USER: genes 2 Torsion [N]-CA--C-[O] |==|  0.75158
USER: genes 3 Torsion [C]-N--CA-[CB] |==|  0.42596
USER: genes 4 Torsion [N]-CA--C-[N] |==|  0.94273
USER: genes 5 Torsion [C]-N--CA-[C] |==|  0.21196
USER: genes 6 Torsion [N]-CA--CB-[CG] |==|  0.86381
USER: genes 7 Torsion [CA]-CB--CG-[CD1] |==|  0.86936
USER: genes 8 Torsion [N]-CA--C-[N] |==|  0.80556
USER: genes 9 Torsion [C]-N--CA-[C] |==|  0.63668
USER: genes 10 Torsion [N]-CA--CB-[CG] |==|  0.85572
USER: genes 11 Torsion [CA]-CB--CG-[OD1] |==|  0.21996
USER: genes 12 Torsion [N]-CA--C-[O] |==|  0.43904
USER: genes 13 Torsion [N]-CA--CB-[CG2] |==|  0.41613
USER: genes 14 Torsion [CA]-CB--CG1-[CD1] |==|  0.91895
USER: genes 15 Torsion [N]-C--CA-[N] |==|  0.26324
USER: genes 16 Torsion [C]-CA--N-[C] |==|  0.16397
USER: genes 17 Torsion [N]-C--CA-[N] |==|  0.34054
USER: genes 18 Torsion [C]-CA--N-[C] |==|  0.81533
USER: genes 19 Torsion [N]-C--CA-[N] |==|  0.28811
USER: genes 20 Torsion [C]-CA--CB-[CG1] |==|  0.44691
USER: genes 21 Torsion [CA]-CB--CG1-[CD1] |==|  0.24293
USER: genes 22 Torsion [C]-CA--CB-[CG] |==|  0.08880
USER: genes 23 Torsion [CA]-CB--CG-[CD] |==|  0.30003
USER: genes 24 Torsion [CB]-CG--CD-[NE] |==|  0.42123
USER: genes 25 Torsion [CG]-CD--NE-[CZ] |==|  0.35677
USER: genes 26 Torsion [C]-CA--CB-[CG1] |==|  0.53345
USER: genes 27 Torsion [CA]-CB--CG1-[CD1] |==|  0.88506
ROOT
ATOM      1  C   ILE E1023     -49.956  27.930   4.291  1.00 40.02 LIG 0.24  C 
ATOM      2 O    ILE E1023     -48.747  27.821   4.034  1.00 38.38 LIG-0.27  OA
ATOM      3  N   PRO E1024     -50.850  26.933   4.077  1.00 37.38 LIG-0.34  N 
ATOM      4  CA  PRO E1024     -50.416  25.711   3.384  1.00 36.67 LIG 0.18  C 
ATOM      5  CB  PRO E1024     -51.549  24.725   3.658  1.00 38.74 LIG 0.04  C 
ATOM      6  CG  PRO E1024     -52.754  25.569   3.836  1.00 43.33 LIG 0.02  C 
ATOM      7  CD  PRO E1024     -52.310  26.917   4.329  1.00 39.42 LIG 0.13  C 
ENDROOT
BRANCH 4 8
ATOM      8  C   PRO E1024     -50.269  26.012   1.898  1.00 39.60 LIG 0.24  C 
ATOM      9 O    PRO E1024     -51.242  25.864   1.159  1.00 37.18 LIG-0.27  OA
ATOM     10  N   ILE E1025     -49.068  26.464   1.483  1.00 37.20 LIG-0.35  N 
ATOM     11 H    ILE E1025     -48.413  26.564   2.031  1.00 37.20 LIG 0.16  HD
BRANCH 10 12
ATOM     12  CA  ILE E1025     -48.702  26.840   0.111  1.00 37.42 LIG 0.18  C 
BRANCH 12 13
ATOM     13  C   ILE E1025     -48.115  25.646  -0.639  1.00 40.88 LIG 0.24  C 
ATOM     14 O    ILE E1025     -48.288  25.562  -1.856  1.00 40.29 LIG-0.27  OA
ATOM     15  N   PHE E1026     -47.624  24.624   0.090  1.00 36.23 LIG-0.35  N 
ATOM     16 H    PHE E1026     -47.480  24.659   0.937  1.00 36.23 LIG 0.16  HD
BRANCH 15 17
ATOM     17  CA  PHE E1026     -47.290  23.338  -0.537  1.00 36.58 LIG 0.18  C 
BRANCH 17 18
ATOM     18  CB  PHE E1026     -48.404  22.858  -1.463  1.00 38.58 LIG 0.07  C 
BRANCH 18 19
ATOM     19  CG  PHE E1026     -49.755  22.913  -0.812  1.00 40.24 LIG-0.06  A 
ATOM     20  CD1 PHE E1026     -49.944  22.417   0.460  1.00 42.20 LIG 0.01  A 
ATOM     21  CE1 PHE E1026     -51.193  22.458   1.054  1.00 42.54 LIG 0.00  A 
ATOM     22  CZ  PHE E1026     -52.259  22.996   0.382  1.00 41.81 LIG 0.00  A 
ATOM     23  CE2 PHE E1026     -52.096  23.489  -0.886  1.00 44.36 LIG 0.00  A 
ATOM     24  CD2 PHE E1026     -50.847  23.444  -1.486  1.00 42.30 LIG 0.01  A 
ENDBRANCH 18 19
ENDBRANCH 17 18
BRANCH 17 25
ATOM     25  C   PHE E1026     -45.983  23.433  -1.302  1.00 38.60 LIG 0.24  C 
ATOM     26  N   ASN E1027     -46.008  24.182  -2.433  1.00 38.80 LIG-0.35  N 
ATOM     27 H    ASN E1027     -46.725  24.562  -2.718  1.00 38.80 LIG 0.16  HD
ATOM     28 O    PHE E1026     -44.971  22.901  -0.851  1.00 31.59 LIG-0.27  OA
BRANCH 26 29
ATOM     29  CA  ASN E1027     -44.846  24.433  -3.293  1.00 74.37 LIG 0.17  C 
BRANCH 29 30
ATOM     30  CB  ASN E1027     -44.980  23.664  -4.604  1.00 75.17 LIG 0.14  C 
BRANCH 30 31
ATOM     31  CG  ASN E1027     -45.266  22.197  -4.405  1.00 99.64 LIG 0.22  C 
ATOM     32  ND2 ASN E1027     -44.252  21.347  -4.540  1.00 92.55 LIG-0.37  N 
ATOM     33 22HD ASN E1027     -43.466  21.642  -4.727  1.00 92.55 LIG 0.16  HD
ATOM     34 21HD ASN E1027     -44.381  20.503  -4.440  1.00 92.55 LIG 0.16  HD
ATOM     35 OD1  ASN E1027     -46.403  21.804  -4.137  1.00 94.01 LIG-0.27  OA
ENDBRANCH 30 31
ENDBRANCH 29 30
BRANCH 29 36
ATOM     36  C   ASN E1027     -44.724  25.926  -3.592  1.00103.37 LIG 0.22  C 
ATOM     37 O    ASN E1027     -43.646  26.404  -3.936  1.00 69.20 LIG-0.29  OA
ENDBRANCH 29 36
ENDBRANCH 26 29
ENDBRANCH 17 25
ENDBRANCH 15 17
ENDBRANCH 12 13
BRANCH 12 38
ATOM     38  CB  ILE E1025     -47.528  27.912   0.182  1.00 40.50 LIG 0.01  C 
ATOM     39  CG2 ILE E1025     -46.602  27.824  -1.039  1.00 43.95 LIG 0.01  C 
BRANCH 38 40
ATOM     40  CG1 ILE E1025     -48.030  29.342   0.381  1.00 41.58 LIG 0.00  C 
ATOM     41  CD1 ILE E1025     -49.507  29.584  -0.252  1.00 52.05 LIG 0.01  C 
ENDBRANCH 38 40
ENDBRANCH 12 38
ENDBRANCH 10 12
ENDBRANCH 4 8
BRANCH 1 42
ATOM     42  CA  ILE E1023     -50.437  29.201   4.968  1.00 36.06 LIG 0.18  C 
BRANCH 42 43
ATOM     43  N   ILE E1023     -50.150  29.049   6.408  1.00 37.96 LIG-0.35  N 
ATOM     44  C   ARG E1022     -48.905  28.848   6.890  1.00 45.42 LIG 0.24  C 
ATOM     45 O    ARG E1022     -47.920  28.698   6.167  1.00 45.23 LIG-0.27  OA
ATOM     46 H    ILE E1023     -50.847  29.101   6.908  1.00 37.96 LIG 0.16  HD
BRANCH 44 47
ATOM     47  CA  ARG E1022     -48.722  28.729   8.403  1.00 45.59 LIG 0.18  C 
BRANCH 47 48
ATOM     48  N   ARG E1022     -48.090  27.463   8.812  1.00 48.30 LIG-0.35  N 
ATOM     49 H    ARG E1022     -47.307  27.552   9.156  1.00 48.30 LIG 0.16  HD
ATOM     50  C   ILE E1021     -48.712  26.275   8.650  1.00 57.51 LIG 0.26  C 
ATOM     51 O    ILE E1021     -49.842  26.173   8.155  1.00 59.03 LIG-0.27  OA
BRANCH 50 52
ATOM     52  CA  ILE E1021     -47.981  25.004   9.114  1.00 57.59 LIG 0.40  C 
ATOM     53  N   ILE E1021     -48.569  24.560  10.374  1.00 58.96 LIG 0.61  N 
BRANCH 52 54
ATOM     54  CB  ILE E1021     -48.117  23.829   8.106  1.00 60.58 LIG 0.03  C 
ATOM     55  CG2 ILE E1021     -48.108  24.293   6.652  1.00 61.37 LIG 0.01  C 
BRANCH 54 56
ATOM     56  CG1 ILE E1021     -47.015  22.769   8.351  1.00 60.59 LIG 0.00  C 
ATOM     57  CD1 ILE E1021     -47.408  21.757   9.361  1.00 60.15 LIG 0.01  C 
ENDBRANCH 54 56
ENDBRANCH 52 54
ENDBRANCH 50 52
ENDBRANCH 47 48
BRANCH 47 58
ATOM     58  CB  ARG E1022     -47.934  29.948   8.898  1.00 44.33 LIG 0.04  C 
BRANCH 58 59
ATOM     59  CG  ARG E1022     -48.207  31.208   8.085  1.00 47.73 LIG 0.02  C 
BRANCH 59 60
ATOM     60  CD  ARG E1022     -49.035  32.231   8.835  1.00 47.87 LIG 0.14  C 
BRANCH 60 61
ATOM     61  NE  ARG E1022     -48.727  33.583   8.373  1.00 55.98 LIG-0.23  N 
ATOM     62  CZ  ARG E1022     -49.607  34.498   7.974  1.00 56.00 LIG 0.67  C 
ATOM     63  NH1 ARG E1022     -50.910  34.236   7.995  1.00 48.69 LIG-0.23  N 
ATOM     64  NH2 ARG E1022     -49.195  35.694   7.583  1.00 32.20 LIG-0.23  N 
ATOM     65 1HH1 ARG E1022     -51.190  33.470   8.268  1.00 48.69 LIG 0.17  HD
ATOM     66 2HH1 ARG E1022     -51.472  34.833   7.736  1.00 48.69 LIG 0.17  HD
ATOM     67 2HH2 ARG E1022     -49.767  36.283   7.326  1.00 32.20 LIG 0.17  HD
ATOM     68 1HH2 ARG E1022     -48.356  35.882   7.586  1.00 32.20 LIG 0.17  HD
ATOM     69 HE   ARG E1022     -47.897  33.810   8.357  1.00 55.98 LIG 0.18  HD
ENDBRANCH 60 61
ENDBRANCH 59 60
ENDBRANCH 58 59
ENDBRANCH 47 58
ENDBRANCH 44 47
ENDBRANCH 42 43
BRANCH 42 70
ATOM     70  CB  ILE E1023     -49.721  30.435   4.326  1.00 38.78 LIG 0.01  C 
ATOM     71  CG2 ILE E1023     -50.153  30.612   2.863  1.00 39.01 LIG 0.01  C 
BRANCH 70 72
ATOM     72  CG1 ILE E1023     -49.914  31.752   5.136  1.00 39.61 LIG 0.00  C 
ATOM     73  CD1 ILE E1023     -51.285  32.023   5.705  1.00 43.21 LIG 0.01  C 
ENDBRANCH 70 72
ENDBRANCH 42 70
ENDBRANCH 1 42
TORSDOF 26
ENDMDL
MODEL 93
USER: ADFR SOLUTION from run 67
USER: SCORE 21.429054 LL:  -5.419 LR: -17.311 RR:   0.000 FEB:  -9.556
USER: RMSD 6.169819
USER: SEED 66
USER: STATUS no improvement in best in 8 clusters for 5 generations
USER: GENES 28
USER: genes 0 Translation |==|  0.54658 0.40106 0.35217
USER: genes 1 Rotation |==|  0.42578 0.67766 0.91879 0.69375
USER: genes 2 Torsion [N]-CA--C-[O] |==|  0.79333
USER: genes 3 Torsion [C]-N--CA-[CB] |==|  0.59266
USER: genes 4 Torsion [N]-CA--C-[N] |==|  0.41407
USER: genes 5 Torsion [C]-N--CA-[C] |==|  0.80053
USER: genes 6 Torsion [N]-CA--CB-[CG] |==|  0.75890
USER: genes 7 Torsion [CA]-CB--CG-[CD1] |==|  0.00049
USER: genes 8 Torsion [N]-CA--C-[N] |==|  0.37360
USER: genes 9 Torsion [C]-N--CA-[C] |==|  0.60669
USER: genes 10 Torsion [N]-CA--CB-[CG] |==|  0.85796
USER: genes 11 Torsion [CA]-CB--CG-[OD1] |==|  0.80178
USER: genes 12 Torsion [N]-CA--C-[O] |==|  0.92409
USER: genes 13 Torsion [N]-CA--CB-[CG2] |==|  0.14495
USER: genes 14 Torsion [CA]-CB--CG1-[CD1] |==|  0.55192
USER: genes 15 Torsion [N]-C--CA-[N] |==|  0.29662
USER: genes 16 Torsion [C]-CA--N-[C] |==|  0.58889
USER: genes 17 Torsion [N]-C--CA-[N] |==|  0.77414
USER: genes 18 Torsion [C]-CA--N-[C] |==|  0.61000
USER: genes 19 Torsion [N]-C--CA-[N] |==|  0.45220
USER: genes 20 Torsion [C]-CA--CB-[CG1] |==|  0.14951
USER: genes 21 Torsion [CA]-CB--CG1-[CD1] |==|  0.70700
USER: genes 22 Torsion [C]-CA--CB-[CG] |==|  0.23120
USER: genes 23 Torsion [CA]-CB--CG-[CD] |==|  0.36431
USER: genes 24 Torsion [CB]-CG--CD-[NE] |==|  0.11833
USER: genes 25 Torsion [CG]-CD--NE-[CZ] |==|  0.27097
USER: genes 26 Torsion [C]-CA--CB-[CG1] |==|  0.07216
USER: genes 27 Torsion [CA]-CB--CG1-[CD1] |==|  0.20520
ROOT
ATOM      1  C   ILE E1023     -47.657  22.730  -3.755  1.00 40.02 LIG 0.24  C 
ATOM      2 O    ILE E1023     -48.609  22.036  -3.366  1.00 38.38 LIG-0.27  OA
ATOM      3  N   PRO E1024     -46.627  23.090  -2.950  1.00 37.38 LIG-0.34  N 
ATOM      4  CA  PRO E1024     -46.687  22.772  -1.516  1.00 36.67 LIG 0.18  C 
ATOM      5  CB  PRO E1024     -45.251  22.987  -1.043  1.00 38.74 LIG 0.04  C 
ATOM      6  CG  PRO E1024     -44.696  24.007  -1.963  1.00 43.33 LIG 0.02  C 
ATOM      7  CD  PRO E1024     -45.433  23.908  -3.268  1.00 39.42 LIG 0.13  C 
ENDROOT
BRANCH 4 8
ATOM      8  C   PRO E1024     -47.660  23.728  -0.838  1.00 39.60 LIG 0.24  C 
ATOM      9 O    PRO E1024     -47.317  24.894  -0.647  1.00 37.18 LIG-0.27  OA
ATOM     10  N   ILE E1025     -48.874  23.236  -0.517  1.00 37.20 LIG-0.35  N 
ATOM     11 H    ILE E1025     -49.082  22.417  -0.674  1.00 37.20 LIG 0.16  HD
BRANCH 10 12
ATOM     12  CA  ILE E1025     -49.976  23.973   0.117  1.00 37.42 LIG 0.18  C 
BRANCH 12 13
ATOM     13  C   ILE E1025     -49.437  25.054   1.051  1.00 40.88 LIG 0.24  C 
ATOM     14 O    ILE E1025     -48.474  24.792   1.773  1.00 40.29 LIG-0.27  OA
ATOM     15  N   PHE E1026     -50.171  26.175   1.207  1.00 36.23 LIG-0.35  N 
ATOM     16 H    PHE E1026     -50.838  26.389   0.709  1.00 36.23 LIG 0.16  HD
BRANCH 15 17
ATOM     17  CA  PHE E1026     -49.866  27.136   2.275  1.00 36.58 LIG 0.18  C 
BRANCH 17 18
ATOM     18  CB  PHE E1026     -50.565  28.472   2.046  1.00 38.58 LIG 0.07  C 
BRANCH 18 19
ATOM     19  CG  PHE E1026     -49.764  29.397   1.177  1.00 40.24 LIG-0.06  A 
ATOM     20  CD1 PHE E1026     -48.541  29.008   0.676  1.00 42.20 LIG 0.01  A 
ATOM     21  CE1 PHE E1026     -47.798  29.866  -0.116  1.00 42.54 LIG 0.00  A 
ATOM     22  CZ  PHE E1026     -48.274  31.117  -0.411  1.00 41.81 LIG 0.00  A 
ATOM     23  CE2 PHE E1026     -49.484  31.528   0.082  1.00 44.36 LIG 0.00  A 
ATOM     24  CD2 PHE E1026     -50.228  30.673   0.880  1.00 42.30 LIG 0.01  A 
ENDBRANCH 18 19
ENDBRANCH 17 18
BRANCH 17 25
ATOM     25  C   PHE E1026     -50.249  26.575   3.632  1.00 38.60 LIG 0.24  C 
ATOM     26  N   ASN E1027     -49.332  26.731   4.621  1.00 38.80 LIG-0.35  N 
ATOM     27 H    ASN E1027     -48.568  27.102   4.486  1.00 38.80 LIG 0.16  HD
ATOM     28 O    PHE E1026     -51.359  26.075   3.796  1.00 31.59 LIG-0.27  OA
BRANCH 26 29
ATOM     29  CA  ASN E1027     -49.521  26.297   6.010  1.00 74.37 LIG 0.17  C 
BRANCH 29 30
ATOM     30  CB  ASN E1027     -48.861  24.941   6.237  1.00 75.17 LIG 0.14  C 
BRANCH 30 31
ATOM     31  CG  ASN E1027     -49.264  23.906   5.216  1.00 99.64 LIG 0.22  C 
ATOM     32  ND2 ASN E1027     -48.355  23.544   4.314  1.00 92.55 LIG-0.37  N 
ATOM     33 22HD ASN E1027     -47.570  23.894   4.331  1.00 92.55 LIG 0.16  HD
ATOM     34 21HD ASN E1027     -48.553  22.962   3.713  1.00 92.55 LIG 0.16  HD
ATOM     35 OD1  ASN E1027     -50.398  23.423   5.217  1.00 94.01 LIG-0.27  OA
ENDBRANCH 30 31
ENDBRANCH 29 30
BRANCH 29 36
ATOM     36  C   ASN E1027     -48.917  27.321   6.969  1.00103.37 LIG 0.22  C 
ATOM     37 O    ASN E1027     -47.981  28.030   6.611  1.00 69.20 LIG-0.29  OA
ENDBRANCH 29 36
ENDBRANCH 26 29
ENDBRANCH 17 25
ENDBRANCH 15 17
ENDBRANCH 12 13
BRANCH 12 38
ATOM     38  CB  ILE E1025     -50.777  22.967   1.054  1.00 40.50 LIG 0.01  C 
ATOM     39  CG2 ILE E1025     -49.846  22.228   2.024  1.00 43.95 LIG 0.01  C 
BRANCH 38 40
ATOM     40  CG1 ILE E1025     -51.930  23.632   1.807  1.00 41.58 LIG 0.00  C 
ATOM     41  CD1 ILE E1025     -52.426  22.765   3.089  1.00 52.05 LIG 0.01  C 
ENDBRANCH 38 40
ENDBRANCH 12 38
ENDBRANCH 10 12
ENDBRANCH 4 8
BRANCH 1 42
ATOM     42  CA  ILE E1023     -47.594  23.108  -5.225  1.00 36.06 LIG 0.18  C 
BRANCH 42 43
ATOM     43  N   ILE E1023     -47.315  21.866  -5.970  1.00 37.96 LIG-0.35  N 
ATOM     44  C   ARG E1022     -46.598  21.843  -7.115  1.00 45.42 LIG 0.24  C 
ATOM     45 O    ARG E1022     -46.186  22.861  -7.671  1.00 45.23 LIG-0.27  OA
ATOM     46 H    ILE E1023     -47.650  21.162  -5.609  1.00 37.96 LIG 0.16  HD
BRANCH 44 47
ATOM     47  CA  ARG E1022     -46.351  20.494  -7.791  1.00 45.59 LIG 0.18  C 
BRANCH 47 48
ATOM     48  N   ARG E1022     -45.236  19.741  -7.191  1.00 48.30 LIG-0.35  N 
ATOM     49 H    ARG E1022     -45.196  19.788  -6.334  1.00 48.30 LIG 0.16  HD
ATOM     50  C   ILE E1021     -44.364  19.041  -7.950  1.00 57.51 LIG 0.26  C 
ATOM     51 O    ILE E1021     -44.444  18.984  -9.183  1.00 59.03 LIG-0.27  OA
BRANCH 50 52
ATOM     52  CA  ILE E1021     -43.235  18.277  -7.237  1.00 57.59 LIG 0.40  C 
ATOM     53  N   ILE E1021     -42.683  17.290  -8.160  1.00 58.96 LIG 0.61  N 
BRANCH 52 54
ATOM     54  CB  ILE E1021     -42.064  19.202  -6.801  1.00 60.58 LIG 0.03  C 
ATOM     55  CG2 ILE E1021     -41.241  19.711  -7.981  1.00 61.37 LIG 0.01  C 
BRANCH 54 56
ATOM     56  CG1 ILE E1021     -42.591  20.382  -5.949  1.00 60.59 LIG 0.00  C 
ATOM     57  CD1 ILE E1021     -42.606  21.665  -6.693  1.00 60.15 LIG 0.01  C 
ENDBRANCH 54 56
ENDBRANCH 52 54
ENDBRANCH 50 52
ENDBRANCH 47 48
BRANCH 47 58
ATOM     58  CB  ARG E1022     -47.658  19.692  -7.775  1.00 44.33 LIG 0.04  C 
BRANCH 58 59
ATOM     59  CG  ARG E1022     -48.597  20.053  -8.919  1.00 47.73 LIG 0.02  C 
BRANCH 59 60
ATOM     60  CD  ARG E1022     -49.126  18.842  -9.658  1.00 47.87 LIG 0.14  C 
BRANCH 60 61
ATOM     61  NE  ARG E1022     -49.503  17.787  -8.719  1.00 55.98 LIG-0.23  N 
ATOM     62  CZ  ARG E1022     -50.729  17.535  -8.269  1.00 56.00 LIG 0.67  C 
ATOM     63  NH1 ARG E1022     -51.764  18.255  -8.689  1.00 48.69 LIG-0.23  N 
ATOM     64  NH2 ARG E1022     -50.937  16.540  -7.421  1.00 32.20 LIG-0.23  N 
ATOM     65 1HH1 ARG E1022     -51.644  18.890  -9.256  1.00 48.69 LIG 0.17  HD
ATOM     66 2HH1 ARG E1022     -52.554  18.086  -8.393  1.00 48.69 LIG 0.17  HD
ATOM     67 2HH2 ARG E1022     -51.731  16.380  -7.132  1.00 32.20 LIG 0.17  HD
ATOM     68 1HH2 ARG E1022     -50.278  16.053  -7.159  1.00 32.20 LIG 0.17  HD
ATOM     69 HE   ARG E1022     -48.871  17.280  -8.430  1.00 55.98 LIG 0.18  HD
ENDBRANCH 60 61
ENDBRANCH 59 60
ENDBRANCH 58 59
ENDBRANCH 47 58
ENDBRANCH 44 47
ENDBRANCH 42 43
BRANCH 42 70
ATOM     70  CB  ILE E1023     -48.939  23.787  -5.645  1.00 38.78 LIG 0.01  C 
ATOM     71  CG2 ILE E1023     -49.849  22.785  -6.370  1.00 39.01 LIG 0.01  C 
BRANCH 70 72
ATOM     72  CG1 ILE E1023     -49.682  24.473  -4.459  1.00 39.61 LIG 0.00  C 
ATOM     73  CD1 ILE E1023     -49.113  25.769  -3.939  1.00 43.21 LIG 0.01  C 
ENDBRANCH 70 72
ENDBRANCH 42 70
ENDBRANCH 1 42
TORSDOF 26
ENDMDL
MODEL 94
USER: ADFR SOLUTION from run 171
USER: SCORE 22.208748 LL:  -6.021 LR: -17.307 RR:   0.000 FEB:  -9.551
USER: RMSD 4.844364
USER: SEED 170
USER: STATUS no improvement in best in 11 clusters for 5 generations
USER: GENES 28
USER: genes 0 Translation |==|  0.45388 0.51696 0.41851
USER: genes 1 Rotation |==|  0.52608 0.84300 0.80645 0.69432
USER: genes 2 Torsion [N]-CA--C-[O] |==|  0.81168
USER: genes 3 Torsion [C]-N--CA-[CB] |==|  0.16593
USER: genes 4 Torsion [N]-CA--C-[N] |==|  0.13080
USER: genes 5 Torsion [C]-N--CA-[C] |==|  0.70256
USER: genes 6 Torsion [N]-CA--CB-[CG] |==|  0.97452
USER: genes 7 Torsion [CA]-CB--CG-[CD1] |==|  0.80076
USER: genes 8 Torsion [N]-CA--C-[N] |==|  0.31516
USER: genes 9 Torsion [C]-N--CA-[C] |==|  0.86097
USER: genes 10 Torsion [N]-CA--CB-[CG] |==|  0.85533
USER: genes 11 Torsion [CA]-CB--CG-[OD1] |==|  0.18448
USER: genes 12 Torsion [N]-CA--C-[O] |==|  0.83803
USER: genes 13 Torsion [N]-CA--CB-[CG2] |==|  0.17216
USER: genes 14 Torsion [CA]-CB--CG1-[CD1] |==|  0.05361
USER: genes 15 Torsion [N]-C--CA-[N] |==|  0.85000
USER: genes 16 Torsion [C]-CA--N-[C] |==|  0.60011
USER: genes 17 Torsion [N]-C--CA-[N] |==|  0.05882
USER: genes 18 Torsion [C]-CA--N-[C] |==|  0.17972
USER: genes 19 Torsion [N]-C--CA-[N] |==|  0.54552
USER: genes 20 Torsion [C]-CA--CB-[CG1] |==|  0.27241
USER: genes 21 Torsion [CA]-CB--CG1-[CD1] |==|  0.01501
USER: genes 22 Torsion [C]-CA--CB-[CG] |==|  0.42315
USER: genes 23 Torsion [CA]-CB--CG-[CD] |==|  0.70379
USER: genes 24 Torsion [CB]-CG--CD-[NE] |==|  0.42695
USER: genes 25 Torsion [CG]-CD--NE-[CZ] |==|  0.67084
USER: genes 26 Torsion [C]-CA--CB-[CG1] |==|  0.62981
USER: genes 27 Torsion [CA]-CB--CG1-[CD1] |==|  0.33206
ROOT
ATOM      1  C   ILE E1023     -49.048  25.424  -1.864  1.00 40.02 LIG 0.24  C 
ATOM      2 O    ILE E1023     -49.715  25.548  -0.827  1.00 38.38 LIG-0.27  OA
ATOM      3  N   PRO E1024     -47.692  25.476  -1.882  1.00 37.38 LIG-0.34  N 
ATOM      4  CA  PRO E1024     -46.968  25.829  -0.653  1.00 36.67 LIG 0.18  C 
ATOM      5  CB  PRO E1024     -45.527  25.430  -0.961  1.00 38.74 LIG 0.04  C 
ATOM      6  CG  PRO E1024     -45.405  25.552  -2.433  1.00 43.33 LIG 0.02  C 
ATOM      7  CD  PRO E1024     -46.767  25.349  -3.032  1.00 39.42 LIG 0.13  C 
ENDROOT
BRANCH 4 8
ATOM      8  C   PRO E1024     -47.105  27.328  -0.413  1.00 39.60 LIG 0.24  C 
ATOM      9 O    PRO E1024     -46.558  28.110  -1.188  1.00 37.18 LIG-0.27  OA
ATOM     10  N   ILE E1025     -47.862  27.710   0.636  1.00 37.20 LIG-0.35  N 
ATOM     11 H    ILE E1025     -48.238  27.133   1.152  1.00 37.20 LIG 0.16  HD
BRANCH 10 12
ATOM     12  CA  ILE E1025     -48.155  29.090   1.046  1.00 37.42 LIG 0.18  C 
BRANCH 12 13
ATOM     13  C   ILE E1025     -49.150  29.112   2.203  1.00 40.88 LIG 0.24  C 
ATOM     14 O    ILE E1025     -49.993  30.009   2.248  1.00 40.29 LIG-0.27  OA
ATOM     15  N   PHE E1026     -48.927  28.281   3.241  1.00 36.23 LIG-0.35  N 
ATOM     16 H    PHE E1026     -48.356  27.638   3.233  1.00 36.23 LIG 0.16  HD
BRANCH 15 17
ATOM     17  CA  PHE E1026     -49.673  28.424   4.499  1.00 36.58 LIG 0.18  C 
BRANCH 17 18
ATOM     18  CB  PHE E1026     -50.271  27.096   4.952  1.00 38.58 LIG 0.07  C 
BRANCH 18 19
ATOM     19  CG  PHE E1026     -50.147  26.025   3.910  1.00 40.24 LIG-0.06  A 
ATOM     20  CD1 PHE E1026     -50.913  26.065   2.765  1.00 42.20 LIG 0.01  A 
ATOM     21  CE1 PHE E1026     -50.805  25.069   1.809  1.00 42.54 LIG 0.00  A 
ATOM     22  CZ  PHE E1026     -49.931  24.030   1.992  1.00 41.81 LIG 0.00  A 
ATOM     23  CE2 PHE E1026     -49.164  23.966   3.125  1.00 44.36 LIG 0.00  A 
ATOM     24  CD2 PHE E1026     -49.274  24.958   4.087  1.00 42.30 LIG 0.01  A 
ENDBRANCH 18 19
ENDBRANCH 17 18
BRANCH 17 25
ATOM     25  C   PHE E1026     -48.786  28.995   5.590  1.00 38.60 LIG 0.24  C 
ATOM     26  N   ASN E1027     -49.112  30.235   6.034  1.00 38.80 LIG-0.35  N 
ATOM     27 H    ASN E1027     -49.765  30.686   5.702  1.00 38.80 LIG 0.16  HD
ATOM     28 O    PHE E1026     -47.878  28.312   6.060  1.00 31.59 LIG-0.27  OA
BRANCH 26 29
ATOM     29  CA  ASN E1027     -48.410  30.948   7.107  1.00 74.37 LIG 0.17  C 
BRANCH 29 30
ATOM     30  CB  ASN E1027     -49.174  32.211   7.493  1.00 75.17 LIG 0.14  C 
BRANCH 30 31
ATOM     31  CG  ASN E1027     -49.502  33.091   6.313  1.00 99.64 LIG 0.22  C 
ATOM     32  ND2 ASN E1027     -48.922  34.287   6.257  1.00 92.55 LIG-0.37  N 
ATOM     33 22HD ASN E1027     -48.378  34.530   6.876  1.00 92.55 LIG 0.16  HD
ATOM     34 21HD ASN E1027     -49.092  34.817   5.601  1.00 92.55 LIG 0.16  HD
ATOM     35 OD1  ASN E1027     -50.287  32.714   5.441  1.00 94.01 LIG-0.27  OA
ENDBRANCH 30 31
ENDBRANCH 29 30
BRANCH 29 36
ATOM     36  C   ASN E1027     -48.266  30.048   8.332  1.00103.37 LIG 0.22  C 
ATOM     37 O    ASN E1027     -49.260  29.575   8.876  1.00 69.20 LIG-0.29  OA
ENDBRANCH 29 36
ENDBRANCH 26 29
ENDBRANCH 17 25
ENDBRANCH 15 17
ENDBRANCH 12 13
BRANCH 12 38
ATOM     38  CB  ILE E1025     -48.892  29.824  -0.159  1.00 40.50 LIG 0.01  C 
ATOM     39  CG2 ILE E1025     -50.231  29.155  -0.499  1.00 43.95 LIG 0.01  C 
BRANCH 38 40
ATOM     40  CG1 ILE E1025     -49.077  31.324   0.072  1.00 41.58 LIG 0.00  C 
ATOM     41  CD1 ILE E1025     -48.075  31.913   1.208  1.00 52.05 LIG 0.01  C 
ENDBRANCH 38 40
ENDBRANCH 12 38
ENDBRANCH 10 12
ENDBRANCH 4 8
BRANCH 1 42
ATOM     42  CA  ILE E1023     -49.777  25.101  -3.157  1.00 36.06 LIG 0.18  C 
BRANCH 42 43
ATOM     43  N   ILE E1023     -49.298  26.065  -4.166  1.00 37.96 LIG-0.35  N 
ATOM     44  C   ARG E1022     -50.097  26.582  -5.124  1.00 45.42 LIG 0.24  C 
ATOM     45 O    ARG E1022     -51.267  26.235  -5.283  1.00 45.23 LIG-0.27  OA
ATOM     46 H    ILE E1023     -48.466  26.266  -4.087  1.00 37.96 LIG 0.16  HD
BRANCH 44 47
ATOM     47  CA  ARG E1022     -49.498  27.592  -6.103  1.00 45.59 LIG 0.18  C 
BRANCH 47 48
ATOM     48  N   ARG E1022     -48.031  27.512  -6.194  1.00 48.30 LIG-0.35  N 
ATOM     49 H    ARG E1022     -47.619  28.214  -5.917  1.00 48.30 LIG 0.16  HD
ATOM     50  C   ILE E1021     -47.409  26.414  -6.678  1.00 57.51 LIG 0.26  C 
ATOM     51 O    ILE E1021     -48.024  25.414  -7.068  1.00 59.03 LIG-0.27  OA
BRANCH 50 52
ATOM     52  CA  ILE E1021     -45.872  26.415  -6.728  1.00 57.59 LIG 0.40  C 
ATOM     53  N   ILE E1021     -45.432  25.344  -7.617  1.00 58.96 LIG 0.61  N 
BRANCH 52 54
ATOM     54  CB  ILE E1021     -45.289  27.743  -7.286  1.00 60.58 LIG 0.03  C 
ATOM     55  CG2 ILE E1021     -46.251  28.462  -8.229  1.00 61.37 LIG 0.01  C 
BRANCH 54 56
ATOM     56  CG1 ILE E1021     -44.853  28.676  -6.130  1.00 60.59 LIG 0.00  C 
ATOM     57  CD1 ILE E1021     -44.976  28.035  -4.798  1.00 60.15 LIG 0.01  C 
ENDBRANCH 54 56
ENDBRANCH 52 54
ENDBRANCH 50 52
ENDBRANCH 47 48
BRANCH 47 58
ATOM     58  CB  ARG E1022     -50.168  27.404  -7.470  1.00 44.33 LIG 0.04  C 
BRANCH 58 59
ATOM     59  CG  ARG E1022     -50.193  28.678  -8.306  1.00 47.73 LIG 0.02  C 
BRANCH 59 60
ATOM     60  CD  ARG E1022     -51.570  29.305  -8.392  1.00 47.87 LIG 0.14  C 
BRANCH 60 61
ATOM     61  NE  ARG E1022     -51.468  30.744  -8.627  1.00 55.98 LIG-0.23  N 
ATOM     62  CZ  ARG E1022     -51.913  31.706  -7.823  1.00 56.00 LIG 0.67  C 
ATOM     63  NH1 ARG E1022     -52.494  31.405  -6.667  1.00 48.69 LIG-0.23  N 
ATOM     64  NH2 ARG E1022     -51.751  32.978  -8.153  1.00 32.20 LIG-0.23  N 
ATOM     65 1HH1 ARG E1022     -52.585  30.582  -6.433  1.00 48.69 LIG 0.17  HD
ATOM     66 2HH1 ARG E1022     -52.779  32.033  -6.153  1.00 48.69 LIG 0.17  HD
ATOM     67 2HH2 ARG E1022     -52.040  33.597  -7.631  1.00 32.20 LIG 0.17  HD
ATOM     68 1HH2 ARG E1022     -51.356  33.185  -8.888  1.00 32.20 LIG 0.17  HD
ATOM     69 HE   ARG E1022     -51.083  30.993  -9.355  1.00 55.98 LIG 0.18  HD
ENDBRANCH 60 61
ENDBRANCH 59 60
ENDBRANCH 58 59
ENDBRANCH 47 58
ENDBRANCH 44 47
ENDBRANCH 42 43
BRANCH 42 70
ATOM     70  CB  ILE E1023     -49.500  23.612  -3.551  1.00 38.78 LIG 0.01  C 
ATOM     71  CG2 ILE E1023     -50.690  22.720  -3.168  1.00 39.01 LIG 0.01  C 
BRANCH 70 72
ATOM     72  CG1 ILE E1023     -49.115  23.431  -5.050  1.00 39.61 LIG 0.00  C 
ATOM     73  CD1 ILE E1023     -47.762  22.835  -5.352  1.00 43.21 LIG 0.01  C 
ENDBRANCH 70 72
ENDBRANCH 42 70
ENDBRANCH 1 42
TORSDOF 26
ENDMDL
MODEL 95
USER: ADFR SOLUTION from run 104
USER: SCORE 22.100211 LL:  -5.968 LR: -17.300 RR:   0.000 FEB:  -9.544
USER: RMSD 12.742128
USER: SEED 103
USER: STATUS no improvement in best in 14 clusters for 5 generations
USER: GENES 28
USER: genes 0 Translation |==|  0.39632 0.61024 0.68047
USER: genes 1 Rotation |==|  0.03132 0.66191 0.48207 0.56170
USER: genes 2 Torsion [N]-CA--C-[O] |==|  0.29024
USER: genes 3 Torsion [C]-N--CA-[CB] |==|  0.58065
USER: genes 4 Torsion [N]-CA--C-[N] |==|  0.35000
USER: genes 5 Torsion [C]-N--CA-[C] |==|  0.79367
USER: genes 6 Torsion [N]-CA--CB-[CG] |==|  0.17280
USER: genes 7 Torsion [CA]-CB--CG-[CD1] |==|  0.77267
USER: genes 8 Torsion [N]-CA--C-[N] |==|  0.39581
USER: genes 9 Torsion [C]-N--CA-[C] |==|  0.16726
USER: genes 10 Torsion [N]-CA--CB-[CG] |==|  0.81525
USER: genes 11 Torsion [CA]-CB--CG-[OD1] |==|  0.14941
USER: genes 12 Torsion [N]-CA--C-[O] |==|  0.04055
USER: genes 13 Torsion [N]-CA--CB-[CG2] |==|  0.42006
USER: genes 14 Torsion [CA]-CB--CG1-[CD1] |==|  0.16325
USER: genes 15 Torsion [N]-C--CA-[N] |==|  0.16253
USER: genes 16 Torsion [C]-CA--N-[C] |==|  0.56292
USER: genes 17 Torsion [N]-C--CA-[N] |==|  0.86934
USER: genes 18 Torsion [C]-CA--N-[C] |==|  0.81282
USER: genes 19 Torsion [N]-C--CA-[N] |==|  0.48448
USER: genes 20 Torsion [C]-CA--CB-[CG1] |==|  0.48257
USER: genes 21 Torsion [CA]-CB--CG1-[CD1] |==|  0.92366
USER: genes 22 Torsion [C]-CA--CB-[CG] |==|  0.92305
USER: genes 23 Torsion [CA]-CB--CG-[CD] |==|  0.36234
USER: genes 24 Torsion [CB]-CG--CD-[NE] |==|  0.88878
USER: genes 25 Torsion [CG]-CD--NE-[CZ] |==|  0.65774
USER: genes 26 Torsion [C]-CA--CB-[CG1] |==|  0.16970
USER: genes 27 Torsion [CA]-CB--CG1-[CD1] |==|  0.50784
ROOT
ATOM      1  C   ILE E1023     -49.911  27.593   5.601  1.00 40.02 LIG 0.24  C 
ATOM      2 O    ILE E1023     -50.640  26.593   5.527  1.00 38.38 LIG-0.27  OA
ATOM      3  N   PRO E1024     -50.166  28.745   4.931  1.00 37.38 LIG-0.34  N 
ATOM      4  CA  PRO E1024     -51.273  28.787   3.964  1.00 36.67 LIG 0.18  C 
ATOM      5  CB  PRO E1024     -51.471  30.280   3.714  1.00 38.74 LIG 0.04  C 
ATOM      6  CG  PRO E1024     -50.139  30.885   3.951  1.00 43.33 LIG 0.02  C 
ATOM      7  CD  PRO E1024     -49.395  30.010   4.919  1.00 39.42 LIG 0.13  C 
ENDROOT
BRANCH 4 8
ATOM      8  C   PRO E1024     -50.852  28.047   2.701  1.00 39.60 LIG 0.24  C 
ATOM      9 O    PRO E1024     -51.303  26.923   2.487  1.00 37.18 LIG-0.27  OA
ATOM     10  N   ILE E1025     -50.022  28.699   1.860  1.00 37.20 LIG-0.35  N 
ATOM     11 H    ILE E1025     -49.734  29.489   2.038  1.00 37.20 LIG 0.16  HD
BRANCH 10 12
ATOM     12  CA  ILE E1025     -49.505  28.199   0.579  1.00 37.42 LIG 0.18  C 
BRANCH 12 13
ATOM     13  C   ILE E1025     -49.240  26.697   0.652  1.00 40.88 LIG 0.24  C 
ATOM     14 O    ILE E1025     -48.369  26.282   1.418  1.00 40.29 LIG-0.27  OA
ATOM     15  N   PHE E1026     -49.815  25.910  -0.279  1.00 36.23 LIG-0.35  N 
ATOM     16 H    PHE E1026     -50.434  26.169  -0.816  1.00 36.23 LIG 0.16  HD
BRANCH 15 17
ATOM     17  CA  PHE E1026     -49.405  24.509  -0.443  1.00 36.58 LIG 0.18  C 
BRANCH 17 18
ATOM     18  CB  PHE E1026     -50.441  23.707  -1.226  1.00 38.58 LIG 0.07  C 
BRANCH 18 19
ATOM     19  CG  PHE E1026     -50.630  24.223  -2.622  1.00 40.24 LIG-0.06  A 
ATOM     20  CD1 PHE E1026     -51.449  25.305  -2.867  1.00 42.20 LIG 0.01  A 
ATOM     21  CE1 PHE E1026     -51.631  25.773  -4.157  1.00 42.54 LIG 0.00  A 
ATOM     22  CZ  PHE E1026     -50.997  25.163  -5.207  1.00 41.81 LIG 0.00  A 
ATOM     23  CE2 PHE E1026     -50.185  24.083  -4.988  1.00 44.36 LIG 0.00  A 
ATOM     24  CD2 PHE E1026     -50.004  23.608  -3.699  1.00 42.30 LIG 0.01  A 
ENDBRANCH 18 19
ENDBRANCH 17 18
BRANCH 17 25
ATOM     25  C   PHE E1026     -48.053  24.417  -1.126  1.00 38.60 LIG 0.24  C 
ATOM     26  N   ASN E1027     -47.227  23.437  -0.681  1.00 38.80 LIG-0.35  N 
ATOM     27 H    ASN E1027     -47.442  22.911  -0.035  1.00 38.80 LIG 0.16  HD
ATOM     28 O    PHE E1026     -47.790  25.166  -2.064  1.00 31.59 LIG-0.27  OA
BRANCH 26 29
ATOM     29  CA  ASN E1027     -45.896  23.153  -1.231  1.00 74.37 LIG 0.17  C 
BRANCH 29 30
ATOM     30  CB  ASN E1027     -46.001  22.776  -2.705  1.00 75.17 LIG 0.14  C 
BRANCH 30 31
ATOM     31  CG  ASN E1027     -46.717  21.469  -2.935  1.00 99.64 LIG 0.22  C 
ATOM     32  ND2 ASN E1027     -46.096  20.546  -3.664  1.00 92.55 LIG-0.37  N 
ATOM     33 22HD ASN E1027     -45.311  20.703  -3.979  1.00 92.55 LIG 0.16  HD
ATOM     34 21HD ASN E1027     -46.478  19.791  -3.820  1.00 92.55 LIG 0.16  HD
ATOM     35 OD1  ASN E1027     -47.841  21.273  -2.469  1.00 94.01 LIG-0.27  OA
ENDBRANCH 30 31
ENDBRANCH 29 30
BRANCH 29 36
ATOM     36  C   ASN E1027     -44.993  24.377  -1.083  1.00103.37 LIG 0.22  C 
ATOM     37 O    ASN E1027     -45.314  25.298  -0.339  1.00 69.20 LIG-0.29  OA
ENDBRANCH 29 36
ENDBRANCH 26 29
ENDBRANCH 17 25
ENDBRANCH 15 17
ENDBRANCH 12 13
BRANCH 12 38
ATOM     38  CB  ILE E1025     -48.084  28.866   0.318  1.00 40.50 LIG 0.01  C 
ATOM     39  CG2 ILE E1025     -47.177  27.962  -0.528  1.00 43.95 LIG 0.01  C 
BRANCH 38 40
ATOM     40  CG1 ILE E1025     -48.178  30.265  -0.290  1.00 41.58 LIG 0.00  C 
ATOM     41  CD1 ILE E1025     -49.015  31.301   0.641  1.00 52.05 LIG 0.01  C 
ENDBRANCH 38 40
ENDBRANCH 12 38
ENDBRANCH 10 12
ENDBRANCH 4 8
BRANCH 1 42
ATOM     42  CA  ILE E1023     -48.736  27.560   6.562  1.00 36.06 LIG 0.18  C 
BRANCH 42 43
ATOM     43  N   ILE E1023     -48.978  28.616   7.564  1.00 37.96 LIG-0.35  N 
ATOM     44  C   ARG E1022     -47.988  29.180   8.289  1.00 45.42 LIG 0.24  C 
ATOM     45 O    ARG E1022     -46.816  28.808   8.231  1.00 45.23 LIG-0.27  OA
ATOM     46 H    ILE E1023     -49.805  28.838   7.642  1.00 37.96 LIG 0.16  HD
BRANCH 44 47
ATOM     47  CA  ARG E1022     -48.353  30.284   9.283  1.00 45.59 LIG 0.18  C 
BRANCH 47 48
ATOM     48  N   ARG E1022     -49.247  31.305   8.713  1.00 48.30 LIG-0.35  N 
ATOM     49 H    ARG E1022     -50.037  31.316   9.053  1.00 48.30 LIG 0.16  HD
ATOM     50  C   ILE E1021     -48.835  32.144   7.736  1.00 57.51 LIG 0.26  C 
ATOM     51 O    ILE E1021     -47.692  32.112   7.265  1.00 59.03 LIG-0.27  OA
BRANCH 50 52
ATOM     52  CA  ILE E1021     -49.835  33.185   7.207  1.00 57.59 LIG 0.40  C 
ATOM     53  N   ILE E1021     -49.143  34.060   6.265  1.00 58.96 LIG 0.61  N 
BRANCH 52 54
ATOM     54  CB  ILE E1021     -51.027  32.542   6.444  1.00 60.58 LIG 0.03  C 
ATOM     55  CG2 ILE E1021     -51.674  31.395   7.216  1.00 61.37 LIG 0.01  C 
BRANCH 54 56
ATOM     56  CG1 ILE E1021     -52.078  33.615   6.071  1.00 60.59 LIG 0.00  C 
ATOM     57  CD1 ILE E1021     -52.080  34.766   7.006  1.00 60.15 LIG 0.01  C 
ENDBRANCH 54 56
ENDBRANCH 52 54
ENDBRANCH 50 52
ENDBRANCH 47 48
BRANCH 47 58
ATOM     58  CB  ARG E1022     -48.951  29.634  10.537  1.00 44.33 LIG 0.04  C 
BRANCH 58 59
ATOM     59  CG  ARG E1022     -49.630  28.300  10.255  1.00 47.73 LIG 0.02  C 
BRANCH 59 60
ATOM     60  CD  ARG E1022     -49.189  27.198  11.197  1.00 47.87 LIG 0.14  C 
BRANCH 60 61
ATOM     61  NE  ARG E1022     -47.752  27.281  11.453  1.00 55.98 LIG-0.23  N 
ATOM     62  CZ  ARG E1022     -46.859  26.319  11.241  1.00 56.00 LIG 0.67  C 
ATOM     63  NH1 ARG E1022     -47.231  25.152  10.725  1.00 48.69 LIG-0.23  N 
ATOM     64  NH2 ARG E1022     -45.578  26.526  11.510  1.00 32.20 LIG-0.23  N 
ATOM     65 1HH1 ARG E1022     -48.056  25.014  10.526  1.00 48.69 LIG 0.17  HD
ATOM     66 2HH1 ARG E1022     -46.647  24.535  10.591  1.00 48.69 LIG 0.17  HD
ATOM     67 2HH2 ARG E1022     -45.004  25.902  11.372  1.00 32.20 LIG 0.17  HD
ATOM     68 1HH2 ARG E1022     -45.322  27.285  11.824  1.00 32.20 LIG 0.17  HD
ATOM     69 HE   ARG E1022     -47.456  28.024  11.771  1.00 55.98 LIG 0.18  HD
ENDBRANCH 60 61
ENDBRANCH 59 60
ENDBRANCH 58 59
ENDBRANCH 47 58
ENDBRANCH 44 47
ENDBRANCH 42 43
BRANCH 42 70
ATOM     70  CB  ILE E1023     -48.619  26.133   7.191  1.00 38.78 LIG 0.01  C 
ATOM     71  CG2 ILE E1023     -49.848  25.819   8.057  1.00 39.01 LIG 0.01  C 
BRANCH 70 72
ATOM     72  CG1 ILE E1023     -48.367  25.012   6.138  1.00 39.61 LIG 0.00  C 
ATOM     73  CD1 ILE E1023     -48.304  23.590   6.640  1.00 43.21 LIG 0.01  C 
ENDBRANCH 70 72
ENDBRANCH 42 70
ENDBRANCH 1 42
TORSDOF 26
ENDMDL
MODEL 96
USER: ADFR SOLUTION from run 136
USER: SCORE 22.399766 LL:  -6.624 LR: -17.305 RR:   0.000 FEB:  -9.549
USER: RMSD 12.208382
USER: SEED 135
USER: STATUS no improvement in best in 5 clusters for 5 generations
USER: GENES 28
USER: genes 0 Translation |==|  0.41993 0.52828 0.54173
USER: genes 1 Rotation |==|  0.89599 0.78022 0.39404 0.55867
USER: genes 2 Torsion [N]-CA--C-[O] |==|  0.67557
USER: genes 3 Torsion [C]-N--CA-[CB] |==|  0.79595
USER: genes 4 Torsion [N]-CA--C-[N] |==|  0.08811
USER: genes 5 Torsion [C]-N--CA-[C] |==|  0.75598
USER: genes 6 Torsion [N]-CA--CB-[CG] |==|  0.83246
USER: genes 7 Torsion [CA]-CB--CG-[CD1] |==|  0.43260
USER: genes 8 Torsion [N]-CA--C-[N] |==|  0.31430
USER: genes 9 Torsion [C]-N--CA-[C] |==|  0.80831
USER: genes 10 Torsion [N]-CA--CB-[CG] |==|  0.59035
USER: genes 11 Torsion [CA]-CB--CG-[OD1] |==|  0.14292
USER: genes 12 Torsion [N]-CA--C-[O] |==|  0.36673
USER: genes 13 Torsion [N]-CA--CB-[CG2] |==|  0.21971
USER: genes 14 Torsion [CA]-CB--CG1-[CD1] |==|  0.51657
USER: genes 15 Torsion [N]-C--CA-[N] |==|  0.33650
USER: genes 16 Torsion [C]-CA--N-[C] |==|  0.62434
USER: genes 17 Torsion [N]-C--CA-[N] |==|  0.90780
USER: genes 18 Torsion [C]-CA--N-[C] |==|  0.67239
USER: genes 19 Torsion [N]-C--CA-[N] |==|  0.40550
USER: genes 20 Torsion [C]-CA--CB-[CG1] |==|  0.19180
USER: genes 21 Torsion [CA]-CB--CG1-[CD1] |==|  0.69891
USER: genes 22 Torsion [C]-CA--CB-[CG] |==|  0.47692
USER: genes 23 Torsion [CA]-CB--CG-[CD] |==|  0.57876
USER: genes 24 Torsion [CB]-CG--CD-[NE] |==|  0.09774
USER: genes 25 Torsion [CG]-CD--NE-[CZ] |==|  0.54203
USER: genes 26 Torsion [C]-CA--CB-[CG1] |==|  0.03747
USER: genes 27 Torsion [CA]-CB--CG1-[CD1] |==|  0.68703
ROOT
ATOM      1  C   ILE E1023     -49.557  25.688   1.647  1.00 40.02 LIG 0.24  C 
ATOM      2 O    ILE E1023     -48.356  25.409   1.780  1.00 38.38 LIG-0.27  OA
ATOM      3  N   PRO E1024     -50.502  24.762   1.347  1.00 37.38 LIG-0.34  N 
ATOM      4  CA  PRO E1024     -50.090  23.388   1.026  1.00 36.67 LIG 0.18  C 
ATOM      5  CB  PRO E1024     -51.392  22.596   1.113  1.00 38.74 LIG 0.04  C 
ATOM      6  CG  PRO E1024     -52.455  23.574   0.786  1.00 43.33 LIG 0.02  C 
ATOM      7  CD  PRO E1024     -51.960  24.942   1.157  1.00 39.42 LIG 0.13  C 
ENDROOT
BRANCH 4 8
ATOM      8  C   PRO E1024     -49.502  23.365  -0.379  1.00 39.60 LIG 0.24  C 
ATOM      9 O    PRO E1024     -50.062  22.703  -1.252  1.00 37.18 LIG-0.27  OA
ATOM     10  N   ILE E1025     -48.402  24.116  -0.592  1.00 37.20 LIG-0.35  N 
ATOM     11 H    ILE E1025     -48.042  24.574   0.040  1.00 37.20 LIG 0.16  HD
BRANCH 10 12
ATOM     12  CA  ILE E1025     -47.679  24.267  -1.863  1.00 37.42 LIG 0.18  C 
BRANCH 12 13
ATOM     13  C   ILE E1025     -48.656  24.407  -3.028  1.00 40.88 LIG 0.24  C 
ATOM     14 O    ILE E1025     -48.263  24.154  -4.168  1.00 40.29 LIG-0.27  OA
ATOM     15  N   PHE E1026     -49.837  25.010  -2.790  1.00 36.23 LIG-0.35  N 
ATOM     16 H    PHE E1026     -50.142  25.186  -2.005  1.00 36.23 LIG 0.16  HD
BRANCH 15 17
ATOM     17  CA  PHE E1026     -50.713  25.421  -3.895  1.00 36.58 LIG 0.18  C 
BRANCH 17 18
ATOM     18  CB  PHE E1026     -52.185  25.359  -3.500  1.00 38.58 LIG 0.07  C 
BRANCH 18 19
ATOM     19  CG  PHE E1026     -52.615  23.977  -3.106  1.00 40.24 LIG-0.06  A 
ATOM     20  CD1 PHE E1026     -53.697  23.787  -2.274  1.00 42.20 LIG 0.01  A 
ATOM     21  CE1 PHE E1026     -54.086  22.512  -1.902  1.00 42.54 LIG 0.00  A 
ATOM     22  CZ  PHE E1026     -53.397  21.420  -2.362  1.00 41.81 LIG 0.00  A 
ATOM     23  CE2 PHE E1026     -52.314  21.585  -3.184  1.00 44.36 LIG 0.00  A 
ATOM     24  CD2 PHE E1026     -51.919  22.861  -3.553  1.00 42.30 LIG 0.01  A 
ENDBRANCH 18 19
ENDBRANCH 17 18
BRANCH 17 25
ATOM     25  C   PHE E1026     -50.361  26.818  -4.373  1.00 38.60 LIG 0.24  C 
ATOM     26  N   ASN E1027     -49.846  26.907  -5.625  1.00 38.80 LIG-0.35  N 
ATOM     27 H    ASN E1027     -49.702  26.214  -6.114  1.00 38.80 LIG 0.16  HD
ATOM     28 O    PHE E1026     -50.606  27.788  -3.659  1.00 31.59 LIG-0.27  OA
BRANCH 26 29
ATOM     29  CA  ASN E1027     -49.478  28.163  -6.288  1.00 74.37 LIG 0.17  C 
BRANCH 29 30
ATOM     30  CB  ASN E1027     -48.711  27.879  -7.576  1.00 75.17 LIG 0.14  C 
BRANCH 30 31
ATOM     31  CG  ASN E1027     -47.676  28.928  -7.896  1.00 99.64 LIG 0.22  C 
ATOM     32  ND2 ASN E1027     -47.690  29.455  -9.117  1.00 92.55 LIG-0.37  N 
ATOM     33 22HD ASN E1027     -48.279  29.199  -9.688  1.00 92.55 LIG 0.16  HD
ATOM     34 21HD ASN E1027     -47.110  30.051  -9.335  1.00 92.55 LIG 0.16  HD
ATOM     35 OD1  ASN E1027     -46.844  29.274  -7.054  1.00 94.01 LIG-0.27  OA
ENDBRANCH 30 31
ENDBRANCH 29 30
BRANCH 29 36
ATOM     36  C   ASN E1027     -50.730  28.975  -6.613  1.00103.37 LIG 0.22  C 
ATOM     37 O    ASN E1027     -50.787  30.169  -6.331  1.00 69.20 LIG-0.29  OA
ENDBRANCH 29 36
ENDBRANCH 26 29
ENDBRANCH 17 25
ENDBRANCH 15 17
ENDBRANCH 12 13
BRANCH 12 38
ATOM     38  CB  ILE E1025     -46.875  22.923  -2.144  1.00 40.50 LIG 0.01  C 
ATOM     39  CG2 ILE E1025     -47.786  21.821  -2.705  1.00 43.95 LIG 0.01  C 
BRANCH 38 40
ATOM     40  CG1 ILE E1025     -45.654  23.127  -3.041  1.00 41.58 LIG 0.00  C 
ATOM     41  CD1 ILE E1025     -44.932  21.728  -3.447  1.00 52.05 LIG 0.01  C 
ENDBRANCH 38 40
ENDBRANCH 12 38
ENDBRANCH 10 12
ENDBRANCH 4 8
BRANCH 1 42
ATOM     42  CA  ILE E1023     -50.003  27.111   1.932  1.00 36.06 LIG 0.18  C 
BRANCH 42 43
ATOM     43  N   ILE E1023     -49.541  27.435   3.296  1.00 37.96 LIG-0.35  N 
ATOM     44  C   ARG E1022     -50.322  28.055   4.206  1.00 45.42 LIG 0.24  C 
ATOM     45 O    ARG E1022     -51.453  28.471   3.952  1.00 45.23 LIG-0.27  OA
ATOM     46 H    ILE E1023     -48.732  27.192   3.455  1.00 37.96 LIG 0.16  HD
BRANCH 44 47
ATOM     47  CA  ARG E1022     -49.746  28.320   5.598  1.00 45.59 LIG 0.18  C 
BRANCH 47 48
ATOM     48  N   ARG E1022     -48.808  27.277   6.045  1.00 48.30 LIG-0.35  N 
ATOM     49 H    ARG E1022     -48.107  27.196   5.554  1.00 48.30 LIG 0.16  HD
ATOM     50  C   ILE E1021     -49.052  26.524   7.140  1.00 57.51 LIG 0.26  C 
ATOM     51 O    ILE E1021     -50.068  26.662   7.834  1.00 59.03 LIG-0.27  OA
BRANCH 50 52
ATOM     52  CA  ILE E1021     -48.011  25.465   7.538  1.00 57.59 LIG 0.40  C 
ATOM     53  N   ILE E1021     -47.981  25.363   8.994  1.00 58.96 LIG 0.61  N 
BRANCH 52 54
ATOM     54  CB  ILE E1021     -48.351  24.051   6.987  1.00 60.58 LIG 0.03  C 
ATOM     55  CG2 ILE E1021     -49.740  23.572   7.401  1.00 61.37 LIG 0.01  C 
BRANCH 54 56
ATOM     56  CG1 ILE E1021     -48.194  24.015   5.447  1.00 60.59 LIG 0.00  C 
ATOM     57  CD1 ILE E1021     -49.495  23.938   4.739  1.00 60.15 LIG 0.01  C 
ENDBRANCH 54 56
ENDBRANCH 52 54
ENDBRANCH 50 52
ENDBRANCH 47 48
BRANCH 47 58
ATOM     58  CB  ARG E1022     -49.102  29.712   5.604  1.00 44.33 LIG 0.04  C 
BRANCH 58 59
ATOM     59  CG  ARG E1022     -48.672  30.167   6.993  1.00 47.73 LIG 0.02  C 
BRANCH 59 60
ATOM     60  CD  ARG E1022     -48.686  31.673   7.156  1.00 47.87 LIG 0.14  C 
BRANCH 60 61
ATOM     61  NE  ARG E1022     -49.788  32.264   6.398  1.00 55.98 LIG-0.23  N 
ATOM     62  CZ  ARG E1022     -49.929  33.550   6.089  1.00 56.00 LIG 0.67  C 
ATOM     63  NH1 ARG E1022     -49.007  34.437   6.449  1.00 48.69 LIG-0.23  N 
ATOM     64  NH2 ARG E1022     -50.976  33.956   5.388  1.00 32.20 LIG-0.23  N 
ATOM     65 1HH1 ARG E1022     -48.312  34.181   6.886  1.00 48.69 LIG 0.17  HD
ATOM     66 2HH1 ARG E1022     -49.106  35.266   6.246  1.00 48.69 LIG 0.17  HD
ATOM     67 2HH2 ARG E1022     -51.064  34.789   5.190  1.00 32.20 LIG 0.17  HD
ATOM     68 1HH2 ARG E1022     -51.568  33.388   5.130  1.00 32.20 LIG 0.17  HD
ATOM     69 HE   ARG E1022     -50.404  31.729   6.125  1.00 55.98 LIG 0.18  HD
ENDBRANCH 60 61
ENDBRANCH 59 60
ENDBRANCH 58 59
ENDBRANCH 47 58
ENDBRANCH 44 47
ENDBRANCH 42 43
BRANCH 42 70
ATOM     70  CB  ILE E1023     -49.416  28.067   0.842  1.00 38.78 LIG 0.01  C 
ATOM     71  CG2 ILE E1023     -48.374  29.014   1.456  1.00 39.01 LIG 0.01  C 
BRANCH 70 72
ATOM     72  CG1 ILE E1023     -48.838  27.315  -0.394  1.00 39.61 LIG 0.00  C 
ATOM     73  CD1 ILE E1023     -47.347  27.378  -0.611  1.00 43.21 LIG 0.01  C 
ENDBRANCH 70 72
ENDBRANCH 42 70
ENDBRANCH 1 42
TORSDOF 26
ENDMDL
MODEL 97
USER: ADFR SOLUTION from run 112
USER: SCORE 22.189517 LL:  -5.960 LR: -17.288 RR:   0.000 FEB:  -9.532
USER: RMSD 12.843753
USER: SEED 111
USER: STATUS no improvement in best in 5 clusters for 5 generations
USER: GENES 28
USER: genes 0 Translation |==|  0.38101 0.61515 0.65904
USER: genes 1 Rotation |==|  0.76414 0.90714 0.37974 0.50055
USER: genes 2 Torsion [N]-CA--C-[O] |==|  0.72474
USER: genes 3 Torsion [C]-N--CA-[CB] |==|  0.55278
USER: genes 4 Torsion [N]-CA--C-[N] |==|  0.35308
USER: genes 5 Torsion [C]-N--CA-[C] |==|  0.57608
USER: genes 6 Torsion [N]-CA--CB-[CG] |==|  0.10915
USER: genes 7 Torsion [CA]-CB--CG-[CD1] |==|  0.67260
USER: genes 8 Torsion [N]-CA--C-[N] |==|  0.51936
USER: genes 9 Torsion [C]-N--CA-[C] |==|  0.50334
USER: genes 10 Torsion [N]-CA--CB-[CG] |==|  0.70021
USER: genes 11 Torsion [CA]-CB--CG-[OD1] |==|  0.41037
USER: genes 12 Torsion [N]-CA--C-[O] |==|  0.97955
USER: genes 13 Torsion [N]-CA--CB-[CG2] |==|  0.39950
USER: genes 14 Torsion [CA]-CB--CG1-[CD1] |==|  0.86392
USER: genes 15 Torsion [N]-C--CA-[N] |==|  0.47146
USER: genes 16 Torsion [C]-CA--N-[C] |==|  0.56734
USER: genes 17 Torsion [N]-C--CA-[N] |==|  0.39552
USER: genes 18 Torsion [C]-CA--N-[C] |==|  0.75000
USER: genes 19 Torsion [N]-C--CA-[N] |==|  0.39106
USER: genes 20 Torsion [C]-CA--CB-[CG1] |==|  0.93453
USER: genes 21 Torsion [CA]-CB--CG1-[CD1] |==|  0.70631
USER: genes 22 Torsion [C]-CA--CB-[CG] |==|  0.23819
USER: genes 23 Torsion [CA]-CB--CG-[CD] |==|  0.78849
USER: genes 24 Torsion [CB]-CG--CD-[NE] |==|  0.74613
USER: genes 25 Torsion [CG]-CD--NE-[CZ] |==|  0.27009
USER: genes 26 Torsion [C]-CA--CB-[CG1] |==|  0.87169
USER: genes 27 Torsion [CA]-CB--CG1-[CD1] |==|  0.87276
ROOT
ATOM      1  C   ILE E1023     -50.141  27.707   4.991  1.00 40.02 LIG 0.24  C 
ATOM      2 O    ILE E1023     -49.052  28.236   4.721  1.00 38.38 LIG-0.27  OA
ATOM      3  N   PRO E1024     -50.432  26.418   4.685  1.00 37.38 LIG-0.34  N 
ATOM      4  CA  PRO E1024     -49.484  25.636   3.879  1.00 36.67 LIG 0.18  C 
ATOM      5  CB  PRO E1024     -49.962  24.198   4.062  1.00 38.74 LIG 0.04  C 
ATOM      6  CG  PRO E1024     -51.416  24.311   4.323  1.00 43.33 LIG 0.02  C 
ATOM      7  CD  PRO E1024     -51.676  25.655   4.939  1.00 39.42 LIG 0.13  C 
ENDROOT
BRANCH 4 8
ATOM      8  C   PRO E1024     -49.580  26.088   2.428  1.00 39.60 LIG 0.24  C 
ATOM      9 O    PRO E1024     -50.249  25.425   1.637  1.00 37.18 LIG-0.27  OA
ATOM     10  N   ILE E1025     -48.941  27.231   2.102  1.00 37.20 LIG-0.35  N 
ATOM     11 H    ILE E1025     -48.489  27.674   2.684  1.00 37.20 LIG 0.16  HD
BRANCH 10 12
ATOM     12  CA  ILE E1025     -48.912  27.870   0.779  1.00 37.42 LIG 0.18  C 
BRANCH 12 13
ATOM     13  C   ILE E1025     -48.636  26.840  -0.314  1.00 40.88 LIG 0.24  C 
ATOM     14 O    ILE E1025     -47.556  26.247  -0.314  1.00 40.29 LIG-0.27  OA
ATOM     15  N   PHE E1026     -49.490  26.781  -1.355  1.00 36.23 LIG-0.35  N 
ATOM     16 H    PHE E1026     -50.255  27.173  -1.376  1.00 36.23 LIG 0.16  HD
BRANCH 15 17
ATOM     17  CA  PHE E1026     -49.157  26.017  -2.565  1.00 36.58 LIG 0.18  C 
BRANCH 17 18
ATOM     18  CB  PHE E1026     -49.510  24.540  -2.412  1.00 38.58 LIG 0.07  C 
BRANCH 18 19
ATOM     19  CG  PHE E1026     -50.804  24.332  -1.682  1.00 40.24 LIG-0.06  A 
ATOM     20  CD1 PHE E1026     -50.833  23.656  -0.481  1.00 42.20 LIG 0.01  A 
ATOM     21  CE1 PHE E1026     -52.030  23.455   0.186  1.00 42.54 LIG 0.00  A 
ATOM     22  CZ  PHE E1026     -53.201  23.929  -0.344  1.00 41.81 LIG 0.00  A 
ATOM     23  CE2 PHE E1026     -53.197  24.596  -1.539  1.00 44.36 LIG 0.00  A 
ATOM     24  CD2 PHE E1026     -52.002  24.795  -2.212  1.00 42.30 LIG 0.01  A 
ENDBRANCH 18 19
ENDBRANCH 17 18
BRANCH 17 25
ATOM     25  C   PHE E1026     -49.858  26.596  -3.780  1.00 38.60 LIG 0.24  C 
ATOM     26  N   ASN E1027     -49.742  25.884  -4.929  1.00 38.80 LIG-0.35  N 
ATOM     27 H    ASN E1027     -49.280  25.160  -4.978  1.00 38.80 LIG 0.16  HD
ATOM     28 O    PHE E1026     -50.532  27.617  -3.668  1.00 31.59 LIG-0.27  OA
BRANCH 26 29
ATOM     29  CA  ASN E1027     -50.374  26.247  -6.203  1.00 74.37 LIG 0.17  C 
BRANCH 29 30
ATOM     30  CB  ASN E1027     -49.882  27.614  -6.668  1.00 75.17 LIG 0.14  C 
BRANCH 30 31
ATOM     31  CG  ASN E1027     -50.926  28.696  -6.541  1.00 99.64 LIG 0.22  C 
ATOM     32  ND2 ASN E1027     -52.198  28.348  -6.715  1.00 92.55 LIG-0.37  N 
ATOM     33 22HD ASN E1027     -52.400  27.530  -6.887  1.00 92.55 LIG 0.16  HD
ATOM     34 21HD ASN E1027     -52.818  28.941  -6.657  1.00 92.55 LIG 0.16  HD
ATOM     35 OD1  ASN E1027     -50.604  29.860  -6.294  1.00 94.01 LIG-0.27  OA
ENDBRANCH 30 31
ENDBRANCH 29 30
BRANCH 29 36
ATOM     36  C   ASN E1027     -50.050  25.202  -7.269  1.00103.37 LIG 0.22  C 
ATOM     37 O    ASN E1027     -49.244  24.306  -7.035  1.00 69.20 LIG-0.29  OA
ENDBRANCH 29 36
ENDBRANCH 26 29
ENDBRANCH 17 25
ENDBRANCH 15 17
ENDBRANCH 12 13
BRANCH 12 38
ATOM     38  CB  ILE E1025     -47.679  28.874   0.734  1.00 40.50 LIG 0.01  C 
ATOM     39  CG2 ILE E1025     -47.017  28.902  -0.650  1.00 43.95 LIG 0.01  C 
BRANCH 38 40
ATOM     40  CG1 ILE E1025     -48.036  30.287   1.195  1.00 41.58 LIG 0.00  C 
ATOM     41  CD1 ILE E1025     -49.376  30.862   0.478  1.00 52.05 LIG 0.01  C 
ENDBRANCH 38 40
ENDBRANCH 12 38
ENDBRANCH 10 12
ENDBRANCH 4 8
BRANCH 1 42
ATOM     42  CA  ILE E1023     -51.156  28.509   5.787  1.00 36.06 LIG 0.18  C 
BRANCH 42 43
ATOM     43  N   ILE E1023     -50.487  29.763   6.184  1.00 37.96 LIG-0.35  N 
ATOM     44  C   ARG E1022     -50.869  30.490   7.256  1.00 45.42 LIG 0.24  C 
ATOM     45 O    ARG E1022     -51.851  30.210   7.944  1.00 45.23 LIG-0.27  OA
ATOM     46 H    ILE E1023     -49.834  29.986   5.671  1.00 37.96 LIG 0.16  HD
BRANCH 44 47
ATOM     47  CA  ARG E1022     -50.087  31.761   7.589  1.00 45.59 LIG 0.18  C 
BRANCH 47 48
ATOM     48  N   ARG E1022     -50.942  32.856   8.077  1.00 48.30 LIG-0.35  N 
ATOM     49 H    ARG E1022     -51.051  32.869   8.930  1.00 48.30 LIG 0.16  HD
ATOM     50  C   ILE E1021     -51.497  33.754   7.233  1.00 57.51 LIG 0.26  C 
ATOM     51 O    ILE E1021     -51.323  33.718   6.008  1.00 59.03 LIG-0.27  OA
BRANCH 50 52
ATOM     52  CA  ILE E1021     -52.369  34.870   7.833  1.00 57.59 LIG 0.40  C 
ATOM     53  N   ILE E1021     -52.103  36.110   7.111  1.00 58.96 LIG 0.61  N 
BRANCH 52 54
ATOM     54  CB  ILE E1021     -53.891  34.580   7.700  1.00 60.58 LIG 0.03  C 
ATOM     55  CG2 ILE E1021     -54.724  35.850   7.545  1.00 61.37 LIG 0.01  C 
BRANCH 54 56
ATOM     56  CG1 ILE E1021     -54.160  33.600   6.532  1.00 60.59 LIG 0.00  C 
ATOM     57  CD1 ILE E1021     -54.745  34.269   5.345  1.00 60.15 LIG 0.01  C 
ENDBRANCH 54 56
ENDBRANCH 52 54
ENDBRANCH 50 52
ENDBRANCH 47 48
BRANCH 47 58
ATOM     58  CB  ARG E1022     -48.981  31.408   8.591  1.00 44.33 LIG 0.04  C 
BRANCH 58 59
ATOM     59  CG  ARG E1022     -47.705  30.909   7.924  1.00 47.73 LIG 0.02  C 
BRANCH 59 60
ATOM     60  CD  ARG E1022     -47.812  29.483   7.427  1.00 47.87 LIG 0.14  C 
BRANCH 60 61
ATOM     61  NE  ARG E1022     -47.364  28.543   8.454  1.00 55.98 LIG-0.23  N 
ATOM     62  CZ  ARG E1022     -48.141  27.876   9.303  1.00 56.00 LIG 0.67  C 
ATOM     63  NH1 ARG E1022     -49.463  28.008   9.256  1.00 48.69 LIG-0.23  N 
ATOM     64  NH2 ARG E1022     -47.606  27.046  10.185  1.00 32.20 LIG-0.23  N 
ATOM     65 1HH1 ARG E1022     -49.822  28.528   8.673  1.00 48.69 LIG 0.17  HD
ATOM     66 2HH1 ARG E1022     -49.958  27.574   9.809  1.00 48.69 LIG 0.17  HD
ATOM     67 2HH2 ARG E1022     -48.112  26.617  10.733  1.00 32.20 LIG 0.17  HD
ATOM     68 1HH2 ARG E1022     -46.754  26.936  10.210  1.00 32.20 LIG 0.17  HD
ATOM     69 HE   ARG E1022     -46.517  28.408   8.514  1.00 55.98 LIG 0.18  HD
ENDBRANCH 60 61
ENDBRANCH 59 60
ENDBRANCH 58 59
ENDBRANCH 47 58
ENDBRANCH 44 47
ENDBRANCH 42 43
BRANCH 42 70
ATOM     70  CB  ILE E1023     -52.432  28.744   4.914  1.00 38.78 LIG 0.01  C 
ATOM     71  CG2 ILE E1023     -53.396  29.715   5.612  1.00 39.01 LIG 0.01  C 
BRANCH 70 72
ATOM     72  CG1 ILE E1023     -52.111  29.212   3.462  1.00 39.61 LIG 0.00  C 
ATOM     73  CD1 ILE E1023     -51.083  30.304   3.296  1.00 43.21 LIG 0.01  C 
ENDBRANCH 70 72
ENDBRANCH 42 70
ENDBRANCH 1 42
TORSDOF 26
ENDMDL
MODEL 98
USER: ADFR SOLUTION from run 158
USER: SCORE 22.035572 LL:  -7.374 LR: -17.288 RR:   0.000 FEB:  -9.532
USER: RMSD 12.384419
USER: SEED 157
USER: STATUS no improvement in best in 27 clusters for 5 generations
USER: GENES 28
USER: genes 0 Translation |==|  0.46762 0.55337 0.51959
USER: genes 1 Rotation |==|  0.82207 0.83584 0.31877 0.52523
USER: genes 2 Torsion [N]-CA--C-[O] |==|  0.44076
USER: genes 3 Torsion [C]-N--CA-[CB] |==|  0.46325
USER: genes 4 Torsion [N]-CA--C-[N] |==|  0.12390
USER: genes 5 Torsion [C]-N--CA-[C] |==|  0.81336
USER: genes 6 Torsion [N]-CA--CB-[CG] |==|  0.11327
USER: genes 7 Torsion [CA]-CB--CG-[CD1] |==|  0.20886
USER: genes 8 Torsion [N]-CA--C-[N] |==|  0.94648
USER: genes 9 Torsion [C]-N--CA-[C] |==|  0.80452
USER: genes 10 Torsion [N]-CA--CB-[CG] |==|  0.91807
USER: genes 11 Torsion [CA]-CB--CG-[OD1] |==|  0.16220
USER: genes 12 Torsion [N]-CA--C-[O] |==|  0.46214
USER: genes 13 Torsion [N]-CA--CB-[CG2] |==|  0.54258
USER: genes 14 Torsion [CA]-CB--CG1-[CD1] |==|  0.86081
USER: genes 15 Torsion [N]-C--CA-[N] |==|  0.25127
USER: genes 16 Torsion [C]-CA--N-[C] |==|  0.63957
USER: genes 17 Torsion [N]-C--CA-[N] |==|  0.86913
USER: genes 18 Torsion [C]-CA--N-[C] |==|  0.64094
USER: genes 19 Torsion [N]-C--CA-[N] |==|  0.42116
USER: genes 20 Torsion [C]-CA--CB-[CG1] |==|  0.15679
USER: genes 21 Torsion [CA]-CB--CG1-[CD1] |==|  0.69432
USER: genes 22 Torsion [C]-CA--CB-[CG] |==|  0.39478
USER: genes 23 Torsion [CA]-CB--CG-[CD] |==|  0.68378
USER: genes 24 Torsion [CB]-CG--CD-[NE] |==|  0.70234
USER: genes 25 Torsion [CG]-CD--NE-[CZ] |==|  0.42201
USER: genes 26 Torsion [C]-CA--CB-[CG1] |==|  0.52802
USER: genes 27 Torsion [CA]-CB--CG1-[CD1] |==|  0.45018
ROOT
ATOM      1  C   ILE E1023     -48.842  26.271   1.016  1.00 40.02 LIG 0.24  C 
ATOM      2 O    ILE E1023     -47.656  26.329   0.659  1.00 38.38 LIG-0.27  OA
ATOM      3  N   PRO E1024     -49.530  25.105   1.109  1.00 37.38 LIG-0.34  N 
ATOM      4  CA  PRO E1024     -48.906  23.860   0.641  1.00 36.67 LIG 0.18  C 
ATOM      5  CB  PRO E1024     -49.796  22.770   1.232  1.00 38.74 LIG 0.04  C 
ATOM      6  CG  PRO E1024     -51.132  23.399   1.361  1.00 43.33 LIG 0.02  C 
ATOM      7  CD  PRO E1024     -50.937  24.880   1.515  1.00 39.42 LIG 0.13  C 
ENDROOT
BRANCH 4 8
ATOM      8  C   PRO E1024     -48.919  23.843  -0.882  1.00 39.60 LIG 0.24  C 
ATOM      9 O    PRO E1024     -48.123  23.120  -1.480  1.00 37.18 LIG-0.27  OA
ATOM     10  N   ILE E1025     -49.846  24.610  -1.492  1.00 37.20 LIG-0.35  N 
ATOM     11 H    ILE E1025     -50.393  25.097  -1.041  1.00 37.20 LIG 0.16  HD
BRANCH 10 12
ATOM     12  CA  ILE E1025     -50.062  24.735  -2.940  1.00 37.42 LIG 0.18  C 
BRANCH 12 13
ATOM     13  C   ILE E1025     -49.014  25.652  -3.567  1.00 40.88 LIG 0.24  C 
ATOM     14 O    ILE E1025     -49.337  26.361  -4.522  1.00 40.29 LIG-0.27  OA
ATOM     15  N   PHE E1026     -47.729  25.487  -3.195  1.00 36.23 LIG-0.35  N 
ATOM     16 H    PHE E1026     -47.477  25.011  -2.525  1.00 36.23 LIG 0.16  HD
BRANCH 15 17
ATOM     17  CA  PHE E1026     -46.638  26.135  -3.934  1.00 36.58 LIG 0.18  C 
BRANCH 17 18
ATOM     18  CB  PHE E1026     -45.309  26.017  -3.195  1.00 38.58 LIG 0.07  C 
BRANCH 18 19
ATOM     19  CG  PHE E1026     -45.115  24.664  -2.576  1.00 40.24 LIG-0.06  A 
ATOM     20  CD1 PHE E1026     -44.791  23.574  -3.355  1.00 42.20 LIG 0.01  A 
ATOM     21  CE1 PHE E1026     -44.624  22.324  -2.784  1.00 42.54 LIG 0.00  A 
ATOM     22  CZ  PHE E1026     -44.778  22.157  -1.433  1.00 41.81 LIG 0.00  A 
ATOM     23  CE2 PHE E1026     -45.107  23.224  -0.640  1.00 44.36 LIG 0.00  A 
ATOM     24  CD2 PHE E1026     -45.281  24.476  -1.209  1.00 42.30 LIG 0.01  A 
ENDBRANCH 18 19
ENDBRANCH 17 18
BRANCH 17 25
ATOM     25  C   PHE E1026     -46.510  25.552  -5.329  1.00 38.60 LIG 0.24  C 
ATOM     26  N   ASN E1027     -47.081  24.336  -5.521  1.00 38.80 LIG-0.35  N 
ATOM     27 H    ASN E1027     -47.471  23.906  -4.887  1.00 38.80 LIG 0.16  HD
ATOM     28 O    PHE E1026     -45.970  26.207  -6.218  1.00 31.59 LIG-0.27  OA
BRANCH 26 29
ATOM     29  CA  ASN E1027     -47.104  23.618  -6.801  1.00 74.37 LIG 0.17  C 
BRANCH 29 30
ATOM     30  CB  ASN E1027     -47.571  22.181  -6.594  1.00 75.17 LIG 0.14  C 
BRANCH 30 31
ATOM     31  CG  ASN E1027     -47.223  21.633  -5.232  1.00 99.64 LIG 0.22  C 
ATOM     32  ND2 ASN E1027     -46.481  20.530  -5.183  1.00 92.55 LIG-0.37  N 
ATOM     33 22HD ASN E1027     -46.213  20.160  -5.912  1.00 92.55 LIG 0.16  HD
ATOM     34 21HD ASN E1027     -46.270  20.187  -4.424  1.00 92.55 LIG 0.16  HD
ATOM     35 OD1  ASN E1027     -47.623  22.186  -4.206  1.00 94.01 LIG-0.27  OA
ENDBRANCH 30 31
ENDBRANCH 29 30
BRANCH 29 36
ATOM     36  C   ASN E1027     -48.042  24.319  -7.782  1.00103.37 LIG 0.22  C 
ATOM     37 O    ASN E1027     -48.018  24.033  -8.976  1.00 69.20 LIG-0.29  OA
ENDBRANCH 29 36
ENDBRANCH 26 29
ENDBRANCH 17 25
ENDBRANCH 15 17
ENDBRANCH 12 13
BRANCH 12 38
ATOM     38  CB  ILE E1025     -51.457  25.463  -3.177  1.00 40.50 LIG 0.01  C 
ATOM     39  CG2 ILE E1025     -51.944  25.304  -4.624  1.00 43.95 LIG 0.01  C 
BRANCH 38 40
ATOM     40  CG1 ILE E1025     -52.539  25.030  -2.188  1.00 41.58 LIG 0.00  C 
ATOM     41  CD1 ILE E1025     -52.677  23.414  -2.076  1.00 52.05 LIG 0.01  C 
ENDBRANCH 38 40
ENDBRANCH 12 38
ENDBRANCH 10 12
ENDBRANCH 4 8
BRANCH 1 42
ATOM     42  CA  ILE E1023     -49.524  27.552   1.465  1.00 36.06 LIG 0.18  C 
BRANCH 42 43
ATOM     43  N   ILE E1023     -49.204  27.723   2.895  1.00 37.96 LIG-0.35  N 
ATOM     44  C   ARG E1022     -50.145  27.967   3.833  1.00 45.42 LIG 0.24  C 
ATOM     45 O    ARG E1022     -51.333  28.143   3.564  1.00 45.23 LIG-0.27  OA
ATOM     46 H    ILE E1023     -48.366  27.654   3.074  1.00 37.96 LIG 0.16  HD
BRANCH 44 47
ATOM     47  CA  ARG E1022     -49.701  28.104   5.290  1.00 45.59 LIG 0.18  C 
BRANCH 47 48
ATOM     48  N   ARG E1022     -48.783  27.036   5.719  1.00 48.30 LIG-0.35  N 
ATOM     49 H    ARG E1022     -48.113  26.912   5.196  1.00 48.30 LIG 0.16  HD
ATOM     50  C   ILE E1021     -49.001  26.324   6.847  1.00 57.51 LIG 0.26  C 
ATOM     51 O    ILE E1021     -49.972  26.523   7.587  1.00 59.03 LIG-0.27  OA
BRANCH 50 52
ATOM     52  CA  ILE E1021     -47.984  25.233   7.223  1.00 57.59 LIG 0.40  C 
ATOM     53  N   ILE E1021     -47.981  25.077   8.674  1.00 58.96 LIG 0.61  N 
BRANCH 52 54
ATOM     54  CB  ILE E1021     -48.337  23.847   6.614  1.00 60.58 LIG 0.03  C 
ATOM     55  CG2 ILE E1021     -49.597  23.237   7.221  1.00 61.37 LIG 0.01  C 
BRANCH 54 56
ATOM     56  CG1 ILE E1021     -48.461  23.945   5.073  1.00 60.59 LIG 0.00  C 
ATOM     57  CD1 ILE E1021     -49.858  23.790   4.600  1.00 60.15 LIG 0.01  C 
ENDBRANCH 54 56
ENDBRANCH 52 54
ENDBRANCH 50 52
ENDBRANCH 47 48
BRANCH 47 58
ATOM     58  CB  ARG E1022     -49.090  29.497   5.486  1.00 44.33 LIG 0.04  C 
BRANCH 58 59
ATOM     59  CG  ARG E1022     -49.436  30.119   6.834  1.00 47.73 LIG 0.02  C 
BRANCH 59 60
ATOM     60  CD  ARG E1022     -50.313  31.348   6.714  1.00 47.87 LIG 0.14  C 
BRANCH 60 61
ATOM     61  NE  ARG E1022     -49.547  32.559   7.000  1.00 55.98 LIG-0.23  N 
ATOM     62  CZ  ARG E1022     -49.787  33.775   6.515  1.00 56.00 LIG 0.67  C 
ATOM     63  NH1 ARG E1022     -50.819  33.988   5.707  1.00 48.69 LIG-0.23  N 
ATOM     64  NH2 ARG E1022     -49.016  34.795   6.861  1.00 32.20 LIG-0.23  N 
ATOM     65 1HH1 ARG E1022     -51.340  33.338   5.493  1.00 48.69 LIG 0.17  HD
ATOM     66 2HH1 ARG E1022     -50.967  34.777   5.398  1.00 48.69 LIG 0.17  HD
ATOM     67 2HH2 ARG E1022     -49.174  35.579   6.546  1.00 32.20 LIG 0.17  HD
ATOM     68 1HH2 ARG E1022     -48.357  34.672   7.401  1.00 32.20 LIG 0.17  HD
ATOM     69 HE   ARG E1022     -48.877  32.478   7.534  1.00 55.98 LIG 0.18  HD
ENDBRANCH 60 61
ENDBRANCH 59 60
ENDBRANCH 58 59
ENDBRANCH 47 58
ENDBRANCH 44 47
ENDBRANCH 42 43
BRANCH 42 70
ATOM     70  CB  ILE E1023     -49.029  28.742   0.578  1.00 38.78 LIG 0.01  C 
ATOM     71  CG2 ILE E1023     -49.453  28.541  -0.884  1.00 39.01 LIG 0.01  C 
BRANCH 70 72
ATOM     72  CG1 ILE E1023     -49.474  30.137   1.111  1.00 39.61 LIG 0.00  C 
ATOM     73  CD1 ILE E1023     -48.731  31.345   0.598  1.00 43.21 LIG 0.01  C 
ENDBRANCH 70 72
ENDBRANCH 42 70
ENDBRANCH 1 42
TORSDOF 26
ENDMDL
MODEL 99
USER: ADFR SOLUTION from run 96
USER: SCORE 22.979719 LL:  -6.629 LR: -17.269 RR:   0.000 FEB:  -9.513
USER: RMSD 4.452623
USER: SEED 95
USER: STATUS no improvement in best in 4 clusters for 5 generations
USER: GENES 28
USER: genes 0 Translation |==|  0.48722 0.48495 0.41788
USER: genes 1 Rotation |==|  0.47813 0.48452 0.56426 0.99513
USER: genes 2 Torsion [N]-CA--C-[O] |==|  0.81516
USER: genes 3 Torsion [C]-N--CA-[CB] |==|  0.53561
USER: genes 4 Torsion [N]-CA--C-[N] |==|  0.32522
USER: genes 5 Torsion [C]-N--CA-[C] |==|  0.68447
USER: genes 6 Torsion [N]-CA--CB-[CG] |==|  0.87322
USER: genes 7 Torsion [CA]-CB--CG-[CD1] |==|  0.34387
USER: genes 8 Torsion [N]-CA--C-[N] |==|  0.34445
USER: genes 9 Torsion [C]-N--CA-[C] |==|  0.23361
USER: genes 10 Torsion [N]-CA--CB-[CG] |==|  0.85381
USER: genes 11 Torsion [CA]-CB--CG-[OD1] |==|  0.86761
USER: genes 12 Torsion [N]-CA--C-[O] |==|  0.06054
USER: genes 13 Torsion [N]-CA--CB-[CG2] |==|  0.44338
USER: genes 14 Torsion [CA]-CB--CG1-[CD1] |==|  0.83634
USER: genes 15 Torsion [N]-C--CA-[N] |==|  0.44925
USER: genes 16 Torsion [C]-CA--N-[C] |==|  0.55486
USER: genes 17 Torsion [N]-C--CA-[N] |==|  0.89111
USER: genes 18 Torsion [C]-CA--N-[C] |==|  0.83382
USER: genes 19 Torsion [N]-C--CA-[N] |==|  0.49275
USER: genes 20 Torsion [C]-CA--CB-[CG1] |==|  0.76686
USER: genes 21 Torsion [CA]-CB--CG1-[CD1] |==|  0.44435
USER: genes 22 Torsion [C]-CA--CB-[CG] |==|  0.82008
USER: genes 23 Torsion [CA]-CB--CG-[CD] |==|  0.71161
USER: genes 24 Torsion [CB]-CG--CD-[NE] |==|  0.91898
USER: genes 25 Torsion [CG]-CD--NE-[CZ] |==|  0.34621
USER: genes 26 Torsion [C]-CA--CB-[CG1] |==|  0.77922
USER: genes 27 Torsion [CA]-CB--CG1-[CD1] |==|  0.18251
ROOT
ATOM      1  C   ILE E1023     -48.548  24.680  -1.882  1.00 40.02 LIG 0.24  C 
ATOM      2 O    ILE E1023     -48.794  25.842  -2.238  1.00 38.38 LIG-0.27  OA
ATOM      3  N   PRO E1024     -49.341  23.983  -1.030  1.00 37.38 LIG-0.34  N 
ATOM      4  CA  PRO E1024     -50.472  24.661  -0.381  1.00 36.67 LIG 0.18  C 
ATOM      5  CB  PRO E1024     -51.305  23.509   0.176  1.00 38.74 LIG 0.04  C 
ATOM      6  CG  PRO E1024     -50.331  22.421   0.426  1.00 43.33 LIG 0.02  C 
ATOM      7  CD  PRO E1024     -49.177  22.603  -0.518  1.00 39.42 LIG 0.13  C 
ENDROOT
BRANCH 4 8
ATOM      8  C   PRO E1024     -49.938  25.565   0.723  1.00 39.60 LIG 0.24  C 
ATOM      9 O    PRO E1024     -49.404  25.056   1.707  1.00 37.18 LIG-0.27  OA
ATOM     10  N   ILE E1025     -50.055  26.895   0.532  1.00 37.20 LIG-0.35  N 
ATOM     11 H    ILE E1025     -50.427  27.216  -0.175  1.00 37.20 LIG 0.16  HD
BRANCH 10 12
ATOM     12  CA  ILE E1025     -49.595  27.953   1.441  1.00 37.42 LIG 0.18  C 
BRANCH 12 13
ATOM     13  C   ILE E1025     -50.125  27.721   2.854  1.00 40.88 LIG 0.24  C 
ATOM     14 O    ILE E1025     -51.315  27.938   3.087  1.00 40.29 LIG-0.27  OA
ATOM     15  N   PHE E1026     -49.227  27.501   3.835  1.00 36.23 LIG-0.35  N 
ATOM     16 H    PHE E1026     -48.395  27.333   3.701  1.00 36.23 LIG 0.16  HD
BRANCH 15 17
ATOM     17  CA  PHE E1026     -49.628  27.533   5.248  1.00 36.58 LIG 0.18  C 
BRANCH 17 18
ATOM     18  CB  PHE E1026     -49.288  26.228   5.960  1.00 38.58 LIG 0.07  C 
BRANCH 18 19
ATOM     19  CG  PHE E1026     -49.680  25.020   5.161  1.00 40.24 LIG-0.06  A 
ATOM     20  CD1 PHE E1026     -48.746  24.059   4.835  1.00 42.20 LIG 0.01  A 
ATOM     21  CE1 PHE E1026     -49.107  22.951   4.087  1.00 42.54 LIG 0.00  A 
ATOM     22  CZ  PHE E1026     -50.401  22.797   3.663  1.00 41.81 LIG 0.00  A 
ATOM     23  CE2 PHE E1026     -51.343  23.743   3.969  1.00 44.36 LIG 0.00  A 
ATOM     24  CD2 PHE E1026     -50.984  24.856   4.712  1.00 42.30 LIG 0.01  A 
ENDBRANCH 18 19
ENDBRANCH 17 18
BRANCH 17 25
ATOM     25  C   PHE E1026     -48.979  28.702   5.967  1.00 38.60 LIG 0.24  C 
ATOM     26  N   ASN E1027     -49.823  29.561   6.590  1.00 38.80 LIG-0.35  N 
ATOM     27 H    ASN E1027     -50.678  29.468   6.562  1.00 38.80 LIG 0.16  HD
ATOM     28 O    PHE E1026     -47.753  28.788   6.010  1.00 31.59 LIG-0.27  OA
BRANCH 26 29
ATOM     29  CA  ASN E1027     -49.399  30.729   7.372  1.00 74.37 LIG 0.17  C 
BRANCH 29 30
ATOM     30  CB  ASN E1027     -48.121  30.415   8.143  1.00 75.17 LIG 0.14  C 
BRANCH 30 31
ATOM     31  CG  ASN E1027     -48.222  29.162   8.977  1.00 99.64 LIG 0.22  C 
ATOM     32  ND2 ASN E1027     -47.231  28.280   8.885  1.00 92.55 LIG-0.37  N 
ATOM     33 22HD ASN E1027     -46.561  28.438   8.369  1.00 92.55 LIG 0.16  HD
ATOM     34 21HD ASN E1027     -47.260  27.552   9.342  1.00 92.55 LIG 0.16  HD
ATOM     35 OD1  ASN E1027     -49.195  28.965   9.707  1.00 94.01 LIG-0.27  OA
ENDBRANCH 30 31
ENDBRANCH 29 30
BRANCH 29 36
ATOM     36  C   ASN E1027     -49.155  31.921   6.448  1.00103.37 LIG 0.22  C 
ATOM     37 O    ASN E1027     -49.677  31.962   5.338  1.00 69.20 LIG-0.29  OA
ENDBRANCH 29 36
ENDBRANCH 26 29
ENDBRANCH 17 25
ENDBRANCH 15 17
ENDBRANCH 12 13
BRANCH 12 38
ATOM     38  CB  ILE E1025     -50.236  29.331   0.971  1.00 40.50 LIG 0.01  C 
ATOM     39  CG2 ILE E1025     -50.237  30.373   2.099  1.00 43.95 LIG 0.01  C 
BRANCH 38 40
ATOM     40  CG1 ILE E1025     -49.587  29.898  -0.292  1.00 41.58 LIG 0.00  C 
ATOM     41  CD1 ILE E1025     -47.993  30.165  -0.114  1.00 52.05 LIG 0.01  C 
ENDBRANCH 38 40
ENDBRANCH 12 38
ENDBRANCH 10 12
ENDBRANCH 4 8
BRANCH 1 42
ATOM     42  CA  ILE E1023     -47.358  23.971  -2.507  1.00 36.06 LIG 0.18  C 
BRANCH 42 43
ATOM     43  N   ILE E1023     -46.958  24.770  -3.681  1.00 37.96 LIG-0.35  N 
ATOM     44  C   ARG E1022     -46.211  24.270  -4.688  1.00 45.42 LIG 0.24  C 
ATOM     45 O    ARG E1022     -45.738  23.133  -4.675  1.00 45.23 LIG-0.27  OA
ATOM     46 H    ILE E1023     -47.244  25.581  -3.663  1.00 37.96 LIG 0.16  HD
BRANCH 44 47
ATOM     47  CA  ARG E1022     -45.875  25.183  -5.868  1.00 45.59 LIG 0.18  C 
BRANCH 47 48
ATOM     48  N   ARG E1022     -46.994  26.054  -6.264  1.00 48.30 LIG-0.35  N 
ATOM     49 H    ARG E1022     -46.825  26.895  -6.215  1.00 48.30 LIG 0.16  HD
ATOM     50  C   ILE E1021     -48.180  25.546  -6.667  1.00 57.51 LIG 0.26  C 
ATOM     51 O    ILE E1021     -48.400  24.330  -6.733  1.00 59.03 LIG-0.27  OA
BRANCH 50 52
ATOM     52  CA  ILE E1021     -49.290  26.531  -7.071  1.00 57.59 LIG 0.40  C 
ATOM     53  N   ILE E1021     -50.449  25.768  -7.527  1.00 58.96 LIG 0.61  N 
BRANCH 52 54
ATOM     54  CB  ILE E1021     -49.764  27.421  -5.888  1.00 60.58 LIG 0.03  C 
ATOM     55  CG2 ILE E1021     -50.287  28.781  -6.342  1.00 61.37 LIG 0.01  C 
BRANCH 54 56
ATOM     56  CG1 ILE E1021     -50.827  26.679  -5.040  1.00 60.59 LIG 0.00  C 
ATOM     57  CD1 ILE E1021     -50.968  27.243  -3.676  1.00 60.15 LIG 0.01  C 
ENDBRANCH 54 56
ENDBRANCH 52 54
ENDBRANCH 50 52
ENDBRANCH 47 48
BRANCH 47 58
ATOM     58  CB  ARG E1022     -44.618  25.989  -5.520  1.00 44.33 LIG 0.04  C 
BRANCH 58 59
ATOM     59  CG  ARG E1022     -44.823  26.946  -4.352  1.00 47.73 LIG 0.02  C 
BRANCH 59 60
ATOM     60  CD  ARG E1022     -44.970  28.390  -4.785  1.00 47.87 LIG 0.14  C 
BRANCH 60 61
ATOM     61  NE  ARG E1022     -44.235  28.634  -6.025  1.00 55.98 LIG-0.23  N 
ATOM     62  CZ  ARG E1022     -44.737  29.135  -7.151  1.00 56.00 LIG 0.67  C 
ATOM     63  NH1 ARG E1022     -46.014  29.494  -7.222  1.00 48.69 LIG-0.23  N 
ATOM     64  NH2 ARG E1022     -43.957  29.314  -8.207  1.00 32.20 LIG-0.23  N 
ATOM     65 1HH1 ARG E1022     -46.525  29.402  -6.535  1.00 48.69 LIG 0.17  HD
ATOM     66 2HH1 ARG E1022     -46.330  29.817  -7.953  1.00 48.69 LIG 0.17  HD
ATOM     67 2HH2 ARG E1022     -44.284  29.638  -8.933  1.00 32.20 LIG 0.17  HD
ATOM     68 1HH2 ARG E1022     -43.123  29.106  -8.166  1.00 32.20 LIG 0.17  HD
ATOM     69 HE   ARG E1022     -43.398  28.436  -6.027  1.00 55.98 LIG 0.18  HD
ENDBRANCH 60 61
ENDBRANCH 59 60
ENDBRANCH 58 59
ENDBRANCH 47 58
ENDBRANCH 44 47
ENDBRANCH 42 43
BRANCH 42 70
ATOM     70  CB  ILE E1023     -46.220  23.831  -1.443  1.00 38.78 LIG 0.01  C 
ATOM     71  CG2 ILE E1023     -45.312  22.638  -1.775  1.00 39.01 LIG 0.01  C 
BRANCH 70 72
ATOM     72  CG1 ILE E1023     -45.392  25.136  -1.248  1.00 39.61 LIG 0.00  C 
ATOM     73  CD1 ILE E1023     -46.106  26.330  -0.665  1.00 43.21 LIG 0.01  C 
ENDBRANCH 70 72
ENDBRANCH 42 70
ENDBRANCH 1 42
TORSDOF 26
ENDMDL
MODEL 100
USER: ADFR SOLUTION from run 122
USER: SCORE 22.084955 LL:  -5.765 LR: -17.274 RR:   0.000 FEB:  -9.518
USER: RMSD 3.378478
USER: SEED 121
USER: STATUS no improvement in best in 10 clusters for 5 generations
USER: GENES 28
USER: genes 0 Translation |==|  0.51950 0.47406 0.41827
USER: genes 1 Rotation |==|  0.48771 0.42948 0.48513 0.99463
USER: genes 2 Torsion [N]-CA--C-[O] |==|  0.74229
USER: genes 3 Torsion [C]-N--CA-[CB] |==|  0.54184
USER: genes 4 Torsion [N]-CA--C-[N] |==|  0.44386
USER: genes 5 Torsion [C]-N--CA-[C] |==|  0.53744
USER: genes 6 Torsion [N]-CA--CB-[CG] |==|  0.61435
USER: genes 7 Torsion [CA]-CB--CG-[CD1] |==|  0.08164
USER: genes 8 Torsion [N]-CA--C-[N] |==|  0.41741
USER: genes 9 Torsion [C]-N--CA-[C] |==|  0.62810
USER: genes 10 Torsion [N]-CA--CB-[CG] |==|  0.17050
USER: genes 11 Torsion [CA]-CB--CG-[OD1] |==|  0.90213
USER: genes 12 Torsion [N]-CA--C-[O] |==|  0.23597
USER: genes 13 Torsion [N]-CA--CB-[CG2] |==|  0.90686
USER: genes 14 Torsion [CA]-CB--CG1-[CD1] |==|  0.76946
USER: genes 15 Torsion [N]-C--CA-[N] |==|  0.28508
USER: genes 16 Torsion [C]-CA--N-[C] |==|  0.61454
USER: genes 17 Torsion [N]-C--CA-[N] |==|  0.04249
USER: genes 18 Torsion [C]-CA--N-[C] |==|  0.70932
USER: genes 19 Torsion [N]-C--CA-[N] |==|  0.43016
USER: genes 20 Torsion [C]-CA--CB-[CG1] |==|  0.97470
USER: genes 21 Torsion [CA]-CB--CG1-[CD1] |==|  0.71267
USER: genes 22 Torsion [C]-CA--CB-[CG] |==|  0.30832
USER: genes 23 Torsion [CA]-CB--CG-[CD] |==|  0.42537
USER: genes 24 Torsion [CB]-CG--CD-[NE] |==|  0.41642
USER: genes 25 Torsion [CG]-CD--NE-[CZ] |==|  0.64038
USER: genes 26 Torsion [C]-CA--CB-[CG1] |==|  0.67368
USER: genes 27 Torsion [CA]-CB--CG1-[CD1] |==|  0.25175
ROOT
ATOM      1  C   ILE E1023     -48.063  24.427  -1.871  1.00 40.02 LIG 0.24  C 
ATOM      2 O    ILE E1023     -47.875  25.622  -2.142  1.00 38.38 LIG-0.27  OA
ATOM      3  N   PRO E1024     -49.200  23.972  -1.287  1.00 37.38 LIG-0.34  N 
ATOM      4  CA  PRO E1024     -50.208  24.936  -0.821  1.00 36.67 LIG 0.18  C 
ATOM      5  CB  PRO E1024     -51.443  24.072  -0.581  1.00 38.74 LIG 0.04  C 
ATOM      6  CG  PRO E1024     -50.910  22.729  -0.251  1.00 43.33 LIG 0.02  C 
ATOM      7  CD  PRO E1024     -49.565  22.588  -0.905  1.00 39.42 LIG 0.13  C 
ENDROOT
BRANCH 4 8
ATOM      8  C   PRO E1024     -49.710  25.589   0.462  1.00 39.60 LIG 0.24  C 
ATOM      9 O    PRO E1024     -50.031  25.101   1.545  1.00 37.18 LIG-0.27  OA
ATOM     10  N   ILE E1025     -48.903  26.661   0.327  1.00 37.20 LIG-0.35  N 
ATOM     11 H    ILE E1025     -48.692  26.969  -0.447  1.00 37.20 LIG 0.16  HD
BRANCH 10 12
ATOM     12  CA  ILE E1025     -48.287  27.434   1.415  1.00 37.42 LIG 0.18  C 
BRANCH 12 13
ATOM     13  C   ILE E1025     -49.330  27.823   2.460  1.00 40.88 LIG 0.24  C 
ATOM     14 O    ILE E1025     -50.493  28.014   2.099  1.00 40.29 LIG-0.27  OA
ATOM     15  N   PHE E1026     -48.894  28.156   3.691  1.00 36.23 LIG-0.35  N 
ATOM     16 H    PHE E1026     -48.094  28.021   3.974  1.00 36.23 LIG 0.16  HD
BRANCH 15 17
ATOM     17  CA  PHE E1026     -49.791  28.792   4.665  1.00 36.58 LIG 0.18  C 
BRANCH 17 18
ATOM     18  CB  PHE E1026     -50.851  27.819   5.174  1.00 38.58 LIG 0.07  C 
BRANCH 18 19
ATOM     19  CG  PHE E1026     -52.204  28.456   5.294  1.00 40.24 LIG-0.06  A 
ATOM     20  CD1 PHE E1026     -52.569  29.494   4.465  1.00 42.20 LIG 0.01  A 
ATOM     21  CE1 PHE E1026     -53.813  30.089   4.584  1.00 42.54 LIG 0.00  A 
ATOM     22  CZ  PHE E1026     -54.699  29.648   5.532  1.00 41.81 LIG 0.00  A 
ATOM     23  CE2 PHE E1026     -54.355  28.622   6.372  1.00 44.36 LIG 0.00  A 
ATOM     24  CD2 PHE E1026     -53.108  28.029   6.259  1.00 42.30 LIG 0.01  A 
ENDBRANCH 18 19
ENDBRANCH 17 18
BRANCH 17 25
ATOM     25  C   PHE E1026     -49.005  29.362   5.832  1.00 38.60 LIG 0.24  C 
ATOM     26  N   ASN E1027     -49.544  30.450   6.437  1.00 38.80 LIG-0.35  N 
ATOM     27 H    ASN E1027     -50.274  30.814   6.165  1.00 38.80 LIG 0.16  HD
ATOM     28 O    PHE E1026     -47.981  28.799   6.212  1.00 31.59 LIG-0.27  OA
BRANCH 26 29
ATOM     29  CA  ASN E1027     -48.965  31.128   7.603  1.00 74.37 LIG 0.17  C 
BRANCH 29 30
ATOM     30  CB  ASN E1027     -48.315  32.442   7.185  1.00 75.17 LIG 0.14  C 
BRANCH 30 31
ATOM     31  CG  ASN E1027     -49.290  33.420   6.577  1.00 99.64 LIG 0.22  C 
ATOM     32  ND2 ASN E1027     -49.106  34.712   6.832  1.00 92.55 LIG-0.37  N 
ATOM     33 22HD ASN E1027     -48.446  34.964   7.323  1.00 92.55 LIG 0.16  HD
ATOM     34 21HD ASN E1027     -49.647  35.297   6.506  1.00 92.55 LIG 0.16  HD
ATOM     35 OD1  ASN E1027     -50.226  33.029   5.877  1.00 94.01 LIG-0.27  OA
ENDBRANCH 30 31
ENDBRANCH 29 30
BRANCH 29 36
ATOM     36  C   ASN E1027     -50.050  31.406   8.643  1.00103.37 LIG 0.22  C 
ATOM     37 O    ASN E1027     -50.363  30.544   9.459  1.00 69.20 LIG-0.29  OA
ENDBRANCH 29 36
ENDBRANCH 26 29
ENDBRANCH 17 25
ENDBRANCH 15 17
ENDBRANCH 12 13
BRANCH 12 38
ATOM     38  CB  ILE E1025     -47.757  28.809   0.814  1.00 40.50 LIG 0.01  C 
ATOM     39  CG2 ILE E1025     -47.266  28.647  -0.631  1.00 43.95 LIG 0.01  C 
BRANCH 38 40
ATOM     40  CG1 ILE E1025     -48.775  29.944   0.918  1.00 41.58 LIG 0.00  C 
ATOM     41  CD1 ILE E1025     -49.862  29.927  -0.290  1.00 52.05 LIG 0.01  C 
ENDBRANCH 38 40
ENDBRANCH 12 38
ENDBRANCH 10 12
ENDBRANCH 4 8
BRANCH 1 42
ATOM     42  CA  ILE E1023     -47.017  23.415  -2.304  1.00 36.06 LIG 0.18  C 
BRANCH 42 43
ATOM     43  N   ILE E1023     -47.146  23.271  -3.767  1.00 37.96 LIG-0.35  N 
ATOM     44  C   ARG E1022     -47.069  22.079  -4.396  1.00 45.42 LIG 0.24  C 
ATOM     45 O    ARG E1022     -46.808  21.026  -3.813  1.00 45.23 LIG-0.27  OA
ATOM     46 H    ILE E1023     -47.275  24.014  -4.179  1.00 37.96 LIG 0.16  HD
BRANCH 44 47
ATOM     47  CA  ARG E1022     -47.241  22.045  -5.915  1.00 45.59 LIG 0.18  C 
BRANCH 47 48
ATOM     48  N   ARG E1022     -47.120  23.372  -6.541  1.00 48.30 LIG-0.35  N 
ATOM     49 H    ARG E1022     -46.314  23.666  -6.597  1.00 48.30 LIG 0.16  HD
ATOM     50  C   ILE E1021     -48.202  24.050  -6.984  1.00 57.51 LIG 0.26  C 
ATOM     51 O    ILE E1021     -49.353  23.604  -6.896  1.00 59.03 LIG-0.27  OA
BRANCH 50 52
ATOM     52  CA  ILE E1021     -47.980  25.426  -7.634  1.00 57.59 LIG 0.40  C 
ATOM     53  N   ILE E1021     -49.092  25.701  -8.539  1.00 58.96 LIG 0.61  N 
BRANCH 52 54
ATOM     54  CB  ILE E1021     -47.938  26.582  -6.595  1.00 60.58 LIG 0.03  C 
ATOM     55  CG2 ILE E1021     -48.784  27.782  -7.010  1.00 61.37 LIG 0.01  C 
BRANCH 54 56
ATOM     56  CG1 ILE E1021     -48.358  26.071  -5.194  1.00 60.59 LIG 0.00  C 
ATOM     57  CD1 ILE E1021     -49.741  26.466  -4.831  1.00 60.15 LIG 0.01  C 
ENDBRANCH 54 56
ENDBRANCH 52 54
ENDBRANCH 50 52
ENDBRANCH 47 48
BRANCH 47 58
ATOM     58  CB  ARG E1022     -46.239  21.042  -6.499  1.00 44.33 LIG 0.04  C 
BRANCH 58 59
ATOM     59  CG  ARG E1022     -46.901  19.794  -7.067  1.00 47.73 LIG 0.02  C 
BRANCH 59 60
ATOM     60  CD  ARG E1022     -46.091  19.139  -8.167  1.00 47.87 LIG 0.14  C 
BRANCH 60 61
ATOM     61  NE  ARG E1022     -46.322  17.695  -8.189  1.00 55.98 LIG-0.23  N 
ATOM     62  CZ  ARG E1022     -45.386  16.750  -8.198  1.00 56.00 LIG 0.67  C 
ATOM     63  NH1 ARG E1022     -44.098  17.073  -8.160  1.00 48.69 LIG-0.23  N 
ATOM     64  NH2 ARG E1022     -45.731  15.471  -8.211  1.00 32.20 LIG-0.23  N 
ATOM     65 1HH1 ARG E1022     -43.863  17.899  -8.129  1.00 48.69 LIG 0.17  HD
ATOM     66 2HH1 ARG E1022     -43.500  16.455  -8.167  1.00 48.69 LIG 0.17  HD
ATOM     67 2HH2 ARG E1022     -45.124  14.862  -8.218  1.00 32.20 LIG 0.17  HD
ATOM     68 1HH2 ARG E1022     -46.562  15.250  -8.214  1.00 32.20 LIG 0.17  HD
ATOM     69 HE   ARG E1022     -47.141  17.432  -8.196  1.00 55.98 LIG 0.18  HD
ENDBRANCH 60 61
ENDBRANCH 59 60
ENDBRANCH 58 59
ENDBRANCH 47 58
ENDBRANCH 44 47
ENDBRANCH 42 43
BRANCH 42 70
ATOM     70  CB  ILE E1023     -45.601  23.909  -1.858  1.00 38.78 LIG 0.01  C 
ATOM     71  CG2 ILE E1023     -44.981  22.935  -0.845  1.00 39.01 LIG 0.01  C 
BRANCH 70 72
ATOM     72  CG1 ILE E1023     -44.636  24.175  -3.052  1.00 39.61 LIG 0.00  C 
ATOM     73  CD1 ILE E1023     -44.619  25.567  -3.634  1.00 43.21 LIG 0.01  C 
ENDBRANCH 70 72
ENDBRANCH 42 70
ENDBRANCH 1 42
TORSDOF 26
ENDMDL
MODEL 101
USER: ADFR SOLUTION from run 183
USER: SCORE 22.192099 LL:  -6.570 LR: -17.265 RR:   0.000 FEB:  -9.510
USER: RMSD 4.374071
USER: SEED 182
USER: STATUS searching
USER: GENES 28
USER: genes 0 Translation |==|  0.62532 0.49355 0.36109
USER: genes 1 Rotation |==|  0.42980 0.61722 0.69909 0.93783
USER: genes 2 Torsion [N]-CA--C-[O] |==|  0.98138
USER: genes 3 Torsion [C]-N--CA-[CB] |==|  0.21404
USER: genes 4 Torsion [N]-CA--C-[N] |==|  0.86495
USER: genes 5 Torsion [C]-N--CA-[C] |==|  0.14570
USER: genes 6 Torsion [N]-CA--CB-[CG] |==|  0.86852
USER: genes 7 Torsion [CA]-CB--CG-[CD1] |==|  0.37771
USER: genes 8 Torsion [N]-CA--C-[N] |==|  0.69900
USER: genes 9 Torsion [C]-N--CA-[C] |==|  0.82931
USER: genes 10 Torsion [N]-CA--CB-[CG] |==|  0.14867
USER: genes 11 Torsion [CA]-CB--CG-[OD1] |==|  0.97232
USER: genes 12 Torsion [N]-CA--C-[O] |==|  0.24933
USER: genes 13 Torsion [N]-CA--CB-[CG2] |==|  0.12758
USER: genes 14 Torsion [CA]-CB--CG1-[CD1] |==|  0.70322
USER: genes 15 Torsion [N]-C--CA-[N] |==|  0.29026
USER: genes 16 Torsion [C]-CA--N-[C] |==|  0.75504
USER: genes 17 Torsion [N]-C--CA-[N] |==|  0.90096
USER: genes 18 Torsion [C]-CA--N-[C] |==|  0.85556
USER: genes 19 Torsion [N]-C--CA-[N] |==|  0.28121
USER: genes 20 Torsion [C]-CA--CB-[CG1] |==|  0.16238
USER: genes 21 Torsion [CA]-CB--CG1-[CD1] |==|  0.51987
USER: genes 22 Torsion [C]-CA--CB-[CG] |==|  0.30688
USER: genes 23 Torsion [CA]-CB--CG-[CD] |==|  0.34351
USER: genes 24 Torsion [CB]-CG--CD-[NE] |==|  0.59332
USER: genes 25 Torsion [CG]-CD--NE-[CZ] |==|  0.75579
USER: genes 26 Torsion [C]-CA--CB-[CG1] |==|  0.12385
USER: genes 27 Torsion [CA]-CB--CG1-[CD1] |==|  0.54444
ROOT
ATOM      1  C   ILE E1023     -46.476  24.880  -3.501  1.00 40.02 LIG 0.24  C 
ATOM      2 O    ILE E1023     -47.452  25.583  -3.803  1.00 38.38 LIG-0.27  OA
ATOM      3  N   PRO E1024     -46.318  24.323  -2.274  1.00 37.38 LIG-0.34  N 
ATOM      4  CA  PRO E1024     -47.260  24.666  -1.199  1.00 36.67 LIG 0.18  C 
ATOM      5  CB  PRO E1024     -46.991  23.603  -0.137  1.00 38.74 LIG 0.04  C 
ATOM      6  CG  PRO E1024     -45.573  23.220  -0.332  1.00 43.33 LIG 0.02  C 
ATOM      7  CD  PRO E1024     -45.217  23.470  -1.770  1.00 39.42 LIG 0.13  C 
ENDROOT
BRANCH 4 8
ATOM      8  C   PRO E1024     -46.945  26.068  -0.695  1.00 39.60 LIG 0.24  C 
ATOM      9 O    PRO E1024     -45.943  26.644  -1.116  1.00 37.18 LIG-0.27  OA
ATOM     10  N   ILE E1025     -47.821  26.616   0.173  1.00 37.20 LIG-0.35  N 
ATOM     11 H    ILE E1025     -48.517  26.186   0.438  1.00 37.20 LIG 0.16  HD
BRANCH 10 12
ATOM     12  CA  ILE E1025     -47.738  27.955   0.771  1.00 37.42 LIG 0.18  C 
BRANCH 12 13
ATOM     13  C   ILE E1025     -48.735  28.099   1.917  1.00 40.88 LIG 0.24  C 
ATOM     14 O    ILE E1025     -48.314  28.365   3.044  1.00 40.29 LIG-0.27  OA
ATOM     15  N   PHE E1026     -50.008  27.713   1.697  1.00 36.23 LIG-0.35  N 
ATOM     16 H    PHE E1026     -50.332  27.534   0.921  1.00 36.23 LIG 0.16  HD
BRANCH 15 17
ATOM     17  CA  PHE E1026     -50.957  27.567   2.809  1.00 36.58 LIG 0.18  C 
BRANCH 17 18
ATOM     18  CB  PHE E1026     -50.623  26.361   3.681  1.00 38.58 LIG 0.07  C 
BRANCH 18 19
ATOM     19  CG  PHE E1026     -50.355  25.125   2.872  1.00 40.24 LIG-0.06  A 
ATOM     20  CD1 PHE E1026     -49.291  24.303   3.175  1.00 42.20 LIG 0.01  A 
ATOM     21  CE1 PHE E1026     -49.039  23.170   2.421  1.00 42.54 LIG 0.00  A 
ATOM     22  CZ  PHE E1026     -49.850  22.852   1.363  1.00 41.81 LIG 0.00  A 
ATOM     23  CE2 PHE E1026     -50.908  23.658   1.039  1.00 44.36 LIG 0.00  A 
ATOM     24  CD2 PHE E1026     -51.160  24.797   1.788  1.00 42.30 LIG 0.01  A 
ENDBRANCH 18 19
ENDBRANCH 17 18
BRANCH 17 25
ATOM     25  C   PHE E1026     -50.996  28.826   3.655  1.00 38.60 LIG 0.24  C 
ATOM     26  N   ASN E1027     -50.427  28.735   4.884  1.00 38.80 LIG-0.35  N 
ATOM     27 H    ASN E1027     -50.086  28.003   5.180  1.00 38.80 LIG 0.16  HD
ATOM     28 O    PHE E1026     -51.467  29.861   3.190  1.00 31.59 LIG-0.27  OA
BRANCH 26 29
ATOM     29  CA  ASN E1027     -50.324  29.844   5.840  1.00 74.37 LIG 0.17  C 
BRANCH 29 30
ATOM     30  CB  ASN E1027     -49.681  29.367   7.138  1.00 75.17 LIG 0.14  C 
BRANCH 30 31
ATOM     31  CG  ASN E1027     -48.356  28.677   6.926  1.00 99.64 LIG 0.22  C 
ATOM     32  ND2 ASN E1027     -47.619  28.416   8.002  1.00 92.55 LIG-0.37  N 
ATOM     33 22HD ASN E1027     -47.905  28.634   8.783  1.00 92.55 LIG 0.16  HD
ATOM     34 21HD ASN E1027     -46.855  28.030   7.917  1.00 92.55 LIG 0.16  HD
ATOM     35 OD1  ASN E1027     -47.973  28.377   5.794  1.00 94.01 LIG-0.27  OA
ENDBRANCH 30 31
ENDBRANCH 29 30
BRANCH 29 36
ATOM     36  C   ASN E1027     -49.489  30.976   5.246  1.00103.37 LIG 0.22  C 
ATOM     37 O    ASN E1027     -50.026  31.867   4.593  1.00 69.20 LIG-0.29  OA
ENDBRANCH 29 36
ENDBRANCH 26 29
ENDBRANCH 17 25
ENDBRANCH 15 17
ENDBRANCH 12 13
BRANCH 12 38
ATOM     38  CB  ILE E1025     -48.193  29.020  -0.321  1.00 40.50 LIG 0.01  C 
ATOM     39  CG2 ILE E1025     -49.478  28.584  -1.040  1.00 43.95 LIG 0.01  C 
BRANCH 38 40
ATOM     40  CG1 ILE E1025     -48.337  30.435   0.239  1.00 41.58 LIG 0.00  C 
ATOM     41  CD1 ILE E1025     -49.888  30.895   0.392  1.00 52.05 LIG 0.01  C 
ENDBRANCH 38 40
ENDBRANCH 12 38
ENDBRANCH 10 12
ENDBRANCH 4 8
BRANCH 1 42
ATOM     42  CA  ILE E1023     -45.465  24.546  -4.583  1.00 36.06 LIG 0.18  C 
BRANCH 42 43
ATOM     43  N   ILE E1023     -46.122  23.593  -5.498  1.00 37.96 LIG-0.35  N 
ATOM     44  C   ARG E1022     -46.096  22.257  -5.308  1.00 45.42 LIG 0.24  C 
ATOM     45 O    ARG E1022     -45.459  21.718  -4.403  1.00 45.23 LIG-0.27  OA
ATOM     46 H    ILE E1023     -46.522  23.968  -6.161  1.00 37.96 LIG 0.16  HD
BRANCH 44 47
ATOM     47  CA  ARG E1022     -46.833  21.365  -6.308  1.00 45.59 LIG 0.18  C 
BRANCH 47 48
ATOM     48  N   ARG E1022     -48.077  21.967  -6.814  1.00 48.30 LIG-0.35  N 
ATOM     49 H    ARG E1022     -48.142  21.982  -7.671  1.00 48.30 LIG 0.16  HD
ATOM     50  C   ILE E1021     -49.024  22.449  -5.978  1.00 57.51 LIG 0.26  C 
ATOM     51 O    ILE E1021     -48.909  22.413  -4.746  1.00 59.03 LIG-0.27  OA
BRANCH 50 52
ATOM     52  CA  ILE E1021     -50.297  23.052  -6.594  1.00 57.59 LIG 0.40  C 
ATOM     53  N   ILE E1021     -51.372  22.069  -6.504  1.00 58.96 LIG 0.61  N 
BRANCH 52 54
ATOM     54  CB  ILE E1021     -50.779  24.328  -5.849  1.00 60.58 LIG 0.03  C 
ATOM     55  CG2 ILE E1021     -51.251  24.040  -4.426  1.00 61.37 LIG 0.01  C 
BRANCH 54 56
ATOM     56  CG1 ILE E1021     -49.673  25.412  -5.853  1.00 60.59 LIG 0.00  C 
ATOM     57  CD1 ILE E1021     -50.017  26.584  -5.011  1.00 60.15 LIG 0.01  C 
ENDBRANCH 54 56
ENDBRANCH 52 54
ENDBRANCH 50 52
ENDBRANCH 47 48
BRANCH 47 58
ATOM     58  CB  ARG E1022     -45.868  21.004  -7.444  1.00 44.33 LIG 0.04  C 
BRANCH 58 59
ATOM     59  CG  ARG E1022     -45.459  19.536  -7.440  1.00 47.73 LIG 0.02  C 
BRANCH 59 60
ATOM     60  CD  ARG E1022     -45.761  18.831  -8.746  1.00 47.87 LIG 0.14  C 
BRANCH 60 61
ATOM     61  NE  ARG E1022     -46.119  17.433  -8.507  1.00 55.98 LIG-0.23  N 
ATOM     62  CZ  ARG E1022     -45.275  16.408  -8.428  1.00 56.00 LIG 0.67  C 
ATOM     63  NH1 ARG E1022     -43.965  16.600  -8.543  1.00 48.69 LIG-0.23  N 
ATOM     64  NH2 ARG E1022     -45.731  15.185  -8.201  1.00 32.20 LIG-0.23  N 
ATOM     65 1HH1 ARG E1022     -43.656  17.392  -8.669  1.00 48.69 LIG 0.17  HD
ATOM     66 2HH1 ARG E1022     -43.427  15.931  -8.491  1.00 48.69 LIG 0.17  HD
ATOM     67 2HH2 ARG E1022     -45.183  14.525  -8.151  1.00 32.20 LIG 0.17  HD
ATOM     68 1HH2 ARG E1022     -46.575  15.052  -8.104  1.00 32.20 LIG 0.17  HD
ATOM     69 HE   ARG E1022     -46.955  17.258  -8.408  1.00 55.98 LIG 0.18  HD
ENDBRANCH 60 61
ENDBRANCH 59 60
ENDBRANCH 58 59
ENDBRANCH 47 58
ENDBRANCH 44 47
ENDBRANCH 42 43
BRANCH 42 70
ATOM     70  CB  ILE E1023     -45.009  25.863  -5.293  1.00 38.78 LIG 0.01  C 
ATOM     71  CG2 ILE E1023     -46.037  26.292  -6.351  1.00 39.01 LIG 0.01  C 
BRANCH 70 72
ATOM     72  CG1 ILE E1023     -44.699  27.025  -4.301  1.00 39.61 LIG 0.00  C 
ATOM     73  CD1 ILE E1023     -44.615  28.419  -4.870  1.00 43.21 LIG 0.01  C 
ENDBRANCH 70 72
ENDBRANCH 42 70
ENDBRANCH 1 42
TORSDOF 26
ENDMDL
MODEL 102
USER: ADFR SOLUTION from run 118
USER: SCORE 22.514054 LL:  -6.704 LR: -17.259 RR:   0.000 FEB:  -9.503
USER: RMSD 11.522424
USER: SEED 117
USER: STATUS no improvement in best in 14 clusters for 5 generations
USER: GENES 28
USER: genes 0 Translation |==|  0.44336 0.56008 0.53270
USER: genes 1 Rotation |==|  0.86531 0.82404 0.42060 0.57240
USER: genes 2 Torsion [N]-CA--C-[O] |==|  0.58715
USER: genes 3 Torsion [C]-N--CA-[CB] |==|  0.81634
USER: genes 4 Torsion [N]-CA--C-[N] |==|  0.56667
USER: genes 5 Torsion [C]-N--CA-[C] |==|  0.16802
USER: genes 6 Torsion [N]-CA--CB-[CG] |==|  0.86591
USER: genes 7 Torsion [CA]-CB--CG-[CD1] |==|  0.86000
USER: genes 8 Torsion [N]-CA--C-[N] |==|  0.09488
USER: genes 9 Torsion [C]-N--CA-[C] |==|  0.55175
USER: genes 10 Torsion [N]-CA--CB-[CG] |==|  0.10900
USER: genes 11 Torsion [CA]-CB--CG-[OD1] |==|  0.14859
USER: genes 12 Torsion [N]-CA--C-[O] |==|  0.75425
USER: genes 13 Torsion [N]-CA--CB-[CG2] |==|  0.57791
USER: genes 14 Torsion [CA]-CB--CG1-[CD1] |==|  0.31618
USER: genes 15 Torsion [N]-C--CA-[N] |==|  0.37494
USER: genes 16 Torsion [C]-CA--N-[C] |==|  0.60345
USER: genes 17 Torsion [N]-C--CA-[N] |==|  0.40836
USER: genes 18 Torsion [C]-CA--N-[C] |==|  0.83713
USER: genes 19 Torsion [N]-C--CA-[N] |==|  0.84309
USER: genes 20 Torsion [C]-CA--CB-[CG1] |==|  0.48219
USER: genes 21 Torsion [CA]-CB--CG1-[CD1] |==|  0.54879
USER: genes 22 Torsion [C]-CA--CB-[CG] |==|  0.12409
USER: genes 23 Torsion [CA]-CB--CG-[CD] |==|  0.63749
USER: genes 24 Torsion [CB]-CG--CD-[NE] |==|  0.42667
USER: genes 25 Torsion [CG]-CD--NE-[CZ] |==|  0.19585
USER: genes 26 Torsion [C]-CA--CB-[CG1] |==|  0.90344
USER: genes 27 Torsion [CA]-CB--CG1-[CD1] |==|  0.79414
ROOT
ATOM      1  C   ILE E1023     -49.206  26.427   1.390  1.00 40.02 LIG 0.24  C 
ATOM      2 O    ILE E1023     -47.984  26.424   1.601  1.00 38.38 LIG-0.27  OA
ATOM      3  N   PRO E1024     -49.890  25.325   0.994  1.00 37.38 LIG-0.34  N 
ATOM      4  CA  PRO E1024     -49.152  24.098   0.662  1.00 36.67 LIG 0.18  C 
ATOM      5  CB  PRO E1024     -50.238  23.026   0.631  1.00 38.74 LIG 0.04  C 
ATOM      6  CG  PRO E1024     -51.476  23.749   0.257  1.00 43.33 LIG 0.02  C 
ATOM      7  CD  PRO E1024     -51.335  25.176   0.705  1.00 39.42 LIG 0.13  C 
ENDROOT
BRANCH 4 8
ATOM      8  C   PRO E1024     -48.487  24.275  -0.697  1.00 39.60 LIG 0.24  C 
ATOM      9 O    PRO E1024     -48.331  23.292  -1.420  1.00 37.18 LIG-0.27  OA
ATOM     10  N   ILE E1025     -48.135  25.530  -1.045  1.00 37.20 LIG-0.35  N 
ATOM     11 H    ILE E1025     -48.267  26.195  -0.517  1.00 37.20 LIG 0.16  HD
BRANCH 10 12
ATOM     12  CA  ILE E1025     -47.505  25.944  -2.307  1.00 37.42 LIG 0.18  C 
BRANCH 12 13
ATOM     13  C   ILE E1025     -48.254  25.360  -3.502  1.00 40.88 LIG 0.24  C 
ATOM     14 O    ILE E1025     -49.368  24.864  -3.323  1.00 40.29 LIG-0.27  OA
ATOM     15  N   PHE E1026     -47.578  25.212  -4.658  1.00 36.23 LIG-0.35  N 
ATOM     16 H    PHE E1026     -46.807  25.558  -4.816  1.00 36.23 LIG 0.16  HD
BRANCH 15 17
ATOM     17  CA  PHE E1026     -48.134  24.423  -5.765  1.00 36.58 LIG 0.18  C 
BRANCH 17 18
ATOM     18  CB  PHE E1026     -48.322  22.960  -5.375  1.00 38.58 LIG 0.07  C 
BRANCH 18 19
ATOM     19  CG  PHE E1026     -47.104  22.381  -4.717  1.00 40.24 LIG-0.06  A 
ATOM     20  CD1 PHE E1026     -45.861  22.514  -5.296  1.00 42.20 LIG 0.01  A 
ATOM     21  CE1 PHE E1026     -44.740  21.970  -4.693  1.00 42.54 LIG 0.00  A 
ATOM     22  CZ  PHE E1026     -44.856  21.291  -3.509  1.00 41.81 LIG 0.00  A 
ATOM     23  CE2 PHE E1026     -46.082  21.140  -2.918  1.00 44.36 LIG 0.00  A 
ATOM     24  CD2 PHE E1026     -47.207  21.679  -3.522  1.00 42.30 LIG 0.01  A 
ENDBRANCH 18 19
ENDBRANCH 17 18
BRANCH 17 25
ATOM     25  C   PHE E1026     -49.452  25.008  -6.238  1.00 38.60 LIG 0.24  C 
ATOM     26  N   ASN E1027     -49.559  26.360  -6.178  1.00 38.80 LIG-0.35  N 
ATOM     27 H    ASN E1027     -48.929  26.858  -5.869  1.00 38.80 LIG 0.16  HD
ATOM     28 O    PHE E1026     -50.319  24.269  -6.699  1.00 31.59 LIG-0.27  OA
BRANCH 26 29
ATOM     29  CA  ASN E1027     -50.730  27.125  -6.622  1.00 74.37 LIG 0.17  C 
BRANCH 29 30
ATOM     30  CB  ASN E1027     -51.842  27.043  -5.582  1.00 75.17 LIG 0.14  C 
BRANCH 30 31
ATOM     31  CG  ASN E1027     -51.335  27.108  -4.163  1.00 99.64 LIG 0.22  C 
ATOM     32  ND2 ASN E1027     -51.711  26.142  -3.329  1.00 92.55 LIG-0.37  N 
ATOM     33 22HD ASN E1027     -52.221  25.507  -3.609  1.00 92.55 LIG 0.16  HD
ATOM     34 21HD ASN E1027     -51.446  26.151  -2.511  1.00 92.55 LIG 0.16  HD
ATOM     35 OD1  ASN E1027     -50.606  28.030  -3.792  1.00 94.01 LIG-0.27  OA
ENDBRANCH 30 31
ENDBRANCH 29 30
BRANCH 29 36
ATOM     36  C   ASN E1027     -50.350  28.587  -6.845  1.00103.37 LIG 0.22  C 
ATOM     37 O    ASN E1027     -50.410  29.392  -5.919  1.00 69.20 LIG-0.29  OA
ENDBRANCH 29 36
ENDBRANCH 26 29
ENDBRANCH 17 25
ENDBRANCH 15 17
ENDBRANCH 12 13
BRANCH 12 38
ATOM     38  CB  ILE E1025     -46.047  25.309  -2.370  1.00 40.50 LIG 0.01  C 
ATOM     39  CG2 ILE E1025     -45.090  26.164  -3.212  1.00 43.95 LIG 0.01  C 
BRANCH 38 40
ATOM     40  CG1 ILE E1025     -45.453  25.024  -0.991  1.00 41.58 LIG 0.00  C 
ATOM     41  CD1 ILE E1025     -45.254  23.436  -0.708  1.00 52.05 LIG 0.01  C 
ENDBRANCH 38 40
ENDBRANCH 12 38
ENDBRANCH 10 12
ENDBRANCH 4 8
BRANCH 1 42
ATOM     42  CA  ILE E1023     -49.986  27.696   1.685  1.00 36.06 LIG 0.18  C 
BRANCH 42 43
ATOM     43  N   ILE E1023     -49.450  28.239   2.948  1.00 37.96 LIG-0.35  N 
ATOM     44  C   ARG E1022     -50.227  28.831   3.880  1.00 45.42 LIG 0.24  C 
ATOM     45 O    ARG E1022     -51.430  29.036   3.721  1.00 45.23 LIG-0.27  OA
ATOM     46 H    ILE E1023     -48.600  28.143   3.034  1.00 37.96 LIG 0.16  HD
BRANCH 44 47
ATOM     47  CA  ARG E1022     -49.567  29.336   5.164  1.00 45.59 LIG 0.18  C 
BRANCH 47 48
ATOM     48  N   ARG E1022     -50.207  30.545   5.708  1.00 48.30 LIG-0.35  N 
ATOM     49 H    ARG E1022     -50.506  30.459   6.509  1.00 48.30 LIG 0.16  HD
ATOM     50  C   ILE E1021     -50.303  31.683   4.986  1.00 57.51 LIG 0.26  C 
ATOM     51 O    ILE E1021     -49.860  31.785   3.835  1.00 59.03 LIG-0.27  OA
BRANCH 50 52
ATOM     52  CA  ILE E1021     -50.980  32.901   5.638  1.00 57.59 LIG 0.40  C 
ATOM     53  N   ILE E1021     -52.324  32.518   6.061  1.00 58.96 LIG 0.61  N 
BRANCH 52 54
ATOM     54  CB  ILE E1021     -50.227  33.401   6.903  1.00 60.58 LIG 0.03  C 
ATOM     55  CG2 ILE E1021     -48.728  33.570   6.672  1.00 61.37 LIG 0.01  C 
BRANCH 54 56
ATOM     56  CG1 ILE E1021     -50.854  34.717   7.425  1.00 60.59 LIG 0.00  C 
ATOM     57  CD1 ILE E1021     -49.956  35.453   8.348  1.00 60.15 LIG 0.01  C 
ENDBRANCH 54 56
ENDBRANCH 52 54
ENDBRANCH 50 52
ENDBRANCH 47 48
BRANCH 47 58
ATOM     58  CB  ARG E1022     -49.543  28.192   6.185  1.00 44.33 LIG 0.04  C 
BRANCH 58 59
ATOM     59  CG  ARG E1022     -49.103  26.862   5.584  1.00 47.73 LIG 0.02  C 
BRANCH 59 60
ATOM     60  CD  ARG E1022     -50.036  25.718   5.925  1.00 47.87 LIG 0.14  C 
BRANCH 60 61
ATOM     61  NE  ARG E1022     -49.975  24.678   4.900  1.00 55.98 LIG-0.23  N 
ATOM     62  CZ  ARG E1022     -48.955  23.854   4.675  1.00 56.00 LIG 0.67  C 
ATOM     63  NH1 ARG E1022     -47.864  23.907   5.432  1.00 48.69 LIG-0.23  N 
ATOM     64  NH2 ARG E1022     -49.029  22.947   3.713  1.00 32.20 LIG-0.23  N 
ATOM     65 1HH1 ARG E1022     -47.813  24.478   6.074  1.00 48.69 LIG 0.17  HD
ATOM     66 2HH1 ARG E1022     -47.209  23.371   5.280  1.00 48.69 LIG 0.17  HD
ATOM     67 2HH2 ARG E1022     -48.368  22.416   3.571  1.00 32.20 LIG 0.17  HD
ATOM     68 1HH2 ARG E1022     -49.739  22.889   3.231  1.00 32.20 LIG 0.17  HD
ATOM     69 HE   ARG E1022     -50.664  24.590   4.393  1.00 55.98 LIG 0.18  HD
ENDBRANCH 60 61
ENDBRANCH 59 60
ENDBRANCH 58 59
ENDBRANCH 47 58
ENDBRANCH 44 47
ENDBRANCH 42 43
BRANCH 42 70
ATOM     70  CB  ILE E1023     -49.842  28.686   0.482  1.00 38.78 LIG 0.01  C 
ATOM     71  CG2 ILE E1023     -50.189  30.118   0.914  1.00 39.01 LIG 0.01  C 
BRANCH 70 72
ATOM     72  CG1 ILE E1023     -48.446  28.624  -0.206  1.00 39.61 LIG 0.00  C 
ATOM     73  CD1 ILE E1023     -47.283  29.247   0.525  1.00 43.21 LIG 0.01  C 
ENDBRANCH 70 72
ENDBRANCH 42 70
ENDBRANCH 1 42
TORSDOF 26
ENDMDL
MODEL 103
USER: ADFR SOLUTION from run 104
USER: SCORE 21.321609 LL:  -5.441 LR: -17.246 RR:   0.000 FEB:  -9.490
USER: RMSD 12.938586
USER: SEED 103
USER: STATUS no improvement in best in 14 clusters for 5 generations
USER: GENES 28
USER: genes 0 Translation |==|  0.38405 0.56584 0.67371
USER: genes 1 Rotation |==|  0.05331 0.69971 0.49359 0.60269
USER: genes 2 Torsion [N]-CA--C-[O] |==|  0.30104
USER: genes 3 Torsion [C]-N--CA-[CB] |==|  0.54509
USER: genes 4 Torsion [N]-CA--C-[N] |==|  0.34465
USER: genes 5 Torsion [C]-N--CA-[C] |==|  0.74501
USER: genes 6 Torsion [N]-CA--CB-[CG] |==|  0.67063
USER: genes 7 Torsion [CA]-CB--CG-[CD1] |==|  0.05859
USER: genes 8 Torsion [N]-CA--C-[N] |==|  0.34622
USER: genes 9 Torsion [C]-N--CA-[C] |==|  0.65777
USER: genes 10 Torsion [N]-CA--CB-[CG] |==|  0.68902
USER: genes 11 Torsion [CA]-CB--CG-[OD1] |==|  0.18208
USER: genes 12 Torsion [N]-CA--C-[O] |==|  0.13731
USER: genes 13 Torsion [N]-CA--CB-[CG2] |==|  0.42291
USER: genes 14 Torsion [CA]-CB--CG1-[CD1] |==|  0.04464
USER: genes 15 Torsion [N]-C--CA-[N] |==|  0.17833
USER: genes 16 Torsion [C]-CA--N-[C] |==|  0.69339
USER: genes 17 Torsion [N]-C--CA-[N] |==|  0.23711
USER: genes 18 Torsion [C]-CA--N-[C] |==|  0.76667
USER: genes 19 Torsion [N]-C--CA-[N] |==|  0.46838
USER: genes 20 Torsion [C]-CA--CB-[CG1] |==|  0.74708
USER: genes 21 Torsion [CA]-CB--CG1-[CD1] |==|  0.56569
USER: genes 22 Torsion [C]-CA--CB-[CG] |==|  0.24473
USER: genes 23 Torsion [CA]-CB--CG-[CD] |==|  0.64344
USER: genes 24 Torsion [CB]-CG--CD-[NE] |==|  0.44788
USER: genes 25 Torsion [CG]-CD--NE-[CZ] |==|  0.33569
USER: genes 26 Torsion [C]-CA--CB-[CG1] |==|  0.62013
USER: genes 27 Torsion [CA]-CB--CG1-[CD1] |==|  0.64776
ROOT
ATOM      1  C   ILE E1023     -50.095  26.561   5.409  1.00 40.02 LIG 0.24  C 
ATOM      2 O    ILE E1023     -50.972  25.718   5.168  1.00 38.38 LIG-0.27  OA
ATOM      3  N   PRO E1024     -50.159  27.842   4.966  1.00 37.38 LIG-0.34  N 
ATOM      4  CA  PRO E1024     -51.236  28.234   4.046  1.00 36.67 LIG 0.18  C 
ATOM      5  CB  PRO E1024     -51.193  29.760   4.077  1.00 38.74 LIG 0.04  C 
ATOM      6  CG  PRO E1024     -49.785  30.094   4.394  1.00 43.33 LIG 0.02  C 
ATOM      7  CD  PRO E1024     -49.198  28.950   5.170  1.00 39.42 LIG 0.13  C 
ENDROOT
BRANCH 4 8
ATOM      8  C   PRO E1024     -50.926  27.683   2.660  1.00 39.60 LIG 0.24  C 
ATOM      9 O    PRO E1024     -51.596  26.748   2.224  1.00 37.18 LIG-0.27  OA
ATOM     10  N   ILE E1025     -49.939  28.290   1.969  1.00 37.20 LIG-0.35  N 
ATOM     11 H    ILE E1025     -49.498  28.948   2.302  1.00 37.20 LIG 0.16  HD
BRANCH 10 12
ATOM     12  CA  ILE E1025     -49.484  27.950   0.614  1.00 37.42 LIG 0.18  C 
BRANCH 12 13
ATOM     13  C   ILE E1025     -49.246  26.447   0.484  1.00 40.88 LIG 0.24  C 
ATOM     14 O    ILE E1025     -48.330  25.931   1.126  1.00 40.29 LIG-0.27  OA
ATOM     15  N   PHE E1026     -49.903  25.788  -0.490  1.00 36.23 LIG-0.35  N 
ATOM     16 H    PHE E1026     -50.555  26.118  -0.944  1.00 36.23 LIG 0.16  HD
BRANCH 15 17
ATOM     17  CA  PHE E1026     -49.537  24.412  -0.853  1.00 36.58 LIG 0.18  C 
BRANCH 17 18
ATOM     18  CB  PHE E1026     -50.758  23.591  -1.253  1.00 38.58 LIG 0.07  C 
BRANCH 18 19
ATOM     19  CG  PHE E1026     -50.976  22.411  -0.352  1.00 40.24 LIG-0.06  A 
ATOM     20  CD1 PHE E1026     -50.431  22.382   0.913  1.00 42.20 LIG 0.01  A 
ATOM     21  CE1 PHE E1026     -50.623  21.287   1.739  1.00 42.54 LIG 0.00  A 
ATOM     22  CZ  PHE E1026     -51.362  20.218   1.305  1.00 41.81 LIG 0.00  A 
ATOM     23  CE2 PHE E1026     -51.907  20.222   0.049  1.00 44.36 LIG 0.00  A 
ATOM     24  CD2 PHE E1026     -51.712  21.313  -0.783  1.00 42.30 LIG 0.01  A 
ENDBRANCH 18 19
ENDBRANCH 17 18
BRANCH 17 25
ATOM     25  C   PHE E1026     -48.514  24.403  -1.974  1.00 38.60 LIG 0.24  C 
ATOM     26  N   ASN E1027     -47.365  23.726  -1.727  1.00 38.80 LIG-0.35  N 
ATOM     27 H    ASN E1027     -47.209  23.344  -0.972  1.00 38.80 LIG 0.16  HD
ATOM     28 O    PHE E1026     -48.781  24.936  -3.049  1.00 31.59 LIG-0.27  OA
BRANCH 26 29
ATOM     29  CA  ASN E1027     -46.268  23.563  -2.688  1.00 74.37 LIG 0.17  C 
BRANCH 29 30
ATOM     30  CB  ASN E1027     -45.008  24.256  -2.179  1.00 75.17 LIG 0.14  C 
BRANCH 30 31
ATOM     31  CG  ASN E1027     -44.620  25.461  -2.997  1.00 99.64 LIG 0.22  C 
ATOM     32  ND2 ASN E1027     -43.472  25.407  -3.668  1.00 92.55 LIG-0.37  N 
ATOM     33 22HD ASN E1027     -42.985  24.700  -3.629  1.00 92.55 LIG 0.16  HD
ATOM     34 21HD ASN E1027     -43.217  26.080  -4.139  1.00 92.55 LIG 0.16  HD
ATOM     35 OD1  ASN E1027     -45.340  26.461  -3.033  1.00 94.01 LIG-0.27  OA
ENDBRANCH 30 31
ENDBRANCH 29 30
BRANCH 29 36
ATOM     36  C   ASN E1027     -45.977  22.080  -2.910  1.00103.37 LIG 0.22  C 
ATOM     37 O    ASN E1027     -46.891  21.299  -3.160  1.00 69.20 LIG-0.29  OA
ENDBRANCH 29 36
ENDBRANCH 26 29
ENDBRANCH 17 25
ENDBRANCH 15 17
ENDBRANCH 12 13
BRANCH 12 38
ATOM     38  CB  ILE E1025     -48.061  28.624   0.380  1.00 40.50 LIG 0.01  C 
ATOM     39  CG2 ILE E1025     -47.217  27.836  -0.631  1.00 43.95 LIG 0.01  C 
BRANCH 38 40
ATOM     40  CG1 ILE E1025     -48.151  30.098  -0.017  1.00 41.58 LIG 0.00  C 
ATOM     41  CD1 ILE E1025     -49.610  30.744   0.289  1.00 52.05 LIG 0.01  C 
ENDBRANCH 38 40
ENDBRANCH 12 38
ENDBRANCH 10 12
ENDBRANCH 4 8
BRANCH 1 42
ATOM     42  CA  ILE E1023     -48.948  26.168   6.323  1.00 36.06 LIG 0.18  C 
BRANCH 42 43
ATOM     43  N   ILE E1023     -49.110  26.948   7.565  1.00 37.96 LIG-0.35  N 
ATOM     44  C   ARG E1022     -48.272  27.945   7.920  1.00 45.42 LIG 0.24  C 
ATOM     45 O    ARG E1022     -47.262  28.234   7.279  1.00 45.23 LIG-0.27  OA
ATOM     46 H    ILE E1023     -49.786  26.709   8.040  1.00 37.96 LIG 0.16  HD
BRANCH 44 47
ATOM     47  CA  ARG E1022     -48.551  28.702   9.219  1.00 45.59 LIG 0.18  C 
BRANCH 47 48
ATOM     48  N   ARG E1022     -47.982  28.044  10.407  1.00 48.30 LIG-0.35  N 
ATOM     49 H    ARG E1022     -47.214  28.348  10.648  1.00 48.30 LIG 0.16  HD
ATOM     50  C   ILE E1021     -48.634  27.048  11.047  1.00 57.51 LIG 0.26  C 
ATOM     51 O    ILE E1021     -49.740  26.631  10.683  1.00 59.03 LIG-0.27  OA
BRANCH 50 52
ATOM     52  CA  ILE E1021     -47.968  26.425  12.285  1.00 57.59 LIG 0.40  C 
ATOM     53  N   ILE E1021     -48.945  25.580  12.965  1.00 58.96 LIG 0.61  N 
BRANCH 52 54
ATOM     54  CB  ILE E1021     -46.754  25.524  11.926  1.00 60.58 LIG 0.03  C 
ATOM     55  CG2 ILE E1021     -45.630  25.607  12.954  1.00 61.37 LIG 0.01  C 
BRANCH 54 56
ATOM     56  CG1 ILE E1021     -47.205  24.057  11.722  1.00 60.59 LIG 0.00  C 
ATOM     57  CD1 ILE E1021     -46.105  23.084  11.932  1.00 60.15 LIG 0.01  C 
ENDBRANCH 54 56
ENDBRANCH 52 54
ENDBRANCH 50 52
ENDBRANCH 47 48
BRANCH 47 58
ATOM     58  CB  ARG E1022     -48.044  30.142   9.064  1.00 44.33 LIG 0.04  C 
BRANCH 58 59
ATOM     59  CG  ARG E1022     -49.083  31.082   8.466  1.00 47.73 LIG 0.02  C 
BRANCH 59 60
ATOM     60  CD  ARG E1022     -48.562  31.867   7.280  1.00 47.87 LIG 0.14  C 
BRANCH 60 61
ATOM     61  NE  ARG E1022     -49.669  32.397   6.485  1.00 55.98 LIG-0.23  N 
ATOM     62  CZ  ARG E1022     -49.903  33.679   6.219  1.00 56.00 LIG 0.67  C 
ATOM     63  NH1 ARG E1022     -49.080  34.623   6.664  1.00 48.69 LIG-0.23  N 
ATOM     64  NH2 ARG E1022     -50.943  34.027   5.476  1.00 32.20 LIG-0.23  N 
ATOM     65 1HH1 ARG E1022     -48.389  34.407   7.129  1.00 48.69 LIG 0.17  HD
ATOM     66 2HH1 ARG E1022     -49.238  35.449   6.488  1.00 48.69 LIG 0.17  HD
ATOM     67 2HH2 ARG E1022     -51.091  34.857   5.306  1.00 32.20 LIG 0.17  HD
ATOM     68 1HH2 ARG E1022     -51.470  33.423   5.164  1.00 32.20 LIG 0.17  HD
ATOM     69 HE   ARG E1022     -50.222  31.825   6.158  1.00 55.98 LIG 0.18  HD
ENDBRANCH 60 61
ENDBRANCH 59 60
ENDBRANCH 58 59
ENDBRANCH 47 58
ENDBRANCH 44 47
ENDBRANCH 42 43
BRANCH 42 70
ATOM     70  CB  ILE E1023     -48.980  24.622   6.561  1.00 38.78 LIG 0.01  C 
ATOM     71  CG2 ILE E1023     -48.003  23.908   5.616  1.00 39.01 LIG 0.01  C 
BRANCH 70 72
ATOM     72  CG1 ILE E1023     -48.728  24.219   8.045  1.00 39.61 LIG 0.00  C 
ATOM     73  CD1 ILE E1023     -47.636  23.214   8.316  1.00 43.21 LIG 0.01  C 
ENDBRANCH 70 72
ENDBRANCH 42 70
ENDBRANCH 1 42
TORSDOF 26
ENDMDL
MODEL 104
USER: ADFR SOLUTION from run 30
USER: SCORE 21.662370 LL:  -6.409 LR: -17.253 RR:   0.000 FEB:  -9.497
USER: RMSD 12.555214
USER: SEED 29
USER: STATUS no improvement in best in 7 clusters for 5 generations
USER: GENES 28
USER: genes 0 Translation |==|  0.44673 0.56767 0.49224
USER: genes 1 Rotation |==|  0.91791 0.67126 0.63979 0.66274
USER: genes 2 Torsion [N]-CA--C-[O] |==|  0.33363
USER: genes 3 Torsion [C]-N--CA-[CB] |==|  0.18089
USER: genes 4 Torsion [N]-CA--C-[N] |==|  0.89929
USER: genes 5 Torsion [C]-N--CA-[C] |==|  0.61242
USER: genes 6 Torsion [N]-CA--CB-[CG] |==|  0.04005
USER: genes 7 Torsion [CA]-CB--CG-[CD1] |==|  0.22589
USER: genes 8 Torsion [N]-CA--C-[N] |==|  0.41468
USER: genes 9 Torsion [C]-N--CA-[C] |==|  0.12520
USER: genes 10 Torsion [N]-CA--CB-[CG] |==|  0.48944
USER: genes 11 Torsion [CA]-CB--CG-[OD1] |==|  0.67274
USER: genes 12 Torsion [N]-CA--C-[O] |==|  0.32879
USER: genes 13 Torsion [N]-CA--CB-[CG2] |==|  0.75951
USER: genes 14 Torsion [CA]-CB--CG1-[CD1] |==|  0.58915
USER: genes 15 Torsion [N]-C--CA-[N] |==|  0.32187
USER: genes 16 Torsion [C]-CA--N-[C] |==|  0.20964
USER: genes 17 Torsion [N]-C--CA-[N] |==|  0.38435
USER: genes 18 Torsion [C]-CA--N-[C] |==|  0.82992
USER: genes 19 Torsion [N]-C--CA-[N] |==|  0.39248
USER: genes 20 Torsion [C]-CA--CB-[CG1] |==|  0.01316
USER: genes 21 Torsion [CA]-CB--CG1-[CD1] |==|  0.72506
USER: genes 22 Torsion [C]-CA--CB-[CG] |==|  0.99423
USER: genes 23 Torsion [CA]-CB--CG-[CD] |==|  0.63087
USER: genes 24 Torsion [CB]-CG--CD-[NE] |==|  0.83423
USER: genes 25 Torsion [CG]-CD--NE-[CZ] |==|  0.57283
USER: genes 26 Torsion [C]-CA--CB-[CG1] |==|  0.50872
USER: genes 27 Torsion [CA]-CB--CG1-[CD1] |==|  0.94019
ROOT
ATOM      1  C   ILE E1023     -49.155  26.603   0.237  1.00 40.02 LIG 0.24  C 
ATOM      2 O    ILE E1023     -48.823  26.049   1.295  1.00 38.38 LIG-0.27  OA
ATOM      3  N   PRO E1024     -49.333  25.928  -0.927  1.00 37.38 LIG-0.34  N 
ATOM      4  CA  PRO E1024     -48.991  24.500  -0.992  1.00 36.67 LIG 0.18  C 
ATOM      5  CB  PRO E1024     -49.654  24.034  -2.285  1.00 38.74 LIG 0.04  C 
ATOM      6  CG  PRO E1024     -49.695  25.238  -3.148  1.00 43.33 LIG 0.02  C 
ATOM      7  CD  PRO E1024     -49.723  26.448  -2.258  1.00 39.42 LIG 0.13  C 
ENDROOT
BRANCH 4 8
ATOM      8  C   PRO E1024     -47.475  24.358  -1.045  1.00 39.60 LIG 0.24  C 
ATOM      9 O    PRO E1024     -46.902  23.730  -0.156  1.00 37.18 LIG-0.27  OA
ATOM     10  N   ILE E1025     -46.847  24.910  -2.103  1.00 37.20 LIG-0.35  N 
ATOM     11 H    ILE E1025     -47.282  25.334  -2.712  1.00 37.20 LIG 0.16  HD
BRANCH 10 12
ATOM     12  CA  ILE E1025     -45.404  24.880  -2.378  1.00 37.42 LIG 0.18  C 
BRANCH 12 13
ATOM     13  C   ILE E1025     -45.083  25.622  -3.672  1.00 40.88 LIG 0.24  C 
ATOM     14 O    ILE E1025     -44.152  26.430  -3.681  1.00 40.29 LIG-0.27  OA
ATOM     15  N   PHE E1026     -45.965  25.529  -4.687  1.00 36.23 LIG-0.35  N 
ATOM     16 H    PHE E1026     -46.615  24.967  -4.714  1.00 36.23 LIG 0.16  HD
BRANCH 15 17
ATOM     17  CA  PHE E1026     -45.870  26.414  -5.856  1.00 36.58 LIG 0.18  C 
BRANCH 17 18
ATOM     18  CB  PHE E1026     -45.146  25.739  -7.016  1.00 38.58 LIG 0.07  C 
BRANCH 18 19
ATOM     19  CG  PHE E1026     -45.015  24.256  -6.825  1.00 40.24 LIG-0.06  A 
ATOM     20  CD1 PHE E1026     -46.063  23.413  -7.125  1.00 42.20 LIG 0.01  A 
ATOM     21  CE1 PHE E1026     -45.944  22.047  -6.938  1.00 42.54 LIG 0.00  A 
ATOM     22  CZ  PHE E1026     -44.778  21.517  -6.451  1.00 41.81 LIG 0.00  A 
ATOM     23  CE2 PHE E1026     -43.726  22.336  -6.140  1.00 44.36 LIG 0.00  A 
ATOM     24  CD2 PHE E1026     -43.843  23.705  -6.321  1.00 42.30 LIG 0.01  A 
ENDBRANCH 18 19
ENDBRANCH 17 18
BRANCH 17 25
ATOM     25  C   PHE E1026     -47.247  26.874  -6.299  1.00 38.60 LIG 0.24  C 
ATOM     26  N   ASN E1027     -47.309  28.102  -6.871  1.00 38.80 LIG-0.35  N 
ATOM     27 H    ASN E1027     -46.617  28.605  -6.958  1.00 38.80 LIG 0.16  HD
ATOM     28 O    PHE E1026     -48.210  26.118  -6.185  1.00 31.59 LIG-0.27  OA
BRANCH 26 29
ATOM     29  CA  ASN E1027     -48.533  28.715  -7.402  1.00 74.37 LIG 0.17  C 
BRANCH 29 30
ATOM     30  CB  ASN E1027     -48.902  28.087  -8.742  1.00 75.17 LIG 0.14  C 
BRANCH 30 31
ATOM     31  CG  ASN E1027     -50.202  28.607  -9.304  1.00 99.64 LIG 0.22  C 
ATOM     32  ND2 ASN E1027     -50.278  29.905  -9.582  1.00 92.55 LIG-0.37  N 
ATOM     33 22HD ASN E1027     -49.598  30.414  -9.447  1.00 92.55 LIG 0.16  HD
ATOM     34 21HD ASN E1027     -51.006  30.236  -9.897  1.00 92.55 LIG 0.16  HD
ATOM     35 OD1  ASN E1027     -51.159  27.852  -9.487  1.00 94.01 LIG-0.27  OA
ENDBRANCH 30 31
ENDBRANCH 29 30
BRANCH 29 36
ATOM     36  C   ASN E1027     -49.686  28.526  -6.419  1.00103.37 LIG 0.22  C 
ATOM     37 O    ASN E1027     -50.240  29.500  -5.917  1.00 69.20 LIG-0.29  OA
ENDBRANCH 29 36
ENDBRANCH 26 29
ENDBRANCH 17 25
ENDBRANCH 15 17
ENDBRANCH 12 13
BRANCH 12 38
ATOM     38  CB  ILE E1025     -44.976  23.369  -2.640  1.00 40.50 LIG 0.01  C 
ATOM     39  CG2 ILE E1025     -44.644  22.637  -1.333  1.00 43.95 LIG 0.01  C 
BRANCH 38 40
ATOM     40  CG1 ILE E1025     -46.003  22.585  -3.457  1.00 41.58 LIG 0.00  C 
ATOM     41  CD1 ILE E1025     -46.054  21.010  -3.057  1.00 52.05 LIG 0.01  C 
ENDBRANCH 38 40
ENDBRANCH 12 38
ENDBRANCH 10 12
ENDBRANCH 4 8
BRANCH 1 42
ATOM     42  CA  ILE E1023     -49.473  28.088   0.268  1.00 36.06 LIG 0.18  C 
BRANCH 42 43
ATOM     43  N   ILE E1023     -50.598  28.260   1.208  1.00 37.96 LIG-0.35  N 
ATOM     44  C   ARG E1022     -50.449  28.201   2.549  1.00 45.42 LIG 0.24  C 
ATOM     45 O    ARG E1022     -49.381  27.922   3.095  1.00 45.23 LIG-0.27  OA
ATOM     46 H    ILE E1023     -51.353  28.402   0.823  1.00 37.96 LIG 0.16  HD
BRANCH 44 47
ATOM     47  CA  ARG E1022     -51.681  28.418   3.428  1.00 45.59 LIG 0.18  C 
BRANCH 47 48
ATOM     48  N   ARG E1022     -51.750  27.489   4.568  1.00 48.30 LIG-0.35  N 
ATOM     49 H    ARG E1022     -51.737  27.871   5.339  1.00 48.30 LIG 0.16  HD
ATOM     50  C   ILE E1021     -51.828  26.152   4.390  1.00 57.51 LIG 0.26  C 
ATOM     51 O    ILE E1021     -51.850  25.626   3.270  1.00 59.03 LIG-0.27  OA
BRANCH 50 52
ATOM     52  CA  ILE E1021     -51.906  25.258   5.639  1.00 57.59 LIG 0.40  C 
ATOM     53  N   ILE E1021     -52.835  24.163   5.373  1.00 58.96 LIG 0.61  N 
BRANCH 52 54
ATOM     54  CB  ILE E1021     -50.538  24.619   6.008  1.00 60.58 LIG 0.03  C 
ATOM     55  CG2 ILE E1021     -50.573  23.094   5.994  1.00 61.37 LIG 0.01  C 
BRANCH 54 56
ATOM     56  CG1 ILE E1021     -49.420  25.151   5.078  1.00 60.59 LIG 0.00  C 
ATOM     57  CD1 ILE E1021     -49.101  24.217   3.971  1.00 60.15 LIG 0.01  C 
ENDBRANCH 54 56
ENDBRANCH 52 54
ENDBRANCH 50 52
ENDBRANCH 47 48
BRANCH 47 58
ATOM     58  CB  ARG E1022     -51.706  29.883   3.881  1.00 44.33 LIG 0.04  C 
BRANCH 58 59
ATOM     59  CG  ARG E1022     -50.506  30.683   3.388  1.00 47.73 LIG 0.02  C 
BRANCH 59 60
ATOM     60  CD  ARG E1022     -49.859  31.516   4.476  1.00 47.87 LIG 0.14  C 
BRANCH 60 61
ATOM     61  NE  ARG E1022     -50.816  32.470   5.034  1.00 55.98 LIG-0.23  N 
ATOM     62  CZ  ARG E1022     -50.523  33.632   5.611  1.00 56.00 LIG 0.67  C 
ATOM     63  NH1 ARG E1022     -49.262  34.042   5.703  1.00 48.69 LIG-0.23  N 
ATOM     64  NH2 ARG E1022     -51.490  34.411   6.072  1.00 32.20 LIG-0.23  N 
ATOM     65 1HH1 ARG E1022     -48.628  33.554   5.388  1.00 48.69 LIG 0.17  HD
ATOM     66 2HH1 ARG E1022     -49.081  34.794   6.077  1.00 48.69 LIG 0.17  HD
ATOM     67 2HH2 ARG E1022     -51.296  35.161   6.445  1.00 32.20 LIG 0.17  HD
ATOM     68 1HH2 ARG E1022     -52.311  34.166   5.999  1.00 32.20 LIG 0.17  HD
ATOM     69 HE   ARG E1022     -51.649  32.260   4.984  1.00 55.98 LIG 0.18  HD
ENDBRANCH 60 61
ENDBRANCH 59 60
ENDBRANCH 58 59
ENDBRANCH 47 58
ENDBRANCH 44 47
ENDBRANCH 42 43
BRANCH 42 70
ATOM     70  CB  ILE E1023     -48.194  28.885   0.689  1.00 38.78 LIG 0.01  C 
ATOM     71  CG2 ILE E1023     -47.031  28.588  -0.270  1.00 39.01 LIG 0.01  C 
BRANCH 70 72
ATOM     72  CG1 ILE E1023     -48.438  30.417   0.826  1.00 39.61 LIG 0.00  C 
ATOM     73  CD1 ILE E1023     -49.623  31.000   0.097  1.00 43.21 LIG 0.01  C 
ENDBRANCH 70 72
ENDBRANCH 42 70
ENDBRANCH 1 42
TORSDOF 26
ENDMDL
