MODEL 1
USER: ADFR SOLUTION from run 179
USER: SCORE 13.558186 LL:  -1.916 LR: -13.257 RR:   0.000 FEB:  -9.976
USER: RMSD 3.844501
USER: SEED 178
USER: STATUS no improvement in best in 9 clusters for 5 generations
USER: GENES 13
USER: genes 0 Translation |==|  0.50552 0.37644 0.54678
USER: genes 1 Rotation |==|  0.65092 0.69187 0.07024 0.57562
USER: genes 2 Torsion [C]-N--CA-[CB] |==|  0.17347
USER: genes 3 Torsion [N]-CA--C-[N] |==|  0.53440
USER: genes 4 Torsion [C]-N--CA-[CB] |==|  0.80931
USER: genes 5 Torsion [N]-CA--C-[N] |==|  0.23134
USER: genes 6 Torsion [C]-N--CA-[CB] |==|  0.37288
USER: genes 7 Torsion [N]-CA--C-[O] |==|  0.76537
USER: genes 8 Torsion [N]-C--CA-[N] |==|  0.41783
USER: genes 9 Torsion [C]-CA--N-[C] |==|  0.64773
USER: genes 10 Torsion [N]-C--CA-[N] |==|  0.43599
USER: genes 11 Torsion [C]-CA--N-[C] |==|  0.58072
USER: genes 12 Torsion [N]-C--CA-[N] |==|  0.47416
ROOT
ATOM      1  C   ALA Q  12      70.679  62.014  29.368  1.00 25.44 LIG 0.24  C 
ATOM      2 O    ALA Q  12      70.223  61.080  28.724  1.00 27.01 LIG-0.27  OA
ATOM      3  N   ALA Q  13      71.020  61.934  30.649  1.00 26.02 LIG-0.35  N 
ATOM      4 H    ALA Q  13      71.436  62.548  31.085  1.00 26.02 LIG 0.16  HD
ENDROOT
BRANCH 3 5
ATOM      5  CA  ALA Q  13      70.685  60.730  31.431  1.00 27.66 LIG 0.17  C 
ATOM      6  CB  ALA Q  13      71.403  59.522  30.830  1.00 60.60 LIG 0.04  C 
BRANCH 5 7
ATOM      7  C   ALA Q  13      71.015  60.843  32.909  1.00 27.27 LIG 0.24  C 
ATOM      8 O    ALA Q  13      71.351  61.915  33.403  1.00 28.73 LIG-0.27  OA
ATOM      9  N   ALA Q  14      70.968  59.683  33.598  1.00 28.35 LIG-0.35  N 
ATOM     10 H    ALA Q  14      70.662  58.951  33.266  1.00 28.35 LIG 0.16  HD
BRANCH 9 11
ATOM     11  CA  ALA Q  14      71.429  59.553  34.971  1.00 39.95 LIG 0.17  C 
ATOM     12  CB  ALA Q  14      72.966  59.703  35.028  1.00 41.42 LIG 0.04  C 
BRANCH 11 13
ATOM     13  C   ALA Q  14      70.757  60.673  35.789  1.00 39.71 LIG 0.24  C 
ATOM     14  N   ALA Q  15      69.529  60.469  36.242  1.00 43.67 LIG-0.35  N 
ATOM     15 H    ALA Q  15      69.088  61.054  36.693  1.00 43.67 LIG 0.16  HD
ATOM     16 O    ALA Q  14      71.335  61.725  35.980  1.00 40.63 LIG-0.27  OA
BRANCH 14 17
ATOM     17  CA  ALA Q  15      68.807  59.240  36.022  1.00 45.40 LIG 0.16  C 
ATOM     18  CB  ALA Q  15      68.166  58.795  37.299  1.00 35.52 LIG 0.04  C 
BRANCH 17 19
ATOM     19  C   ALA Q  15      67.763  59.420  34.914  1.00 34.39 LIG 0.22  C 
ATOM     20 O    ALA Q  15      66.644  59.883  35.163  1.00 56.10 LIG-0.29  OA
ENDBRANCH 17 19
ENDBRANCH 14 17
ENDBRANCH 11 13
ENDBRANCH 9 11
ENDBRANCH 5 7
ENDBRANCH 3 5
BRANCH 1 21
ATOM     21  CA  ALA Q  12      70.961  63.337  28.689  1.00 23.65 LIG 0.17  C 
ATOM     22  CB  ALA Q  12      69.787  64.274  28.805  1.00 43.19 LIG 0.04  C 
BRANCH 21 23
ATOM     23  N   ALA Q  12      71.202  63.015  27.303  1.00 32.95 LIG-0.35  N 
ATOM     24  C   ALA Q  11      72.311  63.437  26.717  1.00 38.70 LIG 0.24  C 
ATOM     25 O    ALA Q  11      73.134  64.136  27.295  1.00 30.98 LIG-0.27  OA
ATOM     26 H    ALA Q  12      70.588  62.548  26.921  1.00 32.95 LIG 0.16  HD
BRANCH 24 27
ATOM     27  CA  ALA Q  11      72.500  63.033  25.262  1.00 33.56 LIG 0.17  C 
ATOM     28  CB  ALA Q  11      73.007  61.608  25.210  1.00 29.51 LIG 0.04  C 
BRANCH 27 29
ATOM     29  N   ALA Q  11      73.413  63.944  24.554  1.00 33.00 LIG-0.35  N 
ATOM     30  C   ALA Q  10      73.306  64.165  23.241  1.00 40.76 LIG 0.26  C 
ATOM     31 O    ALA Q  10      72.493  63.586  22.523  1.00 37.65 LIG-0.27  OA
ATOM     32 H    ALA Q  11      74.008  64.312  25.056  1.00 33.00 LIG 0.16  HD
BRANCH 30 33
ATOM     33  CA  ALA Q  10      74.256  65.185  22.631  1.00 39.75 LIG 0.40  C 
ATOM     34  CB  ALA Q  10      73.941  66.570  23.171  1.00 33.57 LIG 0.06  C 
ATOM     35  N   ALA Q  10      74.187  65.173  21.177  1.00 55.55 LIG 0.61  N 
ENDBRANCH 30 33
ENDBRANCH 27 29
ENDBRANCH 24 27
ENDBRANCH 21 23
ENDBRANCH 1 21
TORSDOF 11
ENDMDL
MODEL 2
USER: ADFR SOLUTION from run 55
USER: SCORE 13.361013 LL:  -2.068 LR: -13.068 RR:   0.000 FEB:  -9.787
USER: RMSD 4.836950
USER: SEED 54
USER: STATUS no improvement in best in 8 clusters for 5 generations
USER: GENES 13
USER: genes 0 Translation |==|  0.49761 0.38307 0.54575
USER: genes 1 Rotation |==|  0.64801 0.68550 0.07301 0.60661
USER: genes 2 Torsion [C]-N--CA-[CB] |==|  0.14876
USER: genes 3 Torsion [N]-CA--C-[N] |==|  0.62840
USER: genes 4 Torsion [C]-N--CA-[CB] |==|  0.19964
USER: genes 5 Torsion [N]-CA--C-[N] |==|  0.17611
USER: genes 6 Torsion [C]-N--CA-[CB] |==|  0.30157
USER: genes 7 Torsion [N]-CA--C-[O] |==|  0.12838
USER: genes 8 Torsion [N]-C--CA-[N] |==|  0.41640
USER: genes 9 Torsion [C]-CA--N-[C] |==|  0.65268
USER: genes 10 Torsion [N]-C--CA-[N] |==|  0.42532
USER: genes 11 Torsion [C]-CA--N-[C] |==|  0.58704
USER: genes 12 Torsion [N]-C--CA-[N] |==|  0.45298
ROOT
ATOM      1  C   ALA Q  12      70.549  62.143  29.348  1.00 25.44 LIG 0.24  C 
ATOM      2 O    ALA Q  12      70.222  61.132  28.741  1.00 27.01 LIG-0.27  OA
ATOM      3  N   ALA Q  13      70.834  62.169  30.644  1.00 26.02 LIG-0.35  N 
ATOM      4 H    ALA Q  13      71.163  62.847  31.059  1.00 26.02 LIG 0.16  HD
ENDROOT
BRANCH 3 5
ATOM      5  CA  ALA Q  13      70.589  60.981  31.481  1.00 27.66 LIG 0.17  C 
ATOM      6  CB  ALA Q  13      71.281  59.770  30.855  1.00 60.60 LIG 0.04  C 
BRANCH 5 7
ATOM      7  C   ALA Q  13      71.035  61.140  32.924  1.00 27.27 LIG 0.24  C 
ATOM      8 O    ALA Q  13      70.807  62.173  33.547  1.00 28.73 LIG-0.27  OA
ATOM      9  N   ALA Q  14      71.737  60.102  33.426  1.00 28.35 LIG-0.35  N 
ATOM     10 H    ALA Q  14      71.830  59.354  33.012  1.00 28.35 LIG 0.16  HD
BRANCH 9 11
ATOM     11  CA  ALA Q  14      72.406  60.143  34.716  1.00 39.95 LIG 0.17  C 
ATOM     12  CB  ALA Q  14      71.362  60.103  35.854  1.00 41.42 LIG 0.04  C 
BRANCH 11 13
ATOM     13  C   ALA Q  14      73.324  58.908  34.795  1.00 39.71 LIG 0.24  C 
ATOM     14  N   ALA Q  15      74.322  58.810  33.929  1.00 43.67 LIG-0.35  N 
ATOM     15 H    ALA Q  15      74.864  58.143  33.906  1.00 43.67 LIG 0.16  HD
ATOM     16 O    ALA Q  14      73.110  58.036  35.615  1.00 40.63 LIG-0.27  OA
BRANCH 14 17
ATOM     17  CA  ALA Q  15      74.597  59.818  32.934  1.00 45.40 LIG 0.16  C 
ATOM     18  CB  ALA Q  15      75.847  60.556  33.296  1.00 35.52 LIG 0.04  C 
BRANCH 17 19
ATOM     19  C   ALA Q  15      74.713  59.183  31.544  1.00 34.39 LIG 0.22  C 
ATOM     20 O    ALA Q  15      73.882  58.358  31.150  1.00 56.10 LIG-0.29  OA
ENDBRANCH 17 19
ENDBRANCH 14 17
ENDBRANCH 11 13
ENDBRANCH 9 11
ENDBRANCH 5 7
ENDBRANCH 3 5
BRANCH 1 21
ATOM     21  CA  ALA Q  12      70.724  63.450  28.603  1.00 23.65 LIG 0.17  C 
ATOM     22  CB  ALA Q  12      69.451  64.257  28.604  1.00 43.19 LIG 0.04  C 
BRANCH 21 23
ATOM     23  N   ALA Q  12      71.075  63.080  27.253  1.00 32.95 LIG-0.35  N 
ATOM     24  C   ALA Q  11      72.182  63.562  26.710  1.00 38.70 LIG 0.24  C 
ATOM     25 O    ALA Q  11      72.911  64.352  27.296  1.00 30.98 LIG-0.27  OA
ATOM     26 H    ALA Q  12      70.524  62.547  26.862  1.00 32.95 LIG 0.16  HD
BRANCH 24 27
ATOM     27  CA  ALA Q  11      72.492  63.103  25.293  1.00 33.56 LIG 0.17  C 
ATOM     28  CB  ALA Q  11      73.197  61.765  25.352  1.00 29.51 LIG 0.04  C 
BRANCH 27 29
ATOM     29  N   ALA Q  11      73.298  64.092  24.560  1.00 33.00 LIG-0.35  N 
ATOM     30  C   ALA Q  10      73.188  64.247  23.239  1.00 40.76 LIG 0.26  C 
ATOM     31 O    ALA Q  10      72.465  63.545  22.534  1.00 37.65 LIG-0.27  OA
ATOM     32 H    ALA Q  11      73.834  64.550  25.055  1.00 33.00 LIG 0.16  HD
BRANCH 30 33
ATOM     33  CA  ALA Q  10      74.015  65.352  22.600  1.00 39.75 LIG 0.40  C 
ATOM     34  CB  ALA Q  10      73.409  66.706  22.928  1.00 33.57 LIG 0.06  C 
ATOM     35  N   ALA Q  10      74.122  65.173  21.160  1.00 55.55 LIG 0.61  N 
ENDBRANCH 30 33
ENDBRANCH 27 29
ENDBRANCH 24 27
ENDBRANCH 21 23
ENDBRANCH 1 21
TORSDOF 11
ENDMDL
MODEL 3
USER: ADFR SOLUTION from run 96
USER: SCORE 12.017621 LL:  -1.920 LR: -12.567 RR:   0.000 FEB:  -9.286
USER: RMSD 4.062566
USER: SEED 95
USER: STATUS no improvement in best in 5 clusters for 5 generations
USER: GENES 13
USER: genes 0 Translation |==|  0.47686 0.40769 0.51461
USER: genes 1 Rotation |==|  0.57981 0.65533 0.03741 0.57428
USER: genes 2 Torsion [C]-N--CA-[CB] |==|  0.84807
USER: genes 3 Torsion [N]-CA--C-[N] |==|  0.35621
USER: genes 4 Torsion [C]-N--CA-[CB] |==|  0.47290
USER: genes 5 Torsion [N]-CA--C-[N] |==|  0.84511
USER: genes 6 Torsion [C]-N--CA-[CB] |==|  0.33618
USER: genes 7 Torsion [N]-CA--C-[O] |==|  0.42099
USER: genes 8 Torsion [N]-C--CA-[N] |==|  0.31004
USER: genes 9 Torsion [C]-CA--N-[C] |==|  0.75779
USER: genes 10 Torsion [N]-C--CA-[N] |==|  0.31690
USER: genes 11 Torsion [C]-CA--N-[C] |==|  0.68353
USER: genes 12 Torsion [N]-C--CA-[N] |==|  0.37808
ROOT
ATOM      1  C   ALA Q  12      70.206  62.623  28.717  1.00 25.44 LIG 0.24  C 
ATOM      2 O    ALA Q  12      69.665  61.565  28.426  1.00 27.01 LIG-0.27  OA
ATOM      3  N   ALA Q  13      70.868  62.830  29.849  1.00 26.02 LIG-0.35  N 
ATOM      4 H    ALA Q  13      71.338  63.529  30.021  1.00 26.02 LIG 0.16  HD
ENDROOT
BRANCH 3 5
ATOM      5  CA  ALA Q  13      70.828  61.823  30.925  1.00 27.66 LIG 0.17  C 
ATOM      6  CB  ALA Q  13      69.373  61.522  31.283  1.00 60.60 LIG 0.04  C 
BRANCH 5 7
ATOM      7  C   ALA Q  13      71.553  60.532  30.588  1.00 27.27 LIG 0.24  C 
ATOM      8 O    ALA Q  13      71.278  59.897  29.574  1.00 28.73 LIG-0.27  OA
ATOM      9  N   ALA Q  14      72.455  60.124  31.505  1.00 28.35 LIG-0.35  N 
ATOM     10 H    ALA Q  14      72.696  60.607  32.175  1.00 28.35 LIG 0.16  HD
BRANCH 9 11
ATOM     11  CA  ALA Q  14      73.110  58.827  31.456  1.00 39.95 LIG 0.17  C 
ATOM     12  CB  ALA Q  14      74.251  58.772  32.498  1.00 41.42 LIG 0.04  C 
BRANCH 11 13
ATOM     13  C   ALA Q  14      72.045  57.762  31.780  1.00 39.71 LIG 0.24  C 
ATOM     14  N   ALA Q  15      71.372  57.872  32.917  1.00 43.67 LIG-0.35  N 
ATOM     15 H    ALA Q  15      70.774  57.308  33.168  1.00 43.67 LIG 0.16  HD
ATOM     16 O    ALA Q  14      71.856  56.832  31.021  1.00 40.63 LIG-0.27  OA
BRANCH 14 17
ATOM     17  CA  ALA Q  15      71.579  58.954  33.847  1.00 45.40 LIG 0.16  C 
ATOM     18  CB  ALA Q  15      70.298  59.701  34.047  1.00 35.52 LIG 0.04  C 
BRANCH 17 19
ATOM     19  C   ALA Q  15      72.121  58.422  35.179  1.00 34.39 LIG 0.22  C 
ATOM     20 O    ALA Q  15      72.838  59.125  35.900  1.00 56.10 LIG-0.29  OA
ENDBRANCH 17 19
ENDBRANCH 14 17
ENDBRANCH 11 13
ENDBRANCH 9 11
ENDBRANCH 5 7
ENDBRANCH 3 5
BRANCH 1 21
ATOM     21  CA  ALA Q  12      70.214  63.768  27.726  1.00 23.65 LIG 0.17  C 
ATOM     22  CB  ALA Q  12      68.818  64.103  27.265  1.00 43.19 LIG 0.04  C 
BRANCH 21 23
ATOM     23  N   ALA Q  12      71.005  63.307  26.611  1.00 32.95 LIG-0.35  N 
ATOM     24  C   ALA Q  11      72.319  63.472  26.629  1.00 38.70 LIG 0.24  C 
ATOM     25 O    ALA Q  11      72.896  64.046  27.544  1.00 30.98 LIG-0.27  OA
ATOM     26 H    ALA Q  12      70.562  62.936  25.973  1.00 32.95 LIG 0.16  HD
BRANCH 24 27
ATOM     27  CA  ALA Q  11      73.082  62.935  25.427  1.00 33.56 LIG 0.17  C 
ATOM     28  CB  ALA Q  11      74.120  61.944  25.907  1.00 29.51 LIG 0.04  C 
BRANCH 27 29
ATOM     29  N   ALA Q  11      73.705  64.016  24.646  1.00 33.00 LIG-0.35  N 
ATOM     30  C   ALA Q  10      73.314  64.296  23.400  1.00 40.76 LIG 0.26  C 
ATOM     31 O    ALA Q  10      72.463  63.645  22.796  1.00 37.65 LIG-0.27  OA
ATOM     32 H    ALA Q  11      74.329  64.439  25.060  1.00 33.00 LIG 0.16  HD
BRANCH 30 33
ATOM     33  CA  ALA Q  10      73.976  65.483  22.717  1.00 39.75 LIG 0.40  C 
ATOM     34  CB  ALA Q  10      73.052  66.689  22.769  1.00 33.57 LIG 0.06  C 
ATOM     35  N   ALA Q  10      74.338  65.173  21.342  1.00 55.55 LIG 0.61  N 
ENDBRANCH 30 33
ENDBRANCH 27 29
ENDBRANCH 24 27
ENDBRANCH 21 23
ENDBRANCH 1 21
TORSDOF 11
ENDMDL
MODEL 4
USER: ADFR SOLUTION from run 17
USER: SCORE 12.616798 LL:  -1.843 LR: -12.507 RR:   0.000 FEB:  -9.226
USER: RMSD 9.763675
USER: SEED 16
USER: STATUS no improvement in best in 14 clusters for 5 generations
USER: GENES 13
USER: genes 0 Translation |==|  0.57976 0.45208 0.43442
USER: genes 1 Rotation |==|  0.85446 0.77072 0.72432 0.52731
USER: genes 2 Torsion [C]-N--CA-[CB] |==|  0.18186
USER: genes 3 Torsion [N]-CA--C-[N] |==|  0.63807
USER: genes 4 Torsion [C]-N--CA-[CB] |==|  0.19292
USER: genes 5 Torsion [N]-CA--C-[N] |==|  0.16047
USER: genes 6 Torsion [C]-N--CA-[CB] |==|  0.29827
USER: genes 7 Torsion [N]-CA--C-[O] |==|  0.55497
USER: genes 8 Torsion [N]-C--CA-[N] |==|  0.38959
USER: genes 9 Torsion [C]-CA--N-[C] |==|  0.64354
USER: genes 10 Torsion [N]-C--CA-[N] |==|  0.39973
USER: genes 11 Torsion [C]-CA--N-[C] |==|  0.61110
USER: genes 12 Torsion [N]-C--CA-[N] |==|  0.04291
ROOT
ATOM      1  C   ALA Q  12      71.904  63.489  27.093  1.00 25.44 LIG 0.24  C 
ATOM      2 O    ALA Q  12      72.839  64.047  27.651  1.00 27.01 LIG-0.27  OA
ATOM      3  N   ALA Q  13      71.939  63.061  25.837  1.00 26.02 LIG-0.35  N 
ATOM      4 H    ALA Q  13      71.332  62.577  25.467  1.00 26.02 LIG 0.16  HD
ENDROOT
BRANCH 3 5
ATOM      5  CA  ALA Q  13      73.077  63.410  24.967  1.00 27.66 LIG 0.17  C 
ATOM      6  CB  ALA Q  13      74.346  62.750  25.506  1.00 60.60 LIG 0.04  C 
BRANCH 5 7
ATOM      7  C   ALA Q  13      72.879  63.031  23.510  1.00 27.27 LIG 0.24  C 
ATOM      8 O    ALA Q  13      71.832  63.294  22.924  1.00 28.73 LIG-0.27  OA
ATOM      9  N   ALA Q  14      73.898  62.346  22.950  1.00 28.35 LIG-0.35  N 
ATOM     10 H    ALA Q  14      74.656  62.229  23.340  1.00 28.35 LIG 0.16  HD
BRANCH 9 11
ATOM     11  CA  ALA Q  14      73.820  61.737  21.632  1.00 39.95 LIG 0.17  C 
ATOM     12  CB  ALA Q  14      73.779  62.834  20.545  1.00 41.42 LIG 0.04  C 
BRANCH 11 13
ATOM     13  C   ALA Q  14      75.077  60.863  21.456  1.00 39.71 LIG 0.24  C 
ATOM     14  N   ALA Q  15      75.301  59.900  22.338  1.00 43.67 LIG-0.35  N 
ATOM     15 H    ALA Q  15      75.988  59.384  22.310  1.00 43.67 LIG 0.16  HD
ATOM     16 O    ALA Q  14      75.853  61.081  20.547  1.00 40.63 LIG-0.27  OA
BRANCH 14 17
ATOM     17  CA  ALA Q  15      74.410  59.622  23.437  1.00 45.40 LIG 0.16  C 
ATOM     18  CB  ALA Q  15      73.669  58.348  23.177  1.00 35.52 LIG 0.04  C 
BRANCH 17 19
ATOM     19  C   ALA Q  15      75.189  59.548  24.756  1.00 34.39 LIG 0.22  C 
ATOM     20 O    ALA Q  15      74.713  58.978  25.745  1.00 56.10 LIG-0.29  OA
ENDBRANCH 17 19
ENDBRANCH 14 17
ENDBRANCH 11 13
ENDBRANCH 9 11
ENDBRANCH 5 7
ENDBRANCH 3 5
BRANCH 1 21
ATOM     21  CA  ALA Q  12      70.639  63.177  27.864  1.00 23.65 LIG 0.17  C 
ATOM     22  CB  ALA Q  12      69.725  64.374  27.926  1.00 43.19 LIG 0.04  C 
BRANCH 21 23
ATOM     23  N   ALA Q  12      71.075  62.819  29.192  1.00 32.95 LIG-0.35  N 
ATOM     24  C   ALA Q  11      70.653  61.688  29.736  1.00 38.70 LIG 0.24  C 
ATOM     25 O    ALA Q  11      69.864  60.942  29.171  1.00 30.98 LIG-0.27  OA
ATOM     26 H    ALA Q  12      71.605  63.382  29.570  1.00 32.95 LIG 0.16  HD
BRANCH 24 27
ATOM     27  CA  ALA Q  11      71.180  61.373  31.128  1.00 33.56 LIG 0.17  C 
ATOM     28  CB  ALA Q  11      72.421  60.516  31.002  1.00 29.51 LIG 0.04  C 
BRANCH 27 29
ATOM     29  N   ALA Q  11      70.164  60.710  31.962  1.00 33.00 LIG-0.35  N 
ATOM     30  C   ALA Q  10      70.014  61.008  33.255  1.00 40.76 LIG 0.26  C 
ATOM     31 O    ALA Q  10      70.741  61.798  33.855  1.00 37.65 LIG-0.27  OA
ATOM     32 H    ALA Q  11      69.688  60.127  31.545  1.00 33.00 LIG 0.16  HD
BRANCH 30 33
ATOM     33  CA  ALA Q  10      68.882  60.316  33.998  1.00 39.75 LIG 0.40  C 
ATOM     34  CB  ALA Q  10      69.355  59.890  35.378  1.00 33.57 LIG 0.06  C 
ATOM     35  N   ALA Q  10      68.376  59.173  33.254  1.00 55.55 LIG 0.61  N 
ENDBRANCH 30 33
ENDBRANCH 27 29
ENDBRANCH 24 27
ENDBRANCH 21 23
ENDBRANCH 1 21
TORSDOF 11
ENDMDL
MODEL 5
USER: ADFR SOLUTION from run 150
USER: SCORE 12.364137 LL:  -1.819 LR: -12.481 RR:   0.000 FEB:  -9.200
USER: RMSD 4.108813
USER: SEED 149
USER: STATUS no improvement in best in 5 clusters for 5 generations
USER: GENES 13
USER: genes 0 Translation |==|  0.48920 0.40551 0.51637
USER: genes 1 Rotation |==|  0.45843 0.33359 0.96855 0.53225
USER: genes 2 Torsion [C]-N--CA-[CB] |==|  0.11849
USER: genes 3 Torsion [N]-CA--C-[N] |==|  0.58632
USER: genes 4 Torsion [C]-N--CA-[CB] |==|  0.79895
USER: genes 5 Torsion [N]-CA--C-[N] |==|  0.16111
USER: genes 6 Torsion [C]-N--CA-[CB] |==|  0.27179
USER: genes 7 Torsion [N]-CA--C-[O] |==|  0.21208
USER: genes 8 Torsion [N]-C--CA-[N] |==|  0.25525
USER: genes 9 Torsion [C]-CA--N-[C] |==|  0.73139
USER: genes 10 Torsion [N]-C--CA-[N] |==|  0.32573
USER: genes 11 Torsion [C]-CA--N-[C] |==|  0.68932
USER: genes 12 Torsion [N]-C--CA-[N] |==|  0.37807
ROOT
ATOM      1  C   ALA Q  12      70.410  62.580  28.752  1.00 25.44 LIG 0.24  C 
ATOM      2 O    ALA Q  12      69.481  61.799  28.602  1.00 27.01 LIG-0.27  OA
ATOM      3  N   ALA Q  13      71.375  62.419  29.649  1.00 26.02 LIG-0.35  N 
ATOM      4 H    ALA Q  13      72.086  62.901  29.697  1.00 26.02 LIG 0.16  HD
ENDROOT
BRANCH 3 5
ATOM      5  CA  ALA Q  13      71.275  61.352  30.662  1.00 27.66 LIG 0.17  C 
ATOM      6  CB  ALA Q  13      70.765  60.073  29.999  1.00 60.60 LIG 0.04  C 
BRANCH 5 7
ATOM      7  C   ALA Q  13      72.577  61.070  31.392  1.00 27.27 LIG 0.24  C 
ATOM      8 O    ALA Q  13      73.421  61.948  31.542  1.00 28.73 LIG-0.27  OA
ATOM      9  N   ALA Q  14      72.744  59.793  31.794  1.00 28.35 LIG-0.35  N 
ATOM     10 H    ALA Q  14      72.122  59.201  31.752  1.00 28.35 LIG 0.16  HD
BRANCH 9 11
ATOM     11  CA  ALA Q  14      73.994  59.287  32.339  1.00 39.95 LIG 0.17  C 
ATOM     12  CB  ALA Q  14      75.045  59.154  31.213  1.00 41.42 LIG 0.04  C 
BRANCH 11 13
ATOM     13  C   ALA Q  14      74.476  60.298  33.396  1.00 39.71 LIG 0.24  C 
ATOM     14  N   ALA Q  15      73.674  60.572  34.415  1.00 43.67 LIG-0.35  N 
ATOM     15 H    ALA Q  15      73.871  61.135  35.034  1.00 43.67 LIG 0.16  HD
ATOM     16 O    ALA Q  14      75.553  60.849  33.274  1.00 40.63 LIG-0.27  OA
BRANCH 14 17
ATOM     17  CA  ALA Q  15      72.384  59.949  34.585  1.00 45.40 LIG 0.16  C 
ATOM     18  CB  ALA Q  15      72.498  58.808  35.548  1.00 35.52 LIG 0.04  C 
BRANCH 17 19
ATOM     19  C   ALA Q  15      71.350  60.974  35.064  1.00 34.39 LIG 0.22  C 
ATOM     20 O    ALA Q  15      70.862  61.798  34.282  1.00 56.10 LIG-0.29  OA
ENDBRANCH 17 19
ENDBRANCH 14 17
ENDBRANCH 11 13
ENDBRANCH 9 11
ENDBRANCH 5 7
ENDBRANCH 3 5
BRANCH 1 21
ATOM     21  CA  ALA Q  12      70.551  63.776  27.835  1.00 23.65 LIG 0.17  C 
ATOM     22  CB  ALA Q  12      69.204  64.318  27.428  1.00 43.19 LIG 0.04  C 
BRANCH 21 23
ATOM     23  N   ALA Q  12      71.259  63.290  26.675  1.00 32.95 LIG-0.35  N 
ATOM     24  C   ALA Q  11      72.570  63.456  26.592  1.00 38.70 LIG 0.24  C 
ATOM     25 O    ALA Q  11      73.212  64.050  27.449  1.00 30.98 LIG-0.27  OA
ATOM     26 H    ALA Q  12      70.771  62.905  26.080  1.00 32.95 LIG 0.16  HD
BRANCH 24 27
ATOM     27  CA  ALA Q  11      73.243  62.892  25.350  1.00 33.56 LIG 0.17  C 
ATOM     28  CB  ALA Q  11      74.262  61.855  25.770  1.00 29.51 LIG 0.04  C 
BRANCH 27 29
ATOM     29  N   ALA Q  11      73.870  63.948  24.539  1.00 33.00 LIG-0.35  N 
ATOM     30  C   ALA Q  10      73.400  64.279  23.333  1.00 40.76 LIG 0.26  C 
ATOM     31 O    ALA Q  10      72.465  63.696  22.789  1.00 37.65 LIG-0.27  OA
ATOM     32 H    ALA Q  11      74.551  64.322  24.908  1.00 33.00 LIG 0.16  HD
BRANCH 30 33
ATOM     33  CA  ALA Q  10      74.080  65.437  22.619  1.00 39.75 LIG 0.40  C 
ATOM     34  CB  ALA Q  10      73.243  66.697  22.765  1.00 33.57 LIG 0.06  C 
ATOM     35  N   ALA Q  10      74.312  65.135  21.215  1.00 55.55 LIG 0.61  N 
ENDBRANCH 30 33
ENDBRANCH 27 29
ENDBRANCH 24 27
ENDBRANCH 21 23
ENDBRANCH 1 21
TORSDOF 11
ENDMDL
MODEL 6
USER: ADFR SOLUTION from run 135
USER: SCORE 11.633970 LL:  -1.743 LR: -12.460 RR:   0.000 FEB:  -9.179
USER: RMSD 4.803739
USER: SEED 134
USER: STATUS no improvement in best in 9 clusters for 5 generations
USER: GENES 13
USER: genes 0 Translation |==|  0.55041 0.38196 0.50185
USER: genes 1 Rotation |==|  0.31411 0.42223 0.95564 0.54227
USER: genes 2 Torsion [C]-N--CA-[CB] |==|  0.14073
USER: genes 3 Torsion [N]-CA--C-[N] |==|  0.85562
USER: genes 4 Torsion [C]-N--CA-[CB] |==|  0.14919
USER: genes 5 Torsion [N]-CA--C-[N] |==|  0.85084
USER: genes 6 Torsion [C]-N--CA-[CB] |==|  0.33201
USER: genes 7 Torsion [N]-CA--C-[O] |==|  0.35683
USER: genes 8 Torsion [N]-C--CA-[N] |==|  0.42513
USER: genes 9 Torsion [C]-CA--N-[C] |==|  0.58464
USER: genes 10 Torsion [N]-C--CA-[N] |==|  0.40712
USER: genes 11 Torsion [C]-CA--N-[C] |==|  0.77106
USER: genes 12 Torsion [N]-C--CA-[N] |==|  0.68179
ROOT
ATOM      1  C   ALA Q  12      71.420  62.121  28.458  1.00 25.44 LIG 0.24  C 
ATOM      2 O    ALA Q  12      70.446  61.502  28.053  1.00 27.01 LIG-0.27  OA
ATOM      3  N   ALA Q  13      71.784  62.177  29.734  1.00 26.02 LIG-0.35  N 
ATOM      4 H    ALA Q  13      72.519  62.519  30.019  1.00 26.02 LIG 0.16  HD
ENDROOT
BRANCH 3 5
ATOM      5  CA  ALA Q  13      70.902  61.628  30.780  1.00 27.66 LIG 0.17  C 
ATOM      6  CB  ALA Q  13      70.492  60.206  30.401  1.00 60.60 LIG 0.04  C 
BRANCH 5 7
ATOM      7  C   ALA Q  13      71.516  61.635  32.170  1.00 27.27 LIG 0.24  C 
ATOM      8 O    ALA Q  13      70.943  62.174  33.112  1.00 28.73 LIG-0.27  OA
ATOM      9  N   ALA Q  14      72.736  61.067  32.261  1.00 28.35 LIG-0.35  N 
ATOM     10 H    ALA Q  14      73.100  60.628  31.617  1.00 28.35 LIG 0.16  HD
BRANCH 9 11
ATOM     11  CA  ALA Q  14      73.562  61.141  33.456  1.00 39.95 LIG 0.17  C 
ATOM     12  CB  ALA Q  14      72.764  60.642  34.681  1.00 41.42 LIG 0.04  C 
BRANCH 11 13
ATOM     13  C   ALA Q  14      74.790  60.240  33.221  1.00 39.71 LIG 0.24  C 
ATOM     14  N   ALA Q  15      74.585  58.980  32.865  1.00 43.67 LIG-0.35  N 
ATOM     15 H    ALA Q  15      75.222  58.418  32.730  1.00 43.67 LIG 0.16  HD
ATOM     16 O    ALA Q  14      75.912  60.675  33.391  1.00 40.63 LIG-0.27  OA
BRANCH 14 17
ATOM     17  CA  ALA Q  15      73.268  58.427  32.667  1.00 45.40 LIG 0.16  C 
ATOM     18  CB  ALA Q  15      73.129  57.947  31.256  1.00 35.52 LIG 0.04  C 
BRANCH 17 19
ATOM     19  C   ALA Q  15      73.006  57.292  33.664  1.00 34.39 LIG 0.22  C 
ATOM     20 O    ALA Q  15      71.986  57.281  34.362  1.00 56.10 LIG-0.29  OA
ENDBRANCH 17 19
ENDBRANCH 14 17
ENDBRANCH 11 13
ENDBRANCH 9 11
ENDBRANCH 5 7
ENDBRANCH 3 5
BRANCH 1 21
ATOM     21  CA  ALA Q  12      72.338  62.818  27.477  1.00 23.65 LIG 0.17  C 
ATOM     22  CB  ALA Q  12      71.973  64.272  27.322  1.00 43.19 LIG 0.04  C 
BRANCH 21 23
ATOM     23  N   ALA Q  12      72.157  62.127  26.223  1.00 32.95 LIG-0.35  N 
ATOM     24  C   ALA Q  11      73.164  62.050  25.367  1.00 38.70 LIG 0.24  C 
ATOM     25 O    ALA Q  11      74.246  62.584  25.577  1.00 30.98 LIG-0.27  OA
ATOM     26 H    ALA Q  12      71.375  61.790  26.097  1.00 32.95 LIG 0.16  HD
BRANCH 24 27
ATOM     27  CA  ALA Q  11      72.899  61.283  24.081  1.00 33.56 LIG 0.17  C 
ATOM     28  CB  ALA Q  11      73.263  59.829  24.292  1.00 29.51 LIG 0.04  C 
BRANCH 27 29
ATOM     29  N   ALA Q  11      73.636  61.851  22.941  1.00 33.00 LIG-0.35  N 
ATOM     30  C   ALA Q  10      73.175  62.905  22.263  1.00 40.76 LIG 0.26  C 
ATOM     31 O    ALA Q  10      72.088  63.433  22.492  1.00 37.65 LIG-0.27  OA
ATOM     32 H    ALA Q  11      74.374  61.449  22.759  1.00 33.00 LIG 0.16  HD
BRANCH 30 33
ATOM     33  CA  ALA Q  10      74.057  63.454  21.152  1.00 39.75 LIG 0.40  C 
ATOM     34  CB  ALA Q  10      75.232  62.519  20.917  1.00 33.57 LIG 0.06  C 
ATOM     35  N   ALA Q  10      74.525  64.798  21.458  1.00 55.55 LIG 0.61  N 
ENDBRANCH 30 33
ENDBRANCH 27 29
ENDBRANCH 24 27
ENDBRANCH 21 23
ENDBRANCH 1 21
TORSDOF 11
ENDMDL
MODEL 7
USER: ADFR SOLUTION from run 8
USER: SCORE 11.032971 LL:  -2.086 LR: -12.439 RR:   0.000 FEB:  -9.158
USER: RMSD 10.545826
USER: SEED 918529
USER: STATUS no improvement in best in 16 clusters for 5 generations
USER: GENES 13
USER: genes 0 Translation |==|  0.52194 0.34818 0.55851
USER: genes 1 Rotation |==|  0.12582 0.82424 0.52857 0.56360
USER: genes 2 Torsion [C]-N--CA-[CB] |==|  0.41248
USER: genes 3 Torsion [N]-CA--C-[N] |==|  0.29343
USER: genes 4 Torsion [C]-N--CA-[CB] |==|  0.18045
USER: genes 5 Torsion [N]-CA--C-[N] |==|  0.42854
USER: genes 6 Torsion [C]-N--CA-[CB] |==|  0.34917
USER: genes 7 Torsion [N]-CA--C-[O] |==|  0.15057
USER: genes 8 Torsion [N]-C--CA-[N] |==|  0.33900
USER: genes 9 Torsion [C]-CA--N-[C] |==|  0.64675
USER: genes 10 Torsion [N]-C--CA-[N] |==|  0.40211
USER: genes 11 Torsion [C]-CA--N-[C] |==|  0.62997
USER: genes 12 Torsion [N]-C--CA-[N] |==|  0.49531
ROOT
ATOM      1  C   ALA Q  12      70.950  61.462  29.606  1.00 25.44 LIG 0.24  C 
ATOM      2 O    ALA Q  12      70.367  60.758  28.794  1.00 27.01 LIG-0.27  OA
ATOM      3  N   ALA Q  13      71.334  62.710  29.364  1.00 26.02 LIG-0.35  N 
ATOM      4 H    ALA Q  13      71.650  63.249  29.956  1.00 26.02 LIG 0.16  HD
ENDROOT
BRANCH 3 5
ATOM      5  CA  ALA Q  13      71.235  63.265  28.002  1.00 27.66 LIG 0.17  C 
ATOM      6  CB  ALA Q  13      70.962  64.766  28.085  1.00 60.60 LIG 0.04  C 
BRANCH 5 7
ATOM      7  C   ALA Q  13      72.460  63.010  27.142  1.00 27.27 LIG 0.24  C 
ATOM      8 O    ALA Q  13      73.485  63.671  27.288  1.00 28.73 LIG-0.27  OA
ATOM      9  N   ALA Q  14      72.308  62.065  26.190  1.00 28.35 LIG-0.35  N 
ATOM     10 H    ALA Q  14      71.616  61.556  26.140  1.00 28.35 LIG 0.16  HD
BRANCH 9 11
ATOM     11  CA  ALA Q  14      73.296  61.811  25.154  1.00 39.95 LIG 0.17  C 
ATOM     12  CB  ALA Q  14      74.602  61.283  25.788  1.00 41.42 LIG 0.04  C 
BRANCH 11 13
ATOM     13  C   ALA Q  14      72.702  60.753  24.205  1.00 39.71 LIG 0.24  C 
ATOM     14  N   ALA Q  15      73.132  60.722  22.951  1.00 43.67 LIG-0.35  N 
ATOM     15 H    ALA Q  15      72.836  60.168  22.364  1.00 43.67 LIG 0.16  HD
ATOM     16 O    ALA Q  14      71.840  59.991  24.596  1.00 40.63 LIG-0.27  OA
BRANCH 14 17
ATOM     17  CA  ALA Q  15      74.143  61.619  22.448  1.00 45.40 LIG 0.16  C 
ATOM     18  CB  ALA Q  15      75.255  60.830  21.829  1.00 35.52 LIG 0.04  C 
BRANCH 17 19
ATOM     19  C   ALA Q  15      73.537  62.603  21.441  1.00 34.39 LIG 0.22  C 
ATOM     20 O    ALA Q  15      72.559  63.298  21.740  1.00 56.10 LIG-0.29  OA
ENDBRANCH 17 19
ENDBRANCH 14 17
ENDBRANCH 11 13
ENDBRANCH 9 11
ENDBRANCH 5 7
ENDBRANCH 3 5
BRANCH 1 21
ATOM     21  CA  ALA Q  12      71.203  60.951  31.008  1.00 23.65 LIG 0.17  C 
ATOM     22  CB  ALA Q  12      72.133  59.764  31.000  1.00 43.19 LIG 0.04  C 
BRANCH 21 23
ATOM     23  N   ALA Q  12      69.910  60.562  31.516  1.00 32.95 LIG-0.35  N 
ATOM     24  C   ALA Q  11      69.493  61.041  32.678  1.00 38.70 LIG 0.24  C 
ATOM     25 O    ALA Q  11      70.184  61.777  33.371  1.00 30.98 LIG-0.27  OA
ATOM     26 H    ALA Q  12      69.465  60.021  31.017  1.00 32.95 LIG 0.16  HD
BRANCH 24 27
ATOM     27  CA  ALA Q  11      68.108  60.603  33.130  1.00 33.56 LIG 0.17  C 
ATOM     28  CB  ALA Q  11      67.091  61.615  32.649  1.00 29.51 LIG 0.04  C 
BRANCH 27 29
ATOM     29  N   ALA Q  11      68.035  60.433  34.590  1.00 33.00 LIG-0.35  N 
ATOM     30  C   ALA Q  10      67.478  59.354  35.144  1.00 40.76 LIG 0.26  C 
ATOM     31 O    ALA Q  10      66.934  58.464  34.492  1.00 37.65 LIG-0.27  OA
ATOM     32 H    ALA Q  11      68.379  61.081  35.040  1.00 33.00 LIG 0.16  HD
BRANCH 30 33
ATOM     33  CA  ALA Q  10      67.528  59.250  36.661  1.00 39.75 LIG 0.40  C 
ATOM     34  CB  ALA Q  10      68.972  59.274  37.132  1.00 33.57 LIG 0.06  C 
ATOM     35  N   ALA Q  10      66.853  58.052  37.135  1.00 55.55 LIG 0.61  N 
ENDBRANCH 30 33
ENDBRANCH 27 29
ENDBRANCH 24 27
ENDBRANCH 21 23
ENDBRANCH 1 21
TORSDOF 11
ENDMDL
MODEL 8
USER: ADFR SOLUTION from run 54
USER: SCORE 11.850391 LL:  -2.053 LR: -12.250 RR:   0.000 FEB:  -8.969
USER: RMSD 10.585056
USER: SEED 53
USER: STATUS no improvement in best in 10 clusters for 5 generations
USER: GENES 13
USER: genes 0 Translation |==|  0.52103 0.36531 0.55373
USER: genes 1 Rotation |==|  0.13035 0.83338 0.51762 0.54363
USER: genes 2 Torsion [C]-N--CA-[CB] |==|  0.41200
USER: genes 3 Torsion [N]-CA--C-[N] |==|  0.37458
USER: genes 4 Torsion [C]-N--CA-[CB] |==|  0.53530
USER: genes 5 Torsion [N]-CA--C-[N] |==|  0.40868
USER: genes 6 Torsion [C]-N--CA-[CB] |==|  0.34629
USER: genes 7 Torsion [N]-CA--C-[O] |==|  0.95222
USER: genes 8 Torsion [N]-C--CA-[N] |==|  0.37528
USER: genes 9 Torsion [C]-CA--N-[C] |==|  0.63559
USER: genes 10 Torsion [N]-C--CA-[N] |==|  0.40730
USER: genes 11 Torsion [C]-CA--N-[C] |==|  0.60751
USER: genes 12 Torsion [N]-C--CA-[N] |==|  0.48855
ROOT
ATOM      1  C   ALA Q  12      70.935  61.796  29.509  1.00 25.44 LIG 0.24  C 
ATOM      2 O    ALA Q  12      70.304  61.048  28.776  1.00 27.01 LIG-0.27  OA
ATOM      3  N   ALA Q  13      71.361  63.002  29.149  1.00 26.02 LIG-0.35  N 
ATOM      4 H    ALA Q  13      71.713  63.576  29.683  1.00 26.02 LIG 0.16  HD
ENDROOT
BRANCH 3 5
ATOM      5  CA  ALA Q  13      71.247  63.439  27.746  1.00 27.66 LIG 0.17  C 
ATOM      6  CB  ALA Q  13      71.032  64.951  27.703  1.00 60.60 LIG 0.04  C 
BRANCH 5 7
ATOM      7  C   ALA Q  13      72.441  63.063  26.885  1.00 27.27 LIG 0.24  C 
ATOM      8 O    ALA Q  13      73.588  63.278  27.264  1.00 28.73 LIG-0.27  OA
ATOM      9  N   ALA Q  14      72.136  62.545  25.676  1.00 28.35 LIG-0.35  N 
ATOM     10 H    ALA Q  14      71.336  62.329  25.446  1.00 28.35 LIG 0.16  HD
BRANCH 9 11
ATOM     11  CA  ALA Q  14      73.128  62.300  24.642  1.00 39.95 LIG 0.17  C 
ATOM     12  CB  ALA Q  14      72.426  62.012  23.295  1.00 41.42 LIG 0.04  C 
BRANCH 11 13
ATOM     13  C   ALA Q  14      73.994  63.569  24.527  1.00 39.71 LIG 0.24  C 
ATOM     14  N   ALA Q  15      75.273  63.430  24.208  1.00 43.67 LIG-0.35  N 
ATOM     15 H    ALA Q  15      75.817  64.093  24.140  1.00 43.67 LIG 0.16  HD
ATOM     16 O    ALA Q  14      73.515  64.662  24.756  1.00 40.63 LIG-0.27  OA
BRANCH 14 17
ATOM     17  CA  ALA Q  15      75.879  62.149  23.944  1.00 45.40 LIG 0.16  C 
ATOM     18  CB  ALA Q  15      76.526  62.165  22.594  1.00 35.52 LIG 0.04  C 
BRANCH 17 19
ATOM     19  C   ALA Q  15      76.894  61.798  25.038  1.00 34.39 LIG 0.22  C 
ATOM     20 O    ALA Q  15      77.338  62.667  25.796  1.00 56.10 LIG-0.29  OA
ENDBRANCH 17 19
ENDBRANCH 14 17
ENDBRANCH 11 13
ENDBRANCH 9 11
ENDBRANCH 5 7
ENDBRANCH 3 5
BRANCH 1 21
ATOM     21  CA  ALA Q  12      71.205  61.400  30.945  1.00 23.65 LIG 0.17  C 
ATOM     22  CB  ALA Q  12      72.324  60.393  31.035  1.00 43.19 LIG 0.04  C 
BRANCH 21 23
ATOM     23  N   ALA Q  12      69.975  60.815  31.421  1.00 32.95 LIG-0.35  N 
ATOM     24  C   ALA Q  11      69.469  61.209  32.580  1.00 38.70 LIG 0.24  C 
ATOM     25 O    ALA Q  11      70.030  62.029  33.296  1.00 30.98 LIG-0.27  OA
ATOM     26 H    ALA Q  12      69.626  60.221  30.906  1.00 32.95 LIG 0.16  HD
BRANCH 24 27
ATOM     27  CA  ALA Q  11      68.157  60.562  32.997  1.00 33.56 LIG 0.17  C 
ATOM     28  CB  ALA Q  11      67.009  61.394  32.468  1.00 29.51 LIG 0.04  C 
BRANCH 27 29
ATOM     29  N   ALA Q  11      68.065  60.403  34.457  1.00 33.00 LIG-0.35  N 
ATOM     30  C   ALA Q  10      67.519  59.317  35.011  1.00 40.76 LIG 0.26  C 
ATOM     31 O    ALA Q  10      67.003  58.412  34.358  1.00 37.65 LIG-0.27  OA
ATOM     32 H    ALA Q  11      68.388  61.060  34.907  1.00 33.00 LIG 0.16  HD
BRANCH 30 33
ATOM     33  CA  ALA Q  10      67.546  59.226  36.529  1.00 39.75 LIG 0.40  C 
ATOM     34  CB  ALA Q  10      68.985  59.221  37.019  1.00 33.57 LIG 0.06  C 
ATOM     35  N   ALA Q  10      66.838  58.048  37.005  1.00 55.55 LIG 0.61  N 
ENDBRANCH 30 33
ENDBRANCH 27 29
ENDBRANCH 24 27
ENDBRANCH 21 23
ENDBRANCH 1 21
TORSDOF 11
ENDMDL
MODEL 9
USER: ADFR SOLUTION from run 48
USER: SCORE 13.000223 LL:  -1.936 LR: -12.192 RR:   0.000 FEB:  -8.910
USER: RMSD 4.800599
USER: SEED 47
USER: STATUS no improvement in best in 12 clusters for 5 generations
USER: GENES 13
USER: genes 0 Translation |==|  0.47445 0.40666 0.51810
USER: genes 1 Rotation |==|  0.61284 0.64911 0.04942 0.60962
USER: genes 2 Torsion [C]-N--CA-[CB] |==|  0.83888
USER: genes 3 Torsion [N]-CA--C-[N] |==|  0.42114
USER: genes 4 Torsion [C]-N--CA-[CB] |==|  0.82488
USER: genes 5 Torsion [N]-CA--C-[N] |==|  0.23351
USER: genes 6 Torsion [C]-N--CA-[CB] |==|  0.23688
USER: genes 7 Torsion [N]-CA--C-[O] |==|  0.71857
USER: genes 8 Torsion [N]-C--CA-[N] |==|  0.34244
USER: genes 9 Torsion [C]-CA--N-[C] |==|  0.71756
USER: genes 10 Torsion [N]-C--CA-[N] |==|  0.34950
USER: genes 11 Torsion [C]-CA--N-[C] |==|  0.68957
USER: genes 12 Torsion [N]-C--CA-[N] |==|  0.39739
ROOT
ATOM      1  C   ALA Q  12      70.166  62.603  28.788  1.00 25.44 LIG 0.24  C 
ATOM      2 O    ALA Q  12      69.785  61.499  28.426  1.00 27.01 LIG-0.27  OA
ATOM      3  N   ALA Q  13      70.595  62.874  30.015  1.00 26.02 LIG-0.35  N 
ATOM      4 H    ALA Q  13      70.962  63.615  30.253  1.00 26.02 LIG 0.16  HD
ENDROOT
BRANCH 3 5
ATOM      5  CA  ALA Q  13      70.458  61.871  31.086  1.00 27.66 LIG 0.17  C 
ATOM      6  CB  ALA Q  13      68.984  61.497  31.243  1.00 60.60 LIG 0.04  C 
BRANCH 5 7
ATOM      7  C   ALA Q  13      71.286  60.617  30.866  1.00 27.27 LIG 0.24  C 
ATOM      8 O    ALA Q  13      71.525  60.206  29.734  1.00 28.73 LIG-0.27  OA
ATOM      9  N   ALA Q  14      71.673  59.980  31.991  1.00 28.35 LIG-0.35  N 
ATOM     10 H    ALA Q  14      71.567  60.311  32.778  1.00 28.35 LIG 0.16  HD
BRANCH 9 11
ATOM     11  CA  ALA Q  14      72.308  58.672  31.988  1.00 39.95 LIG 0.17  C 
ATOM     12  CB  ALA Q  14      71.338  57.616  31.410  1.00 41.42 LIG 0.04  C 
BRANCH 11 13
ATOM     13  C   ALA Q  14      73.566  58.775  31.105  1.00 39.71 LIG 0.24  C 
ATOM     14  N   ALA Q  15      74.682  59.235  31.653  1.00 43.67 LIG-0.35  N 
ATOM     15 H    ALA Q  15      75.417  59.332  31.218  1.00 43.67 LIG 0.16  HD
ATOM     16 O    ALA Q  14      73.519  58.469  29.930  1.00 40.63 LIG-0.27  OA
BRANCH 14 17
ATOM     17  CA  ALA Q  15      74.772  59.620  33.040  1.00 45.40 LIG 0.16  C 
ATOM     18  CB  ALA Q  15      75.065  58.417  33.881  1.00 35.52 LIG 0.04  C 
BRANCH 17 19
ATOM     19  C   ALA Q  15      75.843  60.700  33.230  1.00 34.39 LIG 0.22  C 
ATOM     20 O    ALA Q  15      76.962  60.416  33.671  1.00 56.10 LIG-0.29  OA
ENDBRANCH 17 19
ENDBRANCH 14 17
ENDBRANCH 11 13
ENDBRANCH 9 11
ENDBRANCH 5 7
ENDBRANCH 3 5
BRANCH 1 21
ATOM     21  CA  ALA Q  12      70.245  63.741  27.792  1.00 23.65 LIG 0.17  C 
ATOM     22  CB  ALA Q  12      68.875  64.130  27.295  1.00 43.19 LIG 0.04  C 
BRANCH 21 23
ATOM     23  N   ALA Q  12      71.043  63.242  26.699  1.00 32.95 LIG-0.35  N 
ATOM     24  C   ALA Q  11      72.314  63.600  26.601  1.00 38.70 LIG 0.24  C 
ATOM     25 O    ALA Q  11      72.838  64.381  27.385  1.00 30.98 LIG-0.27  OA
ATOM     26 H    ALA Q  12      70.633  62.719  26.151  1.00 32.95 LIG 0.16  HD
BRANCH 24 27
ATOM     27  CA  ALA Q  11      73.093  63.009  25.434  1.00 33.56 LIG 0.17  C 
ATOM     28  CB  ALA Q  11      74.116  62.032  25.971  1.00 29.51 LIG 0.04  C 
BRANCH 27 29
ATOM     29  N   ALA Q  11      73.735  64.053  24.620  1.00 33.00 LIG-0.35  N 
ATOM     30  C   ALA Q  10      73.338  64.314  23.372  1.00 40.76 LIG 0.26  C 
ATOM     31 O    ALA Q  10      72.463  63.671  22.794  1.00 37.65 LIG-0.27  OA
ATOM     32 H    ALA Q  11      74.376  64.469  25.017  1.00 33.00 LIG 0.16  HD
BRANCH 30 33
ATOM     33  CA  ALA Q  10      74.024  65.465  22.653  1.00 39.75 LIG 0.40  C 
ATOM     34  CB  ALA Q  10      73.216  66.740  22.832  1.00 33.57 LIG 0.06  C 
ATOM     35  N   ALA Q  10      74.215  65.173  21.241  1.00 55.55 LIG 0.61  N 
ENDBRANCH 30 33
ENDBRANCH 27 29
ENDBRANCH 24 27
ENDBRANCH 21 23
ENDBRANCH 1 21
TORSDOF 11
ENDMDL
MODEL 10
USER: ADFR SOLUTION from run 113
USER: SCORE 11.313187 LL:  -1.882 LR: -12.166 RR:   0.000 FEB:  -8.885
USER: RMSD 10.058614
USER: SEED 112
USER: STATUS no improvement in best in 8 clusters for 5 generations
USER: GENES 13
USER: genes 0 Translation |==|  0.53307 0.32554 0.58141
USER: genes 1 Rotation |==|  0.09324 0.73170 0.65638 0.58000
USER: genes 2 Torsion [C]-N--CA-[CB] |==|  0.40625
USER: genes 3 Torsion [N]-CA--C-[N] |==|  0.28868
USER: genes 4 Torsion [C]-N--CA-[CB] |==|  0.84009
USER: genes 5 Torsion [N]-CA--C-[N] |==|  0.46111
USER: genes 6 Torsion [C]-N--CA-[CB] |==|  0.42945
USER: genes 7 Torsion [N]-CA--C-[O] |==|  0.45339
USER: genes 8 Torsion [N]-C--CA-[N] |==|  0.14544
USER: genes 9 Torsion [C]-CA--N-[C] |==|  0.59284
USER: genes 10 Torsion [N]-C--CA-[N] |==|  0.05021
USER: genes 11 Torsion [C]-CA--N-[C] |==|  0.18349
USER: genes 12 Torsion [N]-C--CA-[N] |==|  0.32754
ROOT
ATOM      1  C   ALA Q  12      71.134  61.021  30.070  1.00 25.44 LIG 0.24  C 
ATOM      2 O    ALA Q  12      70.584  60.414  29.161  1.00 27.01 LIG-0.27  OA
ATOM      3  N   ALA Q  13      70.951  62.313  30.314  1.00 26.02 LIG-0.35  N 
ATOM      4 H    ALA Q  13      71.248  62.728  31.007  1.00 26.02 LIG 0.16  HD
ENDROOT
BRANCH 3 5
ATOM      5  CA  ALA Q  13      70.194  63.147  29.363  1.00 27.66 LIG 0.17  C 
ATOM      6  CB  ALA Q  13      69.423  64.219  30.132  1.00 60.60 LIG 0.04  C 
BRANCH 5 7
ATOM      7  C   ALA Q  13      71.053  63.798  28.293  1.00 27.27 LIG 0.24  C 
ATOM      8 O    ALA Q  13      71.713  64.804  28.537  1.00 28.73 LIG-0.27  OA
ATOM      9  N   ALA Q  14      70.981  63.227  27.072  1.00 28.35 LIG-0.35  N 
ATOM     10 H    ALA Q  14      70.577  62.482  26.925  1.00 28.35 LIG 0.16  HD
BRANCH 9 11
ATOM     11  CA  ALA Q  14      71.578  63.812  25.883  1.00 39.95 LIG 0.17  C 
ATOM     12  CB  ALA Q  14      71.014  65.232  25.652  1.00 41.42 LIG 0.04  C 
BRANCH 11 13
ATOM     13  C   ALA Q  14      73.099  63.878  26.118  1.00 39.71 LIG 0.24  C 
ATOM     14  N   ALA Q  15      73.887  64.110  25.078  1.00 43.67 LIG-0.35  N 
ATOM     15 H    ALA Q  15      74.744  64.147  25.133  1.00 43.67 LIG 0.16  HD
ATOM     16 O    ALA Q  14      73.557  63.691  27.228  1.00 40.63 LIG-0.27  OA
BRANCH 14 17
ATOM     17  CA  ALA Q  15      73.379  64.323  23.745  1.00 45.40 LIG 0.16  C 
ATOM     18  CB  ALA Q  15      74.359  65.135  22.956  1.00 35.52 LIG 0.04  C 
BRANCH 17 19
ATOM     19  C   ALA Q  15      73.093  62.983  23.057  1.00 34.39 LIG 0.22  C 
ATOM     20 O    ALA Q  15      72.378  62.925  22.050  1.00 56.10 LIG-0.29  OA
ENDBRANCH 17 19
ENDBRANCH 14 17
ENDBRANCH 11 13
ENDBRANCH 9 11
ENDBRANCH 5 7
ENDBRANCH 3 5
BRANCH 1 21
ATOM     21  CA  ALA Q  12      72.024  60.282  31.046  1.00 23.65 LIG 0.17  C 
ATOM     22  CB  ALA Q  12      71.999  58.796  30.793  1.00 43.19 LIG 0.04  C 
BRANCH 21 23
ATOM     23  N   ALA Q  12      71.486  60.570  32.353  1.00 32.95 LIG-0.35  N 
ATOM     24  C   ALA Q  11      72.304  60.670  33.389  1.00 38.70 LIG 0.24  C 
ATOM     25 O    ALA Q  11      73.511  60.483  33.294  1.00 30.98 LIG-0.27  OA
ATOM     26 H    ALA Q  12      70.631  60.665  32.387  1.00 32.95 LIG 0.16  HD
BRANCH 24 27
ATOM     27  CA  ALA Q  11      71.660  61.001  34.727  1.00 33.56 LIG 0.17  C 
ATOM     28  CB  ALA Q  11      72.350  60.207  35.815  1.00 29.51 LIG 0.04  C 
BRANCH 27 29
ATOM     29  N   ALA Q  11      70.212  60.738  34.718  1.00 33.00 LIG-0.35  N 
ATOM     30  C   ALA Q  10      69.725  59.500  34.601  1.00 40.76 LIG 0.26  C 
ATOM     31 O    ALA Q  10      70.432  58.509  34.429  1.00 37.65 LIG-0.27  OA
ATOM     32 H    ALA Q  11      69.723  61.441  34.795  1.00 33.00 LIG 0.16  HD
BRANCH 30 33
ATOM     33  CA  ALA Q  10      68.214  59.340  34.681  1.00 39.75 LIG 0.40  C 
ATOM     34  CB  ALA Q  10      67.852  58.450  35.858  1.00 33.57 LIG 0.06  C 
ATOM     35  N   ALA Q  10      67.669  58.802  33.444  1.00 55.55 LIG 0.61  N 
ENDBRANCH 30 33
ENDBRANCH 27 29
ENDBRANCH 24 27
ENDBRANCH 21 23
ENDBRANCH 1 21
TORSDOF 11
ENDMDL
MODEL 11
USER: ADFR SOLUTION from run 160
USER: SCORE 12.005672 LL:  -2.068 LR: -12.134 RR:   0.000 FEB:  -8.852
USER: RMSD 3.994961
USER: SEED 159
USER: STATUS no improvement in best in 7 clusters for 5 generations
USER: GENES 13
USER: genes 0 Translation |==|  0.52335 0.37424 0.53296
USER: genes 1 Rotation |==|  0.50930 0.67642 0.03232 0.50815
USER: genes 2 Torsion [C]-N--CA-[CB] |==|  0.53896
USER: genes 3 Torsion [N]-CA--C-[N] |==|  0.76356
USER: genes 4 Torsion [C]-N--CA-[CB] |==|  0.79607
USER: genes 5 Torsion [N]-CA--C-[N] |==|  0.15750
USER: genes 6 Torsion [C]-N--CA-[CB] |==|  0.23724
USER: genes 7 Torsion [N]-CA--C-[O] |==|  0.07918
USER: genes 8 Torsion [N]-C--CA-[N] |==|  0.27526
USER: genes 9 Torsion [C]-CA--N-[C] |==|  0.71111
USER: genes 10 Torsion [N]-C--CA-[N] |==|  0.37826
USER: genes 11 Torsion [C]-CA--N-[C] |==|  0.65152
USER: genes 12 Torsion [N]-C--CA-[N] |==|  0.37657
ROOT
ATOM      1  C   ALA Q  12      70.973  61.971  29.088  1.00 25.44 LIG 0.24  C 
ATOM      2 O    ALA Q  12      70.207  61.026  28.963  1.00 27.01 LIG-0.27  OA
ATOM      3  N   ALA Q  13      72.010  61.979  29.918  1.00 26.02 LIG-0.35  N 
ATOM      4 H    ALA Q  13      72.614  62.591  29.941  1.00 26.02 LIG 0.16  HD
ENDROOT
BRANCH 3 5
ATOM      5  CA  ALA Q  13      72.188  60.886  30.891  1.00 27.66 LIG 0.17  C 
ATOM      6  CB  ALA Q  13      73.225  61.301  31.934  1.00 60.60 LIG 0.04  C 
BRANCH 5 7
ATOM      7  C   ALA Q  13      70.904  60.461  31.583  1.00 27.27 LIG 0.24  C 
ATOM      8 O    ALA Q  13      70.213  59.553  31.131  1.00 28.73 LIG-0.27  OA
ATOM      9  N   ALA Q  14      70.569  61.187  32.669  1.00 28.35 LIG-0.35  N 
ATOM     10 H    ALA Q  14      71.092  61.772  33.023  1.00 28.35 LIG 0.16  HD
BRANCH 9 11
ATOM     11  CA  ALA Q  14      69.292  61.058  33.352  1.00 39.95 LIG 0.17  C 
ATOM     12  CB  ALA Q  14      68.172  61.703  32.503  1.00 41.42 LIG 0.04  C 
BRANCH 11 13
ATOM     13  C   ALA Q  14      69.019  59.552  33.532  1.00 39.71 LIG 0.24  C 
ATOM     14  N   ALA Q  15      69.920  58.823  34.175  1.00 43.67 LIG-0.35  N 
ATOM     15 H    ALA Q  15      69.841  57.976  34.300  1.00 43.67 LIG 0.16  HD
ATOM     16 O    ALA Q  14      68.016  59.050  33.065  1.00 40.63 LIG-0.27  OA
BRANCH 14 17
ATOM     17  CA  ALA Q  15      71.128  59.383  34.729  1.00 45.40 LIG 0.16  C 
ATOM     18  CB  ALA Q  15      70.853  59.923  36.098  1.00 35.52 LIG 0.04  C 
BRANCH 17 19
ATOM     19  C   ALA Q  15      72.241  58.329  34.766  1.00 34.39 LIG 0.22  C 
ATOM     20 O    ALA Q  15      72.271  57.406  33.944  1.00 56.10 LIG-0.29  OA
ENDBRANCH 17 19
ENDBRANCH 14 17
ENDBRANCH 11 13
ENDBRANCH 9 11
ENDBRANCH 5 7
ENDBRANCH 3 5
BRANCH 1 21
ATOM     21  CA  ALA Q  12      70.816  63.195  28.212  1.00 23.65 LIG 0.17  C 
ATOM     22  CB  ALA Q  12      69.366  63.574  28.053  1.00 43.19 LIG 0.04  C 
BRANCH 21 23
ATOM     23  N   ALA Q  12      71.374  62.828  26.933  1.00 32.95 LIG-0.35  N 
ATOM     24  C   ALA Q  11      72.569  63.280  26.587  1.00 38.70 LIG 0.24  C 
ATOM     25 O    ALA Q  11      73.213  64.043  27.296  1.00 30.98 LIG-0.27  OA
ATOM     26 H    ALA Q  12      70.880  62.315  26.449  1.00 32.95 LIG 0.16  HD
BRANCH 24 27
ATOM     27  CA  ALA Q  11      73.096  62.825  25.234  1.00 33.56 LIG 0.17  C 
ATOM     28  CB  ALA Q  11      74.088  61.702  25.444  1.00 29.51 LIG 0.04  C 
BRANCH 27 29
ATOM     29  N   ALA Q  11      73.705  63.934  24.482  1.00 33.00 LIG-0.35  N 
ATOM     30  C   ALA Q  10      73.312  64.242  23.243  1.00 40.76 LIG 0.26  C 
ATOM     31 O    ALA Q  10      72.470  63.596  22.621  1.00 37.65 LIG-0.27  OA
ATOM     32 H    ALA Q  11      74.324  64.353  24.907  1.00 33.00 LIG 0.16  HD
BRANCH 30 33
ATOM     33  CA  ALA Q  10      73.960  65.454  22.592  1.00 39.75 LIG 0.40  C 
ATOM     34  CB  ALA Q  10      73.016  66.643  22.663  1.00 33.57 LIG 0.06  C 
ATOM     35  N   ALA Q  10      74.338  65.181  21.214  1.00 55.55 LIG 0.61  N 
ENDBRANCH 30 33
ENDBRANCH 27 29
ENDBRANCH 24 27
ENDBRANCH 21 23
ENDBRANCH 1 21
TORSDOF 11
ENDMDL
MODEL 12
USER: ADFR SOLUTION from run 156
USER: SCORE 11.358855 LL:  -1.990 LR: -12.100 RR:   0.000 FEB:  -8.819
USER: RMSD 9.973069
USER: SEED 155
USER: STATUS no improvement in best in 14 clusters for 5 generations
USER: GENES 13
USER: genes 0 Translation |==|  0.50916 0.35217 0.56537
USER: genes 1 Rotation |==|  0.18287 0.88175 0.54962 0.53509
USER: genes 2 Torsion [C]-N--CA-[CB] |==|  0.35954
USER: genes 3 Torsion [N]-CA--C-[N] |==|  0.35145
USER: genes 4 Torsion [C]-N--CA-[CB] |==|  0.53175
USER: genes 5 Torsion [N]-CA--C-[N] |==|  0.40651
USER: genes 6 Torsion [C]-N--CA-[CB] |==|  0.34997
USER: genes 7 Torsion [N]-CA--C-[O] |==|  0.26273
USER: genes 8 Torsion [N]-C--CA-[N] |==|  0.36779
USER: genes 9 Torsion [C]-CA--N-[C] |==|  0.64251
USER: genes 10 Torsion [N]-C--CA-[N] |==|  0.95665
USER: genes 11 Torsion [C]-CA--N-[C] |==|  0.63889
USER: genes 12 Torsion [N]-C--CA-[N] |==|  0.14567
ROOT
ATOM      1  C   ALA Q  12      70.739  61.540  29.745  1.00 25.44 LIG 0.24  C 
ATOM      2 O    ALA Q  12      69.838  61.053  29.077  1.00 27.01 LIG-0.27  OA
ATOM      3  N   ALA Q  13      71.426  62.619  29.388  1.00 26.02 LIG-0.35  N 
ATOM      4 H    ALA Q  13      71.988  63.031  29.892  1.00 26.02 LIG 0.16  HD
ENDROOT
BRANCH 3 5
ATOM      5  CA  ALA Q  13      71.254  63.195  28.042  1.00 27.66 LIG 0.17  C 
ATOM      6  CB  ALA Q  13      70.986  64.694  28.164  1.00 60.60 LIG 0.04  C 
BRANCH 5 7
ATOM      7  C   ALA Q  13      72.433  62.956  27.114  1.00 27.27 LIG 0.24  C 
ATOM      8 O    ALA Q  13      73.565  63.314  27.424  1.00 28.73 LIG-0.27  OA
ATOM      9  N   ALA Q  14      72.125  62.390  25.928  1.00 28.35 LIG-0.35  N 
ATOM     10 H    ALA Q  14      71.345  62.075  25.746  1.00 28.35 LIG 0.16  HD
BRANCH 9 11
ATOM     11  CA  ALA Q  14      73.078  62.254  24.838  1.00 39.95 LIG 0.17  C 
ATOM     12  CB  ALA Q  14      72.343  61.834  23.545  1.00 41.42 LIG 0.04  C 
BRANCH 11 13
ATOM     13  C   ALA Q  14      73.751  63.626  24.644  1.00 39.71 LIG 0.24  C 
ATOM     14  N   ALA Q  15      75.020  63.654  24.264  1.00 43.67 LIG-0.35  N 
ATOM     15 H    ALA Q  15      75.463  64.382  24.149  1.00 43.67 LIG 0.16  HD
ATOM     16 O    ALA Q  14      73.135  64.649  24.868  1.00 40.63 LIG-0.27  OA
BRANCH 14 17
ATOM     17  CA  ALA Q  15      75.786  62.460  24.003  1.00 45.40 LIG 0.16  C 
ATOM     18  CB  ALA Q  15      76.386  62.534  22.634  1.00 35.52 LIG 0.04  C 
BRANCH 17 19
ATOM     19  C   ALA Q  15      76.870  62.273  25.072  1.00 34.39 LIG 0.22  C 
ATOM     20 O    ALA Q  15      76.670  61.563  26.064  1.00 56.10 LIG-0.29  OA
ENDBRANCH 17 19
ENDBRANCH 14 17
ENDBRANCH 11 13
ENDBRANCH 9 11
ENDBRANCH 5 7
ENDBRANCH 3 5
BRANCH 1 21
ATOM     21  CA  ALA Q  12      71.076  60.959  31.102  1.00 23.65 LIG 0.17  C 
ATOM     22  CB  ALA Q  12      71.823  59.657  30.970  1.00 43.19 LIG 0.04  C 
BRANCH 21 23
ATOM     23  N   ALA Q  12      69.807  60.738  31.751  1.00 32.95 LIG-0.35  N 
ATOM     24  C   ALA Q  11      69.606  61.210  32.972  1.00 38.70 LIG 0.24  C 
ATOM     25 O    ALA Q  11      70.477  61.798  33.600  1.00 30.98 LIG-0.27  OA
ATOM     26 H    ALA Q  12      69.229  60.295  31.292  1.00 32.95 LIG 0.16  HD
BRANCH 24 27
ATOM     27  CA  ALA Q  11      68.233  60.955  33.575  1.00 33.56 LIG 0.17  C 
ATOM     28  CB  ALA Q  11      68.358  59.904  34.658  1.00 29.51 LIG 0.04  C 
BRANCH 27 29
ATOM     29  N   ALA Q  11      67.253  60.548  32.556  1.00 33.00 LIG-0.35  N 
ATOM     30  C   ALA Q  10      66.059  61.137  32.455  1.00 40.76 LIG 0.26  C 
ATOM     31 O    ALA Q  10      65.666  62.006  33.232  1.00 37.65 LIG-0.27  OA
ATOM     32 H    ALA Q  11      67.518  59.909  32.044  1.00 33.00 LIG 0.16  HD
BRANCH 30 33
ATOM     33  CA  ALA Q  10      65.158  60.686  31.316  1.00 39.75 LIG 0.40  C 
ATOM     34  CB  ALA Q  10      63.808  61.376  31.422  1.00 33.57 LIG 0.06  C 
ATOM     35  N   ALA Q  10      64.995  59.241  31.305  1.00 55.55 LIG 0.61  N 
ENDBRANCH 30 33
ENDBRANCH 27 29
ENDBRANCH 24 27
ENDBRANCH 21 23
ENDBRANCH 1 21
TORSDOF 11
ENDMDL
MODEL 13
USER: ADFR SOLUTION from run 7
USER: SCORE 13.094117 LL:  -2.073 LR: -12.090 RR:   0.000 FEB:  -8.808
USER: RMSD 9.530762
USER: SEED 798252
USER: STATUS no improvement in best in 7 clusters for 5 generations
USER: GENES 13
USER: genes 0 Translation |==|  0.55374 0.44842 0.47845
USER: genes 1 Rotation |==|  0.91138 0.71562 0.68498 0.50754
USER: genes 2 Torsion [C]-N--CA-[CB] |==|  0.84565
USER: genes 3 Torsion [N]-CA--C-[N] |==|  0.32222
USER: genes 4 Torsion [C]-N--CA-[CB] |==|  0.14692
USER: genes 5 Torsion [N]-CA--C-[N] |==|  0.17568
USER: genes 6 Torsion [C]-N--CA-[CB] |==|  0.36314
USER: genes 7 Torsion [N]-CA--C-[O] |==|  0.31893
USER: genes 8 Torsion [N]-C--CA-[N] |==|  0.36386
USER: genes 9 Torsion [C]-CA--N-[C] |==|  0.75549
USER: genes 10 Torsion [N]-C--CA-[N] |==|  0.28907
USER: genes 11 Torsion [C]-CA--N-[C] |==|  0.74802
USER: genes 12 Torsion [N]-C--CA-[N] |==|  0.90755
ROOT
ATOM      1  C   ALA Q  12      71.475  63.417  27.985  1.00 25.44 LIG 0.24  C 
ATOM      2 O    ALA Q  12      72.624  63.671  28.317  1.00 27.01 LIG-0.27  OA
ATOM      3  N   ALA Q  13      71.108  63.136  26.740  1.00 26.02 LIG-0.35  N 
ATOM      4 H    ALA Q  13      70.328  62.856  26.510  1.00 26.02 LIG 0.16  HD
ENDROOT
BRANCH 3 5
ATOM      5  CA  ALA Q  13      72.066  63.299  25.631  1.00 27.66 LIG 0.17  C 
ATOM      6  CB  ALA Q  13      72.602  64.730  25.631  1.00 60.60 LIG 0.04  C 
BRANCH 5 7
ATOM      7  C   ALA Q  13      73.223  62.315  25.667  1.00 27.27 LIG 0.24  C 
ATOM      8 O    ALA Q  13      74.063  62.358  26.560  1.00 28.73 LIG-0.27  OA
ATOM      9  N   ALA Q  14      73.277  61.455  24.628  1.00 28.35 LIG-0.35  N 
ATOM     10 H    ALA Q  14      72.648  61.381  24.046  1.00 28.35 LIG 0.16  HD
BRANCH 9 11
ATOM     11  CA  ALA Q  14      74.404  60.569  24.385  1.00 39.95 LIG 0.17  C 
ATOM     12  CB  ALA Q  14      74.713  59.748  25.657  1.00 41.42 LIG 0.04  C 
BRANCH 11 13
ATOM     13  C   ALA Q  14      74.008  59.629  23.231  1.00 39.71 LIG 0.24  C 
ATOM     14  N   ALA Q  15      73.766  60.162  22.042  1.00 43.67 LIG-0.35  N 
ATOM     15 H    ALA Q  15      73.527  59.700  21.357  1.00 43.67 LIG 0.16  HD
ATOM     16 O    ALA Q  14      73.893  58.435  23.423  1.00 40.63 LIG-0.27  OA
BRANCH 14 17
ATOM     17  CA  ALA Q  15      73.879  61.576  21.780  1.00 45.40 LIG 0.16  C 
ATOM     18  CB  ALA Q  15      74.696  61.797  20.546  1.00 35.52 LIG 0.04  C 
BRANCH 17 19
ATOM     19  C   ALA Q  15      72.490  62.210  21.643  1.00 34.39 LIG 0.22  C 
ATOM     20 O    ALA Q  15      72.088  63.046  22.460  1.00 56.10 LIG-0.29  OA
ENDBRANCH 17 19
ENDBRANCH 14 17
ENDBRANCH 11 13
ENDBRANCH 9 11
ENDBRANCH 5 7
ENDBRANCH 3 5
BRANCH 1 21
ATOM     21  CA  ALA Q  12      70.384  63.332  29.032  1.00 23.65 LIG 0.17  C 
ATOM     22  CB  ALA Q  12      70.008  64.699  29.544  1.00 43.19 LIG 0.04  C 
BRANCH 21 23
ATOM     23  N   ALA Q  12      70.939  62.539  30.102  1.00 32.95 LIG-0.35  N 
ATOM     24  C   ALA Q  11      70.820  61.220  30.067  1.00 38.70 LIG 0.24  C 
ATOM     25 O    ALA Q  11      70.215  60.639  29.176  1.00 30.98 LIG-0.27  OA
ATOM     26 H    ALA Q  12      71.331  62.983  30.726  1.00 32.95 LIG 0.16  HD
BRANCH 24 27
ATOM     27  CA  ALA Q  11      71.455  60.456  31.220  1.00 33.56 LIG 0.17  C 
ATOM     28  CB  ALA Q  11      72.261  59.303  30.661  1.00 29.51 LIG 0.04  C 
BRANCH 27 29
ATOM     29  N   ALA Q  11      70.448  59.979  32.181  1.00 33.00 LIG-0.35  N 
ATOM     30  C   ALA Q  10      70.080  60.714  33.234  1.00 40.76 LIG 0.26  C 
ATOM     31 O    ALA Q  10      70.589  61.798  33.513  1.00 37.65 LIG-0.27  OA
ATOM     32 H    ALA Q  11      70.128  59.200  32.004  1.00 33.00 LIG 0.16  HD
BRANCH 30 33
ATOM     33  CA  ALA Q  10      68.976  60.153  34.118  1.00 39.75 LIG 0.40  C 
ATOM     34  CB  ALA Q  10      69.581  59.297  35.218  1.00 33.57 LIG 0.06  C 
ATOM     35  N   ALA Q  10      68.011  59.387  33.343  1.00 55.55 LIG 0.61  N 
ENDBRANCH 30 33
ENDBRANCH 27 29
ENDBRANCH 24 27
ENDBRANCH 21 23
ENDBRANCH 1 21
TORSDOF 11
ENDMDL
MODEL 14
USER: ADFR SOLUTION from run 17
USER: SCORE 12.460046 LL:  -2.106 LR: -12.078 RR:   0.000 FEB:  -8.796
USER: RMSD 4.346924
USER: SEED 16
USER: STATUS no improvement in best in 14 clusters for 5 generations
USER: GENES 13
USER: genes 0 Translation |==|  0.56053 0.46126 0.46436
USER: genes 1 Rotation |==|  0.66216 0.47678 0.34794 0.94726
USER: genes 2 Torsion [C]-N--CA-[CB] |==|  0.53511
USER: genes 3 Torsion [N]-CA--C-[N] |==|  0.30807
USER: genes 4 Torsion [C]-N--CA-[CB] |==|  0.49181
USER: genes 5 Torsion [N]-CA--C-[N] |==|  0.46074
USER: genes 6 Torsion [C]-N--CA-[CB] |==|  0.36206
USER: genes 7 Torsion [N]-CA--C-[O] |==|  0.90932
USER: genes 8 Torsion [N]-C--CA-[N] |==|  0.74002
USER: genes 9 Torsion [C]-CA--N-[C] |==|  0.67745
USER: genes 10 Torsion [N]-C--CA-[N] |==|  0.35903
USER: genes 11 Torsion [C]-CA--N-[C] |==|  0.84104
USER: genes 12 Torsion [N]-C--CA-[N] |==|  0.67521
ROOT
ATOM      1  C   ALA Q  12      71.587  63.668  27.699  1.00 25.44 LIG 0.24  C 
ATOM      2 O    ALA Q  12      72.461  63.371  28.501  1.00 27.01 LIG-0.27  OA
ATOM      3  N   ALA Q  13      70.289  63.650  27.978  1.00 26.02 LIG-0.35  N 
ATOM      4 H    ALA Q  13      69.672  63.953  27.461  1.00 26.02 LIG 0.16  HD
ENDROOT
BRANCH 3 5
ATOM      5  CA  ALA Q  13      69.813  63.080  29.252  1.00 27.66 LIG 0.17  C 
ATOM      6  CB  ALA Q  13      68.297  62.895  29.189  1.00 60.60 LIG 0.04  C 
BRANCH 5 7
ATOM      7  C   ALA Q  13      70.477  61.767  29.626  1.00 27.27 LIG 0.24  C 
ATOM      8 O    ALA Q  13      70.219  60.731  29.020  1.00 28.73 LIG-0.27  OA
ATOM      9  N   ALA Q  14      71.304  61.824  30.692  1.00 28.35 LIG-0.35  N 
ATOM     10 H    ALA Q  14      71.537  62.563  31.066  1.00 28.35 LIG 0.16  HD
BRANCH 9 11
ATOM     11  CA  ALA Q  14      71.883  60.645  31.315  1.00 39.95 LIG 0.17  C 
ATOM     12  CB  ALA Q  14      72.836  61.067  32.457  1.00 41.42 LIG 0.04  C 
BRANCH 11 13
ATOM     13  C   ALA Q  14      70.720  59.806  31.878  1.00 39.71 LIG 0.24  C 
ATOM     14  N   ALA Q  15      70.966  58.555  32.240  1.00 43.67 LIG-0.35  N 
ATOM     15 H    ALA Q  15      70.363  58.025  32.549  1.00 43.67 LIG 0.16  HD
ATOM     16 O    ALA Q  14      69.603  60.279  31.955  1.00 40.63 LIG-0.27  OA
BRANCH 14 17
ATOM     17  CA  ALA Q  15      72.275  57.957  32.150  1.00 45.40 LIG 0.16  C 
ATOM     18  CB  ALA Q  15      72.620  57.298  33.449  1.00 35.52 LIG 0.04  C 
BRANCH 17 19
ATOM     19  C   ALA Q  15      72.330  56.954  30.991  1.00 34.39 LIG 0.22  C 
ATOM     20 O    ALA Q  15      71.332  56.297  30.671  1.00 56.10 LIG-0.29  OA
ENDBRANCH 17 19
ENDBRANCH 14 17
ENDBRANCH 11 13
ENDBRANCH 9 11
ENDBRANCH 5 7
ENDBRANCH 3 5
BRANCH 1 21
ATOM     21  CA  ALA Q  12      71.961  64.164  26.318  1.00 23.65 LIG 0.17  C 
ATOM     22  CB  ALA Q  12      70.911  65.095  25.768  1.00 43.19 LIG 0.04  C 
BRANCH 21 23
ATOM     23  N   ALA Q  12      72.052  62.981  25.496  1.00 32.95 LIG-0.35  N 
ATOM     24  C   ALA Q  11      73.217  62.645  24.964  1.00 38.70 LIG 0.24  C 
ATOM     25 O    ALA Q  11      74.225  63.325  25.105  1.00 30.98 LIG-0.27  OA
ATOM     26 H    ALA Q  12      71.318  62.545  25.395  1.00 32.95 LIG 0.16  HD
BRANCH 24 27
ATOM     27  CA  ALA Q  11      73.234  61.371  24.132  1.00 33.56 LIG 0.17  C 
ATOM     28  CB  ALA Q  11      73.963  60.290  24.902  1.00 29.51 LIG 0.04  C 
BRANCH 27 29
ATOM     29  N   ALA Q  11      73.850  61.586  22.813  1.00 33.00 LIG-0.35  N 
ATOM     30  C   ALA Q  10      73.385  62.505  21.963  1.00 40.76 LIG 0.26  C 
ATOM     31 O    ALA Q  10      72.386  63.186  22.184  1.00 37.65 LIG-0.27  OA
ATOM     32 H    ALA Q  11      74.523  61.075  22.647  1.00 33.00 LIG 0.16  HD
BRANCH 30 33
ATOM     33  CA  ALA Q  10      74.148  62.692  20.660  1.00 39.75 LIG 0.40  C 
ATOM     34  CB  ALA Q  10      75.240  61.641  20.546  1.00 33.57 LIG 0.06  C 
ATOM     35  N   ALA Q  10      74.711  64.030  20.559  1.00 55.55 LIG 0.61  N 
ENDBRANCH 30 33
ENDBRANCH 27 29
ENDBRANCH 24 27
ENDBRANCH 21 23
ENDBRANCH 1 21
TORSDOF 11
ENDMDL
MODEL 15
USER: ADFR SOLUTION from run 8
USER: SCORE 11.004933 LL:  -2.131 LR: -12.061 RR:   0.000 FEB:  -8.780
USER: RMSD 9.874955
USER: SEED 918529
USER: STATUS no improvement in best in 16 clusters for 5 generations
USER: GENES 13
USER: genes 0 Translation |==|  0.51130 0.36314 0.56461
USER: genes 1 Rotation |==|  0.84105 0.13485 0.48149 0.50235
USER: genes 2 Torsion [C]-N--CA-[CB] |==|  0.33266
USER: genes 3 Torsion [N]-CA--C-[N] |==|  0.32455
USER: genes 4 Torsion [C]-N--CA-[CB] |==|  0.18346
USER: genes 5 Torsion [N]-CA--C-[N] |==|  0.44174
USER: genes 6 Torsion [C]-N--CA-[CB] |==|  0.41604
USER: genes 7 Torsion [N]-CA--C-[O] |==|  0.07555
USER: genes 8 Torsion [N]-C--CA-[N] |==|  0.40885
USER: genes 9 Torsion [C]-CA--N-[C] |==|  0.59040
USER: genes 10 Torsion [N]-C--CA-[N] |==|  0.92319
USER: genes 11 Torsion [C]-CA--N-[C] |==|  0.77272
USER: genes 12 Torsion [N]-C--CA-[N] |==|  0.16391
ROOT
ATOM      1  C   ALA Q  12      70.774  61.754  29.729  1.00 25.44 LIG 0.24  C 
ATOM      2 O    ALA Q  12      69.933  61.046  29.194  1.00 27.01 LIG-0.27  OA
ATOM      3  N   ALA Q  13      71.321  62.819  29.154  1.00 26.02 LIG-0.35  N 
ATOM      4 H    ALA Q  13      71.833  63.383  29.554  1.00 26.02 LIG 0.16  HD
ENDROOT
BRANCH 3 5
ATOM      5  CA  ALA Q  13      71.067  63.104  27.730  1.00 27.66 LIG 0.17  C 
ATOM      6  CB  ALA Q  13      70.392  64.468  27.600  1.00 60.60 LIG 0.04  C 
BRANCH 5 7
ATOM      7  C   ALA Q  13      72.311  63.059  26.861  1.00 27.27 LIG 0.24  C 
ATOM      8 O    ALA Q  13      73.212  63.881  27.003  1.00 28.73 LIG-0.27  OA
ATOM      9  N   ALA Q  14      72.311  62.105  25.907  1.00 28.35 LIG-0.35  N 
ATOM     10 H    ALA Q  14      71.714  61.488  25.859  1.00 28.35 LIG 0.16  HD
BRANCH 9 11
ATOM     11  CA  ALA Q  14      73.320  62.022  24.863  1.00 39.95 LIG 0.17  C 
ATOM     12  CB  ALA Q  14      74.696  61.690  25.484  1.00 41.42 LIG 0.04  C 
BRANCH 11 13
ATOM     13  C   ALA Q  14      72.890  60.900  23.898  1.00 39.71 LIG 0.24  C 
ATOM     14  N   ALA Q  15      73.388  60.903  22.670  1.00 43.67 LIG-0.35  N 
ATOM     15 H    ALA Q  15      73.183  60.316  22.075  1.00 43.67 LIG 0.16  HD
ATOM     16 O    ALA Q  14      72.090  60.057  24.254  1.00 40.63 LIG-0.27  OA
BRANCH 14 17
ATOM     17  CA  ALA Q  15      74.329  61.894  22.209  1.00 45.40 LIG 0.16  C 
ATOM     18  CB  ALA Q  15      75.228  61.294  21.173  1.00 35.52 LIG 0.04  C 
BRANCH 17 19
ATOM     19  C   ALA Q  15      73.591  63.119  21.657  1.00 34.39 LIG 0.22  C 
ATOM     20 O    ALA Q  15      72.463  63.419  22.063  1.00 56.10 LIG-0.29  OA
ENDBRANCH 17 19
ENDBRANCH 14 17
ENDBRANCH 11 13
ENDBRANCH 9 11
ENDBRANCH 5 7
ENDBRANCH 3 5
BRANCH 1 21
ATOM     21  CA  ALA Q  12      71.193  61.486  31.160  1.00 23.65 LIG 0.17  C 
ATOM     22  CB  ALA Q  12      72.354  60.527  31.220  1.00 43.19 LIG 0.04  C 
BRANCH 21 23
ATOM     23  N   ALA Q  12      70.037  60.902  31.796  1.00 32.95 LIG-0.35  N 
ATOM     24  C   ALA Q  11      69.811  61.133  33.080  1.00 38.70 LIG 0.24  C 
ATOM     25 O    ALA Q  11      70.574  61.795  33.772  1.00 30.98 LIG-0.27  OA
ATOM     26 H    ALA Q  12      69.539  60.419  31.286  1.00 32.95 LIG 0.16  HD
BRANCH 24 27
ATOM     27  CA  ALA Q  11      68.558  60.502  33.668  1.00 33.56 LIG 0.17  C 
ATOM     28  CB  ALA Q  11      68.928  59.188  34.320  1.00 29.51 LIG 0.04  C 
BRANCH 27 29
ATOM     29  N   ALA Q  11      67.512  60.311  32.651  1.00 33.00 LIG-0.35  N 
ATOM     30  C   ALA Q  10      66.702  61.306  32.281  1.00 40.76 LIG 0.26  C 
ATOM     31 O    ALA Q  10      66.724  62.422  32.797  1.00 37.65 LIG-0.27  OA
ATOM     32 H    ALA Q  11      67.474  59.515  32.326  1.00 33.00 LIG 0.16  HD
BRANCH 30 33
ATOM     33  CA  ALA Q  10      65.709  61.013  31.167  1.00 39.75 LIG 0.40  C 
ATOM     34  CB  ALA Q  10      64.910  62.265  30.845  1.00 33.57 LIG 0.06  C 
ATOM     35  N   ALA Q  10      64.822  59.915  31.519  1.00 55.55 LIG 0.61  N 
ENDBRANCH 30 33
ENDBRANCH 27 29
ENDBRANCH 24 27
ENDBRANCH 21 23
ENDBRANCH 1 21
TORSDOF 11
ENDMDL
MODEL 16
USER: ADFR SOLUTION from run 55
USER: SCORE 13.351571 LL:  -2.020 LR: -11.975 RR:   0.000 FEB:  -8.694
USER: RMSD 4.192260
USER: SEED 54
USER: STATUS no improvement in best in 8 clusters for 5 generations
USER: GENES 13
USER: genes 0 Translation |==|  0.55910 0.38071 0.50182
USER: genes 1 Rotation |==|  0.33697 0.42284 0.96519 0.53267
USER: genes 2 Torsion [C]-N--CA-[CB] |==|  0.86571
USER: genes 3 Torsion [N]-CA--C-[N] |==|  0.36723
USER: genes 4 Torsion [C]-N--CA-[CB] |==|  0.14083
USER: genes 5 Torsion [N]-CA--C-[N] |==|  0.16048
USER: genes 6 Torsion [C]-N--CA-[CB] |==|  0.34942
USER: genes 7 Torsion [N]-CA--C-[O] |==|  0.30330
USER: genes 8 Torsion [N]-C--CA-[N] |==|  0.41991
USER: genes 9 Torsion [C]-CA--N-[C] |==|  0.60150
USER: genes 10 Torsion [N]-C--CA-[N] |==|  0.39653
USER: genes 11 Torsion [C]-CA--N-[C] |==|  0.80532
USER: genes 12 Torsion [N]-C--CA-[N] |==|  0.63546
ROOT
ATOM      1  C   ALA Q  12      71.563  62.097  28.458  1.00 25.44 LIG 0.24  C 
ATOM      2 O    ALA Q  12      70.590  61.423  28.151  1.00 27.01 LIG-0.27  OA
ATOM      3  N   ALA Q  13      72.038  62.193  29.694  1.00 26.02 LIG-0.35  N 
ATOM      4 H    ALA Q  13      72.778  62.577  29.906  1.00 26.02 LIG 0.16  HD
ENDROOT
BRANCH 3 5
ATOM      5  CA  ALA Q  13      71.286  61.618  30.824  1.00 27.66 LIG 0.17  C 
ATOM      6  CB  ALA Q  13      69.825  62.057  30.734  1.00 60.60 LIG 0.04  C 
BRANCH 5 7
ATOM      7  C   ALA Q  13      71.364  60.103  30.909  1.00 27.27 LIG 0.24  C 
ATOM      8 O    ALA Q  13      71.124  59.400  29.932  1.00 28.73 LIG-0.27  OA
ATOM      9  N   ALA Q  14      71.651  59.612  32.133  1.00 28.35 LIG-0.35  N 
ATOM     10 H    ALA Q  14      71.889  60.107  32.794  1.00 28.35 LIG 0.16  HD
BRANCH 9 11
ATOM     11  CA  ALA Q  14      71.585  58.196  32.458  1.00 39.95 LIG 0.17  C 
ATOM     12  CB  ALA Q  14      72.378  57.377  31.414  1.00 41.42 LIG 0.04  C 
BRANCH 11 13
ATOM     13  C   ALA Q  14      72.210  58.017  33.855  1.00 39.71 LIG 0.24  C 
ATOM     14  N   ALA Q  15      71.686  58.693  34.868  1.00 43.67 LIG-0.35  N 
ATOM     15 H    ALA Q  15      71.990  58.652  35.671  1.00 43.67 LIG 0.16  HD
ATOM     16 O    ALA Q  14      73.177  57.298  34.008  1.00 40.63 LIG-0.27  OA
BRANCH 14 17
ATOM     17  CA  ALA Q  15      70.547  59.565  34.721  1.00 45.40 LIG 0.16  C 
ATOM     18  CB  ALA Q  15      69.481  59.173  35.696  1.00 35.52 LIG 0.04  C 
BRANCH 17 19
ATOM     19  C   ALA Q  15      70.962  61.028  34.918  1.00 34.39 LIG 0.22  C 
ATOM     20 O    ALA Q  15      70.992  61.814  33.964  1.00 56.10 LIG-0.29  OA
ENDBRANCH 17 19
ENDBRANCH 14 17
ENDBRANCH 11 13
ENDBRANCH 9 11
ENDBRANCH 5 7
ENDBRANCH 3 5
BRANCH 1 21
ATOM     21  CA  ALA Q  12      72.350  62.822  27.387  1.00 23.65 LIG 0.17  C 
ATOM     22  CB  ALA Q  12      71.867  64.240  27.217  1.00 43.19 LIG 0.04  C 
BRANCH 21 23
ATOM     23  N   ALA Q  12      72.128  62.075  26.173  1.00 32.95 LIG-0.35  N 
ATOM     24  C   ALA Q  11      73.113  61.940  25.299  1.00 38.70 LIG 0.24  C 
ATOM     25 O    ALA Q  11      74.208  62.465  25.457  1.00 30.98 LIG-0.27  OA
ATOM     26 H    ALA Q  12      71.338  61.746  26.082  1.00 32.95 LIG 0.16  HD
BRANCH 24 27
ATOM     27  CA  ALA Q  11      72.805  61.117  24.057  1.00 33.56 LIG 0.17  C 
ATOM     28  CB  ALA Q  11      73.237  59.686  24.296  1.00 29.51 LIG 0.04  C 
BRANCH 27 29
ATOM     29  N   ALA Q  11      73.451  61.671  22.857  1.00 33.00 LIG-0.35  N 
ATOM     30  C   ALA Q  10      73.051  62.822  22.312  1.00 40.76 LIG 0.26  C 
ATOM     31 O    ALA Q  10      72.088  63.466  22.725  1.00 37.65 LIG-0.27  OA
ATOM     32 H    ALA Q  11      74.097  61.192  22.549  1.00 33.00 LIG 0.16  HD
BRANCH 30 33
ATOM     33  CA  ALA Q  10      73.843  63.336  21.119  1.00 39.75 LIG 0.40  C 
ATOM     34  CB  ALA Q  10      75.087  62.487  20.922  1.00 33.57 LIG 0.06  C 
ATOM     35  N   ALA Q  10      74.198  64.738  21.279  1.00 55.55 LIG 0.61  N 
ENDBRANCH 30 33
ENDBRANCH 27 29
ENDBRANCH 24 27
ENDBRANCH 21 23
ENDBRANCH 1 21
TORSDOF 11
ENDMDL
MODEL 17
USER: ADFR SOLUTION from run 79
USER: SCORE 12.602631 LL:  -2.053 LR: -11.927 RR:   0.000 FEB:  -8.645
USER: RMSD 4.333760
USER: SEED 78
USER: STATUS no improvement in best in 7 clusters for 5 generations
USER: GENES 13
USER: genes 0 Translation |==|  0.48114 0.41313 0.53438
USER: genes 1 Rotation |==|  0.69685 0.58119 0.06968 0.63959
USER: genes 2 Torsion [C]-N--CA-[CB] |==|  0.88830
USER: genes 3 Torsion [N]-CA--C-[N] |==|  0.34302
USER: genes 4 Torsion [C]-N--CA-[CB] |==|  0.49444
USER: genes 5 Torsion [N]-CA--C-[N] |==|  0.30789
USER: genes 6 Torsion [C]-N--CA-[CB] |==|  0.25228
USER: genes 7 Torsion [N]-CA--C-[O] |==|  0.02971
USER: genes 8 Torsion [N]-C--CA-[N] |==|  0.42733
USER: genes 9 Torsion [C]-CA--N-[C] |==|  0.62556
USER: genes 10 Torsion [N]-C--CA-[N] |==|  0.39672
USER: genes 11 Torsion [C]-CA--N-[C] |==|  0.76161
USER: genes 12 Torsion [N]-C--CA-[N] |==|  0.81072
ROOT
ATOM      1  C   ALA Q  12      70.277  62.729  29.117  1.00 25.44 LIG 0.24  C 
ATOM      2 O    ALA Q  12      69.995  61.578  28.816  1.00 27.01 LIG-0.27  OA
ATOM      3  N   ALA Q  13      70.193  63.214  30.351  1.00 26.02 LIG-0.35  N 
ATOM      4 H    ALA Q  13      70.485  63.985  30.594  1.00 26.02 LIG 0.16  HD
ENDROOT
BRANCH 3 5
ATOM      5  CA  ALA Q  13      69.565  62.415  31.419  1.00 27.66 LIG 0.17  C 
ATOM      6  CB  ALA Q  13      68.331  61.707  30.862  1.00 60.60 LIG 0.04  C 
BRANCH 5 7
ATOM      7  C   ALA Q  13      70.497  61.401  32.059  1.00 27.27 LIG 0.24  C 
ATOM      8 O    ALA Q  13      71.028  60.519  31.391  1.00 28.73 LIG-0.27  OA
ATOM      9  N   ALA Q  14      70.637  61.514  33.397  1.00 28.35 LIG-0.35  N 
ATOM     10 H    ALA Q  14      70.323  62.175  33.848  1.00 28.35 LIG 0.16  HD
BRANCH 9 11
ATOM     11  CA  ALA Q  14      71.331  60.529  34.211  1.00 39.95 LIG 0.17  C 
ATOM     12  CB  ALA Q  14      71.352  60.986  35.688  1.00 41.42 LIG 0.04  C 
BRANCH 11 13
ATOM     13  C   ALA Q  14      70.562  59.200  34.079  1.00 39.71 LIG 0.24  C 
ATOM     14  N   ALA Q  15      71.140  58.204  33.423  1.00 43.67 LIG-0.35  N 
ATOM     15 H    ALA Q  15      70.765  57.440  33.299  1.00 43.67 LIG 0.16  HD
ATOM     16 O    ALA Q  14      69.443  59.090  34.539  1.00 40.63 LIG-0.27  OA
BRANCH 14 17
ATOM     17  CA  ALA Q  15      72.460  58.304  32.851  1.00 45.40 LIG 0.16  C 
ATOM     18  CB  ALA Q  15      73.478  57.850  33.850  1.00 35.52 LIG 0.04  C 
BRANCH 17 19
ATOM     19  C   ALA Q  15      72.550  57.483  31.560  1.00 34.39 LIG 0.22  C 
ATOM     20 O    ALA Q  15      71.536  57.014  31.032  1.00 56.10 LIG-0.29  OA
ENDBRANCH 17 19
ENDBRANCH 14 17
ENDBRANCH 11 13
ENDBRANCH 9 11
ENDBRANCH 5 7
ENDBRANCH 3 5
BRANCH 1 21
ATOM     21  CA  ALA Q  12      70.830  63.673  28.070  1.00 23.65 LIG 0.17  C 
ATOM     22  CB  ALA Q  12      69.742  64.531  27.476  1.00 43.19 LIG 0.04  C 
BRANCH 21 23
ATOM     23  N   ALA Q  12      71.403  62.826  27.053  1.00 32.95 LIG-0.35  N 
ATOM     24  C   ALA Q  11      72.598  63.113  26.560  1.00 38.70 LIG 0.24  C 
ATOM     25 O    ALA Q  11      73.229  64.104  26.904  1.00 30.98 LIG-0.27  OA
ATOM     26 H    ALA Q  12      70.918  62.156  26.814  1.00 32.95 LIG 0.16  HD
BRANCH 24 27
ATOM     27  CA  ALA Q  11      73.141  62.156  25.509  1.00 33.56 LIG 0.17  C 
ATOM     28  CB  ALA Q  11      74.012  61.122  26.189  1.00 29.51 LIG 0.04  C 
BRANCH 27 29
ATOM     29  N   ALA Q  11      73.886  62.864  24.456  1.00 33.00 LIG-0.35  N 
ATOM     30  C   ALA Q  10      73.272  63.389  23.393  1.00 40.76 LIG 0.26  C 
ATOM     31 O    ALA Q  10      72.066  63.268  23.182  1.00 37.65 LIG-0.27  OA
ATOM     32 H    ALA Q  11      74.736  62.906  24.589  1.00 33.00 LIG 0.16  HD
BRANCH 30 33
ATOM     33  CA  ALA Q  10      74.133  64.164  22.407  1.00 39.75 LIG 0.40  C 
ATOM     34  CB  ALA Q  10      75.287  63.294  21.936  1.00 33.57 LIG 0.06  C 
ATOM     35  N   ALA Q  10      74.628  65.401  22.991  1.00 55.55 LIG 0.61  N 
ENDBRANCH 30 33
ENDBRANCH 27 29
ENDBRANCH 24 27
ENDBRANCH 21 23
ENDBRANCH 1 21
TORSDOF 11
ENDMDL
MODEL 18
USER: ADFR SOLUTION from run 180
USER: SCORE 12.020746 LL:  -2.038 LR: -11.834 RR:   0.000 FEB:  -8.552
USER: RMSD 4.803655
USER: SEED 179
USER: STATUS no improvement in best in 6 clusters for 5 generations
USER: GENES 13
USER: genes 0 Translation |==|  0.50248 0.37826 0.54401
USER: genes 1 Rotation |==|  0.64873 0.70569 0.07783 0.58567
USER: genes 2 Torsion [C]-N--CA-[CB] |==|  0.18119
USER: genes 3 Torsion [N]-CA--C-[N] |==|  0.52783
USER: genes 4 Torsion [C]-N--CA-[CB] |==|  0.80473
USER: genes 5 Torsion [N]-CA--C-[N] |==|  0.22833
USER: genes 6 Torsion [C]-N--CA-[CB] |==|  0.41065
USER: genes 7 Torsion [N]-CA--C-[O] |==|  0.91597
USER: genes 8 Torsion [N]-C--CA-[N] |==|  0.41967
USER: genes 9 Torsion [C]-CA--N-[C] |==|  0.62390
USER: genes 10 Torsion [N]-C--CA-[N] |==|  0.85151
USER: genes 11 Torsion [C]-CA--N-[C] |==|  0.71813
USER: genes 12 Torsion [N]-C--CA-[N] |==|  0.23772
ROOT
ATOM      1  C   ALA Q  12      70.629  62.049  29.312  1.00 25.44 LIG 0.24  C 
ATOM      2 O    ALA Q  12      70.233  61.120  28.621  1.00 27.01 LIG-0.27  OA
ATOM      3  N   ALA Q  13      70.964  61.931  30.592  1.00 26.02 LIG-0.35  N 
ATOM      4 H    ALA Q  13      71.340  62.548  31.058  1.00 26.02 LIG 0.16  HD
ENDROOT
BRANCH 3 5
ATOM      5  CA  ALA Q  13      70.696  60.674  31.314  1.00 27.66 LIG 0.17  C 
ATOM      6  CB  ALA Q  13      71.541  59.553  30.711  1.00 60.60 LIG 0.04  C 
BRANCH 5 7
ATOM      7  C   ALA Q  13      70.944  60.758  32.810  1.00 27.27 LIG 0.24  C 
ATOM      8 O    ALA Q  13      71.207  61.830  33.349  1.00 28.73 LIG-0.27  OA
ATOM      9  N   ALA Q  14      70.913  59.579  33.465  1.00 28.35 LIG-0.35  N 
ATOM     10 H    ALA Q  14      70.657  58.844  33.097  1.00 28.35 LIG 0.16  HD
BRANCH 9 11
ATOM     11  CA  ALA Q  14      71.308  59.428  34.856  1.00 39.95 LIG 0.17  C 
ATOM     12  CB  ALA Q  14      72.838  59.601  34.991  1.00 41.42 LIG 0.04  C 
BRANCH 11 13
ATOM     13  C   ALA Q  14      70.579  60.521  35.660  1.00 39.71 LIG 0.24  C 
ATOM     14  N   ALA Q  15      69.326  60.298  36.030  1.00 43.67 LIG-0.35  N 
ATOM     15 H    ALA Q  15      68.854  60.868  36.468  1.00 43.67 LIG 0.16  HD
ATOM     16 O    ALA Q  14      71.136  61.570  35.917  1.00 40.63 LIG-0.27  OA
BRANCH 14 17
ATOM     17  CA  ALA Q  15      68.628  59.072  35.731  1.00 45.40 LIG 0.16  C 
ATOM     18  CB  ALA Q  15      67.657  58.763  36.827  1.00 35.52 LIG 0.04  C 
BRANCH 17 19
ATOM     19  C   ALA Q  15      67.917  59.174  34.376  1.00 34.39 LIG 0.22  C 
ATOM     20 O    ALA Q  15      67.500  60.260  33.957  1.00 56.10 LIG-0.29  OA
ENDBRANCH 17 19
ENDBRANCH 14 17
ENDBRANCH 11 13
ENDBRANCH 9 11
ENDBRANCH 5 7
ENDBRANCH 3 5
BRANCH 1 21
ATOM     21  CA  ALA Q  12      70.837  63.416  28.696  1.00 23.65 LIG 0.17  C 
ATOM     22  CB  ALA Q  12      69.613  64.282  28.857  1.00 43.19 LIG 0.04  C 
BRANCH 21 23
ATOM     23  N   ALA Q  12      71.090  63.174  27.297  1.00 32.95 LIG-0.35  N 
ATOM     24  C   ALA Q  11      72.075  63.819  26.689  1.00 38.70 LIG 0.24  C 
ATOM     25 O    ALA Q  11      72.763  64.655  27.261  1.00 30.98 LIG-0.27  OA
ATOM     26 H    ALA Q  12      70.568  62.602  26.921  1.00 32.95 LIG 0.16  HD
BRANCH 24 27
ATOM     27  CA  ALA Q  11      72.292  63.487  25.221  1.00 33.56 LIG 0.17  C 
ATOM     28  CB  ALA Q  11      71.132  64.033  24.416  1.00 29.51 LIG 0.04  C 
BRANCH 27 29
ATOM     29  N   ALA Q  11      72.451  62.040  25.003  1.00 33.00 LIG-0.35  N 
ATOM     30  C   ALA Q  10      73.652  61.486  24.817  1.00 40.76 LIG 0.26  C 
ATOM     31 O    ALA Q  10      74.693  62.137  24.751  1.00 37.65 LIG-0.27  OA
ATOM     32 H    ALA Q  11      71.713  61.598  25.007  1.00 33.00 LIG 0.16  HD
BRANCH 30 33
ATOM     33  CA  ALA Q  10      73.702  59.972  24.678  1.00 39.75 LIG 0.40  C 
ATOM     34  CB  ALA Q  10      75.042  59.453  25.171  1.00 33.57 LIG 0.06  C 
ATOM     35  N   ALA Q  10      73.464  59.555  23.305  1.00 55.55 LIG 0.61  N 
ENDBRANCH 30 33
ENDBRANCH 27 29
ENDBRANCH 24 27
ENDBRANCH 21 23
ENDBRANCH 1 21
TORSDOF 11
ENDMDL
MODEL 19
USER: ADFR SOLUTION from run 17
USER: SCORE 12.009432 LL:  -1.826 LR: -11.781 RR:   0.000 FEB:  -8.499
USER: RMSD 10.251440
USER: SEED 16
USER: STATUS no improvement in best in 14 clusters for 5 generations
USER: GENES 13
USER: genes 0 Translation |==|  0.58806 0.43007 0.43770
USER: genes 1 Rotation |==|  0.82225 0.80396 0.72233 0.56585
USER: genes 2 Torsion [C]-N--CA-[CB] |==|  0.18401
USER: genes 3 Torsion [N]-CA--C-[N] |==|  0.52525
USER: genes 4 Torsion [C]-N--CA-[CB] |==|  0.78776
USER: genes 5 Torsion [N]-CA--C-[N] |==|  0.20291
USER: genes 6 Torsion [C]-N--CA-[CB] |==|  0.40245
USER: genes 7 Torsion [N]-CA--C-[O] |==|  0.98997
USER: genes 8 Torsion [N]-C--CA-[N] |==|  0.39225
USER: genes 9 Torsion [C]-CA--N-[C] |==|  0.64231
USER: genes 10 Torsion [N]-C--CA-[N] |==|  0.42581
USER: genes 11 Torsion [C]-CA--N-[C] |==|  0.55215
USER: genes 12 Torsion [N]-C--CA-[N] |==|  0.00555
ROOT
ATOM      1  C   ALA Q  12      72.041  63.059  27.159  1.00 25.44 LIG 0.24  C 
ATOM      2 O    ALA Q  12      72.842  63.801  27.711  1.00 27.01 LIG-0.27  OA
ATOM      3  N   ALA Q  13      72.282  62.427  26.017  1.00 26.02 LIG-0.35  N 
ATOM      4 H    ALA Q  13      71.772  61.825  25.673  1.00 26.02 LIG 0.16  HD
ENDROOT
BRANCH 3 5
ATOM      5  CA  ALA Q  13      73.495  62.738  25.240  1.00 27.66 LIG 0.17  C 
ATOM      6  CB  ALA Q  13      74.728  62.301  26.030  1.00 60.60 LIG 0.04  C 
BRANCH 5 7
ATOM      7  C   ALA Q  13      73.520  62.110  23.857  1.00 27.27 LIG 0.24  C 
ATOM      8 O    ALA Q  13      72.545  61.507  23.418  1.00 28.73 LIG-0.27  OA
ATOM      9  N   ALA Q  14      74.693  62.216  23.199  1.00 28.35 LIG-0.35  N 
ATOM     10 H    ALA Q  14      75.346  62.701  23.478  1.00 28.35 LIG 0.16  HD
BRANCH 9 11
ATOM     11  CA  ALA Q  14      74.973  61.523  21.952  1.00 39.95 LIG 0.17  C 
ATOM     12  CB  ALA Q  14      75.269  60.032  22.232  1.00 41.42 LIG 0.04  C 
BRANCH 11 13
ATOM     13  C   ALA Q  14      73.721  61.656  21.062  1.00 39.71 LIG 0.24  C 
ATOM     14  N   ALA Q  15      73.466  62.834  20.511  1.00 43.67 LIG-0.35  N 
ATOM     15 H    ALA Q  15      72.780  62.985  20.015  1.00 43.67 LIG 0.16  HD
ATOM     16 O    ALA Q  14      72.978  60.709  20.903  1.00 40.63 LIG-0.27  OA
BRANCH 14 17
ATOM     17  CA  ALA Q  15      74.318  63.984  20.690  1.00 45.40 LIG 0.16  C 
ATOM     18  CB  ALA Q  15      74.338  64.798  19.435  1.00 35.52 LIG 0.04  C 
BRANCH 17 19
ATOM     19  C   ALA Q  15      73.846  64.822  21.884  1.00 34.39 LIG 0.22  C 
ATOM     20 O    ALA Q  15      72.822  64.522  22.507  1.00 56.10 LIG-0.29  OA
ENDBRANCH 17 19
ENDBRANCH 14 17
ENDBRANCH 11 13
ENDBRANCH 9 11
ENDBRANCH 5 7
ENDBRANCH 3 5
BRANCH 1 21
ATOM     21  CA  ALA Q  12      70.713  62.754  27.819  1.00 23.65 LIG 0.17  C 
ATOM     22  CB  ALA Q  12      69.697  63.830  27.529  1.00 43.19 LIG 0.04  C 
BRANCH 21 23
ATOM     23  N   ALA Q  12      70.988  62.702  29.234  1.00 32.95 LIG-0.35  N 
ATOM     24  C   ALA Q  11      70.588  61.656  29.940  1.00 38.70 LIG 0.24  C 
ATOM     25 O    ALA Q  11      69.948  60.736  29.445  1.00 30.98 LIG-0.27  OA
ATOM     26 H    ALA Q  12      71.413  63.379  29.552  1.00 32.95 LIG 0.16  HD
BRANCH 24 27
ATOM     27  CA  ALA Q  11      70.940  61.667  31.420  1.00 33.56 LIG 0.17  C 
ATOM     28  CB  ALA Q  11      72.352  61.150  31.593  1.00 29.51 LIG 0.04  C 
BRANCH 27 29
ATOM     29  N   ALA Q  11      69.988  60.877  32.216  1.00 33.00 LIG-0.35  N 
ATOM     30  C   ALA Q  10      69.874  61.038  33.537  1.00 40.76 LIG 0.26  C 
ATOM     31 O    ALA Q  10      70.587  61.798  34.189  1.00 37.65 LIG-0.27  OA
ATOM     32 H    ALA Q  11      69.522  60.315  31.759  1.00 33.00 LIG 0.16  HD
BRANCH 30 33
ATOM     33  CA  ALA Q  10      68.803  60.222  34.244  1.00 39.75 LIG 0.40  C 
ATOM     34  CB  ALA Q  10      69.428  59.417  35.372  1.00 33.57 LIG 0.06  C 
ATOM     35  N   ALA Q  10      68.101  59.346  33.318  1.00 55.55 LIG 0.61  N 
ENDBRANCH 30 33
ENDBRANCH 27 29
ENDBRANCH 24 27
ENDBRANCH 21 23
ENDBRANCH 1 21
TORSDOF 11
ENDMDL
MODEL 20
USER: ADFR SOLUTION from run 62
USER: SCORE 12.063055 LL:  -2.277 LR: -11.760 RR:   0.000 FEB:  -8.479
USER: RMSD 3.465013
USER: SEED 61
USER: STATUS no improvement in best in 4 clusters for 5 generations
USER: GENES 13
USER: genes 0 Translation |==|  0.59276 0.41014 0.45325
USER: genes 1 Rotation |==|  0.51590 0.43835 0.47060 0.99506
USER: genes 2 Torsion [C]-N--CA-[CB] |==|  0.43889
USER: genes 3 Torsion [N]-CA--C-[N] |==|  0.35609
USER: genes 4 Torsion [C]-N--CA-[CB] |==|  0.52069
USER: genes 5 Torsion [N]-CA--C-[N] |==|  0.37926
USER: genes 6 Torsion [C]-N--CA-[CB] |==|  0.37996
USER: genes 7 Torsion [N]-CA--C-[O] |==|  0.30890
USER: genes 8 Torsion [N]-C--CA-[N] |==|  0.34303
USER: genes 9 Torsion [C]-CA--N-[C] |==|  0.80046
USER: genes 10 Torsion [N]-C--CA-[N] |==|  0.12558
USER: genes 11 Torsion [C]-CA--N-[C] |==|  0.13861
USER: genes 12 Torsion [N]-C--CA-[N] |==|  0.28208
ROOT
ATOM      1  C   ALA Q  12      72.119  62.671  27.474  1.00 25.44 LIG 0.24  C 
ATOM      2 O    ALA Q  12      72.824  63.297  28.253  1.00 27.01 LIG-0.27  OA
ATOM      3  N   ALA Q  13      70.882  62.272  27.751  1.00 26.02 LIG-0.35  N 
ATOM      4 H    ALA Q  13      70.341  61.924  27.180  1.00 26.02 LIG 0.16  HD
ENDROOT
BRANCH 3 5
ATOM      5  CA  ALA Q  13      70.347  62.411  29.117  1.00 27.66 LIG 0.17  C 
ATOM      6  CB  ALA Q  13      68.820  62.413  29.064  1.00 60.60 LIG 0.04  C 
BRANCH 5 7
ATOM      7  C   ALA Q  13      70.828  61.340  30.080  1.00 27.27 LIG 0.24  C 
ATOM      8 O    ALA Q  13      70.686  60.148  29.824  1.00 28.73 LIG-0.27  OA
ATOM      9  N   ALA Q  14      71.354  61.800  31.235  1.00 28.35 LIG-0.35  N 
ATOM     10 H    ALA Q  14      71.518  62.632  31.378  1.00 28.35 LIG 0.16  HD
BRANCH 9 11
ATOM     11  CA  ALA Q  14      71.695  60.937  32.354  1.00 39.95 LIG 0.17  C 
ATOM     12  CB  ALA Q  14      72.095  61.793  33.578  1.00 41.42 LIG 0.04  C 
BRANCH 11 13
ATOM     13  C   ALA Q  14      70.447  60.096  32.682  1.00 39.71 LIG 0.24  C 
ATOM     14  N   ALA Q  15      70.608  58.804  32.930  1.00 43.67 LIG-0.35  N 
ATOM     15 H    ALA Q  15      69.956  58.272  33.107  1.00 43.67 LIG 0.16  HD
ATOM     16 O    ALA Q  14      69.344  60.606  32.679  1.00 40.63 LIG-0.27  OA
BRANCH 14 17
ATOM     17  CA  ALA Q  15      71.899  58.162  32.929  1.00 45.40 LIG 0.16  C 
ATOM     18  CB  ALA Q  15      72.003  57.233  34.098  1.00 35.52 LIG 0.04  C 
BRANCH 17 19
ATOM     19  C   ALA Q  15      72.127  57.414  31.610  1.00 34.39 LIG 0.22  C 
ATOM     20 O    ALA Q  15      72.970  57.805  30.795  1.00 56.10 LIG-0.29  OA
ENDBRANCH 17 19
ENDBRANCH 14 17
ENDBRANCH 11 13
ENDBRANCH 9 11
ENDBRANCH 5 7
ENDBRANCH 3 5
BRANCH 1 21
ATOM     21  CA  ALA Q  12      72.613  62.375  26.074  1.00 23.65 LIG 0.17  C 
ATOM     22  CB  ALA Q  12      73.797  61.441  26.096  1.00 43.19 LIG 0.04  C 
BRANCH 21 23
ATOM     23  N   ALA Q  12      73.001  63.651  25.525  1.00 32.95 LIG-0.35  N 
ATOM     24  C   ALA Q  11      72.068  64.532  25.195  1.00 38.70 LIG 0.24  C 
ATOM     25 O    ALA Q  11      70.872  64.290  25.298  1.00 30.98 LIG-0.27  OA
ATOM     26 H    ALA Q  12      73.848  63.774  25.439  1.00 32.95 LIG 0.16  HD
BRANCH 24 27
ATOM     27  CA  ALA Q  11      72.561  65.862  24.647  1.00 33.56 LIG 0.17  C 
ATOM     28  CB  ALA Q  11      71.387  66.618  24.062  1.00 29.51 LIG 0.04  C 
BRANCH 27 29
ATOM     29  N   ALA Q  11      73.625  65.683  23.647  1.00 33.00 LIG-0.35  N 
ATOM     30  C   ALA Q  10      73.491  64.834  22.625  1.00 40.76 LIG 0.26  C 
ATOM     31 O    ALA Q  10      72.514  64.102  22.477  1.00 37.65 LIG-0.27  OA
ATOM     32 H    ALA Q  11      74.324  66.167  23.781  1.00 33.00 LIG 0.16  HD
BRANCH 30 33
ATOM     33  CA  ALA Q  10      74.624  64.788  21.610  1.00 39.75 LIG 0.40  C 
ATOM     34  CB  ALA Q  10      74.054  64.778  20.201  1.00 33.57 LIG 0.06  C 
ATOM     35  N   ALA Q  10      75.484  63.634  21.824  1.00 55.55 LIG 0.61  N 
ENDBRANCH 30 33
ENDBRANCH 27 29
ENDBRANCH 24 27
ENDBRANCH 21 23
ENDBRANCH 1 21
TORSDOF 11
ENDMDL
MODEL 21
USER: ADFR SOLUTION from run 63
USER: SCORE 12.529393 LL:  -1.982 LR: -11.710 RR:   0.000 FEB:  -8.429
USER: RMSD 4.801423
USER: SEED 62
USER: STATUS no improvement in best in 13 clusters for 5 generations
USER: GENES 13
USER: genes 0 Translation |==|  0.53319 0.41203 0.48802
USER: genes 1 Rotation |==|  0.74145 0.49220 0.07819 0.61713
USER: genes 2 Torsion [C]-N--CA-[CB] |==|  0.83889
USER: genes 3 Torsion [N]-CA--C-[N] |==|  0.18086
USER: genes 4 Torsion [C]-N--CA-[CB] |==|  0.86812
USER: genes 5 Torsion [N]-CA--C-[N] |==|  0.35716
USER: genes 6 Torsion [C]-N--CA-[CB] |==|  0.39708
USER: genes 7 Torsion [N]-CA--C-[O] |==|  0.59176
USER: genes 8 Torsion [N]-C--CA-[N] |==|  0.51600
USER: genes 9 Torsion [C]-CA--N-[C] |==|  0.57388
USER: genes 10 Torsion [N]-C--CA-[N] |==|  0.36838
USER: genes 11 Torsion [C]-CA--N-[C] |==|  0.83135
USER: genes 12 Torsion [N]-C--CA-[N] |==|  0.76740
ROOT
ATOM      1  C   ALA Q  12      71.136  62.708  28.178  1.00 25.44 LIG 0.24  C 
ATOM      2 O    ALA Q  12      70.639  61.600  28.026  1.00 27.01 LIG-0.27  OA
ATOM      3  N   ALA Q  13      70.910  63.482  29.233  1.00 26.02 LIG-0.35  N 
ATOM      4 H    ALA Q  13      71.330  64.213  29.403  1.00 26.02 LIG 0.16  HD
ENDROOT
BRANCH 3 5
ATOM      5  CA  ALA Q  13      69.877  63.110  30.217  1.00 27.66 LIG 0.17  C 
ATOM      6  CB  ALA Q  13      68.528  62.983  29.510  1.00 60.60 LIG 0.04  C 
BRANCH 5 7
ATOM      7  C   ALA Q  13      70.182  61.832  30.979  1.00 27.27 LIG 0.24  C 
ATOM      8 O    ALA Q  13      69.447  60.853  30.893  1.00 28.73 LIG-0.27  OA
ATOM      9  N   ALA Q  14      71.265  61.888  31.783  1.00 28.35 LIG-0.35  N 
ATOM     10 H    ALA Q  14      71.816  62.548  31.783  1.00 28.35 LIG 0.16  HD
BRANCH 9 11
ATOM     11  CA  ALA Q  14      71.610  60.838  32.728  1.00 39.95 LIG 0.17  C 
ATOM     12  CB  ALA Q  14      70.361  60.433  33.545  1.00 41.42 LIG 0.04  C 
BRANCH 11 13
ATOM     13  C   ALA Q  14      72.123  59.636  31.913  1.00 39.71 LIG 0.24  C 
ATOM     14  N   ALA Q  15      73.287  59.100  32.249  1.00 43.67 LIG-0.35  N 
ATOM     15 H    ALA Q  15      73.641  58.437  31.831  1.00 43.67 LIG 0.16  HD
ATOM     16 O    ALA Q  14      71.484  59.218  30.967  1.00 40.63 LIG-0.27  OA
BRANCH 14 17
ATOM     17  CA  ALA Q  15      74.079  59.579  33.356  1.00 45.40 LIG 0.16  C 
ATOM     18  CB  ALA Q  15      74.735  58.423  34.044  1.00 35.52 LIG 0.04  C 
BRANCH 17 19
ATOM     19  C   ALA Q  15      75.119  60.596  32.872  1.00 34.39 LIG 0.22  C 
ATOM     20 O    ALA Q  15      76.225  60.684  33.419  1.00 56.10 LIG-0.29  OA
ENDBRANCH 17 19
ENDBRANCH 14 17
ENDBRANCH 11 13
ENDBRANCH 9 11
ENDBRANCH 5 7
ENDBRANCH 3 5
BRANCH 1 21
ATOM     21  CA  ALA Q  12      72.131  63.237  27.168  1.00 23.65 LIG 0.17  C 
ATOM     22  CB  ALA Q  12      71.745  64.613  26.688  1.00 43.19 LIG 0.04  C 
BRANCH 21 23
ATOM     23  N   ALA Q  12      72.099  62.303  26.069  1.00 32.95 LIG-0.35  N 
ATOM     24  C   ALA Q  11      73.168  62.162  25.300  1.00 38.70 LIG 0.24  C 
ATOM     25 O    ALA Q  11      74.182  62.831  25.456  1.00 30.98 LIG-0.27  OA
ATOM     26 H    ALA Q  12      71.360  61.873  25.972  1.00 32.95 LIG 0.16  HD
BRANCH 24 27
ATOM     27  CA  ALA Q  11      73.061  61.139  24.179  1.00 33.56 LIG 0.17  C 
ATOM     28  CB  ALA Q  11      73.840  59.901  24.568  1.00 29.51 LIG 0.04  C 
BRANCH 27 29
ATOM     29  N   ALA Q  11      73.536  61.679  22.896  1.00 33.00 LIG-0.35  N 
ATOM     30  C   ALA Q  10      72.961  62.741  22.326  1.00 40.76 LIG 0.26  C 
ATOM     31 O    ALA Q  10      71.968  63.301  22.787  1.00 37.65 LIG-0.27  OA
ATOM     32 H    ALA Q  11      74.204  61.255  22.557  1.00 33.00 LIG 0.16  HD
BRANCH 30 33
ATOM     33  CA  ALA Q  10      73.584  63.259  21.038  1.00 39.75 LIG 0.40  C 
ATOM     34  CB  ALA Q  10      74.026  62.090  20.173  1.00 33.57 LIG 0.06  C 
ATOM     35  N   ALA Q  10      74.703  64.149  21.308  1.00 55.55 LIG 0.61  N 
ENDBRANCH 30 33
ENDBRANCH 27 29
ENDBRANCH 24 27
ENDBRANCH 21 23
ENDBRANCH 1 21
TORSDOF 11
ENDMDL
MODEL 22
USER: ADFR SOLUTION from run 20
USER: SCORE 11.887309 LL:  -2.104 LR: -11.706 RR:   0.000 FEB:  -8.425
USER: RMSD 9.434930
USER: SEED 19
USER: STATUS no improvement in best in 8 clusters for 5 generations
USER: GENES 13
USER: genes 0 Translation |==|  0.56835 0.45377 0.44819
USER: genes 1 Rotation |==|  0.88750 0.70327 0.73460 0.55909
USER: genes 2 Torsion [C]-N--CA-[CB] |==|  0.17100
USER: genes 3 Torsion [N]-CA--C-[N] |==|  0.60314
USER: genes 4 Torsion [C]-N--CA-[CB] |==|  0.17724
USER: genes 5 Torsion [N]-CA--C-[N] |==|  0.16979
USER: genes 6 Torsion [C]-N--CA-[CB] |==|  0.30268
USER: genes 7 Torsion [N]-CA--C-[O] |==|  0.12172
USER: genes 8 Torsion [N]-C--CA-[N] |==|  0.40361
USER: genes 9 Torsion [C]-CA--N-[C] |==|  0.71900
USER: genes 10 Torsion [N]-C--CA-[N] |==|  0.80603
USER: genes 11 Torsion [C]-CA--N-[C] |==|  0.67758
USER: genes 12 Torsion [N]-C--CA-[N] |==|  0.25431
ROOT
ATOM      1  C   ALA Q  12      71.716  63.521  27.372  1.00 25.44 LIG 0.24  C 
ATOM      2 O    ALA Q  12      72.741  63.728  28.006  1.00 27.01 LIG-0.27  OA
ATOM      3  N   ALA Q  13      71.694  63.169  26.092  1.00 26.02 LIG-0.35  N 
ATOM      4 H    ALA Q  13      70.990  62.921  25.664  1.00 26.02 LIG 0.16  HD
ENDROOT
BRANCH 3 5
ATOM      5  CA  ALA Q  13      72.936  63.186  25.298  1.00 27.66 LIG 0.17  C 
ATOM      6  CB  ALA Q  13      73.937  62.203  25.904  1.00 60.60 LIG 0.04  C 
BRANCH 5 7
ATOM      7  C   ALA Q  13      72.732  62.871  23.826  1.00 27.27 LIG 0.24  C 
ATOM      8 O    ALA Q  13      71.714  63.226  23.239  1.00 28.73 LIG-0.27  OA
ATOM      9  N   ALA Q  14      73.709  62.137  23.255  1.00 28.35 LIG-0.35  N 
ATOM     10 H    ALA Q  14      74.451  61.955  23.649  1.00 28.35 LIG 0.16  HD
BRANCH 9 11
ATOM     11  CA  ALA Q  14      73.607  61.579  21.916  1.00 39.95 LIG 0.17  C 
ATOM     12  CB  ALA Q  14      73.513  62.718  20.875  1.00 41.42 LIG 0.04  C 
BRANCH 11 13
ATOM     13  C   ALA Q  14      74.876  60.741  21.671  1.00 39.71 LIG 0.24  C 
ATOM     14  N   ALA Q  15      75.109  59.706  22.466  1.00 43.67 LIG-0.35  N 
ATOM     15 H    ALA Q  15      75.803  59.203  22.396  1.00 43.67 LIG 0.16  HD
ATOM     16 O    ALA Q  14      75.654  61.048  20.789  1.00 40.63 LIG-0.27  OA
BRANCH 14 17
ATOM     17  CA  ALA Q  15      74.216  59.321  23.531  1.00 45.40 LIG 0.16  C 
ATOM     18  CB  ALA Q  15      73.522  58.045  23.171  1.00 35.52 LIG 0.04  C 
BRANCH 17 19
ATOM     19  C   ALA Q  15      74.983  59.179  24.850  1.00 34.39 LIG 0.22  C 
ATOM     20 O    ALA Q  15      75.824  60.019  25.191  1.00 56.10 LIG-0.29  OA
ENDBRANCH 17 19
ENDBRANCH 14 17
ENDBRANCH 11 13
ENDBRANCH 9 11
ENDBRANCH 5 7
ENDBRANCH 3 5
BRANCH 1 21
ATOM     21  CA  ALA Q  12      70.371  63.585  28.064  1.00 23.65 LIG 0.17  C 
ATOM     22  CB  ALA Q  12      69.817  64.987  28.060  1.00 43.19 LIG 0.04  C 
BRANCH 21 23
ATOM     23  N   ALA Q  12      70.615  63.155  29.420  1.00 32.95 LIG-0.35  N 
ATOM     24  C   ALA Q  11      70.304  61.919  29.779  1.00 38.70 LIG 0.24  C 
ATOM     25 O    ALA Q  11      69.771  61.127  29.013  1.00 30.98 LIG-0.27  OA
ATOM     26 H    ALA Q  12      70.963  63.747  29.938  1.00 32.95 LIG 0.16  HD
BRANCH 24 27
ATOM     27  CA  ALA Q  11      70.616  61.537  31.219  1.00 33.56 LIG 0.17  C 
ATOM     28  CB  ALA Q  11      69.986  62.554  32.145  1.00 29.51 LIG 0.04  C 
BRANCH 27 29
ATOM     29  N   ALA Q  11      72.065  61.433  31.456  1.00 33.00 LIG-0.35  N 
ATOM     30  C   ALA Q  10      72.640  60.275  31.790  1.00 40.76 LIG 0.26  C 
ATOM     31 O    ALA Q  10      72.009  59.239  31.985  1.00 37.65 LIG-0.27  OA
ATOM     32 H    ALA Q  11      72.494  62.173  31.360  1.00 33.00 LIG 0.16  HD
BRANCH 30 33
ATOM     33  CA  ALA Q  10      74.154  60.271  31.936  1.00 39.75 LIG 0.40  C 
ATOM     34  CB  ALA Q  10      74.713  58.936  31.473  1.00 33.57 LIG 0.06  C 
ATOM     35  N   ALA Q  10      74.559  60.550  33.305  1.00 55.55 LIG 0.61  N 
ENDBRANCH 30 33
ENDBRANCH 27 29
ENDBRANCH 24 27
ENDBRANCH 21 23
ENDBRANCH 1 21
TORSDOF 11
ENDMDL
MODEL 23
USER: ADFR SOLUTION from run 187
USER: SCORE 11.788961 LL:  -2.086 LR: -11.704 RR:   0.000 FEB:  -8.423
USER: RMSD 5.664788
USER: SEED 186
USER: STATUS no improvement in best in 9 clusters for 5 generations
USER: GENES 13
USER: genes 0 Translation |==|  0.49870 0.38828 0.53184
USER: genes 1 Rotation |==|  0.63036 0.70723 0.08131 0.62149
USER: genes 2 Torsion [C]-N--CA-[CB] |==|  0.17682
USER: genes 3 Torsion [N]-CA--C-[N] |==|  0.60807
USER: genes 4 Torsion [C]-N--CA-[CB] |==|  0.18489
USER: genes 5 Torsion [N]-CA--C-[N] |==|  0.16778
USER: genes 6 Torsion [C]-N--CA-[CB] |==|  0.31979
USER: genes 7 Torsion [N]-CA--C-[O] |==|  0.07806
USER: genes 8 Torsion [N]-C--CA-[N] |==|  0.40827
USER: genes 9 Torsion [C]-CA--N-[C] |==|  0.69194
USER: genes 10 Torsion [N]-C--CA-[N] |==|  0.83664
USER: genes 11 Torsion [C]-CA--N-[C] |==|  0.66293
USER: genes 12 Torsion [N]-C--CA-[N] |==|  0.27936
ROOT
ATOM      1  C   ALA Q  12      70.567  62.244  29.066  1.00 25.44 LIG 0.24  C 
ATOM      2 O    ALA Q  12      70.322  61.236  28.418  1.00 27.01 LIG-0.27  OA
ATOM      3  N   ALA Q  13      70.912  62.236  30.348  1.00 26.02 LIG-0.35  N 
ATOM      4 H    ALA Q  13      71.186  62.924  30.786  1.00 26.02 LIG 0.16  HD
ENDROOT
BRANCH 3 5
ATOM      5  CA  ALA Q  13      70.839  60.986  31.126  1.00 27.66 LIG 0.17  C 
ATOM      6  CB  ALA Q  13      71.822  59.971  30.545  1.00 60.60 LIG 0.04  C 
BRANCH 5 7
ATOM      7  C   ALA Q  13      71.103  61.168  32.611  1.00 27.27 LIG 0.24  C 
ATOM      8 O    ALA Q  13      70.721  62.173  33.204  1.00 28.73 LIG-0.27  OA
ATOM      9  N   ALA Q  14      71.827  60.187  33.190  1.00 28.35 LIG-0.35  N 
ATOM     10 H    ALA Q  14      72.029  59.453  32.789  1.00 28.35 LIG 0.16  HD
BRANCH 9 11
ATOM     11  CA  ALA Q  14      72.340  60.271  34.548  1.00 39.95 LIG 0.17  C 
ATOM     12  CB  ALA Q  14      71.168  60.268  35.556  1.00 41.42 LIG 0.04  C 
BRANCH 11 13
ATOM     13  C   ALA Q  14      73.238  59.040  34.775  1.00 39.71 LIG 0.24  C 
ATOM     14  N   ALA Q  15      74.298  58.882  33.995  1.00 43.67 LIG-0.35  N 
ATOM     15 H    ALA Q  15      74.834  58.213  34.057  1.00 43.67 LIG 0.16  HD
ATOM     16 O    ALA Q  14      72.955  58.223  35.630  1.00 40.63 LIG-0.27  OA
BRANCH 14 17
ATOM     17  CA  ALA Q  15      74.656  59.823  32.963  1.00 45.40 LIG 0.16  C 
ATOM     18  CB  ALA Q  15      75.967  60.463  33.296  1.00 35.52 LIG 0.04  C 
BRANCH 17 19
ATOM     19  C   ALA Q  15      74.713  59.128  31.598  1.00 34.39 LIG 0.22  C 
ATOM     20 O    ALA Q  15      74.018  58.133  31.361  1.00 56.10 LIG-0.29  OA
ENDBRANCH 17 19
ENDBRANCH 14 17
ENDBRANCH 11 13
ENDBRANCH 9 11
ENDBRANCH 5 7
ENDBRANCH 3 5
BRANCH 1 21
ATOM     21  CA  ALA Q  12      70.563  63.599  28.389  1.00 23.65 LIG 0.17  C 
ATOM     22  CB  ALA Q  12      69.193  64.228  28.429  1.00 43.19 LIG 0.04  C 
BRANCH 21 23
ATOM     23  N   ALA Q  12      70.952  63.348  27.023  1.00 32.95 LIG-0.35  N 
ATOM     24  C   ALA Q  11      72.129  63.773  26.590  1.00 38.70 LIG 0.24  C 
ATOM     25 O    ALA Q  11      72.895  64.416  27.296  1.00 30.98 LIG-0.27  OA
ATOM     26 H    ALA Q  12      70.376  62.920  26.548  1.00 32.95 LIG 0.16  HD
BRANCH 24 27
ATOM     27  CA  ALA Q  11      72.473  63.446  25.145  1.00 33.56 LIG 0.17  C 
ATOM     28  CB  ALA Q  11      71.499  64.161  24.233  1.00 29.51 LIG 0.04  C 
BRANCH 27 29
ATOM     29  N   ALA Q  11      72.464  61.996  24.894  1.00 33.00 LIG-0.35  N 
ATOM     30  C   ALA Q  10      73.546  61.355  24.444  1.00 40.76 LIG 0.26  C 
ATOM     31 O    ALA Q  10      74.595  61.924  24.149  1.00 37.65 LIG-0.27  OA
ATOM     32 H    ALA Q  11      71.713  61.612  25.061  1.00 33.00 LIG 0.16  HD
BRANCH 30 33
ATOM     33  CA  ALA Q  10      73.443  59.845  24.294  1.00 39.75 LIG 0.40  C 
ATOM     34  CB  ALA Q  10      74.704  59.186  24.830  1.00 33.57 LIG 0.06  C 
ATOM     35  N   ALA Q  10      73.213  59.461  22.909  1.00 55.55 LIG 0.61  N 
ENDBRANCH 30 33
ENDBRANCH 27 29
ENDBRANCH 24 27
ENDBRANCH 21 23
ENDBRANCH 1 21
TORSDOF 11
ENDMDL
MODEL 24
USER: ADFR SOLUTION from run 127
USER: SCORE 11.392595 LL:  -1.661 LR: -11.688 RR:   0.000 FEB:  -8.406
USER: RMSD 10.361301
USER: SEED 126
USER: STATUS no improvement in best in 15 clusters for 5 generations
USER: GENES 13
USER: genes 0 Translation |==|  0.63653 0.30933 0.63815
USER: genes 1 Rotation |==|  0.95478 0.30031 0.48085 0.55420
USER: genes 2 Torsion [C]-N--CA-[CB] |==|  0.23663
USER: genes 3 Torsion [N]-CA--C-[N] |==|  0.54445
USER: genes 4 Torsion [C]-N--CA-[CB] |==|  0.76327
USER: genes 5 Torsion [N]-CA--C-[N] |==|  0.20247
USER: genes 6 Torsion [C]-N--CA-[CB] |==|  0.28614
USER: genes 7 Torsion [N]-CA--C-[O] |==|  0.01748
USER: genes 8 Torsion [N]-C--CA-[N] |==|  0.35646
USER: genes 9 Torsion [C]-CA--N-[C] |==|  0.73095
USER: genes 10 Torsion [N]-C--CA-[N] |==|  0.66485
USER: genes 11 Torsion [C]-CA--N-[C] |==|  0.61775
USER: genes 12 Torsion [N]-C--CA-[N] |==|  0.11208
ROOT
ATOM      1  C   ALA Q  12      72.841  60.705  31.219  1.00 25.44 LIG 0.24  C 
ATOM      2 O    ALA Q  12      72.745  59.536  30.871  1.00 27.01 LIG-0.27  OA
ATOM      3  N   ALA Q  13      72.385  61.729  30.507  1.00 26.02 LIG-0.35  N 
ATOM      4 H    ALA Q  13      72.352  62.543  30.785  1.00 26.02 LIG 0.16  HD
ENDROOT
BRANCH 3 5
ATOM      5  CA  ALA Q  13      71.887  61.516  29.137  1.00 27.66 LIG 0.17  C 
ATOM      6  CB  ALA Q  13      70.419  61.094  29.192  1.00 60.60 LIG 0.04  C 
BRANCH 5 7
ATOM      7  C   ALA Q  13      72.042  62.723  28.229  1.00 27.27 LIG 0.24  C 
ATOM      8 O    ALA Q  13      72.749  63.673  28.554  1.00 28.73 LIG-0.27  OA
ATOM      9  N   ALA Q  14      71.309  62.689  27.096  1.00 28.35 LIG-0.35  N 
ATOM     10 H    ALA Q  14      70.875  61.992  26.839  1.00 28.35 LIG 0.16  HD
BRANCH 9 11
ATOM     11  CA  ALA Q  14      71.178  63.824  26.197  1.00 39.95 LIG 0.17  C 
ATOM     12  CB  ALA Q  14      70.041  64.752  26.680  1.00 41.42 LIG 0.04  C 
BRANCH 11 13
ATOM     13  C   ALA Q  14      72.521  64.579  26.213  1.00 39.71 LIG 0.24  C 
ATOM     14  N   ALA Q  15      73.558  64.029  25.596  1.00 43.67 LIG-0.35  N 
ATOM     15 H    ALA Q  15      74.340  64.387  25.576  1.00 43.67 LIG 0.16  HD
ATOM     16 O    ALA Q  14      72.625  65.635  26.805  1.00 40.63 LIG-0.27  OA
BRANCH 14 17
ATOM     17  CA  ALA Q  15      73.475  62.771  24.896  1.00 45.40 LIG 0.16  C 
ATOM     18  CB  ALA Q  15      73.420  63.017  23.421  1.00 35.52 LIG 0.04  C 
BRANCH 17 19
ATOM     19  C   ALA Q  15      74.663  61.873  25.261  1.00 34.39 LIG 0.22  C 
ATOM     20 O    ALA Q  15      75.465  62.206  26.141  1.00 56.10 LIG-0.29  OA
ENDBRANCH 17 19
ENDBRANCH 14 17
ENDBRANCH 11 13
ENDBRANCH 9 11
ENDBRANCH 5 7
ENDBRANCH 3 5
BRANCH 1 21
ATOM     21  CA  ALA Q  12      73.439  61.048  32.567  1.00 23.65 LIG 0.17  C 
ATOM     22  CB  ALA Q  12      74.924  60.791  32.589  1.00 43.19 LIG 0.04  C 
BRANCH 21 23
ATOM     23  N   ALA Q  12      72.774  60.186  33.513  1.00 32.95 LIG-0.35  N 
ATOM     24  C   ALA Q  11      71.739  60.645  34.200  1.00 38.70 LIG 0.24  C 
ATOM     25 O    ALA Q  11      71.342  61.798  34.097  1.00 30.98 LIG-0.27  OA
ATOM     26 H    ALA Q  12      73.099  59.392  33.581  1.00 32.95 LIG 0.16  HD
BRANCH 24 27
ATOM     27  CA  ALA Q  11      71.079  59.665  35.159  1.00 33.56 LIG 0.17  C 
ATOM     28  CB  ALA Q  11      71.843  58.359  35.131  1.00 29.51 LIG 0.04  C 
BRANCH 27 29
ATOM     29  N   ALA Q  11      69.659  59.452  34.834  1.00 33.00 LIG-0.35  N 
ATOM     30  C   ALA Q  10      68.722  59.398  35.784  1.00 40.76 LIG 0.26  C 
ATOM     31 O    ALA Q  10      68.975  59.455  36.986  1.00 37.65 LIG-0.27  OA
ATOM     32 H    ALA Q  11      69.496  59.369  33.993  1.00 33.00 LIG 0.16  HD
BRANCH 30 33
ATOM     33  CA  ALA Q  10      67.279  59.250  35.326  1.00 39.75 LIG 0.40  C 
ATOM     34  CB  ALA Q  10      66.413  58.798  36.489  1.00 33.57 LIG 0.06  C 
ATOM     35  N   ALA Q  10      67.166  58.323  34.211  1.00 55.55 LIG 0.61  N 
ENDBRANCH 30 33
ENDBRANCH 27 29
ENDBRANCH 24 27
ENDBRANCH 21 23
ENDBRANCH 1 21
TORSDOF 11
ENDMDL
MODEL 25
USER: ADFR SOLUTION from run 133
USER: SCORE 12.355362 LL:  -2.124 LR: -11.675 RR:   0.000 FEB:  -8.394
USER: RMSD 9.804598
USER: SEED 132
USER: STATUS no improvement in best in 9 clusters for 5 generations
USER: GENES 13
USER: genes 0 Translation |==|  0.54601 0.41636 0.49721
USER: genes 1 Rotation |==|  0.10407 0.28511 0.33855 0.64489
USER: genes 2 Torsion [C]-N--CA-[CB] |==|  0.84439
USER: genes 3 Torsion [N]-CA--C-[N] |==|  0.23479
USER: genes 4 Torsion [C]-N--CA-[CB] |==|  0.52980
USER: genes 5 Torsion [N]-CA--C-[N] |==|  0.35060
USER: genes 6 Torsion [C]-N--CA-[CB] |==|  0.34323
USER: genes 7 Torsion [N]-CA--C-[O] |==|  0.44443
USER: genes 8 Torsion [N]-C--CA-[N] |==|  0.48739
USER: genes 9 Torsion [C]-CA--N-[C] |==|  0.58763
USER: genes 10 Torsion [N]-C--CA-[N] |==|  0.35212
USER: genes 11 Torsion [C]-CA--N-[C] |==|  0.85138
USER: genes 12 Torsion [N]-C--CA-[N] |==|  0.74088
ROOT
ATOM      1  C   ALA Q  12      71.347  62.792  28.364  1.00 25.44 LIG 0.24  C 
ATOM      2 O    ALA Q  12      72.481  63.234  28.485  1.00 27.01 LIG-0.27  OA
ATOM      3  N   ALA Q  13      70.609  62.934  27.270  1.00 26.02 LIG-0.35  N 
ATOM      4 H    ALA Q  13      69.855  62.542  27.134  1.00 26.02 LIG 0.16  HD
ENDROOT
BRANCH 3 5
ATOM      5  CA  ALA Q  13      71.064  63.814  26.178  1.00 27.66 LIG 0.17  C 
ATOM      6  CB  ALA Q  13      71.312  65.217  26.730  1.00 60.60 LIG 0.04  C 
BRANCH 5 7
ATOM      7  C   ALA Q  13      72.306  63.314  25.461  1.00 27.27 LIG 0.24  C 
ATOM      8 O    ALA Q  13      73.418  63.752  25.742  1.00 28.73 LIG-0.27  OA
ATOM      9  N   ALA Q  14      72.080  62.420  24.476  1.00 28.35 LIG-0.35  N 
ATOM     10 H    ALA Q  14      71.311  62.063  24.333  1.00 28.35 LIG 0.16  HD
BRANCH 9 11
ATOM     11  CA  ALA Q  14      73.112  61.970  23.556  1.00 39.95 LIG 0.17  C 
ATOM     12  CB  ALA Q  14      72.475  61.168  22.399  1.00 41.42 LIG 0.04  C 
BRANCH 11 13
ATOM     13  C   ALA Q  14      73.815  63.226  23.006  1.00 39.71 LIG 0.24  C 
ATOM     14  N   ALA Q  15      75.134  63.304  23.112  1.00 43.67 LIG-0.35  N 
ATOM     15 H    ALA Q  15      75.591  63.980  22.839  1.00 43.67 LIG 0.16  HD
ATOM     16 O    ALA Q  14      73.165  64.130  22.518  1.00 40.63 LIG-0.27  OA
BRANCH 14 17
ATOM     17  CA  ALA Q  15      75.936  62.258  23.697  1.00 45.40 LIG 0.16  C 
ATOM     18  CB  ALA Q  15      76.974  61.810  22.716  1.00 35.52 LIG 0.04  C 
BRANCH 17 19
ATOM     19  C   ALA Q  15      76.581  62.741  25.001  1.00 34.39 LIG 0.22  C 
ATOM     20 O    ALA Q  15      76.995  61.935  25.843  1.00 56.10 LIG-0.29  OA
ENDBRANCH 17 19
ENDBRANCH 14 17
ENDBRANCH 11 13
ENDBRANCH 9 11
ENDBRANCH 5 7
ENDBRANCH 3 5
BRANCH 1 21
ATOM     21  CA  ALA Q  12      70.736  61.962  29.474  1.00 23.65 LIG 0.17  C 
ATOM     22  CB  ALA Q  12      69.505  62.625  30.039  1.00 43.19 LIG 0.04  C 
BRANCH 21 23
ATOM     23  N   ALA Q  12      71.756  61.866  30.489  1.00 32.95 LIG-0.35  N 
ATOM     24  C   ALA Q  11      71.825  60.781  31.245  1.00 38.70 LIG 0.24  C 
ATOM     25 O    ALA Q  11      71.024  59.860  31.147  1.00 30.98 LIG-0.27  OA
ATOM     26 H    ALA Q  12      72.282  62.544  30.550  1.00 32.95 LIG 0.16  HD
BRANCH 24 27
ATOM     27  CA  ALA Q  11      72.945  60.747  32.275  1.00 33.56 LIG 0.17  C 
ATOM     28  CB  ALA Q  11      73.969  59.715  31.854  1.00 29.51 LIG 0.04  C 
BRANCH 27 29
ATOM     29  N   ALA Q  11      72.437  60.466  33.627  1.00 33.00 LIG-0.35  N 
ATOM     30  C   ALA Q  10      71.459  61.192  34.175  1.00 40.76 LIG 0.26  C 
ATOM     31 O    ALA Q  10      70.959  62.173  33.628  1.00 37.65 LIG-0.27  OA
ATOM     32 H    ALA Q  11      72.823  59.805  34.021  1.00 33.00 LIG 0.16  HD
BRANCH 30 33
ATOM     33  CA  ALA Q  10      70.963  60.762  35.547  1.00 39.75 LIG 0.40  C 
ATOM     34  CB  ALA Q  10      72.092  60.100  36.319  1.00 33.57 LIG 0.06  C 
ATOM     35  N   ALA Q  10      69.819  59.870  35.445  1.00 55.55 LIG 0.61  N 
ENDBRANCH 30 33
ENDBRANCH 27 29
ENDBRANCH 24 27
ENDBRANCH 21 23
ENDBRANCH 1 21
TORSDOF 11
ENDMDL
MODEL 26
USER: ADFR SOLUTION from run 63
USER: SCORE 12.043359 LL:  -2.031 LR: -11.681 RR:   0.000 FEB:  -8.400
USER: RMSD 3.647837
USER: SEED 62
USER: STATUS no improvement in best in 13 clusters for 5 generations
USER: GENES 13
USER: genes 0 Translation |==|  0.53266 0.39676 0.48685
USER: genes 1 Rotation |==|  0.78103 0.41813 0.10317 0.58277
USER: genes 2 Torsion [C]-N--CA-[CB] |==|  0.87531
USER: genes 3 Torsion [N]-CA--C-[N] |==|  0.92205
USER: genes 4 Torsion [C]-N--CA-[CB] |==|  0.55593
USER: genes 5 Torsion [N]-CA--C-[N] |==|  0.35556
USER: genes 6 Torsion [C]-N--CA-[CB] |==|  0.43388
USER: genes 7 Torsion [N]-CA--C-[O] |==|  0.85072
USER: genes 8 Torsion [N]-C--CA-[N] |==|  0.59862
USER: genes 9 Torsion [C]-CA--N-[C] |==|  0.58172
USER: genes 10 Torsion [N]-C--CA-[N] |==|  0.32947
USER: genes 11 Torsion [C]-CA--N-[C] |==|  0.77207
USER: genes 12 Torsion [N]-C--CA-[N] |==|  0.62138
ROOT
ATOM      1  C   ALA Q  12      71.127  62.410  28.155  1.00 25.44 LIG 0.24  C 
ATOM      2 O    ALA Q  12      70.421  61.422  28.005  1.00 27.01 LIG-0.27  OA
ATOM      3  N   ALA Q  13      70.862  63.386  29.015  1.00 26.02 LIG-0.35  N 
ATOM      4 H    ALA Q  13      71.399  64.031  29.204  1.00 26.02 LIG 0.16  HD
ENDROOT
BRANCH 3 5
ATOM      5  CA  ALA Q  13      69.571  63.419  29.724  1.00 27.66 LIG 0.17  C 
ATOM      6  CB  ALA Q  13      68.443  63.129  28.735  1.00 60.60 LIG 0.04  C 
BRANCH 5 7
ATOM      7  C   ALA Q  13      69.487  62.457  30.897  1.00 27.27 LIG 0.24  C 
ATOM      8 O    ALA Q  13      68.799  62.716  31.880  1.00 28.73 LIG-0.27  OA
ATOM      9  N   ALA Q  14      70.260  61.356  30.793  1.00 28.35 LIG-0.35  N 
ATOM     10 H    ALA Q  14      70.682  61.144  30.074  1.00 28.35 LIG 0.16  HD
BRANCH 9 11
ATOM     11  CA  ALA Q  14      70.461  60.417  31.885  1.00 39.95 LIG 0.17  C 
ATOM     12  CB  ALA Q  14      71.741  59.587  31.639  1.00 41.42 LIG 0.04  C 
BRANCH 11 13
ATOM     13  C   ALA Q  14      70.605  61.242  33.178  1.00 39.71 LIG 0.24  C 
ATOM     14  N   ALA Q  15      69.837  60.929  34.212  1.00 43.67 LIG-0.35  N 
ATOM     15 H    ALA Q  15      69.854  61.354  34.960  1.00 43.67 LIG 0.16  HD
ATOM     16 O    ALA Q  14      71.383  62.174  33.229  1.00 40.63 LIG-0.27  OA
BRANCH 14 17
ATOM     17  CA  ALA Q  15      68.893  59.839  34.184  1.00 45.40 LIG 0.16  C 
ATOM     18  CB  ALA Q  15      68.620  59.370  35.579  1.00 35.52 LIG 0.04  C 
BRANCH 17 19
ATOM     19  C   ALA Q  15      67.598  60.267  33.483  1.00 34.39 LIG 0.22  C 
ATOM     20 O    ALA Q  15      66.981  61.274  33.847  1.00 56.10 LIG-0.29  OA
ENDBRANCH 17 19
ENDBRANCH 14 17
ENDBRANCH 11 13
ENDBRANCH 9 11
ENDBRANCH 5 7
ENDBRANCH 3 5
BRANCH 1 21
ATOM     21  CA  ALA Q  12      72.429  62.534  27.392  1.00 23.65 LIG 0.17  C 
ATOM     22  CB  ALA Q  12      72.869  63.972  27.288  1.00 43.19 LIG 0.04  C 
BRANCH 21 23
ATOM     23  N   ALA Q  12      72.157  62.004  26.078  1.00 32.95 LIG-0.35  N 
ATOM     24  C   ALA Q  11      73.133  61.435  25.387  1.00 38.70 LIG 0.24  C 
ATOM     25 O    ALA Q  11      74.283  61.376  25.803  1.00 30.98 LIG-0.27  OA
ATOM     26 H    ALA Q  12      71.345  62.090  25.806  1.00 32.95 LIG 0.16  HD
BRANCH 24 27
ATOM     27  CA  ALA Q  11      72.758  60.880  24.021  1.00 33.56 LIG 0.17  C 
ATOM     28  CB  ALA Q  11      73.002  59.386  24.014  1.00 29.51 LIG 0.04  C 
BRANCH 27 29
ATOM     29  N   ALA Q  11      73.500  61.542  22.937  1.00 33.00 LIG-0.35  N 
ATOM     30  C   ALA Q  10      73.112  62.718  22.437  1.00 40.76 LIG 0.26  C 
ATOM     31 O    ALA Q  10      72.088  63.298  22.791  1.00 37.65 LIG-0.27  OA
ATOM     32 H    ALA Q  11      74.192  61.108  22.664  1.00 33.00 LIG 0.16  HD
BRANCH 30 33
ATOM     33  CA  ALA Q  10      74.000  63.344  21.371  1.00 39.75 LIG 0.40  C 
ATOM     34  CB  ALA Q  10      75.340  62.629  21.331  1.00 33.57 LIG 0.06  C 
ATOM     35  N   ALA Q  10      74.185  64.768  21.602  1.00 55.55 LIG 0.61  N 
ENDBRANCH 30 33
ENDBRANCH 27 29
ENDBRANCH 24 27
ENDBRANCH 21 23
ENDBRANCH 1 21
TORSDOF 11
ENDMDL
MODEL 27
USER: ADFR SOLUTION from run 160
USER: SCORE 10.986544 LL:  -1.855 LR: -11.668 RR:   0.000 FEB:  -8.387
USER: RMSD 10.046447
USER: SEED 159
USER: STATUS no improvement in best in 7 clusters for 5 generations
USER: GENES 13
USER: genes 0 Translation |==|  0.58747 0.43889 0.44732
USER: genes 1 Rotation |==|  0.88965 0.75584 0.66752 0.56826
USER: genes 2 Torsion [C]-N--CA-[CB] |==|  0.40554
USER: genes 3 Torsion [N]-CA--C-[N] |==|  0.25940
USER: genes 4 Torsion [C]-N--CA-[CB] |==|  0.88642
USER: genes 5 Torsion [N]-CA--C-[N] |==|  0.37098
USER: genes 6 Torsion [C]-N--CA-[CB] |==|  0.38460
USER: genes 7 Torsion [N]-CA--C-[O] |==|  0.59164
USER: genes 8 Torsion [N]-C--CA-[N] |==|  0.32243
USER: genes 9 Torsion [C]-CA--N-[C] |==|  0.68573
USER: genes 10 Torsion [N]-C--CA-[N] |==|  0.37841
USER: genes 11 Torsion [C]-CA--N-[C] |==|  0.69677
USER: genes 12 Torsion [N]-C--CA-[N] |==|  0.90841
ROOT
ATOM      1  C   ALA Q  12      72.031  63.231  27.354  1.00 25.44 LIG 0.24  C 
ATOM      2 O    ALA Q  12      73.128  63.670  27.672  1.00 27.01 LIG-0.27  OA
ATOM      3  N   ALA Q  13      71.795  62.577  26.223  1.00 26.02 LIG-0.35  N 
ATOM      4 H    ALA Q  13      71.058  62.175  26.035  1.00 26.02 LIG 0.16  HD
ENDROOT
BRANCH 3 5
ATOM      5  CA  ALA Q  13      72.833  62.502  25.180  1.00 27.66 LIG 0.17  C 
ATOM      6  CB  ALA Q  13      72.739  61.153  24.468  1.00 60.60 LIG 0.04  C 
BRANCH 5 7
ATOM      7  C   ALA Q  13      72.766  63.628  24.162  1.00 27.27 LIG 0.24  C 
ATOM      8 O    ALA Q  13      72.088  63.521  23.144  1.00 28.73 LIG-0.27  OA
ATOM      9  N   ALA Q  14      73.543  64.696  24.436  1.00 28.35 LIG-0.35  N 
ATOM     10 H    ALA Q  14      73.957  64.797  25.183  1.00 28.35 LIG 0.16  HD
BRANCH 9 11
ATOM     11  CA  ALA Q  14      73.759  65.786  23.497  1.00 39.95 LIG 0.17  C 
ATOM     12  CB  ALA Q  14      73.943  65.224  22.069  1.00 41.42 LIG 0.04  C 
BRANCH 11 13
ATOM     13  C   ALA Q  14      72.515  66.693  23.554  1.00 39.71 LIG 0.24  C 
ATOM     14  N   ALA Q  15      72.696  68.003  23.637  1.00 43.67 LIG-0.35  N 
ATOM     15 H    ALA Q  15      72.049  68.568  23.686  1.00 43.67 LIG 0.16  HD
ATOM     16 O    ALA Q  14      71.401  66.208  23.553  1.00 40.63 LIG-0.27  OA
BRANCH 14 17
ATOM     17  CA  ALA Q  15      74.003  68.613  23.655  1.00 45.40 LIG 0.16  C 
ATOM     18  CB  ALA Q  15      73.999  69.841  22.800  1.00 35.52 LIG 0.04  C 
BRANCH 17 19
ATOM     19  C   ALA Q  15      74.423  68.943  25.092  1.00 34.39 LIG 0.22  C 
ATOM     20 O    ALA Q  15      75.124  69.931  25.340  1.00 56.10 LIG-0.29  OA
ENDBRANCH 17 19
ENDBRANCH 14 17
ENDBRANCH 11 13
ENDBRANCH 9 11
ENDBRANCH 5 7
ENDBRANCH 3 5
BRANCH 1 21
ATOM     21  CA  ALA Q  12      70.862  63.350  28.308  1.00 23.65 LIG 0.17  C 
ATOM     22  CB  ALA Q  12      70.583  64.790  28.657  1.00 43.19 LIG 0.04  C 
BRANCH 21 23
ATOM     23  N   ALA Q  12      71.254  62.622  29.491  1.00 32.95 LIG-0.35  N 
ATOM     24  C   ALA Q  11      70.614  61.509  29.815  1.00 38.70 LIG 0.24  C 
ATOM     25 O    ALA Q  11      69.664  61.086  29.169  1.00 30.98 LIG-0.27  OA
ATOM     26 H    ALA Q  12      71.905  62.965  29.936  1.00 32.95 LIG 0.16  HD
BRANCH 24 27
ATOM     27  CA  ALA Q  11      71.106  60.788  31.061  1.00 33.56 LIG 0.17  C 
ATOM     28  CB  ALA Q  11      71.979  59.625  30.644  1.00 29.51 LIG 0.04  C 
BRANCH 27 29
ATOM     29  N   ALA Q  11      69.991  60.335  31.908  1.00 33.00 LIG-0.35  N 
ATOM     30  C   ALA Q  10      69.725  60.907  33.084  1.00 40.76 LIG 0.26  C 
ATOM     31 O    ALA Q  10      70.417  61.798  33.574  1.00 37.65 LIG-0.27  OA
ATOM     32 H    ALA Q  11      69.538  59.681  31.578  1.00 33.00 LIG 0.16  HD
BRANCH 30 33
ATOM     33  CA  ALA Q  10      68.502  60.406  33.838  1.00 39.75 LIG 0.40  C 
ATOM     34  CB  ALA Q  10      68.894  59.257  34.752  1.00 33.57 LIG 0.06  C 
ATOM     35  N   ALA Q  10      67.445  59.998  32.925  1.00 55.55 LIG 0.61  N 
ENDBRANCH 30 33
ENDBRANCH 27 29
ENDBRANCH 24 27
ENDBRANCH 21 23
ENDBRANCH 1 21
TORSDOF 11
ENDMDL
MODEL 28
USER: ADFR SOLUTION from run 93
USER: SCORE 12.988946 LL:  -2.005 LR: -11.621 RR:   0.000 FEB:  -8.340
USER: RMSD 10.039758
USER: SEED 92
USER: STATUS no improvement in best in 12 clusters for 5 generations
USER: GENES 13
USER: genes 0 Translation |==|  0.58530 0.39531 0.48245
USER: genes 1 Rotation |==|  0.17784 0.16089 0.33850 0.57165
USER: genes 2 Torsion [C]-N--CA-[CB] |==|  0.84808
USER: genes 3 Torsion [N]-CA--C-[N] |==|  0.36625
USER: genes 4 Torsion [C]-N--CA-[CB] |==|  0.12833
USER: genes 5 Torsion [N]-CA--C-[N] |==|  0.16950
USER: genes 6 Torsion [C]-N--CA-[CB] |==|  0.35437
USER: genes 7 Torsion [N]-CA--C-[O] |==|  0.31343
USER: genes 8 Torsion [N]-C--CA-[N] |==|  0.42222
USER: genes 9 Torsion [C]-CA--N-[C] |==|  0.58617
USER: genes 10 Torsion [N]-C--CA-[N] |==|  0.38212
USER: genes 11 Torsion [C]-CA--N-[C] |==|  0.83408
USER: genes 12 Torsion [N]-C--CA-[N] |==|  0.73163
ROOT
ATOM      1  C   ALA Q  12      71.995  62.382  28.066  1.00 25.44 LIG 0.24  C 
ATOM      2 O    ALA Q  12      72.748  63.309  28.328  1.00 27.01 LIG-0.27  OA
ATOM      3  N   ALA Q  13      71.774  61.931  26.836  1.00 26.02 LIG-0.35  N 
ATOM      4 H    ALA Q  13      71.331  61.219  26.648  1.00 26.02 LIG 0.16  HD
ENDROOT
BRANCH 3 5
ATOM      5  CA  ALA Q  13      72.301  62.667  25.672  1.00 27.66 LIG 0.17  C 
ATOM      6  CB  ALA Q  13      71.823  64.117  25.731  1.00 60.60 LIG 0.04  C 
BRANCH 5 7
ATOM      7  C   ALA Q  13      73.815  62.627  25.552  1.00 27.27 LIG 0.24  C 
ATOM      8 O    ALA Q  13      74.533  62.920  26.503  1.00 28.73 LIG-0.27  OA
ATOM      9  N   ALA Q  14      74.286  62.311  24.328  1.00 28.35 LIG-0.35  N 
ATOM     10 H    ALA Q  14      73.782  62.036  23.687  1.00 28.35 LIG 0.16  HD
BRANCH 9 11
ATOM     11  CA  ALA Q  14      75.691  62.404  23.966  1.00 39.95 LIG 0.17  C 
ATOM     12  CB  ALA Q  14      76.564  61.771  25.073  1.00 41.42 LIG 0.04  C 
BRANCH 11 13
ATOM     13  C   ALA Q  14      75.875  61.637  22.642  1.00 39.71 LIG 0.24  C 
ATOM     14  N   ALA Q  15      75.207  62.055  21.576  1.00 43.67 LIG-0.35  N 
ATOM     15 H    ALA Q  15      75.251  61.669  20.809  1.00 43.67 LIG 0.16  HD
ATOM     16 O    ALA Q  14      76.591  60.657  22.595  1.00 40.63 LIG-0.27  OA
BRANCH 14 17
ATOM     17  CA  ALA Q  15      74.338  63.206  21.598  1.00 45.40 LIG 0.16  C 
ATOM     18  CB  ALA Q  15      74.713  64.144  20.494  1.00 35.52 LIG 0.04  C 
BRANCH 17 19
ATOM     19  C   ALA Q  15      72.872  62.774  21.482  1.00 34.39 LIG 0.22  C 
ATOM     20 O    ALA Q  15      72.087  62.926  22.425  1.00 56.10 LIG-0.29  OA
ENDBRANCH 17 19
ENDBRANCH 14 17
ENDBRANCH 11 13
ENDBRANCH 9 11
ENDBRANCH 5 7
ENDBRANCH 3 5
BRANCH 1 21
ATOM     21  CA  ALA Q  12      71.312  61.622  29.183  1.00 23.65 LIG 0.17  C 
ATOM     22  CB  ALA Q  12      69.935  62.171  29.457  1.00 43.19 LIG 0.04  C 
BRANCH 21 23
ATOM     23  N   ALA Q  12      72.154  61.798  30.341  1.00 32.95 LIG-0.35  N 
ATOM     24  C   ALA Q  11      72.218  60.842  31.255  1.00 38.70 LIG 0.24  C 
ATOM     25 O    ALA Q  11      71.551  59.818  31.181  1.00 30.98 LIG-0.27  OA
ATOM     26 H    ALA Q  12      72.585  62.543  30.373  1.00 32.95 LIG 0.16  HD
BRANCH 24 27
ATOM     27  CA  ALA Q  11      73.149  61.096  32.431  1.00 33.56 LIG 0.17  C 
ATOM     28  CB  ALA Q  11      74.453  60.366  32.193  1.00 29.51 LIG 0.04  C 
BRANCH 27 29
ATOM     29  N   ALA Q  11      72.542  60.689  33.708  1.00 33.00 LIG-0.35  N 
ATOM     30  C   ALA Q  10      71.400  61.227  34.146  1.00 40.76 LIG 0.26  C 
ATOM     31 O    ALA Q  10      70.812  62.134  33.559  1.00 37.65 LIG-0.27  OA
ATOM     32 H    ALA Q  11      72.982  60.085  34.135  1.00 33.00 LIG 0.16  HD
BRANCH 30 33
ATOM     33  CA  ALA Q  10      70.826  60.675  35.442  1.00 39.75 LIG 0.40  C 
ATOM     34  CB  ALA Q  10      71.944  60.102  36.298  1.00 33.57 LIG 0.06  C 
ATOM     35  N   ALA Q  10      69.807  59.668  35.187  1.00 55.55 LIG 0.61  N 
ENDBRANCH 30 33
ENDBRANCH 27 29
ENDBRANCH 24 27
ENDBRANCH 21 23
ENDBRANCH 1 21
TORSDOF 11
ENDMDL
MODEL 29
USER: ADFR SOLUTION from run 196
USER: SCORE 11.516686 LL:  -2.099 LR: -11.602 RR:   0.000 FEB:  -8.321
USER: RMSD 9.905046
USER: SEED 195
USER: STATUS no improvement in best in 11 clusters for 5 generations
USER: GENES 13
USER: genes 0 Translation |==|  0.58045 0.44566 0.45379
USER: genes 1 Rotation |==|  0.84475 0.81582 0.63015 0.62025
USER: genes 2 Torsion [C]-N--CA-[CB] |==|  0.53333
USER: genes 3 Torsion [N]-CA--C-[N] |==|  0.76462
USER: genes 4 Torsion [C]-N--CA-[CB] |==|  0.79621
USER: genes 5 Torsion [N]-CA--C-[N] |==|  0.17576
USER: genes 6 Torsion [C]-N--CA-[CB] |==|  0.25455
USER: genes 7 Torsion [N]-CA--C-[O] |==|  0.20199
USER: genes 8 Torsion [N]-C--CA-[N] |==|  0.25399
USER: genes 9 Torsion [C]-CA--N-[C] |==|  0.73912
USER: genes 10 Torsion [N]-C--CA-[N] |==|  0.32343
USER: genes 11 Torsion [C]-CA--N-[C] |==|  0.67779
USER: genes 12 Torsion [N]-C--CA-[N] |==|  0.92040
ROOT
ATOM      1  C   ALA Q  12      71.915  63.363  27.485  1.00 25.44 LIG 0.24  C 
ATOM      2 O    ALA Q  12      72.896  64.081  27.619  1.00 27.01 LIG-0.27  OA
ATOM      3  N   ALA Q  13      71.858  62.336  26.646  1.00 26.02 LIG-0.35  N 
ATOM      4 H    ALA Q  13      71.217  61.763  26.617  1.00 26.02 LIG 0.16  HD
ENDROOT
BRANCH 3 5
ATOM      5  CA  ALA Q  13      72.943  62.112  25.674  1.00 27.66 LIG 0.17  C 
ATOM      6  CB  ALA Q  13      72.498  61.068  24.650  1.00 60.60 LIG 0.04  C 
BRANCH 5 7
ATOM      7  C   ALA Q  13      73.400  63.372  24.959  1.00 27.27 LIG 0.24  C 
ATOM      8 O    ALA Q  13      74.331  64.044  25.393  1.00 28.73 LIG-0.27  OA
ATOM      9  N   ALA Q  14      72.674  63.712  23.873  1.00 28.35 LIG-0.35  N 
ATOM     10 H    ALA Q  14      72.072  63.201  23.532  1.00 28.35 LIG 0.16  HD
BRANCH 9 11
ATOM     11  CA  ALA Q  14      72.835  64.974  23.170  1.00 39.95 LIG 0.17  C 
ATOM     12  CB  ALA Q  14      72.231  66.125  24.007  1.00 41.42 LIG 0.04  C 
BRANCH 11 13
ATOM     13  C   ALA Q  14      74.346  65.200  22.973  1.00 39.71 LIG 0.24  C 
ATOM     14  N   ALA Q  15      75.017  64.336  22.225  1.00 43.67 LIG-0.35  N 
ATOM     15 H    ALA Q  15      75.863  64.391  22.082  1.00 43.67 LIG 0.16  HD
ATOM     16 O    ALA Q  14      74.905  66.131  23.519  1.00 40.63 LIG-0.27  OA
BRANCH 14 17
ATOM     17  CA  ALA Q  15      74.390  63.212  21.573  1.00 45.40 LIG 0.16  C 
ATOM     18  CB  ALA Q  15      73.963  63.603  20.193  1.00 35.52 LIG 0.04  C 
BRANCH 17 19
ATOM     19  C   ALA Q  15      75.343  62.011  21.537  1.00 34.39 LIG 0.22  C 
ATOM     20 O    ALA Q  15      75.595  61.368  22.562  1.00 56.10 LIG-0.29  OA
ENDBRANCH 17 19
ENDBRANCH 14 17
ENDBRANCH 11 13
ENDBRANCH 9 11
ENDBRANCH 5 7
ENDBRANCH 3 5
BRANCH 1 21
ATOM     21  CA  ALA Q  12      70.698  63.573  28.361  1.00 23.65 LIG 0.17  C 
ATOM     22  CB  ALA Q  12      70.500  65.032  28.684  1.00 43.19 LIG 0.04  C 
BRANCH 21 23
ATOM     23  N   ALA Q  12      70.960  62.830  29.569  1.00 32.95 LIG-0.35  N 
ATOM     24  C   ALA Q  11      70.516  61.587  29.682  1.00 38.70 LIG 0.24  C 
ATOM     25 O    ALA Q  11      69.847  61.048  28.810  1.00 30.98 LIG-0.27  OA
ATOM     26 H    ALA Q  12      71.407  63.251  30.172  1.00 32.95 LIG 0.16  HD
BRANCH 24 27
ATOM     27  CA  ALA Q  11      70.857  60.865  30.977  1.00 33.56 LIG 0.17  C 
ATOM     28  CB  ALA Q  11      71.660  59.624  30.651  1.00 29.51 LIG 0.04  C 
BRANCH 27 29
ATOM     29  N   ALA Q  11      69.652  60.526  31.750  1.00 33.00 LIG-0.35  N 
ATOM     30  C   ALA Q  10      69.419  61.053  32.955  1.00 40.76 LIG 0.26  C 
ATOM     31 O    ALA Q  10      70.210  61.798  33.530  1.00 37.65 LIG-0.27  OA
ATOM     32 H    ALA Q  11      69.124  59.970  31.359  1.00 33.00 LIG 0.16  HD
BRANCH 30 33
ATOM     33  CA  ALA Q  10      68.104  60.690  33.627  1.00 39.75 LIG 0.40  C 
ATOM     34  CB  ALA Q  10      68.309  59.502  34.553  1.00 33.57 LIG 0.06  C 
ATOM     35  N   ALA Q  10      67.066  60.404  32.648  1.00 55.55 LIG 0.61  N 
ENDBRANCH 30 33
ENDBRANCH 27 29
ENDBRANCH 24 27
ENDBRANCH 21 23
ENDBRANCH 1 21
TORSDOF 11
ENDMDL
MODEL 30
USER: ADFR SOLUTION from run 63
USER: SCORE 10.954345 LL:  -2.027 LR: -11.574 RR:   0.000 FEB:  -8.293
USER: RMSD 10.099080
USER: SEED 62
USER: STATUS no improvement in best in 13 clusters for 5 generations
USER: GENES 13
USER: genes 0 Translation |==|  0.54054 0.32572 0.56595
USER: genes 1 Rotation |==|  0.18642 0.86954 0.62208 0.51423
USER: genes 2 Torsion [C]-N--CA-[CB] |==|  0.33230
USER: genes 3 Torsion [N]-CA--C-[N] |==|  0.29631
USER: genes 4 Torsion [C]-N--CA-[CB] |==|  0.87571
USER: genes 5 Torsion [N]-CA--C-[N] |==|  0.35028
USER: genes 6 Torsion [C]-N--CA-[CB] |==|  0.32341
USER: genes 7 Torsion [N]-CA--C-[O] |==|  0.06096
USER: genes 8 Torsion [N]-C--CA-[N] |==|  0.24238
USER: genes 9 Torsion [C]-CA--N-[C] |==|  0.57778
USER: genes 10 Torsion [N]-C--CA-[N] |==|  0.09740
USER: genes 11 Torsion [C]-CA--N-[C] |==|  0.17202
USER: genes 12 Torsion [N]-C--CA-[N] |==|  0.33747
ROOT
ATOM      1  C   ALA Q  12      71.257  61.025  29.757  1.00 25.44 LIG 0.24  C 
ATOM      2 O    ALA Q  12      70.232  60.594  29.247  1.00 27.01 LIG-0.27  OA
ATOM      3  N   ALA Q  13      71.806  62.193  29.444  1.00 26.02 LIG-0.35  N 
ATOM      4 H    ALA Q  13      72.463  62.553  29.865  1.00 26.02 LIG 0.16  HD
ENDROOT
BRANCH 3 5
ATOM      5  CA  ALA Q  13      71.291  62.971  28.303  1.00 27.66 LIG 0.17  C 
ATOM      6  CB  ALA Q  13      70.793  64.327  28.799  1.00 60.60 LIG 0.04  C 
BRANCH 5 7
ATOM      7  C   ALA Q  13      72.302  63.170  27.186  1.00 27.27 LIG 0.24  C 
ATOM      8 O    ALA Q  13      73.214  63.985  27.296  1.00 28.73 LIG-0.27  OA
ATOM      9  N   ALA Q  14      72.080  62.439  26.074  1.00 28.35 LIG-0.35  N 
ATOM     10 H    ALA Q  14      71.487  61.818  26.030  1.00 28.35 LIG 0.16  HD
BRANCH 9 11
ATOM     11  CA  ALA Q  14      72.821  62.626  24.837  1.00 39.95 LIG 0.17  C 
ATOM     12  CB  ALA Q  14      72.945  64.134  24.518  1.00 41.42 LIG 0.04  C 
BRANCH 11 13
ATOM     13  C   ALA Q  14      74.220  62.013  25.043  1.00 39.71 LIG 0.24  C 
ATOM     14  N   ALA Q  15      74.644  61.111  24.169  1.00 43.67 LIG-0.35  N 
ATOM     15 H    ALA Q  15      75.407  60.717  24.229  1.00 43.67 LIG 0.16  HD
ATOM     16 O    ALA Q  14      74.895  62.330  26.002  1.00 40.63 LIG-0.27  OA
BRANCH 14 17
ATOM     17  CA  ALA Q  15      73.865  60.699  23.027  1.00 45.40 LIG 0.16  C 
ATOM     18  CB  ALA Q  15      74.577  61.079  21.767  1.00 35.52 LIG 0.04  C 
BRANCH 17 19
ATOM     19  C   ALA Q  15      73.595  59.191  23.076  1.00 34.39 LIG 0.22  C 
ATOM     20 O    ALA Q  15      73.652  58.568  24.142  1.00 56.10 LIG-0.29  OA
ENDBRANCH 17 19
ENDBRANCH 14 17
ENDBRANCH 11 13
ENDBRANCH 9 11
ENDBRANCH 5 7
ENDBRANCH 3 5
BRANCH 1 21
ATOM     21  CA  ALA Q  12      71.934  60.251  30.868  1.00 23.65 LIG 0.17  C 
ATOM     22  CB  ALA Q  12      71.695  58.769  30.729  1.00 43.19 LIG 0.04  C 
BRANCH 21 23
ATOM     23  N   ALA Q  12      71.339  60.734  32.091  1.00 32.95 LIG-0.35  N 
ATOM     24  C   ALA Q  11      72.038  60.702  33.215  1.00 38.70 LIG 0.24  C 
ATOM     25 O    ALA Q  11      73.168  60.234  33.272  1.00 30.98 LIG-0.27  OA
ATOM     26 H    ALA Q  12      70.533  61.027  32.018  1.00 32.95 LIG 0.16  HD
BRANCH 24 27
ATOM     27  CA  ALA Q  11      71.347  61.253  34.454  1.00 33.56 LIG 0.17  C 
ATOM     28  CB  ALA Q  11      72.010  60.674  35.685  1.00 29.51 LIG 0.04  C 
BRANCH 27 29
ATOM     29  N   ALA Q  11      69.904  60.969  34.449  1.00 33.00 LIG-0.35  N 
ATOM     30  C   ALA Q  10      69.434  59.719  34.455  1.00 40.76 LIG 0.26  C 
ATOM     31 O    ALA Q  10      70.157  58.725  34.402  1.00 37.65 LIG-0.27  OA
ATOM     32 H    ALA Q  11      69.404  61.669  34.442  1.00 33.00 LIG 0.16  HD
BRANCH 30 33
ATOM     33  CA  ALA Q  10      67.925  59.546  34.527  1.00 39.75 LIG 0.40  C 
ATOM     34  CB  ALA Q  10      67.545  58.859  35.828  1.00 33.57 LIG 0.06  C 
ATOM     35  N   ALA Q  10      67.419  58.798  33.386  1.00 55.55 LIG 0.61  N 
ENDBRANCH 30 33
ENDBRANCH 27 29
ENDBRANCH 24 27
ENDBRANCH 21 23
ENDBRANCH 1 21
TORSDOF 11
ENDMDL
MODEL 31
USER: ADFR SOLUTION from run 174
USER: SCORE 11.707940 LL:  -1.862 LR: -11.564 RR:   0.000 FEB:  -8.283
USER: RMSD 10.879289
USER: SEED 173
USER: STATUS no improvement in best in 9 clusters for 5 generations
USER: GENES 13
USER: genes 0 Translation |==|  0.51779 0.34549 0.57108
USER: genes 1 Rotation |==|  0.87805 0.17330 0.49170 0.51649
USER: genes 2 Torsion [C]-N--CA-[CB] |==|  0.25597
USER: genes 3 Torsion [N]-CA--C-[N] |==|  0.47381
USER: genes 4 Torsion [C]-N--CA-[CB] |==|  0.86317
USER: genes 5 Torsion [N]-CA--C-[N] |==|  0.38319
USER: genes 6 Torsion [C]-N--CA-[CB] |==|  0.43231
USER: genes 7 Torsion [N]-CA--C-[O] |==|  0.19656
USER: genes 8 Torsion [N]-C--CA-[N] |==|  0.42494
USER: genes 9 Torsion [C]-CA--N-[C] |==|  0.62887
USER: genes 10 Torsion [N]-C--CA-[N] |==|  0.46655
USER: genes 11 Torsion [C]-CA--N-[C] |==|  0.53220
USER: genes 12 Torsion [N]-C--CA-[N] |==|  0.35846
ROOT
ATOM      1  C   ALA Q  12      70.881  61.410  29.860  1.00 25.44 LIG 0.24  C 
ATOM      2 O    ALA Q  12      70.211  60.506  29.382  1.00 27.01 LIG-0.27  OA
ATOM      3  N   ALA Q  13      71.186  62.529  29.213  1.00 26.02 LIG-0.35  N 
ATOM      4 H    ALA Q  13      71.566  63.213  29.570  1.00 26.02 LIG 0.16  HD
ENDROOT
BRANCH 3 5
ATOM      5  CA  ALA Q  13      70.874  62.663  27.779  1.00 27.66 LIG 0.17  C 
ATOM      6  CB  ALA Q  13      69.496  63.303  27.619  1.00 60.60 LIG 0.04  C 
BRANCH 5 7
ATOM      7  C   ALA Q  13      71.905  63.457  26.995  1.00 27.27 LIG 0.24  C 
ATOM      8 O    ALA Q  13      72.769  64.112  27.570  1.00 28.73 LIG-0.27  OA
ATOM      9  N   ALA Q  14      71.753  63.429  25.655  1.00 28.35 LIG-0.35  N 
ATOM     10 H    ALA Q  14      71.194  62.911  25.256  1.00 28.35 LIG 0.16  HD
BRANCH 9 11
ATOM     11  CA  ALA Q  14      72.519  64.270  24.748  1.00 39.95 LIG 0.17  C 
ATOM     12  CB  ALA Q  14      72.478  65.738  25.229  1.00 41.42 LIG 0.04  C 
BRANCH 11 13
ATOM     13  C   ALA Q  14      73.969  63.750  24.756  1.00 39.71 LIG 0.24  C 
ATOM     14  N   ALA Q  15      74.614  63.671  23.601  1.00 43.67 LIG-0.35  N 
ATOM     15 H    ALA Q  15      75.420  63.379  23.528  1.00 43.67 LIG 0.16  HD
ATOM     16 O    ALA Q  14      74.489  63.393  25.795  1.00 40.63 LIG-0.27  OA
BRANCH 14 17
ATOM     17  CA  ALA Q  15      74.025  64.072  22.347  1.00 45.40 LIG 0.16  C 
ATOM     18  CB  ALA Q  15      75.104  64.431  21.373  1.00 35.52 LIG 0.04  C 
BRANCH 17 19
ATOM     19  C   ALA Q  15      73.131  62.957  21.792  1.00 34.39 LIG 0.22  C 
ATOM     20 O    ALA Q  15      72.053  62.680  22.330  1.00 56.10 LIG-0.29  OA
ENDBRANCH 17 19
ENDBRANCH 14 17
ENDBRANCH 11 13
ENDBRANCH 9 11
ENDBRANCH 5 7
ENDBRANCH 3 5
BRANCH 1 21
ATOM     21  CA  ALA Q  12      71.350  61.327  31.298  1.00 23.65 LIG 0.17  C 
ATOM     22  CB  ALA Q  12      72.750  60.773  31.387  1.00 43.19 LIG 0.04  C 
BRANCH 21 23
ATOM     23  N   ALA Q  12      70.424  60.437  31.954  1.00 32.95 LIG-0.35  N 
ATOM     24  C   ALA Q  11      69.915  60.774  33.130  1.00 38.70 LIG 0.24  C 
ATOM     25 O    ALA Q  11      70.234  61.803  33.712  1.00 30.98 LIG-0.27  OA
ATOM     26 H    ALA Q  12      70.246  59.710  31.530  1.00 32.95 LIG 0.16  HD
BRANCH 24 27
ATOM     27  CA  ALA Q  11      68.927  59.794  33.743  1.00 33.56 LIG 0.17  C 
ATOM     28  CB  ALA Q  11      67.657  59.795  32.918  1.00 29.51 LIG 0.04  C 
BRANCH 27 29
ATOM     29  N   ALA Q  11      68.642  60.110  35.151  1.00 33.00 LIG-0.35  N 
ATOM     30  C   ALA Q  10      67.986  59.258  35.943  1.00 40.76 LIG 0.26  C 
ATOM     31 O    ALA Q  10      67.522  58.190  35.549  1.00 37.65 LIG-0.27  OA
ATOM     32 H    ALA Q  11      68.932  60.879  35.408  1.00 33.00 LIG 0.16  HD
BRANCH 30 33
ATOM     33  CA  ALA Q  10      67.816  59.659  37.401  1.00 39.75 LIG 0.40  C 
ATOM     34  CB  ALA Q  10      68.713  58.803  38.279  1.00 33.57 LIG 0.06  C 
ATOM     35  N   ALA Q  10      66.428  59.550  37.824  1.00 55.55 LIG 0.61  N 
ENDBRANCH 30 33
ENDBRANCH 27 29
ENDBRANCH 24 27
ENDBRANCH 21 23
ENDBRANCH 1 21
TORSDOF 11
ENDMDL
MODEL 32
USER: ADFR SOLUTION from run 24
USER: SCORE 11.476083 LL:  -2.282 LR: -11.417 RR:   0.000 FEB:  -8.136
USER: RMSD 9.654262
USER: SEED 23
USER: STATUS no improvement in best in 13 clusters for 5 generations
USER: GENES 13
USER: genes 0 Translation |==|  0.60160 0.43048 0.44249
USER: genes 1 Rotation |==|  0.86211 0.71892 0.72389 0.64432
USER: genes 2 Torsion [C]-N--CA-[CB] |==|  0.19473
USER: genes 3 Torsion [N]-CA--C-[N] |==|  0.42240
USER: genes 4 Torsion [C]-N--CA-[CB] |==|  0.80544
USER: genes 5 Torsion [N]-CA--C-[N] |==|  0.19792
USER: genes 6 Torsion [C]-N--CA-[CB] |==|  0.38392
USER: genes 7 Torsion [N]-CA--C-[O] |==|  0.97313
USER: genes 8 Torsion [N]-C--CA-[N] |==|  0.37246
USER: genes 9 Torsion [C]-CA--N-[C] |==|  0.74061
USER: genes 10 Torsion [N]-C--CA-[N] |==|  0.81234
USER: genes 11 Torsion [C]-CA--N-[C] |==|  0.76057
USER: genes 12 Torsion [N]-C--CA-[N] |==|  0.20636
ROOT
ATOM      1  C   ALA Q  12      72.264  63.067  27.256  1.00 25.44 LIG 0.24  C 
ATOM      2 O    ALA Q  12      73.213  63.415  27.945  1.00 27.01 LIG-0.27  OA
ATOM      3  N   ALA Q  13      72.377  62.322  26.163  1.00 26.02 LIG-0.35  N 
ATOM      4 H    ALA Q  13      71.714  61.985  25.730  1.00 26.02 LIG 0.16  HD
ENDROOT
BRANCH 3 5
ATOM      5  CA  ALA Q  13      73.708  62.018  25.607  1.00 27.66 LIG 0.17  C 
ATOM      6  CB  ALA Q  13      74.440  61.059  26.544  1.00 60.60 LIG 0.04  C 
BRANCH 5 7
ATOM      7  C   ALA Q  13      73.672  61.441  24.203  1.00 27.27 LIG 0.24  C 
ATOM      8 O    ALA Q  13      72.728  60.755  23.824  1.00 28.73 LIG-0.27  OA
ATOM      9  N   ALA Q  14      74.765  61.691  23.452  1.00 28.35 LIG-0.35  N 
ATOM     10 H    ALA Q  14      75.389  62.231  23.694  1.00 28.35 LIG 0.16  HD
BRANCH 9 11
ATOM     11  CA  ALA Q  14      75.001  61.071  22.157  1.00 39.95 LIG 0.17  C 
ATOM     12  CB  ALA Q  14      75.314  59.569  22.341  1.00 41.42 LIG 0.04  C 
BRANCH 11 13
ATOM     13  C   ALA Q  14      73.717  61.247  21.324  1.00 39.71 LIG 0.24  C 
ATOM     14  N   ALA Q  15      73.417  62.460  20.882  1.00 43.67 LIG-0.35  N 
ATOM     15 H    ALA Q  15      72.710  62.634  20.423  1.00 43.67 LIG 0.16  HD
ATOM     16 O    ALA Q  14      72.989  60.298  21.111  1.00 40.63 LIG-0.27  OA
BRANCH 14 17
ATOM     17  CA  ALA Q  15      74.250  63.611  21.127  1.00 45.40 LIG 0.16  C 
ATOM     18  CB  ALA Q  15      74.338  64.444  19.887  1.00 35.52 LIG 0.04  C 
BRANCH 17 19
ATOM     19  C   ALA Q  15      73.703  64.429  22.303  1.00 34.39 LIG 0.22  C 
ATOM     20 O    ALA Q  15      72.594  64.182  22.789  1.00 56.10 LIG-0.29  OA
ENDBRANCH 17 19
ENDBRANCH 14 17
ENDBRANCH 11 13
ENDBRANCH 9 11
ENDBRANCH 5 7
ENDBRANCH 3 5
BRANCH 1 21
ATOM     21  CA  ALA Q  12      70.853  63.419  27.677  1.00 23.65 LIG 0.17  C 
ATOM     22  CB  ALA Q  12      70.539  64.865  27.388  1.00 43.19 LIG 0.04  C 
BRANCH 21 23
ATOM     23  N   ALA Q  12      70.803  63.177  29.098  1.00 32.95 LIG-0.35  N 
ATOM     24  C   ALA Q  11      70.387  62.002  29.547  1.00 38.70 LIG 0.24  C 
ATOM     25 O    ALA Q  11      69.996  61.115  28.799  1.00 30.98 LIG-0.27  OA
ATOM     26 H    ALA Q  12      71.056  63.833  29.594  1.00 32.95 LIG 0.16  HD
BRANCH 24 27
ATOM     27  CA  ALA Q  11      70.388  61.819  31.057  1.00 33.56 LIG 0.17  C 
ATOM     28  CB  ALA Q  11      69.567  62.924  31.687  1.00 29.51 LIG 0.04  C 
BRANCH 27 29
ATOM     29  N   ALA Q  11      71.753  61.798  31.606  1.00 33.00 LIG-0.35  N 
ATOM     30  C   ALA Q  10      72.470  60.672  31.661  1.00 40.76 LIG 0.26  C 
ATOM     31 O    ALA Q  10      72.030  59.574  31.325  1.00 37.65 LIG-0.27  OA
ATOM     32 H    ALA Q  11      72.038  62.563  31.880  1.00 33.00 LIG 0.16  HD
BRANCH 30 33
ATOM     33  CA  ALA Q  10      73.896  60.784  32.177  1.00 39.75 LIG 0.40  C 
ATOM     34  CB  ALA Q  10      74.686  59.547  31.783  1.00 33.57 LIG 0.06  C 
ATOM     35  N   ALA Q  10      73.928  60.975  33.619  1.00 55.55 LIG 0.61  N 
ENDBRANCH 30 33
ENDBRANCH 27 29
ENDBRANCH 24 27
ENDBRANCH 21 23
ENDBRANCH 1 21
TORSDOF 11
ENDMDL
MODEL 33
USER: ADFR SOLUTION from run 16
USER: SCORE 12.144973 LL:  -1.819 LR: -11.400 RR:   0.000 FEB:  -8.119
USER: RMSD 9.142528
USER: SEED 55284
USER: STATUS no improvement in best in 9 clusters for 5 generations
USER: GENES 13
USER: genes 0 Translation |==|  0.54788 0.46597 0.45970
USER: genes 1 Rotation |==|  0.89711 0.72637 0.70125 0.52374
USER: genes 2 Torsion [C]-N--CA-[CB] |==|  0.83641
USER: genes 3 Torsion [N]-CA--C-[N] |==|  0.41615
USER: genes 4 Torsion [C]-N--CA-[CB] |==|  0.82419
USER: genes 5 Torsion [N]-CA--C-[N] |==|  0.23373
USER: genes 6 Torsion [C]-N--CA-[CB] |==|  0.24446
USER: genes 7 Torsion [N]-CA--C-[O] |==|  0.77112
USER: genes 8 Torsion [N]-C--CA-[N] |==|  0.36667
USER: genes 9 Torsion [C]-CA--N-[C] |==|  0.76237
USER: genes 10 Torsion [N]-C--CA-[N] |==|  0.28794
USER: genes 11 Torsion [C]-CA--N-[C] |==|  0.67858
USER: genes 12 Torsion [N]-C--CA-[N] |==|  0.02994
ROOT
ATOM      1  C   ALA Q  12      71.378  63.759  27.605  1.00 25.44 LIG 0.24  C 
ATOM      2 O    ALA Q  12      72.478  64.071  28.040  1.00 27.01 LIG-0.27  OA
ATOM      3  N   ALA Q  13      71.151  63.415  26.343  1.00 26.02 LIG-0.35  N 
ATOM      4 H    ALA Q  13      70.409  63.095  26.048  1.00 26.02 LIG 0.16  HD
ENDROOT
BRANCH 3 5
ATOM      5  CA  ALA Q  13      72.211  63.570  25.331  1.00 27.66 LIG 0.17  C 
ATOM      6  CB  ALA Q  13      72.637  65.036  25.264  1.00 60.60 LIG 0.04  C 
BRANCH 5 7
ATOM      7  C   ALA Q  13      73.427  62.691  25.571  1.00 27.27 LIG 0.24  C 
ATOM      8 O    ALA Q  13      73.791  62.413  26.710  1.00 28.73 LIG-0.27  OA
ATOM      9  N   ALA Q  14      74.086  62.306  24.458  1.00 28.35 LIG-0.35  N 
ATOM     10 H    ALA Q  14      73.786  62.442  23.664  1.00 28.35 LIG 0.16  HD
BRANCH 9 11
ATOM     11  CA  ALA Q  14      75.370  61.624  24.489  1.00 39.95 LIG 0.17  C 
ATOM     12  CB  ALA Q  14      76.441  62.544  25.117  1.00 41.42 LIG 0.04  C 
BRANCH 11 13
ATOM     13  C   ALA Q  14      75.194  60.354  25.344  1.00 39.71 LIG 0.24  C 
ATOM     14  N   ALA Q  15      74.713  59.266  24.760  1.00 43.67 LIG-0.35  N 
ATOM     15 H    ALA Q  15      74.576  58.527  25.178  1.00 43.67 LIG 0.16  HD
ATOM     16 O    ALA Q  14      75.464  60.370  26.528  1.00 40.63 LIG-0.27  OA
BRANCH 14 17
ATOM     17  CA  ALA Q  15      74.370  59.215  23.360  1.00 45.40 LIG 0.16  C 
ATOM     18  CB  ALA Q  15      75.573  58.829  22.559  1.00 35.52 LIG 0.04  C 
BRANCH 17 19
ATOM     19  C   ALA Q  15      73.213  58.237  23.125  1.00 34.39 LIG 0.22  C 
ATOM     20 O    ALA Q  15      73.418  57.022  23.025  1.00 56.10 LIG-0.29  OA
ENDBRANCH 17 19
ENDBRANCH 14 17
ENDBRANCH 11 13
ENDBRANCH 9 11
ENDBRANCH 5 7
ENDBRANCH 3 5
BRANCH 1 21
ATOM     21  CA  ALA Q  12      70.190  63.674  28.539  1.00 23.65 LIG 0.17  C 
ATOM     22  CB  ALA Q  12      69.700  65.045  28.931  1.00 43.19 LIG 0.04  C 
BRANCH 21 23
ATOM     23  N   ALA Q  12      70.666  62.967  29.704  1.00 32.95 LIG-0.35  N 
ATOM     24  C   ALA Q  11      70.657  61.643  29.714  1.00 38.70 LIG 0.24  C 
ATOM     25 O    ALA Q  11      70.217  60.982  28.782  1.00 30.98 LIG-0.27  OA
ATOM     26 H    ALA Q  12      70.939  63.464  30.351  1.00 32.95 LIG 0.16  HD
BRANCH 24 27
ATOM     27  CA  ALA Q  11      71.199  60.976  30.969  1.00 33.56 LIG 0.17  C 
ATOM     28  CB  ALA Q  11      72.151  59.869  30.566  1.00 29.51 LIG 0.04  C 
BRANCH 27 29
ATOM     29  N   ALA Q  11      70.120  60.457  31.824  1.00 33.00 LIG-0.35  N 
ATOM     30  C   ALA Q  10      69.900  60.943  33.049  1.00 40.76 LIG 0.26  C 
ATOM     31 O    ALA Q  10      70.609  61.800  33.573  1.00 37.65 LIG-0.27  OA
ATOM     32 H    ALA Q  11      69.655  59.827  31.467  1.00 33.00 LIG 0.16  HD
BRANCH 30 33
ATOM     33  CA  ALA Q  10      68.709  60.384  33.812  1.00 39.75 LIG 0.40  C 
ATOM     34  CB  ALA Q  10      69.120  60.048  35.236  1.00 33.57 LIG 0.06  C 
ATOM     35  N   ALA Q  10      68.152  59.214  33.149  1.00 55.55 LIG 0.61  N 
ENDBRANCH 30 33
ENDBRANCH 27 29
ENDBRANCH 24 27
ENDBRANCH 21 23
ENDBRANCH 1 21
TORSDOF 11
ENDMDL
MODEL 34
USER: ADFR SOLUTION from run 8
USER: SCORE 11.043429 LL:  -2.150 LR: -11.364 RR:   0.000 FEB:  -8.082
USER: RMSD 3.907868
USER: SEED 918529
USER: STATUS no improvement in best in 16 clusters for 5 generations
USER: GENES 13
USER: genes 0 Translation |==|  0.68151 0.36287 0.38579
USER: genes 1 Rotation |==|  0.40337 0.42004 0.41058 0.97568
USER: genes 2 Torsion [C]-N--CA-[CB] |==|  0.34794
USER: genes 3 Torsion [N]-CA--C-[N] |==|  0.35013
USER: genes 4 Torsion [C]-N--CA-[CB] |==|  0.88342
USER: genes 5 Torsion [N]-CA--C-[N] |==|  0.34444
USER: genes 6 Torsion [C]-N--CA-[CB] |==|  0.32371
USER: genes 7 Torsion [N]-CA--C-[O] |==|  0.90908
USER: genes 8 Torsion [N]-C--CA-[N] |==|  0.33476
USER: genes 9 Torsion [C]-CA--N-[C] |==|  0.58949
USER: genes 10 Torsion [N]-C--CA-[N] |==|  0.88256
USER: genes 11 Torsion [C]-CA--N-[C] |==|  0.84958
USER: genes 12 Torsion [N]-C--CA-[N] |==|  0.32718
ROOT
ATOM      1  C   ALA Q  12      73.583  61.749  26.108  1.00 25.44 LIG 0.24  C 
ATOM      2 O    ALA Q  12      74.456  62.415  26.646  1.00 27.01 LIG-0.27  OA
ATOM      3  N   ALA Q  13      72.289  61.862  26.383  1.00 26.02 LIG-0.35  N 
ATOM      4 H    ALA Q  13      71.659  61.477  25.942  1.00 26.02 LIG 0.16  HD
ENDROOT
BRANCH 3 5
ATOM      5  CA  ALA Q  13      71.843  62.695  27.515  1.00 27.66 LIG 0.17  C 
ATOM      6  CB  ALA Q  13      70.828  63.723  27.018  1.00 60.60 LIG 0.04  C 
BRANCH 5 7
ATOM      7  C   ALA Q  13      71.250  61.902  28.668  1.00 27.27 LIG 0.24  C 
ATOM      8 O    ALA Q  13      70.296  61.150  28.494  1.00 28.73 LIG-0.27  OA
ATOM      9  N   ALA Q  14      71.809  62.138  29.873  1.00 28.35 LIG-0.35  N 
ATOM     10 H    ALA Q  14      72.522  62.608  29.977  1.00 28.35 LIG 0.16  HD
BRANCH 9 11
ATOM     11  CA  ALA Q  14      71.263  61.622  31.119  1.00 39.95 LIG 0.17  C 
ATOM     12  CB  ALA Q  14      69.724  61.760  31.117  1.00 41.42 LIG 0.04  C 
BRANCH 11 13
ATOM     13  C   ALA Q  14      71.662  60.137  31.214  1.00 39.71 LIG 0.24  C 
ATOM     14  N   ALA Q  15      72.330  59.734  32.286  1.00 43.67 LIG-0.35  N 
ATOM     15 H    ALA Q  15      72.596  58.924  32.400  1.00 43.67 LIG 0.16  HD
ATOM     16 O    ALA Q  14      71.394  59.370  30.310  1.00 40.63 LIG-0.27  OA
BRANCH 14 17
ATOM     17  CA  ALA Q  15      72.677  60.619  33.371  1.00 45.40 LIG 0.16  C 
ATOM     18  CB  ALA Q  15      71.990  60.174  34.624  1.00 35.52 LIG 0.04  C 
BRANCH 17 19
ATOM     19  C   ALA Q  15      74.197  60.666  33.561  1.00 34.39 LIG 0.22  C 
ATOM     20 O    ALA Q  15      74.898  59.673  33.333  1.00 56.10 LIG-0.29  OA
ENDBRANCH 17 19
ENDBRANCH 14 17
ENDBRANCH 11 13
ENDBRANCH 9 11
ENDBRANCH 5 7
ENDBRANCH 3 5
BRANCH 1 21
ATOM     21  CA  ALA Q  12      73.943  60.779  25.003  1.00 23.65 LIG 0.17  C 
ATOM     22  CB  ALA Q  12      74.851  59.686  25.507  1.00 43.19 LIG 0.04  C 
BRANCH 21 23
ATOM     23  N   ALA Q  12      74.624  61.567  24.005  1.00 32.95 LIG-0.35  N 
ATOM     24  C   ALA Q  11      74.509  61.244  22.726  1.00 38.70 LIG 0.24  C 
ATOM     25 O    ALA Q  11      73.875  60.266  22.351  1.00 30.98 LIG-0.27  OA
ATOM     26 H    ALA Q  12      75.084  62.228  24.308  1.00 32.95 LIG 0.16  HD
BRANCH 24 27
ATOM     27  CA  ALA Q  11      75.237  62.140  21.736  1.00 33.56 LIG 0.17  C 
ATOM     28  CB  ALA Q  11      76.697  61.741  21.692  1.00 29.51 LIG 0.04  C 
BRANCH 27 29
ATOM     29  N   ALA Q  11      75.091  63.565  22.076  1.00 33.00 LIG-0.35  N 
ATOM     30  C   ALA Q  10      73.891  64.125  22.248  1.00 40.76 LIG 0.26  C 
ATOM     31 O    ALA Q  10      72.833  63.522  22.076  1.00 37.65 LIG-0.27  OA
ATOM     32 H    ALA Q  11      75.835  63.990  22.151  1.00 33.00 LIG 0.16  HD
BRANCH 30 33
ATOM     33  CA  ALA Q  10      73.863  65.586  22.672  1.00 39.75 LIG 0.40  C 
ATOM     34  CB  ALA Q  10      73.165  65.719  24.015  1.00 33.57 LIG 0.06  C 
ATOM     35  N   ALA Q  10      73.213  66.418  21.671  1.00 55.55 LIG 0.61  N 
ENDBRANCH 30 33
ENDBRANCH 27 29
ENDBRANCH 24 27
ENDBRANCH 21 23
ENDBRANCH 1 21
TORSDOF 11
ENDMDL
MODEL 35
USER: ADFR SOLUTION from run 145
USER: SCORE 11.745822 LL:  -2.079 LR: -11.345 RR:   0.000 FEB:  -8.063
USER: RMSD 9.866750
USER: SEED 144
USER: STATUS no improvement in best in 17 clusters for 5 generations
USER: GENES 13
USER: genes 0 Translation |==|  0.50935 0.36477 0.54663
USER: genes 1 Rotation |==|  0.09718 0.77491 0.49006 0.60981
USER: genes 2 Torsion [C]-N--CA-[CB] |==|  0.47856
USER: genes 3 Torsion [N]-CA--C-[N] |==|  0.32261
USER: genes 4 Torsion [C]-N--CA-[CB] |==|  0.87222
USER: genes 5 Torsion [N]-CA--C-[N] |==|  0.40366
USER: genes 6 Torsion [C]-N--CA-[CB] |==|  0.35585
USER: genes 7 Torsion [N]-CA--C-[O] |==|  0.82200
USER: genes 8 Torsion [N]-C--CA-[N] |==|  0.29688
USER: genes 9 Torsion [C]-CA--N-[C] |==|  0.74682
USER: genes 10 Torsion [N]-C--CA-[N] |==|  0.14953
USER: genes 11 Torsion [C]-CA--N-[C] |==|  0.18301
USER: genes 12 Torsion [N]-C--CA-[N] |==|  0.29943
ROOT
ATOM      1  C   ALA Q  12      70.742  61.786  29.365  1.00 25.44 LIG 0.24  C 
ATOM      2 O    ALA Q  12      70.538  61.036  28.421  1.00 27.01 LIG-0.27  OA
ATOM      3  N   ALA Q  13      70.926  63.096  29.246  1.00 26.02 LIG-0.35  N 
ATOM      4 H    ALA Q  13      70.967  63.647  29.905  1.00 26.02 LIG 0.16  HD
ENDROOT
BRANCH 3 5
ATOM      5  CA  ALA Q  13      71.079  63.703  27.911  1.00 27.66 LIG 0.17  C 
ATOM      6  CB  ALA Q  13      71.083  65.225  28.046  1.00 60.60 LIG 0.04  C 
BRANCH 5 7
ATOM      7  C   ALA Q  13      72.321  63.249  27.165  1.00 27.27 LIG 0.24  C 
ATOM      8 O    ALA Q  13      73.443  63.546  27.564  1.00 28.73 LIG-0.27  OA
ATOM      9  N   ALA Q  14      72.088  62.564  26.026  1.00 28.35 LIG-0.35  N 
ATOM     10 H    ALA Q  14      71.306  62.296  25.790  1.00 28.35 LIG 0.16  HD
BRANCH 9 11
ATOM     11  CA  ALA Q  14      73.135  62.209  25.081  1.00 39.95 LIG 0.17  C 
ATOM     12  CB  ALA Q  14      74.044  63.431  24.818  1.00 41.42 LIG 0.04  C 
BRANCH 11 13
ATOM     13  C   ALA Q  14      73.953  61.066  25.711  1.00 39.71 LIG 0.24  C 
ATOM     14  N   ALA Q  15      74.447  60.132  24.911  1.00 43.67 LIG-0.35  N 
ATOM     15 H    ALA Q  15      74.901  59.459  25.194  1.00 43.67 LIG 0.16  HD
ATOM     16 O    ALA Q  14      74.109  61.014  26.915  1.00 40.63 LIG-0.27  OA
BRANCH 14 17
ATOM     17  CA  ALA Q  15      74.270  60.154  23.480  1.00 45.40 LIG 0.16  C 
ATOM     18  CB  ALA Q  15      75.598  60.009  22.805  1.00 35.52 LIG 0.04  C 
BRANCH 17 19
ATOM     19  C   ALA Q  15      73.304  59.048  23.041  1.00 34.39 LIG 0.22  C 
ATOM     20 O    ALA Q  15      73.588  57.855  23.200  1.00 56.10 LIG-0.29  OA
ENDBRANCH 17 19
ENDBRANCH 14 17
ENDBRANCH 11 13
ENDBRANCH 9 11
ENDBRANCH 5 7
ENDBRANCH 3 5
BRANCH 1 21
ATOM     21  CA  ALA Q  12      70.717  61.247  30.780  1.00 23.65 LIG 0.17  C 
ATOM     22  CB  ALA Q  12      71.568  60.010  30.911  1.00 43.19 LIG 0.04  C 
BRANCH 21 23
ATOM     23  N   ALA Q  12      69.335  60.926  31.045  1.00 32.95 LIG-0.35  N 
ATOM     24  C   ALA Q  11      68.545  61.839  31.589  1.00 38.70 LIG 0.24  C 
ATOM     25 O    ALA Q  11      68.952  62.945  31.921  1.00 30.98 LIG-0.27  OA
ATOM     26 H    ALA Q  12      69.093  60.130  30.826  1.00 32.95 LIG 0.16  HD
BRANCH 24 27
ATOM     27  CA  ALA Q  11      67.097  61.430  31.812  1.00 33.56 LIG 0.17  C 
ATOM     28  CB  ALA Q  11      66.368  62.561  32.505  1.00 29.51 LIG 0.04  C 
BRANCH 27 29
ATOM     29  N   ALA Q  11      66.993  60.183  32.586  1.00 33.00 LIG-0.35  N 
ATOM     30  C   ALA Q  10      67.387  60.112  33.860  1.00 40.76 LIG 0.26  C 
ATOM     31 O    ALA Q  10      67.917  61.048  34.456  1.00 37.65 LIG-0.27  OA
ATOM     32 H    ALA Q  11      66.661  59.520  32.148  1.00 33.00 LIG 0.16  HD
BRANCH 30 33
ATOM     33  CA  ALA Q  10      67.161  58.793  34.583  1.00 39.75 LIG 0.40  C 
ATOM     34  CB  ALA Q  10      66.454  59.043  35.904  1.00 33.57 LIG 0.06  C 
ATOM     35  N   ALA Q  10      68.412  58.081  34.796  1.00 55.55 LIG 0.61  N 
ENDBRANCH 30 33
ENDBRANCH 27 29
ENDBRANCH 24 27
ENDBRANCH 21 23
ENDBRANCH 1 21
TORSDOF 11
ENDMDL
MODEL 36
USER: ADFR SOLUTION from run 145
USER: SCORE 11.165755 LL:  -2.325 LR: -11.324 RR:   0.000 FEB:  -8.043
USER: RMSD 2.775632
USER: SEED 144
USER: STATUS no improvement in best in 17 clusters for 5 generations
USER: GENES 13
USER: genes 0 Translation |==|  0.59449 0.40846 0.44500
USER: genes 1 Rotation |==|  0.52218 0.46006 0.46892 0.99694
USER: genes 2 Torsion [C]-N--CA-[CB] |==|  0.45102
USER: genes 3 Torsion [N]-CA--C-[N] |==|  0.41935
USER: genes 4 Torsion [C]-N--CA-[CB] |==|  0.22855
USER: genes 5 Torsion [N]-CA--C-[N] |==|  0.19999
USER: genes 6 Torsion [C]-N--CA-[CB] |==|  0.37725
USER: genes 7 Torsion [N]-CA--C-[O] |==|  0.06312
USER: genes 8 Torsion [N]-C--CA-[N] |==|  0.35285
USER: genes 9 Torsion [C]-CA--N-[C] |==|  0.78748
USER: genes 10 Torsion [N]-C--CA-[N] |==|  0.12068
USER: genes 11 Torsion [C]-CA--N-[C] |==|  0.12487
USER: genes 12 Torsion [N]-C--CA-[N] |==|  0.29539
ROOT
ATOM      1  C   ALA Q  12      72.147  62.638  27.307  1.00 25.44 LIG 0.24  C 
ATOM      2 O    ALA Q  12      72.917  63.241  28.041  1.00 27.01 LIG-0.27  OA
ATOM      3  N   ALA Q  13      70.938  62.230  27.676  1.00 26.02 LIG-0.35  N 
ATOM      4 H    ALA Q  13      70.350  61.899  27.143  1.00 26.02 LIG 0.16  HD
ENDROOT
BRANCH 3 5
ATOM      5  CA  ALA Q  13      70.522  62.327  29.087  1.00 27.66 LIG 0.17  C 
ATOM      6  CB  ALA Q  13      69.000  62.220  29.174  1.00 60.60 LIG 0.04  C 
BRANCH 5 7
ATOM      7  C   ALA Q  13      71.165  61.290  29.992  1.00 27.27 LIG 0.24  C 
ATOM      8 O    ALA Q  13      71.455  60.174  29.570  1.00 28.73 LIG-0.27  OA
ATOM      9  N   ALA Q  14      71.326  61.671  31.276  1.00 28.35 LIG-0.35  N 
ATOM     10 H    ALA Q  14      71.190  62.475  31.549  1.00 28.35 LIG 0.16  HD
BRANCH 9 11
ATOM     11  CA  ALA Q  14      71.747  60.761  32.330  1.00 39.95 LIG 0.17  C 
ATOM     12  CB  ALA Q  14      73.285  60.609  32.314  1.00 41.42 LIG 0.04  C 
BRANCH 11 13
ATOM     13  C   ALA Q  14      71.288  61.368  33.670  1.00 39.71 LIG 0.24  C 
ATOM     14  N   ALA Q  15      69.994  61.354  33.956  1.00 43.67 LIG-0.35  N 
ATOM     15 H    ALA Q  15      69.666  61.686  34.678  1.00 43.67 LIG 0.16  HD
ATOM     16 O    ALA Q  14      72.097  61.874  34.423  1.00 40.63 LIG-0.27  OA
BRANCH 14 17
ATOM     17  CA  ALA Q  15      69.005  60.776  33.080  1.00 45.40 LIG 0.16  C 
ATOM     18  CB  ALA Q  15      68.041  59.955  33.878  1.00 35.52 LIG 0.04  C 
BRANCH 17 19
ATOM     19  C   ALA Q  15      68.277  61.872  32.293  1.00 34.39 LIG 0.22  C 
ATOM     20 O    ALA Q  15      68.797  62.979  32.115  1.00 56.10 LIG-0.29  OA
ENDBRANCH 17 19
ENDBRANCH 14 17
ENDBRANCH 11 13
ENDBRANCH 9 11
ENDBRANCH 5 7
ENDBRANCH 3 5
BRANCH 1 21
ATOM     21  CA  ALA Q  12      72.519  62.385  25.862  1.00 23.65 LIG 0.17  C 
ATOM     22  CB  ALA Q  12      73.643  61.387  25.751  1.00 43.19 LIG 0.04  C 
BRANCH 21 23
ATOM     23  N   ALA Q  12      72.942  63.664  25.344  1.00 32.95 LIG-0.35  N 
ATOM     24  C   ALA Q  11      72.034  64.578  25.039  1.00 38.70 LIG 0.24  C 
ATOM     25 O    ALA Q  11      70.831  64.368  25.139  1.00 30.98 LIG-0.27  OA
ATOM     26 H    ALA Q  12      73.792  63.765  25.259  1.00 32.95 LIG 0.16  HD
BRANCH 24 27
ATOM     27  CA  ALA Q  11      72.563  65.908  24.524  1.00 33.56 LIG 0.17  C 
ATOM     28  CB  ALA Q  11      71.417  66.693  23.921  1.00 29.51 LIG 0.04  C 
BRANCH 27 29
ATOM     29  N   ALA Q  11      73.648  65.725  23.547  1.00 33.00 LIG-0.35  N 
ATOM     30  C   ALA Q  10      73.564  64.824  22.565  1.00 40.76 LIG 0.26  C 
ATOM     31 O    ALA Q  10      72.620  64.046  22.441  1.00 37.65 LIG-0.27  OA
ATOM     32 H    ALA Q  11      74.325  66.243  23.667  1.00 33.00 LIG 0.16  HD
BRANCH 30 33
ATOM     33  CA  ALA Q  10      74.713  64.775  21.569  1.00 39.75 LIG 0.40  C 
ATOM     34  CB  ALA Q  10      74.167  64.794  20.151  1.00 33.57 LIG 0.06  C 
ATOM     35  N   ALA Q  10      75.552  63.605  21.780  1.00 55.55 LIG 0.61  N 
ENDBRANCH 30 33
ENDBRANCH 27 29
ENDBRANCH 24 27
ENDBRANCH 21 23
ENDBRANCH 1 21
TORSDOF 11
ENDMDL
MODEL 37
USER: ADFR SOLUTION from run 60
USER: SCORE 12.241873 LL:  -2.190 LR: -11.302 RR:   0.000 FEB:  -8.021
USER: RMSD 4.108914
USER: SEED 59
USER: STATUS no improvement in best in 3 clusters for 5 generations
USER: GENES 13
USER: genes 0 Translation |==|  0.55472 0.43877 0.46613
USER: genes 1 Rotation |==|  0.67432 0.51529 0.58090 0.96134
USER: genes 2 Torsion [C]-N--CA-[CB] |==|  0.86002
USER: genes 3 Torsion [N]-CA--C-[N] |==|  0.40326
USER: genes 4 Torsion [C]-N--CA-[CB] |==|  0.18639
USER: genes 5 Torsion [N]-CA--C-[N] |==|  0.17076
USER: genes 6 Torsion [C]-N--CA-[CB] |==|  0.36334
USER: genes 7 Torsion [N]-CA--C-[O] |==|  0.55172
USER: genes 8 Torsion [N]-C--CA-[N] |==|  0.86111
USER: genes 9 Torsion [C]-CA--N-[C] |==|  0.80185
USER: genes 10 Torsion [N]-C--CA-[N] |==|  0.27424
USER: genes 11 Torsion [C]-CA--N-[C] |==|  0.83266
USER: genes 12 Torsion [N]-C--CA-[N] |==|  0.67283
ROOT
ATOM      1  C   ALA Q  12      71.491  63.229  27.735  1.00 25.44 LIG 0.24  C 
ATOM      2 O    ALA Q  12      72.119  63.668  28.689  1.00 27.01 LIG-0.27  OA
ATOM      3  N   ALA Q  13      70.716  62.152  27.790  1.00 26.02 LIG-0.35  N 
ATOM      4 H    ALA Q  13      70.191  61.894  27.160  1.00 26.02 LIG 0.16  HD
ENDROOT
BRANCH 3 5
ATOM      5  CA  ALA Q  13      70.717  61.300  28.994  1.00 27.66 LIG 0.17  C 
ATOM      6  CB  ALA Q  13      72.157  60.950  29.365  1.00 60.60 LIG 0.04  C 
BRANCH 5 7
ATOM      7  C   ALA Q  13      70.013  61.921  30.188  1.00 27.27 LIG 0.24  C 
ATOM      8 O    ALA Q  13      70.102  63.122  30.422  1.00 28.73 LIG-0.27  OA
ATOM      9  N   ALA Q  14      69.353  61.050  30.981  1.00 28.35 LIG-0.35  N 
ATOM     10 H    ALA Q  14      69.232  60.224  30.774  1.00 28.35 LIG 0.16  HD
BRANCH 9 11
ATOM     11  CA  ALA Q  14      68.778  61.420  32.265  1.00 39.95 LIG 0.17  C 
ATOM     12  CB  ALA Q  14      67.605  62.404  32.054  1.00 41.42 LIG 0.04  C 
BRANCH 11 13
ATOM     13  C   ALA Q  14      68.272  60.126  32.930  1.00 39.71 LIG 0.24  C 
ATOM     14  N   ALA Q  15      69.153  59.175  33.206  1.00 43.67 LIG-0.35  N 
ATOM     15 H    ALA Q  15      68.940  58.423  33.564  1.00 43.67 LIG 0.16  HD
ATOM     16 O    ALA Q  14      67.088  59.977  33.161  1.00 40.63 LIG-0.27  OA
BRANCH 14 17
ATOM     17  CA  ALA Q  15      70.563  59.311  32.933  1.00 45.40 LIG 0.16  C 
ATOM     18  CB  ALA Q  15      71.352  58.936  34.148  1.00 35.52 LIG 0.04  C 
BRANCH 17 19
ATOM     19  C   ALA Q  15      70.962  58.451  31.728  1.00 34.39 LIG 0.22  C 
ATOM     20 O    ALA Q  15      72.143  58.146  31.528  1.00 56.10 LIG-0.29  OA
ENDBRANCH 17 19
ENDBRANCH 14 17
ENDBRANCH 11 13
ENDBRANCH 9 11
ENDBRANCH 5 7
ENDBRANCH 3 5
BRANCH 1 21
ATOM     21  CA  ALA Q  12      71.506  63.967  26.413  1.00 23.65 LIG 0.17  C 
ATOM     22  CB  ALA Q  12      70.187  64.648  26.150  1.00 43.19 LIG 0.04  C 
BRANCH 21 23
ATOM     23  N   ALA Q  12      71.750  62.957  25.412  1.00 32.95 LIG-0.35  N 
ATOM     24  C   ALA Q  11      72.948  62.401  25.322  1.00 38.70 LIG 0.24  C 
ATOM     25 O    ALA Q  11      73.884  62.741  26.034  1.00 30.98 LIG-0.27  OA
ATOM     26 H    ALA Q  12      71.077  62.766  24.910  1.00 32.95 LIG 0.16  HD
BRANCH 24 27
ATOM     27  CA  ALA Q  11      73.115  61.328  24.257  1.00 33.56 LIG 0.17  C 
ATOM     28  CB  ALA Q  11      73.925  60.186  24.832  1.00 29.51 LIG 0.04  C 
BRANCH 27 29
ATOM     29  N   ALA Q  11      73.744  61.858  23.037  1.00 33.00 LIG-0.35  N 
ATOM     30  C   ALA Q  10      73.183  62.843  22.331  1.00 40.76 LIG 0.26  C 
ATOM     31 O    ALA Q  10      72.088  63.331  22.602  1.00 37.65 LIG-0.27  OA
ATOM     32 H    ALA Q  11      74.489  61.482  22.829  1.00 33.00 LIG 0.16  HD
BRANCH 30 33
ATOM     33  CA  ALA Q  10      73.961  63.364  21.131  1.00 39.75 LIG 0.40  C 
ATOM     34  CB  ALA Q  10      75.208  62.522  20.920  1.00 33.57 LIG 0.06  C 
ATOM     35  N   ALA Q  10      74.310  64.767  21.291  1.00 55.55 LIG 0.61  N 
ENDBRANCH 30 33
ENDBRANCH 27 29
ENDBRANCH 24 27
ENDBRANCH 21 23
ENDBRANCH 1 21
TORSDOF 11
ENDMDL
