MODEL 1
USER: ADFR SOLUTION from run 85
USER: SCORE 12.580298 LL:  -2.991 LR: -11.050 RR:   0.000 FEB:  -7.769
USER: RMSD 4.731200
USER: SEED 84
USER: STATUS no improvement in best in 19 clusters for 5 generations
USER: GENES 13
USER: genes 0 Translation |==|  0.40622 0.36422 0.45032
USER: genes 1 Rotation |==|  0.64651 0.37873 0.59868 0.95176
USER: genes 2 Torsion [C]-N--CA-[CB] |==|  0.26437
USER: genes 3 Torsion [N]-CA--C-[N] |==|  0.30002
USER: genes 4 Torsion [N]-CA--C-[N] |==|  0.61600
USER: genes 5 Torsion [C]-N--CA-[CB] |==|  0.84399
USER: genes 6 Torsion [N]-CA--C-[OXT] |==|  0.68526
USER: genes 7 Torsion [N]-CA--CB-[CG] |==|  0.04389
USER: genes 8 Torsion [CA]-CB--CG-[CD2] |==|  0.62474
USER: genes 9 Torsion [O]-C--CA-[CB] |==|  0.22092
USER: genes 10 Torsion [N]-C--CA-[N] |==|  0.49262
USER: genes 11 Torsion [C]-CA--N-[C] |==|  0.37698
USER: genes 12 Torsion [N]-C--CA-[CB] |==|  0.85421
ROOT
ATOM      1  C   PRO B  88      15.473   1.741  17.881  1.00 31.41 LIG 0.24  C 
ATOM      2 O    PRO B  88      15.422   2.951  18.131  1.00 30.85 LIG-0.27  OA
ATOM      3  N   LEU B  89      15.865   0.822  18.758  1.00 29.89 LIG-0.35  N 
ATOM      4 H    LEU B  89      15.915  -0.019  18.583  1.00 29.89 LIG 0.16  HD
ENDROOT
BRANCH 3 5
ATOM      5  CA  LEU B  89      16.249   1.178  20.117  1.00 30.22 LIG 0.18  C 
BRANCH 5 6
ATOM      6  C   LEU B  89      17.407   0.295  20.583  1.00 29.45 LIG 0.24  C 
ATOM      7 O    LEU B  89      17.211  -0.887  20.851  1.00 27.07 LIG-0.27  OA
ATOM      8  N   PRO B  90      18.615   0.871  20.688  1.00 31.27 LIG-0.34  N 
ATOM      9  CD  PRO B  90      18.969   2.256  20.311  1.00 32.01 LIG 0.13  C 
ATOM     10  CA  PRO B  90      19.799   0.104  21.120  1.00 32.16 LIG 0.18  C 
ATOM     11  CG  PRO B  90      20.407   2.376  20.738  1.00 32.17 LIG 0.02  C 
ATOM     12  CB  PRO B  90      20.959   0.988  20.672  1.00 32.36 LIG 0.04  C 
BRANCH 10 13
ATOM     13  C   PRO B  90      19.874  -0.159  22.631  1.00 32.74 LIG 0.24  C 
ATOM     14  N   ALA B  91      21.064  -0.028  23.224  1.00 33.34 LIG-0.34  N 
ATOM     15 H    ALA B  91      21.789   0.152  22.800  1.00 33.34 LIG 0.16  HD
ATOM     16 O    PRO B  90      18.849  -0.475  23.238  1.00 32.61 LIG-0.27  OA
BRANCH 14 17
ATOM     17  CA  ALA B  91      21.242  -0.184  24.678  1.00 34.79 LIG 0.18  C 
ATOM     18  CB  ALA B  91      20.318   0.785  25.446  1.00 34.67 LIG 0.04  C 
BRANCH 17 19
ATOM     19  C   ALA B  91      20.982  -1.630  25.110  1.00 35.98 LIG 0.20  C 
ATOM     20 OXT  ALA B  91      20.013  -1.926  25.829  1.00 36.84 LIG-0.65  OA
ATOM     21 O    ALA B  91      21.753  -2.530  24.759  1.00 37.03 LIG-0.65  OA
ENDBRANCH 17 19
ENDBRANCH 14 17
ENDBRANCH 10 13
ENDBRANCH 5 6
BRANCH 5 22
ATOM     22  CB  LEU B  89      15.068   1.017  21.077  1.00 30.14 LIG 0.04  C 
BRANCH 22 23
ATOM     23  CG  LEU B  89      13.863   0.201  20.602  1.00 30.45 LIG-0.02  C 
ATOM     24  CD1 LEU B  89      13.930  -1.193  21.221  1.00 30.38 LIG 0.01  C 
ATOM     25  CD2 LEU B  89      12.553   0.914  20.943  1.00 30.79 LIG 0.01  C 
ENDBRANCH 22 23
ENDBRANCH 5 22
ENDBRANCH 3 5
BRANCH 1 26
ATOM     26  CA  PRO B  88      15.045   1.223  16.514  1.00 32.64 LIG 0.18  C 
ATOM     27  CB  PRO B  88      16.160   1.432  15.468  1.00 32.64 LIG 0.04  C 
ATOM     28  CG  PRO B  88      15.706   2.593  14.628  1.00 32.93 LIG 0.02  C 
ATOM     29  CD  PRO B  88      14.205   2.479  14.620  1.00 33.68 LIG 0.13  C 
ATOM     30  N   PRO B  88      13.910   1.983  15.976  1.00 34.22 LIG-0.34  N 
ATOM     31  C   GLY B  87      12.821   2.157  16.779  1.00 37.83 LIG 0.24  C 
ATOM     32 O    GLY B  87      12.770   1.732  17.938  1.00 36.70 LIG-0.27  OA
BRANCH 31 33
ATOM     33  CA  GLY B  87      11.625   2.915  16.215  1.00 40.95 LIG 0.23  C 
BRANCH 33 34
ATOM     34  N   GLY B  87      10.495   2.975  17.168  1.00 44.01 LIG-0.35  N 
ATOM     35 H    GLY B  87      10.323   2.232  17.565  1.00 44.01 LIG 0.16  HD
ATOM     36  C   PRO B  86       9.815   4.107  17.374  1.00 46.81 LIG 0.25  C 
ATOM     37 O    PRO B  86      10.094   5.159  16.804  1.00 48.58 LIG-0.27  OA
BRANCH 36 38
ATOM     38  CA  PRO B  86       8.651   4.104  18.380  1.00 48.28 LIG 0.35  C 
ATOM     39  N   PRO B  86       7.803   5.306  18.411  1.00 49.47 LIG 0.32  N 
ATOM     40  CD  PRO B  86       6.372   4.966  18.450  1.00 50.15 LIG 0.32  C 
ATOM     41  CG  PRO B  86       6.333   3.627  17.782  1.00 49.89 LIG 0.04  C 
ATOM     42  CB  PRO B  86       7.666   2.967  18.051  1.00 49.17 LIG 0.05  C 
ENDBRANCH 36 38
ENDBRANCH 33 34
ENDBRANCH 31 33
ENDBRANCH 1 26
TORSDOF 11
ENDMDL
MODEL 2
USER: ADFR SOLUTION from run 163
USER: SCORE 13.156755 LL:  -2.717 LR: -10.789 RR:   0.000 FEB:  -7.507
USER: RMSD 9.897010
USER: SEED 162
USER: STATUS no improvement in best in 21 clusters for 5 generations
USER: GENES 13
USER: genes 0 Translation |==|  0.45605 0.43952 0.44220
USER: genes 1 Rotation |==|  0.25448 0.30395 0.88337 0.56568
USER: genes 2 Torsion [C]-N--CA-[CB] |==|  0.15681
USER: genes 3 Torsion [N]-CA--C-[N] |==|  0.15470
USER: genes 4 Torsion [N]-CA--C-[N] |==|  0.53238
USER: genes 5 Torsion [C]-N--CA-[CB] |==|  0.44135
USER: genes 6 Torsion [N]-CA--C-[OXT] |==|  0.87980
USER: genes 7 Torsion [N]-CA--CB-[CG] |==|  0.63757
USER: genes 8 Torsion [CA]-CB--CG-[CD2] |==|  0.23074
USER: genes 9 Torsion [O]-C--CA-[CB] |==|  0.08123
USER: genes 10 Torsion [N]-C--CA-[N] |==|  0.50002
USER: genes 11 Torsion [C]-CA--N-[C] |==|  0.75187
USER: genes 12 Torsion [N]-C--CA-[CB] |==|  0.42320
ROOT
ATOM      1  C   PRO B  88      16.594   2.983  17.747  1.00 31.41 LIG 0.24  C 
ATOM      2 O    PRO B  88      17.095   2.773  16.636  1.00 30.85 LIG-0.27  OA
ATOM      3  N   LEU B  89      15.293   3.164  17.949  1.00 29.89 LIG-0.35  N 
ATOM      4 H    LEU B  89      14.943   3.325  18.718  1.00 29.89 LIG 0.16  HD
ENDROOT
BRANCH 3 5
ATOM      5  CA  LEU B  89      14.335   3.101  16.854  1.00 30.22 LIG 0.18  C 
BRANCH 5 6
ATOM      6  C   LEU B  89      12.915   3.288  17.387  1.00 29.45 LIG 0.24  C 
ATOM      7 O    LEU B  89      12.053   2.446  17.154  1.00 27.07 LIG-0.27  OA
ATOM      8  N   PRO B  90      12.668   4.399  18.100  1.00 31.27 LIG-0.34  N 
ATOM      9  CD  PRO B  90      13.652   5.425  18.506  1.00 32.01 LIG 0.13  C 
ATOM     10  CA  PRO B  90      11.333   4.668  18.668  1.00 32.16 LIG 0.18  C 
ATOM     11  CG  PRO B  90      12.805   6.470  19.182  1.00 32.17 LIG 0.02  C 
ATOM     12  CB  PRO B  90      11.620   5.735  19.721  1.00 32.36 LIG 0.04  C 
BRANCH 10 13
ATOM     13  C   PRO B  90      10.299   5.177  17.654  1.00 32.74 LIG 0.24  C 
ATOM     14  N   ALA B  91       9.150   5.665  18.132  1.00 33.34 LIG-0.34  N 
ATOM     15 H    ALA B  91       8.947   5.670  18.968  1.00 33.34 LIG 0.16  HD
ATOM     16 O    PRO B  90      10.558   5.121  16.451  1.00 32.61 LIG-0.27  OA
BRANCH 14 17
ATOM     17  CA  ALA B  91       8.115   6.247  17.260  1.00 34.79 LIG 0.18  C 
ATOM     18  CB  ALA B  91       6.742   6.237  17.966  1.00 34.67 LIG 0.04  C 
BRANCH 17 19
ATOM     19  C   ALA B  91       8.492   7.670  16.837  1.00 35.98 LIG 0.20  C 
ATOM     20 OXT  ALA B  91       8.962   8.483  17.651  1.00 36.84 LIG-0.65  OA
ATOM     21 O    ALA B  91       8.316   8.037  15.671  1.00 37.03 LIG-0.65  OA
ENDBRANCH 17 19
ENDBRANCH 14 17
ENDBRANCH 10 13
ENDBRANCH 5 6
BRANCH 5 22
ATOM     22  CB  LEU B  89      14.431   1.761  16.121  1.00 30.14 LIG 0.04  C 
BRANCH 22 23
ATOM     23  CG  LEU B  89      14.540   1.784  14.594  1.00 30.45 LIG-0.02  C 
ATOM     24  CD1 LEU B  89      13.603   2.856  14.043  1.00 30.38 LIG 0.01  C 
ATOM     25  CD2 LEU B  89      15.988   2.011  14.154  1.00 30.79 LIG 0.01  C 
ENDBRANCH 22 23
ENDBRANCH 5 22
ENDBRANCH 3 5
BRANCH 1 26
ATOM     26  CA  PRO B  88      17.476   3.018  18.989  1.00 32.64 LIG 0.18  C 
ATOM     27  CB  PRO B  88      18.903   3.491  18.643  1.00 32.64 LIG 0.04  C 
ATOM     28  CG  PRO B  88      19.752   2.252  18.672  1.00 32.93 LIG 0.02  C 
ATOM     29  CD  PRO B  88      19.111   1.389  19.725  1.00 33.68 LIG 0.13  C 
ATOM     30  N   PRO B  88      17.677   1.677  19.551  1.00 34.22 LIG-0.34  N 
ATOM     31  C   GLY B  87      16.572   0.908  19.775  1.00 37.83 LIG 0.24  C 
ATOM     32 O    GLY B  87      15.429   1.282  19.496  1.00 36.70 LIG-0.27  OA
BRANCH 31 33
ATOM     33  CA  GLY B  87      16.770  -0.473  20.391  1.00 40.95 LIG 0.23  C 
BRANCH 33 34
ATOM     34  N   GLY B  87      15.493  -1.195  20.577  1.00 44.01 LIG-0.35  N 
ATOM     35 H    GLY B  87      15.260  -1.686  19.910  1.00 44.01 LIG 0.16  HD
ATOM     36  C   PRO B  86      14.781  -1.076  21.702  1.00 46.81 LIG 0.25  C 
ATOM     37 O    PRO B  86      15.149  -0.380  22.646  1.00 48.58 LIG-0.27  OA
BRANCH 36 38
ATOM     38  CA  PRO B  86      13.462  -1.856  21.836  1.00 48.28 LIG 0.35  C 
ATOM     39  N   PRO B  86      13.410  -3.179  21.195  1.00 49.47 LIG 0.32  N 
ATOM     40  CD  PRO B  86      12.804  -4.191  22.075  1.00 50.15 LIG 0.32  C 
ATOM     41  CG  PRO B  86      13.100  -3.658  23.443  1.00 49.89 LIG 0.04  C 
ATOM     42  CB  PRO B  86      13.168  -2.154  23.318  1.00 49.17 LIG 0.05  C 
ENDBRANCH 36 38
ENDBRANCH 33 34
ENDBRANCH 31 33
ENDBRANCH 1 26
TORSDOF 11
ENDMDL
MODEL 3
USER: ADFR SOLUTION from run 163
USER: SCORE 12.657118 LL:  -2.956 LR: -10.730 RR:   0.000 FEB:  -7.449
USER: RMSD 8.582464
USER: SEED 162
USER: STATUS no improvement in best in 21 clusters for 5 generations
USER: GENES 13
USER: genes 0 Translation |==|  0.54158 0.42933 0.46803
USER: genes 1 Rotation |==|  0.14252 0.37895 0.81257 0.59925
USER: genes 2 Torsion [C]-N--CA-[CB] |==|  0.19942
USER: genes 3 Torsion [N]-CA--C-[N] |==|  0.84193
USER: genes 4 Torsion [N]-CA--C-[N] |==|  0.20149
USER: genes 5 Torsion [C]-N--CA-[CB] |==|  0.45207
USER: genes 6 Torsion [N]-CA--C-[OXT] |==|  0.72050
USER: genes 7 Torsion [N]-CA--CB-[CG] |==|  0.44042
USER: genes 8 Torsion [CA]-CB--CG-[CD2] |==|  0.65883
USER: genes 9 Torsion [O]-C--CA-[CB] |==|  0.14392
USER: genes 10 Torsion [N]-C--CA-[N] |==|  0.43333
USER: genes 11 Torsion [C]-CA--N-[C] |==|  0.66144
USER: genes 12 Torsion [N]-C--CA-[CB] |==|  0.49378
ROOT
ATOM      1  C   PRO B  88      18.519   2.815  18.173  1.00 31.41 LIG 0.24  C 
ATOM      2 O    PRO B  88      19.214   2.200  17.356  1.00 30.85 LIG-0.27  OA
ATOM      3  N   LEU B  89      17.470   3.560  17.838  1.00 29.89 LIG-0.35  N 
ATOM      4 H    LEU B  89      16.993   4.000  18.403  1.00 29.89 LIG 0.16  HD
ENDROOT
BRANCH 3 5
ATOM      5  CA  LEU B  89      17.037   3.690  16.454  1.00 30.22 LIG 0.18  C 
BRANCH 5 6
ATOM      6  C   LEU B  89      16.035   4.836  16.323  1.00 29.45 LIG 0.24  C 
ATOM      7 O    LEU B  89      16.257   5.765  15.552  1.00 27.07 LIG-0.27  OA
ATOM      8  N   PRO B  90      14.931   4.775  17.085  1.00 31.27 LIG-0.34  N 
ATOM      9  CD  PRO B  90      14.532   3.667  17.978  1.00 32.01 LIG 0.13  C 
ATOM     10  CA  PRO B  90      13.897   5.827  17.027  1.00 32.16 LIG 0.18  C 
ATOM     11  CG  PRO B  90      13.286   4.186  18.642  1.00 32.17 LIG 0.02  C 
ATOM     12  CB  PRO B  90      12.689   5.152  17.671  1.00 32.36 LIG 0.04  C 
BRANCH 10 13
ATOM     13  C   PRO B  90      14.255   7.118  17.776  1.00 32.74 LIG 0.24  C 
ATOM     14  N   ALA B  91      15.185   7.911  17.235  1.00 33.34 LIG-0.34  N 
ATOM     15 H    ALA B  91      15.617   7.716  16.518  1.00 33.34 LIG 0.16  HD
ATOM     16 O    PRO B  90      13.682   7.378  18.835  1.00 32.61 LIG-0.27  OA
BRANCH 14 17
ATOM     17  CA  ALA B  91      15.557   9.208  17.825  1.00 34.79 LIG 0.18  C 
ATOM     18  CB  ALA B  91      16.912   9.691  17.264  1.00 34.67 LIG 0.04  C 
BRANCH 17 19
ATOM     19  C   ALA B  91      14.468  10.256  17.576  1.00 35.98 LIG 0.20  C 
ATOM     20 OXT  ALA B  91      14.581  11.104  16.675  1.00 36.84 LIG-0.65  OA
ATOM     21 O    ALA B  91      13.459  10.283  18.289  1.00 37.03 LIG-0.65  OA
ENDBRANCH 17 19
ENDBRANCH 14 17
ENDBRANCH 10 13
ENDBRANCH 5 6
BRANCH 5 22
ATOM     22  CB  LEU B  89      16.394   2.392  15.959  1.00 30.14 LIG 0.04  C 
BRANCH 22 23
ATOM     23  CG  LEU B  89      15.452   2.471  14.755  1.00 30.45 LIG-0.02  C 
ATOM     24  CD1 LEU B  89      16.083   1.731  13.578  1.00 30.38 LIG 0.01  C 
ATOM     25  CD2 LEU B  89      14.071   1.914  15.106  1.00 30.79 LIG 0.01  C 
ENDBRANCH 22 23
ENDBRANCH 5 22
ENDBRANCH 3 5
BRANCH 1 26
ATOM     26  CA  PRO B  88      18.826   2.721  19.663  1.00 32.64 LIG 0.18  C 
ATOM     27  CB  PRO B  88      20.310   3.037  19.944  1.00 32.64 LIG 0.04  C 
ATOM     28  CG  PRO B  88      20.954   1.708  20.226  1.00 32.93 LIG 0.02  C 
ATOM     29  CD  PRO B  88      19.864   0.901  20.878  1.00 33.68 LIG 0.13  C 
ATOM     30  N   PRO B  88      18.655   1.353  20.168  1.00 34.22 LIG-0.34  N 
ATOM     31  C   GLY B  87      17.486   0.710  19.883  1.00 37.83 LIG 0.24  C 
ATOM     32 O    GLY B  87      16.593   1.218  19.198  1.00 36.70 LIG-0.27  OA
BRANCH 31 33
ATOM     33  CA  GLY B  87      17.288  -0.697  20.434  1.00 40.95 LIG 0.23  C 
BRANCH 33 34
ATOM     34  N   GLY B  87      15.858  -1.057  20.561  1.00 44.01 LIG-0.35  N 
ATOM     35 H    GLY B  87      15.413  -1.015  19.826  1.00 44.01 LIG 0.16  HD
ATOM     36  C   PRO B  86      15.330  -1.414  21.735  1.00 46.81 LIG 0.25  C 
ATOM     37 O    PRO B  86      15.995  -1.481  22.766  1.00 48.58 LIG-0.27  OA
BRANCH 36 38
ATOM     38  CA  PRO B  86      13.837  -1.779  21.800  1.00 48.28 LIG 0.35  C 
ATOM     39  N   PRO B  86      13.395  -2.906  20.964  1.00 49.47 LIG 0.32  N 
ATOM     40  CD  PRO B  86      12.508  -3.820  21.701  1.00 50.15 LIG 0.32  C 
ATOM     41  CG  PRO B  86      12.941  -3.626  23.121  1.00 49.89 LIG 0.04  C 
ATOM     42  CB  PRO B  86      13.457  -2.210  23.229  1.00 49.17 LIG 0.05  C 
ENDBRANCH 36 38
ENDBRANCH 33 34
ENDBRANCH 31 33
ENDBRANCH 1 26
TORSDOF 11
ENDMDL
MODEL 4
USER: ADFR SOLUTION from run 156
USER: SCORE 12.978515 LL:  -3.307 LR: -10.703 RR:   0.000 FEB:  -7.422
USER: RMSD 3.360564
USER: SEED 155
USER: STATUS no improvement in best in 10 clusters for 5 generations
USER: GENES 13
USER: genes 0 Translation |==|  0.43203 0.38133 0.40421
USER: genes 1 Rotation |==|  0.55383 0.38930 0.52266 0.98408
USER: genes 2 Torsion [C]-N--CA-[CB] |==|  0.48889
USER: genes 3 Torsion [N]-CA--C-[N] |==|  0.45380
USER: genes 4 Torsion [N]-CA--C-[N] |==|  0.92736
USER: genes 5 Torsion [C]-N--CA-[CB] |==|  0.24084
USER: genes 6 Torsion [N]-CA--C-[OXT] |==|  0.40007
USER: genes 7 Torsion [N]-CA--CB-[CG] |==|  0.07692
USER: genes 8 Torsion [CA]-CB--CG-[CD2] |==|  0.60283
USER: genes 9 Torsion [O]-C--CA-[CB] |==|  0.15285
USER: genes 10 Torsion [N]-C--CA-[N] |==|  0.43665
USER: genes 11 Torsion [C]-CA--N-[C] |==|  0.43484
USER: genes 12 Torsion [N]-C--CA-[CB] |==|  0.71470
ROOT
ATOM      1  C   PRO B  88      16.054   2.023  17.120  1.00 31.41 LIG 0.24  C 
ATOM      2 O    PRO B  88      16.469   3.179  16.978  1.00 30.85 LIG-0.27  OA
ATOM      3  N   LEU B  89      16.216   1.311  18.231  1.00 29.89 LIG-0.35  N 
ATOM      4 H    LEU B  89      15.941   0.502  18.328  1.00 29.89 LIG 0.16  HD
ENDROOT
BRANCH 3 5
ATOM      5  CA  LEU B  89      16.888   1.862  19.399  1.00 30.22 LIG 0.18  C 
BRANCH 5 6
ATOM      6  C   LEU B  89      18.341   2.194  19.060  1.00 29.45 LIG 0.24  C 
ATOM      7 O    LEU B  89      18.866   1.713  18.060  1.00 27.07 LIG-0.27  OA
ATOM      8  N   PRO B  90      18.996   3.012  19.900  1.00 31.27 LIG-0.34  N 
ATOM      9  CD  PRO B  90      18.432   3.706  21.077  1.00 32.01 LIG 0.13  C 
ATOM     10  CA  PRO B  90      20.398   3.402  19.657  1.00 32.16 LIG 0.18  C 
ATOM     11  CG  PRO B  90      19.628   4.387  21.685  1.00 32.17 LIG 0.02  C 
ATOM     12  CB  PRO B  90      20.570   4.628  20.550  1.00 32.36 LIG 0.04  C 
BRANCH 10 13
ATOM     13  C   PRO B  90      21.432   2.325  20.016  1.00 32.74 LIG 0.24  C 
ATOM     14  N   ALA B  91      21.097   1.432  20.952  1.00 33.34 LIG-0.34  N 
ATOM     15 H    ALA B  91      20.356   1.455  21.388  1.00 33.34 LIG 0.16  HD
ATOM     16 O    PRO B  90      22.520   2.319  19.438  1.00 32.61 LIG-0.27  OA
BRANCH 14 17
ATOM     17  CA  ALA B  91      21.977   0.312  21.326  1.00 34.79 LIG 0.18  C 
ATOM     18  CB  ALA B  91      22.978   0.748  22.417  1.00 34.67 LIG 0.04  C 
BRANCH 17 19
ATOM     19  C   ALA B  91      21.159  -0.894  21.799  1.00 35.98 LIG 0.20  C 
ATOM     20 OXT  ALA B  91      21.516  -2.057  21.545  1.00 36.84 LIG-0.65  OA
ATOM     21 O    ALA B  91      20.111  -0.723  22.431  1.00 37.03 LIG-0.65  OA
ENDBRANCH 17 19
ENDBRANCH 14 17
ENDBRANCH 10 13
ENDBRANCH 5 6
BRANCH 5 22
ATOM     22  CB  LEU B  89      16.851   0.873  20.567  1.00 30.14 LIG 0.04  C 
BRANCH 22 23
ATOM     23  CG  LEU B  89      16.774  -0.621  20.240  1.00 30.45 LIG-0.02  C 
ATOM     24  CD1 LEU B  89      18.188  -1.197  20.201  1.00 30.38 LIG 0.01  C 
ATOM     25  CD2 LEU B  89      15.886  -1.354  21.247  1.00 30.79 LIG 0.01  C 
ENDBRANCH 22 23
ENDBRANCH 5 22
ENDBRANCH 3 5
BRANCH 1 26
ATOM     26  CA  PRO B  88      15.282   1.344  15.996  1.00 32.64 LIG 0.18  C 
ATOM     27  CB  PRO B  88      16.091   1.358  14.681  1.00 32.64 LIG 0.04  C 
ATOM     28  CG  PRO B  88      15.445   2.413  13.828  1.00 32.93 LIG 0.02  C 
ATOM     29  CD  PRO B  88      13.993   2.367  14.218  1.00 33.68 LIG 0.13  C 
ATOM     30  N   PRO B  88      14.053   2.074  15.661  1.00 34.22 LIG-0.34  N 
ATOM     31  C   GLY B  87      13.211   2.404  16.682  1.00 37.83 LIG 0.24  C 
ATOM     32 O    GLY B  87      13.457   2.144  17.863  1.00 36.70 LIG-0.27  OA
BRANCH 31 33
ATOM     33  CA  GLY B  87      11.916   3.132  16.338  1.00 40.95 LIG 0.23  C 
BRANCH 33 34
ATOM     34  N   GLY B  87      10.879   2.961  17.379  1.00 44.01 LIG-0.35  N 
ATOM     35 H    GLY B  87      10.977   2.260  17.867  1.00 44.01 LIG 0.16  HD
ATOM     36  C   PRO B  86       9.884   3.840  17.524  1.00 46.81 LIG 0.25  C 
ATOM     37 O    PRO B  86       9.780   4.843  16.821  1.00 48.58 LIG-0.27  OA
BRANCH 36 38
ATOM     38  CA  PRO B  86       8.838   3.606  18.628  1.00 48.28 LIG 0.35  C 
ATOM     39  N   PRO B  86       8.395   4.791  19.379  1.00 49.47 LIG 0.32  N 
ATOM     40  CD  PRO B  86       6.932   4.819  19.545  1.00 50.15 LIG 0.32  C 
ATOM     41  CG  PRO B  86       6.451   4.043  18.359  1.00 49.89 LIG 0.04  C 
ATOM     42  CB  PRO B  86       7.537   3.049  18.019  1.00 49.17 LIG 0.05  C 
ENDBRANCH 36 38
ENDBRANCH 33 34
ENDBRANCH 31 33
ENDBRANCH 1 26
TORSDOF 11
ENDMDL
MODEL 5
USER: ADFR SOLUTION from run 71
USER: SCORE 11.980547 LL:  -2.632 LR: -10.424 RR:   0.000 FEB:  -7.143
USER: RMSD 10.232218
USER: SEED 70
USER: STATUS no improvement in best in 16 clusters for 5 generations
USER: GENES 13
USER: genes 0 Translation |==|  0.44553 0.34842 0.44898
USER: genes 1 Rotation |==|  0.23111 0.28642 0.83215 0.64751
USER: genes 2 Torsion [C]-N--CA-[CB] |==|  0.12223
USER: genes 3 Torsion [N]-CA--C-[N] |==|  0.22601
USER: genes 4 Torsion [N]-CA--C-[N] |==|  0.59491
USER: genes 5 Torsion [C]-N--CA-[CB] |==|  0.37199
USER: genes 6 Torsion [N]-CA--C-[OXT] |==|  0.92883
USER: genes 7 Torsion [N]-CA--CB-[CG] |==|  0.64508
USER: genes 8 Torsion [CA]-CB--CG-[CD2] |==|  0.30549
USER: genes 9 Torsion [O]-C--CA-[CB] |==|  0.53860
USER: genes 10 Torsion [N]-C--CA-[N] |==|  0.42217
USER: genes 11 Torsion [C]-CA--N-[C] |==|  0.24333
USER: genes 12 Torsion [N]-C--CA-[CB] |==|  0.70980
ROOT
ATOM      1  C   PRO B  88      16.358   1.480  17.859  1.00 31.41 LIG 0.24  C 
ATOM      2 O    PRO B  88      16.884   1.445  16.740  1.00 30.85 LIG-0.27  OA
ATOM      3  N   LEU B  89      15.139   1.959  18.087  1.00 29.89 LIG-0.35  N 
ATOM      4 H    LEU B  89      14.776   1.998  18.866  1.00 29.89 LIG 0.16  HD
ENDROOT
BRANCH 3 5
ATOM      5  CA  LEU B  89      14.304   2.467  17.008  1.00 30.22 LIG 0.18  C 
BRANCH 5 6
ATOM      6  C   LEU B  89      12.857   2.604  17.484  1.00 29.45 LIG 0.24  C 
ATOM      7 O    LEU B  89      12.035   1.733  17.215  1.00 27.07 LIG-0.27  OA
ATOM      8  N   PRO B  90      12.545   3.704  18.186  1.00 31.27 LIG-0.34  N 
ATOM      9  CD  PRO B  90      13.475   4.763  18.632  1.00 32.01 LIG 0.13  C 
ATOM     10  CA  PRO B  90      11.179   3.928  18.699  1.00 32.16 LIG 0.18  C 
ATOM     11  CG  PRO B  90      12.567   5.777  19.273  1.00 32.17 LIG 0.02  C 
ATOM     12  CB  PRO B  90      11.387   5.002  19.763  1.00 32.36 LIG 0.04  C 
BRANCH 10 13
ATOM     13  C   PRO B  90      10.170   4.402  17.644  1.00 32.74 LIG 0.24  C 
ATOM     14  N   ALA B  91       9.215   5.250  18.037  1.00 33.34 LIG-0.34  N 
ATOM     15 H    ALA B  91       9.113   5.508  18.852  1.00 33.34 LIG 0.16  HD
ATOM     16 O    PRO B  90      10.273   3.994  16.487  1.00 32.61 LIG-0.27  OA
BRANCH 14 17
ATOM     17  CA  ALA B  91       8.237   5.829  17.100  1.00 34.79 LIG 0.18  C 
ATOM     18  CB  ALA B  91       6.810   5.744  17.682  1.00 34.67 LIG 0.04  C 
BRANCH 17 19
ATOM     19  C   ALA B  91       8.594   7.280  16.762  1.00 35.98 LIG 0.20  C 
ATOM     20 OXT  ALA B  91       9.256   7.981  17.545  1.00 36.84 LIG-0.65  OA
ATOM     21 O    ALA B  91       8.208   7.782  15.701  1.00 37.03 LIG-0.65  OA
ENDBRANCH 17 19
ENDBRANCH 14 17
ENDBRANCH 10 13
ENDBRANCH 5 6
BRANCH 5 22
ATOM     22  CB  LEU B  89      14.354   1.534  15.795  1.00 30.14 LIG 0.04  C 
BRANCH 22 23
ATOM     23  CG  LEU B  89      14.691   2.146  14.433  1.00 30.45 LIG-0.02  C 
ATOM     24  CD1 LEU B  89      14.581   3.666  14.528  1.00 30.38 LIG 0.01  C 
ATOM     25  CD2 LEU B  89      16.079   1.702  13.964  1.00 30.79 LIG 0.01  C 
ENDBRANCH 22 23
ENDBRANCH 5 22
ENDBRANCH 3 5
BRANCH 1 26
ATOM     26  CA  PRO B  88      17.099   0.929  19.071  1.00 32.64 LIG 0.18  C 
ATOM     27  CB  PRO B  88      16.147   0.757  20.273  1.00 32.64 LIG 0.04  C 
ATOM     28  CG  PRO B  88      16.470   1.892  21.203  1.00 32.93 LIG 0.02  C 
ATOM     29  CD  PRO B  88      17.942   2.129  20.999  1.00 33.68 LIG 0.13  C 
ATOM     30  N   PRO B  88      18.116   1.868  19.559  1.00 34.22 LIG-0.34  N 
ATOM     31  C   GLY B  87      19.000   2.377  18.654  1.00 37.83 LIG 0.24  C 
ATOM     32 O    GLY B  87      18.955   2.106  17.450  1.00 36.70 LIG-0.27  OA
BRANCH 31 33
ATOM     33  CA  GLY B  87      20.081   3.326  19.160  1.00 40.95 LIG 0.23  C 
BRANCH 33 34
ATOM     34  N   GLY B  87      21.301   3.287  18.325  1.00 44.01 LIG-0.35  N 
ATOM     35 H    GLY B  87      21.899   2.730  18.593  1.00 44.01 LIG 0.16  HD
ATOM     36  C   PRO B  86      21.436   4.065  17.247  1.00 46.81 LIG 0.25  C 
ATOM     37 O    PRO B  86      20.556   4.841  16.878  1.00 48.58 LIG-0.27  OA
BRANCH 36 38
ATOM     38  CA  PRO B  86      22.729   3.976  16.419  1.00 48.28 LIG 0.35  C 
ATOM     39  N   PRO B  86      22.577   3.982  14.956  1.00 49.47 LIG 0.32  N 
ATOM     40  CD  PRO B  86      23.544   4.883  14.308  1.00 50.15 LIG 0.32  C 
ATOM     41  CG  PRO B  86      23.816   5.897  15.375  1.00 49.89 LIG 0.04  C 
ATOM     42  CB  PRO B  86      23.626   5.196  16.700  1.00 49.17 LIG 0.05  C 
ENDBRANCH 36 38
ENDBRANCH 33 34
ENDBRANCH 31 33
ENDBRANCH 1 26
TORSDOF 11
ENDMDL
MODEL 6
USER: ADFR SOLUTION from run 35
USER: SCORE 13.400783 LL:  -3.413 LR: -10.326 RR:   0.000 FEB:  -7.045
USER: RMSD 6.122661
USER: SEED 34
USER: STATUS no improvement in best in 3 clusters for 5 generations
USER: GENES 13
USER: genes 0 Translation |==|  0.29359 0.37545 0.37240
USER: genes 1 Rotation |==|  0.13110 0.63806 0.32300 0.75204
USER: genes 2 Torsion [C]-N--CA-[CB] |==|  0.15742
USER: genes 3 Torsion [N]-CA--C-[N] |==|  0.12523
USER: genes 4 Torsion [N]-CA--C-[N] |==|  0.74815
USER: genes 5 Torsion [C]-N--CA-[CB] |==|  0.19681
USER: genes 6 Torsion [N]-CA--C-[OXT] |==|  0.14128
USER: genes 7 Torsion [N]-CA--CB-[CG] |==|  0.12686
USER: genes 8 Torsion [CA]-CB--CG-[CD2] |==|  0.06172
USER: genes 9 Torsion [O]-C--CA-[CB] |==|  0.70504
USER: genes 10 Torsion [N]-C--CA-[N] |==|  0.45714
USER: genes 11 Torsion [C]-CA--N-[C] |==|  0.19444
USER: genes 12 Torsion [N]-C--CA-[CB] |==|  0.57732
ROOT
ATOM      1  C   PRO B  88      12.939   1.926  16.596  1.00 31.41 LIG 0.24  C 
ATOM      2 O    PRO B  88      12.648   0.991  15.840  1.00 30.85 LIG-0.27  OA
ATOM      3  N   LEU B  89      14.182   2.223  16.959  1.00 29.89 LIG-0.35  N 
ATOM      4 H    LEU B  89      14.386   2.864  17.496  1.00 29.89 LIG 0.16  HD
ENDROOT
BRANCH 3 5
ATOM      5  CA  LEU B  89      15.324   1.467  16.463  1.00 30.22 LIG 0.18  C 
BRANCH 5 6
ATOM      6  C   LEU B  89      16.623   2.063  17.004  1.00 29.45 LIG 0.24  C 
ATOM      7 O    LEU B  89      17.583   2.230  16.257  1.00 27.07 LIG-0.27  OA
ATOM      8  N   PRO B  90      16.657   2.377  18.309  1.00 31.27 LIG-0.34  N 
ATOM      9  CD  PRO B  90      15.535   2.294  19.268  1.00 32.01 LIG 0.13  C 
ATOM     10  CA  PRO B  90      17.860   2.967  18.928  1.00 32.16 LIG 0.18  C 
ATOM     11  CG  PRO B  90      16.171   2.665  20.580  1.00 32.17 LIG 0.02  C 
ATOM     12  CB  PRO B  90      17.321   3.553  20.230  1.00 32.36 LIG 0.04  C 
BRANCH 10 13
ATOM     13  C   PRO B  90      18.987   1.965  19.214  1.00 32.74 LIG 0.24  C 
ATOM     14  N   ALA B  91      18.997   1.368  20.410  1.00 33.34 LIG-0.34  N 
ATOM     15 H    ALA B  91      18.433   1.546  21.035  1.00 33.34 LIG 0.16  HD
ATOM     16 O    PRO B  90      19.832   1.745  18.345  1.00 32.61 LIG-0.27  OA
BRANCH 14 17
ATOM     17  CA  ALA B  91      19.985   0.337  20.770  1.00 34.79 LIG 0.18  C 
ATOM     18  CB  ALA B  91      21.384   0.965  20.951  1.00 34.67 LIG 0.04  C 
BRANCH 17 19
ATOM     19  C   ALA B  91      19.562  -0.407  22.041  1.00 35.98 LIG 0.20  C 
ATOM     20 OXT  ALA B  91      18.425  -0.894  22.156  1.00 36.84 LIG-0.65  OA
ATOM     21 O    ALA B  91      20.351  -0.519  22.985  1.00 37.03 LIG-0.65  OA
ENDBRANCH 17 19
ENDBRANCH 14 17
ENDBRANCH 10 13
ENDBRANCH 5 6
BRANCH 5 22
ATOM     22  CB  LEU B  89      15.359   1.475  14.932  1.00 30.14 LIG 0.04  C 
BRANCH 22 23
ATOM     23  CG  LEU B  89      15.131   2.808  14.216  1.00 30.45 LIG-0.02  C 
ATOM     24  CD1 LEU B  89      13.696   2.856  13.696  1.00 30.38 LIG 0.01  C 
ATOM     25  CD2 LEU B  89      15.441   3.985  15.144  1.00 30.79 LIG 0.01  C 
ENDBRANCH 22 23
ENDBRANCH 5 22
ENDBRANCH 3 5
BRANCH 1 26
ATOM     26  CA  PRO B  88      11.845   2.834  17.144  1.00 32.64 LIG 0.18  C 
ATOM     27  CB  PRO B  88      11.870   4.213  16.452  1.00 32.64 LIG 0.04  C 
ATOM     28  CG  PRO B  88      12.476   5.152  17.457  1.00 32.93 LIG 0.02  C 
ATOM     29  CD  PRO B  88      12.036   4.604  18.787  1.00 33.68 LIG 0.13  C 
ATOM     30  N   PRO B  88      12.059   3.148  18.562  1.00 34.22 LIG-0.34  N 
ATOM     31  C   GLY B  87      12.286   2.109  19.417  1.00 37.83 LIG 0.24  C 
ATOM     32 O    GLY B  87      12.350   0.935  19.041  1.00 36.70 LIG-0.27  OA
BRANCH 31 33
ATOM     33  CA  GLY B  87      12.475   2.425  20.896  1.00 40.95 LIG 0.23  C 
BRANCH 33 34
ATOM     34  N   GLY B  87      12.349   1.223  21.750  1.00 44.01 LIG-0.35  N 
ATOM     35 H    GLY B  87      11.641   1.206  22.239  1.00 44.01 LIG 0.16  HD
ATOM     36  C   PRO B  86      13.274   0.259  21.740  1.00 46.81 LIG 0.25  C 
ATOM     37 O    PRO B  86      14.267   0.303  21.018  1.00 48.58 LIG-0.27  OA
BRANCH 36 38
ATOM     38  CA  PRO B  86      13.083  -0.967  22.649  1.00 48.28 LIG 0.35  C 
ATOM     39  N   PRO B  86      12.348  -2.105  22.076  1.00 49.47 LIG 0.32  N 
ATOM     40  CD  PRO B  86      13.012  -3.387  22.364  1.00 50.15 LIG 0.32  C 
ATOM     41  CG  PRO B  86      14.447  -2.988  22.519  1.00 49.89 LIG 0.04  C 
ATOM     42  CB  PRO B  86      14.450  -1.566  23.030  1.00 49.17 LIG 0.05  C 
ENDBRANCH 36 38
ENDBRANCH 33 34
ENDBRANCH 31 33
ENDBRANCH 1 26
TORSDOF 11
ENDMDL
MODEL 7
USER: ADFR SOLUTION from run 108
USER: SCORE 13.009288 LL:  -3.076 LR: -10.199 RR:   0.000 FEB:  -6.917
USER: RMSD 10.773939
USER: SEED 107
USER: STATUS no improvement in best in 12 clusters for 5 generations
USER: GENES 13
USER: genes 0 Translation |==|  0.35302 0.53803 0.36161
USER: genes 1 Rotation |==|  0.53396 0.15780 0.68007 0.81515
USER: genes 2 Torsion [C]-N--CA-[CB] |==|  0.84727
USER: genes 3 Torsion [N]-CA--C-[N] |==|  0.37958
USER: genes 4 Torsion [N]-CA--C-[N] |==|  0.55523
USER: genes 5 Torsion [C]-N--CA-[CB] |==|  0.85830
USER: genes 6 Torsion [N]-CA--C-[OXT] |==|  0.30454
USER: genes 7 Torsion [N]-CA--CB-[CG] |==|  0.31139
USER: genes 8 Torsion [CA]-CB--CG-[CD2] |==|  0.63673
USER: genes 9 Torsion [O]-C--CA-[CB] |==|  0.72321
USER: genes 10 Torsion [N]-C--CA-[N] |==|  0.38070
USER: genes 11 Torsion [C]-CA--N-[C] |==|  0.78333
USER: genes 12 Torsion [N]-C--CA-[CB] |==|  0.58964
ROOT
ATOM      1  C   PRO B  88      14.276   4.608  16.417  1.00 31.41 LIG 0.24  C 
ATOM      2 O    PRO B  88      14.094   5.825  16.288  1.00 30.85 LIG-0.27  OA
ATOM      3  N   LEU B  89      13.562   3.838  17.232  1.00 29.89 LIG-0.35  N 
ATOM      4 H    LEU B  89      13.695   2.994  17.335  1.00 29.89 LIG 0.16  HD
ENDROOT
BRANCH 3 5
ATOM      5  CA  LEU B  89      12.471   4.377  18.032  1.00 30.22 LIG 0.18  C 
BRANCH 5 6
ATOM      6  C   LEU B  89      11.335   4.844  17.122  1.00 29.45 LIG 0.24  C 
ATOM      7 O    LEU B  89      11.584   5.484  16.104  1.00 27.07 LIG-0.27  OA
ATOM      8  N   PRO B  90      10.083   4.532  17.494  1.00 31.27 LIG-0.34  N 
ATOM      9  CD  PRO B  90       9.685   3.700  18.649  1.00 32.01 LIG 0.13  C 
ATOM     10  CA  PRO B  90       8.918   4.928  16.680  1.00 32.16 LIG 0.18  C 
ATOM     11  CG  PRO B  90       8.183   3.778  18.633  1.00 32.17 LIG 0.02  C 
ATOM     12  CB  PRO B  90       7.811   4.018  17.205  1.00 32.36 LIG 0.04  C 
BRANCH 10 13
ATOM     13  C   PRO B  90       8.513   6.403  16.819  1.00 32.74 LIG 0.24  C 
ATOM     14  N   ALA B  91       7.272   6.742  16.459  1.00 33.34 LIG-0.34  N 
ATOM     15 H    ALA B  91       6.708   6.189  16.118  1.00 33.34 LIG 0.16  HD
ATOM     16 O    PRO B  90       9.334   7.213  17.253  1.00 32.61 LIG-0.27  OA
BRANCH 14 17
ATOM     17  CA  ALA B  91       6.750   8.110  16.616  1.00 34.79 LIG 0.18  C 
ATOM     18  CB  ALA B  91       6.984   8.619  18.054  1.00 34.67 LIG 0.04  C 
BRANCH 17 19
ATOM     19  C   ALA B  91       7.389   9.061  15.599  1.00 35.98 LIG 0.20  C 
ATOM     20 OXT  ALA B  91       6.736   9.528  14.651  1.00 36.84 LIG-0.65  OA
ATOM     21 O    ALA B  91       8.583   9.365  15.701  1.00 37.03 LIG-0.65  OA
ENDBRANCH 17 19
ENDBRANCH 14 17
ENDBRANCH 10 13
ENDBRANCH 5 6
BRANCH 5 22
ATOM     22  CB  LEU B  89      12.952   5.550  18.890  1.00 30.14 LIG 0.04  C 
BRANCH 22 23
ATOM     23  CG  LEU B  89      12.422   6.947  18.556  1.00 30.45 LIG-0.02  C 
ATOM     24  CD1 LEU B  89      11.391   7.353  19.607  1.00 30.38 LIG 0.01  C 
ATOM     25  CD2 LEU B  89      13.568   7.956  18.461  1.00 30.79 LIG 0.01  C 
ENDBRANCH 22 23
ENDBRANCH 5 22
ENDBRANCH 3 5
BRANCH 1 26
ATOM     26  CA  PRO B  88      15.349   3.904  15.597  1.00 32.64 LIG 0.18  C 
ATOM     27  CB  PRO B  88      14.733   3.187  14.377  1.00 32.64 LIG 0.04  C 
ATOM     28  CG  PRO B  88      14.735   1.726  14.730  1.00 32.93 LIG 0.02  C 
ATOM     29  CD  PRO B  88      15.953   1.558  15.599  1.00 33.68 LIG 0.13  C 
ATOM     30  N   PRO B  88      15.990   2.822  16.354  1.00 34.22 LIG-0.34  N 
ATOM     31  C   GLY B  87      16.460   3.110  17.602  1.00 37.83 LIG 0.24  C 
ATOM     32 O    GLY B  87      16.338   4.223  18.123  1.00 36.70 LIG-0.27  OA
BRANCH 31 33
ATOM     33  CA  GLY B  87      17.157   2.000  18.381  1.00 40.95 LIG 0.23  C 
BRANCH 33 34
ATOM     34  N   GLY B  87      18.379   2.475  19.067  1.00 44.01 LIG-0.35  N 
ATOM     35 H    GLY B  87      18.283   2.613  19.911  1.00 44.01 LIG 0.16  HD
ATOM     36  C   PRO B  86      19.523   2.665  18.405  1.00 46.81 LIG 0.25  C 
ATOM     37 O    PRO B  86      19.634   2.442  17.201  1.00 48.58 LIG-0.27  OA
BRANCH 36 38
ATOM     38  CA  PRO B  86      20.759   3.157  19.176  1.00 48.28 LIG 0.35  C 
ATOM     39  N   PRO B  86      21.687   2.126  19.665  1.00 49.47 LIG 0.32  N 
ATOM     40  CD  PRO B  86      23.091   2.481  19.401  1.00 50.15 LIG 0.32  C 
ATOM     41  CG  PRO B  86      22.986   3.364  18.197  1.00 49.89 LIG 0.04  C 
ATOM     42  CB  PRO B  86      21.636   4.040  18.269  1.00 49.17 LIG 0.05  C 
ENDBRANCH 36 38
ENDBRANCH 33 34
ENDBRANCH 31 33
ENDBRANCH 1 26
TORSDOF 11
ENDMDL
MODEL 8
USER: ADFR SOLUTION from run 179
USER: SCORE 11.805852 LL:  -3.515 LR: -10.108 RR:   0.000 FEB:  -6.826
USER: RMSD 6.417771
USER: SEED 178
USER: STATUS no improvement in best in 10 clusters for 5 generations
USER: GENES 13
USER: genes 0 Translation |==|  0.37733 0.35917 0.38390
USER: genes 1 Rotation |==|  0.29725 0.45589 0.12108 0.75172
USER: genes 2 Torsion [C]-N--CA-[CB] |==|  0.21414
USER: genes 3 Torsion [N]-CA--C-[N] |==|  0.32260
USER: genes 4 Torsion [N]-CA--C-[N] |==|  0.91361
USER: genes 5 Torsion [C]-N--CA-[CB] |==|  0.17744
USER: genes 6 Torsion [N]-CA--C-[OXT] |==|  0.05411
USER: genes 7 Torsion [N]-CA--CB-[CG] |==|  0.53270
USER: genes 8 Torsion [CA]-CB--CG-[CD2] |==|  0.05209
USER: genes 9 Torsion [O]-C--CA-[CB] |==|  0.75591
USER: genes 10 Torsion [N]-C--CA-[N] |==|  0.34537
USER: genes 11 Torsion [C]-CA--N-[C] |==|  0.67580
USER: genes 12 Torsion [N]-C--CA-[CB] |==|  0.19005
ROOT
ATOM      1  C   PRO B  88      14.823   1.657  16.785  1.00 31.41 LIG 0.24  C 
ATOM      2 O    PRO B  88      15.338   0.608  16.381  1.00 30.85 LIG-0.27  OA
ATOM      3  N   LEU B  89      14.865   2.061  18.051  1.00 29.89 LIG-0.35  N 
ATOM      4 H    LEU B  89      14.496   2.783  18.338  1.00 29.89 LIG 0.16  HD
ENDROOT
BRANCH 3 5
ATOM      5  CA  LEU B  89      15.559   1.292  19.075  1.00 30.22 LIG 0.18  C 
BRANCH 5 6
ATOM      6  C   LEU B  89      15.081   1.717  20.463  1.00 29.45 LIG 0.24  C 
ATOM      7 O    LEU B  89      15.289   2.858  20.865  1.00 27.07 LIG-0.27  OA
ATOM      8  N   PRO B  90      14.446   0.793  21.202  1.00 31.27 LIG-0.34  N 
ATOM      9  CD  PRO B  90      14.074  -0.574  20.781  1.00 32.01 LIG 0.13  C 
ATOM     10  CA  PRO B  90      13.937   1.105  22.552  1.00 32.16 LIG 0.18  C 
ATOM     11  CG  PRO B  90      13.490  -1.176  22.030  1.00 32.17 LIG 0.02  C 
ATOM     12  CB  PRO B  90      12.943  -0.024  22.810  1.00 32.36 LIG 0.04  C 
BRANCH 10 13
ATOM     13  C   PRO B  90      15.012   1.138  23.648  1.00 32.74 LIG 0.24  C 
ATOM     14  N   ALA B  91      16.066   0.330  23.507  1.00 33.34 LIG-0.34  N 
ATOM     15 H    ALA B  91      16.152  -0.231  22.861  1.00 33.34 LIG 0.16  HD
ATOM     16 O    PRO B  90      14.869   1.898  24.607  1.00 32.61 LIG-0.27  OA
BRANCH 14 17
ATOM     17  CA  ALA B  91      17.193   0.328  24.456  1.00 34.79 LIG 0.18  C 
ATOM     18  CB  ALA B  91      16.723  -0.123  25.855  1.00 34.67 LIG 0.04  C 
BRANCH 17 19
ATOM     19  C   ALA B  91      18.329  -0.568  23.956  1.00 35.98 LIG 0.20  C 
ATOM     20 OXT  ALA B  91      18.417  -0.894  22.760  1.00 36.84 LIG-0.65  OA
ATOM     21 O    ALA B  91      19.174  -0.999  24.748  1.00 37.03 LIG-0.65  OA
ENDBRANCH 17 19
ENDBRANCH 14 17
ENDBRANCH 10 13
ENDBRANCH 5 6
BRANCH 5 22
ATOM     22  CB  LEU B  89      17.074   1.492  18.975  1.00 30.14 LIG 0.04  C 
BRANCH 22 23
ATOM     23  CG  LEU B  89      17.976   0.557  19.784  1.00 30.45 LIG-0.02  C 
ATOM     24  CD1 LEU B  89      18.523   1.314  20.992  1.00 30.38 LIG 0.01  C 
ATOM     25  CD2 LEU B  89      17.219  -0.707  20.198  1.00 30.79 LIG 0.01  C 
ENDBRANCH 22 23
ENDBRANCH 5 22
ENDBRANCH 3 5
BRANCH 1 26
ATOM     26  CA  PRO B  88      14.113   2.586  15.809  1.00 32.64 LIG 0.18  C 
ATOM     27  CB  PRO B  88      15.102   3.589  15.178  1.00 32.64 LIG 0.04  C 
ATOM     28  CG  PRO B  88      14.833   4.899  15.861  1.00 32.93 LIG 0.02  C 
ATOM     29  CD  PRO B  88      13.359   4.861  16.166  1.00 33.68 LIG 0.13  C 
ATOM     30  N   PRO B  88      13.131   3.441  16.487  1.00 34.22 LIG-0.34  N 
ATOM     31  C   GLY B  87      12.227   2.841  17.313  1.00 37.83 LIG 0.24  C 
ATOM     32 O    GLY B  87      12.225   1.625  17.533  1.00 36.70 LIG-0.27  OA
BRANCH 31 33
ATOM     33  CA  GLY B  87      11.182   3.718  17.994  1.00 40.95 LIG 0.23  C 
BRANCH 33 34
ATOM     34  N   GLY B  87       9.801   3.268  17.716  1.00 44.01 LIG-0.35  N 
ATOM     35 H    GLY B  87       9.614   2.484  18.016  1.00 44.01 LIG 0.16  HD
ATOM     36  C   PRO B  86       8.935   4.039  17.052  1.00 46.81 LIG 0.25  C 
ATOM     37 O    PRO B  86       9.226   5.164  16.649  1.00 48.58 LIG-0.27  OA
BRANCH 36 38
ATOM     38  CA  PRO B  86       7.512   3.515  16.797  1.00 48.28 LIG 0.35  C 
ATOM     39  N   PRO B  86       7.399   2.162  16.231  1.00 49.47 LIG 0.32  N 
ATOM     40  CD  PRO B  86       6.370   1.364  16.919  1.00 50.15 LIG 0.32  C 
ATOM     41  CG  PRO B  86       6.339   1.975  18.285  1.00 49.89 LIG 0.04  C 
ATOM     42  CB  PRO B  86       6.733   3.425  18.123  1.00 49.17 LIG 0.05  C 
ENDBRANCH 36 38
ENDBRANCH 33 34
ENDBRANCH 31 33
ENDBRANCH 1 26
TORSDOF 11
ENDMDL
MODEL 9
USER: ADFR SOLUTION from run 126
USER: SCORE 13.031809 LL:  -3.277 LR: -10.105 RR:   0.000 FEB:  -6.824
USER: RMSD 3.380567
USER: SEED 125
USER: STATUS no improvement in best in 15 clusters for 5 generations
USER: GENES 13
USER: genes 0 Translation |==|  0.41959 0.36285 0.40116
USER: genes 1 Rotation |==|  0.83763 0.71579 0.79873 0.51403
USER: genes 2 Torsion [C]-N--CA-[CB] |==|  0.85924
USER: genes 3 Torsion [N]-CA--C-[N] |==|  0.35947
USER: genes 4 Torsion [N]-CA--C-[N] |==|  0.16617
USER: genes 5 Torsion [C]-N--CA-[CB] |==|  0.24327
USER: genes 6 Torsion [N]-CA--C-[OXT] |==|  0.72323
USER: genes 7 Torsion [N]-CA--CB-[CG] |==|  0.79176
USER: genes 8 Torsion [CA]-CB--CG-[CD2] |==|  0.37160
USER: genes 9 Torsion [O]-C--CA-[CB] |==|  0.63834
USER: genes 10 Torsion [N]-C--CA-[N] |==|  0.47821
USER: genes 11 Torsion [C]-CA--N-[C] |==|  0.42964
USER: genes 12 Torsion [N]-C--CA-[CB] |==|  0.74525
ROOT
ATOM      1  C   PRO B  88      15.774   1.718  17.070  1.00 31.41 LIG 0.24  C 
ATOM      2 O    PRO B  88      15.847   1.017  18.087  1.00 30.85 LIG-0.27  OA
ATOM      3  N   LEU B  89      16.334   2.918  16.959  1.00 29.89 LIG-0.35  N 
ATOM      4 H    LEU B  89      16.273   3.414  16.258  1.00 29.89 LIG 0.16  HD
ENDROOT
BRANCH 3 5
ATOM      5  CA  LEU B  89      17.116   3.499  18.041  1.00 30.22 LIG 0.18  C 
BRANCH 5 6
ATOM      6  C   LEU B  89      18.439   2.749  18.195  1.00 29.45 LIG 0.24  C 
ATOM      7 O    LEU B  89      18.446   1.524  18.287  1.00 27.07 LIG-0.27  OA
ATOM      8  N   PRO B  90      19.561   3.485  18.231  1.00 31.27 LIG-0.34  N 
ATOM      9  CD  PRO B  90      19.666   4.947  18.045  1.00 32.01 LIG 0.13  C 
ATOM     10  CA  PRO B  90      20.889   2.856  18.366  1.00 32.16 LIG 0.18  C 
ATOM     11  CG  PRO B  90      21.124   5.226  18.290  1.00 32.17 LIG 0.02  C 
ATOM     12  CB  PRO B  90      21.838   3.965  17.920  1.00 32.36 LIG 0.04  C 
BRANCH 10 13
ATOM     13  C   PRO B  90      21.234   2.392  19.789  1.00 32.74 LIG 0.24  C 
ATOM     14  N   ALA B  91      20.433   1.486  20.357  1.00 33.34 LIG-0.34  N 
ATOM     15 H    ALA B  91      19.718   1.184  19.986  1.00 33.34 LIG 0.16  HD
ATOM     16 O    PRO B  90      22.225   2.862  20.351  1.00 32.61 LIG-0.27  OA
BRANCH 14 17
ATOM     17  CA  ALA B  91      20.705   0.914  21.687  1.00 34.79 LIG 0.18  C 
ATOM     18  CB  ALA B  91      20.091   1.797  22.794  1.00 34.67 LIG 0.04  C 
BRANCH 17 19
ATOM     19  C   ALA B  91      20.172  -0.519  21.786  1.00 35.98 LIG 0.20  C 
ATOM     20 OXT  ALA B  91      19.089  -0.769  22.340  1.00 36.84 LIG-0.65  OA
ATOM     21 O    ALA B  91      20.831  -1.458  21.326  1.00 37.03 LIG-0.65  OA
ENDBRANCH 17 19
ENDBRANCH 14 17
ENDBRANCH 10 13
ENDBRANCH 5 6
BRANCH 5 22
ATOM     22  CB  LEU B  89      16.343   3.444  19.362  1.00 30.14 LIG 0.04  C 
BRANCH 22 23
ATOM     23  CG  LEU B  89      15.194   4.435  19.562  1.00 30.45 LIG-0.02  C 
ATOM     24  CD1 LEU B  89      14.903   5.137  18.238  1.00 30.38 LIG 0.01  C 
ATOM     25  CD2 LEU B  89      13.955   3.729  20.118  1.00 30.79 LIG 0.01  C 
ENDBRANCH 22 23
ENDBRANCH 5 22
ENDBRANCH 3 5
BRANCH 1 26
ATOM     26  CA  PRO B  88      15.033   1.207  15.841  1.00 32.64 LIG 0.18  C 
ATOM     27  CB  PRO B  88      15.894   1.364  14.569  1.00 32.64 LIG 0.04  C 
ATOM     28  CG  PRO B  88      15.307   2.536  13.833  1.00 32.93 LIG 0.02  C 
ATOM     29  CD  PRO B  88      13.839   2.481  14.161  1.00 33.68 LIG 0.13  C 
ATOM     30  N   PRO B  88      13.835   2.007  15.556  1.00 34.22 LIG-0.34  N 
ATOM     31  C   GLY B  87      12.961   2.230  16.578  1.00 37.83 LIG 0.24  C 
ATOM     32 O    GLY B  87      13.153   1.817  17.726  1.00 36.70 LIG-0.27  OA
BRANCH 31 33
ATOM     33  CA  GLY B  87      11.698   3.031  16.282  1.00 40.95 LIG 0.23  C 
BRANCH 33 34
ATOM     34  N   GLY B  87      10.755   3.040  17.422  1.00 44.01 LIG-0.35  N 
ATOM     35 H    GLY B  87      10.829   2.366  17.951  1.00 44.01 LIG 0.16  HD
ATOM     36  C   PRO B  86       9.872   4.029  17.590  1.00 46.81 LIG 0.25  C 
ATOM     37 O    PRO B  86       9.801   4.989  16.826  1.00 48.58 LIG-0.27  OA
BRANCH 36 38
ATOM     38  CA  PRO B  86       8.920   3.981  18.797  1.00 48.28 LIG 0.35  C 
ATOM     39  N   PRO B  86       8.476   5.275  19.339  1.00 49.47 LIG 0.32  N 
ATOM     40  CD  PRO B  86       7.030   5.287  19.613  1.00 50.15 LIG 0.32  C 
ATOM     41  CG  PRO B  86       6.502   4.278  18.641  1.00 49.89 LIG 0.04  C 
ATOM     42  CB  PRO B  86       7.607   3.273  18.413  1.00 49.17 LIG 0.05  C 
ENDBRANCH 36 38
ENDBRANCH 33 34
ENDBRANCH 31 33
ENDBRANCH 1 26
TORSDOF 11
ENDMDL
MODEL 10
USER: ADFR SOLUTION from run 71
USER: SCORE 11.893051 LL:  -3.430 LR: -10.050 RR:   0.000 FEB:  -6.768
USER: RMSD 10.639102
USER: SEED 70
USER: STATUS no improvement in best in 16 clusters for 5 generations
USER: GENES 13
USER: genes 0 Translation |==|  0.28109 0.45356 0.39340
USER: genes 1 Rotation |==|  0.49495 0.57081 0.98779 0.58381
USER: genes 2 Torsion [C]-N--CA-[CB] |==|  0.42789
USER: genes 3 Torsion [N]-CA--C-[N] |==|  0.45885
USER: genes 4 Torsion [N]-CA--C-[N] |==|  0.97322
USER: genes 5 Torsion [C]-N--CA-[CB] |==|  0.44406
USER: genes 6 Torsion [N]-CA--C-[OXT] |==|  0.59202
USER: genes 7 Torsion [N]-CA--CB-[CG] |==|  0.73587
USER: genes 8 Torsion [CA]-CB--CG-[CD2] |==|  0.04315
USER: genes 9 Torsion [O]-C--CA-[CB] |==|  0.11707
USER: genes 10 Torsion [N]-C--CA-[N] |==|  0.66022
USER: genes 11 Torsion [C]-CA--N-[C] |==|  0.71429
USER: genes 12 Torsion [N]-C--CA-[CB] |==|  0.08860
ROOT
ATOM      1  C   PRO B  88      12.658   3.215  16.942  1.00 31.41 LIG 0.24  C 
ATOM      2 O    PRO B  88      11.961   2.231  16.662  1.00 30.85 LIG-0.27  OA
ATOM      3  N   LEU B  89      12.284   4.167  17.792  1.00 29.89 LIG-0.35  N 
ATOM      4 H    LEU B  89      12.760   4.859  17.977  1.00 29.89 LIG 0.16  HD
ENDROOT
BRANCH 3 5
ATOM      5  CA  LEU B  89      11.008   4.108  18.491  1.00 30.22 LIG 0.18  C 
BRANCH 5 6
ATOM      6  C   LEU B  89       9.900   4.687  17.610  1.00 29.45 LIG 0.24  C 
ATOM      7 O    LEU B  89      10.186   5.359  16.623  1.00 27.07 LIG-0.27  OA
ATOM      8  N   PRO B  90       8.633   4.432  17.973  1.00 31.27 LIG-0.34  N 
ATOM      9  CD  PRO B  90       8.188   3.570  19.088  1.00 32.01 LIG 0.13  C 
ATOM     10  CA  PRO B  90       7.492   4.937  17.185  1.00 32.16 LIG 0.18  C 
ATOM     11  CG  PRO B  90       6.693   3.740  19.084  1.00 32.17 LIG 0.02  C 
ATOM     12  CB  PRO B  90       6.333   4.071  17.671  1.00 32.36 LIG 0.04  C 
BRANCH 10 13
ATOM     13  C   PRO B  90       7.177   6.425  17.397  1.00 32.74 LIG 0.24  C 
ATOM     14  N   ALA B  91       7.811   7.057  18.389  1.00 33.34 LIG-0.34  N 
ATOM     15 H    ALA B  91       8.348   6.666  18.935  1.00 33.34 LIG 0.16  HD
ATOM     16 O    PRO B  90       6.365   6.980  16.655  1.00 32.61 LIG-0.27  OA
BRANCH 14 17
ATOM     17  CA  ALA B  91       7.644   8.499  18.641  1.00 34.79 LIG 0.18  C 
ATOM     18  CB  ALA B  91       8.061   8.850  20.085  1.00 34.67 LIG 0.04  C 
BRANCH 17 19
ATOM     19  C   ALA B  91       8.448   9.327  17.633  1.00 35.98 LIG 0.20  C 
ATOM     20 OXT  ALA B  91       8.958  10.414  17.951  1.00 36.84 LIG-0.65  OA
ATOM     21 O    ALA B  91       8.586   8.927  16.472  1.00 37.03 LIG-0.65  OA
ENDBRANCH 17 19
ENDBRANCH 14 17
ENDBRANCH 10 13
ENDBRANCH 5 6
BRANCH 5 22
ATOM     22  CB  LEU B  89      11.071   4.886  19.807  1.00 30.14 LIG 0.04  C 
BRANCH 22 23
ATOM     23  CG  LEU B  89      11.388   4.108  21.087  1.00 30.45 LIG-0.02  C 
ATOM     24  CD1 LEU B  89      10.124   4.010  21.938  1.00 30.38 LIG 0.01  C 
ATOM     25  CD2 LEU B  89      11.962   2.728  20.757  1.00 30.79 LIG 0.01  C 
ENDBRANCH 22 23
ENDBRANCH 5 22
ENDBRANCH 3 5
BRANCH 1 26
ATOM     26  CA  PRO B  88      14.041   3.373  16.325  1.00 32.64 LIG 0.18  C 
ATOM     27  CB  PRO B  88      14.027   2.998  14.828  1.00 32.64 LIG 0.04  C 
ATOM     28  CG  PRO B  88      14.682   1.647  14.749  1.00 32.93 LIG 0.02  C 
ATOM     29  CD  PRO B  88      15.693   1.662  15.863  1.00 33.68 LIG 0.13  C 
ATOM     30  N   PRO B  88      15.009   2.438  16.912  1.00 34.22 LIG-0.34  N 
ATOM     31  C   GLY B  87      15.100   2.387  18.272  1.00 37.83 LIG 0.24  C 
ATOM     32 O    GLY B  87      14.385   3.065  19.017  1.00 36.70 LIG-0.27  OA
BRANCH 31 33
ATOM     33  CA  GLY B  87      16.127   1.444  18.889  1.00 40.95 LIG 0.23  C 
BRANCH 33 34
ATOM     34  N   GLY B  87      15.510   0.461  19.806  1.00 44.01 LIG-0.35  N 
ATOM     35 H    GLY B  87      15.110  -0.192  19.413  1.00 44.01 LIG 0.16  HD
ATOM     36  C   PRO B  86      15.585   0.601  21.133  1.00 46.81 LIG 0.25  C 
ATOM     37 O    PRO B  86      16.179   1.535  21.666  1.00 48.58 LIG-0.27  OA
BRANCH 36 38
ATOM     38  CA  PRO B  86      14.925  -0.458  22.033  1.00 48.28 LIG 0.35  C 
ATOM     39  N   PRO B  86      13.498  -0.268  22.337  1.00 49.47 LIG 0.32  N 
ATOM     40  CD  PRO B  86      12.738  -1.522  22.201  1.00 50.15 LIG 0.32  C 
ATOM     41  CG  PRO B  86      13.542  -2.288  21.197  1.00 49.89 LIG 0.04  C 
ATOM     42  CB  PRO B  86      14.976  -1.840  21.355  1.00 49.17 LIG 0.05  C 
ENDBRANCH 36 38
ENDBRANCH 33 34
ENDBRANCH 31 33
ENDBRANCH 1 26
TORSDOF 11
ENDMDL
MODEL 11
USER: ADFR SOLUTION from run 170
USER: SCORE 13.765843 LL:  -3.929 LR: -10.039 RR:   0.000 FEB:  -6.758
USER: RMSD 7.598653
USER: SEED 169
USER: STATUS no improvement in best in 7 clusters for 5 generations
USER: GENES 13
USER: genes 0 Translation |==|  0.28830 0.44598 0.64381
USER: genes 1 Rotation |==|  0.80743 0.51798 0.28463 0.82982
USER: genes 2 Torsion [C]-N--CA-[CB] |==|  0.84386
USER: genes 3 Torsion [N]-CA--C-[N] |==|  0.41108
USER: genes 4 Torsion [N]-CA--C-[N] |==|  0.14356
USER: genes 5 Torsion [C]-N--CA-[CB] |==|  0.85366
USER: genes 6 Torsion [N]-CA--C-[OXT] |==|  0.01297
USER: genes 7 Torsion [N]-CA--CB-[CG] |==|  0.34271
USER: genes 8 Torsion [CA]-CB--CG-[CD2] |==|  0.62799
USER: genes 9 Torsion [O]-C--CA-[CB] |==|  0.68930
USER: genes 10 Torsion [N]-C--CA-[N] |==|  0.58218
USER: genes 11 Torsion [C]-CA--N-[C] |==|  0.18155
USER: genes 12 Torsion [N]-C--CA-[CB] |==|  0.35946
ROOT
ATOM      1  C   PRO B  88      12.820   3.090  21.074  1.00 31.41 LIG 0.24  C 
ATOM      2 O    PRO B  88      13.953   3.244  21.545  1.00 30.85 LIG-0.27  OA
ATOM      3  N   LEU B  89      12.372   1.935  20.590  1.00 29.89 LIG-0.35  N 
ATOM      4 H    LEU B  89      11.590   1.828  20.248  1.00 29.89 LIG 0.16  HD
ENDROOT
BRANCH 3 5
ATOM      5  CA  LEU B  89      13.194   0.733  20.601  1.00 30.22 LIG 0.18  C 
BRANCH 5 6
ATOM      6  C   LEU B  89      13.471   0.301  22.041  1.00 29.45 LIG 0.24  C 
ATOM      7 O    LEU B  89      13.573   1.143  22.929  1.00 27.07 LIG-0.27  OA
ATOM      8  N   PRO B  90      13.600  -1.015  22.272  1.00 31.27 LIG-0.34  N 
ATOM      9  CD  PRO B  90      13.413  -2.108  21.294  1.00 32.01 LIG 0.13  C 
ATOM     10  CA  PRO B  90      13.859  -1.537  23.628  1.00 32.16 LIG 0.18  C 
ATOM     11  CG  PRO B  90      13.784  -3.340  22.073  1.00 32.17 LIG 0.02  C 
ATOM     12  CB  PRO B  90      13.490  -3.012  23.502  1.00 32.36 LIG 0.04  C 
BRANCH 10 13
ATOM     13  C   PRO B  90      15.310  -1.383  24.106  1.00 32.74 LIG 0.24  C 
ATOM     14  N   ALA B  91      15.866  -0.171  24.020  1.00 33.34 LIG-0.34  N 
ATOM     15 H    ALA B  91      15.470   0.510  23.676  1.00 33.34 LIG 0.16  HD
ATOM     16 O    PRO B  90      15.905  -2.367  24.547  1.00 32.61 LIG-0.27  OA
BRANCH 14 17
ATOM     17  CA  ALA B  91      17.225   0.112  24.514  1.00 34.79 LIG 0.18  C 
ATOM     18  CB  ALA B  91      17.377  -0.348  25.980  1.00 34.67 LIG 0.04  C 
BRANCH 17 19
ATOM     19  C   ALA B  91      18.280  -0.559  23.629  1.00 35.98 LIG 0.20  C 
ATOM     20 OXT  ALA B  91      17.963  -1.165  22.592  1.00 36.84 LIG-0.65  OA
ATOM     21 O    ALA B  91      19.473  -0.519  23.948  1.00 37.03 LIG-0.65  OA
ENDBRANCH 17 19
ENDBRANCH 14 17
ENDBRANCH 10 13
ENDBRANCH 5 6
BRANCH 5 22
ATOM     22  CB  LEU B  89      14.522   0.973  19.878  1.00 30.14 LIG 0.04  C 
BRANCH 22 23
ATOM     23  CG  LEU B  89      15.817   0.714  20.651  1.00 30.45 LIG-0.02  C 
ATOM     24  CD1 LEU B  89      16.403  -0.624  20.208  1.00 30.38 LIG 0.01  C 
ATOM     25  CD2 LEU B  89      16.808   1.864  20.455  1.00 30.79 LIG 0.01  C 
ENDBRANCH 22 23
ENDBRANCH 5 22
ENDBRANCH 3 5
BRANCH 1 26
ATOM     26  CA  PRO B  88      11.836   4.252  21.052  1.00 32.64 LIG 0.18  C 
ATOM     27  CB  PRO B  88      10.658   4.001  22.017  1.00 32.64 LIG 0.04  C 
ATOM     28  CG  PRO B  88       9.494   3.636  21.140  1.00 32.93 LIG 0.02  C 
ATOM     29  CD  PRO B  88       9.724   4.420  19.876  1.00 33.68 LIG 0.13  C 
ATOM     30  N   PRO B  88      11.191   4.394  19.740  1.00 34.22 LIG-0.34  N 
ATOM     31  C   GLY B  87      11.992   4.430  18.637  1.00 37.83 LIG 0.24  C 
ATOM     32 O    GLY B  87      13.220   4.316  18.698  1.00 36.70 LIG-0.27  OA
BRANCH 31 33
ATOM     33  CA  GLY B  87      11.332   4.612  17.275  1.00 40.95 LIG 0.23  C 
BRANCH 33 34
ATOM     34  N   GLY B  87      12.100   3.969  16.186  1.00 44.01 LIG-0.35  N 
ATOM     35 H    GLY B  87      12.429   4.516  15.610  1.00 44.01 LIG 0.16  HD
ATOM     36  C   PRO B  86      12.253   2.643  16.129  1.00 46.81 LIG 0.25  C 
ATOM     37 O    PRO B  86      11.785   1.886  16.977  1.00 48.58 LIG-0.27  OA
BRANCH 36 38
ATOM     38  CA  PRO B  86      13.065   2.035  14.972  1.00 48.28 LIG 0.35  C 
ATOM     39  N   PRO B  86      13.838   2.974  14.144  1.00 49.47 LIG 0.32  N 
ATOM     40  CD  PRO B  86      15.200   2.481  13.884  1.00 50.15 LIG 0.32  C 
ATOM     41  CG  PRO B  86      15.466   1.605  15.069  1.00 49.89 LIG 0.04  C 
ATOM     42  CB  PRO B  86      14.129   1.066  15.520  1.00 49.17 LIG 0.05  C 
ENDBRANCH 36 38
ENDBRANCH 33 34
ENDBRANCH 31 33
ENDBRANCH 1 26
TORSDOF 11
ENDMDL
MODEL 12
USER: ADFR SOLUTION from run 2
USER: SCORE 12.203652 LL:  -2.930 LR: -10.023 RR:   0.000 FEB:  -6.742
USER: RMSD 9.490772
USER: SEED 721991
USER: STATUS no improvement in best in 19 clusters for 5 generations
USER: GENES 13
USER: genes 0 Translation |==|  0.55117 0.42110 0.44867
USER: genes 1 Rotation |==|  0.17798 0.47301 0.87428 0.57408
USER: genes 2 Torsion [C]-N--CA-[CB] |==|  0.19767
USER: genes 3 Torsion [N]-CA--C-[N] |==|  0.84138
USER: genes 4 Torsion [N]-CA--C-[N] |==|  0.66596
USER: genes 5 Torsion [C]-N--CA-[CB] |==|  0.88653
USER: genes 6 Torsion [N]-CA--C-[OXT] |==|  0.74665
USER: genes 7 Torsion [N]-CA--CB-[CG] |==|  0.54525
USER: genes 8 Torsion [CA]-CB--CG-[CD2] |==|  0.06701
USER: genes 9 Torsion [O]-C--CA-[CB] |==|  0.60192
USER: genes 10 Torsion [N]-C--CA-[N] |==|  0.45066
USER: genes 11 Torsion [C]-CA--N-[C] |==|  0.25885
USER: genes 12 Torsion [N]-C--CA-[CB] |==|  0.62347
ROOT
ATOM      1  C   PRO B  88      18.734   2.679  17.854  1.00 31.41 LIG 0.24  C 
ATOM      2 O    PRO B  88      19.082   1.731  17.140  1.00 30.85 LIG-0.27  OA
ATOM      3  N   LEU B  89      17.685   3.453  17.595  1.00 29.89 LIG-0.35  N 
ATOM      4 H    LEU B  89      17.449   4.122  18.082  1.00 29.89 LIG 0.16  HD
ENDROOT
BRANCH 3 5
ATOM      5  CA  LEU B  89      16.833   3.221  16.437  1.00 30.22 LIG 0.18  C 
BRANCH 5 6
ATOM      6  C   LEU B  89      15.909   4.419  16.217  1.00 29.45 LIG 0.24  C 
ATOM      7 O    LEU B  89      15.923   5.019  15.146  1.00 27.07 LIG-0.27  OA
ATOM      8  N   PRO B  90      15.110   4.772  17.236  1.00 31.27 LIG-0.34  N 
ATOM      9  CD  PRO B  90      14.958   4.068  18.526  1.00 32.01 LIG 0.13  C 
ATOM     10  CA  PRO B  90      14.174   5.908  17.121  1.00 32.16 LIG 0.18  C 
ATOM     11  CG  PRO B  90      14.026   4.959  19.301  1.00 32.17 LIG 0.02  C 
ATOM     12  CB  PRO B  90      13.203   5.666  18.273  1.00 32.36 LIG 0.04  C 
BRANCH 10 13
ATOM     13  C   PRO B  90      14.830   7.291  17.251  1.00 32.74 LIG 0.24  C 
ATOM     14  N   ALA B  91      14.410   8.085  18.240  1.00 33.34 LIG-0.34  N 
ATOM     15 H    ALA B  91      13.770   7.879  18.776  1.00 33.34 LIG 0.16  HD
ATOM     16 O    PRO B  90      15.708   7.617  16.451  1.00 32.61 LIG-0.27  OA
BRANCH 14 17
ATOM     17  CA  ALA B  91      15.015   9.402  18.506  1.00 34.79 LIG 0.18  C 
ATOM     18  CB  ALA B  91      16.550   9.334  18.357  1.00 34.67 LIG 0.04  C 
BRANCH 17 19
ATOM     19  C   ALA B  91      14.432  10.470  17.576  1.00 35.98 LIG 0.20  C 
ATOM     20 OXT  ALA B  91      14.958  10.731  16.481  1.00 36.84 LIG-0.65  OA
ATOM     21 O    ALA B  91      13.428  11.106  17.915  1.00 37.03 LIG-0.65  OA
ENDBRANCH 17 19
ENDBRANCH 14 17
ENDBRANCH 10 13
ENDBRANCH 5 6
BRANCH 5 22
ATOM     22  CB  LEU B  89      15.990   1.956  16.625  1.00 30.14 LIG 0.04  C 
BRANCH 22 23
ATOM     23  CG  LEU B  89      15.330   1.344  15.386  1.00 30.45 LIG-0.02  C 
ATOM     24  CD1 LEU B  89      13.866   1.774  15.339  1.00 30.38 LIG 0.01  C 
ATOM     25  CD2 LEU B  89      16.083   1.740  14.115  1.00 30.79 LIG 0.01  C 
ENDBRANCH 22 23
ENDBRANCH 5 22
ENDBRANCH 3 5
BRANCH 1 26
ATOM     26  CA  PRO B  88      19.505   2.999  19.129  1.00 32.64 LIG 0.18  C 
ATOM     27  CB  PRO B  88      18.553   3.474  20.247  1.00 32.64 LIG 0.04  C 
ATOM     28  CG  PRO B  88      18.752   4.961  20.335  1.00 32.93 LIG 0.02  C 
ATOM     29  CD  PRO B  88      20.197   5.163  19.970  1.00 33.68 LIG 0.13  C 
ATOM     30  N   PRO B  88      20.420   4.132  18.941  1.00 34.22 LIG-0.34  N 
ATOM     31  C   GLY B  87      21.266   4.097  17.872  1.00 37.83 LIG 0.24  C 
ATOM     32 O    GLY B  87      21.267   3.175  17.050  1.00 36.70 LIG-0.27  OA
BRANCH 31 33
ATOM     33  CA  GLY B  87      22.243   5.253  17.690  1.00 40.95 LIG 0.23  C 
BRANCH 33 34
ATOM     34  N   GLY B  87      23.357   4.912  16.779  1.00 44.01 LIG-0.35  N 
ATOM     35 H    GLY B  87      24.027   4.532  17.161  1.00 44.01 LIG 0.16  HD
ATOM     36  C   PRO B  86      23.299   5.184  15.472  1.00 46.81 LIG 0.25  C 
ATOM     37 O    PRO B  86      22.320   5.713  14.951  1.00 48.58 LIG-0.27  OA
BRANCH 36 38
ATOM     38  CA  PRO B  86      24.489   4.802  14.577  1.00 48.28 LIG 0.35  C 
ATOM     39  N   PRO B  86      24.301   3.647  13.685  1.00 49.47 LIG 0.32  N 
ATOM     40  CD  PRO B  86      24.799   3.917  12.326  1.00 50.15 LIG 0.32  C 
ATOM     41  CG  PRO B  86      24.672   5.405  12.218  1.00 49.89 LIG 0.04  C 
ATOM     42  CB  PRO B  86      24.826   5.957  13.616  1.00 49.17 LIG 0.05  C 
ENDBRANCH 36 38
ENDBRANCH 33 34
ENDBRANCH 31 33
ENDBRANCH 1 26
TORSDOF 11
ENDMDL
MODEL 13
USER: ADFR SOLUTION from run 147
USER: SCORE 11.772471 LL:  -3.065 LR:  -9.988 RR:   0.000 FEB:  -6.707
USER: RMSD 5.489168
USER: SEED 146
USER: STATUS no improvement in best in 15 clusters for 5 generations
USER: GENES 13
USER: genes 0 Translation |==|  0.40861 0.38369 0.35173
USER: genes 1 Rotation |==|  0.14974 0.37270 0.39924 0.81774
USER: genes 2 Torsion [C]-N--CA-[CB] |==|  0.49445
USER: genes 3 Torsion [N]-CA--C-[N] |==|  0.50498
USER: genes 4 Torsion [N]-CA--C-[N] |==|  0.28707
USER: genes 5 Torsion [C]-N--CA-[CB] |==|  0.22398
USER: genes 6 Torsion [N]-CA--C-[OXT] |==|  0.19601
USER: genes 7 Torsion [N]-CA--CB-[CG] |==|  0.78922
USER: genes 8 Torsion [CA]-CB--CG-[CD2] |==|  0.96802
USER: genes 9 Torsion [O]-C--CA-[CB] |==|  0.73211
USER: genes 10 Torsion [N]-C--CA-[N] |==|  0.29466
USER: genes 11 Torsion [C]-CA--N-[C] |==|  0.23163
USER: genes 12 Torsion [N]-C--CA-[CB] |==|  0.60247
ROOT
ATOM      1  C   PRO B  88      15.527   2.062  16.255  1.00 31.41 LIG 0.24  C 
ATOM      2 O    PRO B  88      16.470   1.474  15.713  1.00 30.85 LIG-0.27  OA
ATOM      3  N   LEU B  89      15.650   3.218  16.899  1.00 29.89 LIG-0.35  N 
ATOM      4 H    LEU B  89      14.998   3.622  17.290  1.00 29.89 LIG 0.16  HD
ENDROOT
BRANCH 3 5
ATOM      5  CA  LEU B  89      16.930   3.905  16.996  1.00 30.22 LIG 0.18  C 
BRANCH 5 6
ATOM      6  C   LEU B  89      17.945   3.023  17.722  1.00 29.45 LIG 0.24  C 
ATOM      7 O    LEU B  89      17.627   1.899  18.100  1.00 27.07 LIG-0.27  OA
ATOM      8  N   PRO B  90      19.170   3.535  17.923  1.00 31.27 LIG-0.34  N 
ATOM      9  CD  PRO B  90      19.676   4.835  17.436  1.00 32.01 LIG 0.13  C 
ATOM     10  CA  PRO B  90      20.225   2.761  18.605  1.00 32.16 LIG 0.18  C 
ATOM     11  CG  PRO B  90      21.050   4.923  18.041  1.00 32.17 LIG 0.02  C 
ATOM     12  CB  PRO B  90      21.499   3.509  18.219  1.00 32.36 LIG 0.04  C 
BRANCH 10 13
ATOM     13  C   PRO B  90      20.082   2.692  20.132  1.00 32.74 LIG 0.24  C 
ATOM     14  N   ALA B  91      19.616   1.556  20.660  1.00 33.34 LIG-0.34  N 
ATOM     15 H    ALA B  91      19.356   0.885  20.190  1.00 33.34 LIG 0.16  HD
ATOM     16 O    PRO B  90      20.398   3.670  20.810  1.00 32.61 LIG-0.27  OA
BRANCH 14 17
ATOM     17  CA  ALA B  91      19.505   1.349  22.114  1.00 34.79 LIG 0.18  C 
ATOM     18  CB  ALA B  91      18.227   2.019  22.662  1.00 34.67 LIG 0.04  C 
BRANCH 17 19
ATOM     19  C   ALA B  91      19.517  -0.144  22.457  1.00 35.98 LIG 0.20  C 
ATOM     20 OXT  ALA B  91      20.550  -0.826  22.339  1.00 36.84 LIG-0.65  OA
ATOM     21 O    ALA B  91      18.484  -0.700  22.844  1.00 37.03 LIG-0.65  OA
ENDBRANCH 17 19
ENDBRANCH 14 17
ENDBRANCH 10 13
ENDBRANCH 5 6
BRANCH 5 22
ATOM     22  CB  LEU B  89      16.781   5.232  17.746  1.00 30.14 LIG 0.04  C 
BRANCH 22 23
ATOM     23  CG  LEU B  89      16.145   6.409  17.002  1.00 30.45 LIG-0.02  C 
ATOM     24  CD1 LEU B  89      16.970   7.667  17.262  1.00 30.38 LIG 0.01  C 
ATOM     25  CD2 LEU B  89      16.022   6.106  15.507  1.00 30.79 LIG 0.01  C 
ENDBRANCH 22 23
ENDBRANCH 5 22
ENDBRANCH 3 5
BRANCH 1 26
ATOM     26  CA  PRO B  88      14.120   1.482  16.181  1.00 32.64 LIG 0.18  C 
ATOM     27  CB  PRO B  88      13.314   2.125  15.033  1.00 32.64 LIG 0.04  C 
ATOM     28  CG  PRO B  88      12.360   3.076  15.700  1.00 32.93 LIG 0.02  C 
ATOM     29  CD  PRO B  88      12.053   2.425  17.022  1.00 33.68 LIG 0.13  C 
ATOM     30  N   PRO B  88      13.337   1.799  17.382  1.00 34.22 LIG-0.34  N 
ATOM     31  C   GLY B  87      13.898   1.532  18.597  1.00 37.83 LIG 0.24  C 
ATOM     32 O    GLY B  87      15.036   1.070  18.721  1.00 36.70 LIG-0.27  OA
BRANCH 31 33
ATOM     33  CA  GLY B  87      13.077   1.827  19.847  1.00 40.95 LIG 0.23  C 
BRANCH 33 34
ATOM     34  N   GLY B  87      12.563   0.597  20.487  1.00 44.01 LIG-0.35  N 
ATOM     35 H    GLY B  87      11.755   0.394  20.273  1.00 44.01 LIG 0.16  HD
ATOM     36  C   PRO B  86      13.315  -0.121  21.327  1.00 46.81 LIG 0.25  C 
ATOM     37 O    PRO B  86      14.473   0.185  21.602  1.00 48.58 LIG-0.27  OA
BRANCH 36 38
ATOM     38  CA  PRO B  86      12.723  -1.392  21.958  1.00 48.28 LIG 0.35  C 
ATOM     39  N   PRO B  86      13.087  -2.672  21.331  1.00 49.47 LIG 0.32  N 
ATOM     40  CD  PRO B  86      13.454  -3.688  22.331  1.00 50.15 LIG 0.32  C 
ATOM     41  CG  PRO B  86      13.950  -2.860  23.476  1.00 49.89 LIG 0.04  C 
ATOM     42  CB  PRO B  86      13.213  -1.543  23.411  1.00 49.17 LIG 0.05  C 
ENDBRANCH 36 38
ENDBRANCH 33 34
ENDBRANCH 31 33
ENDBRANCH 1 26
TORSDOF 11
ENDMDL
MODEL 14
USER: ADFR SOLUTION from run 74
USER: SCORE 11.750850 LL:  -3.390 LR:  -9.943 RR:   0.000 FEB:  -6.662
USER: RMSD 4.596995
USER: SEED 73
USER: STATUS no improvement in best in 8 clusters for 5 generations
USER: GENES 13
USER: genes 0 Translation |==|  0.40798 0.36706 0.48928
USER: genes 1 Rotation |==|  0.59465 0.28540 0.52628 0.94079
USER: genes 2 Torsion [C]-N--CA-[CB] |==|  0.48889
USER: genes 3 Torsion [N]-CA--C-[N] |==|  0.84304
USER: genes 4 Torsion [N]-CA--C-[N] |==|  0.09590
USER: genes 5 Torsion [C]-N--CA-[CB] |==|  0.84651
USER: genes 6 Torsion [N]-CA--C-[OXT] |==|  0.05389
USER: genes 7 Torsion [N]-CA--CB-[CG] |==|  0.86741
USER: genes 8 Torsion [CA]-CB--CG-[CD2] |==|  0.79516
USER: genes 9 Torsion [O]-C--CA-[CB] |==|  0.13472
USER: genes 10 Torsion [N]-C--CA-[N] |==|  0.49695
USER: genes 11 Torsion [C]-CA--N-[C] |==|  0.38501
USER: genes 12 Torsion [N]-C--CA-[CB] |==|  0.59618
ROOT
ATOM      1  C   PRO B  88      15.513   1.787  18.524  1.00 31.41 LIG 0.24  C 
ATOM      2 O    PRO B  88      15.885   2.937  18.787  1.00 30.85 LIG-0.27  OA
ATOM      3  N   LEU B  89      15.230   0.874  19.447  1.00 29.89 LIG-0.35  N 
ATOM      4 H    LEU B  89      14.985   0.069  19.267  1.00 29.89 LIG 0.16  HD
ENDROOT
BRANCH 3 5
ATOM      5  CA  LEU B  89      15.317   1.173  20.870  1.00 30.22 LIG 0.18  C 
BRANCH 5 6
ATOM      6  C   LEU B  89      16.757   1.521  21.245  1.00 29.45 LIG 0.24  C 
ATOM      7 O    LEU B  89      17.013   2.598  21.777  1.00 27.07 LIG-0.27  OA
ATOM      8  N   PRO B  90      17.703   0.611  20.961  1.00 31.27 LIG-0.34  N 
ATOM      9  CD  PRO B  90      17.489  -0.741  20.402  1.00 32.01 LIG 0.13  C 
ATOM     10  CA  PRO B  90      19.121   0.846  21.292  1.00 32.16 LIG 0.18  C 
ATOM     11  CG  PRO B  90      18.887  -1.259  20.201  1.00 32.17 LIG 0.02  C 
ATOM     12  CB  PRO B  90      19.724  -0.554  21.219  1.00 32.36 LIG 0.04  C 
BRANCH 10 13
ATOM     13  C   PRO B  90      19.852   1.797  20.333  1.00 32.74 LIG 0.24  C 
ATOM     14  N   ALA B  91      19.152   2.809  19.811  1.00 33.34 LIG-0.34  N 
ATOM     15 H    ALA B  91      18.312   2.928  19.950  1.00 33.34 LIG 0.16  HD
ATOM     16 O    PRO B  90      21.042   1.601  20.082  1.00 32.61 LIG-0.27  OA
BRANCH 14 17
ATOM     17  CA  ALA B  91      19.764   3.825  18.938  1.00 34.79 LIG 0.18  C 
ATOM     18  CB  ALA B  91      20.970   4.488  19.638  1.00 34.67 LIG 0.04  C 
BRANCH 17 19
ATOM     19  C   ALA B  91      20.190   3.213  17.600  1.00 35.98 LIG 0.20  C 
ATOM     20 OXT  ALA B  91      19.714   2.137  17.201  1.00 36.84 LIG-0.65  OA
ATOM     21 O    ALA B  91      21.036   3.780  16.900  1.00 37.03 LIG-0.65  OA
ENDBRANCH 17 19
ENDBRANCH 14 17
ENDBRANCH 10 13
ENDBRANCH 5 6
BRANCH 5 22
ATOM     22  CB  LEU B  89      14.846  -0.018  21.708  1.00 30.14 LIG 0.04  C 
BRANCH 22 23
ATOM     23  CG  LEU B  89      13.526  -0.690  21.321  1.00 30.45 LIG-0.02  C 
ATOM     24  CD1 LEU B  89      13.460  -2.070  21.971  1.00 30.38 LIG 0.01  C 
ATOM     25  CD2 LEU B  89      12.334   0.184  21.715  1.00 30.79 LIG 0.01  C 
ENDBRANCH 22 23
ENDBRANCH 5 22
ENDBRANCH 3 5
BRANCH 1 26
ATOM     26  CA  PRO B  88      15.325   1.357  17.075  1.00 32.64 LIG 0.18  C 
ATOM     27  CB  PRO B  88      16.549   1.744  16.218  1.00 32.64 LIG 0.04  C 
ATOM     28  CG  PRO B  88      16.109   2.933  15.410  1.00 32.93 LIG 0.02  C 
ATOM     29  CD  PRO B  88      14.641   2.699  15.178  1.00 33.68 LIG 0.13  C 
ATOM     30  N   PRO B  88      14.209   2.066  16.437  1.00 34.22 LIG-0.34  N 
ATOM     31  C   GLY B  87      13.010   2.082  17.086  1.00 37.83 LIG 0.24  C 
ATOM     32 O    GLY B  87      12.840   1.556  18.190  1.00 36.70 LIG-0.27  OA
BRANCH 31 33
ATOM     33  CA  GLY B  87      11.838   2.787  16.413  1.00 40.95 LIG 0.23  C 
BRANCH 33 34
ATOM     34  N   GLY B  87      10.596   2.706  17.213  1.00 44.01 LIG-0.35  N 
ATOM     35 H    GLY B  87      10.455   1.939  17.576  1.00 44.01 LIG 0.16  HD
ATOM     36  C   PRO B  86       9.779   3.755  17.343  1.00 46.81 LIG 0.25  C 
ATOM     37 O    PRO B  86      10.015   4.844  16.826  1.00 48.58 LIG-0.27  OA
BRANCH 36 38
ATOM     38  CA  PRO B  86       8.504   3.606  18.191  1.00 48.28 LIG 0.35  C 
ATOM     39  N   PRO B  86       8.580   4.069  19.585  1.00 49.47 LIG 0.32  N 
ATOM     40  CD  PRO B  86       7.401   4.865  19.964  1.00 50.15 LIG 0.32  C 
ATOM     41  CG  PRO B  86       6.953   5.434  18.653  1.00 49.89 LIG 0.04  C 
ATOM     42  CB  PRO B  86       7.362   4.445  17.587  1.00 49.17 LIG 0.05  C 
ENDBRANCH 36 38
ENDBRANCH 33 34
ENDBRANCH 31 33
ENDBRANCH 1 26
TORSDOF 11
ENDMDL
MODEL 15
USER: ADFR SOLUTION from run 18
USER: SCORE 12.365058 LL:  -3.289 LR:  -9.890 RR:   0.000 FEB:  -6.609
USER: RMSD 3.412423
USER: SEED 17
USER: STATUS no improvement in best in 10 clusters for 5 generations
USER: GENES 13
USER: genes 0 Translation |==|  0.46537 0.41510 0.36736
USER: genes 1 Rotation |==|  0.28589 0.42431 0.12375 0.73846
USER: genes 2 Torsion [C]-N--CA-[CB] |==|  0.84551
USER: genes 3 Torsion [N]-CA--C-[N] |==|  0.30101
USER: genes 4 Torsion [N]-CA--C-[N] |==|  0.97416
USER: genes 5 Torsion [C]-N--CA-[CB] |==|  0.23822
USER: genes 6 Torsion [N]-CA--C-[OXT] |==|  0.87537
USER: genes 7 Torsion [N]-CA--CB-[CG] |==|  0.71434
USER: genes 8 Torsion [CA]-CB--CG-[CD2] |==|  0.56996
USER: genes 9 Torsion [O]-C--CA-[CB] |==|  0.58449
USER: genes 10 Torsion [N]-C--CA-[N] |==|  0.90605
USER: genes 11 Torsion [C]-CA--N-[C] |==|  0.74611
USER: genes 12 Torsion [N]-C--CA-[CB] |==|  0.22429
ROOT
ATOM      1  C   PRO B  88      16.804   2.580  16.512  1.00 31.41 LIG 0.24  C 
ATOM      2 O    PRO B  88      17.342   1.492  16.275  1.00 30.85 LIG-0.27  OA
ATOM      3  N   LEU B  89      16.804   3.158  17.709  1.00 29.89 LIG-0.35  N 
ATOM      4 H    LEU B  89      16.418   3.908  17.881  1.00 29.89 LIG 0.16  HD
ENDROOT
BRANCH 3 5
ATOM      5  CA  LEU B  89      17.474   2.551  18.850  1.00 30.22 LIG 0.18  C 
BRANCH 5 6
ATOM      6  C   LEU B  89      18.983   2.513  18.613  1.00 29.45 LIG 0.24  C 
ATOM      7 O    LEU B  89      19.459   1.731  17.794  1.00 27.07 LIG-0.27  OA
ATOM      8  N   PRO B  90      19.740   3.354  19.336  1.00 31.27 LIG-0.34  N 
ATOM      9  CD  PRO B  90      19.260   4.386  20.279  1.00 32.01 LIG 0.13  C 
ATOM     10  CA  PRO B  90      21.206   3.402  19.175  1.00 32.16 LIG 0.18  C 
ATOM     11  CG  PRO B  90      20.530   4.940  20.864  1.00 32.17 LIG 0.02  C 
ATOM     12  CB  PRO B  90      21.575   4.738  19.814  1.00 32.36 LIG 0.04  C 
BRANCH 10 13
ATOM     13  C   PRO B  90      21.962   2.252  19.856  1.00 32.74 LIG 0.24  C 
ATOM     14  N   ALA B  91      21.267   1.450  20.669  1.00 33.34 LIG-0.34  N 
ATOM     15 H    ALA B  91      20.437   1.569  20.859  1.00 33.34 LIG 0.16  HD
ATOM     16 O    PRO B  90      23.165   2.108  19.634  1.00 32.61 LIG-0.27  OA
BRANCH 14 17
ATOM     17  CA  ALA B  91      21.869   0.273  21.319  1.00 34.79 LIG 0.18  C 
ATOM     18  CB  ALA B  91      22.561   0.676  22.639  1.00 34.67 LIG 0.04  C 
BRANCH 17 19
ATOM     19  C   ALA B  91      20.816  -0.810  21.573  1.00 35.98 LIG 0.20  C 
ATOM     20 OXT  ALA B  91      19.701  -0.529  22.045  1.00 36.84 LIG-0.65  OA
ATOM     21 O    ALA B  91      21.072  -1.993  21.326  1.00 37.03 LIG-0.65  OA
ENDBRANCH 17 19
ENDBRANCH 14 17
ENDBRANCH 10 13
ENDBRANCH 5 6
BRANCH 5 22
ATOM     22  CB  LEU B  89      16.960   1.129  19.091  1.00 30.14 LIG 0.04  C 
BRANCH 22 23
ATOM     23  CG  LEU B  89      15.971   0.908  20.239  1.00 30.45 LIG-0.02  C 
ATOM     24  CD1 LEU B  89      14.569   1.285  19.768  1.00 30.38 LIG 0.01  C 
ATOM     25  CD2 LEU B  89      16.035  -0.535  20.743  1.00 30.79 LIG 0.01  C 
ENDBRANCH 22 23
ENDBRANCH 5 22
ENDBRANCH 3 5
BRANCH 1 26
ATOM     26  CA  PRO B  88      16.114   3.352  15.395  1.00 32.64 LIG 0.18  C 
ATOM     27  CB  PRO B  88      16.191   4.874  15.642  1.00 32.64 LIG 0.04  C 
ATOM     28  CG  PRO B  88      14.817   5.273  16.102  1.00 32.93 LIG 0.02  C 
ATOM     29  CD  PRO B  88      13.897   4.327  15.379  1.00 33.68 LIG 0.13  C 
ATOM     30  N   PRO B  88      14.673   3.075  15.351  1.00 34.22 LIG-0.34  N 
ATOM     31  C   GLY B  87      14.275   1.771  15.341  1.00 37.83 LIG 0.24  C 
ATOM     32 O    GLY B  87      15.071   0.828  15.400  1.00 36.70 LIG-0.27  OA
BRANCH 31 33
ATOM     33  CA  GLY B  87      12.782   1.475  15.261  1.00 40.95 LIG 0.23  C 
BRANCH 33 34
ATOM     34  N   GLY B  87      11.968   2.488  15.969  1.00 44.01 LIG-0.35  N 
ATOM     35 H    GLY B  87      11.740   3.163  15.487  1.00 44.01 LIG 0.16  HD
ATOM     36  C   PRO B  86      11.631   2.340  17.253  1.00 46.81 LIG 0.25  C 
ATOM     37 O    PRO B  86      11.958   1.356  17.913  1.00 48.58 LIG-0.27  OA
BRANCH 36 38
ATOM     38  CA  PRO B  86      10.781   3.428  17.932  1.00 48.28 LIG 0.35  C 
ATOM     39  N   PRO B  86      11.061   4.820  17.546  1.00 49.47 LIG 0.32  N 
ATOM     40  CD  PRO B  86       9.824   5.579  17.296  1.00 50.15 LIG 0.32  C 
ATOM     41  CG  PRO B  86       8.861   4.510  16.882  1.00 49.89 LIG 0.04  C 
ATOM     42  CB  PRO B  86       9.294   3.240  17.576  1.00 49.17 LIG 0.05  C 
ENDBRANCH 36 38
ENDBRANCH 33 34
ENDBRANCH 31 33
ENDBRANCH 1 26
TORSDOF 11
ENDMDL
MODEL 16
USER: ADFR SOLUTION from run 122
USER: SCORE 12.793337 LL:  -3.523 LR:  -9.881 RR:   0.000 FEB:  -6.600
USER: RMSD 10.247401
USER: SEED 121
USER: STATUS no improvement in best in 8 clusters for 5 generations
USER: GENES 13
USER: genes 0 Translation |==|  0.35082 0.52873 0.36985
USER: genes 1 Rotation |==|  0.49917 0.16638 0.67544 0.82851
USER: genes 2 Torsion [C]-N--CA-[CB] |==|  0.85868
USER: genes 3 Torsion [N]-CA--C-[N] |==|  0.35984
USER: genes 4 Torsion [N]-CA--C-[N] |==|  0.56913
USER: genes 5 Torsion [C]-N--CA-[CB] |==|  0.83496
USER: genes 6 Torsion [N]-CA--C-[OXT] |==|  0.77947
USER: genes 7 Torsion [N]-CA--CB-[CG] |==|  0.34729
USER: genes 8 Torsion [CA]-CB--CG-[CD2] |==|  0.57186
USER: genes 9 Torsion [O]-C--CA-[CB] |==|  0.72064
USER: genes 10 Torsion [N]-C--CA-[N] |==|  0.81111
USER: genes 11 Torsion [C]-CA--N-[C] |==|  0.82745
USER: genes 12 Torsion [N]-C--CA-[CB] |==|  0.59910
ROOT
ATOM      1  C   PRO B  88      14.226   4.455  16.554  1.00 31.41 LIG 0.24  C 
ATOM      2 O    PRO B  88      14.194   5.668  16.314  1.00 30.85 LIG-0.27  OA
ATOM      3  N   LEU B  89      13.435   3.855  17.437  1.00 29.89 LIG-0.35  N 
ATOM      4 H    LEU B  89      13.466   3.014  17.616  1.00 29.89 LIG 0.16  HD
ENDROOT
BRANCH 3 5
ATOM      5  CA  LEU B  89      12.431   4.595  18.189  1.00 30.22 LIG 0.18  C 
BRANCH 5 6
ATOM      6  C   LEU B  89      11.296   5.029  17.261  1.00 29.45 LIG 0.24  C 
ATOM      7 O    LEU B  89      11.547   5.613  16.211  1.00 27.07 LIG-0.27  OA
ATOM      8  N   PRO B  90      10.043   4.749  17.653  1.00 31.27 LIG-0.34  N 
ATOM      9  CD  PRO B  90       9.641   3.981  18.851  1.00 32.01 LIG 0.13  C 
ATOM     10  CA  PRO B  90       8.878   5.117  16.826  1.00 32.16 LIG 0.18  C 
ATOM     11  CG  PRO B  90       8.140   4.076  18.838  1.00 32.17 LIG 0.02  C 
ATOM     12  CB  PRO B  90       7.764   4.247  17.401  1.00 32.36 LIG 0.04  C 
BRANCH 10 13
ATOM     13  C   PRO B  90       8.490   6.601  16.891  1.00 32.74 LIG 0.24  C 
ATOM     14  N   ALA B  91       7.222   6.923  16.618  1.00 33.34 LIG-0.34  N 
ATOM     15 H    ALA B  91       6.629   6.352  16.369  1.00 33.34 LIG 0.16  HD
ATOM     16 O    PRO B  90       9.347   7.434  17.191  1.00 32.61 LIG-0.27  OA
BRANCH 14 17
ATOM     17  CA  ALA B  91       6.718   8.304  16.720  1.00 34.79 LIG 0.18  C 
ATOM     18  CB  ALA B  91       6.893   8.841  18.156  1.00 34.67 LIG 0.04  C 
BRANCH 17 19
ATOM     19  C   ALA B  91       7.424   9.219  15.715  1.00 35.98 LIG 0.20  C 
ATOM     20 OXT  ALA B  91       8.560   9.670  15.937  1.00 36.84 LIG-0.65  OA
ATOM     21 O    ALA B  91       6.857   9.540  14.664  1.00 37.03 LIG-0.65  OA
ENDBRANCH 17 19
ENDBRANCH 14 17
ENDBRANCH 10 13
ENDBRANCH 5 6
BRANCH 5 22
ATOM     22  CB  LEU B  89      13.047   5.830  18.852  1.00 30.14 LIG 0.04  C 
BRANCH 22 23
ATOM     23  CG  LEU B  89      12.411   7.192  18.562  1.00 30.45 LIG-0.02  C 
ATOM     24  CD1 LEU B  89      11.200   7.382  19.473  1.00 30.38 LIG 0.01  C 
ATOM     25  CD2 LEU B  89      13.433   8.318  18.729  1.00 30.79 LIG 0.01  C 
ENDBRANCH 22 23
ENDBRANCH 5 22
ENDBRANCH 3 5
BRANCH 1 26
ATOM     26  CA  PRO B  88      15.192   3.552  15.797  1.00 32.64 LIG 0.18  C 
ATOM     27  CB  PRO B  88      14.470   2.792  14.664  1.00 32.64 LIG 0.04  C 
ATOM     28  CG  PRO B  88      14.313   1.384  15.166  1.00 32.93 LIG 0.02  C 
ATOM     29  CD  PRO B  88      15.524   1.164  16.032  1.00 33.68 LIG 0.13  C 
ATOM     30  N   PRO B  88      15.723   2.485  16.654  1.00 34.22 LIG-0.34  N 
ATOM     31  C   GLY B  87      16.252   2.840  17.859  1.00 37.83 LIG 0.24  C 
ATOM     32 O    GLY B  87      16.271   4.006  18.265  1.00 36.70 LIG-0.27  OA
BRANCH 31 33
ATOM     33  CA  GLY B  87      16.837   1.741  18.740  1.00 40.95 LIG 0.23  C 
BRANCH 33 34
ATOM     34  N   GLY B  87      15.800   0.820  19.255  1.00 44.01 LIG-0.35  N 
ATOM     35 H    GLY B  87      15.889   0.004  18.999  1.00 44.01 LIG 0.16  HD
ATOM     36  C   PRO B  86      14.818   1.250  20.053  1.00 46.81 LIG 0.25  C 
ATOM     37 O    PRO B  86      14.727   2.421  20.416  1.00 48.58 LIG-0.27  OA
BRANCH 36 38
ATOM     38  CA  PRO B  86      13.772   0.242  20.557  1.00 48.28 LIG 0.35  C 
ATOM     39  N   PRO B  86      13.981  -0.307  21.906  1.00 49.47 LIG 0.32  N 
ATOM     40  CD  PRO B  86      12.738  -0.315  22.694  1.00 50.15 LIG 0.32  C 
ATOM     41  CG  PRO B  86      11.958   0.811  22.089  1.00 49.89 LIG 0.04  C 
ATOM     42  CB  PRO B  86      12.387   0.911  20.644  1.00 49.17 LIG 0.05  C 
ENDBRANCH 36 38
ENDBRANCH 33 34
ENDBRANCH 31 33
ENDBRANCH 1 26
TORSDOF 11
ENDMDL
MODEL 17
USER: ADFR SOLUTION from run 185
USER: SCORE 11.766924 LL:  -2.934 LR:  -9.869 RR:   0.000 FEB:  -6.588
USER: RMSD 10.211660
USER: SEED 184
USER: STATUS no improvement in best in 16 clusters for 5 generations
USER: GENES 13
USER: genes 0 Translation |==|  0.35696 0.55279 0.37323
USER: genes 1 Rotation |==|  0.62026 0.69051 0.05403 0.51883
USER: genes 2 Torsion [C]-N--CA-[CB] |==|  0.23109
USER: genes 3 Torsion [N]-CA--C-[N] |==|  0.86787
USER: genes 4 Torsion [N]-CA--C-[N] |==|  0.13951
USER: genes 5 Torsion [C]-N--CA-[CB] |==|  0.18084
USER: genes 6 Torsion [N]-CA--C-[OXT] |==|  0.04013
USER: genes 7 Torsion [N]-CA--CB-[CG] |==|  0.73344
USER: genes 8 Torsion [CA]-CB--CG-[CD2] |==|  0.28451
USER: genes 9 Torsion [O]-C--CA-[CB] |==|  0.11628
USER: genes 10 Torsion [N]-C--CA-[N] |==|  0.05489
USER: genes 11 Torsion [C]-CA--N-[C] |==|  0.66111
USER: genes 12 Torsion [N]-C--CA-[CB] |==|  0.70440
ROOT
ATOM      1  C   PRO B  88      14.365   4.852  16.609  1.00 31.41 LIG 0.24  C 
ATOM      2 O    PRO B  88      14.536   4.550  15.422  1.00 30.85 LIG-0.27  OA
ATOM      3  N   LEU B  89      13.277   4.532  17.303  1.00 29.89 LIG-0.35  N 
ATOM      4 H    LEU B  89      13.148   4.753  18.124  1.00 29.89 LIG 0.16  HD
ENDROOT
BRANCH 3 5
ATOM      5  CA  LEU B  89      12.192   3.762  16.710  1.00 30.22 LIG 0.18  C 
BRANCH 5 6
ATOM      6  C   LEU B  89      10.884   4.043  17.449  1.00 29.45 LIG 0.24  C 
ATOM      7 O    LEU B  89       9.863   4.303  16.819  1.00 27.07 LIG-0.27  OA
ATOM      8  N   PRO B  90      10.916   3.998  18.791  1.00 31.27 LIG-0.34  N 
ATOM      9  CD  PRO B  90      12.066   3.614  19.636  1.00 32.01 LIG 0.13  C 
ATOM     10  CA  PRO B  90       9.705   4.244  19.598  1.00 32.16 LIG 0.18  C 
ATOM     11  CG  PRO B  90      11.563   3.845  21.034  1.00 32.17 LIG 0.02  C 
ATOM     12  CB  PRO B  90      10.081   3.667  20.960  1.00 32.36 LIG 0.04  C 
BRANCH 10 13
ATOM     13  C   PRO B  90       9.315   5.724  19.728  1.00 32.74 LIG 0.24  C 
ATOM     14  N   ALA B  91       9.240   6.447  18.607  1.00 33.34 LIG-0.34  N 
ATOM     15 H    ALA B  91       9.438   6.139  17.829  1.00 33.34 LIG 0.16  HD
ATOM     16 O    PRO B  90       9.085   6.189  20.846  1.00 32.61 LIG-0.27  OA
BRANCH 14 17
ATOM     17  CA  ALA B  91       8.805   7.854  18.602  1.00 34.79 LIG 0.18  C 
ATOM     18  CB  ALA B  91       9.814   8.736  19.368  1.00 34.67 LIG 0.04  C 
BRANCH 17 19
ATOM     19  C   ALA B  91       8.623   8.366  17.170  1.00 35.98 LIG 0.20  C 
ATOM     20 OXT  ALA B  91       8.571   7.584  16.206  1.00 36.84 LIG-0.65  OA
ATOM     21 O    ALA B  91       8.542   9.580  16.951  1.00 37.03 LIG-0.65  OA
ENDBRANCH 17 19
ENDBRANCH 14 17
ENDBRANCH 10 13
ENDBRANCH 5 6
BRANCH 5 22
ATOM     22  CB  LEU B  89      12.495   2.262  16.763  1.00 30.14 LIG 0.04  C 
BRANCH 22 23
ATOM     23  CG  LEU B  89      13.116   1.611  15.525  1.00 30.45 LIG-0.02  C 
ATOM     24  CD1 LEU B  89      12.828   2.484  14.305  1.00 30.38 LIG 0.01  C 
ATOM     25  CD2 LEU B  89      14.616   1.383  15.722  1.00 30.79 LIG 0.01  C 
ENDBRANCH 22 23
ENDBRANCH 5 22
ENDBRANCH 3 5
BRANCH 1 26
ATOM     26  CA  PRO B  88      15.446   5.610  17.370  1.00 32.64 LIG 0.18  C 
ATOM     27  CB  PRO B  88      16.058   6.726  16.498  1.00 32.64 LIG 0.04  C 
ATOM     28  CG  PRO B  88      17.404   6.209  16.075  1.00 32.93 LIG 0.02  C 
ATOM     29  CD  PRO B  88      17.850   5.353  17.230  1.00 33.68 LIG 0.13  C 
ATOM     30  N   PRO B  88      16.589   4.748  17.693  1.00 34.22 LIG-0.34  N 
ATOM     31  C   GLY B  87      16.335   3.552  18.296  1.00 37.83 LIG 0.24  C 
ATOM     32 O    GLY B  87      15.191   3.159  18.548  1.00 36.70 LIG-0.27  OA
BRANCH 31 33
ATOM     33  CA  GLY B  87      17.520   2.667  18.666  1.00 40.95 LIG 0.23  C 
BRANCH 33 34
ATOM     34  N   GLY B  87      18.789   3.424  18.737  1.00 44.01 LIG-0.35  N 
ATOM     35 H    GLY B  87      18.783   4.077  19.297  1.00 44.01 LIG 0.16  HD
ATOM     36  C   PRO B  86      19.841   3.097  17.981  1.00 46.81 LIG 0.25  C 
ATOM     37 O    PRO B  86      19.824   2.148  17.201  1.00 48.58 LIG-0.27  OA
BRANCH 36 38
ATOM     38  CA  PRO B  86      21.132   3.923  18.103  1.00 48.28 LIG 0.35  C 
ATOM     39  N   PRO B  86      22.394   3.169  18.167  1.00 49.47 LIG 0.32  N 
ATOM     40  CD  PRO B  86      23.426   3.752  17.293  1.00 50.15 LIG 0.32  C 
ATOM     41  CG  PRO B  86      22.614   4.423  16.229  1.00 49.89 LIG 0.04  C 
ATOM     42  CB  PRO B  86      21.306   4.826  16.868  1.00 49.17 LIG 0.05  C 
ENDBRANCH 36 38
ENDBRANCH 33 34
ENDBRANCH 31 33
ENDBRANCH 1 26
TORSDOF 11
ENDMDL
MODEL 18
USER: ADFR SOLUTION from run 114
USER: SCORE 12.352501 LL:  -2.887 LR:  -9.818 RR:   0.000 FEB:  -6.537
USER: RMSD 5.212158
USER: SEED 113
USER: STATUS no improvement in best in 10 clusters for 5 generations
USER: GENES 13
USER: genes 0 Translation |==|  0.27694 0.42932 0.47539
USER: genes 1 Rotation |==|  0.08052 0.67466 0.34543 0.64015
USER: genes 2 Torsion [C]-N--CA-[CB] |==|  0.17141
USER: genes 3 Torsion [N]-CA--C-[N] |==|  0.13040
USER: genes 4 Torsion [N]-CA--C-[N] |==|  0.80566
USER: genes 5 Torsion [C]-N--CA-[CB] |==|  0.21920
USER: genes 6 Torsion [N]-CA--C-[OXT] |==|  0.66836
USER: genes 7 Torsion [N]-CA--CB-[CG] |==|  0.14912
USER: genes 8 Torsion [CA]-CB--CG-[CD2] |==|  0.63754
USER: genes 9 Torsion [O]-C--CA-[CB] |==|  0.26663
USER: genes 10 Torsion [N]-C--CA-[N] |==|  0.12755
USER: genes 11 Torsion [C]-CA--N-[C] |==|  0.18012
USER: genes 12 Torsion [N]-C--CA-[CB] |==|  0.64480
ROOT
ATOM      1  C   PRO B  88      12.564   2.815  18.295  1.00 31.41 LIG 0.24  C 
ATOM      2 O    PRO B  88      11.933   1.776  18.062  1.00 30.85 LIG-0.27  OA
ATOM      3  N   LEU B  89      13.879   2.931  18.139  1.00 29.89 LIG-0.35  N 
ATOM      4 H    LEU B  89      14.322   3.647  18.313  1.00 29.89 LIG 0.16  HD
ENDROOT
BRANCH 3 5
ATOM      5  CA  LEU B  89      14.690   1.826  17.646  1.00 30.22 LIG 0.18  C 
BRANCH 5 6
ATOM      6  C   LEU B  89      16.166   2.222  17.637  1.00 29.45 LIG 0.24  C 
ATOM      7 O    LEU B  89      16.861   1.988  16.653  1.00 27.07 LIG-0.27  OA
ATOM      8  N   PRO B  90      16.649   2.816  18.741  1.00 31.27 LIG-0.34  N 
ATOM      9  CD  PRO B  90      15.880   3.215  19.938  1.00 32.01 LIG 0.13  C 
ATOM     10  CA  PRO B  90      18.058   3.246  18.830  1.00 32.16 LIG 0.18  C 
ATOM     11  CG  PRO B  90      16.938   3.727  20.876  1.00 32.17 LIG 0.02  C 
ATOM     12  CB  PRO B  90      18.041   4.226  19.999  1.00 32.36 LIG 0.04  C 
BRANCH 10 13
ATOM     13  C   PRO B  90      19.057   2.109  19.093  1.00 32.74 LIG 0.24  C 
ATOM     14  N   ALA B  91      19.039   1.536  20.299  1.00 33.34 LIG-0.34  N 
ATOM     15 H    ALA B  91      18.531   1.796  20.942  1.00 33.34 LIG 0.16  HD
ATOM     16 O    PRO B  90      19.829   1.768  18.195  1.00 32.61 LIG-0.27  OA
BRANCH 14 17
ATOM     17  CA  ALA B  91      19.899   0.390  20.642  1.00 34.79 LIG 0.18  C 
ATOM     18  CB  ALA B  91      21.336   0.863  20.950  1.00 34.67 LIG 0.04  C 
BRANCH 17 19
ATOM     19  C   ALA B  91      19.325  -0.391  21.827  1.00 35.98 LIG 0.20  C 
ATOM     20 OXT  ALA B  91      19.962  -0.519  22.887  1.00 36.84 LIG-0.65  OA
ATOM     21 O    ALA B  91      18.215  -0.926  21.737  1.00 37.03 LIG-0.65  OA
ENDBRANCH 17 19
ENDBRANCH 14 17
ENDBRANCH 10 13
ENDBRANCH 5 6
BRANCH 5 22
ATOM     22  CB  LEU B  89      14.262   1.424  16.232  1.00 30.14 LIG 0.04  C 
BRANCH 22 23
ATOM     23  CG  LEU B  89      14.213   2.515  15.160  1.00 30.45 LIG-0.02  C 
ATOM     24  CD1 LEU B  89      15.403   2.343  14.219  1.00 30.38 LIG 0.01  C 
ATOM     25  CD2 LEU B  89      12.881   2.481  14.408  1.00 30.79 LIG 0.01  C 
ENDBRANCH 22 23
ENDBRANCH 5 22
ENDBRANCH 3 5
BRANCH 1 26
ATOM     26  CA  PRO B  88      11.832   4.066  18.763  1.00 32.64 LIG 0.18  C 
ATOM     27  CB  PRO B  88      11.866   4.187  20.301  1.00 32.64 LIG 0.04  C 
ATOM     28  CG  PRO B  88      10.489   3.800  20.762  1.00 32.93 LIG 0.02  C 
ATOM     29  CD  PRO B  88       9.585   4.257  19.649  1.00 33.68 LIG 0.13  C 
ATOM     30  N   PRO B  88      10.399   4.008  18.446  1.00 34.22 LIG-0.34  N 
ATOM     31  C   GLY B  87      10.042   3.700  17.167  1.00 37.83 LIG 0.24  C 
ATOM     32 O    GLY B  87      10.867   3.440  16.285  1.00 36.70 LIG-0.27  OA
BRANCH 31 33
ATOM     33  CA  GLY B  87       8.557   3.672  16.822  1.00 40.95 LIG 0.23  C 
BRANCH 33 34
ATOM     34  N   GLY B  87       7.833   4.848  17.353  1.00 44.01 LIG-0.35  N 
ATOM     35 H    GLY B  87       7.242   4.663  17.950  1.00 44.01 LIG 0.16  HD
ATOM     36  C   PRO B  86       8.096   6.084  16.919  1.00 46.81 LIG 0.25  C 
ATOM     37 O    PRO B  86       8.958   6.318  16.075  1.00 48.58 LIG-0.27  OA
BRANCH 36 38
ATOM     38  CA  PRO B  86       7.310   7.265  17.512  1.00 48.28 LIG 0.35  C 
ATOM     39  N   PRO B  86       8.077   8.235  18.309  1.00 49.47 LIG 0.32  N 
ATOM     40  CD  PRO B  86       7.732   9.624  17.962  1.00 50.15 LIG 0.32  C 
ATOM     41  CG  PRO B  86       7.275   9.505  16.541  1.00 49.89 LIG 0.04  C 
ATOM     42  CB  PRO B  86       6.699   8.117  16.384  1.00 49.17 LIG 0.05  C 
ENDBRANCH 36 38
ENDBRANCH 33 34
ENDBRANCH 31 33
ENDBRANCH 1 26
TORSDOF 11
ENDMDL
MODEL 19
USER: ADFR SOLUTION from run 199
USER: SCORE 12.200478 LL:  -2.763 LR:  -9.791 RR:   0.000 FEB:  -6.510
USER: RMSD 4.458975
USER: SEED 198
USER: STATUS no improvement in best in 9 clusters for 5 generations
USER: GENES 13
USER: genes 0 Translation |==|  0.42157 0.34798 0.43146
USER: genes 1 Rotation |==|  0.83015 0.65172 0.81681 0.63272
USER: genes 2 Torsion [C]-N--CA-[CB] |==|  0.84820
USER: genes 3 Torsion [N]-CA--C-[N] |==|  0.38706
USER: genes 4 Torsion [N]-CA--C-[N] |==|  0.73490
USER: genes 5 Torsion [C]-N--CA-[CB] |==|  0.80099
USER: genes 6 Torsion [N]-CA--C-[OXT] |==|  0.21114
USER: genes 7 Torsion [N]-CA--CB-[CG] |==|  0.81749
USER: genes 8 Torsion [CA]-CB--CG-[CD2] |==|  0.29522
USER: genes 9 Torsion [O]-C--CA-[CB] |==|  0.56304
USER: genes 10 Torsion [N]-C--CA-[N] |==|  0.45556
USER: genes 11 Torsion [C]-CA--N-[C] |==|  0.42819
USER: genes 12 Torsion [N]-C--CA-[CB] |==|  0.77755
ROOT
ATOM      1  C   PRO B  88      15.818   1.473  17.570  1.00 31.41 LIG 0.24  C 
ATOM      2 O    PRO B  88      15.328   1.013  18.609  1.00 30.85 LIG-0.27  OA
ATOM      3  N   LEU B  89      16.862   2.295  17.547  1.00 29.89 LIG-0.35  N 
ATOM      4 H    LEU B  89      17.196   2.628  16.827  1.00 29.89 LIG 0.16  HD
ENDROOT
BRANCH 3 5
ATOM      5  CA  LEU B  89      17.538   2.706  18.770  1.00 30.22 LIG 0.18  C 
BRANCH 5 6
ATOM      6  C   LEU B  89      18.228   1.505  19.417  1.00 29.45 LIG 0.24  C 
ATOM      7 O    LEU B  89      17.665   0.415  19.450  1.00 27.07 LIG-0.27  OA
ATOM      8  N   PRO B  90      19.448   1.708  19.939  1.00 31.27 LIG-0.34  N 
ATOM      9  CD  PRO B  90      20.242   2.953  19.876  1.00 32.01 LIG 0.13  C 
ATOM     10  CA  PRO B  90      20.204   0.612  20.577  1.00 32.16 LIG 0.18  C 
ATOM     11  CG  PRO B  90      21.456   2.634  20.705  1.00 32.17 LIG 0.02  C 
ATOM     12  CB  PRO B  90      21.630   1.153  20.605  1.00 32.36 LIG 0.04  C 
BRANCH 10 13
ATOM     13  C   PRO B  90      19.735   0.254  21.995  1.00 32.74 LIG 0.24  C 
ATOM     14  N   ALA B  91      20.383   0.814  23.021  1.00 33.34 LIG-0.34  N 
ATOM     15 H    ALA B  91      21.068   1.325  22.929  1.00 33.34 LIG 0.16  HD
ATOM     16 O    PRO B  90      18.791  -0.523  22.138  1.00 32.61 LIG-0.27  OA
BRANCH 14 17
ATOM     17  CA  ALA B  91      19.977   0.602  24.421  1.00 34.79 LIG 0.18  C 
ATOM     18  CB  ALA B  91      18.661   1.350  24.724  1.00 34.67 LIG 0.04  C 
BRANCH 17 19
ATOM     19  C   ALA B  91      19.830  -0.891  24.729  1.00 35.98 LIG 0.20  C 
ATOM     20 OXT  ALA B  91      20.824  -1.617  24.899  1.00 36.84 LIG-0.65  OA
ATOM     21 O    ALA B  91      18.707  -1.402  24.796  1.00 37.03 LIG-0.65  OA
ENDBRANCH 17 19
ENDBRANCH 14 17
ENDBRANCH 10 13
ENDBRANCH 5 6
BRANCH 5 22
ATOM     22  CB  LEU B  89      16.545   3.317  19.762  1.00 30.14 LIG 0.04  C 
BRANCH 22 23
ATOM     23  CG  LEU B  89      15.867   4.635  19.379  1.00 30.45 LIG-0.02  C 
ATOM     24  CD1 LEU B  89      16.654   5.290  18.247  1.00 30.38 LIG 0.01  C 
ATOM     25  CD2 LEU B  89      14.403   4.404  18.997  1.00 30.79 LIG 0.01  C 
ENDBRANCH 22 23
ENDBRANCH 5 22
ENDBRANCH 3 5
BRANCH 1 26
ATOM     26  CA  PRO B  88      15.244   1.080  16.215  1.00 32.64 LIG 0.18  C 
ATOM     27  CB  PRO B  88      16.286   1.276  15.093  1.00 32.64 LIG 0.04  C 
ATOM     28  CG  PRO B  88      15.859   2.520  14.366  1.00 32.93 LIG 0.02  C 
ATOM     29  CD  PRO B  88      14.358   2.516  14.477  1.00 33.68 LIG 0.13  C 
ATOM     30  N   PRO B  88      14.133   1.954  15.820  1.00 34.22 LIG-0.34  N 
ATOM     31  C   GLY B  87      13.129   2.153  16.721  1.00 37.83 LIG 0.24  C 
ATOM     32 O    GLY B  87      13.136   1.657  17.852  1.00 36.70 LIG-0.27  OA
BRANCH 31 33
ATOM     33  CA  GLY B  87      11.955   3.033  16.306  1.00 40.95 LIG 0.23  C 
BRANCH 33 34
ATOM     34  N   GLY B  87      10.784   2.867  17.194  1.00 44.01 LIG-0.35  N 
ATOM     35 H    GLY B  87      10.742   2.104  17.590  1.00 44.01 LIG 0.16  HD
ATOM     36  C   PRO B  86       9.881   3.840  17.350  1.00 46.81 LIG 0.25  C 
ATOM     37 O    PRO B  86       9.977   4.926  16.783  1.00 48.58 LIG-0.27  OA
BRANCH 36 38
ATOM     38  CA  PRO B  86       8.687   3.606  18.290  1.00 48.28 LIG 0.35  C 
ATOM     39  N   PRO B  86       7.963   4.802  18.748  1.00 49.47 LIG 0.32  N 
ATOM     40  CD  PRO B  86       6.504   4.625  18.665  1.00 50.15 LIG 0.32  C 
ATOM     41  CG  PRO B  86       6.356   3.621  17.565  1.00 49.89 LIG 0.04  C 
ATOM     42  CB  PRO B  86       7.605   2.771  17.579  1.00 49.17 LIG 0.05  C 
ENDBRANCH 36 38
ENDBRANCH 33 34
ENDBRANCH 31 33
ENDBRANCH 1 26
TORSDOF 11
ENDMDL
MODEL 20
USER: ADFR SOLUTION from run 150
USER: SCORE 11.949430 LL:  -3.173 LR:  -9.763 RR:   0.000 FEB:  -6.482
USER: RMSD 5.871850
USER: SEED 149
USER: STATUS no improvement in best in 28 clusters for 5 generations
USER: GENES 13
USER: genes 0 Translation |==|  0.58842 0.45619 0.47132
USER: genes 1 Rotation |==|  0.15920 0.53444 0.39408 0.84849
USER: genes 2 Torsion [C]-N--CA-[CB] |==|  0.81261
USER: genes 3 Torsion [N]-CA--C-[N] |==|  0.19808
USER: genes 4 Torsion [N]-CA--C-[N] |==|  0.64872
USER: genes 5 Torsion [C]-N--CA-[CB] |==|  0.27757
USER: genes 6 Torsion [N]-CA--C-[OXT] |==|  0.77776
USER: genes 7 Torsion [N]-CA--CB-[CG] |==|  0.59193
USER: genes 8 Torsion [CA]-CB--CG-[CD2] |==|  0.86944
USER: genes 9 Torsion [O]-C--CA-[CB] |==|  0.17506
USER: genes 10 Torsion [N]-C--CA-[N] |==|  0.07775
USER: genes 11 Torsion [C]-CA--N-[C] |==|  0.66313
USER: genes 12 Torsion [N]-C--CA-[CB] |==|  0.01047
ROOT
ATOM      1  C   PRO B  88      19.573   3.258  18.228  1.00 31.41 LIG 0.24  C 
ATOM      2 O    PRO B  88      19.887   2.581  17.242  1.00 30.85 LIG-0.27  OA
ATOM      3  N   LEU B  89      20.427   4.019  18.904  1.00 29.89 LIG-0.35  N 
ATOM      4 H    LEU B  89      20.214   4.480  19.599  1.00 29.89 LIG 0.16  HD
ENDROOT
BRANCH 3 5
ATOM      5  CA  LEU B  89      21.824   4.134  18.510  1.00 30.22 LIG 0.18  C 
BRANCH 5 6
ATOM      6  C   LEU B  89      21.923   4.546  17.042  1.00 29.45 LIG 0.24  C 
ATOM      7 O    LEU B  89      22.312   3.741  16.200  1.00 27.07 LIG-0.27  OA
ATOM      8  N   PRO B  90      21.577   5.806  16.733  1.00 31.27 LIG-0.34  N 
ATOM      9  CD  PRO B  90      21.020   6.820  17.653  1.00 32.01 LIG 0.13  C 
ATOM     10  CA  PRO B  90      21.628   6.300  15.344  1.00 32.16 LIG 0.18  C 
ATOM     11  CG  PRO B  90      20.927   8.053  16.796  1.00 32.17 LIG 0.02  C 
ATOM     12  CB  PRO B  90      20.761   7.555  15.397  1.00 32.36 LIG 0.04  C 
BRANCH 10 13
ATOM     13  C   PRO B  90      23.037   6.639  14.837  1.00 32.74 LIG 0.24  C 
ATOM     14  N   ALA B  91      23.234   7.857  14.324  1.00 33.34 LIG-0.34  N 
ATOM     15 H    ALA B  91      22.609   8.439  14.226  1.00 33.34 LIG 0.16  HD
ATOM     16 O    PRO B  90      23.927   5.791  14.921  1.00 32.61 LIG-0.27  OA
BRANCH 14 17
ATOM     17  CA  ALA B  91      24.559   8.319  13.874  1.00 34.79 LIG 0.18  C 
ATOM     18  CB  ALA B  91      24.683   8.203  12.340  1.00 34.67 LIG 0.04  C 
BRANCH 17 19
ATOM     19  C   ALA B  91      24.819   9.760  14.326  1.00 35.98 LIG 0.20  C 
ATOM     20 OXT  ALA B  91      24.338  10.727  13.712  1.00 36.84 LIG-0.65  OA
ATOM     21 O    ALA B  91      25.533   9.981  15.310  1.00 37.03 LIG-0.65  OA
ENDBRANCH 17 19
ENDBRANCH 14 17
ENDBRANCH 10 13
ENDBRANCH 5 6
BRANCH 5 22
ATOM     22  CB  LEU B  89      22.560   2.807  18.717  1.00 30.14 LIG 0.04  C 
BRANCH 22 23
ATOM     23  CG  LEU B  89      24.037   2.860  19.115  1.00 30.45 LIG-0.02  C 
ATOM     24  CD1 LEU B  89      24.625   1.453  19.040  1.00 30.38 LIG 0.01  C 
ATOM     25  CD2 LEU B  89      24.804   3.847  18.232  1.00 30.79 LIG 0.01  C 
ENDBRANCH 22 23
ENDBRANCH 5 22
ENDBRANCH 3 5
BRANCH 1 26
ATOM     26  CA  PRO B  88      18.129   3.275  18.715  1.00 32.64 LIG 0.18  C 
ATOM     27  CB  PRO B  88      17.683   1.872  19.176  1.00 32.64 LIG 0.04  C 
ATOM     28  CG  PRO B  88      16.794   1.356  18.081  1.00 32.93 LIG 0.02  C 
ATOM     29  CD  PRO B  88      16.129   2.589  17.532  1.00 33.68 LIG 0.13  C 
ATOM     30  N   PRO B  88      17.194   3.603  17.632  1.00 34.22 LIG-0.34  N 
ATOM     31  C   GLY B  87      17.453   4.711  16.880  1.00 37.83 LIG 0.24  C 
ATOM     32 O    GLY B  87      18.450   5.419  17.053  1.00 36.70 LIG-0.27  OA
BRANCH 31 33
ATOM     33  CA  GLY B  87      16.468   5.077  15.776  1.00 40.95 LIG 0.23  C 
BRANCH 33 34
ATOM     34  N   GLY B  87      15.094   4.616  16.071  1.00 44.01 LIG-0.35  N 
ATOM     35 H    GLY B  87      14.762   4.926  16.801  1.00 44.01 LIG 0.16  HD
ATOM     36  C   PRO B  86      14.445   3.783  15.251  1.00 46.81 LIG 0.25  C 
ATOM     37 O    PRO B  86      14.939   3.368  14.205  1.00 48.58 LIG-0.27  OA
BRANCH 36 38
ATOM     38  CA  PRO B  86      13.017   3.342  15.613  1.00 48.28 LIG 0.35  C 
ATOM     39  N   PRO B  86      12.825   1.916  15.921  1.00 49.47 LIG 0.32  N 
ATOM     40  CD  PRO B  86      11.994   1.722  17.121  1.00 50.15 LIG 0.32  C 
ATOM     41  CG  PRO B  86      12.240   2.978  17.898  1.00 49.89 LIG 0.04  C 
ATOM     42  CB  PRO B  86      12.545   4.061  16.890  1.00 49.17 LIG 0.05  C 
ENDBRANCH 36 38
ENDBRANCH 33 34
ENDBRANCH 31 33
ENDBRANCH 1 26
TORSDOF 11
ENDMDL
MODEL 21
USER: ADFR SOLUTION from run 55
USER: SCORE 11.717746 LL:  -3.832 LR:  -9.752 RR:   0.000 FEB:  -6.470
USER: RMSD 8.646957
USER: SEED 54
USER: STATUS no improvement in best in 13 clusters for 5 generations
USER: GENES 13
USER: genes 0 Translation |==|  0.34996 0.53478 0.31199
USER: genes 1 Rotation |==|  0.49589 0.10460 0.64348 0.77029
USER: genes 2 Torsion [C]-N--CA-[CB] |==|  0.51678
USER: genes 3 Torsion [N]-CA--C-[N] |==|  0.86786
USER: genes 4 Torsion [N]-CA--C-[N] |==|  0.21434
USER: genes 5 Torsion [C]-N--CA-[CB] |==|  0.19861
USER: genes 6 Torsion [N]-CA--C-[OXT] |==|  0.12112
USER: genes 7 Torsion [N]-CA--CB-[CG] |==|  0.53016
USER: genes 8 Torsion [CA]-CB--CG-[CD2] |==|  0.38653
USER: genes 9 Torsion [O]-C--CA-[CB] |==|  0.61066
USER: genes 10 Torsion [N]-C--CA-[N] |==|  0.32037
USER: genes 11 Torsion [C]-CA--N-[C] |==|  0.71632
USER: genes 12 Torsion [N]-C--CA-[CB] |==|  0.81079
ROOT
ATOM      1  C   PRO B  88      14.207   4.555  15.599  1.00 31.41 LIG 0.24  C 
ATOM      2 O    PRO B  88      14.233   5.791  15.561  1.00 30.85 LIG-0.27  OA
ATOM      3  N   LEU B  89      13.186   3.852  16.077  1.00 29.89 LIG-0.35  N 
ATOM      4 H    LEU B  89      13.171   2.993  16.118  1.00 29.89 LIG 0.16  HD
ENDROOT
BRANCH 3 5
ATOM      5  CA  LEU B  89      11.983   4.500  16.582  1.00 30.22 LIG 0.18  C 
BRANCH 5 6
ATOM      6  C   LEU B  89      12.353   5.552  17.627  1.00 29.45 LIG 0.24  C 
ATOM      7 O    LEU B  89      11.870   6.679  17.565  1.00 27.07 LIG-0.27  OA
ATOM      8  N   PRO B  90      13.220   5.187  18.585  1.00 31.27 LIG-0.34  N 
ATOM      9  CD  PRO B  90      13.791   3.840  18.794  1.00 32.01 LIG 0.13  C 
ATOM     10  CA  PRO B  90      13.635   6.125  19.646  1.00 32.16 LIG 0.18  C 
ATOM     11  CG  PRO B  90      14.760   4.044  19.926  1.00 32.17 LIG 0.02  C 
ATOM     12  CB  PRO B  90      14.223   5.200  20.707  1.00 32.36 LIG 0.04  C 
BRANCH 10 13
ATOM     13  C   PRO B  90      14.672   7.169  19.206  1.00 32.74 LIG 0.24  C 
ATOM     14  N   ALA B  91      14.240   8.206  18.483  1.00 33.34 LIG-0.34  N 
ATOM     15 H    ALA B  91      13.426   8.296  18.220  1.00 33.34 LIG 0.16  HD
ATOM     16 O    PRO B  90      15.851   7.019  19.530  1.00 32.61 LIG-0.27  OA
BRANCH 14 17
ATOM     17  CA  ALA B  91      15.129   9.305  18.068  1.00 34.79 LIG 0.18  C 
ATOM     18  CB  ALA B  91      16.107   8.827  16.974  1.00 34.67 LIG 0.04  C 
BRANCH 17 19
ATOM     19  C   ALA B  91      14.319  10.509  17.576  1.00 35.98 LIG 0.20  C 
ATOM     20 OXT  ALA B  91      13.311  10.903  18.187  1.00 36.84 LIG-0.65  OA
ATOM     21 O    ALA B  91      14.652  11.099  16.543  1.00 37.03 LIG-0.65  OA
ENDBRANCH 17 19
ENDBRANCH 14 17
ENDBRANCH 10 13
ENDBRANCH 5 6
BRANCH 5 22
ATOM     22  CB  LEU B  89      11.033   3.475  17.207  1.00 30.14 LIG 0.04  C 
BRANCH 22 23
ATOM     23  CG  LEU B  89       9.615   3.933  17.559  1.00 30.45 LIG-0.02  C 
ATOM     24  CD1 LEU B  89       9.327   5.254  16.850  1.00 30.38 LIG 0.01  C 
ATOM     25  CD2 LEU B  89       8.589   2.856  17.199  1.00 30.79 LIG 0.01  C 
ENDBRANCH 22 23
ENDBRANCH 5 22
ENDBRANCH 3 5
BRANCH 1 26
ATOM     26  CA  PRO B  88      15.378   3.748  15.051  1.00 32.64 LIG 0.18  C 
ATOM     27  CB  PRO B  88      14.883   2.500  14.290  1.00 32.64 LIG 0.04  C 
ATOM     28  CG  PRO B  88      15.149   1.341  15.210  1.00 32.93 LIG 0.02  C 
ATOM     29  CD  PRO B  88      16.388   1.744  15.963  1.00 33.68 LIG 0.13  C 
ATOM     30  N   PRO B  88      16.210   3.198  16.127  1.00 34.22 LIG-0.34  N 
ATOM     31  C   GLY B  87      16.637   4.051  17.102  1.00 37.83 LIG 0.24  C 
ATOM     32 O    GLY B  87      16.326   5.246  17.129  1.00 36.70 LIG-0.27  OA
BRANCH 31 33
ATOM     33  CA  GLY B  87      17.530   3.493  18.205  1.00 40.95 LIG 0.23  C 
BRANCH 33 34
ATOM     34  N   GLY B  87      18.886   4.086  18.186  1.00 44.01 LIG-0.35  N 
ATOM     35 H    GLY B  87      18.934   4.875  18.524  1.00 44.01 LIG 0.16  HD
ATOM     36  C   PRO B  86      19.930   3.425  17.679  1.00 46.81 LIG 0.25  C 
ATOM     37 O    PRO B  86      19.833   2.290  17.218  1.00 48.58 LIG-0.27  OA
BRANCH 36 38
ATOM     38  CA  PRO B  86      21.314   4.095  17.692  1.00 48.28 LIG 0.35  C 
ATOM     39  N   PRO B  86      22.451   3.271  17.250  1.00 49.47 LIG 0.32  N 
ATOM     40  CD  PRO B  86      23.336   4.006  16.331  1.00 50.15 LIG 0.32  C 
ATOM     41  CG  PRO B  86      22.408   5.002  15.707  1.00 49.89 LIG 0.04  C 
ATOM     42  CB  PRO B  86      21.333   5.295  16.727  1.00 49.17 LIG 0.05  C 
ENDBRANCH 36 38
ENDBRANCH 33 34
ENDBRANCH 31 33
ENDBRANCH 1 26
TORSDOF 11
ENDMDL
MODEL 22
USER: ADFR SOLUTION from run 143
USER: SCORE 12.042212 LL:  -4.003 LR:  -9.695 RR:   0.000 FEB:  -6.414
USER: RMSD 4.077436
USER: SEED 142
USER: STATUS no improvement in best in 14 clusters for 5 generations
USER: GENES 13
USER: genes 0 Translation |==|  0.44418 0.43799 0.34241
USER: genes 1 Rotation |==|  0.55864 0.51069 0.58983 0.98824
USER: genes 2 Torsion [C]-N--CA-[CB] |==|  0.26488
USER: genes 3 Torsion [N]-CA--C-[N] |==|  0.44139
USER: genes 4 Torsion [N]-CA--C-[N] |==|  0.13683
USER: genes 5 Torsion [C]-N--CA-[CB] |==|  0.18780
USER: genes 6 Torsion [N]-CA--C-[OXT] |==|  0.64601
USER: genes 7 Torsion [N]-CA--CB-[CG] |==|  0.24316
USER: genes 8 Torsion [CA]-CB--CG-[CD2] |==|  0.80604
USER: genes 9 Torsion [O]-C--CA-[CB] |==|  0.10702
USER: genes 10 Torsion [N]-C--CA-[N] |==|  0.38889
USER: genes 11 Torsion [C]-CA--N-[C] |==|  0.19165
USER: genes 12 Torsion [N]-C--CA-[CB] |==|  0.48227
ROOT
ATOM      1  C   PRO B  88      16.327   2.958  16.101  1.00 31.41 LIG 0.24  C 
ATOM      2 O    PRO B  88      16.253   4.156  15.801  1.00 30.85 LIG-0.27  OA
ATOM      3  N   LEU B  89      17.156   2.477  17.022  1.00 29.89 LIG-0.35  N 
ATOM      4 H    LEU B  89      17.220   1.643  17.223  1.00 29.89 LIG 0.16  HD
ENDROOT
BRANCH 3 5
ATOM      5  CA  LEU B  89      18.042   3.349  17.781  1.00 30.22 LIG 0.18  C 
BRANCH 5 6
ATOM      6  C   LEU B  89      19.379   2.652  18.027  1.00 29.45 LIG 0.24  C 
ATOM      7 O    LEU B  89      19.457   1.428  17.968  1.00 27.07 LIG-0.27  OA
ATOM      8  N   PRO B  90      20.434   3.432  18.312  1.00 31.27 LIG-0.34  N 
ATOM      9  CD  PRO B  90      20.464   4.909  18.325  1.00 32.01 LIG 0.13  C 
ATOM     10  CA  PRO B  90      21.772   2.858  18.557  1.00 32.16 LIG 0.18  C 
ATOM     11  CG  PRO B  90      21.854   5.226  18.806  1.00 32.17 LIG 0.02  C 
ATOM     12  CB  PRO B  90      22.695   4.062  18.390  1.00 32.36 LIG 0.04  C 
BRANCH 10 13
ATOM     13  C   PRO B  90      21.953   2.229  19.946  1.00 32.74 LIG 0.24  C 
ATOM     14  N   ALA B  91      21.018   1.371  20.365  1.00 33.34 LIG-0.34  N 
ATOM     15 H    ALA B  91      20.306   1.188  19.918  1.00 33.34 LIG 0.16  HD
ATOM     16 O    PRO B  90      22.941   2.530  20.618  1.00 32.61 LIG-0.27  OA
BRANCH 14 17
ATOM     17  CA  ALA B  91      21.122   0.653  21.647  1.00 34.79 LIG 0.18  C 
ATOM     18  CB  ALA B  91      21.001   1.635  22.832  1.00 34.67 LIG 0.04  C 
BRANCH 17 19
ATOM     19  C   ALA B  91      20.059  -0.445  21.748  1.00 35.98 LIG 0.20  C 
ATOM     20 OXT  ALA B  91      19.297  -0.519  22.726  1.00 36.84 LIG-0.65  OA
ATOM     21 O    ALA B  91      19.956  -1.292  20.853  1.00 37.03 LIG-0.65  OA
ENDBRANCH 17 19
ENDBRANCH 14 17
ENDBRANCH 10 13
ENDBRANCH 5 6
BRANCH 5 22
ATOM     22  CB  LEU B  89      17.412   3.730  19.124  1.00 30.14 LIG 0.04  C 
BRANCH 22 23
ATOM     23  CG  LEU B  89      17.641   2.796  20.315  1.00 30.45 LIG-0.02  C 
ATOM     24  CD1 LEU B  89      17.228   3.514  21.598  1.00 30.38 LIG 0.01  C 
ATOM     25  CD2 LEU B  89      16.884   1.480  20.128  1.00 30.79 LIG 0.01  C 
ENDBRANCH 22 23
ENDBRANCH 5 22
ENDBRANCH 3 5
BRANCH 1 26
ATOM     26  CA  PRO B  88      15.416   1.942  15.423  1.00 32.64 LIG 0.18  C 
ATOM     27  CB  PRO B  88      15.231   2.274  13.928  1.00 32.64 LIG 0.04  C 
ATOM     28  CG  PRO B  88      13.849   2.856  13.817  1.00 32.93 LIG 0.02  C 
ATOM     29  CD  PRO B  88      13.063   2.146  14.886  1.00 33.68 LIG 0.13  C 
ATOM     30  N   PRO B  88      14.053   1.986  15.966  1.00 34.22 LIG-0.34  N 
ATOM     31  C   GLY B  87      13.904   1.927  17.320  1.00 37.83 LIG 0.24  C 
ATOM     32 O    GLY B  87      14.863   1.871  18.097  1.00 36.70 LIG-0.27  OA
BRANCH 31 33
ATOM     33  CA  GLY B  87      12.490   1.938  17.889  1.00 40.95 LIG 0.23  C 
BRANCH 33 34
ATOM     34  N   GLY B  87      12.334   1.009  19.029  1.00 44.01 LIG-0.35  N 
ATOM     35 H    GLY B  87      11.837   0.326  18.867  1.00 44.01 LIG 0.16  HD
ATOM     36  C   PRO B  86      12.928   1.238  20.204  1.00 46.81 LIG 0.25  C 
ATOM     37 O    PRO B  86      13.646   2.216  20.401  1.00 48.58 LIG-0.27  OA
BRANCH 36 38
ATOM     38  CA  PRO B  86      12.728   0.232  21.350  1.00 48.28 LIG 0.35  C 
ATOM     39  N   PRO B  86      13.083  -1.168  21.069  1.00 49.47 LIG 0.32  N 
ATOM     40  CD  PRO B  86      13.859  -1.767  22.167  1.00 50.15 LIG 0.32  C 
ATOM     41  CG  PRO B  86      14.530  -0.579  22.783  1.00 49.89 LIG 0.04  C 
ATOM     42  CB  PRO B  86      13.621   0.605  22.547  1.00 49.17 LIG 0.05  C 
ENDBRANCH 36 38
ENDBRANCH 33 34
ENDBRANCH 31 33
ENDBRANCH 1 26
TORSDOF 11
ENDMDL
MODEL 23
USER: ADFR SOLUTION from run 62
USER: SCORE 12.172628 LL:  -3.637 LR:  -9.703 RR:   0.000 FEB:  -6.421
USER: RMSD 5.557784
USER: SEED 61
USER: STATUS no improvement in best in 21 clusters for 5 generations
USER: GENES 13
USER: genes 0 Translation |==|  0.43338 0.38448 0.40810
USER: genes 1 Rotation |==|  0.20218 0.21514 0.23493 0.59947
USER: genes 2 Torsion [C]-N--CA-[CB] |==|  0.55563
USER: genes 3 Torsion [N]-CA--C-[N] |==|  0.81873
USER: genes 4 Torsion [N]-CA--C-[N] |==|  0.22608
USER: genes 5 Torsion [C]-N--CA-[CB] |==|  0.24009
USER: genes 6 Torsion [N]-CA--C-[OXT] |==|  0.25962
USER: genes 7 Torsion [N]-CA--CB-[CG] |==|  0.90175
USER: genes 8 Torsion [CA]-CB--CG-[CD2] |==|  0.23282
USER: genes 9 Torsion [O]-C--CA-[CB] |==|  0.72248
USER: genes 10 Torsion [N]-C--CA-[N] |==|  0.47877
USER: genes 11 Torsion [C]-CA--N-[C] |==|  0.36388
USER: genes 12 Torsion [N]-C--CA-[CB] |==|  0.77767
ROOT
ATOM      1  C   PRO B  88      16.084   2.075  17.185  1.00 31.41 LIG 0.24  C 
ATOM      2 O    PRO B  88      16.708   1.485  18.076  1.00 30.85 LIG-0.27  OA
ATOM      3  N   LEU B  89      15.941   3.395  17.134  1.00 29.89 LIG-0.35  N 
ATOM      4 H    LEU B  89      15.496   3.807  16.523  1.00 29.89 LIG 0.16  HD
ENDROOT
BRANCH 3 5
ATOM      5  CA  LEU B  89      16.543   4.268  18.132  1.00 30.22 LIG 0.18  C 
BRANCH 5 6
ATOM      6  C   LEU B  89      16.442   3.627  19.517  1.00 29.45 LIG 0.24  C 
ATOM      7 O    LEU B  89      17.459   3.283  20.112  1.00 27.07 LIG-0.27  OA
ATOM      8  N   PRO B  90      15.211   3.460  20.027  1.00 31.27 LIG-0.34  N 
ATOM      9  CD  PRO B  90      13.937   3.913  19.431  1.00 32.01 LIG 0.13  C 
ATOM     10  CA  PRO B  90      15.006   2.860  21.360  1.00 32.16 LIG 0.18  C 
ATOM     11  CG  PRO B  90      12.899   3.367  20.372  1.00 32.17 LIG 0.02  C 
ATOM     12  CB  PRO B  90      13.576   3.270  21.701  1.00 32.36 LIG 0.04  C 
BRANCH 10 13
ATOM     13  C   PRO B  90      15.154   1.332  21.403  1.00 32.74 LIG 0.24  C 
ATOM     14  N   ALA B  91      16.390   0.831  21.475  1.00 33.34 LIG-0.34  N 
ATOM     15 H    ALA B  91      17.101   1.314  21.456  1.00 33.34 LIG 0.16  HD
ATOM     16 O    PRO B  90      14.142   0.629  21.372  1.00 32.61 LIG-0.27  OA
BRANCH 14 17
ATOM     17  CA  ALA B  91      16.651  -0.614  21.594  1.00 34.79 LIG 0.18  C 
ATOM     18  CB  ALA B  91      16.696  -1.275  20.200  1.00 34.67 LIG 0.04  C 
BRANCH 17 19
ATOM     19  C   ALA B  91      17.955  -0.874  22.355  1.00 35.98 LIG 0.20  C 
ATOM     20 OXT  ALA B  91      17.959  -1.068  23.583  1.00 36.84 LIG-0.65  OA
ATOM     21 O    ALA B  91      19.034  -0.877  21.753  1.00 37.03 LIG-0.65  OA
ENDBRANCH 17 19
ENDBRANCH 14 17
ENDBRANCH 10 13
ENDBRANCH 5 6
BRANCH 5 22
ATOM     22  CB  LEU B  89      15.851   5.633  18.152  1.00 30.14 LIG 0.04  C 
BRANCH 22 23
ATOM     23  CG  LEU B  89      15.355   6.205  16.821  1.00 30.45 LIG-0.02  C 
ATOM     24  CD1 LEU B  89      16.387   5.908  15.735  1.00 30.38 LIG 0.01  C 
ATOM     25  CD2 LEU B  89      13.976   5.645  16.467  1.00 30.79 LIG 0.01  C 
ENDBRANCH 22 23
ENDBRANCH 5 22
ENDBRANCH 3 5
BRANCH 1 26
ATOM     26  CA  PRO B  88      15.451   1.287  16.045  1.00 32.64 LIG 0.18  C 
ATOM     27  CB  PRO B  88      16.331   1.339  14.778  1.00 32.64 LIG 0.04  C 
ATOM     28  CG  PRO B  88      15.639   2.297  13.850  1.00 32.93 LIG 0.02  C 
ATOM     29  CD  PRO B  88      14.177   2.120  14.160  1.00 33.68 LIG 0.13  C 
ATOM     30  N   PRO B  88      14.179   1.881  15.614  1.00 34.22 LIG-0.34  N 
ATOM     31  C   GLY B  87      13.249   2.160  16.572  1.00 37.83 LIG 0.24  C 
ATOM     32 O    GLY B  87      13.448   1.963  17.775  1.00 36.70 LIG-0.27  OA
BRANCH 31 33
ATOM     33  CA  GLY B  87      11.913   2.745  16.128  1.00 40.95 LIG 0.23  C 
BRANCH 33 34
ATOM     34  N   GLY B  87      10.938   2.829  17.238  1.00 44.01 LIG-0.35  N 
ATOM     35 H    GLY B  87      10.856   2.106  17.696  1.00 44.01 LIG 0.16  HD
ATOM     36  C   PRO B  86      10.256   3.951  17.484  1.00 46.81 LIG 0.25  C 
ATOM     37 O    PRO B  86      10.407   4.975  16.822  1.00 48.58 LIG-0.27  OA
BRANCH 36 38
ATOM     38  CA  PRO B  86       9.258   3.975  18.654  1.00 48.28 LIG 0.35  C 
ATOM     39  N   PRO B  86       8.845   5.300  19.143  1.00 49.47 LIG 0.32  N 
ATOM     40  CD  PRO B  86       7.391   5.375  19.360  1.00 50.15 LIG 0.32  C 
ATOM     41  CG  PRO B  86       6.861   4.360  18.396  1.00 49.89 LIG 0.04  C 
ATOM     42  CB  PRO B  86       7.934   3.307  18.239  1.00 49.17 LIG 0.05  C 
ENDBRANCH 36 38
ENDBRANCH 33 34
ENDBRANCH 31 33
ENDBRANCH 1 26
TORSDOF 11
ENDMDL
MODEL 24
USER: ADFR SOLUTION from run 37
USER: SCORE 11.336648 LL:  -3.102 LR:  -9.687 RR:   0.000 FEB:  -6.405
USER: RMSD 6.942043
USER: SEED 36
USER: STATUS no improvement in best in 16 clusters for 5 generations
USER: GENES 13
USER: genes 0 Translation |==|  0.16158 0.49367 0.42175
USER: genes 1 Rotation |==|  0.53768 0.70094 0.45217 0.95378
USER: genes 2 Torsion [C]-N--CA-[CB] |==|  0.17782
USER: genes 3 Torsion [N]-CA--C-[N] |==|  0.40189
USER: genes 4 Torsion [N]-CA--C-[N] |==|  0.32984
USER: genes 5 Torsion [C]-N--CA-[CB] |==|  0.25247
USER: genes 6 Torsion [N]-CA--C-[OXT] |==|  0.55872
USER: genes 7 Torsion [N]-CA--CB-[CG] |==|  0.63775
USER: genes 8 Torsion [CA]-CB--CG-[CD2] |==|  0.76895
USER: genes 9 Torsion [O]-C--CA-[CB] |==|  0.10872
USER: genes 10 Torsion [N]-C--CA-[N] |==|  0.43799
USER: genes 11 Torsion [C]-CA--N-[C] |==|  0.63554
USER: genes 12 Torsion [N]-C--CA-[CB] |==|  0.92254
ROOT
ATOM      1  C   PRO B  88       9.969   3.876  17.410  1.00 31.41 LIG 0.24  C 
ATOM      2 O    PRO B  88      10.045   4.968  16.832  1.00 30.85 LIG-0.27  OA
ATOM      3  N   LEU B  89      11.014   3.089  17.643  1.00 29.89 LIG-0.35  N 
ATOM      4 H    LEU B  89      10.962   2.324  18.032  1.00 29.89 LIG 0.16  HD
ENDROOT
BRANCH 3 5
ATOM      5  CA  LEU B  89      12.362   3.474  17.249  1.00 30.22 LIG 0.18  C 
BRANCH 5 6
ATOM      6  C   LEU B  89      13.336   2.328  17.524  1.00 29.45 LIG 0.24  C 
ATOM      7 O    LEU B  89      13.182   1.611  18.509  1.00 27.07 LIG-0.27  OA
ATOM      8  N   PRO B  90      14.346   2.159  16.656  1.00 31.27 LIG-0.34  N 
ATOM      9  CD  PRO B  90      14.569   2.910  15.402  1.00 32.01 LIG 0.13  C 
ATOM     10  CA  PRO B  90      15.334   1.077  16.826  1.00 32.16 LIG 0.18  C 
ATOM     11  CG  PRO B  90      15.884   2.374  14.905  1.00 32.17 LIG 0.02  C 
ATOM     12  CB  PRO B  90      15.978   0.984  15.445  1.00 32.36 LIG 0.04  C 
BRANCH 10 13
ATOM     13  C   PRO B  90      16.398   1.346  17.900  1.00 32.74 LIG 0.24  C 
ATOM     14  N   ALA B  91      16.458   0.507  18.938  1.00 33.34 LIG-0.34  N 
ATOM     15 H    ALA B  91      15.909  -0.145  19.054  1.00 33.34 LIG 0.16  HD
ATOM     16 O    PRO B  90      17.152   2.312  17.770  1.00 32.61 LIG-0.27  OA
BRANCH 14 17
ATOM     17  CA  ALA B  91      17.483   0.623  19.989  1.00 34.79 LIG 0.18  C 
ATOM     18  CB  ALA B  91      16.979   1.518  21.142  1.00 34.67 LIG 0.04  C 
BRANCH 17 19
ATOM     19  C   ALA B  91      17.884  -0.757  20.518  1.00 35.98 LIG 0.20  C 
ATOM     20 OXT  ALA B  91      18.417  -0.893  21.632  1.00 36.84 LIG-0.65  OA
ATOM     21 O    ALA B  91      17.697  -1.764  19.826  1.00 37.03 LIG-0.65  OA
ENDBRANCH 17 19
ENDBRANCH 14 17
ENDBRANCH 10 13
ENDBRANCH 5 6
BRANCH 5 22
ATOM     22  CB  LEU B  89      12.817   4.722  18.008  1.00 30.14 LIG 0.04  C 
BRANCH 22 23
ATOM     23  CG  LEU B  89      13.412   5.878  17.198  1.00 30.45 LIG-0.02  C 
ATOM     24  CD1 LEU B  89      13.180   7.186  17.951  1.00 30.38 LIG 0.01  C 
ATOM     25  CD2 LEU B  89      14.896   5.637  16.915  1.00 30.79 LIG 0.01  C 
ENDBRANCH 22 23
ENDBRANCH 5 22
ENDBRANCH 3 5
BRANCH 1 26
ATOM     26  CA  PRO B  88       8.625   3.377  17.927  1.00 32.64 LIG 0.18  C 
ATOM     27  CB  PRO B  88       7.491   3.711  16.935  1.00 32.64 LIG 0.04  C 
ATOM     28  CG  PRO B  88       6.748   4.863  17.552  1.00 32.93 LIG 0.02  C 
ATOM     29  CD  PRO B  88       6.874   4.632  19.034  1.00 33.68 LIG 0.13  C 
ATOM     30  N   PRO B  88       8.228   4.065  19.161  1.00 34.22 LIG-0.34  N 
ATOM     31  C   GLY B  87       9.135   4.124  20.178  1.00 37.83 LIG 0.24  C 
ATOM     32 O    GLY B  87      10.273   3.654  20.087  1.00 36.70 LIG-0.27  OA
BRANCH 31 33
ATOM     33  CA  GLY B  87       8.717   4.806  21.476  1.00 40.95 LIG 0.23  C 
BRANCH 33 34
ATOM     34  N   GLY B  87       9.527   4.364  22.632  1.00 44.01 LIG-0.35  N 
ATOM     35 H    GLY B  87      10.376   4.377  22.498  1.00 44.01 LIG 0.16  HD
ATOM     36  C   PRO B  86       8.957   3.981  23.778  1.00 46.81 LIG 0.25  C 
ATOM     37 O    PRO B  86       7.739   3.988  23.945  1.00 48.58 LIG-0.27  OA
BRANCH 36 38
ATOM     38  CA  PRO B  86       9.854   3.533  24.944  1.00 48.28 LIG 0.35  C 
ATOM     39  N   PRO B  86       9.330   2.465  25.809  1.00 49.47 LIG 0.32  N 
ATOM     40  CD  PRO B  86      10.349   1.442  26.095  1.00 50.15 LIG 0.32  C 
ATOM     41  CG  PRO B  86      11.248   1.529  24.902  1.00 49.89 LIG 0.04  C 
ATOM     42  CB  PRO B  86      11.177   2.955  24.406  1.00 49.17 LIG 0.05  C 
ENDBRANCH 36 38
ENDBRANCH 33 34
ENDBRANCH 31 33
ENDBRANCH 1 26
TORSDOF 11
ENDMDL
MODEL 25
USER: ADFR SOLUTION from run 108
USER: SCORE 11.382351 LL:  -3.578 LR:  -9.695 RR:   0.000 FEB:  -6.413
USER: RMSD 8.675545
USER: SEED 107
USER: STATUS no improvement in best in 12 clusters for 5 generations
USER: GENES 13
USER: genes 0 Translation |==|  0.39980 0.51886 0.29939
USER: genes 1 Rotation |==|  0.39309 0.23131 0.72685 0.83899
USER: genes 2 Torsion [C]-N--CA-[CB] |==|  0.35298
USER: genes 3 Torsion [N]-CA--C-[N] |==|  0.21684
USER: genes 4 Torsion [N]-CA--C-[N] |==|  0.84525
USER: genes 5 Torsion [C]-N--CA-[CB] |==|  0.24574
USER: genes 6 Torsion [N]-CA--C-[OXT] |==|  0.40035
USER: genes 7 Torsion [N]-CA--CB-[CG] |==|  0.01666
USER: genes 8 Torsion [CA]-CB--CG-[CD2] |==|  0.82263
USER: genes 9 Torsion [O]-C--CA-[CB] |==|  0.72751
USER: genes 10 Torsion [N]-C--CA-[N] |==|  0.39574
USER: genes 11 Torsion [C]-CA--N-[C] |==|  0.84764
USER: genes 12 Torsion [N]-C--CA-[CB] |==|  0.61468
ROOT
ATOM      1  C   PRO B  88      15.329   4.292  15.391  1.00 31.41 LIG 0.24  C 
ATOM      2 O    PRO B  88      15.450   5.223  14.585  1.00 30.85 LIG-0.27  OA
ATOM      3  N   LEU B  89      14.542   4.340  16.461  1.00 29.89 LIG-0.35  N 
ATOM      4 H    LEU B  89      14.466   3.700  17.031  1.00 29.89 LIG 0.16  HD
ENDROOT
BRANCH 3 5
ATOM      5  CA  LEU B  89      13.726   5.510  16.757  1.00 30.22 LIG 0.18  C 
BRANCH 5 6
ATOM      6  C   LEU B  89      14.248   6.208  18.013  1.00 29.45 LIG 0.24  C 
ATOM      7 O    LEU B  89      13.668   6.061  19.086  1.00 27.07 LIG-0.27  OA
ATOM      8  N   PRO B  90      15.340   6.976  17.879  1.00 31.27 LIG-0.34  N 
ATOM      9  CD  PRO B  90      16.155   7.151  16.658  1.00 32.01 LIG 0.13  C 
ATOM     10  CA  PRO B  90      15.929   7.685  19.032  1.00 32.16 LIG 0.18  C 
ATOM     11  CG  PRO B  90      17.169   8.186  17.061  1.00 32.17 LIG 0.02  C 
ATOM     12  CB  PRO B  90      17.330   8.033  18.539  1.00 32.36 LIG 0.04  C 
BRANCH 10 13
ATOM     13  C   PRO B  90      15.175   8.956  19.453  1.00 32.74 LIG 0.24  C 
ATOM     14  N   ALA B  91      14.983   9.898  18.526  1.00 33.34 LIG-0.34  N 
ATOM     15 H    ALA B  91      15.292   9.848  17.725  1.00 33.34 LIG 0.16  HD
ATOM     16 O    PRO B  90      14.778   9.062  20.614  1.00 32.61 LIG-0.27  OA
BRANCH 14 17
ATOM     17  CA  ALA B  91      14.212  11.124  18.794  1.00 34.79 LIG 0.18  C 
ATOM     18  CB  ALA B  91      15.130  12.231  19.355  1.00 34.67 LIG 0.04  C 
BRANCH 17 19
ATOM     19  C   ALA B  91      13.497  11.610  17.529  1.00 35.98 LIG 0.20  C 
ATOM     20 OXT  ALA B  91      12.371  12.133  17.584  1.00 36.84 LIG-0.65  OA
ATOM     21 O    ALA B  91      14.031  11.470  16.423  1.00 37.03 LIG-0.65  OA
ENDBRANCH 17 19
ENDBRANCH 14 17
ENDBRANCH 10 13
ENDBRANCH 5 6
BRANCH 5 22
ATOM     22  CB  LEU B  89      12.262   5.115  16.965  1.00 30.14 LIG 0.04  C 
BRANCH 22 23
ATOM     23  CG  LEU B  89      11.915   3.624  16.977  1.00 30.45 LIG-0.02  C 
ATOM     24  CD1 LEU B  89      10.452   3.455  17.381  1.00 30.38 LIG 0.01  C 
ATOM     25  CD2 LEU B  89      12.209   2.985  15.618  1.00 30.79 LIG 0.01  C 
ENDBRANCH 22 23
ENDBRANCH 5 22
ENDBRANCH 3 5
BRANCH 1 26
ATOM     26  CA  PRO B  88      16.082   2.986  15.171  1.00 32.64 LIG 0.18  C 
ATOM     27  CB  PRO B  88      15.176   1.928  14.508  1.00 32.64 LIG 0.04  C 
ATOM     28  CG  PRO B  88      14.816   0.967  15.606  1.00 32.93 LIG 0.02  C 
ATOM     29  CD  PRO B  88      16.022   0.966  16.506  1.00 33.68 LIG 0.13  C 
ATOM     30  N   PRO B  88      16.477   2.366  16.441  1.00 34.22 LIG-0.34  N 
ATOM     31  C   GLY B  87      17.130   3.142  17.353  1.00 37.83 LIG 0.24  C 
ATOM     32 O    GLY B  87      17.368   4.339  17.165  1.00 36.70 LIG-0.27  OA
BRANCH 31 33
ATOM     33  CA  GLY B  87      17.574   2.495  18.661  1.00 40.95 LIG 0.23  C 
BRANCH 33 34
ATOM     34  N   GLY B  87      18.887   2.998  19.121  1.00 44.01 LIG-0.35  N 
ATOM     35 H    GLY B  87      18.887   3.313  19.921  1.00 44.01 LIG 0.16  HD
ATOM     36  C   PRO B  86      19.966   2.953  18.335  1.00 46.81 LIG 0.25  C 
ATOM     37 O    PRO B  86      19.939   2.481  17.201  1.00 48.58 LIG-0.27  OA
BRANCH 36 38
ATOM     38  CA  PRO B  86      21.303   3.490  18.874  1.00 48.28 LIG 0.35  C 
ATOM     39  N   PRO B  86      22.294   2.488  19.299  1.00 49.47 LIG 0.32  N 
ATOM     40  CD  PRO B  86      23.643   2.806  18.802  1.00 50.15 LIG 0.32  C 
ATOM     41  CG  PRO B  86      23.359   3.595  17.561  1.00 49.89 LIG 0.04  C 
ATOM     42  CB  PRO B  86      22.035   4.289  17.780  1.00 49.17 LIG 0.05  C 
ENDBRANCH 36 38
ENDBRANCH 33 34
ENDBRANCH 31 33
ENDBRANCH 1 26
TORSDOF 11
ENDMDL
MODEL 26
USER: ADFR SOLUTION from run 122
USER: SCORE 13.232501 LL:  -4.217 LR:  -9.662 RR:   0.000 FEB:  -6.380
USER: RMSD 3.767022
USER: SEED 121
USER: STATUS no improvement in best in 8 clusters for 5 generations
USER: GENES 13
USER: genes 0 Translation |==|  0.45901 0.41932 0.37811
USER: genes 1 Rotation |==|  0.29899 0.43327 0.13613 0.76971
USER: genes 2 Torsion [C]-N--CA-[CB] |==|  0.84192
USER: genes 3 Torsion [N]-CA--C-[N] |==|  0.32222
USER: genes 4 Torsion [N]-CA--C-[N] |==|  0.92538
USER: genes 5 Torsion [C]-N--CA-[CB] |==|  0.24373
USER: genes 6 Torsion [N]-CA--C-[OXT] |==|  0.41370
USER: genes 7 Torsion [N]-CA--CB-[CG] |==|  0.51561
USER: genes 8 Torsion [CA]-CB--CG-[CD2] |==|  0.51182
USER: genes 9 Torsion [O]-C--CA-[CB] |==|  0.67173
USER: genes 10 Torsion [N]-C--CA-[N] |==|  0.61863
USER: genes 11 Torsion [C]-CA--N-[C] |==|  0.11837
USER: genes 12 Torsion [N]-C--CA-[CB] |==|  0.64331
ROOT
ATOM      1  C   PRO B  88      16.661   2.650  16.690  1.00 31.41 LIG 0.24  C 
ATOM      2 O    PRO B  88      17.308   1.656  16.340  1.00 30.85 LIG-0.27  OA
ATOM      3  N   LEU B  89      16.625   3.106  17.938  1.00 29.89 LIG-0.35  N 
ATOM      4 H    LEU B  89      16.164   3.788  18.187  1.00 29.89 LIG 0.16  HD
ENDROOT
BRANCH 3 5
ATOM      5  CA  LEU B  89      17.384   2.469  19.005  1.00 30.22 LIG 0.18  C 
BRANCH 5 6
ATOM      6  C   LEU B  89      18.882   2.594  18.730  1.00 29.45 LIG 0.24  C 
ATOM      7 O    LEU B  89      19.377   2.043  17.750  1.00 27.07 LIG-0.27  OA
ATOM      8  N   PRO B  90      19.608   3.313  19.601  1.00 31.27 LIG-0.34  N 
ATOM      9  CD  PRO B  90      19.098   4.079  20.757  1.00 32.01 LIG 0.13  C 
ATOM     10  CA  PRO B  90      21.061   3.502  19.421  1.00 32.16 LIG 0.18  C 
ATOM     11  CG  PRO B  90      20.350   4.586  21.419  1.00 32.17 LIG 0.02  C 
ATOM     12  CB  PRO B  90      21.364   4.692  20.326  1.00 32.36 LIG 0.04  C 
BRANCH 10 13
ATOM     13  C   PRO B  90      21.917   2.291  19.818  1.00 32.74 LIG 0.24  C 
ATOM     14  N   ALA B  91      21.426   1.462  20.744  1.00 33.34 LIG-0.34  N 
ATOM     15 H    ALA B  91      20.682   1.594  21.154  1.00 33.34 LIG 0.16  HD
ATOM     16 O    PRO B  90      23.011   2.124  19.276  1.00 32.61 LIG-0.27  OA
BRANCH 14 17
ATOM     17  CA  ALA B  91      22.124   0.230  21.151  1.00 34.79 LIG 0.18  C 
ATOM     18  CB  ALA B  91      23.122   0.523  22.292  1.00 34.67 LIG 0.04  C 
BRANCH 17 19
ATOM     19  C   ALA B  91      21.126  -0.851  21.574  1.00 35.98 LIG 0.20  C 
ATOM     20 OXT  ALA B  91      21.371  -2.058  21.410  1.00 36.84 LIG-0.65  OA
ATOM     21 O    ALA B  91      20.042  -0.532  22.075  1.00 37.03 LIG-0.65  OA
ENDBRANCH 17 19
ENDBRANCH 14 17
ENDBRANCH 10 13
ENDBRANCH 5 6
BRANCH 5 22
ATOM     22  CB  LEU B  89      17.011   0.990  19.131  1.00 30.14 LIG 0.04  C 
BRANCH 22 23
ATOM     23  CG  LEU B  89      17.616   0.194  20.291  1.00 30.45 LIG-0.02  C 
ATOM     24  CD1 LEU B  89      17.177   0.823  21.611  1.00 30.38 LIG 0.01  C 
ATOM     25  CD2 LEU B  89      17.222  -1.282  20.203  1.00 30.79 LIG 0.01  C 
ENDBRANCH 22 23
ENDBRANCH 5 22
ENDBRANCH 3 5
BRANCH 1 26
ATOM     26  CA  PRO B  88      15.865   3.445  15.662  1.00 32.64 LIG 0.18  C 
ATOM     27  CB  PRO B  88      16.383   4.896  15.563  1.00 32.64 LIG 0.04  C 
ATOM     28  CG  PRO B  88      15.362   5.733  16.280  1.00 32.93 LIG 0.02  C 
ATOM     29  CD  PRO B  88      14.060   5.017  16.038  1.00 33.68 LIG 0.13  C 
ATOM     30  N   PRO B  88      14.461   3.599  16.062  1.00 34.22 LIG-0.34  N 
ATOM     31  C   GLY B  87      13.776   2.477  16.427  1.00 37.83 LIG 0.24  C 
ATOM     32 O    GLY B  87      14.297   1.358  16.464  1.00 36.70 LIG-0.27  OA
BRANCH 31 33
ATOM     33  CA  GLY B  87      12.308   2.624  16.810  1.00 40.95 LIG 0.23  C 
BRANCH 33 34
ATOM     34  N   GLY B  87      11.955   1.828  18.005  1.00 44.01 LIG-0.35  N 
ATOM     35 H    GLY B  87      11.204   1.412  17.948  1.00 44.01 LIG 0.16  HD
ATOM     36  C   PRO B  86      12.757   1.777  19.073  1.00 46.81 LIG 0.25  C 
ATOM     37 O    PRO B  86      13.832   2.370  19.120  1.00 48.58 LIG-0.27  OA
BRANCH 36 38
ATOM     38  CA  PRO B  86      12.333   0.929  20.284  1.00 48.28 LIG 0.35  C 
ATOM     39  N   PRO B  86      13.160  -0.251  20.584  1.00 49.47 LIG 0.32  N 
ATOM     40  CD  PRO B  86      13.458  -0.359  22.022  1.00 50.15 LIG 0.32  C 
ATOM     41  CG  PRO B  86      13.390   1.064  22.480  1.00 49.89 LIG 0.04  C 
ATOM     42  CB  PRO B  86      12.408   1.767  21.573  1.00 49.17 LIG 0.05  C 
ENDBRANCH 36 38
ENDBRANCH 33 34
ENDBRANCH 31 33
ENDBRANCH 1 26
TORSDOF 11
ENDMDL
MODEL 27
USER: ADFR SOLUTION from run 106
USER: SCORE 12.376741 LL:  -2.990 LR:  -9.596 RR:   0.000 FEB:  -6.315
USER: RMSD 10.258805
USER: SEED 105
USER: STATUS no improvement in best in 11 clusters for 5 generations
USER: GENES 13
USER: genes 0 Translation |==|  0.46127 0.61637 0.38599
USER: genes 1 Rotation |==|  0.65948 0.71248 0.08103 0.56233
USER: genes 2 Torsion [C]-N--CA-[CB] |==|  0.16630
USER: genes 3 Torsion [N]-CA--C-[N] |==|  0.12778
USER: genes 4 Torsion [N]-CA--C-[N] |==|  0.68086
USER: genes 5 Torsion [C]-N--CA-[CB] |==|  0.27075
USER: genes 6 Torsion [N]-CA--C-[OXT] |==|  0.59996
USER: genes 7 Torsion [N]-CA--CB-[CG] |==|  0.60391
USER: genes 8 Torsion [CA]-CB--CG-[CD2] |==|  0.84821
USER: genes 9 Torsion [O]-C--CA-[CB] |==|  0.10502
USER: genes 10 Torsion [N]-C--CA-[N] |==|  0.89870
USER: genes 11 Torsion [C]-CA--N-[C] |==|  0.79174
USER: genes 12 Torsion [N]-C--CA-[CB] |==|  0.89920
ROOT
ATOM      1  C   PRO B  88      16.712   5.901  16.820  1.00 31.41 LIG 0.24  C 
ATOM      2 O    PRO B  88      17.180   5.736  15.687  1.00 30.85 LIG-0.27  OA
ATOM      3  N   LEU B  89      15.548   5.398  17.219  1.00 29.89 LIG-0.35  N 
ATOM      4 H    LEU B  89      15.213   5.523  18.001  1.00 29.89 LIG 0.16  HD
ENDROOT
BRANCH 3 5
ATOM      5  CA  LEU B  89      14.731   4.574  16.339  1.00 30.22 LIG 0.18  C 
BRANCH 5 6
ATOM      6  C   LEU B  89      13.444   4.161  17.053  1.00 29.45 LIG 0.24  C 
ATOM      7 O    LEU B  89      13.055   2.997  16.998  1.00 27.07 LIG-0.27  OA
ATOM      8  N   PRO B  90      12.777   5.117  17.718  1.00 31.27 LIG-0.34  N 
ATOM      9  CD  PRO B  90      13.202   6.519  17.913  1.00 32.01 LIG 0.13  C 
ATOM     10  CA  PRO B  90      11.529   4.820  18.448  1.00 32.16 LIG 0.18  C 
ATOM     11  CG  PRO B  90      12.035   7.141  18.630  1.00 32.17 LIG 0.02  C 
ATOM     12  CB  PRO B  90      11.384   6.021  19.378  1.00 32.36 LIG 0.04  C 
BRANCH 10 13
ATOM     13  C   PRO B  90      10.287   4.674  17.557  1.00 32.74 LIG 0.24  C 
ATOM     14  N   ALA B  91       9.313   5.579  17.699  1.00 33.34 LIG-0.34  N 
ATOM     15 H    ALA B  91       9.329   6.206  18.287  1.00 33.34 LIG 0.16  HD
ATOM     16 O    PRO B  90      10.230   3.744  16.752  1.00 32.61 LIG-0.27  OA
BRANCH 14 17
ATOM     17  CA  ALA B  91       8.109   5.582  16.851  1.00 34.79 LIG 0.18  C 
ATOM     18  CB  ALA B  91       6.939   4.874  17.566  1.00 34.67 LIG 0.04  C 
BRANCH 17 19
ATOM     19  C   ALA B  91       7.717   7.011  16.464  1.00 35.98 LIG 0.20  C 
ATOM     20 OXT  ALA B  91       6.525   7.349  16.362  1.00 36.84 LIG-0.65  OA
ATOM     21 O    ALA B  91       8.591   7.852  16.227  1.00 37.03 LIG-0.65  OA
ENDBRANCH 17 19
ENDBRANCH 14 17
ENDBRANCH 10 13
ENDBRANCH 5 6
BRANCH 5 22
ATOM     22  CB  LEU B  89      15.494   3.322  15.899  1.00 30.14 LIG 0.04  C 
BRANCH 22 23
ATOM     23  CG  LEU B  89      15.294   2.826  14.464  1.00 30.45 LIG-0.02  C 
ATOM     24  CD1 LEU B  89      16.110   1.553  14.259  1.00 30.38 LIG 0.01  C 
ATOM     25  CD2 LEU B  89      13.810   2.608  14.165  1.00 30.79 LIG 0.01  C 
ENDBRANCH 22 23
ENDBRANCH 5 22
ENDBRANCH 3 5
BRANCH 1 26
ATOM     26  CA  PRO B  88      17.490   6.696  17.861  1.00 32.64 LIG 0.18  C 
ATOM     27  CB  PRO B  88      18.214   7.896  17.214  1.00 32.64 LIG 0.04  C 
ATOM     28  CG  PRO B  88      19.662   7.499  17.147  1.00 32.93 LIG 0.02  C 
ATOM     29  CD  PRO B  88      19.861   6.622  18.354  1.00 33.68 LIG 0.13  C 
ATOM     30  N   PRO B  88      18.577   5.904  18.449  1.00 34.22 LIG-0.34  N 
ATOM     31  C   GLY B  87      18.274   4.664  18.929  1.00 37.83 LIG 0.24  C 
ATOM     32 O    GLY B  87      17.141   4.177  18.858  1.00 36.70 LIG-0.27  OA
BRANCH 31 33
ATOM     33  CA  GLY B  87      19.391   3.850  19.572  1.00 40.95 LIG 0.23  C 
BRANCH 33 34
ATOM     34  N   GLY B  87      20.692   4.044  18.895  1.00 44.01 LIG-0.35  N 
ATOM     35 H    GLY B  87      21.247   4.540  19.326  1.00 44.01 LIG 0.16  HD
ATOM     36  C   PRO B  86      20.955   3.483  17.712  1.00 46.81 LIG 0.25  C 
ATOM     37 O    PRO B  86      20.147   2.764  17.127  1.00 48.58 LIG-0.27  OA
BRANCH 36 38
ATOM     38  CA  PRO B  86      22.328   3.722  17.061  1.00 48.28 LIG 0.35  C 
ATOM     39  N   PRO B  86      22.392   3.614  15.595  1.00 49.47 LIG 0.32  N 
ATOM     40  CD  PRO B  86      23.159   4.720  14.998  1.00 50.15 LIG 0.32  C 
ATOM     41  CG  PRO B  86      22.988   5.819  16.000  1.00 49.89 LIG 0.04  C 
ATOM     42  CB  PRO B  86      22.809   5.157  17.346  1.00 49.17 LIG 0.05  C 
ENDBRANCH 36 38
ENDBRANCH 33 34
ENDBRANCH 31 33
ENDBRANCH 1 26
TORSDOF 11
ENDMDL
MODEL 28
USER: ADFR SOLUTION from run 150
USER: SCORE 11.826916 LL:  -3.273 LR:  -9.559 RR:   0.000 FEB:  -6.278
USER: RMSD 6.440542
USER: SEED 149
USER: STATUS no improvement in best in 28 clusters for 5 generations
USER: GENES 13
USER: genes 0 Translation |==|  0.34082 0.56456 0.37585
USER: genes 1 Rotation |==|  0.73738 0.25797 0.86209 0.56298
USER: genes 2 Torsion [C]-N--CA-[CB] |==|  0.20976
USER: genes 3 Torsion [N]-CA--C-[N] |==|  0.48329
USER: genes 4 Torsion [N]-CA--C-[N] |==|  0.24399
USER: genes 5 Torsion [C]-N--CA-[CB] |==|  0.41617
USER: genes 6 Torsion [N]-CA--C-[OXT] |==|  0.10914
USER: genes 7 Torsion [N]-CA--CB-[CG] |==|  0.03050
USER: genes 8 Torsion [CA]-CB--CG-[CD2] |==|  0.67748
USER: genes 9 Torsion [O]-C--CA-[CB] |==|  0.66737
USER: genes 10 Torsion [N]-C--CA-[N] |==|  0.09862
USER: genes 11 Torsion [C]-CA--N-[C] |==|  0.17333
USER: genes 12 Torsion [N]-C--CA-[CB] |==|  0.22210
ROOT
ATOM      1  C   PRO B  88      14.002   5.046  16.653  1.00 31.41 LIG 0.24  C 
ATOM      2 O    PRO B  88      12.829   4.889  16.290  1.00 30.85 LIG-0.27  OA
ATOM      3  N   LEU B  89      14.619   4.252  17.522  1.00 29.89 LIG-0.35  N 
ATOM      4 H    LEU B  89      15.429   4.368  17.786  1.00 29.89 LIG 0.16  HD
ENDROOT
BRANCH 3 5
ATOM      5  CA  LEU B  89      13.953   3.096  18.106  1.00 30.22 LIG 0.18  C 
BRANCH 5 6
ATOM      6  C   LEU B  89      14.715   2.623  19.344  1.00 29.45 LIG 0.24  C 
ATOM      7 O    LEU B  89      15.794   3.132  19.636  1.00 27.07 LIG-0.27  OA
ATOM      8  N   PRO B  90      14.158   1.639  20.068  1.00 31.27 LIG-0.34  N 
ATOM      9  CD  PRO B  90      12.833   1.022  19.850  1.00 32.01 LIG 0.13  C 
ATOM     10  CA  PRO B  90      14.808   1.117  21.286  1.00 32.16 LIG 0.18  C 
ATOM     11  CG  PRO B  90      12.785  -0.073  20.880  1.00 32.17 LIG 0.02  C 
ATOM     12  CB  PRO B  90      13.670   0.388  21.993  1.00 32.36 LIG 0.04  C 
BRANCH 10 13
ATOM     13  C   PRO B  90      15.981   0.161  21.024  1.00 32.74 LIG 0.24  C 
ATOM     14  N   ALA B  91      17.195   0.697  20.869  1.00 33.34 LIG-0.34  N 
ATOM     15 H    ALA B  91      17.344   1.544  20.867  1.00 33.34 LIG 0.16  HD
ATOM     16 O    PRO B  90      15.767  -1.051  20.968  1.00 32.61 LIG-0.27  OA
BRANCH 14 17
ATOM     17  CA  ALA B  91      18.403  -0.124  20.686  1.00 34.79 LIG 0.18  C 
ATOM     18  CB  ALA B  91      19.444   0.624  19.826  1.00 34.67 LIG 0.04  C 
BRANCH 17 19
ATOM     19  C   ALA B  91      19.007  -0.519  22.037  1.00 35.98 LIG 0.20  C 
ATOM     20 OXT  ALA B  91      18.287  -0.832  23.000  1.00 36.84 LIG-0.65  OA
ATOM     21 O    ALA B  91      20.233  -0.514  22.193  1.00 37.03 LIG-0.65  OA
ENDBRANCH 17 19
ENDBRANCH 14 17
ENDBRANCH 10 13
ENDBRANCH 5 6
BRANCH 5 22
ATOM     22  CB  LEU B  89      13.862   1.951  17.095  1.00 30.14 LIG 0.04  C 
BRANCH 22 23
ATOM     23  CG  LEU B  89      14.666   2.073  15.798  1.00 30.45 LIG-0.02  C 
ATOM     24  CD1 LEU B  89      15.646   0.905  15.706  1.00 30.38 LIG 0.01  C 
ATOM     25  CD2 LEU B  89      13.736   2.134  14.584  1.00 30.79 LIG 0.01  C 
ENDBRANCH 22 23
ENDBRANCH 5 22
ENDBRANCH 3 5
BRANCH 1 26
ATOM     26  CA  PRO B  88      14.834   6.185  16.076  1.00 32.64 LIG 0.18  C 
ATOM     27  CB  PRO B  88      16.079   5.645  15.342  1.00 32.64 LIG 0.04  C 
ATOM     28  CG  PRO B  88      17.235   5.918  16.263  1.00 32.93 LIG 0.02  C 
ATOM     29  CD  PRO B  88      16.848   7.187  16.974  1.00 33.68 LIG 0.13  C 
ATOM     30  N   PRO B  88      15.390   7.040  17.131  1.00 34.22 LIG-0.34  N 
ATOM     31  C   GLY B  87      14.537   7.512  18.085  1.00 37.83 LIG 0.24  C 
ATOM     32 O    GLY B  87      13.337   7.224  18.111  1.00 36.70 LIG-0.27  OA
BRANCH 31 33
ATOM     33  CA  GLY B  87      15.102   8.429  19.164  1.00 40.95 LIG 0.23  C 
BRANCH 33 34
ATOM     34  N   GLY B  87      16.163   9.321  18.648  1.00 44.01 LIG-0.35  N 
ATOM     35 H    GLY B  87      16.935   9.203  19.009  1.00 44.01 LIG 0.16  HD
ATOM     36  C   PRO B  86      15.913  10.225  17.697  1.00 46.81 LIG 0.25  C 
ATOM     37 O    PRO B  86      14.803  10.359  17.187  1.00 48.58 LIG-0.27  OA
BRANCH 36 38
ATOM     38  CA  PRO B  86      17.061  11.122  17.201  1.00 48.28 LIG 0.35  C 
ATOM     39  N   PRO B  86      18.021  11.586  18.214  1.00 49.47 LIG 0.32  N 
ATOM     40  CD  PRO B  86      19.412  11.453  17.753  1.00 50.15 LIG 0.32  C 
ATOM     41  CG  PRO B  86      19.328  10.323  16.774  1.00 49.89 LIG 0.04  C 
ATOM     42  CB  PRO B  86      17.935  10.356  16.190  1.00 49.17 LIG 0.05  C 
ENDBRANCH 36 38
ENDBRANCH 33 34
ENDBRANCH 31 33
ENDBRANCH 1 26
TORSDOF 11
ENDMDL
MODEL 29
USER: ADFR SOLUTION from run 198
USER: SCORE 12.352649 LL:  -4.705 LR:  -9.526 RR:   0.000 FEB:  -6.245
USER: RMSD 5.892324
USER: SEED 197
USER: STATUS no improvement in best in 21 clusters for 5 generations
USER: GENES 13
USER: genes 0 Translation |==|  0.43742 0.38923 0.35054
USER: genes 1 Rotation |==|  0.13559 0.31164 0.37679 0.75797
USER: genes 2 Torsion [C]-N--CA-[CB] |==|  0.47423
USER: genes 3 Torsion [N]-CA--C-[N] |==|  0.83811
USER: genes 4 Torsion [N]-CA--C-[N] |==|  0.75099
USER: genes 5 Torsion [C]-N--CA-[CB] |==|  0.84946
USER: genes 6 Torsion [N]-CA--C-[OXT] |==|  0.29203
USER: genes 7 Torsion [N]-CA--CB-[CG] |==|  0.92276
USER: genes 8 Torsion [CA]-CB--CG-[CD2] |==|  0.22971
USER: genes 9 Torsion [O]-C--CA-[CB] |==|  0.71006
USER: genes 10 Torsion [N]-C--CA-[N] |==|  0.31462
USER: genes 11 Torsion [C]-CA--N-[C] |==|  0.23825
USER: genes 12 Torsion [N]-C--CA-[CB] |==|  0.54929
ROOT
ATOM      1  C   PRO B  88      16.175   2.153  16.235  1.00 31.41 LIG 0.24  C 
ATOM      2 O    PRO B  88      17.241   1.539  16.107  1.00 30.85 LIG-0.27  OA
ATOM      3  N   LEU B  89      16.097   3.428  16.602  1.00 29.89 LIG-0.35  N 
ATOM      4 H    LEU B  89      15.356   3.854  16.706  1.00 29.89 LIG 0.16  HD
ENDROOT
BRANCH 3 5
ATOM      5  CA  LEU B  89      17.289   4.222  16.862  1.00 30.22 LIG 0.18  C 
BRANCH 5 6
ATOM      6  C   LEU B  89      17.994   3.714  18.120  1.00 29.45 LIG 0.24  C 
ATOM      7 O    LEU B  89      19.157   3.325  18.061  1.00 27.07 LIG-0.27  OA
ATOM      8  N   PRO B  90      17.285   3.709  19.261  1.00 31.27 LIG-0.34  N 
ATOM      9  CD  PRO B  90      15.915   4.231  19.453  1.00 32.01 LIG 0.13  C 
ATOM     10  CA  PRO B  90      17.875   3.247  20.532  1.00 32.16 LIG 0.18  C 
ATOM     11  CG  PRO B  90      15.602   3.870  20.879  1.00 32.17 LIG 0.02  C 
ATOM     12  CB  PRO B  90      16.923   3.820  21.577  1.00 32.36 LIG 0.04  C 
BRANCH 10 13
ATOM     13  C   PRO B  90      17.975   1.721  20.672  1.00 32.74 LIG 0.24  C 
ATOM     14  N   ALA B  91      16.935   1.080  21.214  1.00 33.34 LIG-0.34  N 
ATOM     15 H    ALA B  91      16.238   1.478  21.522  1.00 33.34 LIG 0.16  HD
ATOM     16 O    PRO B  90      18.994   1.147  20.286  1.00 32.61 LIG-0.27  OA
BRANCH 14 17
ATOM     17  CA  ALA B  91      16.887  -0.388  21.332  1.00 34.79 LIG 0.18  C 
ATOM     18  CB  ALA B  91      17.126  -1.052  19.960  1.00 34.67 LIG 0.04  C 
BRANCH 17 19
ATOM     19  C   ALA B  91      17.912  -0.888  22.356  1.00 35.98 LIG 0.20  C 
ATOM     20 OXT  ALA B  91      17.562  -1.277  23.483  1.00 36.84 LIG-0.65  OA
ATOM     21 O    ALA B  91      19.115  -0.894  22.076  1.00 37.03 LIG-0.65  OA
ENDBRANCH 17 19
ENDBRANCH 14 17
ENDBRANCH 10 13
ENDBRANCH 5 6
BRANCH 5 22
ATOM     22  CB  LEU B  89      16.933   5.700  17.041  1.00 30.14 LIG 0.04  C 
BRANCH 22 23
ATOM     23  CG  LEU B  89      15.684   6.228  16.329  1.00 30.45 LIG-0.02  C 
ATOM     24  CD1 LEU B  89      15.617   5.626  14.927  1.00 30.38 LIG 0.01  C 
ATOM     25  CD2 LEU B  89      14.424   5.924  17.142  1.00 30.79 LIG 0.01  C 
ENDBRANCH 22 23
ENDBRANCH 5 22
ENDBRANCH 3 5
BRANCH 1 26
ATOM     26  CA  PRO B  88      14.852   1.458  15.939  1.00 32.64 LIG 0.18  C 
ATOM     27  CB  PRO B  88      14.273   1.921  14.585  1.00 32.64 LIG 0.04  C 
ATOM     28  CG  PRO B  88      13.146   2.853  14.931  1.00 32.93 LIG 0.02  C 
ATOM     29  CD  PRO B  88      12.602   2.311  16.225  1.00 33.68 LIG 0.13  C 
ATOM     30  N   PRO B  88      13.814   1.828  16.910  1.00 34.22 LIG-0.34  N 
ATOM     31  C   GLY B  87      14.118   1.727  18.236  1.00 37.83 LIG 0.24  C 
ATOM     32 O    GLY B  87      15.228   1.371  18.643  1.00 36.70 LIG-0.27  OA
BRANCH 31 33
ATOM     33  CA  GLY B  87      13.034   2.076  19.250  1.00 40.95 LIG 0.23  C 
BRANCH 33 34
ATOM     34  N   GLY B  87      12.586   0.899  20.025  1.00 44.01 LIG-0.35  N 
ATOM     35 H    GLY B  87      11.893   0.503  19.705  1.00 44.01 LIG 0.16  HD
ATOM     36  C   PRO B  86      13.227   0.505  21.129  1.00 46.81 LIG 0.25  C 
ATOM     37 O    PRO B  86      14.226   1.080  21.554  1.00 48.58 LIG-0.27  OA
BRANCH 36 38
ATOM     38  CA  PRO B  86      12.713  -0.730  21.890  1.00 48.28 LIG 0.35  C 
ATOM     39  N   PRO B  86      13.086  -2.044  21.344  1.00 49.47 LIG 0.32  N 
ATOM     40  CD  PRO B  86      13.540  -2.966  22.398  1.00 50.15 LIG 0.32  C 
ATOM     41  CG  PRO B  86      14.068  -2.036  23.445  1.00 49.89 LIG 0.04  C 
ATOM     42  CB  PRO B  86      13.284  -0.750  23.320  1.00 49.17 LIG 0.05  C 
ENDBRANCH 36 38
ENDBRANCH 33 34
ENDBRANCH 31 33
ENDBRANCH 1 26
TORSDOF 11
ENDMDL
MODEL 30
USER: ADFR SOLUTION from run 113
USER: SCORE 11.593676 LL:  -3.883 LR:  -9.520 RR:   0.000 FEB:  -6.238
USER: RMSD 9.205128
USER: SEED 112
USER: STATUS no improvement in best in 15 clusters for 5 generations
USER: GENES 13
USER: genes 0 Translation |==|  0.42167 0.37977 0.53678
USER: genes 1 Rotation |==|  0.65670 0.95090 0.35215 0.51663
USER: genes 2 Torsion [C]-N--CA-[CB] |==|  0.34436
USER: genes 3 Torsion [N]-CA--C-[N] |==|  0.21683
USER: genes 4 Torsion [N]-CA--C-[N] |==|  0.52543
USER: genes 5 Torsion [C]-N--CA-[CB] |==|  0.46611
USER: genes 6 Torsion [N]-CA--C-[OXT] |==|  0.45038
USER: genes 7 Torsion [N]-CA--CB-[CG] |==|  0.59418
USER: genes 8 Torsion [CA]-CB--CG-[CD2] |==|  0.33891
USER: genes 9 Torsion [O]-C--CA-[CB] |==|  0.72340
USER: genes 10 Torsion [N]-C--CA-[N] |==|  0.48317
USER: genes 11 Torsion [C]-CA--N-[C] |==|  0.79402
USER: genes 12 Torsion [N]-C--CA-[CB] |==|  0.81351
ROOT
ATOM      1  C   PRO B  88      15.821   1.997  19.308  1.00 31.41 LIG 0.24  C 
ATOM      2 O    PRO B  88      16.215   3.159  19.150  1.00 30.85 LIG-0.27  OA
ATOM      3  N   LEU B  89      14.907   1.416  18.537  1.00 29.89 LIG-0.35  N 
ATOM      4 H    LEU B  89      14.620   0.613  18.654  1.00 29.89 LIG 0.16  HD
ENDROOT
BRANCH 3 5
ATOM      5  CA  LEU B  89      14.306   2.112  17.408  1.00 30.22 LIG 0.18  C 
BRANCH 5 6
ATOM      6  C   LEU B  89      12.813   2.325  17.657  1.00 29.45 LIG 0.24  C 
ATOM      7 O    LEU B  89      11.987   1.604  17.105  1.00 27.07 LIG-0.27  OA
ATOM      8  N   PRO B  90      12.466   3.323  18.485  1.00 31.27 LIG-0.34  N 
ATOM      9  CD  PRO B  90      13.381   4.189  19.259  1.00 32.01 LIG 0.13  C 
ATOM     10  CA  PRO B  90      11.052   3.606  18.799  1.00 32.16 LIG 0.18  C 
ATOM     11  CG  PRO B  90      12.454   5.176  19.914  1.00 32.17 LIG 0.02  C 
ATOM     12  CB  PRO B  90      11.148   4.463  20.058  1.00 32.36 LIG 0.04  C 
BRANCH 10 13
ATOM     13  C   PRO B  90      10.289   4.353  17.695  1.00 32.74 LIG 0.24  C 
ATOM     14  N   ALA B  91       9.065   4.805  17.984  1.00 33.34 LIG-0.34  N 
ATOM     15 H    ALA B  91       8.672   4.664  18.736  1.00 33.34 LIG 0.16  HD
ATOM     16 O    PRO B  90      10.823   4.510  16.596  1.00 32.61 LIG-0.27  OA
BRANCH 14 17
ATOM     17  CA  ALA B  91       8.270   5.597  17.031  1.00 34.79 LIG 0.18  C 
ATOM     18  CB  ALA B  91       6.808   5.716  17.510  1.00 34.67 LIG 0.04  C 
BRANCH 17 19
ATOM     19  C   ALA B  91       8.883   6.986  16.827  1.00 35.98 LIG 0.20  C 
ATOM     20 OXT  ALA B  91       8.583   7.687  15.846  1.00 36.84 LIG-0.65  OA
ATOM     21 O    ALA B  91       9.708   7.424  17.636  1.00 37.03 LIG-0.65  OA
ENDBRANCH 17 19
ENDBRANCH 14 17
ENDBRANCH 10 13
ENDBRANCH 5 6
BRANCH 5 22
ATOM     22  CB  LEU B  89      14.498   1.317  16.113  1.00 30.14 LIG 0.04  C 
BRANCH 22 23
ATOM     23  CG  LEU B  89      14.690   2.101  14.812  1.00 30.45 LIG-0.02  C 
ATOM     24  CD1 LEU B  89      14.603   3.595  15.113  1.00 30.38 LIG 0.01  C 
ATOM     25  CD2 LEU B  89      16.014   1.729  14.142  1.00 30.79 LIG 0.01  C 
ENDBRANCH 22 23
ENDBRANCH 5 22
ENDBRANCH 3 5
BRANCH 1 26
ATOM     26  CA  PRO B  88      16.407   1.135  20.419  1.00 32.64 LIG 0.18  C 
ATOM     27  CB  PRO B  88      17.485   0.178  19.867  1.00 32.64 LIG 0.04  C 
ATOM     28  CG  PRO B  88      16.833  -1.176  19.829  1.00 32.93 LIG 0.02  C 
ATOM     29  CD  PRO B  88      15.876  -1.158  20.990  1.00 33.68 LIG 0.13  C 
ATOM     30  N   PRO B  88      15.401   0.237  20.999  1.00 34.22 LIG-0.34  N 
ATOM     31  C   GLY B  87      14.216   0.781  21.397  1.00 37.83 LIG 0.24  C 
ATOM     32 O    GLY B  87      13.949   1.979  21.259  1.00 36.70 LIG-0.27  OA
BRANCH 31 33
ATOM     33  CA  GLY B  87      13.180  -0.140  22.032  1.00 40.95 LIG 0.23  C 
BRANCH 33 34
ATOM     34  N   GLY B  87      12.006   0.600  22.544  1.00 44.01 LIG-0.35  N 
ATOM     35 H    GLY B  87      11.296   0.517  22.066  1.00 44.01 LIG 0.16  HD
ATOM     36  C   PRO B  86      12.074   1.330  23.661  1.00 46.81 LIG 0.25  C 
ATOM     37 O    PRO B  86      13.099   1.416  24.333  1.00 48.58 LIG-0.27  OA
BRANCH 36 38
ATOM     38  CA  PRO B  86      10.817   2.074  24.143  1.00 48.28 LIG 0.35  C 
ATOM     39  N   PRO B  86      10.915   2.766  25.438  1.00 49.47 LIG 0.32  N 
ATOM     40  CD  PRO B  86      10.337   4.118  25.382  1.00 50.15 LIG 0.32  C 
ATOM     41  CG  PRO B  86      10.498   4.486  23.939  1.00 49.89 LIG 0.04  C 
ATOM     42  CB  PRO B  86      10.451   3.196  23.154  1.00 49.17 LIG 0.05  C 
ENDBRANCH 36 38
ENDBRANCH 33 34
ENDBRANCH 31 33
ENDBRANCH 1 26
TORSDOF 11
ENDMDL
MODEL 31
USER: ADFR SOLUTION from run 157
USER: SCORE 11.608439 LL:  -3.376 LR:  -9.512 RR:   0.000 FEB:  -6.230
USER: RMSD 4.365626
USER: SEED 156
USER: STATUS no improvement in best in 24 clusters for 5 generations
USER: GENES 13
USER: genes 0 Translation |==|  0.38672 0.37326 0.50866
USER: genes 1 Rotation |==|  0.22398 0.74616 0.50045 0.83648
USER: genes 2 Torsion [C]-N--CA-[CB] |==|  0.18362
USER: genes 3 Torsion [N]-CA--C-[N] |==|  0.85939
USER: genes 4 Torsion [N]-CA--C-[N] |==|  0.97657
USER: genes 5 Torsion [C]-N--CA-[CB] |==|  0.20984
USER: genes 6 Torsion [N]-CA--C-[OXT] |==|  0.18956
USER: genes 7 Torsion [N]-CA--CB-[CG] |==|  0.66111
USER: genes 8 Torsion [CA]-CB--CG-[CD2] |==|  0.31411
USER: genes 9 Torsion [O]-C--CA-[CB] |==|  0.20894
USER: genes 10 Torsion [N]-C--CA-[N] |==|  0.78889
USER: genes 11 Torsion [C]-CA--N-[C] |==|  0.74392
USER: genes 12 Torsion [N]-C--CA-[CB] |==|  0.28521
ROOT
ATOM      1  C   PRO B  88      15.034   1.890  18.844  1.00 31.41 LIG 0.24  C 
ATOM      2 O    PRO B  88      14.278   1.684  17.887  1.00 30.85 LIG-0.27  OA
ATOM      3  N   LEU B  89      16.329   2.162  18.717  1.00 29.89 LIG-0.35  N 
ATOM      4 H    LEU B  89      16.861   2.291  19.381  1.00 29.89 LIG 0.16  HD
ENDROOT
BRANCH 3 5
ATOM      5  CA  LEU B  89      16.963   2.265  17.410  1.00 30.22 LIG 0.18  C 
BRANCH 5 6
ATOM      6  C   LEU B  89      18.477   2.403  17.570  1.00 29.45 LIG 0.24  C 
ATOM      7 O    LEU B  89      19.233   1.666  16.944  1.00 27.07 LIG-0.27  OA
ATOM      8  N   PRO B  90      18.920   3.345  18.418  1.00 31.27 LIG-0.34  N 
ATOM      9  CD  PRO B  90      18.099   4.333  19.151  1.00 32.01 LIG 0.13  C 
ATOM     10  CA  PRO B  90      20.363   3.566  18.637  1.00 32.16 LIG 0.18  C 
ATOM     11  CG  PRO B  90      19.103   5.049  20.012  1.00 32.17 LIG 0.02  C 
ATOM     12  CB  PRO B  90      20.401   4.951  19.278  1.00 32.36 LIG 0.04  C 
BRANCH 10 13
ATOM     13  C   PRO B  90      21.036   2.531  19.549  1.00 32.74 LIG 0.24  C 
ATOM     14  N   ALA B  91      20.248   1.658  20.184  1.00 33.34 LIG-0.34  N 
ATOM     15 H    ALA B  91      19.390   1.673  20.139  1.00 33.34 LIG 0.16  HD
ATOM     16 O    PRO B  90      22.263   2.539  19.664  1.00 32.61 LIG-0.27  OA
BRANCH 14 17
ATOM     17  CA  ALA B  91      20.786   0.576  21.026  1.00 34.79 LIG 0.18  C 
ATOM     18  CB  ALA B  91      21.278   1.134  22.378  1.00 34.67 LIG 0.04  C 
BRANCH 17 19
ATOM     19  C   ALA B  91      19.738  -0.519  21.246  1.00 35.98 LIG 0.20  C 
ATOM     20 OXT  ALA B  91      19.359  -1.248  20.314  1.00 36.84 LIG-0.65  OA
ATOM     21 O    ALA B  91      19.237  -0.682  22.365  1.00 37.03 LIG-0.65  OA
ENDBRANCH 17 19
ENDBRANCH 14 17
ENDBRANCH 10 13
ENDBRANCH 5 6
BRANCH 5 22
ATOM     22  CB  LEU B  89      16.421   3.468  16.634  1.00 30.14 LIG 0.04  C 
BRANCH 22 23
ATOM     23  CG  LEU B  89      15.775   3.211  15.270  1.00 30.45 LIG-0.02  C 
ATOM     24  CD1 LEU B  89      16.051   1.769  14.852  1.00 30.38 LIG 0.01  C 
ATOM     25  CD2 LEU B  89      14.276   3.517  15.310  1.00 30.79 LIG 0.01  C 
ENDBRANCH 22 23
ENDBRANCH 5 22
ENDBRANCH 3 5
BRANCH 1 26
ATOM     26  CA  PRO B  88      14.490   1.868  20.267  1.00 32.64 LIG 0.18  C 
ATOM     27  CB  PRO B  88      14.224   0.423  20.737  1.00 32.64 LIG 0.04  C 
ATOM     28  CG  PRO B  88      12.731   0.256  20.685  1.00 32.93 LIG 0.02  C 
ATOM     29  CD  PRO B  88      12.195   1.626  21.001  1.00 33.68 LIG 0.13  C 
ATOM     30  N   PRO B  88      13.176   2.516  20.356  1.00 34.22 LIG-0.34  N 
ATOM     31  C   GLY B  87      13.041   3.761  19.816  1.00 37.83 LIG 0.24  C 
ATOM     32 O    GLY B  87      13.962   4.341  19.233  1.00 36.70 LIG-0.27  OA
BRANCH 31 33
ATOM     33  CA  GLY B  87      11.688   4.453  19.935  1.00 40.95 LIG 0.23  C 
BRANCH 33 34
ATOM     34  N   GLY B  87      10.689   3.906  18.991  1.00 44.01 LIG-0.35  N 
ATOM     35 H    GLY B  87      10.248   3.231  19.290  1.00 44.01 LIG 0.16  HD
ATOM     36  C   PRO B  86      10.509   4.439  17.779  1.00 46.81 LIG 0.25  C 
ATOM     37 O    PRO B  86      11.144   5.415  17.385  1.00 48.58 LIG-0.27  OA
BRANCH 36 38
ATOM     38  CA  PRO B  86       9.453   3.825  16.844  1.00 48.28 LIG 0.35  C 
ATOM     39  N   PRO B  86       8.952   2.489  17.201  1.00 49.47 LIG 0.32  N 
ATOM     40  CD  PRO B  86       7.487   2.405  17.087  1.00 50.15 LIG 0.32  C 
ATOM     41  CG  PRO B  86       7.057   3.821  17.311  1.00 49.89 LIG 0.04  C 
ATOM     42  CB  PRO B  86       8.186   4.701  16.826  1.00 49.17 LIG 0.05  C 
ENDBRANCH 36 38
ENDBRANCH 33 34
ENDBRANCH 31 33
ENDBRANCH 1 26
TORSDOF 11
ENDMDL
MODEL 32
USER: ADFR SOLUTION from run 155
USER: SCORE 11.700134 LL:  -3.516 LR:  -9.513 RR:   0.000 FEB:  -6.232
USER: RMSD 5.079129
USER: SEED 154
USER: STATUS no improvement in best in 12 clusters for 5 generations
USER: GENES 13
USER: genes 0 Translation |==|  0.42505 0.38244 0.43843
USER: genes 1 Rotation |==|  0.66503 0.45259 0.66323 0.94031
USER: genes 2 Torsion [C]-N--CA-[CB] |==|  0.53871
USER: genes 3 Torsion [N]-CA--C-[N] |==|  0.81947
USER: genes 4 Torsion [N]-CA--C-[N] |==|  0.09198
USER: genes 5 Torsion [C]-N--CA-[CB] |==|  0.22699
USER: genes 6 Torsion [N]-CA--C-[OXT] |==|  0.11363
USER: genes 7 Torsion [N]-CA--CB-[CG] |==|  0.79417
USER: genes 8 Torsion [CA]-CB--CG-[CD2] |==|  0.37410
USER: genes 9 Torsion [O]-C--CA-[CB] |==|  0.27115
USER: genes 10 Torsion [N]-C--CA-[N] |==|  0.49115
USER: genes 11 Torsion [C]-CA--N-[C] |==|  0.34960
USER: genes 12 Torsion [N]-C--CA-[CB] |==|  0.80409
ROOT
ATOM      1  C   PRO B  88      15.897   2.041  17.685  1.00 31.41 LIG 0.24  C 
ATOM      2 O    PRO B  88      15.480   3.179  17.933  1.00 30.85 LIG-0.27  OA
ATOM      3  N   LEU B  89      16.735   1.375  18.472  1.00 29.89 LIG-0.35  N 
ATOM      4 H    LEU B  89      17.038   0.589  18.296  1.00 29.89 LIG 0.16  HD
ENDROOT
BRANCH 3 5
ATOM      5  CA  LEU B  89      17.216   1.938  19.726  1.00 30.22 LIG 0.18  C 
BRANCH 5 6
ATOM      6  C   LEU B  89      17.629   3.396  19.522  1.00 29.45 LIG 0.24  C 
ATOM      7 O    LEU B  89      17.010   4.296  20.083  1.00 27.07 LIG-0.27  OA
ATOM      8  N   PRO B  90      18.672   3.630  18.710  1.00 31.27 LIG-0.34  N 
ATOM      9  CD  PRO B  90      19.530   2.618  18.058  1.00 32.01 LIG 0.13  C 
ATOM     10  CA  PRO B  90      19.155   5.001  18.454  1.00 32.16 LIG 0.18  C 
ATOM     11  CG  PRO B  90      20.451   3.443  17.201  1.00 32.17 LIG 0.02  C 
ATOM     12  CB  PRO B  90      20.552   4.768  17.885  1.00 32.36 LIG 0.04  C 
BRANCH 10 13
ATOM     13  C   PRO B  90      18.299   5.807  17.467  1.00 32.74 LIG 0.24  C 
ATOM     14  N   ALA B  91      16.982   5.576  17.457  1.00 33.34 LIG-0.34  N 
ATOM     15 H    ALA B  91      16.601   4.975  17.940  1.00 33.34 LIG 0.16  HD
ATOM     16 O    PRO B  90      18.844   6.629  16.729  1.00 32.61 LIG-0.27  OA
BRANCH 14 17
ATOM     17  CA  ALA B  91      16.054   6.339  16.605  1.00 34.79 LIG 0.18  C 
ATOM     18  CB  ALA B  91      16.047   5.775  15.168  1.00 34.67 LIG 0.04  C 
BRANCH 17 19
ATOM     19  C   ALA B  91      14.639   6.329  17.193  1.00 35.98 LIG 0.20  C 
ATOM     20 OXT  ALA B  91      14.445   6.456  18.413  1.00 36.84 LIG-0.65  OA
ATOM     21 O    ALA B  91      13.661   6.176  16.452  1.00 37.03 LIG-0.65  OA
ENDBRANCH 17 19
ENDBRANCH 14 17
ENDBRANCH 10 13
ENDBRANCH 5 6
BRANCH 5 22
ATOM     22  CB  LEU B  89      18.409   1.141  20.260  1.00 30.14 LIG 0.04  C 
BRANCH 22 23
ATOM     23  CG  LEU B  89      18.136  -0.233  20.876  1.00 30.45 LIG-0.02  C 
ATOM     24  CD1 LEU B  89      16.696  -0.638  20.574  1.00 30.38 LIG 0.01  C 
ATOM     25  CD2 LEU B  89      19.140  -1.269  20.366  1.00 30.79 LIG 0.01  C 
ENDBRANCH 22 23
ENDBRANCH 5 22
ENDBRANCH 3 5
BRANCH 1 26
ATOM     26  CA  PRO B  88      15.429   1.311  16.432  1.00 32.64 LIG 0.18  C 
ATOM     27  CB  PRO B  88      16.457   1.454  15.291  1.00 32.64 LIG 0.04  C 
ATOM     28  CG  PRO B  88      15.860   2.453  14.339  1.00 32.93 LIG 0.02  C 
ATOM     29  CD  PRO B  88      14.376   2.230  14.454  1.00 33.68 LIG 0.13  C 
ATOM     30  N   PRO B  88      14.205   1.906  15.881  1.00 34.22 LIG-0.34  N 
ATOM     31  C   GLY B  87      13.158   2.109  16.731  1.00 37.83 LIG 0.24  C 
ATOM     32 O    GLY B  87      13.212   1.845  17.936  1.00 36.70 LIG-0.27  OA
BRANCH 31 33
ATOM     33  CA  GLY B  87      11.872   2.694  16.158  1.00 40.95 LIG 0.23  C 
BRANCH 33 34
ATOM     34  N   GLY B  87      10.797   2.792  17.170  1.00 44.01 LIG-0.35  N 
ATOM     35 H    GLY B  87      10.622   2.054  17.576  1.00 44.01 LIG 0.16  HD
ATOM     36  C   PRO B  86      10.167   3.945  17.411  1.00 46.81 LIG 0.25  C 
ATOM     37 O    PRO B  86      10.451   4.988  16.826  1.00 48.58 LIG-0.27  OA
BRANCH 36 38
ATOM     38  CA  PRO B  86       9.060   3.981  18.478  1.00 48.28 LIG 0.35  C 
ATOM     39  N   PRO B  86       8.536   5.308  18.841  1.00 49.47 LIG 0.32  N 
ATOM     40  CD  PRO B  86       7.065   5.314  18.914  1.00 50.15 LIG 0.32  C 
ATOM     41  CG  PRO B  86       6.684   4.217  17.970  1.00 49.89 LIG 0.04  C 
ATOM     42  CB  PRO B  86       7.818   3.218  17.981  1.00 49.17 LIG 0.05  C 
ENDBRANCH 36 38
ENDBRANCH 33 34
ENDBRANCH 31 33
ENDBRANCH 1 26
TORSDOF 11
ENDMDL
MODEL 33
USER: ADFR SOLUTION from run 85
USER: SCORE 11.666811 LL:  -2.997 LR:  -9.490 RR:   0.000 FEB:  -6.209
USER: RMSD 9.627985
USER: SEED 84
USER: STATUS no improvement in best in 19 clusters for 5 generations
USER: GENES 13
USER: genes 0 Translation |==|  0.53096 0.41603 0.46891
USER: genes 1 Rotation |==|  0.43893 0.01957 0.62082 0.52933
USER: genes 2 Torsion [C]-N--CA-[CB] |==|  0.53352
USER: genes 3 Torsion [N]-CA--C-[N] |==|  0.32501
USER: genes 4 Torsion [N]-CA--C-[N] |==|  0.28900
USER: genes 5 Torsion [C]-N--CA-[CB] |==|  0.78999
USER: genes 6 Torsion [N]-CA--C-[OXT] |==|  0.13231
USER: genes 7 Torsion [N]-CA--CB-[CG] |==|  0.55872
USER: genes 8 Torsion [CA]-CB--CG-[CD2] |==|  0.04925
USER: genes 9 Torsion [O]-C--CA-[CB] |==|  0.24578
USER: genes 10 Torsion [N]-C--CA-[N] |==|  0.38434
USER: genes 11 Torsion [C]-CA--N-[C] |==|  0.28550
USER: genes 12 Torsion [N]-C--CA-[CB] |==|  0.58102
ROOT
ATOM      1  C   PRO B  88      18.280   2.596  18.188  1.00 31.41 LIG 0.24  C 
ATOM      2 O    PRO B  88      18.247   3.832  18.202  1.00 30.85 LIG-0.27  OA
ATOM      3  N   LEU B  89      17.410   1.842  17.524  1.00 29.89 LIG-0.35  N 
ATOM      4 H    LEU B  89      17.421   0.981  17.524  1.00 29.89 LIG 0.16  HD
ENDROOT
BRANCH 3 5
ATOM      5  CA  LEU B  89      16.344   2.430  16.724  1.00 30.22 LIG 0.18  C 
BRANCH 5 6
ATOM      6  C   LEU B  89      15.643   3.534  17.515  1.00 29.45 LIG 0.24  C 
ATOM      7 O    LEU B  89      15.040   3.264  18.549  1.00 27.07 LIG-0.27  OA
ATOM      8  N   PRO B  90      15.717   4.782  17.024  1.00 31.27 LIG-0.34  N 
ATOM      9  CD  PRO B  90      16.485   5.222  15.840  1.00 32.01 LIG 0.13  C 
ATOM     10  CA  PRO B  90      15.083   5.920  17.717  1.00 32.16 LIG 0.18  C 
ATOM     11  CG  PRO B  90      16.117   6.675  15.708  1.00 32.17 LIG 0.02  C 
ATOM     12  CB  PRO B  90      15.775   7.128  17.091  1.00 32.36 LIG 0.04  C 
BRANCH 10 13
ATOM     13  C   PRO B  90      13.562   6.014  17.531  1.00 32.74 LIG 0.24  C 
ATOM     14  N   ALA B  91      12.788   5.634  18.552  1.00 33.34 LIG-0.34  N 
ATOM     15 H    ALA B  91      13.095   5.304  19.284  1.00 33.34 LIG 0.16  HD
ATOM     16 O    PRO B  90      13.111   6.432  16.463  1.00 32.61 LIG-0.27  OA
BRANCH 14 17
ATOM     17  CA  ALA B  91      11.320   5.749  18.515  1.00 34.79 LIG 0.18  C 
ATOM     18  CB  ALA B  91      10.884   7.216  18.715  1.00 34.67 LIG 0.04  C 
BRANCH 17 19
ATOM     19  C   ALA B  91      10.760   5.196  17.201  1.00 35.98 LIG 0.20  C 
ATOM     20 OXT  ALA B  91      11.124   4.095  16.756  1.00 36.84 LIG-0.65  OA
ATOM     21 O    ALA B  91       9.943   5.856  16.550  1.00 37.03 LIG-0.65  OA
ENDBRANCH 17 19
ENDBRANCH 14 17
ENDBRANCH 10 13
ENDBRANCH 5 6
BRANCH 5 22
ATOM     22  CB  LEU B  89      15.320   1.368  16.315  1.00 30.14 LIG 0.04  C 
BRANCH 22 23
ATOM     23  CG  LEU B  89      14.429   1.660  15.104  1.00 30.45 LIG-0.02  C 
ATOM     24  CD1 LEU B  89      13.020   1.991  15.590  1.00 30.38 LIG 0.01  C 
ATOM     25  CD2 LEU B  89      15.019   2.786  14.253  1.00 30.79 LIG 0.01  C 
ENDBRANCH 22 23
ENDBRANCH 5 22
ENDBRANCH 3 5
BRANCH 1 26
ATOM     26  CA  PRO B  88      19.377   1.851  18.937  1.00 32.64 LIG 0.18  C 
ATOM     27  CB  PRO B  88      18.964   1.578  20.399  1.00 32.64 LIG 0.04  C 
ATOM     28  CG  PRO B  88      19.744   2.562  21.224  1.00 32.93 LIG 0.02  C 
ATOM     29  CD  PRO B  88      21.032   2.740  20.466  1.00 33.68 LIG 0.13  C 
ATOM     30  N   PRO B  88      20.596   2.659  19.061  1.00 34.22 LIG-0.34  N 
ATOM     31  C   GLY B  87      21.099   3.231  17.929  1.00 37.83 LIG 0.24  C 
ATOM     32 O    GLY B  87      20.555   3.121  16.826  1.00 36.70 LIG-0.27  OA
BRANCH 31 33
ATOM     33  CA  GLY B  87      22.384   4.043  18.044  1.00 40.95 LIG 0.23  C 
BRANCH 33 34
ATOM     34  N   GLY B  87      23.314   3.789  16.922  1.00 44.01 LIG-0.35  N 
ATOM     35 H    GLY B  87      23.748   3.049  16.979  1.00 44.01 LIG 0.16  HD
ATOM     36  C   PRO B  86      23.447   4.657  15.915  1.00 46.81 LIG 0.25  C 
ATOM     37 O    PRO B  86      22.800   5.700  15.852  1.00 48.58 LIG-0.27  OA
BRANCH 36 38
ATOM     38  CA  PRO B  86      24.429   4.334  14.777  1.00 48.28 LIG 0.35  C 
ATOM     39  N   PRO B  86      23.883   3.606  13.621  1.00 49.47 LIG 0.32  N 
ATOM     40  CD  PRO B  86      24.333   4.187  12.345  1.00 50.15 LIG 0.32  C 
ATOM     41  CG  PRO B  86      24.588   5.617  12.706  1.00 49.89 LIG 0.04  C 
ATOM     42  CB  PRO B  86      24.982   5.635  14.165  1.00 49.17 LIG 0.05  C 
ENDBRANCH 36 38
ENDBRANCH 33 34
ENDBRANCH 31 33
ENDBRANCH 1 26
TORSDOF 11
ENDMDL
MODEL 34
USER: ADFR SOLUTION from run 157
USER: SCORE 11.864994 LL:  -3.231 LR:  -9.476 RR:   0.000 FEB:  -6.195
USER: RMSD 10.331492
USER: SEED 156
USER: STATUS no improvement in best in 24 clusters for 5 generations
USER: GENES 13
USER: genes 0 Translation |==|  0.35255 0.53948 0.35217
USER: genes 1 Rotation |==|  0.51106 0.18781 0.70187 0.83416
USER: genes 2 Torsion [C]-N--CA-[CB] |==|  0.85896
USER: genes 3 Torsion [N]-CA--C-[N] |==|  0.36517
USER: genes 4 Torsion [N]-CA--C-[N] |==|  0.78663
USER: genes 5 Torsion [C]-N--CA-[CB] |==|  0.50680
USER: genes 6 Torsion [N]-CA--C-[OXT] |==|  0.78318
USER: genes 7 Torsion [N]-CA--CB-[CG] |==|  0.43179
USER: genes 8 Torsion [CA]-CB--CG-[CD2] |==|  0.52669
USER: genes 9 Torsion [O]-C--CA-[CB] |==|  0.61876
USER: genes 10 Torsion [N]-C--CA-[N] |==|  0.82914
USER: genes 11 Torsion [C]-CA--N-[C] |==|  0.32220
USER: genes 12 Torsion [N]-C--CA-[CB] |==|  0.56920
ROOT
ATOM      1  C   PRO B  88      14.265   4.632  16.262  1.00 31.41 LIG 0.24  C 
ATOM      2 O    PRO B  88      14.096   5.817  15.948  1.00 30.85 LIG-0.27  OA
ATOM      3  N   LEU B  89      13.613   4.030  17.251  1.00 29.89 LIG-0.35  N 
ATOM      4 H    LEU B  89      13.739   3.211  17.481  1.00 29.89 LIG 0.16  HD
ENDROOT
BRANCH 3 5
ATOM      5  CA  LEU B  89      12.610   4.730  18.041  1.00 30.22 LIG 0.18  C 
BRANCH 5 6
ATOM      6  C   LEU B  89      11.363   4.989  17.196  1.00 29.45 LIG 0.24  C 
ATOM      7 O    LEU B  89      11.469   5.481  16.076  1.00 27.07 LIG-0.27  OA
ATOM      8  N   PRO B  90      10.178   4.663  17.736  1.00 31.27 LIG-0.34  N 
ATOM      9  CD  PRO B  90       9.951   3.993  19.033  1.00 32.01 LIG 0.13  C 
ATOM     10  CA  PRO B  90       8.915   4.864  16.998  1.00 32.16 LIG 0.18  C 
ATOM     11  CG  PRO B  90       8.452   3.981  19.162  1.00 32.17 LIG 0.02  C 
ATOM     12  CB  PRO B  90       7.932   3.981  17.760  1.00 32.36 LIG 0.04  C 
BRANCH 10 13
ATOM     13  C   PRO B  90       8.419   6.317  16.964  1.00 32.74 LIG 0.24  C 
ATOM     14  N   ALA B  91       7.838   6.800  18.066  1.00 33.34 LIG-0.34  N 
ATOM     15 H    ALA B  91       7.692   6.329  18.771  1.00 33.34 LIG 0.16  HD
ATOM     16 O    PRO B  90       8.573   6.981  15.938  1.00 32.61 LIG-0.27  OA
BRANCH 14 17
ATOM     17  CA  ALA B  91       7.390   8.198  18.175  1.00 34.79 LIG 0.18  C 
ATOM     18  CB  ALA B  91       6.814   8.477  19.580  1.00 34.67 LIG 0.04  C 
BRANCH 17 19
ATOM     19  C   ALA B  91       8.535   9.166  17.861  1.00 35.98 LIG 0.20  C 
ATOM     20 OXT  ALA B  91       9.420   9.413  18.698  1.00 36.84 LIG-0.65  OA
ATOM     21 O    ALA B  91       8.583   9.735  16.765  1.00 37.03 LIG-0.65  OA
ENDBRANCH 17 19
ENDBRANCH 14 17
ENDBRANCH 10 13
ENDBRANCH 5 6
BRANCH 5 22
ATOM     22  CB  LEU B  89      13.158   6.062  18.562  1.00 30.14 LIG 0.04  C 
BRANCH 22 23
ATOM     23  CG  LEU B  89      12.154   7.168  18.897  1.00 30.45 LIG-0.02  C 
ATOM     24  CD1 LEU B  89      11.302   6.726  20.084  1.00 30.38 LIG 0.01  C 
ATOM     25  CD2 LEU B  89      12.872   8.491  19.171  1.00 30.79 LIG 0.01  C 
ENDBRANCH 22 23
ENDBRANCH 5 22
ENDBRANCH 3 5
BRANCH 1 26
ATOM     26  CA  PRO B  88      15.246   3.767  15.480  1.00 32.64 LIG 0.18  C 
ATOM     27  CB  PRO B  88      14.657   2.366  15.212  1.00 32.64 LIG 0.04  C 
ATOM     28  CG  PRO B  88      15.363   1.446  16.168  1.00 32.93 LIG 0.02  C 
ATOM     29  CD  PRO B  88      16.736   2.047  16.312  1.00 33.68 LIG 0.13  C 
ATOM     30  N   PRO B  88      16.465   3.494  16.252  1.00 34.22 LIG-0.34  N 
ATOM     31  C   GLY B  87      17.113   4.554  16.814  1.00 37.83 LIG 0.24  C 
ATOM     32 O    GLY B  87      16.699   5.715  16.728  1.00 36.70 LIG-0.27  OA
BRANCH 31 33
ATOM     33  CA  GLY B  87      18.398   4.283  17.588  1.00 40.95 LIG 0.23  C 
BRANCH 33 34
ATOM     34  N   GLY B  87      18.179   3.399  18.754  1.00 44.01 LIG-0.35  N 
ATOM     35 H    GLY B  87      17.668   3.731  19.362  1.00 44.01 LIG 0.16  HD
ATOM     36  C   PRO B  86      18.741   2.189  18.829  1.00 46.81 LIG 0.25  C 
ATOM     37 O    PRO B  86      19.453   1.735  17.937  1.00 48.58 LIG-0.27  OA
BRANCH 36 38
ATOM     38  CA  PRO B  86      18.471   1.318  20.067  1.00 48.28 LIG 0.35  C 
ATOM     39  N   PRO B  86      17.268   0.471  20.030  1.00 49.47 LIG 0.32  N 
ATOM     40  CD  PRO B  86      17.544  -0.894  20.507  1.00 50.15 LIG 0.32  C 
ATOM     41  CG  PRO B  86      19.000  -1.062  20.201  1.00 49.89 LIG 0.04  C 
ATOM     42  CB  PRO B  86      19.621   0.313  20.272  1.00 49.17 LIG 0.05  C 
ENDBRANCH 36 38
ENDBRANCH 33 34
ENDBRANCH 31 33
ENDBRANCH 1 26
TORSDOF 11
ENDMDL
MODEL 35
USER: ADFR SOLUTION from run 4
USER: SCORE 11.899356 LL:  -2.820 LR:  -9.467 RR:   0.000 FEB:  -6.186
USER: RMSD 6.298972
USER: SEED 970834
USER: STATUS no improvement in best in 15 clusters for 5 generations
USER: GENES 13
USER: genes 0 Translation |==|  0.41977 0.36357 0.46299
USER: genes 1 Rotation |==|  0.79560 0.73740 0.81826 0.57048
USER: genes 2 Torsion [C]-N--CA-[CB] |==|  0.17777
USER: genes 3 Torsion [N]-CA--C-[N] |==|  0.10257
USER: genes 4 Torsion [N]-CA--C-[N] |==|  0.62342
USER: genes 5 Torsion [C]-N--CA-[CB] |==|  0.29410
USER: genes 6 Torsion [N]-CA--C-[OXT] |==|  0.78918
USER: genes 7 Torsion [N]-CA--CB-[CG] |==|  0.08417
USER: genes 8 Torsion [CA]-CB--CG-[CD2] |==|  0.59544
USER: genes 9 Torsion [O]-C--CA-[CB] |==|  0.62334
USER: genes 10 Torsion [N]-C--CA-[N] |==|  0.46970
USER: genes 11 Torsion [C]-CA--N-[C] |==|  0.36708
USER: genes 12 Torsion [N]-C--CA-[CB] |==|  0.66324
ROOT
ATOM      1  C   PRO B  88      15.778   1.730  18.090  1.00 31.41 LIG 0.24  C 
ATOM      2 O    PRO B  88      15.584   1.217  19.199  1.00 30.85 LIG-0.27  OA
ATOM      3  N   LEU B  89      16.377   2.903  17.914  1.00 29.89 LIG-0.35  N 
ATOM      4 H    LEU B  89      16.500   3.269  17.145  1.00 29.89 LIG 0.16  HD
ENDROOT
BRANCH 3 5
ATOM      5  CA  LEU B  89      16.882   3.679  19.038  1.00 30.22 LIG 0.18  C 
BRANCH 5 6
ATOM      6  C   LEU B  89      17.400   5.032  18.551  1.00 29.45 LIG 0.24  C 
ATOM      7 O    LEU B  89      18.393   5.535  19.070  1.00 27.07 LIG-0.27  OA
ATOM      8  N   PRO B  90      16.722   5.627  17.557  1.00 31.27 LIG-0.34  N 
ATOM      9  CD  PRO B  90      15.572   5.070  16.814  1.00 32.01 LIG 0.13  C 
ATOM     10  CA  PRO B  90      17.145   6.930  17.009  1.00 32.16 LIG 0.18  C 
ATOM     11  CG  PRO B  90      15.163   6.198  15.907  1.00 32.17 LIG 0.02  C 
ATOM     12  CB  PRO B  90      16.408   6.993  15.674  1.00 32.36 LIG 0.04  C 
BRANCH 10 13
ATOM     13  C   PRO B  90      16.782   8.139  17.883  1.00 32.74 LIG 0.24  C 
ATOM     14  N   ALA B  91      16.269   9.212  17.273  1.00 33.34 LIG-0.34  N 
ATOM     15 H    ALA B  91      16.172   9.274  16.421  1.00 33.34 LIG 0.16  HD
ATOM     16 O    PRO B  90      16.971   8.081  19.098  1.00 32.61 LIG-0.27  OA
BRANCH 14 17
ATOM     17  CA  ALA B  91      15.817  10.401  18.016  1.00 34.79 LIG 0.18  C 
ATOM     18  CB  ALA B  91      16.820  11.562  17.846  1.00 34.67 LIG 0.04  C 
BRANCH 17 19
ATOM     19  C   ALA B  91      14.417  10.830  17.564  1.00 35.98 LIG 0.20  C 
ATOM     20 OXT  ALA B  91      14.239  11.422  16.487  1.00 36.84 LIG-0.65  OA
ATOM     21 O    ALA B  91      13.438  10.604  18.283  1.00 37.03 LIG-0.65  OA
ENDBRANCH 17 19
ENDBRANCH 14 17
ENDBRANCH 10 13
ENDBRANCH 5 6
BRANCH 5 22
ATOM     22  CB  LEU B  89      18.009   2.930  19.754  1.00 30.14 LIG 0.04  C 
BRANCH 22 23
ATOM     23  CG  LEU B  89      18.889   1.993  18.923  1.00 30.45 LIG-0.02  C 
ATOM     24  CD1 LEU B  89      20.087   2.775  18.389  1.00 30.38 LIG 0.01  C 
ATOM     25  CD2 LEU B  89      19.322   0.778  19.747  1.00 30.79 LIG 0.01  C 
ENDBRANCH 22 23
ENDBRANCH 5 22
ENDBRANCH 3 5
BRANCH 1 26
ATOM     26  CA  PRO B  88      15.349   0.999  16.824  1.00 32.64 LIG 0.18  C 
ATOM     27  CB  PRO B  88      16.450   1.067  15.745  1.00 32.64 LIG 0.04  C 
ATOM     28  CG  PRO B  88      15.964   2.075  14.742  1.00 32.93 LIG 0.02  C 
ATOM     29  CD  PRO B  88      14.467   1.931  14.769  1.00 33.68 LIG 0.13  C 
ATOM     30  N   PRO B  88      14.194   1.644  16.189  1.00 34.22 LIG-0.34  N 
ATOM     31  C   GLY B  87      13.109   1.918  16.969  1.00 37.83 LIG 0.24  C 
ATOM     32 O    GLY B  87      13.076   1.676  18.179  1.00 36.70 LIG-0.27  OA
BRANCH 31 33
ATOM     33  CA  GLY B  87      11.892   2.556  16.308  1.00 40.95 LIG 0.23  C 
BRANCH 33 34
ATOM     34  N   GLY B  87      10.708   2.562  17.195  1.00 44.01 LIG-0.35  N 
ATOM     35 H    GLY B  87      10.543   1.809  17.576  1.00 44.01 LIG 0.16  HD
ATOM     36  C   PRO B  86       9.972   3.664  17.369  1.00 46.81 LIG 0.25  C 
ATOM     37 O    PRO B  86      10.241   4.732  16.824  1.00 48.58 LIG-0.27  OA
BRANCH 36 38
ATOM     38  CA  PRO B  86       8.754   3.606  18.307  1.00 48.28 LIG 0.35  C 
ATOM     39  N   PRO B  86       8.758   4.529  19.452  1.00 49.47 LIG 0.32  N 
ATOM     40  CD  PRO B  86       7.457   5.196  19.623  1.00 50.15 LIG 0.32  C 
ATOM     41  CG  PRO B  86       6.900   5.193  18.234  1.00 49.89 LIG 0.04  C 
ATOM     42  CB  PRO B  86       7.472   3.980  17.538  1.00 49.17 LIG 0.05  C 
ENDBRANCH 36 38
ENDBRANCH 33 34
ENDBRANCH 31 33
ENDBRANCH 1 26
TORSDOF 11
ENDMDL
MODEL 36
USER: ADFR SOLUTION from run 172
USER: SCORE 11.528187 LL:  -3.244 LR:  -9.463 RR:   0.000 FEB:  -6.182
USER: RMSD 6.379725
USER: SEED 171
USER: STATUS no improvement in best in 10 clusters for 5 generations
USER: GENES 13
USER: genes 0 Translation |==|  0.30925 0.44319 0.41242
USER: genes 1 Rotation |==|  0.11958 0.61768 0.39069 0.78193
USER: genes 2 Torsion [C]-N--CA-[CB] |==|  0.20437
USER: genes 3 Torsion [N]-CA--C-[N] |==|  0.26859
USER: genes 4 Torsion [N]-CA--C-[N] |==|  0.41140
USER: genes 5 Torsion [C]-N--CA-[CB] |==|  0.83929
USER: genes 6 Torsion [N]-CA--C-[OXT] |==|  0.15400
USER: genes 7 Torsion [N]-CA--CB-[CG] |==|  0.70426
USER: genes 8 Torsion [CA]-CB--CG-[CD2] |==|  0.28273
USER: genes 9 Torsion [O]-C--CA-[CB] |==|  0.62050
USER: genes 10 Torsion [N]-C--CA-[N] |==|  0.51657
USER: genes 11 Torsion [C]-CA--N-[C] |==|  0.24406
USER: genes 12 Torsion [N]-C--CA-[CB] |==|  0.06997
ROOT
ATOM      1  C   PRO B  88      13.291   3.044  17.256  1.00 31.41 LIG 0.24  C 
ATOM      2 O    PRO B  88      13.122   2.139  16.430  1.00 30.85 LIG-0.27  OA
ATOM      3  N   LEU B  89      14.467   3.615  17.494  1.00 29.89 LIG-0.35  N 
ATOM      4 H    LEU B  89      14.591   4.235  18.078  1.00 29.89 LIG 0.16  HD
ENDROOT
BRANCH 3 5
ATOM      5  CA  LEU B  89      15.667   3.226  16.766  1.00 30.22 LIG 0.18  C 
BRANCH 5 6
ATOM      6  C   LEU B  89      16.909   3.761  17.477  1.00 29.45 LIG 0.24  C 
ATOM      7 O    LEU B  89      17.286   4.913  17.278  1.00 27.07 LIG-0.27  OA
ATOM      8  N   PRO B  90      17.553   2.921  18.303  1.00 31.27 LIG-0.34  N 
ATOM      9  CD  PRO B  90      17.136   1.552  18.673  1.00 32.01 LIG 0.13  C 
ATOM     10  CA  PRO B  90      18.757   3.343  19.045  1.00 32.16 LIG 0.18  C 
ATOM     11  CG  PRO B  90      18.272   1.061  19.528  1.00 32.17 LIG 0.02  C 
ATOM     12  CB  PRO B  90      18.869   2.287  20.141  1.00 32.36 LIG 0.04  C 
BRANCH 10 13
ATOM     13  C   PRO B  90      20.042   3.386  18.205  1.00 32.74 LIG 0.24  C 
ATOM     14  N   ALA B  91      20.960   4.303  18.524  1.00 33.34 LIG-0.34  N 
ATOM     15 H    ALA B  91      20.851   4.891  19.143  1.00 33.34 LIG 0.16  HD
ATOM     16 O    PRO B  90      20.183   2.586  17.279  1.00 32.61 LIG-0.27  OA
BRANCH 14 17
ATOM     17  CA  ALA B  91      22.260   4.391  17.837  1.00 34.79 LIG 0.18  C 
ATOM     18  CB  ALA B  91      23.029   3.058  17.957  1.00 34.67 LIG 0.04  C 
BRANCH 17 19
ATOM     19  C   ALA B  91      22.077   4.776  16.366  1.00 35.98 LIG 0.20  C 
ATOM     20 OXT  ALA B  91      21.460   5.803  16.039  1.00 36.84 LIG-0.65  OA
ATOM     21 O    ALA B  91      22.533   4.051  15.475  1.00 37.03 LIG-0.65  OA
ENDBRANCH 17 19
ENDBRANCH 14 17
ENDBRANCH 10 13
ENDBRANCH 5 6
BRANCH 5 22
ATOM     22  CB  LEU B  89      15.631   3.761  15.331  1.00 30.14 LIG 0.04  C 
BRANCH 22 23
ATOM     23  CG  LEU B  89      15.365   2.764  14.200  1.00 30.45 LIG-0.02  C 
ATOM     24  CD1 LEU B  89      15.719   1.358  14.681  1.00 30.38 LIG 0.01  C 
ATOM     25  CD2 LEU B  89      13.915   2.855  13.723  1.00 30.79 LIG 0.01  C 
ENDBRANCH 22 23
ENDBRANCH 5 22
ENDBRANCH 3 5
BRANCH 1 26
ATOM     26  CA  PRO B  88      12.109   3.587  18.049  1.00 32.64 LIG 0.18  C 
ATOM     27  CB  PRO B  88      12.153   5.127  18.125  1.00 32.64 LIG 0.04  C 
ATOM     28  CG  PRO B  88      12.609   5.445  19.521  1.00 32.93 LIG 0.02  C 
ATOM     29  CD  PRO B  88      12.051   4.324  20.356  1.00 33.68 LIG 0.13  C 
ATOM     30  N   PRO B  88      12.157   3.164  19.454  1.00 34.22 LIG-0.34  N 
ATOM     31  C   GLY B  87      12.333   1.836  19.714  1.00 37.83 LIG 0.24  C 
ATOM     32 O    GLY B  87      12.484   0.994  18.824  1.00 36.70 LIG-0.27  OA
BRANCH 31 33
ATOM     33  CA  GLY B  87      12.349   1.385  21.170  1.00 40.95 LIG 0.23  C 
BRANCH 33 34
ATOM     34  N   GLY B  87      12.687  -0.048  21.313  1.00 44.01 LIG-0.35  N 
ATOM     35 H    GLY B  87      12.008  -0.575  21.328  1.00 44.01 LIG 0.16  HD
ATOM     36  C   PRO B  86      13.955  -0.460  21.409  1.00 46.81 LIG 0.25  C 
ATOM     37 O    PRO B  86      14.907   0.315  21.368  1.00 48.58 LIG-0.27  OA
BRANCH 36 38
ATOM     38  CA  PRO B  86      14.240  -1.965  21.553  1.00 48.28 LIG 0.35  C 
ATOM     39  N   PRO B  86      14.364  -2.485  22.923  1.00 49.47 LIG 0.32  N 
ATOM     40  CD  PRO B  86      13.621  -3.743  23.101  1.00 50.15 LIG 0.32  C 
ATOM     41  CG  PRO B  86      12.536  -3.633  22.076  1.00 49.89 LIG 0.04  C 
ATOM     42  CB  PRO B  86      13.084  -2.786  20.951  1.00 49.17 LIG 0.05  C 
ENDBRANCH 36 38
ENDBRANCH 33 34
ENDBRANCH 31 33
ENDBRANCH 1 26
TORSDOF 11
ENDMDL
MODEL 37
USER: ADFR SOLUTION from run 43
USER: SCORE 11.730204 LL:  -3.158 LR:  -9.456 RR:   0.000 FEB:  -6.175
USER: RMSD 4.368929
USER: SEED 42
USER: STATUS no improvement in best in 8 clusters for 5 generations
USER: GENES 13
USER: genes 0 Translation |==|  0.42252 0.34761 0.44035
USER: genes 1 Rotation |==|  0.48316 0.32596 0.34150 0.94080
USER: genes 2 Torsion [C]-N--CA-[CB] |==|  0.51681
USER: genes 3 Torsion [N]-CA--C-[N] |==|  0.30885
USER: genes 4 Torsion [N]-CA--C-[N] |==|  0.59814
USER: genes 5 Torsion [C]-N--CA-[CB] |==|  0.84682
USER: genes 6 Torsion [N]-CA--C-[OXT] |==|  0.06497
USER: genes 7 Torsion [N]-CA--CB-[CG] |==|  0.99341
USER: genes 8 Torsion [CA]-CB--CG-[CD2] |==|  0.76162
USER: genes 9 Torsion [O]-C--CA-[CB] |==|  0.17319
USER: genes 10 Torsion [N]-C--CA-[N] |==|  0.63314
USER: genes 11 Torsion [C]-CA--N-[C] |==|  0.18034
USER: genes 12 Torsion [N]-C--CA-[CB] |==|  0.94034
ROOT
ATOM      1  C   PRO B  88      15.840   1.467  17.717  1.00 31.41 LIG 0.24  C 
ATOM      2 O    PRO B  88      16.979   1.948  17.686  1.00 30.85 LIG-0.27  OA
ATOM      3  N   LEU B  89      15.247   1.041  18.828  1.00 29.89 LIG-0.35  N 
ATOM      4 H    LEU B  89      14.461   0.692  18.850  1.00 29.89 LIG 0.16  HD
ENDROOT
BRANCH 3 5
ATOM      5  CA  LEU B  89      15.902   1.135  20.126  1.00 30.22 LIG 0.18  C 
BRANCH 5 6
ATOM      6  C   LEU B  89      17.288   0.493  20.062  1.00 29.45 LIG 0.24  C 
ATOM      7 O    LEU B  89      17.399  -0.723  19.934  1.00 27.07 LIG-0.27  OA
ATOM      8  N   PRO B  90      18.348   1.311  20.159  1.00 31.27 LIG-0.34  N 
ATOM      9  CD  PRO B  90      18.322   2.787  20.231  1.00 32.01 LIG 0.13  C 
ATOM     10  CA  PRO B  90      19.728   0.793  20.100  1.00 32.16 LIG 0.18  C 
ATOM     11  CG  PRO B  90      19.767   3.152  20.432  1.00 32.17 LIG 0.02  C 
ATOM     12  CB  PRO B  90      20.549   2.044  19.801  1.00 32.36 LIG 0.04  C 
BRANCH 10 13
ATOM     13  C   PRO B  90      20.216   0.125  21.393  1.00 32.74 LIG 0.24  C 
ATOM     14  N   ALA B  91      21.502   0.277  21.722  1.00 33.34 LIG-0.34  N 
ATOM     15 H    ALA B  91      22.073   0.691  21.230  1.00 33.34 LIG 0.16  HD
ATOM     16 O    PRO B  90      19.418  -0.519  22.076  1.00 32.61 LIG-0.27  OA
BRANCH 14 17
ATOM     17  CA  ALA B  91      22.066  -0.256  22.974  1.00 34.79 LIG 0.18  C 
ATOM     18  CB  ALA B  91      21.271   0.262  24.192  1.00 34.67 LIG 0.04  C 
BRANCH 17 19
ATOM     19  C   ALA B  91      22.084  -1.788  22.958  1.00 35.98 LIG 0.20  C 
ATOM     20 OXT  ALA B  91      22.083  -2.423  21.890  1.00 36.84 LIG-0.65  OA
ATOM     21 O    ALA B  91      22.083  -2.419  24.020  1.00 37.03 LIG-0.65  OA
ENDBRANCH 17 19
ENDBRANCH 14 17
ENDBRANCH 10 13
ENDBRANCH 5 6
BRANCH 5 22
ATOM     22  CB  LEU B  89      15.069   0.441  21.208  1.00 30.14 LIG 0.04  C 
BRANCH 22 23
ATOM     23  CG  LEU B  89      13.722  -0.162  20.800  1.00 30.45 LIG-0.02  C 
ATOM     24  CD1 LEU B  89      13.417  -1.356  21.702  1.00 30.38 LIG 0.01  C 
ATOM     25  CD2 LEU B  89      12.614   0.892  20.854  1.00 30.79 LIG 0.01  C 
ENDBRANCH 22 23
ENDBRANCH 5 22
ENDBRANCH 3 5
BRANCH 1 26
ATOM     26  CA  PRO B  88      15.019   1.361  16.437  1.00 32.64 LIG 0.18  C 
ATOM     27  CB  PRO B  88      15.708   0.437  15.411  1.00 32.64 LIG 0.04  C 
ATOM     28  CG  PRO B  88      16.297   1.356  14.379  1.00 32.93 LIG 0.02  C 
ATOM     29  CD  PRO B  88      15.346   2.521  14.336  1.00 33.68 LIG 0.13  C 
ATOM     30  N   PRO B  88      14.927   2.651  15.743  1.00 34.22 LIG-0.34  N 
ATOM     31  C   GLY B  87      14.538   3.739  16.468  1.00 37.83 LIG 0.24  C 
ATOM     32 O    GLY B  87      14.295   3.685  17.677  1.00 36.70 LIG-0.27  OA
BRANCH 31 33
ATOM     33  CA  GLY B  87      14.407   5.075  15.745  1.00 40.95 LIG 0.23  C 
BRANCH 33 34
ATOM     34  N   GLY B  87      15.075   6.177  16.472  1.00 44.01 LIG-0.35  N 
ATOM     35 H    GLY B  87      14.543   6.787  16.763  1.00 44.01 LIG 0.16  HD
ATOM     36  C   PRO B  86      16.400   6.196  16.647  1.00 46.81 LIG 0.25  C 
ATOM     37 O    PRO B  86      17.134   5.300  16.235  1.00 48.58 LIG-0.27  OA
BRANCH 36 38
ATOM     38  CA  PRO B  86      17.034   7.368  17.414  1.00 48.28 LIG 0.35  C 
ATOM     39  N   PRO B  86      18.301   7.896  16.884  1.00 49.47 LIG 0.32  N 
ATOM     40  CD  PRO B  86      18.311   9.367  16.850  1.00 50.15 LIG 0.32  C 
ATOM     41  CG  PRO B  86      16.857   9.704  16.724  1.00 49.89 LIG 0.04  C 
ATOM     42  CB  PRO B  86      16.092   8.587  17.396  1.00 49.17 LIG 0.05  C 
ENDBRANCH 36 38
ENDBRANCH 33 34
ENDBRANCH 31 33
ENDBRANCH 1 26
TORSDOF 11
ENDMDL
MODEL 38
USER: ADFR SOLUTION from run 92
USER: SCORE 11.521418 LL:  -3.075 LR:  -9.417 RR:   0.000 FEB:  -6.136
USER: RMSD 8.735065
USER: SEED 91
USER: STATUS no improvement in best in 17 clusters for 5 generations
USER: GENES 13
USER: genes 0 Translation |==|  0.46850 0.38109 0.38204
USER: genes 1 Rotation |==|  0.14227 0.43717 0.76686 0.71649
USER: genes 2 Torsion [C]-N--CA-[CB] |==|  0.16145
USER: genes 3 Torsion [N]-CA--C-[N] |==|  0.89039
USER: genes 4 Torsion [N]-CA--C-[N] |==|  0.23721
USER: genes 5 Torsion [C]-N--CA-[CB] |==|  0.40253
USER: genes 6 Torsion [N]-CA--C-[OXT] |==|  0.44730
USER: genes 7 Torsion [N]-CA--CB-[CG] |==|  0.13164
USER: genes 8 Torsion [CA]-CB--CG-[CD2] |==|  0.73394
USER: genes 9 Torsion [O]-C--CA-[CB] |==|  0.63982
USER: genes 10 Torsion [N]-C--CA-[N] |==|  0.51728
USER: genes 11 Torsion [C]-CA--N-[C] |==|  0.20556
USER: genes 12 Torsion [N]-C--CA-[CB] |==|  0.56415
ROOT
ATOM      1  C   PRO B  88      16.874   2.019  16.755  1.00 31.41 LIG 0.24  C 
ATOM      2 O    PRO B  88      17.214   1.356  15.767  1.00 30.85 LIG-0.27  OA
ATOM      3  N   LEU B  89      16.323   3.226  16.680  1.00 29.89 LIG-0.35  N 
ATOM      4 H    LEU B  89      16.099   3.695  17.366  1.00 29.89 LIG 0.16  HD
ENDROOT
BRANCH 3 5
ATOM      5  CA  LEU B  89      16.049   3.863  15.400  1.00 30.22 LIG 0.18  C 
BRANCH 5 6
ATOM      6  C   LEU B  89      15.402   5.230  15.621  1.00 29.45 LIG 0.24  C 
ATOM      7 O    LEU B  89      15.720   6.184  14.916  1.00 27.07 LIG-0.27  OA
ATOM      8  N   PRO B  90      14.498   5.328  16.609  1.00 31.27 LIG-0.34  N 
ATOM      9  CD  PRO B  90      13.988   4.228  17.454  1.00 32.01 LIG 0.13  C 
ATOM     10  CA  PRO B  90      13.809   6.601  16.898  1.00 32.16 LIG 0.18  C 
ATOM     11  CG  PRO B  90      13.094   4.930  18.439  1.00 32.17 LIG 0.02  C 
ATOM     12  CB  PRO B  90      12.612   6.158  17.734  1.00 32.36 LIG 0.04  C 
BRANCH 10 13
ATOM     13  C   PRO B  90      14.656   7.624  17.669  1.00 32.74 LIG 0.24  C 
ATOM     14  N   ALA B  91      15.462   8.421  16.961  1.00 33.34 LIG-0.34  N 
ATOM     15 H    ALA B  91      15.561   8.361  16.109  1.00 33.34 LIG 0.16  HD
ATOM     16 O    PRO B  90      14.563   7.679  18.896  1.00 32.61 LIG-0.27  OA
BRANCH 14 17
ATOM     17  CA  ALA B  91      16.265   9.487  17.584  1.00 34.79 LIG 0.18  C 
ATOM     18  CB  ALA B  91      17.623   9.636  16.865  1.00 34.67 LIG 0.04  C 
BRANCH 17 19
ATOM     19  C   ALA B  91      15.506  10.817  17.580  1.00 35.98 LIG 0.20  C 
ATOM     20 OXT  ALA B  91      15.825  11.746  18.341  1.00 36.84 LIG-0.65  OA
ATOM     21 O    ALA B  91      14.544  10.979  16.821  1.00 37.03 LIG-0.65  OA
ENDBRANCH 17 19
ENDBRANCH 14 17
ENDBRANCH 10 13
ENDBRANCH 5 6
BRANCH 5 22
ATOM     22  CB  LEU B  89      15.122   2.993  14.546  1.00 30.14 LIG 0.04  C 
BRANCH 22 23
ATOM     23  CG  LEU B  89      13.869   2.415  15.209  1.00 30.45 LIG-0.02  C 
ATOM     24  CD1 LEU B  89      12.707   2.479  14.221  1.00 30.38 LIG 0.01  C 
ATOM     25  CD2 LEU B  89      14.122   0.988  15.701  1.00 30.79 LIG 0.01  C 
ENDBRANCH 22 23
ENDBRANCH 5 22
ENDBRANCH 3 5
BRANCH 1 26
ATOM     26  CA  PRO B  88      17.052   1.448  18.156  1.00 32.64 LIG 0.18  C 
ATOM     27  CB  PRO B  88      15.749   1.567  18.973  1.00 32.64 LIG 0.04  C 
ATOM     28  CG  PRO B  88      15.981   2.699  19.933  1.00 32.93 LIG 0.02  C 
ATOM     29  CD  PRO B  88      17.455   2.636  20.229  1.00 33.68 LIG 0.13  C 
ATOM     30  N   PRO B  88      18.028   2.219  18.937  1.00 34.22 LIG-0.34  N 
ATOM     31  C   GLY B  87      19.243   2.470  18.369  1.00 37.83 LIG 0.24  C 
ATOM     32 O    GLY B  87      19.535   2.106  17.226  1.00 36.70 LIG-0.27  OA
BRANCH 31 33
ATOM     33  CA  GLY B  87      20.273   3.240  19.187  1.00 40.95 LIG 0.23  C 
BRANCH 33 34
ATOM     34  N   GLY B  87      21.484   3.569  18.404  1.00 44.01 LIG-0.35  N 
ATOM     35 H    GLY B  87      22.175   3.098  18.601  1.00 44.01 LIG 0.16  HD
ATOM     36  C   PRO B  86      21.473   4.526  17.471  1.00 46.81 LIG 0.25  C 
ATOM     37 O    PRO B  86      20.464   5.173  17.200  1.00 48.58 LIG-0.27  OA
BRANCH 36 38
ATOM     38  CA  PRO B  86      22.765   4.819  16.689  1.00 48.28 LIG 0.35  C 
ATOM     39  N   PRO B  86      23.025   3.981  15.508  1.00 49.47 LIG 0.32  N 
ATOM     40  CD  PRO B  86      23.466   4.782  14.354  1.00 50.15 LIG 0.32  C 
ATOM     41  CG  PRO B  86      22.843   6.117  14.622  1.00 49.89 LIG 0.04  C 
ATOM     42  CB  PRO B  86      22.731   6.251  16.123  1.00 49.17 LIG 0.05  C 
ENDBRANCH 36 38
ENDBRANCH 33 34
ENDBRANCH 31 33
ENDBRANCH 1 26
TORSDOF 11
ENDMDL
MODEL 39
USER: ADFR SOLUTION from run 188
USER: SCORE 11.242628 LL:  -2.738 LR:  -9.425 RR:   0.000 FEB:  -6.143
USER: RMSD 9.975019
USER: SEED 187
USER: STATUS no improvement in best in 12 clusters for 5 generations
USER: GENES 13
USER: genes 0 Translation |==|  0.43560 0.62588 0.33857
USER: genes 1 Rotation |==|  0.64262 0.73180 0.11057 0.65579
USER: genes 2 Torsion [C]-N--CA-[CB] |==|  0.19984
USER: genes 3 Torsion [N]-CA--C-[N] |==|  0.86485
USER: genes 4 Torsion [N]-CA--C-[N] |==|  0.23850
USER: genes 5 Torsion [C]-N--CA-[CB] |==|  0.87337
USER: genes 6 Torsion [N]-CA--C-[OXT] |==|  0.82963
USER: genes 7 Torsion [N]-CA--CB-[CG] |==|  0.44650
USER: genes 8 Torsion [CA]-CB--CG-[CD2] |==|  0.69126
USER: genes 9 Torsion [O]-C--CA-[CB] |==|  0.22377
USER: genes 10 Torsion [N]-C--CA-[N] |==|  0.61447
USER: genes 11 Torsion [C]-CA--N-[C] |==|  0.73191
USER: genes 12 Torsion [N]-C--CA-[CB] |==|  0.36468
ROOT
ATOM      1  C   PRO B  88      16.134   6.058  16.037  1.00 31.41 LIG 0.24  C 
ATOM      2 O    PRO B  88      16.773   6.094  14.979  1.00 30.85 LIG-0.27  OA
ATOM      3  N   LEU B  89      15.201   5.151  16.306  1.00 29.89 LIG-0.35  N 
ATOM      4 H    LEU B  89      14.744   5.132  17.035  1.00 29.89 LIG 0.16  HD
ENDROOT
BRANCH 3 5
ATOM      5  CA  LEU B  89      14.871   4.092  15.362  1.00 30.22 LIG 0.18  C 
BRANCH 5 6
ATOM      6  C   LEU B  89      13.568   3.408  15.775  1.00 29.45 LIG 0.24  C 
ATOM      7 O    LEU B  89      12.676   3.231  14.950  1.00 27.07 LIG-0.27  OA
ATOM      8  N   PRO B  90      13.454   3.029  17.058  1.00 31.27 LIG-0.34  N 
ATOM      9  CD  PRO B  90      14.496   3.120  18.103  1.00 32.01 LIG 0.13  C 
ATOM     10  CA  PRO B  90      12.241   2.352  17.555  1.00 32.16 LIG 0.18  C 
ATOM     11  CG  PRO B  90      13.785   2.655  19.344  1.00 32.17 LIG 0.02  C 
ATOM     12  CB  PRO B  90      12.712   1.730  18.867  1.00 32.36 LIG 0.04  C 
BRANCH 10 13
ATOM     13  C   PRO B  90      11.044   3.283  17.799  1.00 32.74 LIG 0.24  C 
ATOM     14  N   ALA B  91      10.248   3.554  16.761  1.00 33.34 LIG-0.34  N 
ATOM     15 H    ALA B  91      10.395   3.270  15.962  1.00 33.34 LIG 0.16  HD
ATOM     16 O    PRO B  90      10.859   3.741  18.928  1.00 32.61 LIG-0.27  OA
BRANCH 14 17
ATOM     17  CA  ALA B  91       9.031   4.374  16.892  1.00 34.79 LIG 0.18  C 
ATOM     18  CB  ALA B  91       8.215   3.941  18.128  1.00 34.67 LIG 0.04  C 
BRANCH 17 19
ATOM     19  C   ALA B  91       9.381   5.863  16.973  1.00 35.98 LIG 0.20  C 
ATOM     20 OXT  ALA B  91      10.080   6.314  17.896  1.00 36.84 LIG-0.65  OA
ATOM     21 O    ALA B  91       8.952   6.648  16.119  1.00 37.03 LIG-0.65  OA
ENDBRANCH 17 19
ENDBRANCH 14 17
ENDBRANCH 10 13
ENDBRANCH 5 6
BRANCH 5 22
ATOM     22  CB  LEU B  89      15.993   3.053  15.295  1.00 30.14 LIG 0.04  C 
BRANCH 22 23
ATOM     23  CG  LEU B  89      15.658   1.671  14.726  1.00 30.45 LIG-0.02  C 
ATOM     24  CD1 LEU B  89      16.619   1.356  13.582  1.00 30.38 LIG 0.01  C 
ATOM     25  CD2 LEU B  89      15.705   0.605  15.822  1.00 30.79 LIG 0.01  C 
ENDBRANCH 22 23
ENDBRANCH 5 22
ENDBRANCH 3 5
BRANCH 1 26
ATOM     26  CA  PRO B  88      16.418   7.074  17.137  1.00 32.64 LIG 0.18  C 
ATOM     27  CB  PRO B  88      15.716   8.417  16.846  1.00 32.64 LIG 0.04  C 
ATOM     28  CG  PRO B  88      16.805   9.344  16.383  1.00 32.93 LIG 0.02  C 
ATOM     29  CD  PRO B  88      18.024   8.887  17.139  1.00 33.68 LIG 0.13  C 
ATOM     30  N   PRO B  88      17.841   7.426  17.198  1.00 34.22 LIG-0.34  N 
ATOM     31  C   GLY B  87      18.748   6.408  17.248  1.00 37.83 LIG 0.24  C 
ATOM     32 O    GLY B  87      18.420   5.218  17.211  1.00 36.70 LIG-0.27  OA
BRANCH 31 33
ATOM     33  CA  GLY B  87      20.226   6.767  17.346  1.00 40.95 LIG 0.23  C 
BRANCH 33 34
ATOM     34  N   GLY B  87      21.073   5.907  16.490  1.00 44.01 LIG-0.35  N 
ATOM     35 H    GLY B  87      21.122   6.159  15.669  1.00 44.01 LIG 0.16  HD
ATOM     36  C   PRO B  86      21.699   4.833  16.980  1.00 46.81 LIG 0.25  C 
ATOM     37 O    PRO B  86      21.623   4.507  18.163  1.00 48.58 LIG-0.27  OA
BRANCH 36 38
ATOM     38  CA  PRO B  86      22.567   3.981  16.039  1.00 48.28 LIG 0.35  C 
ATOM     39  N   PRO B  86      22.895   4.569  14.731  1.00 49.47 LIG 0.32  N 
ATOM     40  CD  PRO B  86      24.316   4.390  14.390  1.00 50.15 LIG 0.32  C 
ATOM     41  CG  PRO B  86      24.968   4.301  15.735  1.00 49.89 LIG 0.04  C 
ATOM     42  CB  PRO B  86      23.943   3.716  16.678  1.00 49.17 LIG 0.05  C 
ENDBRANCH 36 38
ENDBRANCH 33 34
ENDBRANCH 31 33
ENDBRANCH 1 26
TORSDOF 11
ENDMDL
MODEL 40
USER: ADFR SOLUTION from run 140
USER: SCORE 12.072872 LL:  -3.446 LR:  -9.405 RR:   0.000 FEB:  -6.124
USER: RMSD 4.461954
USER: SEED 139
USER: STATUS no improvement in best in 18 clusters for 5 generations
USER: GENES 13
USER: genes 0 Translation |==|  0.43635 0.37532 0.43846
USER: genes 1 Rotation |==|  0.39072 0.40217 0.05006 0.66137
USER: genes 2 Torsion [C]-N--CA-[CB] |==|  0.77736
USER: genes 3 Torsion [N]-CA--C-[N] |==|  0.16192
USER: genes 4 Torsion [N]-CA--C-[N] |==|  0.72779
USER: genes 5 Torsion [C]-N--CA-[CB] |==|  0.82802
USER: genes 6 Torsion [N]-CA--C-[OXT] |==|  0.11648
USER: genes 7 Torsion [N]-CA--CB-[CG] |==|  0.54474
USER: genes 8 Torsion [CA]-CB--CG-[CD2] |==|  0.66982
USER: genes 9 Torsion [O]-C--CA-[CB] |==|  0.61412
USER: genes 10 Torsion [N]-C--CA-[N] |==|  0.82829
USER: genes 11 Torsion [C]-CA--N-[C] |==|  0.80663
USER: genes 12 Torsion [N]-C--CA-[CB] |==|  0.91564
ROOT
ATOM      1  C   PRO B  88      16.151   1.924  17.686  1.00 31.41 LIG 0.24  C 
ATOM      2 O    PRO B  88      16.446   0.724  17.625  1.00 30.85 LIG-0.27  OA
ATOM      3  N   LEU B  89      15.680   2.514  18.780  1.00 29.89 LIG-0.35  N 
ATOM      4 H    LEU B  89      15.460   3.345  18.821  1.00 29.89 LIG 0.16  HD
ENDROOT
BRANCH 3 5
ATOM      5  CA  LEU B  89      15.496   1.780  20.024  1.00 30.22 LIG 0.18  C 
BRANCH 5 6
ATOM      6  C   LEU B  89      16.676   0.835  20.255  1.00 29.45 LIG 0.24  C 
ATOM      7 O    LEU B  89      16.484  -0.371  20.383  1.00 27.07 LIG-0.27  OA
ATOM      8  N   PRO B  90      17.899   1.385  20.316  1.00 31.27 LIG-0.34  N 
ATOM      9  CD  PRO B  90      18.243   2.805  20.092  1.00 32.01 LIG 0.13  C 
ATOM     10  CA  PRO B  90      19.104   0.560  20.526  1.00 32.16 LIG 0.18  C 
ATOM     11  CG  PRO B  90      19.716   2.858  20.389  1.00 32.17 LIG 0.02  C 
ATOM     12  CB  PRO B  90      20.233   1.488  20.087  1.00 32.36 LIG 0.04  C 
BRANCH 10 13
ATOM     13  C   PRO B  90      19.318   0.098  21.974  1.00 32.74 LIG 0.24  C 
ATOM     14  N   ALA B  91      20.168   0.801  22.730  1.00 33.34 LIG-0.34  N 
ATOM     15 H    ALA B  91      20.627   1.466  22.436  1.00 33.34 LIG 0.16  HD
ATOM     16 O    PRO B  90      18.708  -0.889  22.387  1.00 32.61 LIG-0.27  OA
BRANCH 14 17
ATOM     17  CA  ALA B  91      20.397   0.496  24.152  1.00 34.79 LIG 0.18  C 
ATOM     18  CB  ALA B  91      19.093   0.665  24.961  1.00 34.67 LIG 0.04  C 
BRANCH 17 19
ATOM     19  C   ALA B  91      20.958  -0.918  24.326  1.00 35.98 LIG 0.20  C 
ATOM     20 OXT  ALA B  91      21.833  -1.365  23.565  1.00 36.84 LIG-0.65  OA
ATOM     21 O    ALA B  91      20.529  -1.649  25.226  1.00 37.03 LIG-0.65  OA
ENDBRANCH 17 19
ENDBRANCH 14 17
ENDBRANCH 10 13
ENDBRANCH 5 6
BRANCH 5 22
ATOM     22  CB  LEU B  89      14.196   0.972  19.994  1.00 30.14 LIG 0.04  C 
BRANCH 22 23
ATOM     23  CG  LEU B  89      13.647   0.447  21.323  1.00 30.45 LIG-0.02  C 
ATOM     24  CD1 LEU B  89      12.281   1.078  21.583  1.00 30.38 LIG 0.01  C 
ATOM     25  CD2 LEU B  89      13.578  -1.082  21.317  1.00 30.79 LIG 0.01  C 
ENDBRANCH 22 23
ENDBRANCH 5 22
ENDBRANCH 3 5
BRANCH 1 26
ATOM     26  CA  PRO B  88      16.347   2.822  16.471  1.00 32.64 LIG 0.18  C 
ATOM     27  CB  PRO B  88      16.916   4.196  16.884  1.00 32.64 LIG 0.04  C 
ATOM     28  CG  PRO B  88      15.758   5.150  16.792  1.00 32.93 LIG 0.02  C 
ATOM     29  CD  PRO B  88      14.919   4.606  15.667  1.00 33.68 LIG 0.13  C 
ATOM     30  N   PRO B  88      15.071   3.149  15.824  1.00 34.22 LIG-0.34  N 
ATOM     31  C   GLY B  87      14.228   2.120  15.522  1.00 37.83 LIG 0.24  C 
ATOM     32 O    GLY B  87      14.483   0.943  15.798  1.00 36.70 LIG-0.27  OA
BRANCH 31 33
ATOM     33  CA  GLY B  87      12.916   2.448  14.819  1.00 40.95 LIG 0.23  C 
BRANCH 33 34
ATOM     34  N   GLY B  87      12.045   3.325  15.632  1.00 44.01 LIG-0.35  N 
ATOM     35 H    GLY B  87      11.958   4.124  15.326  1.00 44.01 LIG 0.16  HD
ATOM     36  C   PRO B  86      11.454   2.884  16.746  1.00 46.81 LIG 0.25  C 
ATOM     37 O    PRO B  86      11.584   1.730  17.150  1.00 48.58 LIG-0.27  OA
BRANCH 36 38
ATOM     38  CA  PRO B  86      10.559   3.844  17.546  1.00 48.28 LIG 0.35  C 
ATOM     39  N   PRO B  86      10.516   3.648  19.004  1.00 49.47 LIG 0.32  N 
ATOM     40  CD  PRO B  86      10.628   4.922  19.732  1.00 50.15 LIG 0.32  C 
ATOM     41  CG  PRO B  86      11.392   5.783  18.774  1.00 49.89 LIG 0.04  C 
ATOM     42  CB  PRO B  86      11.055   5.293  17.385  1.00 49.17 LIG 0.05  C 
ENDBRANCH 36 38
ENDBRANCH 33 34
ENDBRANCH 31 33
ENDBRANCH 1 26
TORSDOF 11
ENDMDL
MODEL 41
USER: ADFR SOLUTION from run 46
USER: SCORE 11.911365 LL:  -3.810 LR:  -9.404 RR:   0.000 FEB:  -6.123
USER: RMSD 6.856415
USER: SEED 45
USER: STATUS no improvement in best in 13 clusters for 5 generations
USER: GENES 13
USER: genes 0 Translation |==|  0.43428 0.39488 0.39924
USER: genes 1 Rotation |==|  0.21930 0.20842 0.27244 0.68549
USER: genes 2 Torsion [C]-N--CA-[CB] |==|  0.20812
USER: genes 3 Torsion [N]-CA--C-[N] |==|  0.47025
USER: genes 4 Torsion [N]-CA--C-[N] |==|  0.59982
USER: genes 5 Torsion [C]-N--CA-[CB] |==|  0.82974
USER: genes 6 Torsion [N]-CA--C-[OXT] |==|  0.20434
USER: genes 7 Torsion [N]-CA--CB-[CG] |==|  0.25172
USER: genes 8 Torsion [CA]-CB--CG-[CD2] |==|  0.81647
USER: genes 9 Torsion [O]-C--CA-[CB] |==|  0.74982
USER: genes 10 Torsion [N]-C--CA-[N] |==|  0.57084
USER: genes 11 Torsion [C]-CA--N-[C] |==|  0.32023
USER: genes 12 Torsion [N]-C--CA-[CB] |==|  0.20492
ROOT
ATOM      1  C   PRO B  88      16.104   2.247  17.038  1.00 31.41 LIG 0.24  C 
ATOM      2 O    PRO B  88      17.061   1.780  17.669  1.00 30.85 LIG-0.27  OA
ATOM      3  N   LEU B  89      15.630   3.475  17.218  1.00 29.89 LIG-0.35  N 
ATOM      4 H    LEU B  89      14.956   3.797  16.791  1.00 29.89 LIG 0.16  HD
ENDROOT
BRANCH 3 5
ATOM      5  CA  LEU B  89      16.231   4.393  18.176  1.00 30.22 LIG 0.18  C 
BRANCH 5 6
ATOM      6  C   LEU B  89      15.274   5.550  18.466  1.00 29.45 LIG 0.24  C 
ATOM      7 O    LEU B  89      14.275   5.711  17.771  1.00 27.07 LIG-0.27  OA
ATOM      8  N   PRO B  90      15.585   6.361  19.489  1.00 31.27 LIG-0.34  N 
ATOM      9  CD  PRO B  90      16.712   6.203  20.432  1.00 32.01 LIG 0.13  C 
ATOM     10  CA  PRO B  90      14.722   7.500  19.857  1.00 32.16 LIG 0.18  C 
ATOM     11  CG  PRO B  90      16.628   7.440  21.285  1.00 32.17 LIG 0.02  C 
ATOM     12  CB  PRO B  90      15.187   7.837  21.271  1.00 32.36 LIG 0.04  C 
BRANCH 10 13
ATOM     13  C   PRO B  90      14.856   8.725  18.940  1.00 32.74 LIG 0.24  C 
ATOM     14  N   ALA B  91      14.760   9.934  19.503  1.00 33.34 LIG-0.34  N 
ATOM     15 H    ALA B  91      14.587  10.058  20.336  1.00 33.34 LIG 0.16  HD
ATOM     16 O    PRO B  90      15.047   8.556  17.735  1.00 32.61 LIG-0.27  OA
BRANCH 14 17
ATOM     17  CA  ALA B  91      14.944  11.178  18.736  1.00 34.79 LIG 0.18  C 
ATOM     18  CB  ALA B  91      16.366  11.243  18.140  1.00 34.67 LIG 0.04  C 
BRANCH 17 19
ATOM     19  C   ALA B  91      13.892  11.301  17.630  1.00 35.98 LIG 0.20  C 
ATOM     20 OXT  ALA B  91      12.709  11.579  17.891  1.00 36.84 LIG-0.65  OA
ATOM     21 O    ALA B  91      14.206  11.106  16.451  1.00 37.03 LIG-0.65  OA
ENDBRANCH 17 19
ENDBRANCH 14 17
ENDBRANCH 10 13
ENDBRANCH 5 6
BRANCH 5 22
ATOM     22  CB  LEU B  89      17.554   4.948  17.643  1.00 30.14 LIG 0.04  C 
BRANCH 22 23
ATOM     23  CG  LEU B  89      17.513   6.247  16.833  1.00 30.45 LIG-0.02  C 
ATOM     24  CD1 LEU B  89      18.940   6.743  16.613  1.00 30.38 LIG 0.01  C 
ATOM     25  CD2 LEU B  89      16.769   6.042  15.512  1.00 30.79 LIG 0.01  C 
ENDBRANCH 22 23
ENDBRANCH 5 22
ENDBRANCH 3 5
BRANCH 1 26
ATOM     26  CA  PRO B  88      15.417   1.413  15.964  1.00 32.64 LIG 0.18  C 
ATOM     27  CB  PRO B  88      16.073   1.635  14.585  1.00 32.64 LIG 0.04  C 
ATOM     28  CG  PRO B  88      15.117   2.512  13.826  1.00 32.93 LIG 0.02  C 
ATOM     29  CD  PRO B  88      13.761   2.113  14.341  1.00 33.68 LIG 0.13  C 
ATOM     30  N   PRO B  88      14.023   1.829  15.762  1.00 34.22 LIG-0.34  N 
ATOM     31  C   GLY B  87      13.225   1.936  16.863  1.00 37.83 LIG 0.24  C 
ATOM     32 O    GLY B  87      13.634   1.731  18.010  1.00 36.70 LIG-0.27  OA
BRANCH 31 33
ATOM     33  CA  GLY B  87      11.767   2.334  16.657  1.00 40.95 LIG 0.23  C 
BRANCH 33 34
ATOM     34  N   GLY B  87      11.187   2.987  17.852  1.00 44.01 LIG-0.35  N 
ATOM     35 H    GLY B  87      11.132   2.480  18.544  1.00 44.01 LIG 0.16  HD
ATOM     36  C   PRO B  86      10.790   4.262  17.826  1.00 46.81 LIG 0.25  C 
ATOM     37 O    PRO B  86      10.897   4.968  16.826  1.00 48.58 LIG-0.27  OA
BRANCH 36 38
ATOM     38  CA  PRO B  86      10.197   4.884  19.102  1.00 48.28 LIG 0.35  C 
ATOM     39  N   PRO B  86       9.223   4.067  19.843  1.00 49.47 LIG 0.32  N 
ATOM     40  CD  PRO B  86       9.483   4.085  21.292  1.00 50.15 LIG 0.32  C 
ATOM     41  CG  PRO B  86      10.955   4.347  21.360  1.00 49.89 LIG 0.04  C 
ATOM     42  CB  PRO B  86      11.311   5.151  20.132  1.00 49.17 LIG 0.05  C 
ENDBRANCH 36 38
ENDBRANCH 33 34
ENDBRANCH 31 33
ENDBRANCH 1 26
TORSDOF 11
ENDMDL
MODEL 42
USER: ADFR SOLUTION from run 24
USER: SCORE 11.786617 LL:  -3.678 LR:  -9.384 RR:   0.000 FEB:  -6.103
USER: RMSD 2.480269
USER: SEED 23
USER: STATUS no improvement in best in 8 clusters for 5 generations
USER: GENES 13
USER: genes 0 Translation |==|  0.42111 0.42879 0.37422
USER: genes 1 Rotation |==|  0.65709 0.53006 0.65943 0.94610
USER: genes 2 Torsion [C]-N--CA-[CB] |==|  0.24337
USER: genes 3 Torsion [N]-CA--C-[N] |==|  0.43339
USER: genes 4 Torsion [N]-CA--C-[N] |==|  0.09002
USER: genes 5 Torsion [C]-N--CA-[CB] |==|  0.15675
USER: genes 6 Torsion [N]-CA--C-[OXT] |==|  0.70176
USER: genes 7 Torsion [N]-CA--CB-[CG] |==|  0.06286
USER: genes 8 Torsion [CA]-CB--CG-[CD2] |==|  0.56330
USER: genes 9 Torsion [O]-C--CA-[CB] |==|  0.21695
USER: genes 10 Torsion [N]-C--CA-[N] |==|  0.65391
USER: genes 11 Torsion [C]-CA--N-[C] |==|  0.21667
USER: genes 12 Torsion [N]-C--CA-[CB] |==|  0.37465
ROOT
ATOM      1  C   PRO B  88      15.808   2.806  16.626  1.00 31.41 LIG 0.24  C 
ATOM      2 O    PRO B  88      15.363   3.941  16.835  1.00 30.85 LIG-0.27  OA
ATOM      3  N   LEU B  89      16.883   2.311  17.231  1.00 29.89 LIG-0.35  N 
ATOM      4 H    LEU B  89      17.203   1.527  17.077  1.00 29.89 LIG 0.16  HD
ENDROOT
BRANCH 3 5
ATOM      5  CA  LEU B  89      17.618   3.076  18.228  1.00 30.22 LIG 0.18  C 
BRANCH 5 6
ATOM      6  C   LEU B  89      19.088   2.657  18.231  1.00 29.45 LIG 0.24  C 
ATOM      7 O    LEU B  89      19.412   1.543  17.829  1.00 27.07 LIG-0.27  OA
ATOM      8  N   PRO B  90      19.979   3.548  18.694  1.00 31.27 LIG-0.34  N 
ATOM      9  CD  PRO B  90      19.702   4.936  19.119  1.00 32.01 LIG 0.13  C 
ATOM     10  CA  PRO B  90      21.423   3.245  18.731  1.00 32.16 LIG 0.18  C 
ATOM     11  CG  PRO B  90      21.033   5.416  19.631  1.00 32.17 LIG 0.02  C 
ATOM     12  CB  PRO B  90      22.057   4.624  18.882  1.00 32.36 LIG 0.04  C 
BRANCH 10 13
ATOM     13  C   PRO B  90      21.854   2.325  19.883  1.00 32.74 LIG 0.24  C 
ATOM     14  N   ALA B  91      20.983   1.398  20.295  1.00 33.34 LIG-0.34  N 
ATOM     15 H    ALA B  91      20.187   1.320  19.979  1.00 33.34 LIG 0.16  HD
ATOM     16 O    PRO B  90      22.971   2.467  20.380  1.00 32.61 LIG-0.27  OA
BRANCH 14 17
ATOM     17  CA  ALA B  91      21.312   0.415  21.340  1.00 34.79 LIG 0.18  C 
ATOM     18  CB  ALA B  91      21.755   1.127  22.636  1.00 34.67 LIG 0.04  C 
BRANCH 17 19
ATOM     19  C   ALA B  91      20.123  -0.510  21.616  1.00 35.98 LIG 0.20  C 
ATOM     20 OXT  ALA B  91      19.456  -0.413  22.660  1.00 36.84 LIG-0.65  OA
ATOM     21 O    ALA B  91      19.819  -1.388  20.801  1.00 37.03 LIG-0.65  OA
ENDBRANCH 17 19
ENDBRANCH 14 17
ENDBRANCH 10 13
ENDBRANCH 5 6
BRANCH 5 22
ATOM     22  CB  LEU B  89      17.025   2.866  19.624  1.00 30.14 LIG 0.04  C 
BRANCH 22 23
ATOM     23  CG  LEU B  89      16.208   1.596  19.872  1.00 30.45 LIG-0.02  C 
ATOM     24  CD1 LEU B  89      17.162   0.424  20.093  1.00 30.38 LIG 0.01  C 
ATOM     25  CD2 LEU B  89      15.252   1.785  21.052  1.00 30.79 LIG 0.01  C 
ENDBRANCH 22 23
ENDBRANCH 5 22
ENDBRANCH 3 5
BRANCH 1 26
ATOM     26  CA  PRO B  88      15.102   1.876  15.647  1.00 32.64 LIG 0.18  C 
ATOM     27  CB  PRO B  88      15.433   2.252  14.187  1.00 32.64 LIG 0.04  C 
ATOM     28  CG  PRO B  88      14.203   2.940  13.664  1.00 32.93 LIG 0.02  C 
ATOM     29  CD  PRO B  88      13.068   2.271  14.391  1.00 33.68 LIG 0.13  C 
ATOM     30  N   PRO B  88      13.642   2.014  15.724  1.00 34.22 LIG-0.34  N 
ATOM     31  C   GLY B  87      13.059   1.939  16.954  1.00 37.83 LIG 0.24  C 
ATOM     32 O    GLY B  87      13.708   1.794  17.995  1.00 36.70 LIG-0.27  OA
BRANCH 31 33
ATOM     33  CA  GLY B  87      11.540   2.046  17.038  1.00 40.95 LIG 0.23  C 
BRANCH 33 34
ATOM     34  N   GLY B  87      11.101   3.126  17.949  1.00 44.01 LIG-0.35  N 
ATOM     35 H    GLY B  87      10.836   2.855  18.721  1.00 44.01 LIG 0.16  HD
ATOM     36  C   PRO B  86      11.124   4.408  17.574  1.00 46.81 LIG 0.25  C 
ATOM     37 O    PRO B  86      11.523   4.767  16.468  1.00 48.58 LIG-0.27  OA
BRANCH 36 38
ATOM     38  CA  PRO B  86      10.656   5.484  18.569  1.00 48.28 LIG 0.35  C 
ATOM     39  N   PRO B  86      10.575   5.085  19.983  1.00 49.47 LIG 0.32  N 
ATOM     40  CD  PRO B  86      11.158   6.102  20.873  1.00 50.15 LIG 0.32  C 
ATOM     41  CG  PRO B  86      12.163   6.775  19.991  1.00 49.89 LIG 0.04  C 
ATOM     42  CB  PRO B  86      11.642   6.667  18.577  1.00 49.17 LIG 0.05  C 
ENDBRANCH 36 38
ENDBRANCH 33 34
ENDBRANCH 31 33
ENDBRANCH 1 26
TORSDOF 11
ENDMDL
MODEL 43
USER: ADFR SOLUTION from run 24
USER: SCORE 11.626240 LL:  -3.070 LR:  -9.368 RR:   0.000 FEB:  -6.086
USER: RMSD 5.388115
USER: SEED 23
USER: STATUS no improvement in best in 8 clusters for 5 generations
USER: GENES 13
USER: genes 0 Translation |==|  0.27528 0.38224 0.41572
USER: genes 1 Rotation |==|  0.09608 0.64534 0.33768 0.69844
USER: genes 2 Torsion [C]-N--CA-[CB] |==|  0.16666
USER: genes 3 Torsion [N]-CA--C-[N] |==|  0.12892
USER: genes 4 Torsion [N]-CA--C-[N] |==|  0.79264
USER: genes 5 Torsion [C]-N--CA-[CB] |==|  0.21042
USER: genes 6 Torsion [N]-CA--C-[OXT] |==|  0.68724
USER: genes 7 Torsion [N]-CA--CB-[CG] |==|  0.12735
USER: genes 8 Torsion [CA]-CB--CG-[CD2] |==|  0.05836
USER: genes 9 Torsion [O]-C--CA-[CB] |==|  0.70402
USER: genes 10 Torsion [N]-C--CA-[N] |==|  0.22770
USER: genes 11 Torsion [C]-CA--N-[C] |==|  0.22512
USER: genes 12 Torsion [N]-C--CA-[CB] |==|  0.93774
ROOT
ATOM      1  C   PRO B  88      12.527   2.038  17.310  1.00 31.41 LIG 0.24  C 
ATOM      2 O    PRO B  88      12.102   0.986  16.817  1.00 30.85 LIG-0.27  OA
ATOM      3  N   LEU B  89      13.817   2.344  17.399  1.00 29.89 LIG-0.35  N 
ATOM      4 H    LEU B  89      14.116   3.068  17.755  1.00 29.89 LIG 0.16  HD
ENDROOT
BRANCH 3 5
ATOM      5  CA  LEU B  89      14.850   1.453  16.888  1.00 30.22 LIG 0.18  C 
BRANCH 5 6
ATOM      6  C   LEU B  89      16.233   2.047  17.153  1.00 29.45 LIG 0.24  C 
ATOM      7 O    LEU B  89      17.079   2.060  16.264  1.00 27.07 LIG-0.27  OA
ATOM      8  N   PRO B  90      16.467   2.533  18.383  1.00 31.27 LIG-0.34  N 
ATOM      9  CD  PRO B  90      15.494   2.639  19.491  1.00 32.01 LIG 0.13  C 
ATOM     10  CA  PRO B  90      17.766   3.136  18.738  1.00 32.16 LIG 0.18  C 
ATOM     11  CG  PRO B  90      16.326   3.149  20.636  1.00 32.17 LIG 0.02  C 
ATOM     12  CB  PRO B  90      17.442   3.920  20.006  1.00 32.36 LIG 0.04  C 
BRANCH 10 13
ATOM     13  C   PRO B  90      18.889   2.123  19.003  1.00 32.74 LIG 0.24  C 
ATOM     14  N   ALA B  91      18.856   1.449  20.157  1.00 33.34 LIG-0.34  N 
ATOM     15 H    ALA B  91      18.267   1.582  20.769  1.00 33.34 LIG 0.16  HD
ATOM     16 O    PRO B  90      19.770   1.966  18.156  1.00 32.61 LIG-0.27  OA
BRANCH 14 17
ATOM     17  CA  ALA B  91      19.838   0.402  20.488  1.00 34.79 LIG 0.18  C 
ATOM     18  CB  ALA B  91      21.191   1.031  20.884  1.00 34.67 LIG 0.04  C 
BRANCH 17 19
ATOM     19  C   ALA B  91      19.317  -0.503  21.609  1.00 35.98 LIG 0.20  C 
ATOM     20 OXT  ALA B  91      19.848  -0.510  22.732  1.00 36.84 LIG-0.65  OA
ATOM     21 O    ALA B  91      18.361  -1.258  21.402  1.00 37.03 LIG-0.65  OA
ENDBRANCH 17 19
ENDBRANCH 14 17
ENDBRANCH 10 13
ENDBRANCH 5 6
BRANCH 5 22
ATOM     22  CB  LEU B  89      14.675   1.222  15.385  1.00 30.14 LIG 0.04  C 
BRANCH 22 23
ATOM     23  CG  LEU B  89      14.406   2.440  14.498  1.00 30.45 LIG-0.02  C 
ATOM     24  CD1 LEU B  89      12.922   2.480  14.142  1.00 30.38 LIG 0.01  C 
ATOM     25  CD2 LEU B  89      14.862   3.727  15.187  1.00 30.79 LIG 0.01  C 
ENDBRANCH 22 23
ENDBRANCH 5 22
ENDBRANCH 3 5
BRANCH 1 26
ATOM     26  CA  PRO B  88      11.552   3.086  17.833  1.00 32.64 LIG 0.18  C 
ATOM     27  CB  PRO B  88      11.484   4.302  16.886  1.00 32.64 LIG 0.04  C 
ATOM     28  CG  PRO B  88      12.261   5.388  17.575  1.00 32.93 LIG 0.02  C 
ATOM     29  CD  PRO B  88      12.037   5.129  19.040  1.00 33.68 LIG 0.13  C 
ATOM     30  N   PRO B  88      12.001   3.658  19.109  1.00 34.22 LIG-0.34  N 
ATOM     31  C   GLY B  87      12.350   2.795  20.106  1.00 37.83 LIG 0.24  C 
ATOM     32 O    GLY B  87      12.333   1.568  19.966  1.00 36.70 LIG-0.27  OA
BRANCH 31 33
ATOM     33  CA  GLY B  87      12.785   3.382  21.444  1.00 40.95 LIG 0.23  C 
BRANCH 33 34
ATOM     34  N   GLY B  87      11.634   3.750  22.298  1.00 44.01 LIG-0.35  N 
ATOM     35 H    GLY B  87      11.430   4.586  22.281  1.00 44.01 LIG 0.16  HD
ATOM     36  C   PRO B  86      10.984   2.837  23.026  1.00 46.81 LIG 0.25  C 
ATOM     37 O    PRO B  86      11.288   1.647  23.017  1.00 48.58 LIG-0.27  OA
BRANCH 36 38
ATOM     38  CA  PRO B  86       9.794   3.284  23.892  1.00 48.28 LIG 0.35  C 
ATOM     39  N   PRO B  86       9.674   2.662  25.220  1.00 49.47 LIG 0.32  N 
ATOM     40  CD  PRO B  86       9.373   3.655  26.265  1.00 50.15 LIG 0.32  C 
ATOM     41  CG  PRO B  86       9.960   4.912  25.703  1.00 49.89 LIG 0.04  C 
ATOM     42  CB  PRO B  86       9.894   4.790  24.199  1.00 49.17 LIG 0.05  C 
ENDBRANCH 36 38
ENDBRANCH 33 34
ENDBRANCH 31 33
ENDBRANCH 1 26
TORSDOF 11
ENDMDL
MODEL 44
USER: ADFR SOLUTION from run 158
USER: SCORE 11.813818 LL:  -3.386 LR:  -9.361 RR:   0.000 FEB:  -6.080
USER: RMSD 4.113351
USER: SEED 157
USER: STATUS no improvement in best in 12 clusters for 5 generations
USER: GENES 13
USER: genes 0 Translation |==|  0.37401 0.38859 0.42774
USER: genes 1 Rotation |==|  0.27756 0.43278 0.14572 0.76550
USER: genes 2 Torsion [C]-N--CA-[CB] |==|  0.78889
USER: genes 3 Torsion [N]-CA--C-[N] |==|  0.19304
USER: genes 4 Torsion [N]-CA--C-[N] |==|  0.07406
USER: genes 5 Torsion [C]-N--CA-[CB] |==|  0.27185
USER: genes 6 Torsion [N]-CA--C-[OXT] |==|  0.36558
USER: genes 7 Torsion [N]-CA--CB-[CG] |==|  0.48460
USER: genes 8 Torsion [CA]-CB--CG-[CD2] |==|  0.57182
USER: genes 9 Torsion [O]-C--CA-[CB] |==|  0.76164
USER: genes 10 Torsion [N]-C--CA-[N] |==|  0.29723
USER: genes 11 Torsion [C]-CA--N-[C] |==|  0.75967
USER: genes 12 Torsion [N]-C--CA-[CB] |==|  0.09988
ROOT
ATOM      1  C   PRO B  88      14.748   2.143  17.509  1.00 31.41 LIG 0.24  C 
ATOM      2 O    PRO B  88      15.368   1.127  17.171  1.00 30.85 LIG-0.27  OA
ATOM      3  N   LEU B  89      14.806   2.673  18.727  1.00 29.89 LIG-0.35  N 
ATOM      4 H    LEU B  89      14.365   3.371  18.968  1.00 29.89 LIG 0.16  HD
ENDROOT
BRANCH 3 5
ATOM      5  CA  LEU B  89      15.642   2.097  19.771  1.00 30.22 LIG 0.18  C 
BRANCH 5 6
ATOM      6  C   LEU B  89      17.024   1.762  19.210  1.00 29.45 LIG 0.24  C 
ATOM      7 O    LEU B  89      17.369   0.591  19.079  1.00 27.07 LIG-0.27  OA
ATOM      8  N   PRO B  90      17.821   2.793  18.886  1.00 31.27 LIG-0.34  N 
ATOM      9  CD  PRO B  90      17.471   4.228  18.927  1.00 32.01 LIG 0.13  C 
ATOM     10  CA  PRO B  90      19.170   2.577  18.329  1.00 32.16 LIG 0.18  C 
ATOM     11  CG  PRO B  90      18.761   4.912  18.565  1.00 32.17 LIG 0.02  C 
ATOM     12  CB  PRO B  90      19.506   3.933  17.716  1.00 32.36 LIG 0.04  C 
BRANCH 10 13
ATOM     13  C   PRO B  90      20.232   2.175  19.363  1.00 32.74 LIG 0.24  C 
ATOM     14  N   ALA B  91      19.816   1.544  20.465  1.00 33.34 LIG-0.34  N 
ATOM     15 H    ALA B  91      18.988   1.391  20.642  1.00 33.34 LIG 0.16  HD
ATOM     16 O    PRO B  90      21.415   2.442  19.145  1.00 32.61 LIG-0.27  OA
BRANCH 14 17
ATOM     17  CA  ALA B  91      20.750   1.048  21.491  1.00 34.79 LIG 0.18  C 
ATOM     18  CB  ALA B  91      20.856   2.050  22.660  1.00 34.67 LIG 0.04  C 
BRANCH 17 19
ATOM     19  C   ALA B  91      20.319  -0.330  22.002  1.00 35.98 LIG 0.20  C 
ATOM     20 OXT  ALA B  91      21.127  -1.270  22.088  1.00 36.84 LIG-0.65  OA
ATOM     21 O    ALA B  91      19.142  -0.532  22.324  1.00 37.03 LIG-0.65  OA
ENDBRANCH 17 19
ENDBRANCH 14 17
ENDBRANCH 10 13
ENDBRANCH 5 6
BRANCH 5 22
ATOM     22  CB  LEU B  89      15.003   0.828  20.343  1.00 30.14 LIG 0.04  C 
BRANCH 22 23
ATOM     23  CG  LEU B  89      15.808   0.018  21.363  1.00 30.45 LIG-0.02  C 
ATOM     24  CD1 LEU B  89      15.644   0.650  22.743  1.00 30.38 LIG 0.01  C 
ATOM     25  CD2 LEU B  89      15.378  -1.451  21.352  1.00 30.79 LIG 0.01  C 
ENDBRANCH 22 23
ENDBRANCH 5 22
ENDBRANCH 3 5
BRANCH 1 26
ATOM     26  CA  PRO B  88      13.879   2.879  16.498  1.00 32.64 LIG 0.18  C 
ATOM     27  CB  PRO B  88      14.712   3.888  15.680  1.00 32.64 LIG 0.04  C 
ATOM     28  CG  PRO B  88      14.360   5.240  16.235  1.00 32.93 LIG 0.02  C 
ATOM     29  CD  PRO B  88      12.924   5.100  16.663  1.00 33.68 LIG 0.13  C 
ATOM     30  N   PRO B  88      12.865   3.713  17.157  1.00 34.22 LIG-0.34  N 
ATOM     31  C   GLY B  87      12.089   3.132  18.116  1.00 37.83 LIG 0.24  C 
ATOM     32 O    GLY B  87      12.227   1.956  18.468  1.00 36.70 LIG-0.27  OA
BRANCH 31 33
ATOM     33  CA  GLY B  87      11.012   3.982  18.780  1.00 40.95 LIG 0.23  C 
BRANCH 33 34
ATOM     34  N   GLY B  87       9.650   3.615  18.335  1.00 44.01 LIG-0.35  N 
ATOM     35 H    GLY B  87       9.252   3.041  18.838  1.00 44.01 LIG 0.16  HD
ATOM     36  C   PRO B  86       9.107   4.148  17.237  1.00 46.81 LIG 0.25  C 
ATOM     37 O    PRO B  86       9.693   4.979  16.546  1.00 48.58 LIG-0.27  OA
BRANCH 36 38
ATOM     38  CA  PRO B  86       7.685   3.727  16.828  1.00 48.28 LIG 0.35  C 
ATOM     39  N   PRO B  86       7.559   2.465  16.083  1.00 49.47 LIG 0.32  N 
ATOM     40  CD  PRO B  86       6.458   1.633  16.595  1.00 50.15 LIG 0.32  C 
ATOM     41  CG  PRO B  86       6.358   2.064  18.026  1.00 49.89 LIG 0.04  C 
ATOM     42  CB  PRO B  86       6.816   3.503  18.080  1.00 49.17 LIG 0.05  C 
ENDBRANCH 36 38
ENDBRANCH 33 34
ENDBRANCH 31 33
ENDBRANCH 1 26
TORSDOF 11
ENDMDL
MODEL 45
USER: ADFR SOLUTION from run 163
USER: SCORE 12.456984 LL:  -3.474 LR:  -9.363 RR:   0.000 FEB:  -6.081
USER: RMSD 5.611887
USER: SEED 162
USER: STATUS no improvement in best in 21 clusters for 5 generations
USER: GENES 13
USER: genes 0 Translation |==|  0.27897 0.46985 0.35764
USER: genes 1 Rotation |==|  0.17230 0.70433 0.23170 0.66993
USER: genes 2 Torsion [C]-N--CA-[CB] |==|  0.14490
USER: genes 3 Torsion [N]-CA--C-[N] |==|  0.12864
USER: genes 4 Torsion [N]-CA--C-[N] |==|  0.49975
USER: genes 5 Torsion [C]-N--CA-[CB] |==|  0.45923
USER: genes 6 Torsion [N]-CA--C-[OXT] |==|  0.68658
USER: genes 7 Torsion [N]-CA--CB-[CG] |==|  0.16902
USER: genes 8 Torsion [CA]-CB--CG-[CD2] |==|  0.30412
USER: genes 9 Torsion [O]-C--CA-[CB] |==|  0.61659
USER: genes 10 Torsion [N]-C--CA-[N] |==|  0.66470
USER: genes 11 Torsion [C]-CA--N-[C] |==|  0.21064
USER: genes 12 Torsion [N]-C--CA-[CB] |==|  0.50900
ROOT
ATOM      1  C   PRO B  88      12.610   3.483  16.352  1.00 31.41 LIG 0.24  C 
ATOM      2 O    PRO B  88      11.912   2.705  15.692  1.00 30.85 LIG-0.27  OA
ATOM      3  N   LEU B  89      13.801   3.167  16.849  1.00 29.89 LIG-0.35  N 
ATOM      4 H    LEU B  89      14.283   3.701  17.321  1.00 29.89 LIG 0.16  HD
ENDROOT
BRANCH 3 5
ATOM      5  CA  LEU B  89      14.398   1.857  16.626  1.00 30.22 LIG 0.18  C 
BRANCH 5 6
ATOM      6  C   LEU B  89      15.827   1.832  17.168  1.00 29.45 LIG 0.24  C 
ATOM      7 O    LEU B  89      16.734   1.354  16.492  1.00 27.07 LIG-0.27  OA
ATOM      8  N   PRO B  90      16.027   2.342  18.393  1.00 31.27 LIG-0.34  N 
ATOM      9  CD  PRO B  90      15.024   3.013  19.247  1.00 32.01 LIG 0.13  C 
ATOM     10  CA  PRO B  90      17.371   2.375  19.003  1.00 32.16 LIG 0.18  C 
ATOM     11  CG  PRO B  90      15.774   3.277  20.524  1.00 32.17 LIG 0.02  C 
ATOM     12  CB  PRO B  90      17.210   3.396  20.126  1.00 32.36 LIG 0.04  C 
BRANCH 10 13
ATOM     13  C   PRO B  90      17.850   1.028  19.564  1.00 32.74 LIG 0.24  C 
ATOM     14  N   ALA B  91      19.061   0.988  20.129  1.00 33.34 LIG-0.34  N 
ATOM     15 H    ALA B  91      19.595   1.661  20.156  1.00 33.34 LIG 0.16  HD
ATOM     16 O    PRO B  90      17.114   0.044  19.478  1.00 32.61 LIG-0.27  OA
BRANCH 14 17
ATOM     17  CA  ALA B  91      19.596  -0.228  20.764  1.00 34.79 LIG 0.18  C 
ATOM     18  CB  ALA B  91      21.116  -0.097  20.996  1.00 34.67 LIG 0.04  C 
BRANCH 17 19
ATOM     19  C   ALA B  91      18.875  -0.519  22.084  1.00 35.98 LIG 0.20  C 
ATOM     20 OXT  ALA B  91      19.464  -0.436  23.175  1.00 36.84 LIG-0.65  OA
ATOM     21 O    ALA B  91      17.687  -0.862  22.079  1.00 37.03 LIG-0.65  OA
ENDBRANCH 17 19
ENDBRANCH 14 17
ENDBRANCH 10 13
ENDBRANCH 5 6
BRANCH 5 22
ATOM     22  CB  LEU B  89      14.413   1.512  15.134  1.00 30.14 LIG 0.04  C 
BRANCH 22 23
ATOM     23  CG  LEU B  89      15.197   2.429  14.193  1.00 30.45 LIG-0.02  C 
ATOM     24  CD1 LEU B  89      15.529   3.728  14.925  1.00 30.38 LIG 0.01  C 
ATOM     25  CD2 LEU B  89      16.455   1.730  13.673  1.00 30.79 LIG 0.01  C 
ENDBRANCH 22 23
ENDBRANCH 5 22
ENDBRANCH 3 5
BRANCH 1 26
ATOM     26  CA  PRO B  88      12.131   4.906  16.613  1.00 32.64 LIG 0.18  C 
ATOM     27  CB  PRO B  88      13.286   5.917  16.456  1.00 32.64 LIG 0.04  C 
ATOM     28  CG  PRO B  88      13.667   6.310  17.856  1.00 32.93 LIG 0.02  C 
ATOM     29  CD  PRO B  88      12.375   6.235  18.624  1.00 33.68 LIG 0.13  C 
ATOM     30  N   PRO B  88      11.693   5.086  18.003  1.00 34.22 LIG-0.34  N 
ATOM     31  C   GLY B  87      10.804   4.186  18.512  1.00 37.83 LIG 0.24  C 
ATOM     32 O    GLY B  87      10.385   3.220  17.866  1.00 36.70 LIG-0.27  OA
BRANCH 31 33
ATOM     33  CA  GLY B  87      10.318   4.386  19.943  1.00 40.95 LIG 0.23  C 
BRANCH 33 34
ATOM     34  N   GLY B  87      10.632   3.231  20.812  1.00 44.01 LIG-0.35  N 
ATOM     35 H    GLY B  87       9.960   2.724  20.988  1.00 44.01 LIG 0.16  HD
ATOM     36  C   PRO B  86      11.869   3.018  21.270  1.00 46.81 LIG 0.25  C 
ATOM     37 O    PRO B  86      12.814   3.752  20.988  1.00 48.58 LIG-0.27  OA
BRANCH 36 38
ATOM     38  CA  PRO B  86      12.132   1.798  22.168  1.00 48.28 LIG 0.35  C 
ATOM     39  N   PRO B  86      11.959   0.474  21.550  1.00 49.47 LIG 0.32  N 
ATOM     40  CD  PRO B  86      13.065  -0.437  21.888  1.00 50.15 LIG 0.32  C 
ATOM     41  CG  PRO B  86      14.202   0.503  22.140  1.00 49.89 LIG 0.04  C 
ATOM     42  CB  PRO B  86      13.597   1.792  22.645  1.00 49.17 LIG 0.05  C 
ENDBRANCH 36 38
ENDBRANCH 33 34
ENDBRANCH 31 33
ENDBRANCH 1 26
TORSDOF 11
ENDMDL
MODEL 46
USER: ADFR SOLUTION from run 140
USER: SCORE 12.623265 LL:  -3.597 LR:  -9.338 RR:   0.000 FEB:  -6.057
USER: RMSD 6.291393
USER: SEED 139
USER: STATUS no improvement in best in 18 clusters for 5 generations
USER: GENES 13
USER: genes 0 Translation |==|  0.41128 0.33379 0.51608
USER: genes 1 Rotation |==|  0.41103 0.46674 0.12684 0.81895
USER: genes 2 Torsion [C]-N--CA-[CB] |==|  0.76913
USER: genes 3 Torsion [N]-CA--C-[N] |==|  0.20414
USER: genes 4 Torsion [N]-CA--C-[N] |==|  0.51453
USER: genes 5 Torsion [C]-N--CA-[CB] |==|  0.80946
USER: genes 6 Torsion [N]-CA--C-[OXT] |==|  0.63275
USER: genes 7 Torsion [N]-CA--CB-[CG] |==|  0.75010
USER: genes 8 Torsion [CA]-CB--CG-[CD2] |==|  0.47970
USER: genes 9 Torsion [O]-C--CA-[CB] |==|  0.19784
USER: genes 10 Torsion [N]-C--CA-[N] |==|  0.55094
USER: genes 11 Torsion [C]-CA--N-[C] |==|  0.20354
USER: genes 12 Torsion [N]-C--CA-[CB] |==|  0.76184
ROOT
ATOM      1  C   PRO B  88      15.587   1.238  18.966  1.00 31.41 LIG 0.24  C 
ATOM      2 O    PRO B  88      16.458   0.539  18.436  1.00 30.85 LIG-0.27  OA
ATOM      3  N   LEU B  89      15.213   1.117  20.236  1.00 29.89 LIG-0.35  N 
ATOM      4 H    LEU B  89      14.598   1.592  20.604  1.00 29.89 LIG 0.16  HD
ENDROOT
BRANCH 3 5
ATOM      5  CA  LEU B  89      15.834   0.144  21.124  1.00 30.22 LIG 0.18  C 
BRANCH 5 6
ATOM      6  C   LEU B  89      17.333   0.053  20.837  1.00 29.45 LIG 0.24  C 
ATOM      7 O    LEU B  89      17.791  -0.930  20.261  1.00 27.07 LIG-0.27  OA
ATOM      8  N   PRO B  90      18.099   1.077  21.244  1.00 31.27 LIG-0.34  N 
ATOM      9  CD  PRO B  90      17.636   2.336  21.866  1.00 32.01 LIG 0.13  C 
ATOM     10  CA  PRO B  90      19.556   1.091  21.006  1.00 32.16 LIG 0.18  C 
ATOM     11  CG  PRO B  90      18.917   3.050  22.201  1.00 32.17 LIG 0.02  C 
ATOM     12  CB  PRO B  90      19.920   2.559  21.208  1.00 32.36 LIG 0.04  C 
BRANCH 10 13
ATOM     13  C   PRO B  90      20.367   0.199  21.958  1.00 32.74 LIG 0.24  C 
ATOM     14  N   ALA B  91      21.699   0.247  21.867  1.00 33.34 LIG-0.34  N 
ATOM     15 H    ALA B  91      22.119   0.715  21.281  1.00 33.34 LIG 0.16  HD
ATOM     16 O    PRO B  90      19.772  -0.519  22.763  1.00 32.61 LIG-0.27  OA
BRANCH 14 17
ATOM     17  CA  ALA B  91      22.580  -0.507  22.775  1.00 34.79 LIG 0.18  C 
ATOM     18  CB  ALA B  91      22.503   0.064  24.207  1.00 34.67 LIG 0.04  C 
BRANCH 17 19
ATOM     19  C   ALA B  91      22.224  -1.997  22.772  1.00 35.98 LIG 0.20  C 
ATOM     20 OXT  ALA B  91      22.088  -2.632  23.831  1.00 36.84 LIG-0.65  OA
ATOM     21 O    ALA B  91      22.082  -2.598  21.701  1.00 37.03 LIG-0.65  OA
ENDBRANCH 17 19
ENDBRANCH 14 17
ENDBRANCH 10 13
ENDBRANCH 5 6
BRANCH 5 22
ATOM     22  CB  LEU B  89      15.198  -1.237  20.951  1.00 30.14 LIG 0.04  C 
BRANCH 22 23
ATOM     23  CG  LEU B  89      13.993  -1.587  21.828  1.00 30.45 LIG-0.02  C 
ATOM     24  CD1 LEU B  89      12.981  -0.446  21.764  1.00 30.38 LIG 0.01  C 
ATOM     25  CD2 LEU B  89      13.377  -2.921  21.401  1.00 30.79 LIG 0.01  C 
ENDBRANCH 22 23
ENDBRANCH 5 22
ENDBRANCH 3 5
BRANCH 1 26
ATOM     26  CA  PRO B  88      14.894   2.334  18.166  1.00 32.64 LIG 0.18  C 
ATOM     27  CB  PRO B  88      13.942   1.733  17.111  1.00 32.64 LIG 0.04  C 
ATOM     28  CG  PRO B  88      14.651   1.897  15.795  1.00 32.93 LIG 0.02  C 
ATOM     29  CD  PRO B  88      15.443   3.167  15.958  1.00 33.68 LIG 0.13  C 
ATOM     30  N   PRO B  88      15.851   3.116  17.373  1.00 34.22 LIG-0.34  N 
ATOM     31  C   GLY B  87      16.948   3.616  18.011  1.00 37.83 LIG 0.24  C 
ATOM     32 O    GLY B  87      17.179   3.410  19.206  1.00 36.70 LIG-0.27  OA
BRANCH 31 33
ATOM     33  CA  GLY B  87      17.928   4.457  17.201  1.00 40.95 LIG 0.23  C 
BRANCH 33 34
ATOM     34  N   GLY B  87      19.250   4.570  17.856  1.00 44.01 LIG-0.35  N 
ATOM     35 H    GLY B  87      19.411   5.340  18.204  1.00 44.01 LIG 0.16  HD
ATOM     36  C   PRO B  86      20.103   3.542  17.890  1.00 46.81 LIG 0.25  C 
ATOM     37 O    PRO B  86      19.838   2.447  17.398  1.00 48.58 LIG-0.27  OA
BRANCH 36 38
ATOM     38  CA  PRO B  86      21.461   3.722  18.589  1.00 48.28 LIG 0.35  C 
ATOM     39  N   PRO B  86      22.120   2.500  19.076  1.00 49.47 LIG 0.32  N 
ATOM     40  CD  PRO B  86      23.552   2.478  18.739  1.00 50.15 LIG 0.32  C 
ATOM     41  CG  PRO B  86      23.614   3.327  17.508  1.00 49.89 LIG 0.04  C 
ATOM     42  CB  PRO B  86      22.486   4.327  17.612  1.00 49.17 LIG 0.05  C 
ENDBRANCH 36 38
ENDBRANCH 33 34
ENDBRANCH 31 33
ENDBRANCH 1 26
TORSDOF 11
ENDMDL
MODEL 47
USER: ADFR SOLUTION from run 163
USER: SCORE 12.384852 LL:  -3.965 LR:  -9.336 RR:   0.000 FEB:  -6.054
USER: RMSD 6.855863
USER: SEED 162
USER: STATUS no improvement in best in 21 clusters for 5 generations
USER: GENES 13
USER: genes 0 Translation |==|  0.27015 0.40933 0.48490
USER: genes 1 Rotation |==|  0.17122 0.72908 0.38635 0.77661
USER: genes 2 Torsion [C]-N--CA-[CB] |==|  0.20546
USER: genes 3 Torsion [N]-CA--C-[N] |==|  0.80899
USER: genes 4 Torsion [N]-CA--C-[N] |==|  0.21178
USER: genes 5 Torsion [C]-N--CA-[CB] |==|  0.21331
USER: genes 6 Torsion [N]-CA--C-[OXT] |==|  0.62796
USER: genes 7 Torsion [N]-CA--CB-[CG] |==|  0.62110
USER: genes 8 Torsion [CA]-CB--CG-[CD2] |==|  0.68054
USER: genes 9 Torsion [O]-C--CA-[CB] |==|  0.68881
USER: genes 10 Torsion [N]-C--CA-[N] |==|  0.53249
USER: genes 11 Torsion [C]-CA--N-[C] |==|  0.17307
USER: genes 12 Torsion [N]-C--CA-[CB] |==|  0.22171
ROOT
ATOM      1  C   PRO B  88      12.411   2.485  18.452  1.00 31.41 LIG 0.24  C 
ATOM      2 O    PRO B  88      11.762   1.921  17.563  1.00 30.85 LIG-0.27  OA
ATOM      3  N   LEU B  89      13.740   2.509  18.494  1.00 29.89 LIG-0.35  N 
ATOM      4 H    LEU B  89      14.194   2.888  19.119  1.00 29.89 LIG 0.16  HD
ENDROOT
BRANCH 3 5
ATOM      5  CA  LEU B  89      14.548   1.880  17.459  1.00 30.22 LIG 0.18  C 
BRANCH 5 6
ATOM      6  C   LEU B  89      15.991   1.730  17.939  1.00 29.45 LIG 0.24  C 
ATOM      7 O    LEU B  89      16.450   0.616  18.177  1.00 27.07 LIG-0.27  OA
ATOM      8  N   PRO B  90      16.708   2.856  18.089  1.00 31.27 LIG-0.34  N 
ATOM      9  CD  PRO B  90      16.278   4.229  17.752  1.00 32.01 LIG 0.13  C 
ATOM     10  CA  PRO B  90      18.113   2.820  18.538  1.00 32.16 LIG 0.18  C 
ATOM     11  CG  PRO B  90      17.427   5.079  18.221  1.00 32.17 LIG 0.02  C 
ATOM     12  CB  PRO B  90      18.633   4.199  18.142  1.00 32.36 LIG 0.04  C 
BRANCH 10 13
ATOM     13  C   PRO B  90      18.296   2.588  20.045  1.00 32.74 LIG 0.24  C 
ATOM     14  N   ALA B  91      18.119   1.346  20.507  1.00 33.34 LIG-0.34  N 
ATOM     15 H    ALA B  91      17.869   0.687  20.015  1.00 33.34 LIG 0.16  HD
ATOM     16 O    PRO B  90      18.599   3.539  20.768  1.00 32.61 LIG-0.27  OA
BRANCH 14 17
ATOM     17  CA  ALA B  91      18.338   0.990  21.919  1.00 34.79 LIG 0.18  C 
ATOM     18  CB  ALA B  91      17.158   1.470  22.791  1.00 34.67 LIG 0.04  C 
BRANCH 17 19
ATOM     19  C   ALA B  91      18.544  -0.519  22.078  1.00 35.98 LIG 0.20  C 
ATOM     20 OXT  ALA B  91      17.958  -1.162  22.966  1.00 36.84 LIG-0.65  OA
ATOM     21 O    ALA B  91      19.319  -1.121  21.327  1.00 37.03 LIG-0.65  OA
ENDBRANCH 17 19
ENDBRANCH 14 17
ENDBRANCH 10 13
ENDBRANCH 5 6
BRANCH 5 22
ATOM     22  CB  LEU B  89      14.523   2.706  16.170  1.00 30.14 LIG 0.04  C 
BRANCH 22 23
ATOM     23  CG  LEU B  89      14.353   1.961  14.843  1.00 30.45 LIG-0.02  C 
ATOM     24  CD1 LEU B  89      13.104   2.481  14.136  1.00 30.38 LIG 0.01  C 
ATOM     25  CD2 LEU B  89      15.604   2.105  13.974  1.00 30.79 LIG 0.01  C 
ENDBRANCH 22 23
ENDBRANCH 5 22
ENDBRANCH 3 5
BRANCH 1 26
ATOM     26  CA  PRO B  88      11.692   3.231  19.568  1.00 32.64 LIG 0.18  C 
ATOM     27  CB  PRO B  88      11.934   4.752  19.464  1.00 32.64 LIG 0.04  C 
ATOM     28  CG  PRO B  88      12.921   5.074  20.550  1.00 32.93 LIG 0.02  C 
ATOM     29  CD  PRO B  88      12.603   4.089  21.642  1.00 33.68 LIG 0.13  C 
ATOM     30  N   PRO B  88      12.225   2.880  20.890  1.00 34.22 LIG-0.34  N 
ATOM     31  C   GLY B  87      12.337   1.556  21.200  1.00 37.83 LIG 0.24  C 
ATOM     32 O    GLY B  87      12.040   0.656  20.408  1.00 36.70 LIG-0.27  OA
BRANCH 31 33
ATOM     33  CA  GLY B  87      12.857   1.184  22.583  1.00 40.95 LIG 0.23  C 
BRANCH 33 34
ATOM     34  N   GLY B  87      13.189  -0.254  22.692  1.00 44.01 LIG-0.35  N 
ATOM     35 H    GLY B  87      12.723  -0.685  23.272  1.00 44.01 LIG 0.16  HD
ATOM     36  C   PRO B  86      14.142  -0.810  21.938  1.00 46.81 LIG 0.25  C 
ATOM     37 O    PRO B  86      14.781  -0.172  21.105  1.00 48.58 LIG-0.27  OA
BRANCH 36 38
ATOM     38  CA  PRO B  86      14.438  -2.311  22.098  1.00 48.28 LIG 0.35  C 
ATOM     39  N   PRO B  86      14.385  -2.853  23.465  1.00 49.47 LIG 0.32  N 
ATOM     40  CD  PRO B  86      13.652  -4.128  23.521  1.00 50.15 LIG 0.32  C 
ATOM     41  CG  PRO B  86      12.714  -4.021  22.358  1.00 49.89 LIG 0.04  C 
ATOM     42  CB  PRO B  86      13.393  -3.144  21.331  1.00 49.17 LIG 0.05  C 
ENDBRANCH 36 38
ENDBRANCH 33 34
ENDBRANCH 31 33
ENDBRANCH 1 26
TORSDOF 11
ENDMDL
MODEL 48
USER: ADFR SOLUTION from run 173
USER: SCORE 12.676365 LL:  -4.206 LR:  -9.328 RR:   0.000 FEB:  -6.046
USER: RMSD 6.169932
USER: SEED 172
USER: STATUS no improvement in best in 11 clusters for 5 generations
USER: GENES 13
USER: genes 0 Translation |==|  0.28137 0.56706 0.40844
USER: genes 1 Rotation |==|  0.26762 0.78924 0.27464 0.74810
USER: genes 2 Torsion [C]-N--CA-[CB] |==|  0.19131
USER: genes 3 Torsion [N]-CA--C-[N] |==|  0.81696
USER: genes 4 Torsion [N]-CA--C-[N] |==|  0.41999
USER: genes 5 Torsion [C]-N--CA-[CB] |==|  0.15946
USER: genes 6 Torsion [N]-CA--C-[OXT] |==|  0.48941
USER: genes 7 Torsion [N]-CA--CB-[CG] |==|  0.59026
USER: genes 8 Torsion [CA]-CB--CG-[CD2] |==|  0.11655
USER: genes 9 Torsion [O]-C--CA-[CB] |==|  0.68084
USER: genes 10 Torsion [N]-C--CA-[N] |==|  0.60783
USER: genes 11 Torsion [C]-CA--N-[C] |==|  0.20433
USER: genes 12 Torsion [N]-C--CA-[CB] |==|  0.78293
ROOT
ATOM      1  C   PRO B  88      12.664   5.087  17.190  1.00 31.41 LIG 0.24  C 
ATOM      2 O    PRO B  88      11.984   4.938  16.168  1.00 30.85 LIG-0.27  OA
ATOM      3  N   LEU B  89      13.727   4.346  17.484  1.00 29.89 LIG-0.35  N 
ATOM      4 H    LEU B  89      14.194   4.438  18.201  1.00 29.89 LIG 0.16  HD
ENDROOT
BRANCH 3 5
ATOM      5  CA  LEU B  89      14.196   3.296  16.592  1.00 30.22 LIG 0.18  C 
BRANCH 5 6
ATOM      6  C   LEU B  89      15.265   2.454  17.288  1.00 29.45 LIG 0.24  C 
ATOM      7 O    LEU B  89      15.044   1.277  17.558  1.00 27.07 LIG-0.27  OA
ATOM      8  N   PRO B  90      16.425   3.060  17.587  1.00 31.27 LIG-0.34  N 
ATOM      9  CD  PRO B  90      16.819   4.440  17.232  1.00 32.01 LIG 0.13  C 
ATOM     10  CA  PRO B  90      17.525   2.334  18.251  1.00 32.16 LIG 0.18  C 
ATOM     11  CG  PRO B  90      18.154   4.605  17.905  1.00 32.17 LIG 0.02  C 
ATOM     12  CB  PRO B  90      18.732   3.229  17.987  1.00 32.36 LIG 0.04  C 
BRANCH 10 13
ATOM     13  C   PRO B  90      17.331   2.120  19.759  1.00 32.74 LIG 0.24  C 
ATOM     14  N   ALA B  91      17.899   1.044  20.310  1.00 33.34 LIG-0.34  N 
ATOM     15 H    ALA B  91      18.327   0.449  19.861  1.00 33.34 LIG 0.16  HD
ATOM     16 O    PRO B  90      16.670   2.937  20.402  1.00 32.61 LIG-0.27  OA
BRANCH 14 17
ATOM     17  CA  ALA B  91      17.842   0.775  21.757  1.00 34.79 LIG 0.18  C 
ATOM     18  CB  ALA B  91      16.378   0.704  22.240  1.00 34.67 LIG 0.04  C 
BRANCH 17 19
ATOM     19  C   ALA B  91      18.585  -0.519  22.104  1.00 35.98 LIG 0.20  C 
ATOM     20 OXT  ALA B  91      18.718  -0.893  23.281  1.00 36.84 LIG-0.65  OA
ATOM     21 O    ALA B  91      19.083  -1.207  21.206  1.00 37.03 LIG-0.65  OA
ENDBRANCH 17 19
ENDBRANCH 14 17
ENDBRANCH 10 13
ENDBRANCH 5 6
BRANCH 5 22
ATOM     22  CB  LEU B  89      14.775   3.891  15.305  1.00 30.14 LIG 0.04  C 
BRANCH 22 23
ATOM     23  CG  LEU B  89      14.618   3.090  14.010  1.00 30.45 LIG-0.02  C 
ATOM     24  CD1 LEU B  89      15.708   2.023  13.948  1.00 30.38 LIG 0.01  C 
ATOM     25  CD2 LEU B  89      13.217   2.481  13.912  1.00 30.79 LIG 0.01  C 
ENDBRANCH 22 23
ENDBRANCH 5 22
ENDBRANCH 3 5
BRANCH 1 26
ATOM     26  CA  PRO B  88      12.318   6.189  18.185  1.00 32.64 LIG 0.18  C 
ATOM     27  CB  PRO B  88      13.441   7.245  18.255  1.00 32.64 LIG 0.04  C 
ATOM     28  CG  PRO B  88      14.161   6.977  19.547  1.00 32.93 LIG 0.02  C 
ATOM     29  CD  PRO B  88      13.088   6.458  20.466  1.00 33.68 LIG 0.13  C 
ATOM     30  N   PRO B  88      12.233   5.675  19.557  1.00 34.22 LIG-0.34  N 
ATOM     31  C   GLY B  87      11.456   4.576  19.778  1.00 37.83 LIG 0.24  C 
ATOM     32 O    GLY B  87      10.857   3.986  18.873  1.00 36.70 LIG-0.27  OA
BRANCH 31 33
ATOM     33  CA  GLY B  87      11.335   4.057  21.207  1.00 40.95 LIG 0.23  C 
BRANCH 33 34
ATOM     34  N   GLY B  87      11.327   2.579  21.271  1.00 44.01 LIG-0.35  N 
ATOM     35 H    GLY B  87      10.559   2.233  21.444  1.00 44.01 LIG 0.16  HD
ATOM     36  C   PRO B  86      12.440   1.866  21.073  1.00 46.81 LIG 0.25  C 
ATOM     37 O    PRO B  86      13.521   2.388  20.811  1.00 48.58 LIG-0.27  OA
BRANCH 36 38
ATOM     38  CA  PRO B  86      12.366   0.332  21.151  1.00 48.28 LIG 0.35  C 
ATOM     39  N   PRO B  86      13.497  -0.414  20.576  1.00 49.47 LIG 0.32  N 
ATOM     40  CD  PRO B  86      13.942  -1.503  21.462  1.00 50.15 LIG 0.32  C 
ATOM     41  CG  PRO B  86      13.544  -1.008  22.818  1.00 49.89 LIG 0.04  C 
ATOM     42  CB  PRO B  86      12.333  -0.126  22.621  1.00 49.17 LIG 0.05  C 
ENDBRANCH 36 38
ENDBRANCH 33 34
ENDBRANCH 31 33
ENDBRANCH 1 26
TORSDOF 11
ENDMDL
MODEL 49
USER: ADFR SOLUTION from run 62
USER: SCORE 11.216580 LL:  -2.593 LR:  -9.322 RR:   0.000 FEB:  -6.040
USER: RMSD 9.598957
USER: SEED 61
USER: STATUS no improvement in best in 21 clusters for 5 generations
USER: GENES 13
USER: genes 0 Translation |==|  0.53920 0.55951 0.43193
USER: genes 1 Rotation |==|  0.53587 0.24679 0.92963 0.50439
USER: genes 2 Torsion [C]-N--CA-[CB] |==|  0.57233
USER: genes 3 Torsion [N]-CA--C-[N] |==|  0.34516
USER: genes 4 Torsion [N]-CA--C-[N] |==|  0.16689
USER: genes 5 Torsion [C]-N--CA-[CB] |==|  0.32680
USER: genes 6 Torsion [N]-CA--C-[OXT] |==|  0.37968
USER: genes 7 Torsion [N]-CA--CB-[CG] |==|  0.58418
USER: genes 8 Torsion [CA]-CB--CG-[CD2] |==|  0.12158
USER: genes 9 Torsion [O]-C--CA-[CB] |==|  0.13686
USER: genes 10 Torsion [N]-C--CA-[N] |==|  0.02488
USER: genes 11 Torsion [C]-CA--N-[C] |==|  0.64671
USER: genes 12 Torsion [N]-C--CA-[CB] |==|  0.72485
ROOT
ATOM      1  C   PRO B  88      18.465   4.963  17.578  1.00 31.41 LIG 0.24  C 
ATOM      2 O    PRO B  88      17.956   4.926  16.451  1.00 30.85 LIG-0.27  OA
ATOM      3  N   LEU B  89      18.034   4.241  18.607  1.00 29.89 LIG-0.35  N 
ATOM      4 H    LEU B  89      18.377   4.275  19.396  1.00 29.89 LIG 0.16  HD
ENDROOT
BRANCH 3 5
ATOM      5  CA  LEU B  89      16.920   3.312  18.475  1.00 30.22 LIG 0.18  C 
BRANCH 5 6
ATOM      6  C   LEU B  89      15.915   3.841  17.452  1.00 29.45 LIG 0.24  C 
ATOM      7 O    LEU B  89      15.419   4.955  17.595  1.00 27.07 LIG-0.27  OA
ATOM      8  N   PRO B  90      15.607   3.037  16.422  1.00 31.27 LIG-0.34  N 
ATOM      9  CD  PRO B  90      16.207   1.721  16.117  1.00 32.01 LIG 0.13  C 
ATOM     10  CA  PRO B  90      14.655   3.457  15.376  1.00 32.16 LIG 0.18  C 
ATOM     11  CG  PRO B  90      15.415   1.244  14.930  1.00 32.17 LIG 0.02  C 
ATOM     12  CB  PRO B  90      14.948   2.484  14.238  1.00 32.36 LIG 0.04  C 
BRANCH 10 13
ATOM     13  C   PRO B  90      13.177   3.377  15.786  1.00 32.74 LIG 0.24  C 
ATOM     14  N   ALA B  91      12.784   4.109  16.832  1.00 33.34 LIG-0.34  N 
ATOM     15 H    ALA B  91      13.319   4.586  17.307  1.00 33.34 LIG 0.16  HD
ATOM     16 O    PRO B  90      12.414   2.651  15.146  1.00 32.61 LIG-0.27  OA
BRANCH 14 17
ATOM     17  CA  ALA B  91      11.379   4.168  17.272  1.00 34.79 LIG 0.18  C 
ATOM     18  CB  ALA B  91      11.234   3.609  18.703  1.00 34.67 LIG 0.04  C 
BRANCH 17 19
ATOM     19  C   ALA B  91      10.841   5.600  17.197  1.00 35.98 LIG 0.20  C 
ATOM     20 OXT  ALA B  91       9.711   5.843  16.742  1.00 36.84 LIG-0.65  OA
ATOM     21 O    ALA B  91      11.541   6.546  17.576  1.00 37.03 LIG-0.65  OA
ENDBRANCH 17 19
ENDBRANCH 14 17
ENDBRANCH 10 13
ENDBRANCH 5 6
BRANCH 5 22
ATOM     22  CB  LEU B  89      16.218   3.107  19.820  1.00 30.14 LIG 0.04  C 
BRANCH 22 23
ATOM     23  CG  LEU B  89      15.556   1.752  20.084  1.00 30.45 LIG-0.02  C 
ATOM     24  CD1 LEU B  89      14.201   1.714  19.382  1.00 30.38 LIG 0.01  C 
ATOM     25  CD2 LEU B  89      16.464   0.605  19.636  1.00 30.79 LIG 0.01  C 
ENDBRANCH 22 23
ENDBRANCH 5 22
ENDBRANCH 3 5
BRANCH 1 26
ATOM     26  CA  PRO B  88      19.674   5.851  17.842  1.00 32.64 LIG 0.18  C 
ATOM     27  CB  PRO B  88      19.437   7.282  17.315  1.00 32.64 LIG 0.04  C 
ATOM     28  CG  PRO B  88      20.250   7.384  16.056  1.00 32.93 LIG 0.02  C 
ATOM     29  CD  PRO B  88      21.437   6.494  16.310  1.00 33.68 LIG 0.13  C 
ATOM     30  N   PRO B  88      20.856   5.395  17.100  1.00 34.22 LIG-0.34  N 
ATOM     31  C   GLY B  87      21.203   4.080  17.201  1.00 37.83 LIG 0.24  C 
ATOM     32 O    GLY B  87      20.549   3.264  17.858  1.00 36.70 LIG-0.27  OA
BRANCH 31 33
ATOM     33  CA  GLY B  87      22.449   3.606  16.462  1.00 40.95 LIG 0.23  C 
BRANCH 33 34
ATOM     34  N   GLY B  87      23.229   4.728  15.896  1.00 44.01 LIG-0.35  N 
ATOM     35 H    GLY B  87      23.431   5.344  16.462  1.00 44.01 LIG 0.16  HD
ATOM     36  C   PRO B  86      23.579   4.756  14.606  1.00 46.81 LIG 0.25  C 
ATOM     37 O    PRO B  86      23.291   3.852  13.824  1.00 48.58 LIG-0.27  OA
BRANCH 36 38
ATOM     38  CA  PRO B  86      24.392   5.950  14.079  1.00 48.28 LIG 0.35  C 
ATOM     39  N   PRO B  86      25.420   5.654  13.069  1.00 49.47 LIG 0.32  N 
ATOM     40  CD  PRO B  86      25.385   6.615  11.954  1.00 50.15 LIG 0.32  C 
ATOM     41  CG  PRO B  86      23.957   7.064  11.951  1.00 49.89 LIG 0.04  C 
ATOM     42  CB  PRO B  86      23.464   6.957  13.376  1.00 49.17 LIG 0.05  C 
ENDBRANCH 36 38
ENDBRANCH 33 34
ENDBRANCH 31 33
ENDBRANCH 1 26
TORSDOF 11
ENDMDL
MODEL 50
USER: ADFR SOLUTION from run 139
USER: SCORE 12.038217 LL:  -4.687 LR:  -9.295 RR:   0.000 FEB:  -6.014
USER: RMSD 6.742510
USER: SEED 138
USER: STATUS no improvement in best in 18 clusters for 5 generations
USER: GENES 13
USER: genes 0 Translation |==|  0.21703 0.59765 0.42855
USER: genes 1 Rotation |==|  0.25489 0.76711 0.34202 0.80596
USER: genes 2 Torsion [C]-N--CA-[CB] |==|  0.30260
USER: genes 3 Torsion [N]-CA--C-[N] |==|  0.51432
USER: genes 4 Torsion [N]-CA--C-[N] |==|  0.36715
USER: genes 5 Torsion [C]-N--CA-[CB] |==|  0.24083
USER: genes 6 Torsion [N]-CA--C-[OXT] |==|  0.02867
USER: genes 7 Torsion [N]-CA--CB-[CG] |==|  0.18717
USER: genes 8 Torsion [CA]-CB--CG-[CD2] |==|  0.69924
USER: genes 9 Torsion [O]-C--CA-[CB] |==|  0.71828
USER: genes 10 Torsion [N]-C--CA-[N] |==|  0.55385
USER: genes 11 Torsion [C]-CA--N-[C] |==|  0.27441
USER: genes 12 Torsion [N]-C--CA-[CB] |==|  0.75881
ROOT
ATOM      1  C   PRO B  88      11.216   5.592  17.522  1.00 31.41 LIG 0.24  C 
ATOM      2 O    PRO B  88      10.613   5.453  16.451  1.00 30.85 LIG-0.27  OA
ATOM      3  N   LEU B  89      12.456   5.162  17.733  1.00 29.89 LIG-0.35  N 
ATOM      4 H    LEU B  89      12.873   5.245  18.481  1.00 29.89 LIG 0.16  HD
ENDROOT
BRANCH 3 5
ATOM      5  CA  LEU B  89      13.223   4.501  16.686  1.00 30.22 LIG 0.18  C 
BRANCH 5 6
ATOM      6  C   LEU B  89      13.814   3.194  17.215  1.00 29.45 LIG 0.24  C 
ATOM      7 O    LEU B  89      13.537   2.805  18.346  1.00 27.07 LIG-0.27  OA
ATOM      8  N   PRO B  90      14.638   2.519  16.398  1.00 31.27 LIG-0.34  N 
ATOM      9  CD  PRO B  90      14.967   2.857  14.997  1.00 32.01 LIG 0.13  C 
ATOM     10  CA  PRO B  90      15.254   1.242  16.809  1.00 32.16 LIG 0.18  C 
ATOM     11  CG  PRO B  90      16.000   1.829  14.624  1.00 32.17 LIG 0.02  C 
ATOM     12  CB  PRO B  90      15.708   0.640  15.483  1.00 32.36 LIG 0.04  C 
BRANCH 10 13
ATOM     13  C   PRO B  90      16.443   1.387  17.770  1.00 32.74 LIG 0.24  C 
ATOM     14  N   ALA B  91      16.458   0.611  18.858  1.00 33.34 LIG-0.34  N 
ATOM     15 H    ALA B  91      15.822   0.071  19.066  1.00 33.34 LIG 0.16  HD
ATOM     16 O    PRO B  90      17.331   2.200  17.510  1.00 32.61 LIG-0.27  OA
BRANCH 14 17
ATOM     17  CA  ALA B  91      17.580   0.610  19.812  1.00 34.79 LIG 0.18  C 
ATOM     18  CB  ALA B  91      17.392   1.715  20.874  1.00 34.67 LIG 0.04  C 
BRANCH 17 19
ATOM     19  C   ALA B  91      17.729  -0.759  20.482  1.00 35.98 LIG 0.20  C 
ATOM     20 OXT  ALA B  91      17.096  -1.749  20.078  1.00 36.84 LIG-0.65  OA
ATOM     21 O    ALA B  91      18.476  -0.894  21.457  1.00 37.03 LIG-0.65  OA
ENDBRANCH 17 19
ENDBRANCH 14 17
ENDBRANCH 10 13
ENDBRANCH 5 6
BRANCH 5 22
ATOM     22  CB  LEU B  89      14.352   5.404  16.183  1.00 30.14 LIG 0.04  C 
BRANCH 22 23
ATOM     23  CG  LEU B  89      15.500   5.720  17.146  1.00 30.45 LIG-0.02  C 
ATOM     24  CD1 LEU B  89      16.827   5.407  16.458  1.00 30.38 LIG 0.01  C 
ATOM     25  CD2 LEU B  89      15.431   7.173  17.619  1.00 30.79 LIG 0.01  C 
ENDBRANCH 22 23
ENDBRANCH 5 22
ENDBRANCH 3 5
BRANCH 1 26
ATOM     26  CA  PRO B  88      10.552   6.317  18.686  1.00 32.64 LIG 0.18  C 
ATOM     27  CB  PRO B  88      11.074   7.764  18.809  1.00 32.64 LIG 0.04  C 
ATOM     28  CG  PRO B  88      12.008   7.752  19.987  1.00 32.93 LIG 0.02  C 
ATOM     29  CD  PRO B  88      11.423   6.717  20.910  1.00 33.68 LIG 0.13  C 
ATOM     30  N   PRO B  88      10.897   5.707  19.975  1.00 34.22 LIG-0.34  N 
ATOM     31  C   GLY B  87      10.739   4.359  20.104  1.00 37.83 LIG 0.24  C 
ATOM     32 O    GLY B  87      10.352   3.638  19.179  1.00 36.70 LIG-0.27  OA
BRANCH 31 33
ATOM     33  CA  GLY B  87      11.063   3.723  21.452  1.00 40.95 LIG 0.23  C 
BRANCH 33 34
ATOM     34  N   GLY B  87      11.296   2.266  21.346  1.00 44.01 LIG-0.35  N 
ATOM     35 H    GLY B  87      10.580   1.791  21.323  1.00 44.01 LIG 0.16  HD
ATOM     36  C   PRO B  86      12.531   1.758  21.293  1.00 46.81 LIG 0.25  C 
ATOM     37 O    PRO B  86      13.537   2.464  21.311  1.00 48.58 LIG-0.27  OA
BRANCH 36 38
ATOM     38  CA  PRO B  86      12.707   0.234  21.181  1.00 48.28 LIG 0.35  C 
ATOM     39  N   PRO B  86      13.960  -0.243  20.576  1.00 49.47 LIG 0.32  N 
ATOM     40  CD  PRO B  86      14.552  -1.351  21.344  1.00 50.15 LIG 0.32  C 
ATOM     41  CG  PRO B  86      14.041  -1.102  22.729  1.00 49.89 LIG 0.04  C 
ATOM     42  CB  PRO B  86      12.708  -0.406  22.582  1.00 49.17 LIG 0.05  C 
ENDBRANCH 36 38
ENDBRANCH 33 34
ENDBRANCH 31 33
ENDBRANCH 1 26
TORSDOF 11
ENDMDL
MODEL 51
USER: ADFR SOLUTION from run 101
USER: SCORE 12.685234 LL:  -3.800 LR:  -9.285 RR:   0.000 FEB:  -6.004
USER: RMSD 9.532165
USER: SEED 100
USER: STATUS no improvement in best in 9 clusters for 5 generations
USER: GENES 13
USER: genes 0 Translation |==|  0.31760 0.31948 0.56956
USER: genes 1 Rotation |==|  0.25939 0.77251 0.71534 0.76735
USER: genes 2 Torsion [C]-N--CA-[CB] |==|  0.77125
USER: genes 3 Torsion [N]-CA--C-[N] |==|  0.21585
USER: genes 4 Torsion [N]-CA--C-[N] |==|  0.54871
USER: genes 5 Torsion [C]-N--CA-[CB] |==|  0.45533
USER: genes 6 Torsion [N]-CA--C-[OXT] |==|  0.91493
USER: genes 7 Torsion [N]-CA--CB-[CG] |==|  0.57034
USER: genes 8 Torsion [CA]-CB--CG-[CD2] |==|  0.71776
USER: genes 9 Torsion [O]-C--CA-[CB] |==|  0.18915
USER: genes 10 Torsion [N]-C--CA-[N] |==|  0.45068
USER: genes 11 Torsion [C]-CA--N-[C] |==|  0.21667
USER: genes 12 Torsion [N]-C--CA-[CB] |==|  0.57298
ROOT
ATOM      1  C   PRO B  88      13.479   1.002  19.849  1.00 31.41 LIG 0.24  C 
ATOM      2 O    PRO B  88      12.370   0.598  19.478  1.00 30.85 LIG-0.27  OA
ATOM      3  N   LEU B  89      14.178   1.934  19.208  1.00 29.89 LIG-0.35  N 
ATOM      4 H    LEU B  89      14.955   2.207  19.455  1.00 29.89 LIG 0.16  HD
ENDROOT
BRANCH 3 5
ATOM      5  CA  LEU B  89      13.667   2.581  18.007  1.00 30.22 LIG 0.18  C 
BRANCH 5 6
ATOM      6  C   LEU B  89      12.166   2.836  18.148  1.00 29.45 LIG 0.24  C 
ATOM      7 O    LEU B  89      11.360   2.107  17.576  1.00 27.07 LIG-0.27  OA
ATOM      8  N   PRO B  90      11.790   3.880  18.905  1.00 31.27 LIG-0.34  N 
ATOM      9  CD  PRO B  90      12.673   4.761  19.697  1.00 32.01 LIG 0.13  C 
ATOM     10  CA  PRO B  90      10.366   4.206  19.112  1.00 32.16 LIG 0.18  C 
ATOM     11  CG  PRO B  90      11.729   5.798  20.244  1.00 32.17 LIG 0.02  C 
ATOM     12  CB  PRO B  90      10.400   5.120  20.334  1.00 32.36 LIG 0.04  C 
BRANCH 10 13
ATOM     13  C   PRO B  90       9.694   4.916  17.927  1.00 32.74 LIG 0.24  C 
ATOM     14  N   ALA B  91       8.543   5.554  18.159  1.00 33.34 LIG-0.34  N 
ATOM     15 H    ALA B  91       8.143   5.552  18.920  1.00 33.34 LIG 0.16  HD
ATOM     16 O    PRO B  90      10.231   4.875  16.819  1.00 32.61 LIG-0.27  OA
BRANCH 14 17
ATOM     17  CA  ALA B  91       7.846   6.329  17.118  1.00 34.79 LIG 0.18  C 
ATOM     18  CB  ALA B  91       6.387   6.610  17.535  1.00 34.67 LIG 0.04  C 
BRANCH 17 19
ATOM     19  C   ALA B  91       8.583   7.640  16.827  1.00 35.98 LIG 0.20  C 
ATOM     20 OXT  ALA B  91       9.232   8.227  17.710  1.00 36.84 LIG-0.65  OA
ATOM     21 O    ALA B  91       8.526   8.147  15.701  1.00 37.03 LIG-0.65  OA
ENDBRANCH 17 19
ENDBRANCH 14 17
ENDBRANCH 10 13
ENDBRANCH 5 6
BRANCH 5 22
ATOM     22  CB  LEU B  89      13.922   1.715  16.771  1.00 30.14 LIG 0.04  C 
BRANCH 22 23
ATOM     23  CG  LEU B  89      14.015   2.414  15.412  1.00 30.45 LIG-0.02  C 
ATOM     24  CD1 LEU B  89      15.215   1.860  14.647  1.00 30.38 LIG 0.01  C 
ATOM     25  CD2 LEU B  89      12.713   2.253  14.626  1.00 30.79 LIG 0.01  C 
ENDBRANCH 22 23
ENDBRANCH 5 22
ENDBRANCH 3 5
BRANCH 1 26
ATOM     26  CA  PRO B  88      14.107   0.451  21.122  1.00 32.64 LIG 0.18  C 
ATOM     27  CB  PRO B  88      14.497  -1.032  20.951  1.00 32.64 LIG 0.04  C 
ATOM     28  CG  PRO B  88      13.458  -1.808  21.710  1.00 32.93 LIG 0.02  C 
ATOM     29  CD  PRO B  88      13.079  -0.901  22.849  1.00 33.68 LIG 0.13  C 
ATOM     30  N   PRO B  88      13.153   0.437  22.238  1.00 34.22 LIG-0.34  N 
ATOM     31  C   GLY B  87      12.470   1.587  22.506  1.00 37.83 LIG 0.24  C 
ATOM     32 O    GLY B  87      12.599   2.614  21.833  1.00 36.70 LIG-0.27  OA
BRANCH 31 33
ATOM     33  CA  GLY B  87      11.503   1.590  23.684  1.00 40.95 LIG 0.23  C 
BRANCH 33 34
ATOM     34  N   GLY B  87      11.155   2.959  24.124  1.00 44.01 LIG-0.35  N 
ATOM     35 H    GLY B  87      11.567   3.222  24.832  1.00 44.01 LIG 0.16  HD
ATOM     36  C   PRO B  86      10.269   3.704  23.456  1.00 46.81 LIG 0.25  C 
ATOM     37 O    PRO B  86       9.708   3.307  22.437  1.00 48.58 LIG-0.27  OA
BRANCH 36 38
ATOM     38  CA  PRO B  86       9.952   5.120  23.964  1.00 48.28 LIG 0.35  C 
ATOM     39  N   PRO B  86      10.810   6.207  23.466  1.00 49.47 LIG 0.32  N 
ATOM     40  CD  PRO B  86      10.024   7.382  23.056  1.00 50.15 LIG 0.32  C 
ATOM     41  CG  PRO B  86       8.705   6.782  22.681  1.00 49.89 LIG 0.04  C 
ATOM     42  CB  PRO B  86       8.537   5.539  23.524  1.00 49.17 LIG 0.05  C 
ENDBRANCH 36 38
ENDBRANCH 33 34
ENDBRANCH 31 33
ENDBRANCH 1 26
TORSDOF 11
ENDMDL
MODEL 52
USER: ADFR SOLUTION from run 11
USER: SCORE 11.771918 LL:  -3.967 LR:  -9.286 RR:   0.000 FEB:  -6.005
USER: RMSD 4.709138
USER: SEED 102974
USER: STATUS no improvement in best in 15 clusters for 5 generations
USER: GENES 13
USER: genes 0 Translation |==|  0.43352 0.52915 0.37829
USER: genes 1 Rotation |==|  0.49695 0.62531 0.15308 0.83754
USER: genes 2 Torsion [C]-N--CA-[CB] |==|  0.85409
USER: genes 3 Torsion [N]-CA--C-[N] |==|  0.13704
USER: genes 4 Torsion [N]-CA--C-[N] |==|  0.91562
USER: genes 5 Torsion [C]-N--CA-[CB] |==|  0.16615
USER: genes 6 Torsion [N]-CA--C-[OXT] |==|  0.70826
USER: genes 7 Torsion [N]-CA--CB-[CG] |==|  0.93116
USER: genes 8 Torsion [CA]-CB--CG-[CD2] |==|  0.75077
USER: genes 9 Torsion [O]-C--CA-[CB] |==|  0.75187
USER: genes 10 Torsion [N]-C--CA-[N] |==|  0.66102
USER: genes 11 Torsion [C]-CA--N-[C] |==|  0.16159
USER: genes 12 Torsion [N]-C--CA-[CB] |==|  0.73140
ROOT
ATOM      1  C   PRO B  88      16.087   4.462  16.693  1.00 31.41 LIG 0.24  C 
ATOM      2 O    PRO B  88      16.833   4.356  15.712  1.00 30.85 LIG-0.27  OA
ATOM      3  N   LEU B  89      15.934   3.512  17.610  1.00 29.89 LIG-0.35  N 
ATOM      4 H    LEU B  89      15.405   3.577  18.285  1.00 29.89 LIG 0.16  HD
ENDROOT
BRANCH 3 5
ATOM      5  CA  LEU B  89      16.669   2.257  17.539  1.00 30.22 LIG 0.18  C 
BRANCH 5 6
ATOM      6  C   LEU B  89      18.155   2.504  17.797  1.00 29.45 LIG 0.24  C 
ATOM      7 O    LEU B  89      18.999   2.036  17.039  1.00 27.07 LIG-0.27  OA
ATOM      8  N   PRO B  90      18.476   3.235  18.877  1.00 31.27 LIG-0.34  N 
ATOM      9  CD  PRO B  90      17.539   3.910  19.799  1.00 32.01 LIG 0.13  C 
ATOM     10  CA  PRO B  90      19.882   3.539  19.209  1.00 32.16 LIG 0.18  C 
ATOM     11  CG  PRO B  90      18.442   4.478  20.859  1.00 32.17 LIG 0.02  C 
ATOM     12  CB  PRO B  90      19.756   4.707  20.183  1.00 32.36 LIG 0.04  C 
BRANCH 10 13
ATOM     13  C   PRO B  90      20.650   2.378  19.857  1.00 32.74 LIG 0.24  C 
ATOM     14  N   ALA B  91      19.956   1.515  20.604  1.00 33.34 LIG-0.34  N 
ATOM     15 H    ALA B  91      19.117   1.600  20.772  1.00 33.34 LIG 0.16  HD
ATOM     16 O    PRO B  90      21.864   2.281  19.668  1.00 32.61 LIG-0.27  OA
BRANCH 14 17
ATOM     17  CA  ALA B  91      20.572   0.325  21.214  1.00 34.79 LIG 0.18  C 
ATOM     18  CB  ALA B  91      21.713   0.733  22.170  1.00 34.67 LIG 0.04  C 
BRANCH 17 19
ATOM     19  C   ALA B  91      19.526  -0.516  21.953  1.00 35.98 LIG 0.20  C 
ATOM     20 OXT  ALA B  91      19.459  -0.519  23.193  1.00 36.84 LIG-0.65  OA
ATOM     21 O    ALA B  91      18.738  -1.224  21.317  1.00 37.03 LIG-0.65  OA
ENDBRANCH 17 19
ENDBRANCH 14 17
ENDBRANCH 10 13
ENDBRANCH 5 6
BRANCH 5 22
ATOM     22  CB  LEU B  89      16.493   1.599  16.168  1.00 30.14 LIG 0.04  C 
BRANCH 22 23
ATOM     23  CG  LEU B  89      15.238   1.944  15.361  1.00 30.45 LIG-0.02  C 
ATOM     24  CD1 LEU B  89      15.582   1.932  13.874  1.00 30.38 LIG 0.01  C 
ATOM     25  CD2 LEU B  89      14.096   0.981  15.691  1.00 30.79 LIG 0.01  C 
ENDBRANCH 22 23
ENDBRANCH 5 22
ENDBRANCH 3 5
BRANCH 1 26
ATOM     26  CA  PRO B  88      15.300   5.747  16.921  1.00 32.64 LIG 0.18  C 
ATOM     27  CB  PRO B  88      16.113   6.753  17.763  1.00 32.64 LIG 0.04  C 
ATOM     28  CG  PRO B  88      15.500   6.711  19.134  1.00 32.93 LIG 0.02  C 
ATOM     29  CD  PRO B  88      14.045   6.421  18.880  1.00 33.68 LIG 0.13  C 
ATOM     30  N   PRO B  88      14.093   5.510  17.722  1.00 34.22 LIG-0.34  N 
ATOM     31  C   GLY B  87      13.258   4.505  17.334  1.00 37.83 LIG 0.24  C 
ATOM     32 O    GLY B  87      13.493   3.776  16.365  1.00 36.70 LIG-0.27  OA
BRANCH 31 33
ATOM     33  CA  GLY B  87      11.985   4.276  18.141  1.00 40.95 LIG 0.23  C 
BRANCH 33 34
ATOM     34  N   GLY B  87      11.903   2.904  18.688  1.00 44.01 LIG-0.35  N 
ATOM     35 H    GLY B  87      11.207   2.463  18.443  1.00 44.01 LIG 0.16  HD
ATOM     36  C   PRO B  86      12.850   2.417  19.496  1.00 46.81 LIG 0.25  C 
ATOM     37 O    PRO B  86      13.843   3.066  19.816  1.00 48.58 LIG-0.27  OA
BRANCH 36 38
ATOM     38  CA  PRO B  86      12.708   0.982  20.030  1.00 48.28 LIG 0.35  C 
ATOM     39  N   PRO B  86      13.952   0.216  20.204  1.00 49.47 LIG 0.32  N 
ATOM     40  CD  PRO B  86      13.982  -0.497  21.491  1.00 50.15 LIG 0.32  C 
ATOM     41  CG  PRO B  86      13.096   0.347  22.355  1.00 49.89 LIG 0.04  C 
ATOM     42  CB  PRO B  86      12.086   0.997  21.439  1.00 49.17 LIG 0.05  C 
ENDBRANCH 36 38
ENDBRANCH 33 34
ENDBRANCH 31 33
ENDBRANCH 1 26
TORSDOF 11
ENDMDL
MODEL 53
USER: ADFR SOLUTION from run 44
USER: SCORE 11.132537 LL:  -3.024 LR:  -9.280 RR:   0.000 FEB:  -5.999
USER: RMSD 9.821367
USER: SEED 43
USER: STATUS no improvement in best in 13 clusters for 5 generations
USER: GENES 13
USER: genes 0 Translation |==|  0.60939 0.48997 0.45706
USER: genes 1 Rotation |==|  0.72877 0.50124 0.06193 0.57589
USER: genes 2 Torsion [C]-N--CA-[CB] |==|  0.27162
USER: genes 3 Torsion [N]-CA--C-[N] |==|  0.40628
USER: genes 4 Torsion [N]-CA--C-[N] |==|  0.23672
USER: genes 5 Torsion [C]-N--CA-[CB] |==|  0.29864
USER: genes 6 Torsion [N]-CA--C-[OXT] |==|  0.84633
USER: genes 7 Torsion [N]-CA--CB-[CG] |==|  0.85772
USER: genes 8 Torsion [CA]-CB--CG-[CD2] |==|  0.61058
USER: genes 9 Torsion [O]-C--CA-[CB] |==|  0.57501
USER: genes 10 Torsion [N]-C--CA-[N] |==|  0.49212
USER: genes 11 Torsion [C]-CA--N-[C] |==|  0.76348
USER: genes 12 Torsion [N]-C--CA-[CB] |==|  0.79501
ROOT
ATOM      1  C   PRO B  88      20.044   3.816  17.992  1.00 31.41 LIG 0.24  C 
ATOM      2 O    PRO B  88      20.584   2.808  17.519  1.00 30.85 LIG-0.27  OA
ATOM      3  N   LEU B  89      18.728   3.985  18.062  1.00 29.89 LIG-0.35  N 
ATOM      4 H    LEU B  89      18.350   4.690  18.378  1.00 29.89 LIG 0.16  HD
ENDROOT
BRANCH 3 5
ATOM      5  CA  LEU B  89      17.801   2.961  17.598  1.00 30.22 LIG 0.18  C 
BRANCH 5 6
ATOM      6  C   LEU B  89      16.610   3.613  16.895  1.00 29.45 LIG 0.24  C 
ATOM      7 O    LEU B  89      16.184   4.698  17.281  1.00 27.07 LIG-0.27  OA
ATOM      8  N   PRO B  90      16.066   2.945  15.865  1.00 31.27 LIG-0.34  N 
ATOM      9  CD  PRO B  90      16.554   1.681  15.274  1.00 32.01 LIG 0.13  C 
ATOM     10  CA  PRO B  90      14.920   3.491  15.114  1.00 32.16 LIG 0.18  C 
ATOM     11  CG  PRO B  90      15.512   1.356  14.239  1.00 32.17 LIG 0.02  C 
ATOM     12  CB  PRO B  90      14.935   2.672  13.826  1.00 32.36 LIG 0.04  C 
BRANCH 10 13
ATOM     13  C   PRO B  90      13.566   3.353  15.824  1.00 32.74 LIG 0.24  C 
ATOM     14  N   ALA B  91      13.226   4.302  16.702  1.00 33.34 LIG-0.34  N 
ATOM     15 H    ALA B  91      13.741   4.957  16.917  1.00 33.34 LIG 0.16  HD
ATOM     16 O    PRO B  90      12.846   2.387  15.565  1.00 32.61 LIG-0.27  OA
BRANCH 14 17
ATOM     17  CA  ALA B  91      11.923   4.314  17.389  1.00 34.79 LIG 0.18  C 
ATOM     18  CB  ALA B  91      12.089   3.927  18.874  1.00 34.67 LIG 0.04  C 
BRANCH 17 19
ATOM     19  C   ALA B  91      11.250   5.683  17.262  1.00 35.98 LIG 0.20  C 
ATOM     20 OXT  ALA B  91      11.826   6.723  17.625  1.00 36.84 LIG-0.65  OA
ATOM     21 O    ALA B  91      10.103   5.771  16.809  1.00 37.03 LIG-0.65  OA
ENDBRANCH 17 19
ENDBRANCH 14 17
ENDBRANCH 10 13
ENDBRANCH 5 6
BRANCH 5 22
ATOM     22  CB  LEU B  89      17.299   2.110  18.767  1.00 30.14 LIG 0.04  C 
BRANCH 22 23
ATOM     23  CG  LEU B  89      18.340   1.502  19.712  1.00 30.45 LIG-0.02  C 
ATOM     24  CD1 LEU B  89      18.501   2.411  20.928  1.00 30.38 LIG 0.01  C 
ATOM     25  CD2 LEU B  89      17.947   0.078  20.111  1.00 30.79 LIG 0.01  C 
ENDBRANCH 22 23
ENDBRANCH 5 22
ENDBRANCH 3 5
BRANCH 1 26
ATOM     26  CA  PRO B  88      20.896   4.941  18.566  1.00 32.64 LIG 0.18  C 
ATOM     27  CB  PRO B  88      20.125   5.723  19.650  1.00 32.64 LIG 0.04  C 
ATOM     28  CG  PRO B  88      19.724   7.017  18.999  1.00 32.93 LIG 0.02  C 
ATOM     29  CD  PRO B  88      20.838   7.302  18.028  1.00 33.68 LIG 0.13  C 
ATOM     30  N   PRO B  88      21.208   5.957  17.554  1.00 34.22 LIG-0.34  N 
ATOM     31  C   GLY B  87      21.721   5.534  16.363  1.00 37.83 LIG 0.24  C 
ATOM     32 O    GLY B  87      21.900   4.341  16.098  1.00 36.70 LIG-0.27  OA
BRANCH 31 33
ATOM     33  CA  GLY B  87      22.079   6.586  15.320  1.00 40.95 LIG 0.23  C 
BRANCH 33 34
ATOM     34  N   GLY B  87      22.685   5.995  14.107  1.00 44.01 LIG-0.35  N 
ATOM     35 H    GLY B  87      22.129   5.839  13.470  1.00 44.01 LIG 0.16  HD
ATOM     36  C   PRO B  86      23.994   5.736  14.036  1.00 46.81 LIG 0.25  C 
ATOM     37 O    PRO B  86      24.768   5.985  14.957  1.00 48.58 LIG-0.27  OA
BRANCH 36 38
ATOM     38  CA  PRO B  86      24.564   5.122  12.746  1.00 48.28 LIG 0.35  C 
ATOM     39  N   PRO B  86      26.029   5.104  12.614  1.00 49.47 LIG 0.32  N 
ATOM     40  CD  PRO B  86      26.520   3.805  12.126  1.00 50.15 LIG 0.32  C 
ATOM     41  CG  PRO B  86      25.460   2.856  12.593  1.00 49.89 LIG 0.04  C 
ATOM     42  CB  PRO B  86      24.167   3.637  12.642  1.00 49.17 LIG 0.05  C 
ENDBRANCH 36 38
ENDBRANCH 33 34
ENDBRANCH 31 33
ENDBRANCH 1 26
TORSDOF 11
ENDMDL
MODEL 54
USER: ADFR SOLUTION from run 195
USER: SCORE 11.630793 LL:  -3.065 LR:  -9.270 RR:   0.000 FEB:  -5.989
USER: RMSD 9.966015
USER: SEED 194
USER: STATUS no improvement in best in 26 clusters for 5 generations
USER: GENES 13
USER: genes 0 Translation |==|  0.42220 0.33297 0.55551
USER: genes 1 Rotation |==|  0.60965 0.97486 0.51581 0.61061
USER: genes 2 Torsion [C]-N--CA-[CB] |==|  0.52222
USER: genes 3 Torsion [N]-CA--C-[N] |==|  0.39938
USER: genes 4 Torsion [N]-CA--C-[N] |==|  0.48298
USER: genes 5 Torsion [C]-N--CA-[CB] |==|  0.33849
USER: genes 6 Torsion [N]-CA--C-[OXT] |==|  0.40970
USER: genes 7 Torsion [N]-CA--CB-[CG] |==|  0.57438
USER: genes 8 Torsion [CA]-CB--CG-[CD2] |==|  0.66875
USER: genes 9 Torsion [O]-C--CA-[CB] |==|  0.18464
USER: genes 10 Torsion [N]-C--CA-[N] |==|  0.55532
USER: genes 11 Torsion [C]-CA--N-[C] |==|  0.66827
USER: genes 12 Torsion [N]-C--CA-[CB] |==|  0.89342
ROOT
ATOM      1  C   PRO B  88      15.832   1.225  19.617  1.00 31.41 LIG 0.24  C 
ATOM      2 O    PRO B  88      15.720   2.339  20.142  1.00 30.85 LIG-0.27  OA
ATOM      3  N   LEU B  89      15.607   0.990  18.328  1.00 29.89 LIG-0.35  N 
ATOM      4 H    LEU B  89      15.671   0.214  17.963  1.00 29.89 LIG 0.16  HD
ENDROOT
BRANCH 3 5
ATOM      5  CA  LEU B  89      15.226   2.057  17.413  1.00 30.22 LIG 0.18  C 
BRANCH 5 6
ATOM      6  C   LEU B  89      14.051   2.846  17.988  1.00 29.45 LIG 0.24  C 
ATOM      7 O    LEU B  89      13.170   2.269  18.619  1.00 27.07 LIG-0.27  OA
ATOM      8  N   PRO B  90      14.032   4.170  17.764  1.00 31.27 LIG-0.34  N 
ATOM      9  CD  PRO B  90      15.080   4.968  17.094  1.00 32.01 LIG 0.13  C 
ATOM     10  CA  PRO B  90      12.947   5.024  18.284  1.00 32.16 LIG 0.18  C 
ATOM     11  CG  PRO B  90      14.483   6.347  17.034  1.00 32.17 LIG 0.02  C 
ATOM     12  CB  PRO B  90      13.543   6.426  18.194  1.00 32.36 LIG 0.04  C 
BRANCH 10 13
ATOM     13  C   PRO B  90      11.635   4.944  17.490  1.00 32.74 LIG 0.24  C 
ATOM     14  N   ALA B  91      10.574   5.594  17.979  1.00 33.34 LIG-0.34  N 
ATOM     15 H    ALA B  91      10.578   6.015  18.729  1.00 33.34 LIG 0.16  HD
ATOM     16 O    PRO B  90      11.604   4.295  16.444  1.00 32.61 LIG-0.27  OA
BRANCH 14 17
ATOM     17  CA  ALA B  91       9.285   5.649  17.268  1.00 34.79 LIG 0.18  C 
ATOM     18  CB  ALA B  91       8.156   5.068  18.145  1.00 34.67 LIG 0.04  C 
BRANCH 17 19
ATOM     19  C   ALA B  91       8.954   7.083  16.845  1.00 35.98 LIG 0.20  C 
ATOM     20 OXT  ALA B  91       8.319   7.320  15.803  1.00 36.84 LIG-0.65  OA
ATOM     21 O    ALA B  91       9.333   8.036  17.535  1.00 37.03 LIG-0.65  OA
ENDBRANCH 17 19
ENDBRANCH 14 17
ENDBRANCH 10 13
ENDBRANCH 5 6
BRANCH 5 22
ATOM     22  CB  LEU B  89      14.838   1.489  16.045  1.00 30.14 LIG 0.04  C 
BRANCH 22 23
ATOM     23  CG  LEU B  89      15.014   2.389  14.819  1.00 30.45 LIG-0.02  C 
ATOM     24  CD1 LEU B  89      16.037   1.757  13.879  1.00 30.38 LIG 0.01  C 
ATOM     25  CD2 LEU B  89      13.672   2.630  14.123  1.00 30.79 LIG 0.01  C 
ENDBRANCH 22 23
ENDBRANCH 5 22
ENDBRANCH 3 5
BRANCH 1 26
ATOM     26  CA  PRO B  88      16.279   0.029  20.448  1.00 32.64 LIG 0.18  C 
ATOM     27  CB  PRO B  88      15.220  -0.336  21.510  1.00 32.64 LIG 0.04  C 
ATOM     28  CG  PRO B  88      15.777   0.160  22.815  1.00 32.93 LIG 0.02  C 
ATOM     29  CD  PRO B  88      17.267   0.013  22.660  1.00 33.68 LIG 0.13  C 
ATOM     30  N   PRO B  88      17.479   0.334  21.238  1.00 34.22 LIG-0.34  N 
ATOM     31  C   GLY B  87      18.545   0.886  20.590  1.00 37.83 LIG 0.24  C 
ATOM     32 O    GLY B  87      18.525   1.165  19.387  1.00 36.70 LIG-0.27  OA
BRANCH 31 33
ATOM     33  CA  GLY B  87      19.806   1.173  21.397  1.00 40.95 LIG 0.23  C 
BRANCH 33 34
ATOM     34  N   GLY B  87      20.683   2.166  20.739  1.00 44.01 LIG-0.35  N 
ATOM     35 H    GLY B  87      20.320   2.936  20.617  1.00 44.01 LIG 0.16  HD
ATOM     36  C   PRO B  86      21.932   1.862  20.375  1.00 46.81 LIG 0.25  C 
ATOM     37 O    PRO B  86      22.429   0.757  20.577  1.00 48.58 LIG-0.27  OA
BRANCH 36 38
ATOM     38  CA  PRO B  86      22.794   2.940  19.696  1.00 48.28 LIG 0.35  C 
ATOM     39  N   PRO B  86      23.902   2.465  18.852  1.00 49.47 LIG 0.32  N 
ATOM     40  CD  PRO B  86      23.966   3.191  17.573  1.00 50.15 LIG 0.32  C 
ATOM     41  CG  PRO B  86      22.546   3.616  17.363  1.00 49.89 LIG 0.04  C 
ATOM     42  CB  PRO B  86      21.934   3.782  18.734  1.00 49.17 LIG 0.05  C 
ENDBRANCH 36 38
ENDBRANCH 33 34
ENDBRANCH 31 33
ENDBRANCH 1 26
TORSDOF 11
ENDMDL
MODEL 55
USER: ADFR SOLUTION from run 132
USER: SCORE 12.004807 LL:  -3.295 LR:  -9.272 RR:   0.000 FEB:  -5.991
USER: RMSD 9.939039
USER: SEED 131
USER: STATUS no improvement in best in 12 clusters for 5 generations
USER: GENES 13
USER: genes 0 Translation |==|  0.50848 0.38944 0.46284
USER: genes 1 Rotation |==|  0.26755 0.46450 0.86261 0.75144
USER: genes 2 Torsion [C]-N--CA-[CB] |==|  0.79956
USER: genes 3 Torsion [N]-CA--C-[N] |==|  0.21390
USER: genes 4 Torsion [N]-CA--C-[N] |==|  0.73058
USER: genes 5 Torsion [C]-N--CA-[CB] |==|  0.42410
USER: genes 6 Torsion [N]-CA--C-[OXT] |==|  0.44605
USER: genes 7 Torsion [N]-CA--CB-[CG] |==|  0.54603
USER: genes 8 Torsion [CA]-CB--CG-[CD2] |==|  0.09256
USER: genes 9 Torsion [O]-C--CA-[CB] |==|  0.66392
USER: genes 10 Torsion [N]-C--CA-[N] |==|  0.50920
USER: genes 11 Torsion [C]-CA--N-[C] |==|  0.73341
USER: genes 12 Torsion [N]-C--CA-[CB] |==|  0.78174
ROOT
ATOM      1  C   PRO B  88      17.774   2.157  18.088  1.00 31.41 LIG 0.24  C 
ATOM      2 O    PRO B  88      17.480   1.731  16.964  1.00 30.85 LIG-0.27  OA
ATOM      3  N   LEU B  89      17.273   3.272  18.609  1.00 29.89 LIG-0.35  N 
ATOM      4 H    LEU B  89      17.486   3.578  19.384  1.00 29.89 LIG 0.16  HD
ENDROOT
BRANCH 3 5
ATOM      5  CA  LEU B  89      16.300   4.081  17.889  1.00 30.22 LIG 0.18  C 
BRANCH 5 6
ATOM      6  C   LEU B  89      15.173   3.196  17.357  1.00 29.45 LIG 0.24  C 
ATOM      7 O    LEU B  89      15.137   2.891  16.168  1.00 27.07 LIG-0.27  OA
ATOM      8  N   PRO B  90      14.245   2.788  18.238  1.00 31.27 LIG-0.34  N 
ATOM      9  CD  PRO B  90      14.244   3.030  19.696  1.00 32.01 LIG 0.13  C 
ATOM     10  CA  PRO B  90      13.122   1.923  17.827  1.00 32.16 LIG 0.18  C 
ATOM     11  CG  PRO B  90      12.932   2.444  20.144  1.00 32.17 LIG 0.02  C 
ATOM     12  CB  PRO B  90      12.617   1.368  19.156  1.00 32.36 LIG 0.04  C 
BRANCH 10 13
ATOM     13  C   PRO B  90      11.992   2.652  17.084  1.00 32.74 LIG 0.24  C 
ATOM     14  N   ALA B  91      10.927   3.033  17.796  1.00 33.34 LIG-0.34  N 
ATOM     15 H    ALA B  91      10.826   2.856  18.631  1.00 33.34 LIG 0.16  HD
ATOM     16 O    PRO B  90      12.104   2.859  15.875  1.00 32.61 LIG-0.27  OA
BRANCH 14 17
ATOM     17  CA  ALA B  91       9.818   3.802  17.207  1.00 34.79 LIG 0.18  C 
ATOM     18  CB  ALA B  91       8.503   3.528  17.968  1.00 34.67 LIG 0.04  C 
BRANCH 17 19
ATOM     19  C   ALA B  91      10.133   5.301  17.200  1.00 35.98 LIG 0.20  C 
ATOM     20 OXT  ALA B  91       9.526   6.085  16.451  1.00 36.84 LIG-0.65  OA
ATOM     21 O    ALA B  91      11.017   5.752  17.937  1.00 37.03 LIG-0.65  OA
ENDBRANCH 17 19
ENDBRANCH 14 17
ENDBRANCH 10 13
ENDBRANCH 5 6
BRANCH 5 22
ATOM     22  CB  LEU B  89      16.961   4.819  16.722  1.00 30.14 LIG 0.04  C 
BRANCH 22 23
ATOM     23  CG  LEU B  89      16.206   5.996  16.097  1.00 30.45 LIG-0.02  C 
ATOM     24  CD1 LEU B  89      15.331   5.479  14.958  1.00 30.38 LIG 0.01  C 
ATOM     25  CD2 LEU B  89      15.387   6.741  17.154  1.00 30.79 LIG 0.01  C 
ENDBRANCH 22 23
ENDBRANCH 5 22
ENDBRANCH 3 5
BRANCH 1 26
ATOM     26  CA  PRO B  88      18.739   1.378  18.973  1.00 32.64 LIG 0.18  C 
ATOM     27  CB  PRO B  88      18.072   0.985  20.308  1.00 32.64 LIG 0.04  C 
ATOM     28  CG  PRO B  88      18.653   1.918  21.333  1.00 32.93 LIG 0.02  C 
ATOM     29  CD  PRO B  88      20.052   2.179  20.844  1.00 33.68 LIG 0.13  C 
ATOM     30  N   PRO B  88      19.886   2.198  19.380  1.00 34.22 LIG-0.34  N 
ATOM     31  C   GLY B  87      20.569   2.865  18.406  1.00 37.83 LIG 0.24  C 
ATOM     32 O    GLY B  87      20.242   2.831  17.216  1.00 36.70 LIG-0.27  OA
BRANCH 31 33
ATOM     33  CA  GLY B  87      21.783   3.692  18.817  1.00 40.95 LIG 0.23  C 
BRANCH 33 34
ATOM     34  N   GLY B  87      22.380   4.422  17.678  1.00 44.01 LIG-0.35  N 
ATOM     35 H    GLY B  87      22.004   5.175  17.500  1.00 44.01 LIG 0.16  HD
ATOM     36  C   PRO B  86      23.419   3.928  16.998  1.00 46.81 LIG 0.25  C 
ATOM     37 O    PRO B  86      23.946   2.856  17.286  1.00 48.58 LIG-0.27  OA
BRANCH 36 38
ATOM     38  CA  PRO B  86      23.995   4.738  15.825  1.00 48.28 LIG 0.35  C 
ATOM     39  N   PRO B  86      25.337   4.357  15.356  1.00 49.47 LIG 0.32  N 
ATOM     40  CD  PRO B  86      25.405   4.287  13.887  1.00 50.15 LIG 0.32  C 
ATOM     41  CG  PRO B  86      23.992   3.971  13.507  1.00 49.89 LIG 0.04  C 
ATOM     42  CB  PRO B  86      23.109   4.571  14.576  1.00 49.17 LIG 0.05  C 
ENDBRANCH 36 38
ENDBRANCH 33 34
ENDBRANCH 31 33
ENDBRANCH 1 26
TORSDOF 11
ENDMDL
MODEL 56
USER: ADFR SOLUTION from run 39
USER: SCORE 11.803215 LL:  -3.402 LR:  -9.267 RR:   0.000 FEB:  -5.986
USER: RMSD 10.018600
USER: SEED 38
USER: STATUS no improvement in best in 10 clusters for 5 generations
USER: GENES 13
USER: genes 0 Translation |==|  0.42297 0.51277 0.36231
USER: genes 1 Rotation |==|  0.39752 0.37021 0.84690 0.81987
USER: genes 2 Torsion [C]-N--CA-[CB] |==|  0.80487
USER: genes 3 Torsion [N]-CA--C-[N] |==|  0.14152
USER: genes 4 Torsion [N]-CA--C-[N] |==|  0.16753
USER: genes 5 Torsion [C]-N--CA-[CB] |==|  0.21896
USER: genes 6 Torsion [N]-CA--C-[OXT] |==|  0.22232
USER: genes 7 Torsion [N]-CA--CB-[CG] |==|  0.62459
USER: genes 8 Torsion [CA]-CB--CG-[CD2] |==|  0.38358
USER: genes 9 Torsion [O]-C--CA-[CB] |==|  0.72938
USER: genes 10 Torsion [N]-C--CA-[N] |==|  0.33960
USER: genes 11 Torsion [C]-CA--N-[C] |==|  0.83757
USER: genes 12 Torsion [N]-C--CA-[CB] |==|  0.79380
ROOT
ATOM      1  C   PRO B  88      15.850   4.192  16.429  1.00 31.41 LIG 0.24  C 
ATOM      2 O    PRO B  88      15.348   4.553  15.358  1.00 30.85 LIG-0.27  OA
ATOM      3  N   LEU B  89      15.525   4.711  17.609  1.00 29.89 LIG-0.35  N 
ATOM      4 H    LEU B  89      15.883   4.472  18.354  1.00 29.89 LIG 0.16  HD
ENDROOT
BRANCH 3 5
ATOM      5  CA  LEU B  89      14.513   5.750  17.733  1.00 30.22 LIG 0.18  C 
BRANCH 5 6
ATOM      6  C   LEU B  89      13.235   5.327  17.009  1.00 29.45 LIG 0.24  C 
ATOM      7 O    LEU B  89      12.701   6.086  16.206  1.00 27.07 LIG-0.27  OA
ATOM      8  N   PRO B  90      12.738   4.114  17.300  1.00 31.27 LIG-0.34  N 
ATOM      9  CD  PRO B  90      13.348   3.097  18.184  1.00 32.01 LIG 0.13  C 
ATOM     10  CA  PRO B  90      11.515   3.607  16.649  1.00 32.16 LIG 0.18  C 
ATOM     11  CG  PRO B  90      12.318   2.002  18.216  1.00 32.17 LIG 0.02  C 
ATOM     12  CB  PRO B  90      11.583   2.106  16.918  1.00 32.36 LIG 0.04  C 
BRANCH 10 13
ATOM     13  C   PRO B  90      10.208   4.194  17.201  1.00 32.74 LIG 0.24  C 
ATOM     14  N   ALA B  91      10.037   5.517  17.115  1.00 33.34 LIG-0.34  N 
ATOM     15 H    ALA B  91      10.635   6.054  16.808  1.00 33.34 LIG 0.16  HD
ATOM     16 O    PRO B  90       9.370   3.438  17.696  1.00 32.61 LIG-0.27  OA
BRANCH 14 17
ATOM     17  CA  ALA B  91       8.796   6.183  17.544  1.00 34.79 LIG 0.18  C 
ATOM     18  CB  ALA B  91       8.763   6.334  19.080  1.00 34.67 LIG 0.04  C 
BRANCH 17 19
ATOM     19  C   ALA B  91       8.644   7.548  16.866  1.00 35.98 LIG 0.20  C 
ATOM     20 OXT  ALA B  91       8.225   7.649  15.701  1.00 36.84 LIG-0.65  OA
ATOM     21 O    ALA B  91       8.958   8.579  17.472  1.00 37.03 LIG-0.65  OA
ENDBRANCH 17 19
ENDBRANCH 14 17
ENDBRANCH 10 13
ENDBRANCH 5 6
BRANCH 5 22
ATOM     22  CB  LEU B  89      15.015   7.073  17.147  1.00 30.14 LIG 0.04  C 
BRANCH 22 23
ATOM     23  CG  LEU B  89      14.771   8.352  17.952  1.00 30.45 LIG-0.02  C 
ATOM     24  CD1 LEU B  89      14.370   7.977  19.376  1.00 30.38 LIG 0.01  C 
ATOM     25  CD2 LEU B  89      16.005   9.256  17.926  1.00 30.79 LIG 0.01  C 
ENDBRANCH 22 23
ENDBRANCH 5 22
ENDBRANCH 3 5
BRANCH 1 26
ATOM     26  CA  PRO B  88      16.882   3.072  16.451  1.00 32.64 LIG 0.18  C 
ATOM     27  CB  PRO B  88      16.228   1.721  16.809  1.00 32.64 LIG 0.04  C 
ATOM     28  CG  PRO B  88      16.624   1.451  18.234  1.00 32.93 LIG 0.02  C 
ATOM     29  CD  PRO B  88      17.987   2.075  18.362  1.00 33.68 LIG 0.13  C 
ATOM     30  N   PRO B  88      17.879   3.272  17.510  1.00 34.22 LIG-0.34  N 
ATOM     31  C   GLY B  87      18.495   4.486  17.583  1.00 37.83 LIG 0.24  C 
ATOM     32 O    GLY B  87      18.225   5.421  16.823  1.00 36.70 LIG-0.27  OA
BRANCH 31 33
ATOM     33  CA  GLY B  87      19.557   4.690  18.659  1.00 40.95 LIG 0.23  C 
BRANCH 33 34
ATOM     34  N   GLY B  87      20.866   5.081  18.092  1.00 44.01 LIG-0.35  N 
ATOM     35 H    GLY B  87      21.169   5.833  18.380  1.00 44.01 LIG 0.16  HD
ATOM     36  C   PRO B  86      21.503   4.309  17.207  1.00 46.81 LIG 0.25  C 
ATOM     37 O    PRO B  86      21.052   3.231  16.826  1.00 48.58 LIG-0.27  OA
BRANCH 36 38
ATOM     38  CA  PRO B  86      22.863   4.771  16.657  1.00 48.28 LIG 0.35  C 
ATOM     39  N   PRO B  86      23.646   3.774  15.910  1.00 49.47 LIG 0.32  N 
ATOM     40  CD  PRO B  86      24.208   4.336  14.671  1.00 50.15 LIG 0.32  C 
ATOM     41  CG  PRO B  86      23.243   5.430  14.337  1.00 49.89 LIG 0.04  C 
ATOM     42  CB  PRO B  86      22.666   5.917  15.646  1.00 49.17 LIG 0.05  C 
ENDBRANCH 36 38
ENDBRANCH 33 34
ENDBRANCH 31 33
ENDBRANCH 1 26
TORSDOF 11
ENDMDL
MODEL 57
USER: ADFR SOLUTION from run 139
USER: SCORE 12.615977 LL:  -4.308 LR:  -9.216 RR:   0.000 FEB:  -5.934
USER: RMSD 6.462317
USER: SEED 138
USER: STATUS no improvement in best in 18 clusters for 5 generations
USER: GENES 13
USER: genes 0 Translation |==|  0.21901 0.53704 0.63940
USER: genes 1 Rotation |==|  0.77961 0.48275 0.40625 0.90340
USER: genes 2 Torsion [C]-N--CA-[CB] |==|  0.48347
USER: genes 3 Torsion [N]-CA--C-[N] |==|  0.40056
USER: genes 4 Torsion [N]-CA--C-[N] |==|  0.77368
USER: genes 5 Torsion [C]-N--CA-[CB] |==|  0.15574
USER: genes 6 Torsion [N]-CA--C-[OXT] |==|  0.12286
USER: genes 7 Torsion [N]-CA--CB-[CG] |==|  0.47481
USER: genes 8 Torsion [CA]-CB--CG-[CD2] |==|  0.74400
USER: genes 9 Torsion [O]-C--CA-[CB] |==|  0.73210
USER: genes 10 Torsion [N]-C--CA-[N] |==|  0.54635
USER: genes 11 Torsion [C]-CA--N-[C] |==|  0.21606
USER: genes 12 Torsion [N]-C--CA-[CB] |==|  0.29739
ROOT
ATOM      1  C   PRO B  88      11.261   4.592  21.001  1.00 31.41 LIG 0.24  C 
ATOM      2 O    PRO B  88      12.016   5.288  21.690  1.00 30.85 LIG-0.27  OA
ATOM      3  N   LEU B  89      11.403   3.280  20.844  1.00 29.89 LIG-0.35  N 
ATOM      4 H    LEU B  89      10.888   2.796  20.354  1.00 29.89 LIG 0.16  HD
ENDROOT
BRANCH 3 5
ATOM      5  CA  LEU B  89      12.470   2.543  21.508  1.00 30.22 LIG 0.18  C 
BRANCH 5 6
ATOM      6  C   LEU B  89      13.830   3.004  20.984  1.00 29.45 LIG 0.24  C 
ATOM      7 O    LEU B  89      13.965   3.307  19.802  1.00 27.07 LIG-0.27  OA
ATOM      8  N   PRO B  90      14.843   3.049  21.863  1.00 31.27 LIG-0.34  N 
ATOM      9  CD  PRO B  90      14.766   2.787  23.316  1.00 32.01 LIG 0.13  C 
ATOM     10  CA  PRO B  90      16.193   3.489  21.460  1.00 32.16 LIG 0.18  C 
ATOM     11  CG  PRO B  90      16.199   2.879  23.763  1.00 32.17 LIG 0.02  C 
ATOM     12  CB  PRO B  90      16.860   3.807  22.796  1.00 32.36 LIG 0.04  C 
BRANCH 10 13
ATOM     13  C   PRO B  90      17.004   2.437  20.690  1.00 32.74 LIG 0.24  C 
ATOM     14  N   ALA B  91      17.631   1.494  21.401  1.00 33.34 LIG-0.34  N 
ATOM     15 H    ALA B  91      17.637   1.473  22.261  1.00 33.34 LIG 0.16  HD
ATOM     16 O    PRO B  90      17.049   2.494  19.460  1.00 32.61 LIG-0.27  OA
BRANCH 14 17
ATOM     17  CA  ALA B  91      18.377   0.393  20.769  1.00 34.79 LIG 0.18  C 
ATOM     18  CB  ALA B  91      19.459   0.947  19.817  1.00 34.67 LIG 0.04  C 
BRANCH 17 19
ATOM     19  C   ALA B  91      19.008  -0.519  21.825  1.00 35.98 LIG 0.20  C 
ATOM     20 OXT  ALA B  91      18.370  -0.886  22.826  1.00 36.84 LIG-0.65  OA
ATOM     21 O    ALA B  91      20.180  -0.892  21.702  1.00 37.03 LIG-0.65  OA
ENDBRANCH 17 19
ENDBRANCH 14 17
ENDBRANCH 10 13
ENDBRANCH 5 6
BRANCH 5 22
ATOM     22  CB  LEU B  89      12.318   1.038  21.277  1.00 30.14 LIG 0.04  C 
BRANCH 22 23
ATOM     23  CG  LEU B  89      13.464   0.125  21.722  1.00 30.45 LIG-0.02  C 
ATOM     24  CD1 LEU B  89      12.883  -1.186  22.247  1.00 30.38 LIG 0.01  C 
ATOM     25  CD2 LEU B  89      14.452  -0.107  20.576  1.00 30.79 LIG 0.01  C 
ENDBRANCH 22 23
ENDBRANCH 5 22
ENDBRANCH 3 5
BRANCH 1 26
ATOM     26  CA  PRO B  88      10.068   5.226  20.295  1.00 32.64 LIG 0.18  C 
ATOM     27  CB  PRO B  88       8.779   5.059  21.126  1.00 32.64 LIG 0.04  C 
ATOM     28  CG  PRO B  88       7.994   3.981  20.433  1.00 32.93 LIG 0.02  C 
ATOM     29  CD  PRO B  88       8.345   4.146  18.979  1.00 33.68 LIG 0.13  C 
ATOM     30  N   PRO B  88       9.762   4.547  19.030  1.00 34.22 LIG-0.34  N 
ATOM     31  C   GLY B  87      10.785   4.350  18.149  1.00 37.83 LIG 0.24  C 
ATOM     32 O    GLY B  87      11.948   4.687  18.388  1.00 36.70 LIG-0.27  OA
BRANCH 31 33
ATOM     33  CA  GLY B  87      10.467   3.677  16.819  1.00 40.95 LIG 0.23  C 
BRANCH 33 34
ATOM     34  N   GLY B  87      11.680   3.170  16.139  1.00 44.01 LIG-0.35  N 
ATOM     35 H    GLY B  87      11.958   3.664  15.492  1.00 44.01 LIG 0.16  HD
ATOM     36  C   PRO B  86      12.272   2.036  16.522  1.00 46.81 LIG 0.25  C 
ATOM     37 O    PRO B  86      11.861   1.360  17.462  1.00 48.58 LIG-0.27  OA
BRANCH 36 38
ATOM     38  CA  PRO B  86      13.532   1.564  15.776  1.00 48.28 LIG 0.35  C 
ATOM     39  N   PRO B  86      13.862   2.268  14.527  1.00 49.47 LIG 0.32  N 
ATOM     40  CD  PRO B  86      15.293   2.601  14.447  1.00 50.15 LIG 0.32  C 
ATOM     41  CG  PRO B  86      15.689   2.703  15.887  1.00 49.89 LIG 0.04  C 
ATOM     42  CB  PRO B  86      14.780   1.772  16.655  1.00 49.17 LIG 0.05  C 
ENDBRANCH 36 38
ENDBRANCH 33 34
ENDBRANCH 31 33
ENDBRANCH 1 26
TORSDOF 11
ENDMDL
MODEL 58
USER: ADFR SOLUTION from run 47
USER: SCORE 11.257297 LL:  -3.470 LR:  -9.211 RR:   0.000 FEB:  -5.929
USER: RMSD 6.639425
USER: SEED 46
USER: STATUS no improvement in best in 14 clusters for 5 generations
USER: GENES 13
USER: genes 0 Translation |==|  0.24006 0.40313 0.41085
USER: genes 1 Rotation |==|  0.02302 0.58890 0.47717 0.61859
USER: genes 2 Torsion [C]-N--CA-[CB] |==|  0.43769
USER: genes 3 Torsion [N]-CA--C-[N] |==|  0.89026
USER: genes 4 Torsion [N]-CA--C-[N] |==|  0.46341
USER: genes 5 Torsion [C]-N--CA-[CB] |==|  0.18541
USER: genes 6 Torsion [N]-CA--C-[OXT] |==|  0.89384
USER: genes 7 Torsion [N]-CA--CB-[CG] |==|  0.39342
USER: genes 8 Torsion [CA]-CB--CG-[CD2] |==|  0.13798
USER: genes 9 Torsion [O]-C--CA-[CB] |==|  0.62726
USER: genes 10 Torsion [N]-C--CA-[N] |==|  0.47308
USER: genes 11 Torsion [C]-CA--N-[C] |==|  0.81107
USER: genes 12 Torsion [N]-C--CA-[CB] |==|  0.81218
ROOT
ATOM      1  C   PRO B  88      11.734   2.383  17.230  1.00 31.41 LIG 0.24  C 
ATOM      2 O    PRO B  88      11.640   1.149  17.240  1.00 30.85 LIG-0.27  OA
ATOM      3  N   LEU B  89      12.642   3.048  16.522  1.00 29.89 LIG-0.35  N 
ATOM      4 H    LEU B  89      12.719   3.905  16.525  1.00 29.89 LIG 0.16  HD
ENDROOT
BRANCH 3 5
ATOM      5  CA  LEU B  89      13.598   2.359  15.667  1.00 30.22 LIG 0.18  C 
BRANCH 5 6
ATOM      6  C   LEU B  89      14.765   1.833  16.503  1.00 29.45 LIG 0.24  C 
ATOM      7 O    LEU B  89      15.244   0.728  16.265  1.00 27.07 LIG-0.27  OA
ATOM      8  N   PRO B  90      15.219   2.624  17.489  1.00 31.27 LIG-0.34  N 
ATOM      9  CD  PRO B  90      14.769   3.997  17.799  1.00 32.01 LIG 0.13  C 
ATOM     10  CA  PRO B  90      16.347   2.213  18.346  1.00 32.16 LIG 0.18  C 
ATOM     11  CG  PRO B  90      15.538   4.341  19.046  1.00 32.17 LIG 0.02  C 
ATOM     12  CB  PRO B  90      16.791   3.529  18.979  1.00 32.36 LIG 0.04  C 
BRANCH 10 13
ATOM     13  C   PRO B  90      15.985   1.189  19.432  1.00 32.74 LIG 0.24  C 
ATOM     14  N   ALA B  91      16.990   0.573  20.063  1.00 33.34 LIG-0.34  N 
ATOM     15 H    ALA B  91      17.818   0.690  19.865  1.00 33.34 LIG 0.16  HD
ATOM     16 O    PRO B  90      14.799   0.972  19.683  1.00 32.61 LIG-0.27  OA
BRANCH 14 17
ATOM     17  CA  ALA B  91      16.765  -0.373  21.170  1.00 34.79 LIG 0.18  C 
ATOM     18  CB  ALA B  91      16.052  -1.644  20.661  1.00 34.67 LIG 0.04  C 
BRANCH 17 19
ATOM     19  C   ALA B  91      18.085  -0.735  21.856  1.00 35.98 LIG 0.20  C 
ATOM     20 OXT  ALA B  91      19.131  -0.894  21.204  1.00 36.84 LIG-0.65  OA
ATOM     21 O    ALA B  91      18.124  -0.894  23.081  1.00 37.03 LIG-0.65  OA
ENDBRANCH 17 19
ENDBRANCH 14 17
ENDBRANCH 10 13
ENDBRANCH 5 6
BRANCH 5 22
ATOM     22  CB  LEU B  89      14.132   3.297  14.580  1.00 30.14 LIG 0.04  C 
BRANCH 22 23
ATOM     23  CG  LEU B  89      15.611   3.186  14.201  1.00 30.45 LIG-0.02  C 
ATOM     24  CD1 LEU B  89      16.458   3.800  15.313  1.00 30.38 LIG 0.01  C 
ATOM     25  CD2 LEU B  89      15.996   1.731  13.927  1.00 30.79 LIG 0.01  C 
ENDBRANCH 22 23
ENDBRANCH 5 22
ENDBRANCH 3 5
BRANCH 1 26
ATOM     26  CA  PRO B  88      10.760   3.231  18.037  1.00 32.64 LIG 0.18  C 
ATOM     27  CB  PRO B  88      10.230   4.415  17.201  1.00 32.64 LIG 0.04  C 
ATOM     28  CG  PRO B  88      10.954   5.625  17.720  1.00 32.93 LIG 0.02  C 
ATOM     29  CD  PRO B  88      11.171   5.327  19.180  1.00 33.68 LIG 0.13  C 
ATOM     30  N   PRO B  88      11.417   3.874  19.181  1.00 34.22 LIG-0.34  N 
ATOM     31  C   GLY B  87      12.163   3.090  20.011  1.00 37.83 LIG 0.24  C 
ATOM     32 O    GLY B  87      12.329   1.882  19.819  1.00 36.70 LIG-0.27  OA
BRANCH 31 33
ATOM     33  CA  GLY B  87      12.820   3.745  21.221  1.00 40.95 LIG 0.23  C 
BRANCH 33 34
ATOM     34  N   GLY B  87      13.401   2.754  22.153  1.00 44.01 LIG-0.35  N 
ATOM     35 H    GLY B  87      14.260   2.764  22.194  1.00 44.01 LIG 0.16  HD
ATOM     36  C   PRO B  86      12.629   1.924  22.860  1.00 46.81 LIG 0.25  C 
ATOM     37 O    PRO B  86      11.402   1.945  22.793  1.00 48.58 LIG-0.27  OA
BRANCH 36 38
ATOM     38  CA  PRO B  86      13.294   0.918  23.814  1.00 48.28 LIG 0.35  C 
ATOM     39  N   PRO B  86      12.395   0.118  24.661  1.00 49.47 LIG 0.32  N 
ATOM     40  CD  PRO B  86      12.782  -1.302  24.682  1.00 50.15 LIG 0.32  C 
ATOM     41  CG  PRO B  86      13.472  -1.475  23.364  1.00 49.89 LIG 0.04  C 
ATOM     42  CB  PRO B  86      14.079  -0.137  23.012  1.00 49.17 LIG 0.05  C 
ENDBRANCH 36 38
ENDBRANCH 33 34
ENDBRANCH 31 33
ENDBRANCH 1 26
TORSDOF 11
ENDMDL
MODEL 59
USER: ADFR SOLUTION from run 169
USER: SCORE 11.738528 LL:  -4.531 LR:  -9.196 RR:   0.000 FEB:  -5.915
USER: RMSD 7.458858
USER: SEED 168
USER: STATUS no improvement in best in 11 clusters for 5 generations
USER: GENES 13
USER: genes 0 Translation |==|  0.40717 0.51971 0.29347
USER: genes 1 Rotation |==|  0.38235 0.21476 0.69162 0.84362
USER: genes 2 Torsion [C]-N--CA-[CB] |==|  0.36306
USER: genes 3 Torsion [N]-CA--C-[N] |==|  0.20506
USER: genes 4 Torsion [N]-CA--C-[N] |==|  0.91017
USER: genes 5 Torsion [C]-N--CA-[CB] |==|  0.21713
USER: genes 6 Torsion [N]-CA--C-[OXT] |==|  0.38940
USER: genes 7 Torsion [N]-CA--CB-[CG] |==|  0.08756
USER: genes 8 Torsion [CA]-CB--CG-[CD2] |==|  0.77435
USER: genes 9 Torsion [O]-C--CA-[CB] |==|  0.74444
USER: genes 10 Torsion [N]-C--CA-[N] |==|  0.85030
USER: genes 11 Torsion [C]-CA--N-[C] |==|  0.83814
USER: genes 12 Torsion [N]-C--CA-[CB] |==|  0.43326
ROOT
ATOM      1  C   PRO B  88      15.494   4.306  15.293  1.00 31.41 LIG 0.24  C 
ATOM      2 O    PRO B  88      15.788   5.275  14.582  1.00 30.85 LIG-0.27  OA
ATOM      3  N   LEU B  89      14.625   4.364  16.297  1.00 29.89 LIG-0.35  N 
ATOM      4 H    LEU B  89      14.430   3.696  16.803  1.00 29.89 LIG 0.16  HD
ENDROOT
BRANCH 3 5
ATOM      5  CA  LEU B  89      13.919   5.594  16.626  1.00 30.22 LIG 0.18  C 
BRANCH 5 6
ATOM      6  C   LEU B  89      14.463   6.179  17.930  1.00 29.45 LIG 0.24  C 
ATOM      7 O    LEU B  89      13.799   6.109  18.961  1.00 27.07 LIG-0.27  OA
ATOM      8  N   PRO B  90      15.671   6.763  17.884  1.00 31.27 LIG-0.34  N 
ATOM      9  CD  PRO B  90      16.580   6.823  16.720  1.00 32.01 LIG 0.13  C 
ATOM     10  CA  PRO B  90      16.289   7.349  19.089  1.00 32.16 LIG 0.18  C 
ATOM     11  CG  PRO B  90      17.719   7.675  17.211  1.00 32.17 LIG 0.02  C 
ATOM     12  CB  PRO B  90      17.757   7.473  18.692  1.00 32.36 LIG 0.04  C 
BRANCH 10 13
ATOM     13  C   PRO B  90      15.723   8.717  19.497  1.00 32.74 LIG 0.24  C 
ATOM     14  N   ALA B  91      15.299   9.527  18.523  1.00 33.34 LIG-0.34  N 
ATOM     15 H    ALA B  91      15.365   9.340  17.686  1.00 33.34 LIG 0.16  HD
ATOM     16 O    PRO B  90      15.678   9.017  20.691  1.00 32.61 LIG-0.27  OA
BRANCH 14 17
ATOM     17  CA  ALA B  91      14.671  10.831  18.797  1.00 34.79 LIG 0.18  C 
ATOM     18  CB  ALA B  91      15.741  11.885  19.152  1.00 34.67 LIG 0.04  C 
BRANCH 17 19
ATOM     19  C   ALA B  91      13.832  11.297  17.604  1.00 35.98 LIG 0.20  C 
ATOM     20 OXT  ALA B  91      12.734  11.856  17.765  1.00 36.84 LIG-0.65  OA
ATOM     21 O    ALA B  91      14.234  11.106  16.451  1.00 37.03 LIG-0.65  OA
ENDBRANCH 17 19
ENDBRANCH 14 17
ENDBRANCH 10 13
ENDBRANCH 5 6
BRANCH 5 22
ATOM     22  CB  LEU B  89      12.417   5.339  16.770  1.00 30.14 LIG 0.04  C 
BRANCH 22 23
ATOM     23  CG  LEU B  89      11.968   3.971  17.289  1.00 30.45 LIG-0.02  C 
ATOM     24  CD1 LEU B  89      10.590   4.109  17.932  1.00 30.38 LIG 0.01  C 
ATOM     25  CD2 LEU B  89      11.972   2.933  16.165  1.00 30.79 LIG 0.01  C 
ENDBRANCH 22 23
ENDBRANCH 5 22
ENDBRANCH 3 5
BRANCH 1 26
ATOM     26  CA  PRO B  88      16.117   2.942  15.023  1.00 32.64 LIG 0.18  C 
ATOM     27  CB  PRO B  88      15.231   2.105  14.077  1.00 32.64 LIG 0.04  C 
ATOM     28  CG  PRO B  88      14.565   1.083  14.955  1.00 32.93 LIG 0.02  C 
ATOM     29  CD  PRO B  88      15.576   0.809  16.036  1.00 33.68 LIG 0.13  C 
ATOM     30  N   PRO B  88      16.196   2.130  16.243  1.00 34.22 LIG-0.34  N 
ATOM     31  C   GLY B  87      16.755   2.696  17.351  1.00 37.83 LIG 0.24  C 
ATOM     32 O    GLY B  87      17.162   3.862  17.374  1.00 36.70 LIG-0.27  OA
BRANCH 31 33
ATOM     33  CA  GLY B  87      16.872   1.846  18.612  1.00 40.95 LIG 0.23  C 
BRANCH 33 34
ATOM     34  N   GLY B  87      15.576   1.260  19.018  1.00 44.01 LIG-0.35  N 
ATOM     35 H    GLY B  87      15.572   0.401  19.064  1.00 44.01 LIG 0.16  HD
ATOM     36  C   PRO B  86      14.515   2.027  19.285  1.00 46.81 LIG 0.25  C 
ATOM     37 O    PRO B  86      14.556   3.254  19.226  1.00 48.58 LIG-0.27  OA
BRANCH 36 38
ATOM     38  CA  PRO B  86      13.196   1.357  19.705  1.00 48.28 LIG 0.35  C 
ATOM     39  N   PRO B  86      13.304   0.179  20.581  1.00 49.47 LIG 0.32  N 
ATOM     40  CD  PRO B  86      12.337   0.231  21.689  1.00 50.15 LIG 0.32  C 
ATOM     41  CG  PRO B  86      12.119   1.701  21.868  1.00 49.89 LIG 0.04  C 
ATOM     42  CB  PRO B  86      12.333   2.341  20.516  1.00 49.17 LIG 0.05  C 
ENDBRANCH 36 38
ENDBRANCH 33 34
ENDBRANCH 31 33
ENDBRANCH 1 26
TORSDOF 11
ENDMDL
MODEL 60
USER: ADFR SOLUTION from run 33
USER: SCORE 12.292017 LL:  -3.731 LR:  -9.198 RR:   0.000 FEB:  -5.917
USER: RMSD 9.761018
USER: SEED 32
USER: STATUS no improvement in best in 20 clusters for 5 generations
USER: GENES 13
USER: genes 0 Translation |==|  0.37775 0.43060 0.47187
USER: genes 1 Rotation |==|  0.23683 0.78682 0.77026 0.65948
USER: genes 2 Torsion [C]-N--CA-[CB] |==|  0.78333
USER: genes 3 Torsion [N]-CA--C-[N] |==|  0.17366
USER: genes 4 Torsion [N]-CA--C-[N] |==|  0.60621
USER: genes 5 Torsion [C]-N--CA-[CB] |==|  0.44096
USER: genes 6 Torsion [N]-CA--C-[OXT] |==|  0.79867
USER: genes 7 Torsion [N]-CA--CB-[CG] |==|  0.95932
USER: genes 8 Torsion [CA]-CB--CG-[CD2] |==|  0.63310
USER: genes 9 Torsion [O]-C--CA-[CB] |==|  0.22396
USER: genes 10 Torsion [N]-C--CA-[N] |==|  0.85951
USER: genes 11 Torsion [C]-CA--N-[C] |==|  0.85195
USER: genes 12 Torsion [N]-C--CA-[CB] |==|  0.00134
ROOT
ATOM      1  C   PRO B  88      14.832   2.836  18.237  1.00 31.41 LIG 0.24  C 
ATOM      2 O    PRO B  88      13.872   2.061  18.319  1.00 30.85 LIG-0.27  OA
ATOM      3  N   LEU B  89      14.948   3.773  17.301  1.00 29.89 LIG-0.35  N 
ATOM      4 H    LEU B  89      15.621   4.304  17.233  1.00 29.89 LIG 0.16  HD
ENDROOT
BRANCH 3 5
ATOM      5  CA  LEU B  89      13.915   3.978  16.295  1.00 30.22 LIG 0.18  C 
BRANCH 5 6
ATOM      6  C   LEU B  89      12.532   3.921  16.944  1.00 29.45 LIG 0.24  C 
ATOM      7 O    LEU B  89      11.730   3.054  16.610  1.00 27.07 LIG-0.27  OA
ATOM      8  N   PRO B  90      12.249   4.852  17.868  1.00 31.27 LIG-0.34  N 
ATOM      9  CD  PRO B  90      13.169   5.881  18.398  1.00 32.01 LIG 0.13  C 
ATOM     10  CA  PRO B  90      10.946   4.879  18.560  1.00 32.16 LIG 0.18  C 
ATOM     11  CG  PRO B  90      12.293   6.694  19.311  1.00 32.17 LIG 0.02  C 
ATOM     12  CB  PRO B  90      11.224   5.759  19.776  1.00 32.36 LIG 0.04  C 
BRANCH 10 13
ATOM     13  C   PRO B  90       9.792   5.458  17.728  1.00 32.74 LIG 0.24  C 
ATOM     14  N   ALA B  91       8.894   6.219  18.360  1.00 33.34 LIG-0.34  N 
ATOM     15 H    ALA B  91       8.906   6.364  19.208  1.00 33.34 LIG 0.16  HD
ATOM     16 O    PRO B  90       9.735   5.207  16.524  1.00 32.61 LIG-0.27  OA
BRANCH 14 17
ATOM     17  CA  ALA B  91       7.787   6.886  17.653  1.00 34.79 LIG 0.18  C 
ATOM     18  CB  ALA B  91       6.646   7.232  18.634  1.00 34.67 LIG 0.04  C 
BRANCH 17 19
ATOM     19  C   ALA B  91       8.278   8.146  16.934  1.00 35.98 LIG 0.20  C 
ATOM     20 OXT  ALA B  91       8.584   9.173  17.564  1.00 36.84 LIG-0.65  OA
ATOM     21 O    ALA B  91       8.360   8.163  15.701  1.00 37.03 LIG-0.65  OA
ENDBRANCH 17 19
ENDBRANCH 14 17
ENDBRANCH 10 13
ENDBRANCH 5 6
BRANCH 5 22
ATOM     22  CB  LEU B  89      14.006   2.916  15.196  1.00 30.14 LIG 0.04  C 
BRANCH 22 23
ATOM     23  CG  LEU B  89      15.284   2.076  15.114  1.00 30.45 LIG-0.02  C 
ATOM     24  CD1 LEU B  89      15.002   0.684  15.673  1.00 30.38 LIG 0.01  C 
ATOM     25  CD2 LEU B  89      15.807   2.019  13.677  1.00 30.79 LIG 0.01  C 
ENDBRANCH 22 23
ENDBRANCH 5 22
ENDBRANCH 3 5
BRANCH 1 26
ATOM     26  CA  PRO B  88      15.959   2.769  19.261  1.00 32.64 LIG 0.18  C 
ATOM     27  CB  PRO B  88      16.945   1.631  18.926  1.00 32.64 LIG 0.04  C 
ATOM     28  CG  PRO B  88      16.642   0.538  19.912  1.00 32.93 LIG 0.02  C 
ATOM     29  CD  PRO B  88      16.195   1.269  21.149  1.00 33.68 LIG 0.13  C 
ATOM     30  N   PRO B  88      15.459   2.421  20.596  1.00 34.22 LIG-0.34  N 
ATOM     31  C   GLY B  87      14.410   3.138  21.091  1.00 37.83 LIG 0.24  C 
ATOM     32 O    GLY B  87      13.853   4.036  20.452  1.00 36.70 LIG-0.27  OA
BRANCH 31 33
ATOM     33  CA  GLY B  87      13.908   2.805  22.492  1.00 40.95 LIG 0.23  C 
BRANCH 33 34
ATOM     34  N   GLY B  87      13.653   1.359  22.670  1.00 44.01 LIG-0.35  N 
ATOM     35 H    GLY B  87      14.050   1.007  23.347  1.00 44.01 LIG 0.16  HD
ATOM     36  C   PRO B  86      12.865   0.680  21.831  1.00 46.81 LIG 0.25  C 
ATOM     37 O    PRO B  86      12.298   1.214  20.880  1.00 48.58 LIG-0.27  OA
BRANCH 36 38
ATOM     38  CA  PRO B  86      12.638  -0.822  22.072  1.00 48.28 LIG 0.35  C 
ATOM     39  N   PRO B  86      13.105  -1.737  21.019  1.00 49.47 LIG 0.32  N 
ATOM     40  CD  PRO B  86      13.825  -2.893  21.577  1.00 50.15 LIG 0.32  C 
ATOM     41  CG  PRO B  86      14.366  -2.353  22.865  1.00 49.89 LIG 0.04  C 
ATOM     42  CB  PRO B  86      13.405  -1.282  23.325  1.00 49.17 LIG 0.05  C 
ENDBRANCH 36 38
ENDBRANCH 33 34
ENDBRANCH 31 33
ENDBRANCH 1 26
TORSDOF 11
ENDMDL
MODEL 61
USER: ADFR SOLUTION from run 174
USER: SCORE 11.212188 LL:  -2.873 LR:  -9.191 RR:   0.000 FEB:  -5.910
USER: RMSD 4.092704
USER: SEED 173
USER: STATUS no improvement in best in 14 clusters for 5 generations
USER: GENES 13
USER: genes 0 Translation |==|  0.41728 0.48173 0.32705
USER: genes 1 Rotation |==|  0.49261 0.56499 0.65104 0.97213
USER: genes 2 Torsion [C]-N--CA-[CB] |==|  0.17373
USER: genes 3 Torsion [N]-CA--C-[N] |==|  0.80816
USER: genes 4 Torsion [N]-CA--C-[N] |==|  0.64026
USER: genes 5 Torsion [C]-N--CA-[CB] |==|  0.29968
USER: genes 6 Torsion [N]-CA--C-[OXT] |==|  0.85510
USER: genes 7 Torsion [N]-CA--CB-[CG] |==|  0.73862
USER: genes 8 Torsion [CA]-CB--CG-[CD2] |==|  0.71056
USER: genes 9 Torsion [O]-C--CA-[CB] |==|  0.08685
USER: genes 10 Torsion [N]-C--CA-[N] |==|  0.89444
USER: genes 11 Torsion [C]-CA--N-[C] |==|  0.81511
USER: genes 12 Torsion [N]-C--CA-[CB] |==|  0.32478
ROOT
ATOM      1  C   PRO B  88      15.722   3.680  15.847  1.00 31.41 LIG 0.24  C 
ATOM      2 O    PRO B  88      15.270   4.673  15.266  1.00 30.85 LIG-0.27  OA
ATOM      3  N   LEU B  89      16.738   3.723  16.703  1.00 29.89 LIG-0.35  N 
ATOM      4 H    LEU B  89      17.064   3.032  17.098  1.00 29.89 LIG 0.16  HD
ENDROOT
BRANCH 3 5
ATOM      5  CA  LEU B  89      17.395   4.977  17.044  1.00 30.22 LIG 0.18  C 
BRANCH 5 6
ATOM      6  C   LEU B  89      18.581   4.713  17.972  1.00 29.45 LIG 0.24  C 
ATOM      7 O    LEU B  89      19.728   4.875  17.567  1.00 27.07 LIG-0.27  OA
ATOM      8  N   PRO B  90      18.304   4.296  19.218  1.00 31.27 LIG-0.34  N 
ATOM      9  CD  PRO B  90      16.964   4.152  19.825  1.00 32.01 LIG 0.13  C 
ATOM     10  CA  PRO B  90      19.377   4.023  20.194  1.00 32.16 LIG 0.18  C 
ATOM     11  CG  PRO B  90      17.256   3.562  21.178  1.00 32.17 LIG 0.02  C 
ATOM     12  CB  PRO B  90      18.633   4.027  21.527  1.00 32.36 LIG 0.04  C 
BRANCH 10 13
ATOM     13  C   PRO B  90      20.103   2.686  19.987  1.00 32.74 LIG 0.24  C 
ATOM     14  N   ALA B  91      20.231   1.880  21.045  1.00 33.34 LIG-0.34  N 
ATOM     15 H    ALA B  91      19.968   2.088  21.836  1.00 33.34 LIG 0.16  HD
ATOM     16 O    PRO B  90      20.535   2.403  18.868  1.00 32.61 LIG-0.27  OA
BRANCH 14 17
ATOM     17  CA  ALA B  91      20.844   0.544  20.950  1.00 34.79 LIG 0.18  C 
ATOM     18  CB  ALA B  91      22.237   0.536  21.616  1.00 34.67 LIG 0.04  C 
BRANCH 17 19
ATOM     19  C   ALA B  91      19.941  -0.519  21.582  1.00 35.98 LIG 0.20  C 
ATOM     20 OXT  ALA B  91      19.499  -0.389  22.736  1.00 36.84 LIG-0.65  OA
ATOM     21 O    ALA B  91      19.651  -1.542  20.951  1.00 37.03 LIG-0.65  OA
ENDBRANCH 17 19
ENDBRANCH 14 17
ENDBRANCH 10 13
ENDBRANCH 5 6
BRANCH 5 22
ATOM     22  CB  LEU B  89      16.417   5.936  17.729  1.00 30.14 LIG 0.04  C 
BRANCH 22 23
ATOM     23  CG  LEU B  89      15.685   6.958  16.857  1.00 30.45 LIG-0.02  C 
ATOM     24  CD1 LEU B  89      14.198   6.934  17.201  1.00 30.38 LIG 0.01  C 
ATOM     25  CD2 LEU B  89      16.288   8.354  17.029  1.00 30.79 LIG 0.01  C 
ENDBRANCH 22 23
ENDBRANCH 5 22
ENDBRANCH 3 5
BRANCH 1 26
ATOM     26  CA  PRO B  88      15.091   2.310  15.625  1.00 32.64 LIG 0.18  C 
ATOM     27  CB  PRO B  88      14.513   2.191  14.199  1.00 32.64 LIG 0.04  C 
ATOM     28  CG  PRO B  88      13.024   2.309  14.361  1.00 32.93 LIG 0.02  C 
ATOM     29  CD  PRO B  88      12.750   1.695  15.708  1.00 33.68 LIG 0.13  C 
ATOM     30  N   PRO B  88      13.928   2.099  16.495  1.00 34.22 LIG-0.34  N 
ATOM     31  C   GLY B  87      14.079   2.341  17.829  1.00 37.83 LIG 0.24  C 
ATOM     32 O    GLY B  87      15.133   2.756  18.319  1.00 36.70 LIG-0.27  OA
BRANCH 31 33
ATOM     33  CA  GLY B  87      12.885   2.090  18.743  1.00 40.95 LIG 0.23  C 
BRANCH 33 34
ATOM     34  N   GLY B  87      11.603   2.481  18.117  1.00 44.01 LIG-0.35  N 
ATOM     35 H    GLY B  87      11.072   1.825  17.951  1.00 44.01 LIG 0.16  HD
ATOM     36  C   PRO B  86      11.320   3.758  17.843  1.00 46.81 LIG 0.25  C 
ATOM     37 O    PRO B  86      12.092   4.677  18.107  1.00 48.58 LIG-0.27  OA
BRANCH 36 38
ATOM     38  CA  PRO B  86       9.969   4.100  17.193  1.00 48.28 LIG 0.35  C 
ATOM     39  N   PRO B  86       9.076   2.969  16.892  1.00 49.47 LIG 0.32  N 
ATOM     40  CD  PRO B  86       7.688   3.244  17.298  1.00 50.15 LIG 0.32  C 
ATOM     41  CG  PRO B  86       7.860   4.224  18.417  1.00 49.89 LIG 0.04  C 
ATOM     42  CB  PRO B  86       9.134   4.986  18.136  1.00 49.17 LIG 0.05  C 
ENDBRANCH 36 38
ENDBRANCH 33 34
ENDBRANCH 31 33
ENDBRANCH 1 26
TORSDOF 11
ENDMDL
MODEL 62
USER: ADFR SOLUTION from run 147
USER: SCORE 12.338892 LL:  -3.513 LR:  -9.177 RR:   0.000 FEB:  -5.896
USER: RMSD 4.280997
USER: SEED 146
USER: STATUS no improvement in best in 15 clusters for 5 generations
USER: GENES 13
USER: genes 0 Translation |==|  0.45007 0.38567 0.33686
USER: genes 1 Rotation |==|  0.17580 0.29431 0.31187 0.75921
USER: genes 2 Torsion [C]-N--CA-[CB] |==|  0.55007
USER: genes 3 Torsion [N]-CA--C-[N] |==|  0.42791
USER: genes 4 Torsion [N]-CA--C-[N] |==|  0.31199
USER: genes 5 Torsion [C]-N--CA-[CB] |==|  0.22012
USER: genes 6 Torsion [N]-CA--C-[OXT] |==|  0.33598
USER: genes 7 Torsion [N]-CA--CB-[CG] |==|  0.84326
USER: genes 8 Torsion [CA]-CB--CG-[CD2] |==|  0.24531
USER: genes 9 Torsion [O]-C--CA-[CB] |==|  0.73710
USER: genes 10 Torsion [N]-C--CA-[N] |==|  0.49770
USER: genes 11 Torsion [C]-CA--N-[C] |==|  0.20221
USER: genes 12 Torsion [N]-C--CA-[CB] |==|  0.18908
ROOT
ATOM      1  C   PRO B  88      16.460   2.095  16.009  1.00 31.41 LIG 0.24  C 
ATOM      2 O    PRO B  88      17.523   1.464  16.059  1.00 30.85 LIG-0.27  OA
ATOM      3  N   LEU B  89      16.288   3.295  16.553  1.00 29.89 LIG-0.35  N 
ATOM      4 H    LEU B  89      15.545   3.730  16.532  1.00 29.89 LIG 0.16  HD
ENDROOT
BRANCH 3 5
ATOM      5  CA  LEU B  89      17.370   3.984  17.241  1.00 30.22 LIG 0.18  C 
BRANCH 5 6
ATOM      6  C   LEU B  89      18.166   2.992  18.091  1.00 29.45 LIG 0.24  C 
ATOM      7 O    LEU B  89      17.629   1.972  18.512  1.00 27.07 LIG-0.27  OA
ATOM      8  N   PRO B  90      19.448   3.296  18.349  1.00 31.27 LIG-0.34  N 
ATOM      9  CD  PRO B  90      20.207   4.450  17.821  1.00 32.01 LIG 0.13  C 
ATOM     10  CA  PRO B  90      20.304   2.402  19.151  1.00 32.16 LIG 0.18  C 
ATOM     11  CG  PRO B  90      21.535   4.340  18.518  1.00 32.17 LIG 0.02  C 
ATOM     12  CB  PRO B  90      21.712   2.886  18.814  1.00 32.36 LIG 0.04  C 
BRANCH 10 13
ATOM     13  C   PRO B  90      20.059   2.470  20.665  1.00 32.74 LIG 0.24  C 
ATOM     14  N   ALA B  91      19.530   1.394  21.256  1.00 33.34 LIG-0.34  N 
ATOM     15 H    ALA B  91      19.284   0.690  20.829  1.00 33.34 LIG 0.16  HD
ATOM     16 O    PRO B  90      20.354   3.498  21.276  1.00 32.61 LIG-0.27  OA
BRANCH 14 17
ATOM     17  CA  ALA B  91      19.317   1.318  22.712  1.00 34.79 LIG 0.18  C 
ATOM     18  CB  ALA B  91      18.042   2.088  23.116  1.00 34.67 LIG 0.04  C 
BRANCH 17 19
ATOM     19  C   ALA B  91      19.235  -0.139  23.178  1.00 35.98 LIG 0.20  C 
ATOM     20 OXT  ALA B  91      20.028  -0.594  24.019  1.00 36.84 LIG-0.65  OA
ATOM     21 O    ALA B  91      18.379  -0.894  22.703  1.00 37.03 LIG-0.65  OA
ENDBRANCH 17 19
ENDBRANCH 14 17
ENDBRANCH 10 13
ENDBRANCH 5 6
BRANCH 5 22
ATOM     22  CB  LEU B  89      16.825   5.099  18.137  1.00 30.14 LIG 0.04  C 
BRANCH 22 23
ATOM     23  CG  LEU B  89      15.954   6.179  17.489  1.00 30.45 LIG-0.02  C 
ATOM     24  CD1 LEU B  89      16.472   6.457  16.080  1.00 30.38 LIG 0.01  C 
ATOM     25  CD2 LEU B  89      14.482   5.762  17.485  1.00 30.79 LIG 0.01  C 
ENDBRANCH 22 23
ENDBRANCH 5 22
ENDBRANCH 3 5
BRANCH 1 26
ATOM     26  CA  PRO B  88      15.260   1.515  15.270  1.00 32.64 LIG 0.18  C 
ATOM     27  CB  PRO B  88      15.197   2.038  13.820  1.00 32.64 LIG 0.04  C 
ATOM     28  CG  PRO B  88      14.092   3.057  13.811  1.00 32.93 LIG 0.02  C 
ATOM     29  CD  PRO B  88      13.113   2.548  14.835  1.00 33.68 LIG 0.13  C 
ATOM     30  N   PRO B  88      13.991   1.959  15.860  1.00 34.22 LIG-0.34  N 
ATOM     31  C   GLY B  87      13.832   1.818  17.207  1.00 37.83 LIG 0.24  C 
ATOM     32 O    GLY B  87      14.715   1.367  17.942  1.00 36.70 LIG-0.27  OA
BRANCH 31 33
ATOM     33  CA  GLY B  87      12.503   2.245  17.822  1.00 40.95 LIG 0.23  C 
BRANCH 33 34
ATOM     34  N   GLY B  87      12.460   2.019  19.284  1.00 44.01 LIG-0.35  N 
ATOM     35 H    GLY B  87      11.961   1.363  19.529  1.00 44.01 LIG 0.16  HD
ATOM     36  C   PRO B  86      13.151   2.789  20.130  1.00 46.81 LIG 0.25  C 
ATOM     37 O    PRO B  86      13.870   3.710  19.748  1.00 48.58 LIG-0.27  OA
BRANCH 36 38
ATOM     38  CA  PRO B  86      13.066   2.501  21.638  1.00 48.28 LIG 0.35  C 
ATOM     39  N   PRO B  86      11.717   2.357  22.208  1.00 49.47 LIG 0.32  N 
ATOM     40  CD  PRO B  86      11.626   1.199  23.113  1.00 50.15 LIG 0.32  C 
ATOM     41  CG  PRO B  86      12.685   0.283  22.584  1.00 49.89 LIG 0.04  C 
ATOM     42  CB  PRO B  86      13.748   1.159  21.963  1.00 49.17 LIG 0.05  C 
ENDBRANCH 36 38
ENDBRANCH 33 34
ENDBRANCH 31 33
ENDBRANCH 1 26
TORSDOF 11
ENDMDL
MODEL 63
USER: ADFR SOLUTION from run 150
USER: SCORE 11.554047 LL:  -3.220 LR:  -9.176 RR:   0.000 FEB:  -5.894
USER: RMSD 7.228056
USER: SEED 149
USER: STATUS no improvement in best in 28 clusters for 5 generations
USER: GENES 13
USER: genes 0 Translation |==|  0.58764 0.44099 0.48049
USER: genes 1 Rotation |==|  0.17379 0.54020 0.43093 0.87040
USER: genes 2 Torsion [C]-N--CA-[CB] |==|  0.81103
USER: genes 3 Torsion [N]-CA--C-[N] |==|  0.23547
USER: genes 4 Torsion [N]-CA--C-[N] |==|  0.65128
USER: genes 5 Torsion [C]-N--CA-[CB] |==|  0.23761
USER: genes 6 Torsion [N]-CA--C-[OXT] |==|  0.66154
USER: genes 7 Torsion [N]-CA--CB-[CG] |==|  0.56261
USER: genes 8 Torsion [CA]-CB--CG-[CD2] |==|  0.78322
USER: genes 9 Torsion [O]-C--CA-[CB] |==|  0.65321
USER: genes 10 Torsion [N]-C--CA-[N] |==|  0.14427
USER: genes 11 Torsion [C]-CA--N-[C] |==|  0.16378
USER: genes 12 Torsion [N]-C--CA-[CB] |==|  0.60971
ROOT
ATOM      1  C   PRO B  88      19.555   3.007  18.379  1.00 31.41 LIG 0.24  C 
ATOM      2 O    PRO B  88      19.829   2.480  17.294  1.00 30.85 LIG-0.27  OA
ATOM      3  N   LEU B  89      20.398   3.776  19.061  1.00 29.89 LIG-0.35  N 
ATOM      4 H    LEU B  89      20.216   4.132  19.822  1.00 29.89 LIG 0.16  HD
ENDROOT
BRANCH 3 5
ATOM      5  CA  LEU B  89      21.730   4.082  18.557  1.00 30.22 LIG 0.18  C 
BRANCH 5 6
ATOM      6  C   LEU B  89      21.637   4.648  17.140  1.00 29.45 LIG 0.24  C 
ATOM      7 O    LEU B  89      21.778   3.908  16.170  1.00 27.07 LIG-0.27  OA
ATOM      8  N   PRO B  90      21.407   5.965  17.019  1.00 31.27 LIG-0.34  N 
ATOM      9  CD  PRO B  90      21.141   6.920  18.115  1.00 32.01 LIG 0.13  C 
ATOM     10  CA  PRO B  90      21.291   6.608  15.696  1.00 32.16 LIG 0.18  C 
ATOM     11  CG  PRO B  90      21.065   8.247  17.410  1.00 32.17 LIG 0.02  C 
ATOM     12  CB  PRO B  90      20.610   7.935  16.021  1.00 32.36 LIG 0.04  C 
BRANCH 10 13
ATOM     13  C   PRO B  90      22.629   6.850  14.983  1.00 32.74 LIG 0.24  C 
ATOM     14  N   ALA B  91      22.899   8.094  14.578  1.00 33.34 LIG-0.34  N 
ATOM     15 H    ALA B  91      22.350   8.751  14.659  1.00 33.34 LIG 0.16  HD
ATOM     16 O    PRO B  90      23.398   5.903  14.812  1.00 32.61 LIG-0.27  OA
BRANCH 14 17
ATOM     17  CA  ALA B  91      24.180   8.459  13.950  1.00 34.79 LIG 0.18  C 
ATOM     18  CB  ALA B  91      24.138   8.186  12.431  1.00 34.67 LIG 0.04  C 
BRANCH 17 19
ATOM     19  C   ALA B  91      24.526   9.927  14.222  1.00 35.98 LIG 0.20  C 
ATOM     20 OXT  ALA B  91      24.707  10.731  13.292  1.00 36.84 LIG-0.65  OA
ATOM     21 O    ALA B  91      24.646  10.330  15.384  1.00 37.03 LIG-0.65  OA
ENDBRANCH 17 19
ENDBRANCH 14 17
ENDBRANCH 10 13
ENDBRANCH 5 6
BRANCH 5 22
ATOM     22  CB  LEU B  89      22.610   2.829  18.548  1.00 30.14 LIG 0.04  C 
BRANCH 22 23
ATOM     23  CG  LEU B  89      24.129   3.021  18.566  1.00 30.45 LIG-0.02  C 
ATOM     24  CD1 LEU B  89      24.786   1.745  19.088  1.00 30.38 LIG 0.01  C 
ATOM     25  CD2 LEU B  89      24.647   3.402  17.177  1.00 30.79 LIG 0.01  C 
ENDBRANCH 22 23
ENDBRANCH 5 22
ENDBRANCH 3 5
BRANCH 1 26
ATOM     26  CA  PRO B  88      18.174   2.816  18.995  1.00 32.64 LIG 0.18  C 
ATOM     27  CB  PRO B  88      17.508   4.175  19.295  1.00 32.64 LIG 0.04  C 
ATOM     28  CG  PRO B  88      17.612   4.350  20.784  1.00 32.93 LIG 0.02  C 
ATOM     29  CD  PRO B  88      17.531   2.948  21.327  1.00 33.68 LIG 0.13  C 
ATOM     30  N   PRO B  88      18.251   2.164  20.308  1.00 34.22 LIG-0.34  N 
ATOM     31  C   GLY B  87      18.977   1.014  20.407  1.00 37.83 LIG 0.24  C 
ATOM     32 O    GLY B  87      19.591   0.526  19.453  1.00 36.70 LIG-0.27  OA
BRANCH 31 33
ATOM     33  CA  GLY B  87      19.032   0.312  21.759  1.00 40.95 LIG 0.23  C 
BRANCH 33 34
ATOM     34  N   GLY B  87      17.687   0.078  22.328  1.00 44.01 LIG-0.35  N 
ATOM     35 H    GLY B  87      17.556   0.442  23.096  1.00 44.01 LIG 0.16  HD
ATOM     36  C   PRO B  86      16.770  -0.645  21.678  1.00 46.81 LIG 0.25  C 
ATOM     37 O    PRO B  86      16.981  -1.140  20.573  1.00 48.58 LIG-0.27  OA
BRANCH 36 38
ATOM     38  CA  PRO B  86      15.389  -0.850  22.322  1.00 48.28 LIG 0.35  C 
ATOM     39  N   PRO B  86      14.291  -0.015  21.810  1.00 49.47 LIG 0.32  N 
ATOM     40  CD  PRO B  86      13.066  -0.799  21.582  1.00 50.15 LIG 0.32  C 
ATOM     41  CG  PRO B  86      13.599  -2.173  21.318  1.00 49.89 LIG 0.04  C 
ATOM     42  CB  PRO B  86      14.897  -2.290  22.080  1.00 49.17 LIG 0.05  C 
ENDBRANCH 36 38
ENDBRANCH 33 34
ENDBRANCH 31 33
ENDBRANCH 1 26
TORSDOF 11
ENDMDL
MODEL 64
USER: ADFR SOLUTION from run 49
USER: SCORE 11.559246 LL:  -3.149 LR:  -9.172 RR:   0.000 FEB:  -5.891
USER: RMSD 9.614307
USER: SEED 48
USER: STATUS no improvement in best in 11 clusters for 5 generations
USER: GENES 13
USER: genes 0 Translation |==|  0.42023 0.49353 0.40489
USER: genes 1 Rotation |==|  0.27775 0.34620 0.91532 0.56683
USER: genes 2 Torsion [C]-N--CA-[CB] |==|  0.20182
USER: genes 3 Torsion [N]-CA--C-[N] |==|  0.84596
USER: genes 4 Torsion [N]-CA--C-[N] |==|  0.34003
USER: genes 5 Torsion [C]-N--CA-[CB] |==|  0.14575
USER: genes 6 Torsion [N]-CA--C-[OXT] |==|  0.43048
USER: genes 7 Torsion [N]-CA--CB-[CG] |==|  0.71810
USER: genes 8 Torsion [CA]-CB--CG-[CD2] |==|  0.28179
USER: genes 9 Torsion [O]-C--CA-[CB] |==|  0.09805
USER: genes 10 Torsion [N]-C--CA-[N] |==|  0.53705
USER: genes 11 Torsion [C]-CA--N-[C] |==|  0.77088
USER: genes 12 Torsion [N]-C--CA-[CB] |==|  0.40313
ROOT
ATOM      1  C   PRO B  88      15.788   3.874  17.132  1.00 31.41 LIG 0.24  C 
ATOM      2 O    PRO B  88      16.101   3.464  16.007  1.00 30.85 LIG-0.27  OA
ATOM      3  N   LEU B  89      14.540   4.145  17.499  1.00 29.89 LIG-0.35  N 
ATOM      4 H    LEU B  89      14.321   4.444  18.275  1.00 29.89 LIG 0.16  HD
ENDROOT
BRANCH 3 5
ATOM      5  CA  LEU B  89      13.418   3.951  16.590  1.00 30.22 LIG 0.18  C 
BRANCH 5 6
ATOM      6  C   LEU B  89      12.174   4.651  17.136  1.00 29.45 LIG 0.24  C 
ATOM      7 O    LEU B  89      11.583   5.481  16.451  1.00 27.07 LIG-0.27  OA
ATOM      8  N   PRO B  90      11.779   4.322  18.376  1.00 31.27 LIG-0.34  N 
ATOM      9  CD  PRO B  90      12.368   3.281  19.245  1.00 32.01 LIG 0.13  C 
ATOM     10  CA  PRO B  90      10.585   4.933  18.992  1.00 32.16 LIG 0.18  C 
ATOM     11  CG  PRO B  90      11.602   3.427  20.532  1.00 32.17 LIG 0.02  C 
ATOM     12  CB  PRO B  90      10.270   3.981  20.142  1.00 32.36 LIG 0.04  C 
BRANCH 10 13
ATOM     13  C   PRO B  90      10.796   6.361  19.516  1.00 32.74 LIG 0.24  C 
ATOM     14  N   ALA B  91      10.006   7.323  19.030  1.00 33.34 LIG-0.34  N 
ATOM     15 H    ALA B  91       9.420   7.191  18.414  1.00 33.34 LIG 0.16  HD
ATOM     16 O    PRO B  90      11.673   6.569  20.356  1.00 32.61 LIG-0.27  OA
BRANCH 14 17
ATOM     17  CA  ALA B  91      10.068   8.713  19.511  1.00 34.79 LIG 0.18  C 
ATOM     18  CB  ALA B  91      11.516   9.245  19.451  1.00 34.67 LIG 0.04  C 
BRANCH 17 19
ATOM     19  C   ALA B  91       9.132   9.615  18.701  1.00 35.98 LIG 0.20  C 
ATOM     20 OXT  ALA B  91       8.672  10.666  19.180  1.00 36.84 LIG-0.65  OA
ATOM     21 O    ALA B  91       8.803   9.296  17.553  1.00 37.03 LIG-0.65  OA
ENDBRANCH 17 19
ENDBRANCH 14 17
ENDBRANCH 10 13
ENDBRANCH 5 6
BRANCH 5 22
ATOM     22  CB  LEU B  89      13.122   2.461  16.401  1.00 30.14 LIG 0.04  C 
BRANCH 22 23
ATOM     23  CG  LEU B  89      13.619   1.788  15.118  1.00 30.45 LIG-0.02  C 
ATOM     24  CD1 LEU B  89      13.833   2.854  14.047  1.00 30.38 LIG 0.01  C 
ATOM     25  CD2 LEU B  89      14.891   0.981  15.384  1.00 30.79 LIG 0.01  C 
ENDBRANCH 22 23
ENDBRANCH 5 22
ENDBRANCH 3 5
BRANCH 1 26
ATOM     26  CA  PRO B  88      16.858   4.069  18.199  1.00 32.64 LIG 0.18  C 
ATOM     27  CB  PRO B  88      18.181   4.560  17.576  1.00 32.64 LIG 0.04  C 
ATOM     28  CG  PRO B  88      19.091   3.364  17.577  1.00 32.93 LIG 0.02  C 
ATOM     29  CD  PRO B  88      18.679   2.587  18.798  1.00 33.68 LIG 0.13  C 
ATOM     30  N   PRO B  88      17.221   2.800  18.842  1.00 34.22 LIG-0.34  N 
ATOM     31  C   GLY B  87      16.212   2.015  19.319  1.00 37.83 LIG 0.24  C 
ATOM     32 O    GLY B  87      15.020   2.314  19.201  1.00 36.70 LIG-0.27  OA
BRANCH 31 33
ATOM     33  CA  GLY B  87      16.584   0.712  20.018  1.00 40.95 LIG 0.23  C 
BRANCH 33 34
ATOM     34  N   GLY B  87      15.420  -0.182  20.201  1.00 44.01 LIG-0.35  N 
ATOM     35 H    GLY B  87      15.343  -0.795  19.603  1.00 44.01 LIG 0.16  HD
ATOM     36  C   PRO B  86      14.573  -0.025  21.223  1.00 46.81 LIG 0.25  C 
ATOM     37 O    PRO B  86      14.718   0.851  22.073  1.00 48.58 LIG-0.27  OA
BRANCH 36 38
ATOM     38  CA  PRO B  86      13.383  -0.989  21.359  1.00 48.28 LIG 0.35  C 
ATOM     39  N   PRO B  86      13.553  -2.334  20.786  1.00 49.47 LIG 0.32  N 
ATOM     40  CD  PRO B  86      13.075  -3.384  21.701  1.00 50.15 LIG 0.32  C 
ATOM     41  CG  PRO B  86      13.238  -2.748  23.047  1.00 49.89 LIG 0.04  C 
ATOM     42  CB  PRO B  86      13.083  -1.258  22.846  1.00 49.17 LIG 0.05  C 
ENDBRANCH 36 38
ENDBRANCH 33 34
ENDBRANCH 31 33
ENDBRANCH 1 26
TORSDOF 11
ENDMDL
MODEL 65
USER: ADFR SOLUTION from run 112
USER: SCORE 11.532492 LL:  -3.080 LR:  -9.161 RR:   0.000 FEB:  -5.880
USER: RMSD 9.259130
USER: SEED 111
USER: STATUS no improvement in best in 14 clusters for 5 generations
USER: GENES 13
USER: genes 0 Translation |==|  0.58001 0.37949 0.49090
USER: genes 1 Rotation |==|  0.33339 0.32690 0.92919 0.58985
USER: genes 2 Torsion [C]-N--CA-[CB] |==|  0.50556
USER: genes 3 Torsion [N]-CA--C-[N] |==|  0.42051
USER: genes 4 Torsion [N]-CA--C-[N] |==|  0.91268
USER: genes 5 Torsion [C]-N--CA-[CB] |==|  0.43844
USER: genes 6 Torsion [N]-CA--C-[OXT] |==|  0.50879
USER: genes 7 Torsion [N]-CA--CB-[CG] |==|  0.77538
USER: genes 8 Torsion [CA]-CB--CG-[CD2] |==|  0.00527
USER: genes 9 Torsion [O]-C--CA-[CB] |==|  0.54668
USER: genes 10 Torsion [N]-C--CA-[N] |==|  0.42599
USER: genes 11 Torsion [C]-CA--N-[C] |==|  0.82675
USER: genes 12 Torsion [N]-C--CA-[CB] |==|  0.84572
ROOT
ATOM      1  C   PRO B  88      19.383   1.993  18.551  1.00 31.41 LIG 0.24  C 
ATOM      2 O    PRO B  88      19.440   1.727  17.344  1.00 30.85 LIG-0.27  OA
ATOM      3  N   LEU B  89      18.246   2.161  19.218  1.00 29.89 LIG-0.35  N 
ATOM      4 H    LEU B  89      18.204   2.360  20.054  1.00 29.89 LIG 0.16  HD
ENDROOT
BRANCH 3 5
ATOM      5  CA  LEU B  89      16.951   2.018  18.566  1.00 30.22 LIG 0.18  C 
BRANCH 5 6
ATOM      6  C   LEU B  89      16.855   2.971  17.375  1.00 29.45 LIG 0.24  C 
ATOM      7 O    LEU B  89      17.480   4.028  17.379  1.00 27.07 LIG-0.27  OA
ATOM      8  N   PRO B  90      16.065   2.601  16.355  1.00 31.27 LIG-0.34  N 
ATOM      9  CD  PRO B  90      15.342   1.319  16.217  1.00 32.01 LIG 0.13  C 
ATOM     10  CA  PRO B  90      15.912   3.445  15.154  1.00 32.16 LIG 0.18  C 
ATOM     11  CG  PRO B  90      14.550   1.500  14.951  1.00 32.17 LIG 0.02  C 
ATOM     12  CB  PRO B  90      15.330   2.475  14.129  1.00 32.36 LIG 0.04  C 
BRANCH 10 13
ATOM     13  C   PRO B  90      14.984   4.655  15.338  1.00 32.74 LIG 0.24  C 
ATOM     14  N   ALA B  91      13.965   4.530  16.193  1.00 33.34 LIG-0.34  N 
ATOM     15 H    ALA B  91      13.779   3.801  16.608  1.00 33.34 LIG 0.16  HD
ATOM     16 O    PRO B  90      15.209   5.686  14.702  1.00 32.61 LIG-0.27  OA
BRANCH 14 17
ATOM     17  CA  ALA B  91      13.055   5.646  16.504  1.00 34.79 LIG 0.18  C 
ATOM     18  CB  ALA B  91      11.709   5.115  17.042  1.00 34.67 LIG 0.04  C 
BRANCH 17 19
ATOM     19  C   ALA B  91      13.693   6.609  17.509  1.00 35.98 LIG 0.20  C 
ATOM     20 OXT  ALA B  91      13.069   7.589  17.951  1.00 36.84 LIG-0.65  OA
ATOM     21 O    ALA B  91      14.857   6.432  17.885  1.00 37.03 LIG-0.65  OA
ENDBRANCH 17 19
ENDBRANCH 14 17
ENDBRANCH 10 13
ENDBRANCH 5 6
BRANCH 5 22
ATOM     22  CB  LEU B  89      15.812   2.313  19.546  1.00 30.14 LIG 0.04  C 
BRANCH 22 23
ATOM     23  CG  LEU B  89      15.389   1.201  20.509  1.00 30.45 LIG-0.02  C 
ATOM     24  CD1 LEU B  89      13.909   0.893  20.296  1.00 30.38 LIG 0.01  C 
ATOM     25  CD2 LEU B  89      16.263  -0.041  20.325  1.00 30.79 LIG 0.01  C 
ENDBRANCH 22 23
ENDBRANCH 5 22
ENDBRANCH 3 5
BRANCH 1 26
ATOM     26  CA  PRO B  88      20.664   2.115  19.368  1.00 32.64 LIG 0.18  C 
ATOM     27  CB  PRO B  88      20.367   2.030  20.880  1.00 32.64 LIG 0.04  C 
ATOM     28  CG  PRO B  88      20.487   3.439  21.389  1.00 32.93 LIG 0.02  C 
ATOM     29  CD  PRO B  88      21.542   4.060  20.514  1.00 33.68 LIG 0.13  C 
ATOM     30  N   PRO B  88      21.289   3.433  19.205  1.00 34.22 LIG-0.34  N 
ATOM     31  C   GLY B  87      21.491   3.889  17.935  1.00 37.83 LIG 0.24  C 
ATOM     32 O    GLY B  87      21.142   3.257  16.933  1.00 36.70 LIG-0.27  OA
BRANCH 31 33
ATOM     33  CA  GLY B  87      22.171   5.242  17.758  1.00 40.95 LIG 0.23  C 
BRANCH 33 34
ATOM     34  N   GLY B  87      22.884   5.350  16.466  1.00 44.01 LIG-0.35  N 
ATOM     35 H    GLY B  87      22.584   5.964  15.943  1.00 44.01 LIG 0.16  HD
ATOM     36  C   PRO B  86      23.907   4.546  16.163  1.00 46.81 LIG 0.25  C 
ATOM     37 O    PRO B  86      24.324   3.688  16.938  1.00 48.58 LIG-0.27  OA
BRANCH 36 38
ATOM     38  CA  PRO B  86      24.608   4.710  14.804  1.00 48.28 LIG 0.35  C 
ATOM     39  N   PRO B  86      25.628   3.706  14.462  1.00 49.47 LIG 0.32  N 
ATOM     40  CD  PRO B  86      25.486   3.231  13.076  1.00 50.15 LIG 0.32  C 
ATOM     41  CG  PRO B  86      24.027   3.431  12.807  1.00 49.89 LIG 0.04  C 
ATOM     42  CB  PRO B  86      23.583   4.597  13.660  1.00 49.17 LIG 0.05  C 
ENDBRANCH 36 38
ENDBRANCH 33 34
ENDBRANCH 31 33
ENDBRANCH 1 26
TORSDOF 11
ENDMDL
MODEL 66
USER: ADFR SOLUTION from run 15
USER: SCORE 12.145066 LL:  -3.962 LR:  -9.163 RR:   0.000 FEB:  -5.882
USER: RMSD 5.969983
USER: SEED 957620
USER: STATUS no improvement in best in 10 clusters for 5 generations
USER: GENES 13
USER: genes 0 Translation |==|  0.46549 0.40232 0.38808
USER: genes 1 Rotation |==|  0.37518 0.47259 0.08770 0.75235
USER: genes 2 Torsion [C]-N--CA-[CB] |==|  0.18854
USER: genes 3 Torsion [N]-CA--C-[N] |==|  0.21111
USER: genes 4 Torsion [N]-CA--C-[N] |==|  0.05034
USER: genes 5 Torsion [C]-N--CA-[CB] |==|  0.25219
USER: genes 6 Torsion [N]-CA--C-[OXT] |==|  0.43426
USER: genes 7 Torsion [N]-CA--CB-[CG] |==|  0.45952
USER: genes 8 Torsion [CA]-CB--CG-[CD2] |==|  0.55290
USER: genes 9 Torsion [O]-C--CA-[CB] |==|  0.60029
USER: genes 10 Torsion [N]-C--CA-[N] |==|  0.89585
USER: genes 11 Torsion [C]-CA--N-[C] |==|  0.76735
USER: genes 12 Torsion [N]-C--CA-[CB] |==|  0.98269
ROOT
ATOM      1  C   PRO B  88      16.807   2.369  16.854  1.00 31.41 LIG 0.24  C 
ATOM      2 O    PRO B  88      17.371   1.384  16.363  1.00 30.85 LIG-0.27  OA
ATOM      3  N   LEU B  89      16.533   2.494  18.149  1.00 29.89 LIG-0.35  N 
ATOM      4 H    LEU B  89      16.128   3.172  18.491  1.00 29.89 LIG 0.16  HD
ENDROOT
BRANCH 3 5
ATOM      5  CA  LEU B  89      16.909   1.468  19.111  1.00 30.22 LIG 0.18  C 
BRANCH 5 6
ATOM      6  C   LEU B  89      16.278   1.767  20.471  1.00 29.45 LIG 0.24  C 
ATOM      7 O    LEU B  89      16.963   2.222  21.383  1.00 27.07 LIG-0.27  OA
ATOM      8  N   PRO B  90      14.968   1.505  20.610  1.00 31.27 LIG-0.34  N 
ATOM      9  CD  PRO B  90      14.042   1.039  19.556  1.00 32.01 LIG 0.13  C 
ATOM     10  CA  PRO B  90      14.262   1.767  21.879  1.00 32.16 LIG 0.18  C 
ATOM     11  CG  PRO B  90      12.753   0.818  20.298  1.00 32.17 LIG 0.02  C 
ATOM     12  CB  PRO B  90      12.794   1.759  21.459  1.00 32.36 LIG 0.04  C 
BRANCH 10 13
ATOM     13  C   PRO B  90      14.514   0.725  22.978  1.00 32.74 LIG 0.24  C 
ATOM     14  N   ALA B  91      15.580  -0.070  22.846  1.00 33.34 LIG-0.34  N 
ATOM     15 H    ALA B  91      16.103  -0.054  22.163  1.00 33.34 LIG 0.16  HD
ATOM     16 O    PRO B  90      13.737   0.657  23.932  1.00 32.61 LIG-0.27  OA
BRANCH 14 17
ATOM     17  CA  ALA B  91      15.962  -1.056  23.871  1.00 34.79 LIG 0.18  C 
ATOM     18  CB  ALA B  91      15.297  -2.420  23.588  1.00 34.67 LIG 0.04  C 
BRANCH 17 19
ATOM     19  C   ALA B  91      17.485  -1.206  23.946  1.00 35.98 LIG 0.20  C 
ATOM     20 OXT  ALA B  91      18.044  -1.619  24.976  1.00 36.84 LIG-0.65  OA
ATOM     21 O    ALA B  91      18.187  -0.897  22.977  1.00 37.03 LIG-0.65  OA
ENDBRANCH 17 19
ENDBRANCH 14 17
ENDBRANCH 10 13
ENDBRANCH 5 6
BRANCH 5 22
ATOM     22  CB  LEU B  89      18.431   1.393  19.262  1.00 30.14 LIG 0.04  C 
BRANCH 22 23
ATOM     23  CG  LEU B  89      18.996   0.625  20.460  1.00 30.45 LIG-0.02  C 
ATOM     24  CD1 LEU B  89      18.859  -0.873  20.201  1.00 30.38 LIG 0.01  C 
ATOM     25  CD2 LEU B  89      20.447   1.028  20.730  1.00 30.79 LIG 0.01  C 
ENDBRANCH 22 23
ENDBRANCH 5 22
ENDBRANCH 3 5
BRANCH 1 26
ATOM     26  CA  PRO B  88      16.408   3.543  15.968  1.00 32.64 LIG 0.18  C 
ATOM     27  CB  PRO B  88      16.580   4.884  16.714  1.00 32.64 LIG 0.04  C 
ATOM     28  CG  PRO B  88      15.189   5.318  17.078  1.00 32.93 LIG 0.02  C 
ATOM     29  CD  PRO B  88      14.332   4.791  15.959  1.00 33.68 LIG 0.13  C 
ATOM     30  N   PRO B  88      14.980   3.509  15.630  1.00 34.22 LIG-0.34  N 
ATOM     31  C   GLY B  87      14.471   2.346  15.133  1.00 37.83 LIG 0.24  C 
ATOM     32 O    GLY B  87      15.151   1.325  14.989  1.00 36.70 LIG-0.27  OA
BRANCH 31 33
ATOM     33  CA  GLY B  87      12.997   2.314  14.747  1.00 40.95 LIG 0.23  C 
BRANCH 33 34
ATOM     34  N   GLY B  87      12.153   3.095  15.677  1.00 44.01 LIG-0.35  N 
ATOM     35 H    GLY B  87      11.982   3.897  15.416  1.00 44.01 LIG 0.16  HD
ATOM     36  C   PRO B  86      11.708   2.572  16.823  1.00 46.81 LIG 0.25  C 
ATOM     37 O    PRO B  86      11.955   1.417  17.163  1.00 48.58 LIG-0.27  OA
BRANCH 36 38
ATOM     38  CA  PRO B  86      10.833   3.436  17.747  1.00 48.28 LIG 0.35  C 
ATOM     39  N   PRO B  86      11.300   3.604  19.132  1.00 49.47 LIG 0.32  N 
ATOM     40  CD  PRO B  86      11.202   5.003  19.578  1.00 50.15 LIG 0.32  C 
ATOM     41  CG  PRO B  86      11.314   5.766  18.294  1.00 49.89 LIG 0.04  C 
ATOM     42  CB  PRO B  86      10.752   4.877  17.209  1.00 49.17 LIG 0.05  C 
ENDBRANCH 36 38
ENDBRANCH 33 34
ENDBRANCH 31 33
ENDBRANCH 1 26
TORSDOF 11
ENDMDL
MODEL 67
USER: ADFR SOLUTION from run 89
USER: SCORE 12.427876 LL:  -4.249 LR:  -9.143 RR:   0.000 FEB:  -5.861
USER: RMSD 10.184673
USER: SEED 88
USER: STATUS no improvement in best in 24 clusters for 5 generations
USER: GENES 13
USER: genes 0 Translation |==|  0.27008 0.41345 0.44985
USER: genes 1 Rotation |==|  0.47895 0.62202 0.92518 0.73214
USER: genes 2 Torsion [C]-N--CA-[CB] |==|  0.50060
USER: genes 3 Torsion [N]-CA--C-[N] |==|  0.35556
USER: genes 4 Torsion [N]-CA--C-[N] |==|  0.81496
USER: genes 5 Torsion [C]-N--CA-[CB] |==|  0.51558
USER: genes 6 Torsion [N]-CA--C-[OXT] |==|  0.74142
USER: genes 7 Torsion [N]-CA--CB-[CG] |==|  0.33519
USER: genes 8 Torsion [CA]-CB--CG-[CD2] |==|  0.61588
USER: genes 9 Torsion [O]-C--CA-[CB] |==|  0.64113
USER: genes 10 Torsion [N]-C--CA-[N] |==|  0.87353
USER: genes 11 Torsion [C]-CA--N-[C] |==|  0.84066
USER: genes 12 Torsion [N]-C--CA-[CB] |==|  0.85953
ROOT
ATOM      1  C   PRO B  88      12.410   2.553  17.873  1.00 31.41 LIG 0.24  C 
ATOM      2 O    PRO B  88      11.277   2.103  17.665  1.00 30.85 LIG-0.27  OA
ATOM      3  N   LEU B  89      12.644   3.731  18.443  1.00 29.89 LIG-0.35  N 
ATOM      4 H    LEU B  89      13.430   4.053  18.576  1.00 29.89 LIG 0.16  HD
ENDROOT
BRANCH 3 5
ATOM      5  CA  LEU B  89      11.557   4.588  18.897  1.00 30.22 LIG 0.18  C 
BRANCH 5 6
ATOM      6  C   LEU B  89      10.634   4.928  17.727  1.00 29.45 LIG 0.24  C 
ATOM      7 O    LEU B  89      11.098   5.391  16.689  1.00 27.07 LIG-0.27  OA
ATOM      8  N   PRO B  90       9.321   4.705  17.897  1.00 31.27 LIG-0.34  N 
ATOM      9  CD  PRO B  90       8.675   4.076  19.069  1.00 32.01 LIG 0.13  C 
ATOM     10  CA  PRO B  90       8.347   4.990  16.826  1.00 32.16 LIG 0.18  C 
ATOM     11  CG  PRO B  90       7.207   4.183  18.756  1.00 32.17 LIG 0.02  C 
ATOM     12  CB  PRO B  90       7.118   4.199  17.264  1.00 32.36 LIG 0.04  C 
BRANCH 10 13
ATOM     13  C   PRO B  90       7.999   6.476  16.658  1.00 32.74 LIG 0.24  C 
ATOM     14  N   ALA B  91       7.336   7.074  17.653  1.00 33.34 LIG-0.34  N 
ATOM     15 H    ALA B  91       7.062   6.662  18.356  1.00 33.34 LIG 0.16  HD
ATOM     16 O    PRO B  90       8.338   7.060  15.628  1.00 32.61 LIG-0.27  OA
BRANCH 14 17
ATOM     17  CA  ALA B  91       7.013   8.511  17.635  1.00 34.79 LIG 0.18  C 
ATOM     18  CB  ALA B  91       6.372   8.940  18.972  1.00 34.67 LIG 0.04  C 
BRANCH 17 19
ATOM     19  C   ALA B  91       8.261   9.349  17.343  1.00 35.98 LIG 0.20  C 
ATOM     20 OXT  ALA B  91       8.959   9.810  18.262  1.00 36.84 LIG-0.65  OA
ATOM     21 O    ALA B  91       8.583   9.596  16.176  1.00 37.03 LIG-0.65  OA
ENDBRANCH 17 19
ENDBRANCH 14 17
ENDBRANCH 10 13
ENDBRANCH 5 6
BRANCH 5 22
ATOM     22  CB  LEU B  89      12.102   5.882  19.508  1.00 30.14 LIG 0.04  C 
BRANCH 22 23
ATOM     23  CG  LEU B  89      11.678   7.209  18.873  1.00 30.45 LIG-0.02  C 
ATOM     24  CD1 LEU B  89      10.525   7.802  19.680  1.00 30.38 LIG 0.01  C 
ATOM     25  CD2 LEU B  89      12.863   8.172  18.779  1.00 30.79 LIG 0.01  C 
ENDBRANCH 22 23
ENDBRANCH 5 22
ENDBRANCH 3 5
BRANCH 1 26
ATOM     26  CA  PRO B  88      13.639   1.734  17.499  1.00 32.64 LIG 0.18  C 
ATOM     27  CB  PRO B  88      14.622   1.636  18.684  1.00 32.64 LIG 0.04  C 
ATOM     28  CG  PRO B  88      15.748   2.574  18.347  1.00 32.93 LIG 0.02  C 
ATOM     29  CD  PRO B  88      15.835   2.520  16.845  1.00 33.68 LIG 0.13  C 
ATOM     30  N   PRO B  88      14.424   2.384  16.442  1.00 34.22 LIG-0.34  N 
ATOM     31  C   GLY B  87      13.766   2.792  15.320  1.00 37.83 LIG 0.24  C 
ATOM     32 O    GLY B  87      12.546   2.666  15.176  1.00 36.70 LIG-0.27  OA
BRANCH 31 33
ATOM     33  CA  GLY B  87      14.581   3.436  14.204  1.00 40.95 LIG 0.23  C 
BRANCH 33 34
ATOM     34  N   GLY B  87      15.537   4.443  14.713  1.00 44.01 LIG-0.35  N 
ATOM     35 H    GLY B  87      16.358   4.292  14.506  1.00 44.01 LIG 0.16  HD
ATOM     36  C   PRO B  86      15.129   5.492  15.433  1.00 46.81 LIG 0.25  C 
ATOM     37 O    PRO B  86      13.946   5.691  15.699  1.00 48.58 LIG-0.27  OA
BRANCH 36 38
ATOM     38  CA  PRO B  86      16.173   6.506  15.932  1.00 48.28 LIG 0.35  C 
ATOM     39  N   PRO B  86      15.716   7.488  16.928  1.00 49.47 LIG 0.32  N 
ATOM     40  CD  PRO B  86      16.679   7.637  18.032  1.00 50.15 LIG 0.32  C 
ATOM     41  CG  PRO B  86      17.363   6.306  18.055  1.00 49.89 LIG 0.04  C 
ATOM     42  CB  PRO B  86      17.329   5.774  16.641  1.00 49.17 LIG 0.05  C 
ENDBRANCH 36 38
ENDBRANCH 33 34
ENDBRANCH 31 33
ENDBRANCH 1 26
TORSDOF 11
ENDMDL
MODEL 68
USER: ADFR SOLUTION from run 44
USER: SCORE 11.460176 LL:  -3.136 LR:  -9.111 RR:   0.000 FEB:  -5.830
USER: RMSD 10.115841
USER: SEED 43
USER: STATUS no improvement in best in 13 clusters for 5 generations
USER: GENES 13
USER: genes 0 Translation |==|  0.32151 0.49407 0.39116
USER: genes 1 Rotation |==|  0.57109 0.09506 0.57955 0.77320
USER: genes 2 Torsion [C]-N--CA-[CB] |==|  0.83059
USER: genes 3 Torsion [N]-CA--C-[N] |==|  0.43887
USER: genes 4 Torsion [N]-CA--C-[N] |==|  0.88322
USER: genes 5 Torsion [C]-N--CA-[CB] |==|  0.46879
USER: genes 6 Torsion [N]-CA--C-[OXT] |==|  0.39928
USER: genes 7 Torsion [N]-CA--CB-[CG] |==|  0.89308
USER: genes 8 Torsion [CA]-CB--CG-[CD2] |==|  0.83364
USER: genes 9 Torsion [O]-C--CA-[CB] |==|  0.59842
USER: genes 10 Torsion [N]-C--CA-[N] |==|  0.31881
USER: genes 11 Torsion [C]-CA--N-[C] |==|  0.72082
USER: genes 12 Torsion [N]-C--CA-[CB] |==|  0.74108
ROOT
ATOM      1  C   PRO B  88      13.567   3.883  16.905  1.00 31.41 LIG 0.24  C 
ATOM      2 O    PRO B  88      13.489   5.043  17.329  1.00 30.85 LIG-0.27  OA
ATOM      3  N   LEU B  89      12.653   2.948  17.141  1.00 29.89 LIG-0.35  N 
ATOM      4 H    LEU B  89      12.711   2.137  16.860  1.00 29.89 LIG 0.16  HD
ENDROOT
BRANCH 3 5
ATOM      5  CA  LEU B  89      11.452   3.232  17.914  1.00 30.22 LIG 0.18  C 
BRANCH 5 6
ATOM      6  C   LEU B  89      10.636   4.329  17.230  1.00 29.45 LIG 0.24  C 
ATOM      7 O    LEU B  89      11.179   5.106  16.449  1.00 27.07 LIG-0.27  OA
ATOM      8  N   PRO B  90       9.329   4.399  17.530  1.00 31.27 LIG-0.34  N 
ATOM      9  CD  PRO B  90       8.567   3.466  18.386  1.00 32.01 LIG 0.13  C 
ATOM     10  CA  PRO B  90       8.452   5.415  16.916  1.00 32.16 LIG 0.18  C 
ATOM     11  CG  PRO B  90       7.198   4.087  18.446  1.00 32.17 LIG 0.02  C 
ATOM     12  CB  PRO B  90       7.054   4.859  17.174  1.00 32.36 LIG 0.04  C 
BRANCH 10 13
ATOM     13  C   PRO B  90       8.590   6.823  17.514  1.00 32.74 LIG 0.24  C 
ATOM     14  N   ALA B  91       8.690   6.925  18.843  1.00 33.34 LIG-0.34  N 
ATOM     15 H    ALA B  91       8.640   6.252  19.377  1.00 33.34 LIG 0.16  HD
ATOM     16 O    PRO B  90       8.605   7.797  16.761  1.00 32.61 LIG-0.27  OA
BRANCH 14 17
ATOM     17  CA  ALA B  91       8.900   8.215  19.522  1.00 34.79 LIG 0.18  C 
ATOM     18  CB  ALA B  91       8.696   8.066  21.045  1.00 34.67 LIG 0.04  C 
BRANCH 17 19
ATOM     19  C   ALA B  91      10.293   8.774  19.219  1.00 35.98 LIG 0.20  C 
ATOM     20 OXT  ALA B  91      10.483   9.994  19.078  1.00 36.84 LIG-0.65  OA
ATOM     21 O    ALA B  91      11.254   8.008  19.091  1.00 37.03 LIG-0.65  OA
ENDBRANCH 17 19
ENDBRANCH 14 17
ENDBRANCH 10 13
ENDBRANCH 5 6
BRANCH 5 22
ATOM     22  CB  LEU B  89      11.809   3.675  19.335  1.00 30.14 LIG 0.04  C 
BRANCH 22 23
ATOM     23  CG  LEU B  89      12.981   2.976  20.031  1.00 30.45 LIG-0.02  C 
ATOM     24  CD1 LEU B  89      13.215   3.630  21.391  1.00 30.38 LIG 0.01  C 
ATOM     25  CD2 LEU B  89      12.722   1.474  20.157  1.00 30.79 LIG 0.01  C 
ENDBRANCH 22 23
ENDBRANCH 5 22
ENDBRANCH 3 5
BRANCH 1 26
ATOM     26  CA  PRO B  88      14.745   3.464  16.035  1.00 32.64 LIG 0.18  C 
ATOM     27  CB  PRO B  88      14.307   2.448  14.959  1.00 32.64 LIG 0.04  C 
ATOM     28  CG  PRO B  88      14.816   1.117  15.437  1.00 32.93 LIG 0.02  C 
ATOM     29  CD  PRO B  88      16.084   1.450  16.175  1.00 33.68 LIG 0.13  C 
ATOM     30  N   PRO B  88      15.762   2.741  16.808  1.00 34.22 LIG-0.34  N 
ATOM     31  C   GLY B  87      16.206   3.310  17.965  1.00 37.83 LIG 0.24  C 
ATOM     32 O    GLY B  87      15.766   4.380  18.397  1.00 36.70 LIG-0.27  OA
BRANCH 31 33
ATOM     33  CA  GLY B  87      17.287   2.582  18.756  1.00 40.95 LIG 0.23  C 
BRANCH 33 34
ATOM     34  N   GLY B  87      18.557   3.339  18.805  1.00 44.01 LIG-0.35  N 
ATOM     35 H    GLY B  87      18.570   3.977  19.383  1.00 44.01 LIG 0.16  HD
ATOM     36  C   PRO B  86      19.583   3.036  18.005  1.00 46.81 LIG 0.25  C 
ATOM     37 O    PRO B  86      19.541   2.108  17.200  1.00 48.58 LIG-0.27  OA
BRANCH 36 38
ATOM     38  CA  PRO B  86      20.878   3.860  18.107  1.00 48.28 LIG 0.35  C 
ATOM     39  N   PRO B  86      22.134   3.155  17.809  1.00 49.47 LIG 0.32  N 
ATOM     40  CD  PRO B  86      23.015   3.950  16.938  1.00 50.15 LIG 0.32  C 
ATOM     41  CG  PRO B  86      22.046   4.807  16.184  1.00 49.89 LIG 0.04  C 
ATOM     42  CB  PRO B  86      20.854   5.015  17.089  1.00 49.17 LIG 0.05  C 
ENDBRANCH 36 38
ENDBRANCH 33 34
ENDBRANCH 31 33
ENDBRANCH 1 26
TORSDOF 11
ENDMDL
MODEL 69
USER: ADFR SOLUTION from run 162
USER: SCORE 11.888769 LL:  -3.273 LR:  -9.108 RR:   0.000 FEB:  -5.827
USER: RMSD 8.657372
USER: SEED 161
USER: STATUS no improvement in best in 15 clusters for 5 generations
USER: GENES 13
USER: genes 0 Translation |==|  0.45513 0.45608 0.43351
USER: genes 1 Rotation |==|  0.51250 0.94522 0.67771 0.64156
USER: genes 2 Torsion [C]-N--CA-[CB] |==|  0.77686
USER: genes 3 Torsion [N]-CA--C-[N] |==|  0.21540
USER: genes 4 Torsion [N]-CA--C-[N] |==|  0.44479
USER: genes 5 Torsion [C]-N--CA-[CB] |==|  0.81788
USER: genes 6 Torsion [N]-CA--C-[OXT] |==|  0.20709
USER: genes 7 Torsion [N]-CA--CB-[CG] |==|  0.95099
USER: genes 8 Torsion [CA]-CB--CG-[CD2] |==|  0.78590
USER: genes 9 Torsion [O]-C--CA-[CB] |==|  0.10473
USER: genes 10 Torsion [N]-C--CA-[N] |==|  0.46169
USER: genes 11 Torsion [C]-CA--N-[C] |==|  0.83889
USER: genes 12 Torsion [N]-C--CA-[CB] |==|  0.86620
ROOT
ATOM      1  C   PRO B  88      16.573   3.256  17.604  1.00 31.41 LIG 0.24  C 
ATOM      2 O    PRO B  88      15.817   3.773  18.435  1.00 30.85 LIG-0.27  OA
ATOM      3  N   LEU B  89      16.705   3.691  16.355  1.00 29.89 LIG-0.35  N 
ATOM      4 H    LEU B  89      17.220   3.325  15.770  1.00 29.89 LIG 0.16  HD
ENDROOT
BRANCH 3 5
ATOM      5  CA  LEU B  89      15.970   4.850  15.868  1.00 30.22 LIG 0.18  C 
BRANCH 5 6
ATOM      6  C   LEU B  89      15.946   5.942  16.937  1.00 29.45 LIG 0.24  C 
ATOM      7 O    LEU B  89      14.935   6.126  17.608  1.00 27.07 LIG-0.27  OA
ATOM      8  N   PRO B  90      17.061   6.675  17.090  1.00 31.27 LIG-0.34  N 
ATOM      9  CD  PRO B  90      18.351   6.478  16.396  1.00 32.01 LIG 0.13  C 
ATOM     10  CA  PRO B  90      17.144   7.747  18.101  1.00 32.16 LIG 0.18  C 
ATOM     11  CG  PRO B  90      19.185   7.634  16.877  1.00 32.17 LIG 0.02  C 
ATOM     12  CB  PRO B  90      18.647   7.979  18.228  1.00 32.36 LIG 0.04  C 
BRANCH 10 13
ATOM     13  C   PRO B  90      16.429   9.049  17.711  1.00 32.74 LIG 0.24  C 
ATOM     14  N   ALA B  91      16.108   9.898  18.692  1.00 33.34 LIG-0.34  N 
ATOM     15 H    ALA B  91      16.243   9.734  19.526  1.00 33.34 LIG 0.16  HD
ATOM     16 O    PRO B  90      16.181   9.266  16.524  1.00 32.61 LIG-0.27  OA
BRANCH 14 17
ATOM     17  CA  ALA B  91      15.487  11.207  18.432  1.00 34.79 LIG 0.18  C 
ATOM     18  CB  ALA B  91      16.461  12.127  17.664  1.00 34.67 LIG 0.04  C 
BRANCH 17 19
ATOM     19  C   ALA B  91      14.176  11.047  17.656  1.00 35.98 LIG 0.20  C 
ATOM     20 OXT  ALA B  91      13.144  10.632  18.210  1.00 36.84 LIG-0.65  OA
ATOM     21 O    ALA B  91      14.132  11.317  16.451  1.00 37.03 LIG-0.65  OA
ENDBRANCH 17 19
ENDBRANCH 14 17
ENDBRANCH 10 13
ENDBRANCH 5 6
BRANCH 5 22
ATOM     22  CB  LEU B  89      14.534   4.469  15.498  1.00 30.14 LIG 0.04  C 
BRANCH 22 23
ATOM     23  CG  LEU B  89      14.218   2.986  15.284  1.00 30.45 LIG-0.02  C 
ATOM     24  CD1 LEU B  89      12.715   2.769  15.440  1.00 30.38 LIG 0.01  C 
ATOM     25  CD2 LEU B  89      14.725   2.512  13.920  1.00 30.79 LIG 0.01  C 
ENDBRANCH 22 23
ENDBRANCH 5 22
ENDBRANCH 3 5
BRANCH 1 26
ATOM     26  CA  PRO B  88      17.445   2.070  17.996  1.00 32.64 LIG 0.18  C 
ATOM     27  CB  PRO B  88      16.692   1.121  18.953  1.00 32.64 LIG 0.04  C 
ATOM     28  CG  PRO B  88      17.279   1.377  20.312  1.00 32.93 LIG 0.02  C 
ATOM     29  CD  PRO B  88      18.714   1.737  20.033  1.00 33.68 LIG 0.13  C 
ATOM     30  N   PRO B  88      18.620   2.490  18.770  1.00 34.22 LIG-0.34  N 
ATOM     31  C   GLY B  87      19.389   3.496  18.263  1.00 37.83 LIG 0.24  C 
ATOM     32 O    GLY B  87      19.118   4.080  17.209  1.00 36.70 LIG-0.27  OA
BRANCH 31 33
ATOM     33  CA  GLY B  87      20.630   3.914  19.044  1.00 40.95 LIG 0.23  C 
BRANCH 33 34
ATOM     34  N   GLY B  87      21.538   4.766  18.245  1.00 44.01 LIG-0.35  N 
ATOM     35 H    GLY B  87      21.699   5.537  18.591  1.00 44.01 LIG 0.16  HD
ATOM     36  C   PRO B  86      22.050   4.346  17.086  1.00 46.81 LIG 0.25  C 
ATOM     37 O    PRO B  86      21.815   3.231  16.625  1.00 48.58 LIG-0.27  OA
BRANCH 36 38
ATOM     38  CA  PRO B  86      22.990   5.279  16.304  1.00 48.28 LIG 0.35  C 
ATOM     39  N   PRO B  86      23.274   4.911  14.908  1.00 49.47 LIG 0.32  N 
ATOM     40  CD  PRO B  86      23.188   6.072  14.006  1.00 50.15 LIG 0.32  C 
ATOM     41  CG  PRO B  86      22.224   6.970  14.718  1.00 49.89 LIG 0.04  C 
ATOM     42  CB  PRO B  86      22.374   6.686  16.194  1.00 49.17 LIG 0.05  C 
ENDBRANCH 36 38
ENDBRANCH 33 34
ENDBRANCH 31 33
ENDBRANCH 1 26
TORSDOF 11
ENDMDL
MODEL 70
USER: ADFR SOLUTION from run 195
USER: SCORE 11.262617 LL:  -3.461 LR:  -9.095 RR:   0.000 FEB:  -5.814
USER: RMSD 9.542604
USER: SEED 194
USER: STATUS no improvement in best in 26 clusters for 5 generations
USER: GENES 13
USER: genes 0 Translation |==|  0.41397 0.37995 0.56523
USER: genes 1 Rotation |==|  0.61019 0.97717 0.43111 0.57365
USER: genes 2 Torsion [C]-N--CA-[CB] |==|  0.49702
USER: genes 3 Torsion [N]-CA--C-[N] |==|  0.35000
USER: genes 4 Torsion [N]-CA--C-[N] |==|  0.49039
USER: genes 5 Torsion [C]-N--CA-[CB] |==|  0.31015
USER: genes 6 Torsion [N]-CA--C-[OXT] |==|  0.39184
USER: genes 7 Torsion [N]-CA--CB-[CG] |==|  0.60206
USER: genes 8 Torsion [CA]-CB--CG-[CD2] |==|  0.10131
USER: genes 9 Torsion [O]-C--CA-[CB] |==|  0.66703
USER: genes 10 Torsion [N]-C--CA-[N] |==|  0.36233
USER: genes 11 Torsion [C]-CA--N-[C] |==|  0.73946
USER: genes 12 Torsion [N]-C--CA-[CB] |==|  0.28611
ROOT
ATOM      1  C   PRO B  88      15.647   2.000  19.777  1.00 31.41 LIG 0.24  C 
ATOM      2 O    PRO B  88      15.697   3.222  19.966  1.00 30.85 LIG-0.27  OA
ATOM      3  N   LEU B  89      15.131   1.442  18.687  1.00 29.89 LIG-0.35  N 
ATOM      4 H    LEU B  89      15.082   0.592  18.559  1.00 29.89 LIG 0.16  HD
ENDROOT
BRANCH 3 5
ATOM      5  CA  LEU B  89      14.597   2.246  17.598  1.00 30.22 LIG 0.18  C 
BRANCH 5 6
ATOM      6  C   LEU B  89      13.450   3.121  18.105  1.00 29.45 LIG 0.24  C 
ATOM      7 O    LEU B  89      12.498   2.611  18.690  1.00 27.07 LIG-0.27  OA
ATOM      8  N   PRO B  90      13.537   4.441  17.875  1.00 31.27 LIG-0.34  N 
ATOM      9  CD  PRO B  90      14.673   5.158  17.259  1.00 32.01 LIG 0.13  C 
ATOM     10  CA  PRO B  90      12.488   5.372  18.333  1.00 32.16 LIG 0.18  C 
ATOM     11  CG  PRO B  90      14.178   6.575  17.162  1.00 32.17 LIG 0.02  C 
ATOM     12  CB  PRO B  90      13.185   6.728  18.269  1.00 32.36 LIG 0.04  C 
BRANCH 10 13
ATOM     13  C   PRO B  90      11.218   5.379  17.470  1.00 32.74 LIG 0.24  C 
ATOM     14  N   ALA B  91      10.201   6.148  17.869  1.00 33.34 LIG-0.34  N 
ATOM     15 H    ALA B  91      10.206   6.602  18.599  1.00 33.34 LIG 0.16  HD
ATOM     16 O    PRO B  90      11.179   4.686  16.451  1.00 32.61 LIG-0.27  OA
BRANCH 14 17
ATOM     17  CA  ALA B  91       8.962   6.290  17.085  1.00 34.79 LIG 0.18  C 
ATOM     18  CB  ALA B  91       7.776   5.628  17.817  1.00 34.67 LIG 0.04  C 
BRANCH 17 19
ATOM     19  C   ALA B  91       8.661   7.764  16.798  1.00 35.98 LIG 0.20  C 
ATOM     20 OXT  ALA B  91       8.207   8.129  15.700  1.00 36.84 LIG-0.65  OA
ATOM     21 O    ALA B  91       8.887   8.621  17.659  1.00 37.03 LIG-0.65  OA
ENDBRANCH 17 19
ENDBRANCH 14 17
ENDBRANCH 10 13
ENDBRANCH 5 6
BRANCH 5 22
ATOM     22  CB  LEU B  89      14.092   1.356  16.459  1.00 30.14 LIG 0.04  C 
BRANCH 22 23
ATOM     23  CG  LEU B  89      14.298   1.843  15.022  1.00 30.45 LIG-0.02  C 
ATOM     24  CD1 LEU B  89      13.120   2.729  14.622  1.00 30.38 LIG 0.01  C 
ATOM     25  CD2 LEU B  89      15.635   2.573  14.881  1.00 30.79 LIG 0.01  C 
ENDBRANCH 22 23
ENDBRANCH 5 22
ENDBRANCH 3 5
BRANCH 1 26
ATOM     26  CA  PRO B  88      16.223   1.042  20.813  1.00 32.64 LIG 0.18  C 
ATOM     27  CB  PRO B  88      17.350   0.180  20.205  1.00 32.64 LIG 0.04  C 
ATOM     28  CG  PRO B  88      16.744  -1.180  19.999  1.00 32.93 LIG 0.02  C 
ATOM     29  CD  PRO B  88      15.747  -1.313  21.119  1.00 33.68 LIG 0.13  C 
ATOM     30  N   PRO B  88      15.228   0.059  21.256  1.00 34.22 LIG-0.34  N 
ATOM     31  C   GLY B  87      14.012   0.523  21.664  1.00 37.83 LIG 0.24  C 
ATOM     32 O    GLY B  87      13.711   1.720  21.643  1.00 36.70 LIG-0.27  OA
BRANCH 31 33
ATOM     33  CA  GLY B  87      12.985  -0.490  22.159  1.00 40.95 LIG 0.23  C 
BRANCH 33 34
ATOM     34  N   GLY B  87      12.393  -0.104  23.458  1.00 44.01 LIG-0.35  N 
ATOM     35 H    GLY B  87      11.715   0.422  23.399  1.00 44.01 LIG 0.16  HD
ATOM     36  C   PRO B  86      12.892  -0.551  24.614  1.00 46.81 LIG 0.25  C 
ATOM     37 O    PRO B  86      13.853  -1.315  24.667  1.00 48.58 LIG-0.27  OA
BRANCH 36 38
ATOM     38  CA  PRO B  86      12.230  -0.114  25.932  1.00 48.28 LIG 0.35  C 
ATOM     39  N   PRO B  86      11.306   1.029  25.859  1.00 49.47 LIG 0.32  N 
ATOM     40  CD  PRO B  86      10.066   0.780  26.612  1.00 50.15 LIG 0.32  C 
ATOM     41  CG  PRO B  86       9.952  -0.712  26.576  1.00 49.89 LIG 0.04  C 
ATOM     42  CB  PRO B  86      11.360  -1.255  26.493  1.00 49.17 LIG 0.05  C 
ENDBRANCH 36 38
ENDBRANCH 33 34
ENDBRANCH 31 33
ENDBRANCH 1 26
TORSDOF 11
ENDMDL
MODEL 71
USER: ADFR SOLUTION from run 36
USER: SCORE 11.133250 LL:  -3.958 LR:  -9.102 RR:   0.000 FEB:  -5.821
USER: RMSD 8.227667
USER: SEED 35
USER: STATUS no improvement in best in 25 clusters for 5 generations
USER: GENES 13
USER: genes 0 Translation |==|  0.34962 0.51618 0.30325
USER: genes 1 Rotation |==|  0.48522 0.11770 0.66193 0.77822
USER: genes 2 Torsion [C]-N--CA-[CB] |==|  0.50146
USER: genes 3 Torsion [N]-CA--C-[N] |==|  0.87653
USER: genes 4 Torsion [N]-CA--C-[N] |==|  0.22753
USER: genes 5 Torsion [C]-N--CA-[CB] |==|  0.19224
USER: genes 6 Torsion [N]-CA--C-[OXT] |==|  0.61331
USER: genes 7 Torsion [N]-CA--CB-[CG] |==|  0.51911
USER: genes 8 Torsion [CA]-CB--CG-[CD2] |==|  0.72388
USER: genes 9 Torsion [O]-C--CA-[CB] |==|  0.56080
USER: genes 10 Torsion [N]-C--CA-[N] |==|  0.85000
USER: genes 11 Torsion [C]-CA--N-[C] |==|  0.32821
USER: genes 12 Torsion [N]-C--CA-[CB] |==|  0.56040
ROOT
ATOM      1  C   PRO B  88      14.199   4.248  15.455  1.00 31.41 LIG 0.24  C 
ATOM      2 O    PRO B  88      14.225   5.475  15.297  1.00 30.85 LIG-0.27  OA
ATOM      3  N   LEU B  89      13.198   3.600  16.041  1.00 29.89 LIG-0.35  N 
ATOM      4 H    LEU B  89      13.183   2.748  16.164  1.00 29.89 LIG 0.16  HD
ENDROOT
BRANCH 3 5
ATOM      5  CA  LEU B  89      12.018   4.299  16.530  1.00 30.22 LIG 0.18  C 
BRANCH 5 6
ATOM      6  C   LEU B  89      12.424   5.356  17.558  1.00 29.45 LIG 0.24  C 
ATOM      7 O    LEU B  89      11.938   6.482  17.509  1.00 27.07 LIG-0.27  OA
ATOM      8  N   PRO B  90      13.324   4.995  18.486  1.00 31.27 LIG-0.34  N 
ATOM      9  CD  PRO B  90      13.903   3.648  18.681  1.00 32.01 LIG 0.13  C 
ATOM     10  CA  PRO B  90      13.775   5.937  19.528  1.00 32.16 LIG 0.18  C 
ATOM     11  CG  PRO B  90      14.911   3.858  19.777  1.00 32.17 LIG 0.02  C 
ATOM     12  CB  PRO B  90      14.400   5.016  20.573  1.00 32.36 LIG 0.04  C 
BRANCH 10 13
ATOM     13  C   PRO B  90      14.795   6.980  19.049  1.00 32.74 LIG 0.24  C 
ATOM     14  N   ALA B  91      14.327   8.063  18.423  1.00 33.34 LIG-0.34  N 
ATOM     15 H    ALA B  91      13.495   8.184  18.239  1.00 33.34 LIG 0.16  HD
ATOM     16 O    PRO B  90      15.994   6.787  19.256  1.00 32.61 LIG-0.27  OA
BRANCH 14 17
ATOM     17  CA  ALA B  91      15.204   9.162  17.984  1.00 34.79 LIG 0.18  C 
ATOM     18  CB  ALA B  91      16.107   8.705  16.819  1.00 34.67 LIG 0.04  C 
BRANCH 17 19
ATOM     19  C   ALA B  91      14.382  10.389  17.576  1.00 35.98 LIG 0.20  C 
ATOM     20 OXT  ALA B  91      14.682  11.066  16.578  1.00 36.84 LIG-0.65  OA
ATOM     21 O    ALA B  91      13.407  10.735  18.253  1.00 37.03 LIG-0.65  OA
ENDBRANCH 17 19
ENDBRANCH 14 17
ENDBRANCH 10 13
ENDBRANCH 5 6
BRANCH 5 22
ATOM     22  CB  LEU B  89      11.030   3.321  17.170  1.00 30.14 LIG 0.04  C 
BRANCH 22 23
ATOM     23  CG  LEU B  89       9.661   3.859  17.595  1.00 30.45 LIG-0.02  C 
ATOM     24  CD1 LEU B  89       8.583   2.858  17.186  1.00 30.38 LIG 0.01  C 
ATOM     25  CD2 LEU B  89       9.632   4.148  19.097  1.00 30.79 LIG 0.01  C 
ENDBRANCH 22 23
ENDBRANCH 5 22
ENDBRANCH 3 5
BRANCH 1 26
ATOM     26  CA  PRO B  88      15.345   3.386  14.938  1.00 32.64 LIG 0.18  C 
ATOM     27  CB  PRO B  88      14.893   1.924  14.739  1.00 32.64 LIG 0.04  C 
ATOM     28  CG  PRO B  88      15.487   1.163  15.891  1.00 32.93 LIG 0.02  C 
ATOM     29  CD  PRO B  88      16.778   1.879  16.181  1.00 33.68 LIG 0.13  C 
ATOM     30  N   PRO B  88      16.435   3.288  15.917  1.00 34.22 LIG-0.34  N 
ATOM     31  C   GLY B  87      16.917   4.446  16.452  1.00 37.83 LIG 0.24  C 
ATOM     32 O    GLY B  87      16.454   5.556  16.172  1.00 36.70 LIG-0.27  OA
BRANCH 31 33
ATOM     33  CA  GLY B  87      18.072   4.353  17.443  1.00 40.95 LIG 0.23  C 
BRANCH 33 34
ATOM     34  N   GLY B  87      17.780   3.434  18.565  1.00 44.01 LIG-0.35  N 
ATOM     35 H    GLY B  87      17.110   3.666  19.052  1.00 44.01 LIG 0.16  HD
ATOM     36  C   PRO B  86      18.515   2.339  18.780  1.00 46.81 LIG 0.25  C 
ATOM     37 O    PRO B  86      19.458   2.024  18.057  1.00 48.58 LIG-0.27  OA
BRANCH 36 38
ATOM     38  CA  PRO B  86      18.159   1.422  19.962  1.00 48.28 LIG 0.35  C 
ATOM     39  N   PRO B  86      17.100   0.428  19.730  1.00 49.47 LIG 0.32  N 
ATOM     40  CD  PRO B  86      17.468  -0.897  20.257  1.00 50.15 LIG 0.32  C 
ATOM     41  CG  PRO B  86      18.964  -0.870  20.201  1.00 49.89 LIG 0.04  C 
ATOM     42  CB  PRO B  86      19.380   0.573  20.364  1.00 49.17 LIG 0.05  C 
ENDBRANCH 36 38
ENDBRANCH 33 34
ENDBRANCH 31 33
ENDBRANCH 1 26
TORSDOF 11
ENDMDL
MODEL 72
USER: ADFR SOLUTION from run 36
USER: SCORE 11.134775 LL:  -3.270 LR:  -9.103 RR:   0.000 FEB:  -5.822
USER: RMSD 6.052223
USER: SEED 35
USER: STATUS no improvement in best in 25 clusters for 5 generations
USER: GENES 13
USER: genes 0 Translation |==|  0.36266 0.52258 0.34914
USER: genes 1 Rotation |==|  0.31719 0.64817 0.10568 0.69782
USER: genes 2 Torsion [C]-N--CA-[CB] |==|  0.17448
USER: genes 3 Torsion [N]-CA--C-[N] |==|  0.29560
USER: genes 4 Torsion [N]-CA--C-[N] |==|  0.20278
USER: genes 5 Torsion [C]-N--CA-[CB] |==|  0.32203
USER: genes 6 Torsion [N]-CA--C-[OXT] |==|  0.53744
USER: genes 7 Torsion [N]-CA--CB-[CG] |==|  0.68959
USER: genes 8 Torsion [CA]-CB--CG-[CD2] |==|  0.33213
USER: genes 9 Torsion [O]-C--CA-[CB] |==|  0.66296
USER: genes 10 Torsion [N]-C--CA-[N] |==|  0.49640
USER: genes 11 Torsion [C]-CA--N-[C] |==|  0.76793
USER: genes 12 Torsion [N]-C--CA-[CB] |==|  0.12105
ROOT
ATOM      1  C   PRO B  88      14.493   4.354  16.212  1.00 31.41 LIG 0.24  C 
ATOM      2 O    PRO B  88      14.311   3.621  15.232  1.00 30.85 LIG-0.27  OA
ATOM      3  N   LEU B  89      14.902   3.913  17.397  1.00 29.89 LIG-0.35  N 
ATOM      4 H    LEU B  89      15.016   4.418  18.084  1.00 29.89 LIG 0.16  HD
ENDROOT
BRANCH 3 5
ATOM      5  CA  LEU B  89      15.198   2.506  17.628  1.00 30.22 LIG 0.18  C 
BRANCH 5 6
ATOM      6  C   LEU B  89      15.548   2.278  19.099  1.00 29.45 LIG 0.24  C 
ATOM      7 O    LEU B  89      16.635   2.645  19.537  1.00 27.07 LIG-0.27  OA
ATOM      8  N   PRO B  90      14.629   1.664  19.860  1.00 31.27 LIG-0.34  N 
ATOM      9  CD  PRO B  90      13.267   1.262  19.451  1.00 32.01 LIG 0.13  C 
ATOM     10  CA  PRO B  90      14.865   1.406  21.294  1.00 32.16 LIG 0.18  C 
ATOM     11  CG  PRO B  90      12.739   0.538  20.659  1.00 32.17 LIG 0.02  C 
ATOM     12  CB  PRO B  90      13.462   1.131  21.826  1.00 32.36 LIG 0.04  C 
BRANCH 10 13
ATOM     13  C   PRO B  90      15.794   0.218  21.584  1.00 32.74 LIG 0.24  C 
ATOM     14  N   ALA B  91      17.098   0.376  21.339  1.00 33.34 LIG-0.34  N 
ATOM     15 H    ALA B  91      17.434   1.088  20.991  1.00 33.34 LIG 0.16  HD
ATOM     16 O    PRO B  90      15.314  -0.826  22.029  1.00 32.61 LIG-0.27  OA
BRANCH 14 17
ATOM     17  CA  ALA B  91      18.092  -0.667  21.646  1.00 34.79 LIG 0.18  C 
ATOM     18  CB  ALA B  91      18.756  -1.183  20.352  1.00 34.67 LIG 0.04  C 
BRANCH 17 19
ATOM     19  C   ALA B  91      19.151  -0.144  22.622  1.00 35.98 LIG 0.20  C 
ATOM     20 OXT  ALA B  91      20.208  -0.765  22.822  1.00 36.84 LIG-0.65  OA
ATOM     21 O    ALA B  91      18.956   0.907  23.243  1.00 37.03 LIG-0.65  OA
ENDBRANCH 17 19
ENDBRANCH 14 17
ENDBRANCH 10 13
ENDBRANCH 5 6
BRANCH 5 22
ATOM     22  CB  LEU B  89      16.363   2.042  16.749  1.00 30.14 LIG 0.04  C 
BRANCH 22 23
ATOM     23  CG  LEU B  89      16.062   1.046  15.627  1.00 30.45 LIG-0.02  C 
ATOM     24  CD1 LEU B  89      14.592   0.640  15.701  1.00 30.38 LIG 0.01  C 
ATOM     25  CD2 LEU B  89      16.423   1.636  14.262  1.00 30.79 LIG 0.01  C 
ENDBRANCH 22 23
ENDBRANCH 5 22
ENDBRANCH 3 5
BRANCH 1 26
ATOM     26  CA  PRO B  88      14.275   5.857  16.094  1.00 32.64 LIG 0.18  C 
ATOM     27  CB  PRO B  88      15.562   6.633  16.444  1.00 32.64 LIG 0.04  C 
ATOM     28  CG  PRO B  88      15.326   7.199  17.815  1.00 32.93 LIG 0.02  C 
ATOM     29  CD  PRO B  88      13.845   7.462  17.856  1.00 33.68 LIG 0.13  C 
ATOM     30  N   PRO B  88      13.294   6.343  17.072  1.00 34.22 LIG-0.34  N 
ATOM     31  C   GLY B  87      12.097   5.695  17.149  1.00 37.83 LIG 0.24  C 
ATOM     32 O    GLY B  87      11.824   4.708  16.458  1.00 36.70 LIG-0.27  OA
BRANCH 31 33
ATOM     33  CA  GLY B  87      11.060   6.215  18.138  1.00 40.95 LIG 0.23  C 
BRANCH 33 34
ATOM     34  N   GLY B  87       9.801   5.440  18.095  1.00 44.01 LIG-0.35  N 
ATOM     35 H    GLY B  87       9.741   4.824  18.692  1.00 44.01 LIG 0.16  HD
ATOM     36  C   PRO B  86       8.851   5.700  17.192  1.00 46.81 LIG 0.25  C 
ATOM     37 O    PRO B  86       8.958   6.600  16.361  1.00 48.58 LIG-0.27  OA
BRANCH 36 38
ATOM     38  CA  PRO B  86       7.563   4.860  17.201  1.00 48.28 LIG 0.35  C 
ATOM     39  N   PRO B  86       7.667   3.488  16.681  1.00 49.47 LIG 0.32  N 
ATOM     40  CD  PRO B  86       6.980   2.519  17.552  1.00 50.15 LIG 0.32  C 
ATOM     41  CG  PRO B  86       7.043   3.179  18.894  1.00 49.89 LIG 0.04  C 
ATOM     42  CB  PRO B  86       7.062   4.669  18.645  1.00 49.17 LIG 0.05  C 
ENDBRANCH 36 38
ENDBRANCH 33 34
ENDBRANCH 31 33
ENDBRANCH 1 26
TORSDOF 11
ENDMDL
MODEL 73
USER: ADFR SOLUTION from run 12
USER: SCORE 11.424490 LL:  -3.104 LR:  -9.091 RR:   0.000 FEB:  -5.810
USER: RMSD 3.188054
USER: SEED 272144
USER: STATUS no improvement in best in 13 clusters for 5 generations
USER: GENES 13
USER: genes 0 Translation |==|  0.43488 0.35675 0.40321
USER: genes 1 Rotation |==|  0.15146 0.27304 0.22370 0.52582
USER: genes 2 Torsion [C]-N--CA-[CB] |==|  0.87748
USER: genes 3 Torsion [N]-CA--C-[N] |==|  0.35617
USER: genes 4 Torsion [N]-CA--C-[N] |==|  0.46335
USER: genes 5 Torsion [C]-N--CA-[CB] |==|  0.15908
USER: genes 6 Torsion [N]-CA--C-[OXT] |==|  0.05707
USER: genes 7 Torsion [N]-CA--CB-[CG] |==|  0.34265
USER: genes 8 Torsion [CA]-CB--CG-[CD2] |==|  0.66506
USER: genes 9 Torsion [O]-C--CA-[CB] |==|  0.68269
USER: genes 10 Torsion [N]-C--CA-[N] |==|  0.37892
USER: genes 11 Torsion [C]-CA--N-[C] |==|  0.45179
USER: genes 12 Torsion [N]-C--CA-[CB] |==|  0.76645
ROOT
ATOM      1  C   PRO B  88      16.118   1.617  17.104  1.00 31.41 LIG 0.24  C 
ATOM      2 O    PRO B  88      16.421   0.893  18.060  1.00 30.85 LIG-0.27  OA
ATOM      3  N   LEU B  89      16.531   2.874  16.969  1.00 29.89 LIG-0.35  N 
ATOM      4 H    LEU B  89      16.310   3.385  16.313  1.00 29.89 LIG 0.16  HD
ENDROOT
BRANCH 3 5
ATOM      5  CA  LEU B  89      17.411   3.497  17.947  1.00 30.22 LIG 0.18  C 
BRANCH 5 6
ATOM      6  C   LEU B  89      18.846   3.006  17.749  1.00 29.45 LIG 0.24  C 
ATOM      7 O    LEU B  89      19.085   1.803  17.704  1.00 27.07 LIG-0.27  OA
ATOM      8  N   PRO B  90      19.804   3.940  17.638  1.00 31.27 LIG-0.34  N 
ATOM      9  CD  PRO B  90      19.610   5.405  17.596  1.00 32.01 LIG 0.13  C 
ATOM     10  CA  PRO B  90      21.218   3.572  17.435  1.00 32.16 LIG 0.18  C 
ATOM     11  CG  PRO B  90      21.015   5.941  17.570  1.00 32.17 LIG 0.02  C 
ATOM     12  CB  PRO B  90      21.839   4.871  16.930  1.00 32.36 LIG 0.04  C 
BRANCH 10 13
ATOM     13  C   PRO B  90      21.940   3.085  18.700  1.00 32.74 LIG 0.24  C 
ATOM     14  N   ALA B  91      23.124   2.485  18.546  1.00 33.34 LIG-0.34  N 
ATOM     15 H    ALA B  91      23.478   2.323  17.780  1.00 33.34 LIG 0.16  HD
ATOM     16 O    PRO B  90      21.412   3.263  19.799  1.00 32.61 LIG-0.27  OA
BRANCH 14 17
ATOM     17  CA  ALA B  91      23.940   2.043  19.690  1.00 34.79 LIG 0.18  C 
ATOM     18  CB  ALA B  91      23.144   1.064  20.579  1.00 34.67 LIG 0.04  C 
BRANCH 17 19
ATOM     19  C   ALA B  91      25.245   1.398  19.215  1.00 35.98 LIG 0.20  C 
ATOM     20 OXT  ALA B  91      25.698   1.616  18.079  1.00 36.84 LIG-0.65  OA
ATOM     21 O    ALA B  91      25.862   0.628  19.959  1.00 37.03 LIG-0.65  OA
ENDBRANCH 17 19
ENDBRANCH 14 17
ENDBRANCH 10 13
ENDBRANCH 5 6
BRANCH 5 22
ATOM     22  CB  LEU B  89      16.956   3.176  19.374  1.00 30.14 LIG 0.04  C 
BRANCH 22 23
ATOM     23  CG  LEU B  89      17.961   2.503  20.313  1.00 30.45 LIG-0.02  C 
ATOM     24  CD1 LEU B  89      18.272   3.448  21.471  1.00 30.38 LIG 0.01  C 
ATOM     25  CD2 LEU B  89      17.429   1.155  20.804  1.00 30.79 LIG 0.01  C 
ENDBRANCH 22 23
ENDBRANCH 5 22
ENDBRANCH 3 5
BRANCH 1 26
ATOM     26  CA  PRO B  88      15.247   1.074  15.978  1.00 32.64 LIG 0.18  C 
ATOM     27  CB  PRO B  88      16.034   1.003  14.653  1.00 32.64 LIG 0.04  C 
ATOM     28  CG  PRO B  88      15.530   2.154  13.828  1.00 32.93 LIG 0.02  C 
ATOM     29  CD  PRO B  88      14.089   2.300  14.239  1.00 33.68 LIG 0.13  C 
ATOM     30  N   PRO B  88      14.126   1.973  15.675  1.00 34.22 LIG-0.34  N 
ATOM     31  C   GLY B  87      13.350   2.396  16.714  1.00 37.83 LIG 0.24  C 
ATOM     32 O    GLY B  87      13.572   2.080  17.887  1.00 36.70 LIG-0.27  OA
BRANCH 31 33
ATOM     33  CA  GLY B  87      12.164   3.302  16.402  1.00 40.95 LIG 0.23  C 
BRANCH 33 34
ATOM     34  N   GLY B  87      10.946   2.913  17.147  1.00 44.01 LIG-0.35  N 
ATOM     35 H    GLY B  87      10.966   2.116  17.471  1.00 44.01 LIG 0.16  HD
ATOM     36  C   PRO B  86       9.916   3.752  17.287  1.00 46.81 LIG 0.25  C 
ATOM     37 O    PRO B  86       9.924   4.891  16.826  1.00 48.58 LIG-0.27  OA
BRANCH 36 38
ATOM     38  CA  PRO B  86       8.679   3.288  18.075  1.00 48.28 LIG 0.35  C 
ATOM     39  N   PRO B  86       7.816   4.343  18.630  1.00 49.47 LIG 0.32  N 
ATOM     40  CD  PRO B  86       6.390   4.065  18.393  1.00 50.15 LIG 0.32  C 
ATOM     41  CG  PRO B  86       6.419   3.227  17.153  1.00 49.89 LIG 0.04  C 
ATOM     42  CB  PRO B  86       7.735   2.485  17.160  1.00 49.17 LIG 0.05  C 
ENDBRANCH 36 38
ENDBRANCH 33 34
ENDBRANCH 31 33
ENDBRANCH 1 26
TORSDOF 11
ENDMDL
MODEL 74
USER: ADFR SOLUTION from run 177
USER: SCORE 11.335401 LL:  -3.766 LR:  -9.076 RR:   0.000 FEB:  -5.794
USER: RMSD 6.423714
USER: SEED 176
USER: STATUS no improvement in best in 17 clusters for 5 generations
USER: GENES 13
USER: genes 0 Translation |==|  0.24501 0.42469 0.45036
USER: genes 1 Rotation |==|  0.11124 0.62747 0.31306 0.71834
USER: genes 2 Torsion [C]-N--CA-[CB] |==|  0.27221
USER: genes 3 Torsion [N]-CA--C-[N] |==|  0.21995
USER: genes 4 Torsion [N]-CA--C-[N] |==|  0.31354
USER: genes 5 Torsion [C]-N--CA-[CB] |==|  0.47409
USER: genes 6 Torsion [N]-CA--C-[OXT] |==|  0.99088
USER: genes 7 Torsion [N]-CA--CB-[CG] |==|  0.71637
USER: genes 8 Torsion [CA]-CB--CG-[CD2] |==|  0.56064
USER: genes 9 Torsion [O]-C--CA-[CB] |==|  0.74716
USER: genes 10 Torsion [N]-C--CA-[N] |==|  0.47214
USER: genes 11 Torsion [C]-CA--N-[C] |==|  0.78411
USER: genes 12 Torsion [N]-C--CA-[CB] |==|  0.88612
ROOT
ATOM      1  C   PRO B  88      11.846   2.738  17.882  1.00 31.41 LIG 0.24  C 
ATOM      2 O    PRO B  88      11.531   1.696  17.295  1.00 30.85 LIG-0.27  OA
ATOM      3  N   LEU B  89      13.099   3.072  18.175  1.00 29.89 LIG-0.35  N 
ATOM      4 H    LEU B  89      13.320   3.789  18.596  1.00 29.89 LIG 0.16  HD
ENDROOT
BRANCH 3 5
ATOM      5  CA  LEU B  89      14.222   2.226  17.795  1.00 30.22 LIG 0.18  C 
BRANCH 5 6
ATOM      6  C   LEU B  89      15.263   2.204  18.913  1.00 29.45 LIG 0.24  C 
ATOM      7 O    LEU B  89      16.277   2.891  18.826  1.00 27.07 LIG-0.27  OA
ATOM      8  N   PRO B  90      15.018   1.405  19.964  1.00 31.27 LIG-0.34  N 
ATOM      9  CD  PRO B  90      13.796   0.607  20.202  1.00 32.01 LIG 0.13  C 
ATOM     10  CA  PRO B  90      15.955   1.319  21.101  1.00 32.16 LIG 0.18  C 
ATOM     11  CG  PRO B  90      14.119  -0.156  21.458  1.00 32.17 LIG 0.02  C 
ATOM     12  CB  PRO B  90      15.101   0.692  22.200  1.00 32.36 LIG 0.04  C 
BRANCH 10 13
ATOM     13  C   PRO B  90      17.203   0.465  20.836  1.00 32.74 LIG 0.24  C 
ATOM     14  N   ALA B  91      18.384   1.090  20.789  1.00 33.34 LIG-0.34  N 
ATOM     15 H    ALA B  91      18.473   1.943  20.856  1.00 33.34 LIG 0.16  HD
ATOM     16 O    PRO B  90      17.078  -0.751  20.680  1.00 32.61 LIG-0.27  OA
BRANCH 14 17
ATOM     17  CA  ALA B  91      19.654   0.366  20.614  1.00 34.79 LIG 0.18  C 
ATOM     18  CB  ALA B  91      20.813   1.355  20.364  1.00 34.67 LIG 0.04  C 
BRANCH 17 19
ATOM     19  C   ALA B  91      19.954  -0.516  21.829  1.00 35.98 LIG 0.20  C 
ATOM     20 OXT  ALA B  91      19.210  -0.519  22.825  1.00 36.84 LIG-0.65  OA
ATOM     21 O    ALA B  91      20.961  -1.233  21.842  1.00 37.03 LIG-0.65  OA
ENDBRANCH 17 19
ENDBRANCH 14 17
ENDBRANCH 10 13
ENDBRANCH 5 6
BRANCH 5 22
ATOM     22  CB  LEU B  89      14.872   2.731  16.504  1.00 30.14 LIG 0.04  C 
BRANCH 22 23
ATOM     23  CG  LEU B  89      14.551   1.992  15.202  1.00 30.45 LIG-0.02  C 
ATOM     24  CD1 LEU B  89      13.172   2.426  14.710  1.00 30.38 LIG 0.01  C 
ATOM     25  CD2 LEU B  89      15.636   2.240  14.152  1.00 30.79 LIG 0.01  C 
ENDBRANCH 22 23
ENDBRANCH 5 22
ENDBRANCH 3 5
BRANCH 1 26
ATOM     26  CA  PRO B  88      10.773   3.742  18.288  1.00 32.64 LIG 0.18  C 
ATOM     27  CB  PRO B  88      10.548   4.791  17.179  1.00 32.64 LIG 0.04  C 
ATOM     28  CG  PRO B  88      11.215   6.043  17.674  1.00 32.93 LIG 0.02  C 
ATOM     29  CD  PRO B  88      11.056   5.980  19.169  1.00 33.68 LIG 0.13  C 
ATOM     30  N   PRO B  88      11.186   4.539  19.449  1.00 34.22 LIG-0.34  N 
ATOM     31  C   GLY B  87      11.652   3.874  20.545  1.00 37.83 LIG 0.24  C 
ATOM     32 O    GLY B  87      11.769   2.646  20.583  1.00 36.70 LIG-0.27  OA
BRANCH 31 33
ATOM     33  CA  GLY B  87      12.050   4.694  21.767  1.00 40.95 LIG 0.23  C 
BRANCH 33 34
ATOM     34  N   GLY B  87      12.310   3.849  22.953  1.00 44.01 LIG-0.35  N 
ATOM     35 H    GLY B  87      13.143   3.724  23.127  1.00 44.01 LIG 0.16  HD
ATOM     36  C   PRO B  86      11.311   3.335  23.676  1.00 46.81 LIG 0.25  C 
ATOM     37 O    PRO B  86      10.129   3.544  23.413  1.00 48.58 LIG-0.27  OA
BRANCH 36 38
ATOM     38  CA  PRO B  86      11.646   2.465  24.899  1.00 48.28 LIG 0.35  C 
ATOM     39  N   PRO B  86      10.593   1.552  25.370  1.00 49.47 LIG 0.32  N 
ATOM     40  CD  PRO B  86      11.122   0.211  25.666  1.00 50.15 LIG 0.32  C 
ATOM     41  CG  PRO B  86      12.315   0.121  24.765  1.00 49.89 LIG 0.04  C 
ATOM     42  CB  PRO B  86      12.828   1.530  24.580  1.00 49.17 LIG 0.05  C 
ENDBRANCH 36 38
ENDBRANCH 33 34
ENDBRANCH 31 33
ENDBRANCH 1 26
TORSDOF 11
ENDMDL
MODEL 75
USER: ADFR SOLUTION from run 101
USER: SCORE 11.717853 LL:  -3.544 LR:  -9.072 RR:   0.000 FEB:  -5.791
USER: RMSD 9.789605
USER: SEED 100
USER: STATUS no improvement in best in 9 clusters for 5 generations
USER: GENES 13
USER: genes 0 Translation |==|  0.35844 0.34555 0.57350
USER: genes 1 Rotation |==|  0.21560 0.76263 0.72933 0.71806
USER: genes 2 Torsion [C]-N--CA-[CB] |==|  0.78725
USER: genes 3 Torsion [N]-CA--C-[N] |==|  0.19501
USER: genes 4 Torsion [N]-CA--C-[N] |==|  0.59330
USER: genes 5 Torsion [C]-N--CA-[CB] |==|  0.40393
USER: genes 6 Torsion [N]-CA--C-[OXT] |==|  0.92235
USER: genes 7 Torsion [N]-CA--CB-[CG] |==|  0.67325
USER: genes 8 Torsion [CA]-CB--CG-[CD2] |==|  0.75780
USER: genes 9 Torsion [O]-C--CA-[CB] |==|  0.71481
USER: genes 10 Torsion [N]-C--CA-[N] |==|  0.85654
USER: genes 11 Torsion [C]-CA--N-[C] |==|  0.71211
USER: genes 12 Torsion [N]-C--CA-[CB] |==|  0.75474
ROOT
ATOM      1  C   PRO B  88      14.398   1.433  19.914  1.00 31.41 LIG 0.24  C 
ATOM      2 O    PRO B  88      13.404   0.741  19.661  1.00 30.85 LIG-0.27  OA
ATOM      3  N   LEU B  89      14.850   2.395  19.116  1.00 29.89 LIG-0.35  N 
ATOM      4 H    LEU B  89      15.549   2.868  19.282  1.00 29.89 LIG 0.16  HD
ENDROOT
BRANCH 3 5
ATOM      5  CA  LEU B  89      14.179   2.731  17.868  1.00 30.22 LIG 0.18  C 
BRANCH 5 6
ATOM      6  C   LEU B  89      12.667   2.800  18.088  1.00 29.45 LIG 0.24  C 
ATOM      7 O    LEU B  89      11.934   1.943  17.604  1.00 27.07 LIG-0.27  OA
ATOM      8  N   PRO B  90      12.200   3.828  18.814  1.00 31.27 LIG-0.34  N 
ATOM      9  CD  PRO B  90      13.002   4.859  19.506  1.00 32.01 LIG 0.13  C 
ATOM     10  CA  PRO B  90      10.759   3.981  19.092  1.00 32.16 LIG 0.18  C 
ATOM     11  CG  PRO B  90      11.963   5.796  20.058  1.00 32.17 LIG 0.02  C 
ATOM     12  CB  PRO B  90      10.740   4.960  20.263  1.00 32.36 LIG 0.04  C 
BRANCH 10 13
ATOM     13  C   PRO B  90       9.936   4.531  17.918  1.00 32.74 LIG 0.24  C 
ATOM     14  N   ALA B  91       8.892   5.314  18.205  1.00 33.34 LIG-0.34  N 
ATOM     15 H    ALA B  91       8.636   5.490  19.007  1.00 33.34 LIG 0.16  HD
ATOM     16 O    PRO B  90      10.261   4.237  16.767  1.00 32.61 LIG-0.27  OA
BRANCH 14 17
ATOM     17  CA  ALA B  91       8.076   5.956  17.161  1.00 34.79 LIG 0.18  C 
ATOM     18  CB  ALA B  91       6.598   6.036  17.599  1.00 34.67 LIG 0.04  C 
BRANCH 17 19
ATOM     19  C   ALA B  91       8.613   7.351  16.826  1.00 35.98 LIG 0.20  C 
ATOM     20 OXT  ALA B  91       9.229   8.026  17.668  1.00 36.84 LIG-0.65  OA
ATOM     21 O    ALA B  91       8.423   7.836  15.705  1.00 37.03 LIG-0.65  OA
ENDBRANCH 17 19
ENDBRANCH 14 17
ENDBRANCH 10 13
ENDBRANCH 5 6
BRANCH 5 22
ATOM     22  CB  LEU B  89      14.488   1.693  16.786  1.00 30.14 LIG 0.04  C 
BRANCH 22 23
ATOM     23  CG  LEU B  89      15.229   2.163  15.532  1.00 30.45 LIG-0.02  C 
ATOM     24  CD1 LEU B  89      16.083   1.016  14.997  1.00 30.38 LIG 0.01  C 
ATOM     25  CD2 LEU B  89      14.246   2.681  14.480  1.00 30.79 LIG 0.01  C 
ENDBRANCH 22 23
ENDBRANCH 5 22
ENDBRANCH 3 5
BRANCH 1 26
ATOM     26  CA  PRO B  88      15.163   1.225  21.215  1.00 32.64 LIG 0.18  C 
ATOM     27  CB  PRO B  88      14.822   2.327  22.240  1.00 32.64 LIG 0.04  C 
ATOM     28  CG  PRO B  88      16.015   3.242  22.254  1.00 32.93 LIG 0.02  C 
ATOM     29  CD  PRO B  88      17.180   2.333  21.972  1.00 33.68 LIG 0.13  C 
ATOM     30  N   PRO B  88      16.612   1.361  21.021  1.00 34.22 LIG-0.34  N 
ATOM     31  C   GLY B  87      17.189   0.647  20.012  1.00 37.83 LIG 0.24  C 
ATOM     32 O    GLY B  87      16.542  -0.074  19.247  1.00 36.70 LIG-0.27  OA
BRANCH 31 33
ATOM     33  CA  GLY B  87      18.699   0.757  19.827  1.00 40.95 LIG 0.23  C 
BRANCH 33 34
ATOM     34  N   GLY B  87      19.157   2.161  19.748  1.00 44.01 LIG-0.35  N 
ATOM     35 H    GLY B  87      19.185   2.570  20.504  1.00 44.01 LIG 0.16  HD
ATOM     36  C   PRO B  86      19.493   2.721  18.582  1.00 46.81 LIG 0.25  C 
ATOM     37 O    PRO B  86      19.458   2.106  17.519  1.00 48.58 LIG-0.27  OA
BRANCH 36 38
ATOM     38  CA  PRO B  86      19.963   4.185  18.567  1.00 48.28 LIG 0.35  C 
ATOM     39  N   PRO B  86      20.855   4.581  17.465  1.00 49.47 LIG 0.32  N 
ATOM     40  CD  PRO B  86      20.456   5.868  16.873  1.00 50.15 LIG 0.32  C 
ATOM     41  CG  PRO B  86      18.986   5.918  17.152  1.00 49.89 LIG 0.04  C 
ATOM     42  CB  PRO B  86      18.757   5.131  18.421  1.00 49.17 LIG 0.05  C 
ENDBRANCH 36 38
ENDBRANCH 33 34
ENDBRANCH 31 33
ENDBRANCH 1 26
TORSDOF 11
ENDMDL
