MODEL 1
USER: ADFR SOLUTION from run 46
USER: SCORE 17.953121 LL:  -3.190 LR: -16.079 RR:   0.000 FEB:  -8.920
USER: RMSD 4.813337
USER: SEED 45
USER: STATUS searching
USER: GENES 26
USER: genes 0 Translation |==|  0.31079 0.60691 0.52265
USER: genes 1 Rotation |==|  0.51733 0.27627 0.37169 0.92800
USER: genes 2 Torsion [C]-CA--N-[C] |==|  0.73446
USER: genes 3 Torsion [N]-C--CA-[N] |==|  0.99444
USER: genes 4 Torsion [C]-CA--N-[C] |==|  0.78579
USER: genes 5 Torsion [N]-C--CA-[N] |==|  0.43905
USER: genes 6 Torsion [C]-CA--N-[C] |==|  0.55115
USER: genes 7 Torsion [N]-C--CA-[N] |==|  0.39357
USER: genes 8 Torsion [C]-CA--CB-[SG] |==|  0.45357
USER: genes 9 Torsion [CA]-CB--SG-[HG] |==|  0.29071
USER: genes 10 Torsion [N]-CA--C-[N] |==|  0.01603
USER: genes 11 Torsion [C]-N--CA-[C] |==|  0.56577
USER: genes 12 Torsion [N]-CA--C-[N] |==|  0.32315
USER: genes 13 Torsion [C]-N--CA-[CB] |==|  0.16770
USER: genes 14 Torsion [N]-CA--C-[N] |==|  0.68077
USER: genes 15 Torsion [C]-N--CA-[C] |==|  0.17535
USER: genes 16 Torsion [N]-CA--C-[O] |==|  0.03592
USER: genes 17 Torsion [N]-CA--CB-[CG] |==|  0.55236
USER: genes 18 Torsion [CA]-CB--CG-[CD] |==|  0.54764
USER: genes 19 Torsion [CB]-CG--CD-[OE2] |==|  0.91339
USER: genes 20 Torsion [N]-CA--CB-[OG] |==|  0.04824
USER: genes 21 Torsion [CA]-CB--OG-[HG] |==|  0.19636
USER: genes 22 Torsion [N]-CA--CB-[CG] |==|  0.67964
USER: genes 23 Torsion [CA]-CB--CG-[CD] |==|  0.37498
USER: genes 24 Torsion [CB]-CG--CD-[NE] |==|  0.65634
USER: genes 25 Torsion [CG]-CD--NE-[CZ] |==|  0.49758
ROOT
ATOM      1  CA  ARG C1705     -16.817 -25.396  -7.847  1.00 19.53 LIG 0.18  C 
ENDROOT
BRANCH 1 2
ATOM      2  N   ARG C1705     -16.464 -26.476  -6.921  1.00 19.64 LIG-0.35  N 
ATOM      3 H    ARG C1705     -15.628 -26.549  -6.735  1.00 19.64 LIG 0.16  HD
ATOM      4  C   ALA C1704     -17.428 -27.253  -6.439  1.00 22.93 LIG 0.24  C 
ATOM      5 O    ALA C1704     -18.608 -27.134  -6.794  1.00 21.24 LIG-0.27  OA
BRANCH 4 6
ATOM      6  CA  ALA C1704     -17.029 -28.328  -5.429  1.00 20.87 LIG 0.17  C 
ATOM      7  CB  ALA C1704     -17.796 -28.174  -4.130  1.00 18.21 LIG 0.04  C 
BRANCH 6 8
ATOM      8  N   ALA C1704     -15.596 -28.363  -5.177  1.00 22.42 LIG-0.35  N 
ATOM      9  C   CYS C1703     -14.765 -28.920  -6.052  1.00 22.90 LIG 0.24  C 
ATOM     10 O    CYS C1703     -15.131 -29.356  -7.141  1.00 23.45 LIG-0.27  OA
ATOM     11 H    ALA C1704     -15.351 -28.003  -4.435  1.00 22.42 LIG 0.16  HD
BRANCH 9 12
ATOM     12  CA  CYS C1703     -13.301 -28.993  -5.640  1.00 24.41 LIG 0.18  C 
BRANCH 12 13
ATOM     13  N   CYS C1703     -12.602 -30.038  -6.389  1.00 24.32 LIG-0.34  N 
ATOM     14  C   GLY C1702     -11.440 -30.518  -5.947  1.00 24.70 LIG 0.25  C 
ATOM     15 O    GLY C1702     -10.876 -30.066  -4.949  1.00 27.37 LIG-0.27  OA
ATOM     16 H    CYS C1703     -12.996 -30.297  -7.107  1.00 24.32 LIG 0.16  HD
BRANCH 14 17
ATOM     17  CA  GLY C1702     -10.822 -31.663  -6.728  1.00 25.50 LIG 0.47  C 
ATOM     18  N   GLY C1702      -9.374 -31.553  -6.819  1.00 32.41 LIG 0.61  N 
ENDBRANCH 14 17
ENDBRANCH 12 13
BRANCH 12 19
ATOM     19  CB  CYS C1703     -12.617 -27.624  -5.809  1.00 19.88 LIG 0.10  C 
BRANCH 19 20
ATOM     20 SG   CYS C1703     -11.048 -27.424  -4.940  1.00 23.51 LIG-0.18  SA
ATOM     21 HG   CYS C1703     -10.144 -27.488  -5.726  1.00 23.51 LIG 0.10  HD
ENDBRANCH 19 20
ENDBRANCH 12 19
ENDBRANCH 9 12
ENDBRANCH 6 8
ENDBRANCH 4 6
ENDBRANCH 1 2
BRANCH 1 22
ATOM     22  C   ARG C1705     -16.672 -25.772  -9.331  1.00 20.76 LIG 0.24  C 
ATOM     23 O    ARG C1705     -16.829 -24.918 -10.212  1.00 22.20 LIG-0.27  OA
ATOM     24  N   SER C1706     -16.367 -27.037  -9.615  1.00 20.62 LIG-0.34  N 
ATOM     25 H    SER C1706     -16.260 -27.655  -9.026  1.00 20.62 LIG 0.16  HD
BRANCH 24 26
ATOM     26  CA  SER C1706     -16.190 -27.469 -10.997  1.00 20.36 LIG 0.20  C 
BRANCH 26 27
ATOM     27  C   SER C1706     -16.426 -28.969 -11.143  1.00 23.85 LIG 0.24  C 
ATOM     28 O    SER C1706     -15.685 -29.778 -10.583  1.00 24.92 LIG-0.27  OA
ATOM     29  N   GLU C1707     -17.449 -29.335 -11.905  1.00 21.35 LIG-0.35  N 
ATOM     30 H    GLU C1707     -17.993 -28.783 -12.279  1.00 21.35 LIG 0.16  HD
BRANCH 29 31
ATOM     31  CA  GLU C1707     -17.734 -30.744 -12.174  1.00 28.80 LIG 0.18  C 
BRANCH 31 32
ATOM     32  C   GLU C1707     -18.930 -30.872 -13.105  1.00 29.29 LIG 0.24  C 
ATOM     33 O    GLU C1707     -18.873 -30.452 -14.263  1.00 32.31 LIG-0.27  OA
ATOM     34  N   GLY C1708     -20.011 -31.452 -12.591  1.00 26.36 LIG-0.35  N 
ATOM     35 H    GLY C1708     -20.067 -31.721 -11.776  1.00 26.36 LIG 0.16  HD
BRANCH 34 36
ATOM     36  CA  GLY C1708     -21.207 -31.679 -13.378  1.00 26.05 LIG 0.21  C 
BRANCH 36 37
ATOM     37  C   GLY C1708     -20.984 -32.623 -14.540  1.00 34.75 LIG 0.21  C 
ATOM     38 O    GLY C1708     -19.963 -33.298 -14.617  1.00 36.48 LIG-0.29  OA
ENDBRANCH 36 37
ENDBRANCH 34 36
ENDBRANCH 31 32
BRANCH 31 39
ATOM     39  CB  GLU C1707     -18.021 -31.513 -10.880  1.00 30.33 LIG 0.04  C 
BRANCH 39 40
ATOM     40  CG  GLU C1707     -17.881 -33.021 -11.005  1.00 34.25 LIG 0.12  C 
BRANCH 40 41
ATOM     41  CD  GLU C1707     -18.557 -33.770  -9.866  1.00 39.35 LIG 0.17  C 
ATOM     42 OE2  GLU C1707     -18.606 -33.223  -8.743  1.00 42.40 LIG-0.65  OA
ATOM     43 OE1  GLU C1707     -19.036 -34.904 -10.096  1.00 45.84 LIG-0.65  OA
ENDBRANCH 40 41
ENDBRANCH 39 40
ENDBRANCH 31 39
ENDBRANCH 29 31
ENDBRANCH 26 27
BRANCH 26 44
ATOM     44  CB  SER C1706     -14.802 -27.089 -11.524  1.00 19.38 LIG 0.20  C 
BRANCH 44 45
ATOM     45 OG   SER C1706     -13.905 -26.781 -10.463  1.00 20.52 LIG-0.40  OA
ATOM     46 HG   SER C1706     -13.710 -27.484 -10.049  1.00 20.52 LIG 0.21  HD
ENDBRANCH 44 45
ENDBRANCH 26 44
ENDBRANCH 24 26
ENDBRANCH 1 22
BRANCH 1 47
ATOM     47  CB  ARG C1705     -16.044 -24.109  -7.530  1.00 21.30 LIG 0.04  C 
BRANCH 47 48
ATOM     48  CG  ARG C1705     -16.957 -22.966  -7.082  1.00 23.17 LIG 0.02  C 
BRANCH 48 49
ATOM     49  CD  ARG C1705     -16.421 -22.219  -5.859  1.00 21.38 LIG 0.14  C 
BRANCH 49 50
ATOM     50  NE  ARG C1705     -17.378 -22.200  -4.750  1.00 20.43 LIG-0.23  N 
ATOM     51  CZ  ARG C1705     -17.163 -21.634  -3.563  1.00 19.01 LIG 0.67  C 
ATOM     52  NH1 ARG C1705     -16.010 -21.017  -3.296  1.00 20.29 LIG-0.23  N 
ATOM     53  NH2 ARG C1705     -18.106 -21.688  -2.633  1.00 19.46 LIG-0.23  N 
ATOM     54 1HH1 ARG C1705     -15.392 -20.981  -3.894  1.00 20.29 LIG 0.17  HD
ATOM     55 2HH1 ARG C1705     -15.884 -20.656  -2.526  1.00 20.29 LIG 0.17  HD
ATOM     56 2HH2 ARG C1705     -17.974 -21.325  -1.865  1.00 19.46 LIG 0.17  HD
ATOM     57 1HH2 ARG C1705     -18.850 -22.087  -2.797  1.00 19.46 LIG 0.17  HD
ATOM     58 HE   ARG C1705     -18.137 -22.583  -4.874  1.00 20.43 LIG 0.18  HD
ENDBRANCH 49 50
ENDBRANCH 48 49
ENDBRANCH 47 48
ENDBRANCH 1 47
TORSDOF 24
ENDMDL
MODEL 2
USER: ADFR SOLUTION from run 14
USER: SCORE 16.514110 LL:  -3.327 LR: -16.041 RR:   0.000 FEB:  -8.881
USER: RMSD 5.404340
USER: SEED 673716
USER: STATUS searching
USER: GENES 26
USER: genes 0 Translation |==|  0.33169 0.56697 0.51568
USER: genes 1 Rotation |==|  0.49469 0.29860 0.21919 0.86132
USER: genes 2 Torsion [C]-CA--N-[C] |==|  0.62992
USER: genes 3 Torsion [N]-C--CA-[N] |==|  0.11348
USER: genes 4 Torsion [C]-CA--N-[C] |==|  0.16967
USER: genes 5 Torsion [N]-C--CA-[N] |==|  0.39604
USER: genes 6 Torsion [C]-CA--N-[C] |==|  0.75886
USER: genes 7 Torsion [N]-C--CA-[N] |==|  0.51319
USER: genes 8 Torsion [C]-CA--CB-[SG] |==|  0.03304
USER: genes 9 Torsion [CA]-CB--SG-[HG] |==|  0.84483
USER: genes 10 Torsion [N]-CA--C-[N] |==|  0.83919
USER: genes 11 Torsion [C]-N--CA-[C] |==|  0.65122
USER: genes 12 Torsion [N]-CA--C-[N] |==|  0.10000
USER: genes 13 Torsion [C]-N--CA-[CB] |==|  0.42295
USER: genes 14 Torsion [N]-CA--C-[N] |==|  0.66569
USER: genes 15 Torsion [C]-N--CA-[C] |==|  0.19098
USER: genes 16 Torsion [N]-CA--C-[O] |==|  0.81360
USER: genes 17 Torsion [N]-CA--CB-[CG] |==|  0.57101
USER: genes 18 Torsion [CA]-CB--CG-[CD] |==|  0.50857
USER: genes 19 Torsion [CB]-CG--CD-[OE2] |==|  0.45093
USER: genes 20 Torsion [N]-CA--CB-[OG] |==|  0.72153
USER: genes 21 Torsion [CA]-CB--OG-[HG] |==|  0.02415
USER: genes 22 Torsion [N]-CA--CB-[CG] |==|  0.62984
USER: genes 23 Torsion [CA]-CB--CG-[CD] |==|  0.97508
USER: genes 24 Torsion [CB]-CG--CD-[NE] |==|  0.31953
USER: genes 25 Torsion [CG]-CD--NE-[CZ] |==|  0.17346
ROOT
ATOM      1  CA  ARG C1705     -16.441 -26.295  -7.973  1.00 19.53 LIG 0.18  C 
ENDROOT
BRANCH 1 2
ATOM      2  N   ARG C1705     -16.862 -27.542  -7.327  1.00 19.64 LIG-0.35  N 
ATOM      3 H    ARG C1705     -16.502 -28.260  -7.634  1.00 19.64 LIG 0.16  HD
ATOM      4  C   ALA C1704     -17.747 -27.488  -6.338  1.00 22.93 LIG 0.24  C 
ATOM      5 O    ALA C1704     -18.275 -26.426  -5.984  1.00 21.24 LIG-0.27  OA
BRANCH 4 6
ATOM      6  CA  ALA C1704     -18.115 -28.802  -5.649  1.00 20.87 LIG 0.17  C 
ATOM      7  CB  ALA C1704     -18.850 -28.553  -4.346  1.00 18.21 LIG 0.04  C 
BRANCH 6 8
ATOM      8  N   ALA C1704     -16.965 -29.668  -5.431  1.00 22.42 LIG-0.35  N 
ATOM      9  C   CYS C1703     -15.949 -29.271  -4.673  1.00 22.90 LIG 0.24  C 
ATOM     10 O    CYS C1703     -15.947 -28.209  -4.055  1.00 23.45 LIG-0.27  OA
ATOM     11 H    ALA C1704     -17.009 -30.431  -5.826  1.00 22.42 LIG 0.16  HD
BRANCH 9 12
ATOM     12  CA  CYS C1703     -14.755 -30.214  -4.597  1.00 24.41 LIG 0.18  C 
BRANCH 12 13
ATOM     13  N   CYS C1703     -13.500 -29.462  -4.563  1.00 24.32 LIG-0.34  N 
ATOM     14  C   GLY C1702     -12.908 -29.093  -5.698  1.00 24.70 LIG 0.25  C 
ATOM     15 O    GLY C1702     -13.338 -29.421  -6.804  1.00 27.37 LIG-0.27  OA
ATOM     16 H    CYS C1703     -13.199 -29.292  -3.776  1.00 24.32 LIG 0.16  HD
BRANCH 14 17
ATOM     17  CA  GLY C1702     -11.658 -28.238  -5.581  1.00 25.50 LIG 0.47  C 
ATOM     18  N   GLY C1702     -11.161 -27.803  -6.877  1.00 32.41 LIG 0.61  N 
ENDBRANCH 14 17
ENDBRANCH 12 13
BRANCH 12 19
ATOM     19  CB  CYS C1703     -14.881 -31.157  -3.388  1.00 19.88 LIG 0.10  C 
BRANCH 19 20
ATOM     20 SG   CYS C1703     -16.494 -31.174  -2.576  1.00 23.51 LIG-0.18  SA
ATOM     21 HG   CYS C1703     -16.786 -30.058  -2.245  1.00 23.51 LIG 0.10  HD
ENDBRANCH 19 20
ENDBRANCH 12 19
ENDBRANCH 9 12
ENDBRANCH 6 8
ENDBRANCH 4 6
ENDBRANCH 1 2
BRANCH 1 22
ATOM     22  C   ARG C1705     -16.443 -26.354  -9.510  1.00 20.76 LIG 0.24  C 
ATOM     23 O    ARG C1705     -17.117 -25.552 -10.166  1.00 22.20 LIG-0.27  OA
ATOM     24  N   SER C1706     -15.691 -27.289 -10.087  1.00 20.62 LIG-0.34  N 
ATOM     25 H    SER C1706     -15.218 -27.866  -9.657  1.00 20.62 LIG 0.16  HD
BRANCH 24 26
ATOM     26  CA  SER C1706     -15.620 -27.397 -11.540  1.00 20.36 LIG 0.20  C 
BRANCH 26 27
ATOM     27  C   SER C1706     -15.971 -28.805 -12.009  1.00 23.85 LIG 0.24  C 
ATOM     28 O    SER C1706     -15.402 -29.303 -12.981  1.00 24.92 LIG-0.27  OA
ATOM     29  N   GLU C1707     -16.916 -29.437 -11.324  1.00 21.35 LIG-0.35  N 
ATOM     30 H    GLU C1707     -17.302 -29.115 -10.626  1.00 21.35 LIG 0.16  HD
BRANCH 29 31
ATOM     31  CA  GLU C1707     -17.385 -30.765 -11.719  1.00 28.80 LIG 0.18  C 
BRANCH 31 32
ATOM     32  C   GLU C1707     -18.493 -30.647 -12.756  1.00 29.29 LIG 0.24  C 
ATOM     33 O    GLU C1707     -18.289 -30.083 -13.833  1.00 32.31 LIG-0.27  OA
ATOM     34  N   GLY C1708     -19.665 -31.180 -12.420  1.00 26.36 LIG-0.35  N 
ATOM     35 H    GLY C1708     -19.822 -31.549 -11.660  1.00 26.36 LIG 0.16  HD
BRANCH 34 36
ATOM     36  CA  GLY C1708     -20.795 -31.179 -13.328  1.00 26.05 LIG 0.21  C 
BRANCH 36 37
ATOM     37  C   GLY C1708     -20.597 -32.084 -14.525  1.00 34.75 LIG 0.21  C 
ATOM     38 O    GLY C1708     -19.750 -31.830 -15.375  1.00 36.48 LIG-0.29  OA
ENDBRANCH 36 37
ENDBRANCH 34 36
ENDBRANCH 31 32
BRANCH 31 39
ATOM     39  CB  GLU C1707     -17.907 -31.555 -10.515  1.00 30.33 LIG 0.04  C 
BRANCH 39 40
ATOM     40  CG  GLU C1707     -17.836 -33.064 -10.678  1.00 34.25 LIG 0.12  C 
BRANCH 40 41
ATOM     41  CD  GLU C1707     -18.431 -33.812  -9.494  1.00 39.35 LIG 0.17  C 
ATOM     42 OE2  GLU C1707     -18.737 -35.014  -9.645  1.00 42.40 LIG-0.65  OA
ATOM     43 OE1  GLU C1707     -18.593 -33.196  -8.416  1.00 45.84 LIG-0.65  OA
ENDBRANCH 40 41
ENDBRANCH 39 40
ENDBRANCH 31 39
ENDBRANCH 29 31
ENDBRANCH 26 27
BRANCH 26 44
ATOM     44  CB  SER C1706     -14.238 -26.985 -12.061  1.00 19.38 LIG 0.20  C 
BRANCH 44 45
ATOM     45 OG   SER C1706     -14.245 -25.657 -12.570  1.00 20.52 LIG-0.40  OA
ATOM     46 HG   SER C1706     -14.978 -25.291 -12.387  1.00 20.52 LIG 0.21  HD
ENDBRANCH 44 45
ENDBRANCH 26 44
ENDBRANCH 24 26
ENDBRANCH 1 22
BRANCH 1 47
ATOM     47  CB  ARG C1705     -15.080 -25.820  -7.445  1.00 21.30 LIG 0.04  C 
BRANCH 47 48
ATOM     48  CG  ARG C1705     -15.068 -24.331  -7.095  1.00 23.17 LIG 0.02  C 
BRANCH 48 49
ATOM     49  CD  ARG C1705     -16.334 -23.602  -7.551  1.00 21.38 LIG 0.14  C 
BRANCH 49 50
ATOM     50  NE  ARG C1705     -17.124 -23.093  -6.426  1.00 20.43 LIG-0.23  N 
ATOM     51  CZ  ARG C1705     -16.707 -22.183  -5.548  1.00 19.01 LIG 0.67  C 
ATOM     52  NH1 ARG C1705     -15.487 -21.648  -5.640  1.00 20.29 LIG-0.23  N 
ATOM     53  NH2 ARG C1705     -17.513 -21.806  -4.564  1.00 19.46 LIG-0.23  N 
ATOM     54 1HH1 ARG C1705     -14.958 -21.891  -6.274  1.00 20.29 LIG 0.17  HD
ATOM     55 2HH1 ARG C1705     -15.231 -21.062  -5.066  1.00 20.29 LIG 0.17  HD
ATOM     56 2HH2 ARG C1705     -17.250 -21.219  -3.994  1.00 19.46 LIG 0.17  HD
ATOM     57 1HH2 ARG C1705     -18.299 -22.149  -4.497  1.00 19.46 LIG 0.17  HD
ATOM     58 HE   ARG C1705     -17.918 -23.407  -6.325  1.00 20.43 LIG 0.18  HD
ENDBRANCH 49 50
ENDBRANCH 48 49
ENDBRANCH 47 48
ENDBRANCH 1 47
TORSDOF 24
ENDMDL
MODEL 3
USER: ADFR SOLUTION from run 83
USER: SCORE 17.911962 LL:  -3.674 LR: -15.979 RR:   0.000 FEB:  -8.820
USER: RMSD 4.339975
USER: SEED 82
USER: STATUS no improvement in best in 1 clusters for 5 generations
USER: GENES 26
USER: genes 0 Translation |==|  0.32988 0.62472 0.60239
USER: genes 1 Rotation |==|  0.34335 0.69052 0.61988 0.91808
USER: genes 2 Torsion [C]-CA--N-[C] |==|  0.17982
USER: genes 3 Torsion [N]-C--CA-[N] |==|  0.16695
USER: genes 4 Torsion [C]-CA--N-[C] |==|  0.14724
USER: genes 5 Torsion [N]-C--CA-[N] |==|  0.90391
USER: genes 6 Torsion [C]-CA--N-[C] |==|  0.85240
USER: genes 7 Torsion [N]-C--CA-[N] |==|  0.32419
USER: genes 8 Torsion [C]-CA--CB-[SG] |==|  0.59824
USER: genes 9 Torsion [CA]-CB--SG-[HG] |==|  0.97892
USER: genes 10 Torsion [N]-CA--C-[N] |==|  0.12778
USER: genes 11 Torsion [C]-N--CA-[C] |==|  0.20503
USER: genes 12 Torsion [N]-CA--C-[N] |==|  0.22090
USER: genes 13 Torsion [C]-N--CA-[CB] |==|  0.86658
USER: genes 14 Torsion [N]-CA--C-[N] |==|  0.36982
USER: genes 15 Torsion [C]-N--CA-[C] |==|  0.79035
USER: genes 16 Torsion [N]-CA--C-[O] |==|  0.57343
USER: genes 17 Torsion [N]-CA--CB-[CG] |==|  0.52206
USER: genes 18 Torsion [CA]-CB--CG-[CD] |==|  0.44806
USER: genes 19 Torsion [CB]-CG--CD-[OE2] |==|  0.94322
USER: genes 20 Torsion [N]-CA--CB-[OG] |==|  0.43841
USER: genes 21 Torsion [CA]-CB--OG-[HG] |==|  0.55254
USER: genes 22 Torsion [N]-CA--CB-[CG] |==|  0.79703
USER: genes 23 Torsion [CA]-CB--CG-[CD] |==|  0.88863
USER: genes 24 Torsion [CB]-CG--CD-[NE] |==|  0.78451
USER: genes 25 Torsion [CG]-CD--NE-[CZ] |==|  0.55446
ROOT
ATOM      1  CA  ARG C1705     -16.473 -24.996  -6.412  1.00 19.53 LIG 0.18  C 
ENDROOT
BRANCH 1 2
ATOM      2  N   ARG C1705     -15.281 -25.069  -7.261  1.00 19.64 LIG-0.35  N 
ATOM      3 H    ARG C1705     -14.554 -24.775  -6.908  1.00 19.64 LIG 0.16  HD
ATOM      4  C   ALA C1704     -15.393 -25.568  -8.488  1.00 22.93 LIG 0.24  C 
ATOM      5 O    ALA C1704     -16.483 -25.916  -8.959  1.00 21.24 LIG-0.27  OA
BRANCH 4 6
ATOM      6  CA  ALA C1704     -14.117 -25.684  -9.321  1.00 20.87 LIG 0.17  C 
ATOM      7  CB  ALA C1704     -14.421 -26.149 -10.731  1.00 18.21 LIG 0.04  C 
BRANCH 6 8
ATOM      8  N   ALA C1704     -13.114 -26.541  -8.704  1.00 22.42 LIG-0.35  N 
ATOM      9  C   CYS C1703     -13.419 -27.776  -8.321  1.00 22.90 LIG 0.24  C 
ATOM     10 O    CYS C1703     -14.513 -28.293  -8.531  1.00 23.45 LIG-0.27  OA
ATOM     11 H    ALA C1704     -12.338 -26.182  -8.616  1.00 22.42 LIG 0.16  HD
BRANCH 9 12
ATOM     12  CA  CYS C1703     -12.324 -28.547  -7.595  1.00 24.41 LIG 0.18  C 
BRANCH 12 13
ATOM     13  N   CYS C1703     -11.005 -28.199  -8.123  1.00 24.32 LIG-0.34  N 
ATOM     14  C   GLY C1702     -10.761 -28.281  -9.430  1.00 24.70 LIG 0.25  C 
ATOM     15 O    GLY C1702     -11.591 -28.714 -10.230  1.00 27.37 LIG-0.27  OA
ATOM     16 H    CYS C1703     -10.431 -27.948  -7.533  1.00 24.32 LIG 0.16  HD
BRANCH 14 17
ATOM     17  CA  GLY C1702      -9.398 -27.816  -9.912  1.00 25.50 LIG 0.47  C 
ATOM     18  N   GLY C1702      -8.623 -28.895 -10.505  1.00 32.41 LIG 0.61  N 
ENDBRANCH 14 17
ENDBRANCH 12 13
BRANCH 12 19
ATOM     19  CB  CYS C1703     -12.405 -28.310  -6.076  1.00 19.88 LIG 0.10  C 
BRANCH 19 20
ATOM     20 SG   CYS C1703     -10.821 -28.246  -5.212  1.00 23.51 LIG-0.18  SA
ATOM     21 HG   CYS C1703      -9.941 -28.552  -5.967  1.00 23.51 LIG 0.10  HD
ENDBRANCH 19 20
ENDBRANCH 12 19
ENDBRANCH 9 12
ENDBRANCH 6 8
ENDBRANCH 4 6
ENDBRANCH 1 2
BRANCH 1 22
ATOM     22  C   ARG C1705     -17.062 -26.367  -6.039  1.00 20.76 LIG 0.24  C 
ATOM     23 O    ARG C1705     -18.278 -26.571  -6.129  1.00 22.20 LIG-0.27  OA
ATOM     24  N   SER C1706     -16.211 -27.306  -5.630  1.00 20.62 LIG-0.34  N 
ATOM     25 H    SER C1706     -15.363 -27.192  -5.549  1.00 20.62 LIG 0.16  HD
BRANCH 24 26
ATOM     26  CA  SER C1706     -16.686 -28.641  -5.279  1.00 20.36 LIG 0.20  C 
BRANCH 26 27
ATOM     27  C   SER C1706     -17.061 -29.440  -6.523  1.00 23.85 LIG 0.24  C 
ATOM     28 O    SER C1706     -18.240 -29.565  -6.856  1.00 24.92 LIG-0.27  OA
ATOM     29  N   GLU C1707     -16.059 -29.989  -7.197  1.00 21.35 LIG-0.35  N 
ATOM     30 H    GLU C1707     -15.229 -29.886  -6.994  1.00 21.35 LIG 0.16  HD
BRANCH 29 31
ATOM     31  CA  GLU C1707     -16.298 -30.833  -8.367  1.00 28.80 LIG 0.18  C 
BRANCH 31 32
ATOM     32  C   GLU C1707     -16.727 -29.982  -9.553  1.00 29.29 LIG 0.24  C 
ATOM     33 O    GLU C1707     -17.596 -29.117  -9.425  1.00 32.31 LIG-0.27  OA
ATOM     34  N   GLY C1708     -16.114 -30.236 -10.706  1.00 26.36 LIG-0.35  N 
ATOM     35 H    GLY C1708     -15.527 -30.856 -10.809  1.00 26.36 LIG 0.16  HD
BRANCH 34 36
ATOM     36  CA  GLY C1708     -16.391 -29.472 -11.906  1.00 26.05 LIG 0.21  C 
BRANCH 36 37
ATOM     37  C   GLY C1708     -17.713 -29.835 -12.550  1.00 34.75 LIG 0.21  C 
ATOM     38 O    GLY C1708     -17.893 -29.677 -13.753  1.00 36.48 LIG-0.29  OA
ENDBRANCH 36 37
ENDBRANCH 34 36
ENDBRANCH 31 32
BRANCH 31 39
ATOM     39  CB  GLU C1707     -17.376 -31.884  -8.088  1.00 30.33 LIG 0.04  C 
BRANCH 39 40
ATOM     40  CG  GLU C1707     -17.545 -32.916  -9.190  1.00 34.25 LIG 0.12  C 
BRANCH 40 41
ATOM     41  CD  GLU C1707     -18.263 -34.171  -8.716  1.00 39.35 LIG 0.17  C 
ATOM     42 OE2  GLU C1707     -18.286 -34.414  -7.490  1.00 42.40 LIG-0.65  OA
ATOM     43 OE1  GLU C1707     -18.801 -34.912  -9.570  1.00 45.84 LIG-0.65  OA
ENDBRANCH 40 41
ENDBRANCH 39 40
ENDBRANCH 31 39
ENDBRANCH 29 31
ENDBRANCH 26 27
BRANCH 26 44
ATOM     44  CB  SER C1706     -17.869 -28.571  -4.307  1.00 19.38 LIG 0.20  C 
BRANCH 44 45
ATOM     45 OG   SER C1706     -18.650 -29.760  -4.347  1.00 20.52 LIG-0.40  OA
ATOM     46 HG   SER C1706     -19.408 -29.608  -4.020  1.00 20.52 LIG 0.21  HD
ENDBRANCH 44 45
ENDBRANCH 26 44
ENDBRANCH 24 26
ENDBRANCH 1 22
BRANCH 1 47
ATOM     47  CB  ARG C1705     -17.547 -24.088  -7.027  1.00 21.30 LIG 0.04  C 
BRANCH 47 48
ATOM     48  CG  ARG C1705     -17.189 -22.603  -6.937  1.00 23.17 LIG 0.02  C 
BRANCH 48 49
ATOM     49  CD  ARG C1705     -16.542 -22.226  -5.603  1.00 21.38 LIG 0.14  C 
BRANCH 49 50
ATOM     50  NE  ARG C1705     -17.521 -22.107  -4.519  1.00 20.43 LIG-0.23  N 
ATOM     51  CZ  ARG C1705     -17.323 -21.451  -3.377  1.00 19.01 LIG 0.67  C 
ATOM     52  NH1 ARG C1705     -16.167 -20.828  -3.135  1.00 20.29 LIG-0.23  N 
ATOM     53  NH2 ARG C1705     -18.286 -21.419  -2.466  1.00 19.46 LIG-0.23  N 
ATOM     54 1HH1 ARG C1705     -15.537 -20.848  -3.720  1.00 20.29 LIG 0.17  HD
ATOM     55 2HH1 ARG C1705     -16.052 -20.409  -2.393  1.00 20.29 LIG 0.17  HD
ATOM     56 2HH2 ARG C1705     -18.164 -20.997  -1.727  1.00 19.46 LIG 0.17  HD
ATOM     57 1HH2 ARG C1705     -19.032 -21.821  -2.614  1.00 19.46 LIG 0.17  HD
ATOM     58 HE   ARG C1705     -18.283 -22.490  -4.629  1.00 20.43 LIG 0.18  HD
ENDBRANCH 49 50
ENDBRANCH 48 49
ENDBRANCH 47 48
ENDBRANCH 1 47
TORSDOF 24
ENDMDL
MODEL 4
USER: ADFR SOLUTION from run 196
USER: SCORE 17.172391 LL:  -3.579 LR: -15.696 RR:   0.000 FEB:  -8.537
USER: RMSD 4.378137
USER: SEED 195
USER: STATUS no improvement in best in 4 clusters for 5 generations
USER: GENES 26
USER: genes 0 Translation |==|  0.43054 0.61236 0.54116
USER: genes 1 Rotation |==|  0.36194 0.73997 0.67074 0.87974
USER: genes 2 Torsion [C]-CA--N-[C] |==|  0.18671
USER: genes 3 Torsion [N]-C--CA-[N] |==|  0.13753
USER: genes 4 Torsion [C]-CA--N-[C] |==|  0.18300
USER: genes 5 Torsion [N]-C--CA-[N] |==|  0.37885
USER: genes 6 Torsion [C]-CA--N-[C] |==|  0.85822
USER: genes 7 Torsion [N]-C--CA-[N] |==|  0.15236
USER: genes 8 Torsion [C]-CA--CB-[SG] |==|  0.52218
USER: genes 9 Torsion [CA]-CB--SG-[HG] |==|  0.06377
USER: genes 10 Torsion [N]-CA--C-[N] |==|  0.67772
USER: genes 11 Torsion [C]-N--CA-[C] |==|  0.72512
USER: genes 12 Torsion [N]-CA--C-[N] |==|  0.32339
USER: genes 13 Torsion [C]-N--CA-[CB] |==|  0.84567
USER: genes 14 Torsion [N]-CA--C-[N] |==|  0.78644
USER: genes 15 Torsion [C]-N--CA-[C] |==|  0.26120
USER: genes 16 Torsion [N]-CA--C-[O] |==|  0.29299
USER: genes 17 Torsion [N]-CA--CB-[CG] |==|  0.54378
USER: genes 18 Torsion [CA]-CB--CG-[CD] |==|  0.39914
USER: genes 19 Torsion [CB]-CG--CD-[OE2] |==|  0.87825
USER: genes 20 Torsion [N]-CA--CB-[OG] |==|  0.96861
USER: genes 21 Torsion [CA]-CB--OG-[HG] |==|  0.10664
USER: genes 22 Torsion [N]-CA--CB-[CG] |==|  0.56797
USER: genes 23 Torsion [CA]-CB--CG-[CD] |==|  0.34195
USER: genes 24 Torsion [CB]-CG--CD-[NE] |==|  0.56690
USER: genes 25 Torsion [CG]-CD--NE-[CZ] |==|  0.29199
ROOT
ATOM      1  CA  ARG C1705     -14.661 -25.274  -7.514  1.00 19.53 LIG 0.18  C 
ENDROOT
BRANCH 1 2
ATOM      2  N   ARG C1705     -13.783 -25.179  -8.684  1.00 19.64 LIG-0.35  N 
ATOM      3 H    ARG C1705     -13.006 -24.839  -8.539  1.00 19.64 LIG 0.16  HD
ATOM      4  C   ALA C1704     -14.226 -25.611  -9.859  1.00 22.93 LIG 0.24  C 
ATOM      5 O    ALA C1704     -15.379 -26.034 -10.013  1.00 21.24 LIG-0.27  OA
BRANCH 4 6
ATOM      6  CA  ALA C1704     -13.260 -25.552 -11.042  1.00 20.87 LIG 0.17  C 
ATOM      7  CB  ALA C1704     -13.861 -26.198 -12.276  1.00 18.21 LIG 0.04  C 
BRANCH 6 8
ATOM      8  N   ALA C1704     -11.960 -26.134 -10.741  1.00 22.42 LIG-0.35  N 
ATOM      9  C   CYS C1703     -11.839 -27.434 -10.492  1.00 22.90 LIG 0.24  C 
ATOM     10 O    CYS C1703     -12.776 -28.224 -10.578  1.00 23.45 LIG-0.27  OA
ATOM     11 H    ALA C1704     -11.306 -25.576 -10.740  1.00 22.42 LIG 0.16  HD
BRANCH 9 12
ATOM     12  CA  CYS C1703     -10.452 -27.917 -10.088  1.00 24.41 LIG 0.18  C 
BRANCH 12 13
ATOM     13  N   CYS C1703     -10.533 -28.853  -8.966  1.00 24.32 LIG-0.34  N 
ATOM     14  C   GLY C1702     -11.221 -28.531  -7.871  1.00 24.70 LIG 0.25  C 
ATOM     15 O    GLY C1702     -11.747 -27.427  -7.723  1.00 27.37 LIG-0.27  OA
ATOM     16 H    CYS C1703     -10.114 -29.595  -9.080  1.00 24.32 LIG 0.16  HD
BRANCH 14 17
ATOM     17  CA  GLY C1702     -11.335 -29.589  -6.788  1.00 25.50 LIG 0.47  C 
ATOM     18  N   GLY C1702     -10.036 -30.085  -6.359  1.00 32.41 LIG 0.61  N 
ENDBRANCH 14 17
ENDBRANCH 12 13
BRANCH 12 19
ATOM     19  CB  CYS C1703      -9.719 -28.539 -11.290  1.00 19.88 LIG 0.10  C 
BRANCH 19 20
ATOM     20 SG   CYS C1703      -8.155 -29.356 -10.911  1.00 23.51 LIG-0.18  SA
ATOM     21 HG   CYS C1703      -8.140 -29.677  -9.755  1.00 23.51 LIG 0.10  HD
ENDBRANCH 19 20
ENDBRANCH 12 19
ENDBRANCH 9 12
ENDBRANCH 6 8
ENDBRANCH 4 6
ENDBRANCH 1 2
BRANCH 1 22
ATOM     22  C   ARG C1705     -14.957 -26.715  -7.067  1.00 20.76 LIG 0.24  C 
ATOM     23 O    ARG C1705     -14.046 -27.441  -6.651  1.00 22.20 LIG-0.27  OA
ATOM     24  N   SER C1706     -16.219 -27.132  -7.143  1.00 20.62 LIG-0.34  N 
ATOM     25 H    SER C1706     -16.872 -26.655  -7.436  1.00 20.62 LIG 0.16  HD
BRANCH 24 26
ATOM     26  CA  SER C1706     -16.587 -28.479  -6.717  1.00 20.36 LIG 0.20  C 
BRANCH 26 27
ATOM     27  C   SER C1706     -16.702 -29.424  -7.909  1.00 23.85 LIG 0.24  C 
ATOM     28 O    SER C1706     -17.562 -29.243  -8.771  1.00 24.92 LIG-0.27  OA
ATOM     29  N   GLU C1707     -15.845 -30.436  -7.945  1.00 21.35 LIG-0.35  N 
ATOM     30 H    GLU C1707     -15.220 -30.559  -7.367  1.00 21.35 LIG 0.16  HD
BRANCH 29 31
ATOM     31  CA  GLU C1707     -15.901 -31.446  -9.002  1.00 28.80 LIG 0.18  C 
BRANCH 31 32
ATOM     32  C   GLU C1707     -15.566 -30.821 -10.348  1.00 29.29 LIG 0.24  C 
ATOM     33 O    GLU C1707     -14.456 -30.986 -10.859  1.00 32.31 LIG-0.27  OA
ATOM     34  N   GLY C1708     -16.531 -30.100 -10.913  1.00 26.36 LIG-0.35  N 
ATOM     35 H    GLY C1708     -17.297 -29.958 -10.549  1.00 26.36 LIG 0.16  HD
BRANCH 34 36
ATOM     36  CA  GLY C1708     -16.366 -29.484 -12.215  1.00 26.05 LIG 0.21  C 
BRANCH 36 37
ATOM     37  C   GLY C1708     -16.888 -30.340 -13.349  1.00 34.75 LIG 0.21  C 
ATOM     38 O    GLY C1708     -17.941 -30.062 -13.914  1.00 36.48 LIG-0.29  OA
ENDBRANCH 36 37
ENDBRANCH 34 36
ENDBRANCH 31 32
BRANCH 31 39
ATOM     39  CB  GLU C1707     -17.285 -32.097  -9.081  1.00 30.33 LIG 0.04  C 
BRANCH 39 40
ATOM     40  CG  GLU C1707     -17.324 -33.391  -9.875  1.00 34.25 LIG 0.12  C 
BRANCH 40 41
ATOM     41  CD  GLU C1707     -18.285 -34.413  -9.287  1.00 39.35 LIG 0.17  C 
ATOM     42 OE2  GLU C1707     -18.286 -34.583  -8.049  1.00 42.40 LIG-0.65  OA
ATOM     43 OE1  GLU C1707     -19.036 -35.046 -10.064  1.00 45.84 LIG-0.65  OA
ENDBRANCH 40 41
ENDBRANCH 39 40
ENDBRANCH 31 39
ENDBRANCH 29 31
ENDBRANCH 26 27
BRANCH 26 44
ATOM     44  CB  SER C1706     -17.889 -28.469  -5.909  1.00 19.38 LIG 0.20  C 
BRANCH 44 45
ATOM     45 OG   SER C1706     -18.275 -27.147  -5.554  1.00 20.52 LIG-0.40  OA
ATOM     46 HG   SER C1706     -18.109 -26.626  -6.192  1.00 20.52 LIG 0.21  HD
ENDBRANCH 44 45
ENDBRANCH 26 44
ENDBRANCH 24 26
ENDBRANCH 1 22
BRANCH 1 47
ATOM     47  CB  ARG C1705     -15.963 -24.488  -7.723  1.00 21.30 LIG 0.04  C 
BRANCH 47 48
ATOM     48  CG  ARG C1705     -16.612 -24.057  -6.407  1.00 23.17 LIG 0.02  C 
BRANCH 48 49
ATOM     49  CD  ARG C1705     -16.822 -22.544  -6.314  1.00 21.38 LIG 0.14  C 
BRANCH 49 50
ATOM     50  NE  ARG C1705     -16.896 -22.072  -4.928  1.00 20.43 LIG-0.23  N 
ATOM     51  CZ  ARG C1705     -15.929 -21.415  -4.290  1.00 19.01 LIG 0.67  C 
ATOM     52  NH1 ARG C1705     -14.777 -21.128  -4.900  1.00 20.29 LIG-0.23  N 
ATOM     53  NH2 ARG C1705     -16.112 -21.045  -3.030  1.00 19.46 LIG-0.23  N 
ATOM     54 1HH1 ARG C1705     -14.651 -21.368  -5.716  1.00 20.29 LIG 0.17  HD
ATOM     55 2HH1 ARG C1705     -14.161 -20.704  -4.476  1.00 20.29 LIG 0.17  HD
ATOM     56 2HH2 ARG C1705     -15.491 -20.620  -2.613  1.00 19.46 LIG 0.17  HD
ATOM     57 1HH2 ARG C1705     -16.850 -21.230  -2.630  1.00 19.46 LIG 0.17  HD
ATOM     58 HE   ARG C1705     -17.620 -22.232  -4.493  1.00 20.43 LIG 0.18  HD
ENDBRANCH 49 50
ENDBRANCH 48 49
ENDBRANCH 47 48
ENDBRANCH 1 47
TORSDOF 24
ENDMDL
MODEL 5
USER: ADFR SOLUTION from run 139
USER: SCORE 16.850414 LL:  -2.991 LR: -15.646 RR:   0.000 FEB:  -8.486
USER: RMSD 7.268089
USER: SEED 138
USER: STATUS searching
USER: GENES 26
USER: genes 0 Translation |==|  0.44975 0.58995 0.42565
USER: genes 1 Rotation |==|  0.59346 0.04475 0.37792 0.63824
USER: genes 2 Torsion [C]-CA--N-[C] |==|  0.79064
USER: genes 3 Torsion [N]-C--CA-[N] |==|  0.57634
USER: genes 4 Torsion [C]-CA--N-[C] |==|  0.75746
USER: genes 5 Torsion [N]-C--CA-[N] |==|  0.42253
USER: genes 6 Torsion [C]-CA--N-[C] |==|  0.76561
USER: genes 7 Torsion [N]-C--CA-[N] |==|  0.67683
USER: genes 8 Torsion [C]-CA--CB-[SG] |==|  0.93535
USER: genes 9 Torsion [CA]-CB--SG-[HG] |==|  0.73916
USER: genes 10 Torsion [N]-CA--C-[N] |==|  0.95306
USER: genes 11 Torsion [C]-N--CA-[C] |==|  0.75848
USER: genes 12 Torsion [N]-CA--C-[N] |==|  0.50442
USER: genes 13 Torsion [C]-N--CA-[CB] |==|  0.20508
USER: genes 14 Torsion [N]-CA--C-[N] |==|  0.90000
USER: genes 15 Torsion [C]-N--CA-[C] |==|  0.69898
USER: genes 16 Torsion [N]-CA--C-[O] |==|  0.36067
USER: genes 17 Torsion [N]-CA--CB-[CG] |==|  0.49574
USER: genes 18 Torsion [CA]-CB--CG-[CD] |==|  0.67141
USER: genes 19 Torsion [CB]-CG--CD-[OE2] |==|  0.09046
USER: genes 20 Torsion [N]-CA--CB-[OG] |==|  0.32709
USER: genes 21 Torsion [CA]-CB--OG-[HG] |==|  0.27878
USER: genes 22 Torsion [N]-CA--CB-[CG] |==|  0.85658
USER: genes 23 Torsion [CA]-CB--CG-[CD] |==|  0.38309
USER: genes 24 Torsion [CB]-CG--CD-[NE] |==|  0.13934
USER: genes 25 Torsion [CG]-CD--NE-[CZ] |==|  0.43993
ROOT
ATOM      1  CA  ARG C1705     -14.315 -25.778  -9.593  1.00 19.53 LIG 0.18  C 
ENDROOT
BRANCH 1 2
ATOM      2  N   ARG C1705     -15.325 -26.820  -9.385  1.00 19.64 LIG-0.35  N 
ATOM      3 H    ARG C1705     -15.698 -26.827  -8.610  1.00 19.64 LIG 0.16  HD
ATOM      4  C   ALA C1704     -15.595 -27.664 -10.374  1.00 22.93 LIG 0.24  C 
ATOM      5 O    ALA C1704     -14.977 -27.639 -11.447  1.00 21.24 LIG-0.27  OA
BRANCH 4 6
ATOM      6  CA  ALA C1704     -16.696 -28.697 -10.140  1.00 20.87 LIG 0.17  C 
ATOM      7  CB  ALA C1704     -16.834 -29.030  -8.667  1.00 18.21 LIG 0.04  C 
BRANCH 6 8
ATOM      8  N   ALA C1704     -16.510 -29.910 -10.924  1.00 22.42 LIG-0.35  N 
ATOM      9  C   CYS C1703     -16.987 -30.000 -12.161  1.00 22.90 LIG 0.24  C 
ATOM     10 O    CYS C1703     -17.530 -29.062 -12.740  1.00 23.45 LIG-0.27  OA
ATOM     11 H    ALA C1704     -16.078 -30.536 -10.523  1.00 22.42 LIG 0.16  HD
BRANCH 9 12
ATOM     12  CA  CYS C1703     -16.826 -31.348 -12.850  1.00 24.41 LIG 0.18  C 
BRANCH 12 13
ATOM     13  N   CYS C1703     -17.884 -31.557 -13.839  1.00 24.32 LIG-0.34  N 
ATOM     14  C   GLY C1702     -19.067 -32.042 -13.463  1.00 24.70 LIG 0.25  C 
ATOM     15 O    GLY C1702     -19.298 -32.398 -12.307  1.00 27.37 LIG-0.27  OA
ATOM     16 H    CYS C1703     -17.676 -31.346 -14.645  1.00 24.32 LIG 0.16  HD
BRANCH 14 17
ATOM     17  CA  GLY C1702     -20.144 -32.145 -14.530  1.00 25.50 LIG 0.47  C 
ATOM     18  N   GLY C1702     -21.287 -31.290 -14.247  1.00 32.41 LIG 0.61  N 
ENDBRANCH 14 17
ENDBRANCH 12 13
BRANCH 12 19
ATOM     19  CB  CYS C1703     -15.429 -31.473 -13.484  1.00 19.88 LIG 0.10  C 
BRANCH 19 20
ATOM     20 SG   CYS C1703     -14.602 -29.913 -13.862  1.00 23.51 LIG-0.18  SA
ATOM     21 HG   CYS C1703     -14.824 -29.607 -15.000  1.00 23.51 LIG 0.10  HD
ENDBRANCH 19 20
ENDBRANCH 12 19
ENDBRANCH 9 12
ENDBRANCH 6 8
ENDBRANCH 4 6
ENDBRANCH 1 2
BRANCH 1 22
ATOM     22  C   ARG C1705     -12.867 -26.293  -9.557  1.00 20.76 LIG 0.24  C 
ATOM     23 O    ARG C1705     -11.946 -25.605 -10.011  1.00 22.20 LIG-0.27  OA
ATOM     24  N   SER C1706     -12.657 -27.491  -9.015  1.00 20.62 LIG-0.34  N 
ATOM     25 H    SER C1706     -13.278 -27.996  -8.698  1.00 20.62 LIG 0.16  HD
BRANCH 24 26
ATOM     26  CA  SER C1706     -11.310 -28.042  -8.921  1.00 20.36 LIG 0.20  C 
BRANCH 26 27
ATOM     27  C   SER C1706     -10.928 -28.793 -10.192  1.00 23.85 LIG 0.24  C 
ATOM     28 O    SER C1706     -11.712 -28.861 -11.139  1.00 24.92 LIG-0.27  OA
ATOM     29  N   GLU C1707      -9.731 -29.365 -10.204  1.00 21.35 LIG-0.35  N 
ATOM     30 H    GLU C1707      -9.161 -29.302  -9.563  1.00 21.35 LIG 0.16  HD
BRANCH 29 31
ATOM     31  CA  GLU C1707      -9.280 -30.168 -11.340  1.00 28.80 LIG 0.18  C 
BRANCH 31 32
ATOM     32  C   GLU C1707      -8.066 -30.998 -10.952  1.00 29.29 LIG 0.24  C 
ATOM     33 O    GLU C1707      -7.911 -32.136 -11.401  1.00 32.31 LIG-0.27  OA
ATOM     34  N   GLY C1708      -7.210 -30.421 -10.113  1.00 26.36 LIG-0.35  N 
ATOM     35 H    GLY C1708      -7.325 -29.640  -9.774  1.00 26.36 LIG 0.16  HD
BRANCH 34 36
ATOM     36  CA  GLY C1708      -5.987 -31.079  -9.693  1.00 26.05 LIG 0.21  C 
BRANCH 36 37
ATOM     37  C   GLY C1708      -6.024 -31.538  -8.251  1.00 34.75 LIG 0.21  C 
ATOM     38 O    GLY C1708      -5.717 -32.685  -7.947  1.00 36.48 LIG-0.29  OA
ENDBRANCH 36 37
ENDBRANCH 34 36
ENDBRANCH 31 32
BRANCH 31 39
ATOM     39  CB  GLU C1707      -8.923 -29.287 -12.542  1.00 30.33 LIG 0.04  C 
BRANCH 39 40
ATOM     40  CG  GLU C1707      -8.411 -30.053 -13.749  1.00 34.25 LIG 0.12  C 
BRANCH 40 41
ATOM     41  CD  GLU C1707      -6.988 -29.671 -14.128  1.00 39.35 LIG 0.17  C 
ATOM     42 OE2  GLU C1707      -6.200 -29.341 -13.216  1.00 42.40 LIG-0.65  OA
ATOM     43 OE1  GLU C1707      -6.662 -29.699 -15.336  1.00 45.84 LIG-0.65  OA
ENDBRANCH 40 41
ENDBRANCH 39 40
ENDBRANCH 31 39
ENDBRANCH 29 31
ENDBRANCH 26 27
BRANCH 26 44
ATOM     44  CB  SER C1706     -11.165 -28.950  -7.695  1.00 19.38 LIG 0.20  C 
BRANCH 44 45
ATOM     45 OG   SER C1706     -10.859 -30.289  -8.068  1.00 20.52 LIG-0.40  OA
ATOM     46 HG   SER C1706     -10.037 -30.425  -7.972  1.00 20.52 LIG 0.21  HD
ENDBRANCH 44 45
ENDBRANCH 26 44
ENDBRANCH 24 26
ENDBRANCH 1 22
BRANCH 1 47
ATOM     47  CB  ARG C1705     -14.505 -24.608  -8.619  1.00 21.30 LIG 0.04  C 
BRANCH 47 48
ATOM     48  CG  ARG C1705     -15.935 -24.064  -8.619  1.00 23.17 LIG 0.02  C 
BRANCH 48 49
ATOM     49  CD  ARG C1705     -16.454 -23.751  -7.214  1.00 21.38 LIG 0.14  C 
BRANCH 49 50
ATOM     50  NE  ARG C1705     -15.519 -22.928  -6.442  1.00 20.43 LIG-0.23  N 
ATOM     51  CZ  ARG C1705     -15.848 -22.177  -5.392  1.00 19.01 LIG 0.67  C 
ATOM     52  NH1 ARG C1705     -17.108 -22.125  -4.953  1.00 20.29 LIG-0.23  N 
ATOM     53  NH2 ARG C1705     -14.912 -21.467  -4.777  1.00 19.46 LIG-0.23  N 
ATOM     54 1HH1 ARG C1705     -17.721 -22.580  -5.349  1.00 20.29 LIG 0.17  HD
ATOM     55 2HH1 ARG C1705     -17.307 -21.636  -4.274  1.00 20.29 LIG 0.17  HD
ATOM     56 2HH2 ARG C1705     -15.118 -20.981  -4.098  1.00 19.46 LIG 0.17  HD
ATOM     57 1HH2 ARG C1705     -14.099 -21.494  -5.056  1.00 19.46 LIG 0.17  HD
ATOM     58 HE   ARG C1705     -14.695 -22.929  -6.685  1.00 20.43 LIG 0.18  HD
ENDBRANCH 49 50
ENDBRANCH 48 49
ENDBRANCH 47 48
ENDBRANCH 1 47
TORSDOF 24
ENDMDL
MODEL 6
USER: ADFR SOLUTION from run 71
USER: SCORE 16.402224 LL:  -3.328 LR: -15.265 RR:   0.000 FEB:  -8.105
USER: RMSD 6.213445
USER: SEED 70
USER: STATUS 1 or 2 clusters left
USER: GENES 26
USER: genes 0 Translation |==|  0.37653 0.59250 0.47586
USER: genes 1 Rotation |==|  0.67156 0.10322 0.28679 0.63293
USER: genes 2 Torsion [C]-CA--N-[C] |==|  0.82473
USER: genes 3 Torsion [N]-C--CA-[N] |==|  0.49023
USER: genes 4 Torsion [C]-CA--N-[C] |==|  0.50859
USER: genes 5 Torsion [N]-C--CA-[N] |==|  0.13061
USER: genes 6 Torsion [C]-CA--N-[C] |==|  0.14609
USER: genes 7 Torsion [N]-C--CA-[N] |==|  0.13139
USER: genes 8 Torsion [C]-CA--CB-[SG] |==|  0.20228
USER: genes 9 Torsion [CA]-CB--SG-[HG] |==|  0.20290
USER: genes 10 Torsion [N]-CA--C-[N] |==|  0.94061
USER: genes 11 Torsion [C]-N--CA-[C] |==|  0.65107
USER: genes 12 Torsion [N]-CA--C-[N] |==|  0.53034
USER: genes 13 Torsion [C]-N--CA-[CB] |==|  0.38367
USER: genes 14 Torsion [N]-CA--C-[N] |==|  0.89445
USER: genes 15 Torsion [C]-N--CA-[C] |==|  0.71764
USER: genes 16 Torsion [N]-CA--C-[O] |==|  0.98652
USER: genes 17 Torsion [N]-CA--CB-[CG] |==|  0.52327
USER: genes 18 Torsion [CA]-CB--CG-[CD] |==|  0.47630
USER: genes 19 Torsion [CB]-CG--CD-[OE2] |==|  0.11736
USER: genes 20 Torsion [N]-CA--CB-[OG] |==|  0.94362
USER: genes 21 Torsion [CA]-CB--OG-[HG] |==|  0.79022
USER: genes 22 Torsion [N]-CA--CB-[CG] |==|  0.54402
USER: genes 23 Torsion [CA]-CB--CG-[CD] |==|  0.31328
USER: genes 24 Torsion [CB]-CG--CD-[NE] |==|  0.29257
USER: genes 25 Torsion [CG]-CD--NE-[CZ] |==|  0.16039
ROOT
ATOM      1  CA  ARG C1705     -15.633 -25.721  -8.689  1.00 19.53 LIG 0.18  C 
ENDROOT
BRANCH 1 2
ATOM      2  N   ARG C1705     -16.385 -26.938  -9.008  1.00 19.64 LIG-0.35  N 
ATOM      3 H    ARG C1705     -16.815 -27.292  -8.353  1.00 19.64 LIG 0.16  HD
ATOM      4  C   ALA C1704     -16.356 -27.406 -10.251  1.00 22.93 LIG 0.24  C 
ATOM      5 O    ALA C1704     -15.666 -26.883 -11.136  1.00 21.24 LIG-0.27  OA
BRANCH 4 6
ATOM      6  CA  ALA C1704     -17.201 -28.642 -10.559  1.00 20.87 LIG 0.17  C 
ATOM      7  CB  ALA C1704     -16.805 -29.813  -9.680  1.00 18.21 LIG 0.04  C 
BRANCH 6 8
ATOM      8  N   ALA C1704     -17.160 -29.020 -11.964  1.00 22.42 LIG-0.35  N 
ATOM      9  C   CYS C1703     -17.887 -30.036 -12.417  1.00 22.90 LIG 0.24  C 
ATOM     10 O    CYS C1703     -18.684 -30.656 -11.716  1.00 23.45 LIG-0.27  OA
ATOM     11 H    ALA C1704     -16.640 -28.539 -12.452  1.00 22.42 LIG 0.16  HD
BRANCH 9 12
ATOM     12  CA  CYS C1703     -17.690 -30.409 -13.880  1.00 24.41 LIG 0.18  C 
BRANCH 12 13
ATOM     13  N   CYS C1703     -16.266 -30.490 -14.209  1.00 24.32 LIG-0.34  N 
ATOM     14  C   GLY C1702     -15.449 -31.244 -13.475  1.00 24.70 LIG 0.25  C 
ATOM     15 O    GLY C1702     -15.828 -31.838 -12.465  1.00 27.37 LIG-0.27  OA
ATOM     16 H    CYS C1703     -16.023 -30.025 -14.890  1.00 24.32 LIG 0.16  HD
BRANCH 14 17
ATOM     17  CA  GLY C1702     -14.005 -31.349 -13.934  1.00 25.50 LIG 0.47  C 
ATOM     18  N   GLY C1702     -13.431 -30.052 -14.255  1.00 32.41 LIG 0.61  N 
ENDBRANCH 14 17
ENDBRANCH 12 13
BRANCH 12 19
ATOM     19  CB  CYS C1703     -18.421 -31.722 -14.212  1.00 19.88 LIG 0.10  C 
BRANCH 19 20
ATOM     20 SG   CYS C1703     -20.221 -31.610 -14.303  1.00 23.51 LIG-0.18  SA
ATOM     21 HG   CYS C1703     -20.536 -31.034 -15.307  1.00 23.51 LIG 0.10  HD
ENDBRANCH 19 20
ENDBRANCH 12 19
ENDBRANCH 9 12
ENDBRANCH 6 8
ENDBRANCH 4 6
ENDBRANCH 1 2
BRANCH 1 22
ATOM     22  C   ARG C1705     -14.113 -25.857  -8.872  1.00 20.76 LIG 0.24  C 
ATOM     23 O    ARG C1705     -13.407 -24.853  -9.020  1.00 22.20 LIG-0.27  OA
ATOM     24  N   SER C1706     -13.603 -27.087  -8.856  1.00 20.62 LIG-0.34  N 
ATOM     25 H    SER C1706     -14.068 -27.805  -8.764  1.00 20.62 LIG 0.16  HD
BRANCH 24 26
ATOM     26  CA  SER C1706     -12.167 -27.302  -9.000  1.00 20.36 LIG 0.20  C 
BRANCH 26 27
ATOM     27  C   SER C1706     -11.862 -28.267 -10.140  1.00 23.85 LIG 0.24  C 
ATOM     28 O    SER C1706     -12.747 -28.611 -10.924  1.00 24.92 LIG-0.27  OA
ATOM     29  N   GLU C1707     -10.614 -28.710 -10.222  1.00 21.35 LIG-0.35  N 
ATOM     30 H    GLU C1707      -9.978 -28.457  -9.701  1.00 21.35 LIG 0.16  HD
BRANCH 29 31
ATOM     31  CA  GLU C1707     -10.217 -29.690 -11.233  1.00 28.80 LIG 0.18  C 
BRANCH 31 32
ATOM     32  C   GLU C1707     -10.142 -31.080 -10.619  1.00 29.29 LIG 0.24  C 
ATOM     33 O    GLU C1707     -10.514 -32.069 -11.254  1.00 32.31 LIG-0.27  OA
ATOM     34  N   GLY C1708      -9.661 -31.146  -9.381  1.00 26.36 LIG-0.35  N 
ATOM     35 H    GLY C1708      -9.425 -30.458  -8.922  1.00 26.36 LIG 0.16  HD
BRANCH 34 36
ATOM     36  CA  GLY C1708      -9.491 -32.409  -8.690  1.00 26.05 LIG 0.21  C 
BRANCH 36 37
ATOM     37  C   GLY C1708     -10.588 -32.689  -7.684  1.00 34.75 LIG 0.21  C 
ATOM     38 O    GLY C1708     -11.455 -31.854  -7.448  1.00 36.48 LIG-0.29  OA
ENDBRANCH 36 37
ENDBRANCH 34 36
ENDBRANCH 31 32
BRANCH 31 39
ATOM     39  CB  GLU C1707      -8.860 -29.340 -11.849  1.00 30.33 LIG 0.04  C 
BRANCH 39 40
ATOM     40  CG  GLU C1707      -8.474 -30.196 -13.043  1.00 34.25 LIG 0.12  C 
BRANCH 40 41
ATOM     41  CD  GLU C1707      -7.228 -29.689 -13.753  1.00 39.35 LIG 0.17  C 
ATOM     42 OE2  GLU C1707      -6.265 -29.302 -13.057  1.00 42.40 LIG-0.65  OA
ATOM     43 OE1  GLU C1707      -7.214 -29.677 -15.005  1.00 45.84 LIG-0.65  OA
ENDBRANCH 40 41
ENDBRANCH 39 40
ENDBRANCH 31 39
ENDBRANCH 29 31
ENDBRANCH 26 27
BRANCH 26 44
ATOM     44  CB  SER C1706     -11.546 -27.802  -7.690  1.00 19.38 LIG 0.20  C 
BRANCH 44 45
ATOM     45 OG   SER C1706     -12.372 -27.501  -6.571  1.00 20.52 LIG-0.40  OA
ATOM     46 HG   SER C1706     -12.305 -26.685  -6.386  1.00 20.52 LIG 0.21  HD
ENDBRANCH 44 45
ENDBRANCH 26 44
ENDBRANCH 24 26
ENDBRANCH 1 22
BRANCH 1 47
ATOM     47  CB  ARG C1705     -15.972 -25.203  -7.285  1.00 21.30 LIG 0.04  C 
BRANCH 47 48
ATOM     48  CG  ARG C1705     -15.521 -23.758  -7.063  1.00 23.17 LIG 0.02  C 
BRANCH 48 49
ATOM     49  CD  ARG C1705     -16.692 -22.786  -6.902  1.00 21.38 LIG 0.14  C 
BRANCH 49 50
ATOM     50  NE  ARG C1705     -16.881 -22.361  -5.512  1.00 20.43 LIG-0.23  N 
ATOM     51  CZ  ARG C1705     -15.959 -21.758  -4.764  1.00 19.01 LIG 0.67  C 
ATOM     52  NH1 ARG C1705     -14.747 -21.487  -5.254  1.00 20.29 LIG-0.23  N 
ATOM     53  NH2 ARG C1705     -16.247 -21.426  -3.513  1.00 19.46 LIG-0.23  N 
ATOM     54 1HH1 ARG C1705     -14.553 -21.703  -6.064  1.00 20.29 LIG 0.17  HD
ATOM     55 2HH1 ARG C1705     -14.161 -21.098  -4.760  1.00 20.29 LIG 0.17  HD
ATOM     56 2HH2 ARG C1705     -15.656 -21.036  -3.025  1.00 19.46 LIG 0.17  HD
ATOM     57 1HH2 ARG C1705     -17.025 -21.600  -3.190  1.00 19.46 LIG 0.17  HD
ATOM     58 HE   ARG C1705     -17.647 -22.512  -5.152  1.00 20.43 LIG 0.18  HD
ENDBRANCH 49 50
ENDBRANCH 48 49
ENDBRANCH 47 48
ENDBRANCH 1 47
TORSDOF 24
ENDMDL
MODEL 7
USER: ADFR SOLUTION from run 157
USER: SCORE 16.451773 LL:  -3.178 LR: -14.961 RR:   0.000 FEB:  -7.802
USER: RMSD 6.826310
USER: SEED 156
USER: STATUS no improvement in best in 4 clusters for 5 generations
USER: GENES 26
USER: genes 0 Translation |==|  0.45947 0.58183 0.41440
USER: genes 1 Rotation |==|  0.59993 0.05184 0.33257 0.60550
USER: genes 2 Torsion [C]-CA--N-[C] |==|  0.74798
USER: genes 3 Torsion [N]-C--CA-[N] |==|  0.67094
USER: genes 4 Torsion [C]-CA--N-[C] |==|  0.67222
USER: genes 5 Torsion [N]-C--CA-[N] |==|  0.94147
USER: genes 6 Torsion [C]-CA--N-[C] |==|  0.83242
USER: genes 7 Torsion [N]-C--CA-[N] |==|  0.81780
USER: genes 8 Torsion [C]-CA--CB-[SG] |==|  0.85141
USER: genes 9 Torsion [CA]-CB--SG-[HG] |==|  0.34159
USER: genes 10 Torsion [N]-CA--C-[N] |==|  0.90072
USER: genes 11 Torsion [C]-N--CA-[C] |==|  0.77606
USER: genes 12 Torsion [N]-CA--C-[N] |==|  0.51906
USER: genes 13 Torsion [C]-N--CA-[CB] |==|  0.17955
USER: genes 14 Torsion [N]-CA--C-[N] |==|  0.00279
USER: genes 15 Torsion [C]-N--CA-[C] |==|  0.49509
USER: genes 16 Torsion [N]-CA--C-[O] |==|  0.61143
USER: genes 17 Torsion [N]-CA--CB-[CG] |==|  0.28827
USER: genes 18 Torsion [CA]-CB--CG-[CD] |==|  0.34290
USER: genes 19 Torsion [CB]-CG--CD-[OE2] |==|  0.33487
USER: genes 20 Torsion [N]-CA--CB-[OG] |==|  0.79941
USER: genes 21 Torsion [CA]-CB--OG-[HG] |==|  0.81453
USER: genes 22 Torsion [N]-CA--CB-[CG] |==|  0.94622
USER: genes 23 Torsion [CA]-CB--CG-[CD] |==|  0.61032
USER: genes 24 Torsion [CB]-CG--CD-[NE] |==|  0.84792
USER: genes 25 Torsion [CG]-CD--NE-[CZ] |==|  0.64717
ROOT
ATOM      1  CA  ARG C1705     -14.141 -25.961  -9.796  1.00 19.53 LIG 0.18  C 
ENDROOT
BRANCH 1 2
ATOM      2  N   ARG C1705     -15.210 -26.959  -9.884  1.00 19.64 LIG-0.35  N 
ATOM      3 H    ARG C1705     -15.511 -27.250  -9.132  1.00 19.64 LIG 0.16  HD
ATOM      4  C   ALA C1704     -15.636 -27.343 -11.082  1.00 22.93 LIG 0.24  C 
ATOM      5 O    ALA C1704     -15.118 -26.931 -12.128  1.00 21.24 LIG-0.27  OA
BRANCH 4 6
ATOM      6  CA  ALA C1704     -16.794 -28.340 -11.133  1.00 20.87 LIG 0.17  C 
ATOM      7  CB  ALA C1704     -17.362 -28.595  -9.750  1.00 18.21 LIG 0.04  C 
BRANCH 6 8
ATOM      8  N   ALA C1704     -16.433 -29.594 -11.778  1.00 22.42 LIG-0.35  N 
ATOM      9  C   CYS C1703     -17.045 -29.989 -12.889  1.00 22.90 LIG 0.24  C 
ATOM     10 O    CYS C1703     -17.877 -29.301 -13.477  1.00 23.45 LIG-0.27  OA
ATOM     11 H    ALA C1704     -15.809 -30.036 -11.384  1.00 22.42 LIG 0.16  HD
BRANCH 9 12
ATOM     12  CA  CYS C1703     -16.661 -31.363 -13.420  1.00 24.41 LIG 0.18  C 
BRANCH 12 13
ATOM     13  N   CYS C1703     -15.357 -31.776 -12.901  1.00 24.32 LIG-0.34  N 
ATOM     14  C   GLY C1702     -14.271 -31.048 -13.157  1.00 24.70 LIG 0.25  C 
ATOM     15 O    GLY C1702     -14.298 -30.057 -13.887  1.00 27.37 LIG-0.27  OA
ATOM     16 H    CYS C1703     -15.363 -32.500 -12.437  1.00 24.32 LIG 0.16  HD
BRANCH 14 17
ATOM     17  CA  GLY C1702     -12.972 -31.491 -12.509  1.00 25.50 LIG 0.47  C 
ATOM     18  N   GLY C1702     -13.007 -31.370 -11.059  1.00 32.41 LIG 0.61  N 
ENDBRANCH 14 17
ENDBRANCH 12 13
BRANCH 12 19
ATOM     19  CB  CYS C1703     -17.752 -32.399 -13.095  1.00 19.88 LIG 0.10  C 
BRANCH 19 20
ATOM     20 SG   CYS C1703     -18.231 -32.507 -11.357  1.00 23.51 LIG-0.18  SA
ATOM     21 HG   CYS C1703     -19.410 -32.314 -11.254  1.00 23.51 LIG 0.10  HD
ENDBRANCH 19 20
ENDBRANCH 12 19
ENDBRANCH 9 12
ENDBRANCH 6 8
ENDBRANCH 4 6
ENDBRANCH 1 2
BRANCH 1 22
ATOM     22  C   ARG C1705     -12.725 -26.561  -9.753  1.00 20.76 LIG 0.24  C 
ATOM     23 O    ARG C1705     -11.783 -25.982 -10.305  1.00 22.20 LIG-0.27  OA
ATOM     24  N   SER C1706     -12.568 -27.709  -9.097  1.00 20.62 LIG-0.34  N 
ATOM     25 H    SER C1706     -13.204 -28.139  -8.711  1.00 20.62 LIG 0.16  HD
BRANCH 24 26
ATOM     26  CA  SER C1706     -11.253 -28.332  -8.990  1.00 20.36 LIG 0.20  C 
BRANCH 26 27
ATOM     27  C   SER C1706     -10.901 -29.105 -10.257  1.00 23.85 LIG 0.24  C 
ATOM     28 O    SER C1706     -11.632 -29.053 -11.246  1.00 24.92 LIG-0.27  OA
ATOM     29  N   GLU C1707      -9.790 -29.829 -10.218  1.00 21.35 LIG-0.35  N 
ATOM     30 H    GLU C1707      -9.253 -29.852  -9.546  1.00 21.35 LIG 0.16  HD
BRANCH 29 31
ATOM     31  CA  GLU C1707      -9.384 -30.665 -11.348  1.00 28.80 LIG 0.18  C 
BRANCH 31 32
ATOM     32  C   GLU C1707      -8.162 -31.493 -10.980  1.00 29.29 LIG 0.24  C 
ATOM     33 O    GLU C1707      -7.649 -32.256 -11.801  1.00 32.31 LIG-0.27  OA
ATOM     34  N   GLY C1708      -7.704 -31.338  -9.741  1.00 26.36 LIG-0.35  N 
ATOM     35 H    GLY C1708      -8.074 -30.829  -9.155  1.00 26.36 LIG 0.16  HD
BRANCH 34 36
ATOM     36  CA  GLY C1708      -6.521 -32.031  -9.269  1.00 26.05 LIG 0.21  C 
BRANCH 36 37
ATOM     37  C   GLY C1708      -6.154 -31.678  -7.843  1.00 34.75 LIG 0.21  C 
ATOM     38 O    GLY C1708      -4.983 -31.520  -7.514  1.00 36.48 LIG-0.29  OA
ENDBRANCH 36 37
ENDBRANCH 34 36
ENDBRANCH 31 32
BRANCH 31 39
ATOM     39  CB  GLU C1707      -9.064 -29.819 -12.584  1.00 30.33 LIG 0.04  C 
BRANCH 39 40
ATOM     40  CG  GLU C1707      -7.579 -29.657 -12.864  1.00 34.25 LIG 0.12  C 
BRANCH 40 41
ATOM     41  CD  GLU C1707      -7.189 -30.125 -14.257  1.00 39.35 LIG 0.17  C 
ATOM     42 OE2  GLU C1707      -6.663 -29.300 -15.035  1.00 42.40 LIG-0.65  OA
ATOM     43 OE1  GLU C1707      -7.411 -31.316 -14.573  1.00 45.84 LIG-0.65  OA
ENDBRANCH 40 41
ENDBRANCH 39 40
ENDBRANCH 31 39
ENDBRANCH 29 31
ENDBRANCH 26 27
BRANCH 26 44
ATOM     44  CB  SER C1706     -11.169 -29.245  -7.762  1.00 19.38 LIG 0.20  C 
BRANCH 44 45
ATOM     45 OG   SER C1706     -11.119 -28.494  -6.554  1.00 20.52 LIG-0.40  OA
ATOM     46 HG   SER C1706     -10.397 -28.067  -6.520  1.00 20.52 LIG 0.21  HD
ENDBRANCH 44 45
ENDBRANCH 26 44
ENDBRANCH 24 26
ENDBRANCH 1 22
BRANCH 1 47
ATOM     47  CB  ARG C1705     -14.364 -25.000  -8.620  1.00 21.30 LIG 0.04  C 
BRANCH 47 48
ATOM     48  CG  ARG C1705     -15.814 -24.990  -8.131  1.00 23.17 LIG 0.02  C 
BRANCH 48 49
ATOM     49  CD  ARG C1705     -16.309 -23.590  -7.764  1.00 21.38 LIG 0.14  C 
BRANCH 49 50
ATOM     50  NE  ARG C1705     -15.445 -22.928  -6.783  1.00 20.43 LIG-0.23  N 
ATOM     51  CZ  ARG C1705     -15.859 -22.393  -5.636  1.00 19.01 LIG 0.67  C 
ATOM     52  NH1 ARG C1705     -17.147 -22.428  -5.288  1.00 20.29 LIG-0.23  N 
ATOM     53  NH2 ARG C1705     -14.979 -21.813  -4.830  1.00 19.46 LIG-0.23  N 
ATOM     54 1HH1 ARG C1705     -17.723 -22.800  -5.807  1.00 20.29 LIG 0.17  HD
ATOM     55 2HH1 ARG C1705     -17.401 -22.078  -4.544  1.00 20.29 LIG 0.17  HD
ATOM     56 2HH2 ARG C1705     -15.240 -21.466  -4.088  1.00 19.46 LIG 0.17  HD
ATOM     57 1HH2 ARG C1705     -14.148 -21.784  -5.050  1.00 19.46 LIG 0.17  HD
ATOM     58 HE   ARG C1705     -14.605 -22.882  -6.962  1.00 20.43 LIG 0.18  HD
ENDBRANCH 49 50
ENDBRANCH 48 49
ENDBRANCH 47 48
ENDBRANCH 1 47
TORSDOF 24
ENDMDL
MODEL 8
USER: ADFR SOLUTION from run 85
USER: SCORE 17.128697 LL:  -3.836 LR: -14.946 RR:   0.000 FEB:  -7.787
USER: RMSD 5.955394
USER: SEED 84
USER: STATUS searching
USER: GENES 26
USER: genes 0 Translation |==|  0.42798 0.50286 0.40594
USER: genes 1 Rotation |==|  0.02877 0.60615 0.40269 0.58491
USER: genes 2 Torsion [C]-CA--N-[C] |==|  0.76111
USER: genes 3 Torsion [N]-C--CA-[N] |==|  0.94136
USER: genes 4 Torsion [C]-CA--N-[C] |==|  0.85347
USER: genes 5 Torsion [N]-C--CA-[N] |==|  0.01035
USER: genes 6 Torsion [C]-CA--N-[C] |==|  0.66431
USER: genes 7 Torsion [N]-C--CA-[N] |==|  0.80443
USER: genes 8 Torsion [C]-CA--CB-[SG] |==|  0.89523
USER: genes 9 Torsion [CA]-CB--SG-[HG] |==|  0.93516
USER: genes 10 Torsion [N]-CA--C-[N] |==|  0.06092
USER: genes 11 Torsion [C]-N--CA-[C] |==|  0.16383
USER: genes 12 Torsion [N]-CA--C-[N] |==|  0.10810
USER: genes 13 Torsion [C]-N--CA-[CB] |==|  0.22053
USER: genes 14 Torsion [N]-CA--C-[N] |==|  0.42657
USER: genes 15 Torsion [C]-N--CA-[C] |==|  0.54307
USER: genes 16 Torsion [N]-CA--C-[O] |==|  0.12633
USER: genes 17 Torsion [N]-CA--CB-[CG] |==|  0.26312
USER: genes 18 Torsion [CA]-CB--CG-[CD] |==|  0.40522
USER: genes 19 Torsion [CB]-CG--CD-[OE2] |==|  0.41973
USER: genes 20 Torsion [N]-CA--CB-[OG] |==|  0.83761
USER: genes 21 Torsion [CA]-CB--OG-[HG] |==|  0.51483
USER: genes 22 Torsion [N]-CA--CB-[CG] |==|  0.57763
USER: genes 23 Torsion [CA]-CB--CG-[CD] |==|  0.57207
USER: genes 24 Torsion [CB]-CG--CD-[NE] |==|  0.54671
USER: genes 25 Torsion [CG]-CD--NE-[CZ] |==|  0.54203
ROOT
ATOM      1  CA  ARG C1705     -14.707 -27.738  -9.948  1.00 19.53 LIG 0.18  C 
ENDROOT
BRANCH 1 2
ATOM      2  N   ARG C1705     -13.352 -27.907  -9.415  1.00 19.64 LIG-0.35  N 
ATOM      3 H    ARG C1705     -13.203 -28.649  -9.007  1.00 19.64 LIG 0.16  HD
ATOM      4  C   ALA C1704     -12.465 -26.933  -9.589  1.00 22.93 LIG 0.24  C 
ATOM      5 O    ALA C1704     -12.762 -25.862 -10.133  1.00 21.24 LIG-0.27  OA
BRANCH 4 6
ATOM      6  CA  ALA C1704     -11.046 -27.172  -9.074  1.00 20.87 LIG 0.17  C 
ATOM      7  CB  ALA C1704     -10.093 -27.485 -10.211  1.00 18.21 LIG 0.04  C 
BRANCH 6 8
ATOM      8  N   ALA C1704     -10.982 -28.206  -8.052  1.00 22.42 LIG-0.35  N 
ATOM      9  C   CYS C1703     -11.764 -28.151  -6.979  1.00 22.90 LIG 0.24  C 
ATOM     10 O    CYS C1703     -12.628 -27.292  -6.821  1.00 23.45 LIG-0.27  OA
ATOM     11 H    ALA C1704     -10.411 -28.831  -8.206  1.00 22.42 LIG 0.16  HD
BRANCH 9 12
ATOM     12  CA  CYS C1703     -11.541 -29.229  -5.925  1.00 24.41 LIG 0.18  C 
BRANCH 12 13
ATOM     13  N   CYS C1703     -10.412 -30.085  -6.287  1.00 24.32 LIG-0.34  N 
ATOM     14  C   GLY C1702     -10.587 -31.396  -6.448  1.00 24.70 LIG 0.25  C 
ATOM     15 O    GLY C1702     -11.667 -31.948  -6.233  1.00 27.37 LIG-0.27  OA
ATOM     16 H    CYS C1703      -9.661 -29.677  -6.381  1.00 24.32 LIG 0.16  HD
BRANCH 14 17
ATOM     17  CA  GLY C1702      -9.388 -32.204  -6.912  1.00 25.50 LIG 0.47  C 
ATOM     18  N   GLY C1702      -9.038 -31.929  -8.297  1.00 32.41 LIG 0.61  N 
ENDBRANCH 14 17
ENDBRANCH 12 13
BRANCH 12 19
ATOM     19  CB  CYS C1703     -11.350 -28.600  -4.533  1.00 19.88 LIG 0.10  C 
BRANCH 19 20
ATOM     20 SG   CYS C1703     -10.411 -27.058  -4.497  1.00 23.51 LIG-0.18  SA
ATOM     21 HG   CYS C1703      -9.708 -26.995  -5.467  1.00 23.51 LIG 0.10  HD
ENDBRANCH 19 20
ENDBRANCH 12 19
ENDBRANCH 9 12
ENDBRANCH 6 8
ENDBRANCH 4 6
ENDBRANCH 1 2
BRANCH 1 22
ATOM     22  C   ARG C1705     -15.665 -26.994  -9.001  1.00 20.76 LIG 0.24  C 
ATOM     23 O    ARG C1705     -16.888 -27.132  -9.114  1.00 22.20 LIG-0.27  OA
ATOM     24  N   SER C1706     -15.120 -26.216  -8.068  1.00 20.62 LIG-0.34  N 
ATOM     25 H    SER C1706     -14.274 -26.094  -7.971  1.00 20.62 LIG 0.16  HD
BRANCH 24 26
ATOM     26  CA  SER C1706     -15.958 -25.494  -7.117  1.00 20.36 LIG 0.20  C 
BRANCH 26 27
ATOM     27  C   SER C1706     -16.826 -26.451  -6.306  1.00 23.85 LIG 0.24  C 
ATOM     28 O    SER C1706     -17.984 -26.153  -6.015  1.00 24.92 LIG-0.27  OA
ATOM     29  N   GLU C1707     -16.259 -27.591  -5.933  1.00 21.35 LIG-0.35  N 
ATOM     30 H    GLU C1707     -15.461 -27.827  -6.153  1.00 21.35 LIG 0.16  HD
BRANCH 29 31
ATOM     31  CA  GLU C1707     -16.969 -28.558  -5.097  1.00 28.80 LIG 0.18  C 
BRANCH 31 32
ATOM     32  C   GLU C1707     -15.980 -29.487  -4.407  1.00 29.29 LIG 0.24  C 
ATOM     33 O    GLU C1707     -14.877 -29.715  -4.909  1.00 32.31 LIG-0.27  OA
ATOM     34  N   GLY C1708     -16.384 -30.020  -3.258  1.00 26.36 LIG-0.35  N 
ATOM     35 H    GLY C1708     -17.162 -29.887  -2.916  1.00 26.36 LIG 0.16  HD
BRANCH 34 36
ATOM     36  CA  GLY C1708     -15.528 -30.887  -2.472  1.00 26.05 LIG 0.21  C 
BRANCH 36 37
ATOM     37  C   GLY C1708     -16.282 -31.672  -1.420  1.00 34.75 LIG 0.21  C 
ATOM     38 O    GLY C1708     -17.336 -32.238  -1.690  1.00 36.48 LIG-0.29  OA
ENDBRANCH 36 37
ENDBRANCH 34 36
ENDBRANCH 31 32
BRANCH 31 39
ATOM     39  CB  GLU C1707     -17.952 -29.395  -5.920  1.00 30.33 LIG 0.04  C 
BRANCH 39 40
ATOM     40  CG  GLU C1707     -17.395 -30.725  -6.399  1.00 34.25 LIG 0.12  C 
BRANCH 40 41
ATOM     41  CD  GLU C1707     -18.448 -31.822  -6.446  1.00 39.35 LIG 0.17  C 
ATOM     42 OE2  GLU C1707     -18.311 -32.740  -7.283  1.00 42.40 LIG-0.65  OA
ATOM     43 OE1  GLU C1707     -19.411 -31.762  -5.648  1.00 45.84 LIG-0.65  OA
ENDBRANCH 40 41
ENDBRANCH 39 40
ENDBRANCH 31 39
ENDBRANCH 29 31
ENDBRANCH 26 27
BRANCH 26 44
ATOM     44  CB  SER C1706     -16.826 -24.447  -7.824  1.00 19.38 LIG 0.20  C 
BRANCH 44 45
ATOM     45 OG   SER C1706     -16.033 -23.506  -8.538  1.00 20.52 LIG-0.40  OA
ATOM     46 HG   SER C1706     -16.527 -22.905  -8.853  1.00 20.52 LIG 0.21  HD
ENDBRANCH 44 45
ENDBRANCH 26 44
ENDBRANCH 24 26
ENDBRANCH 1 22
BRANCH 1 47
ATOM     47  CB  ARG C1705     -15.308 -29.078 -10.392  1.00 21.30 LIG 0.04  C 
BRANCH 47 48
ATOM     48  CG  ARG C1705     -16.336 -28.923 -11.514  1.00 23.17 LIG 0.02  C 
BRANCH 48 49
ATOM     49  CD  ARG C1705     -17.365 -30.055 -11.540  1.00 21.38 LIG 0.14  C 
BRANCH 49 50
ATOM     50  NE  ARG C1705     -18.089 -30.127 -12.813  1.00 20.43 LIG-0.23  N 
ATOM     51  CZ  ARG C1705     -19.215 -30.808 -13.016  1.00 19.01 LIG 0.67  C 
ATOM     52  NH1 ARG C1705     -19.786 -31.500 -12.027  1.00 20.29 LIG-0.23  N 
ATOM     53  NH2 ARG C1705     -19.774 -30.802 -14.218  1.00 19.46 LIG-0.23  N 
ATOM     54 1HH1 ARG C1705     -19.426 -31.510 -11.246  1.00 20.29 LIG 0.17  HD
ATOM     55 2HH1 ARG C1705     -20.513 -31.936 -12.172  1.00 20.29 LIG 0.17  HD
ATOM     56 2HH2 ARG C1705     -20.501 -31.240 -14.356  1.00 19.46 LIG 0.17  HD
ATOM     57 1HH2 ARG C1705     -19.410 -30.361 -14.860  1.00 19.46 LIG 0.17  HD
ATOM     58 HE   ARG C1705     -17.761 -29.695 -13.480  1.00 20.43 LIG 0.18  HD
ENDBRANCH 49 50
ENDBRANCH 48 49
ENDBRANCH 47 48
ENDBRANCH 1 47
TORSDOF 24
ENDMDL
MODEL 9
USER: ADFR SOLUTION from run 13
USER: SCORE 14.387900 LL:  -3.264 LR: -14.905 RR:   0.000 FEB:  -7.746
USER: RMSD 4.432635
USER: SEED 185211
USER: STATUS no improvement in best in 13 clusters for 5 generations
USER: GENES 26
USER: genes 0 Translation |==|  0.27416 0.55175 0.55263
USER: genes 1 Rotation |==|  0.50660 0.29842 0.36490 0.93712
USER: genes 2 Torsion [C]-CA--N-[C] |==|  0.14816
USER: genes 3 Torsion [N]-C--CA-[N] |==|  0.54160
USER: genes 4 Torsion [C]-CA--N-[C] |==|  0.13333
USER: genes 5 Torsion [N]-C--CA-[N] |==|  0.34561
USER: genes 6 Torsion [C]-CA--N-[C] |==|  0.85063
USER: genes 7 Torsion [N]-C--CA-[N] |==|  0.71789
USER: genes 8 Torsion [C]-CA--CB-[SG] |==|  0.79395
USER: genes 9 Torsion [CA]-CB--SG-[HG] |==|  0.88003
USER: genes 10 Torsion [N]-CA--C-[N] |==|  0.75334
USER: genes 11 Torsion [C]-N--CA-[C] |==|  0.79941
USER: genes 12 Torsion [N]-CA--C-[N] |==|  0.28668
USER: genes 13 Torsion [C]-N--CA-[CB] |==|  0.23676
USER: genes 14 Torsion [N]-CA--C-[N] |==|  0.69471
USER: genes 15 Torsion [C]-N--CA-[C] |==|  0.19091
USER: genes 16 Torsion [N]-CA--C-[O] |==|  0.80797
USER: genes 17 Torsion [N]-CA--CB-[CG] |==|  0.57147
USER: genes 18 Torsion [CA]-CB--CG-[CD] |==|  0.66991
USER: genes 19 Torsion [CB]-CG--CD-[OE2] |==|  0.75013
USER: genes 20 Torsion [N]-CA--CB-[OG] |==|  0.76221
USER: genes 21 Torsion [CA]-CB--OG-[HG] |==|  0.86312
USER: genes 22 Torsion [N]-CA--CB-[CG] |==|  0.62259
USER: genes 23 Torsion [CA]-CB--CG-[CD] |==|  0.57945
USER: genes 24 Torsion [CB]-CG--CD-[NE] |==|  0.80000
USER: genes 25 Torsion [CG]-CD--NE-[CZ] |==|  0.82422
ROOT
ATOM      1  CA  ARG C1705     -17.476 -26.638  -7.308  1.00 19.53 LIG 0.18  C 
ENDROOT
BRANCH 1 2
ATOM      2  N   ARG C1705     -17.061 -27.726  -6.418  1.00 19.64 LIG-0.35  N 
ATOM      3 H    ARG C1705     -17.600 -27.904  -5.771  1.00 19.64 LIG 0.16  HD
ATOM      4  C   ALA C1704     -15.914 -28.352  -6.656  1.00 22.93 LIG 0.24  C 
ATOM      5 O    ALA C1704     -15.153 -28.006  -7.569  1.00 21.24 LIG-0.27  OA
BRANCH 4 6
ATOM      6  CA  ALA C1704     -15.545 -29.521  -5.743  1.00 20.87 LIG 0.17  C 
ATOM      7  CB  ALA C1704     -15.902 -29.225  -4.300  1.00 18.21 LIG 0.04  C 
BRANCH 6 8
ATOM      8  N   ALA C1704     -14.147 -29.908  -5.857  1.00 22.42 LIG-0.35  N 
ATOM      9  C   CYS C1703     -13.183 -28.995  -5.812  1.00 22.90 LIG 0.24  C 
ATOM     10 O    CYS C1703     -13.396 -27.804  -5.596  1.00 23.45 LIG-0.27  OA
ATOM     11 H    ALA C1704     -14.013 -30.752  -5.951  1.00 22.42 LIG 0.16  HD
BRANCH 9 12
ATOM     12  CA  CYS C1703     -11.764 -29.498  -6.043  1.00 24.41 LIG 0.18  C 
BRANCH 12 13
ATOM     13  N   CYS C1703     -11.127 -28.773  -7.143  1.00 24.32 LIG-0.34  N 
ATOM     14  C   GLY C1702     -11.721 -28.702  -8.333  1.00 24.70 LIG 0.25  C 
ATOM     15 O    GLY C1702     -12.775 -29.290  -8.582  1.00 27.37 LIG-0.27  OA
ATOM     16 H    CYS C1703     -10.369 -28.416  -6.953  1.00 24.32 LIG 0.16  HD
BRANCH 14 17
ATOM     17  CA  GLY C1702     -11.043 -27.856  -9.397  1.00 25.50 LIG 0.47  C 
ATOM     18  N   GLY C1702     -11.674 -26.555  -9.555  1.00 32.41 LIG 0.61  N 
ENDBRANCH 14 17
ENDBRANCH 12 13
BRANCH 12 19
ATOM     19  CB  CYS C1703     -10.934 -29.405  -4.750  1.00 19.88 LIG 0.10  C 
BRANCH 19 20
ATOM     20 SG   CYS C1703     -10.416 -27.742  -4.275  1.00 23.51 LIG-0.18  SA
ATOM     21 HG   CYS C1703     -10.030 -27.151  -5.245  1.00 23.51 LIG 0.10  HD
ENDBRANCH 19 20
ENDBRANCH 12 19
ENDBRANCH 9 12
ENDBRANCH 6 8
ENDBRANCH 4 6
ENDBRANCH 1 2
BRANCH 1 22
ATOM     22  C   ARG C1705     -17.497 -27.020  -8.797  1.00 20.76 LIG 0.24  C 
ATOM     23 O    ARG C1705     -18.530 -27.458  -9.316  1.00 22.20 LIG-0.27  OA
ATOM     24  N   SER C1706     -16.372 -26.851  -9.488  1.00 20.62 LIG-0.34  N 
ATOM     25 H    SER C1706     -15.636 -26.556  -9.153  1.00 20.62 LIG 0.16  HD
BRANCH 24 26
ATOM     26  CA  SER C1706     -16.315 -27.168 -10.911  1.00 20.36 LIG 0.20  C 
BRANCH 26 27
ATOM     27  C   SER C1706     -16.338 -28.675 -11.144  1.00 23.85 LIG 0.24  C 
ATOM     28 O    SER C1706     -15.326 -29.352 -10.966  1.00 24.92 LIG-0.27  OA
ATOM     29  N   GLU C1707     -17.489 -29.192 -11.554  1.00 21.35 LIG-0.35  N 
ATOM     30 H    GLU C1707     -18.213 -28.738 -11.655  1.00 21.35 LIG 0.16  HD
BRANCH 29 31
ATOM     31  CA  GLU C1707     -17.616 -30.614 -11.874  1.00 28.80 LIG 0.18  C 
BRANCH 31 32
ATOM     32  C   GLU C1707     -18.731 -30.829 -12.887  1.00 29.29 LIG 0.24  C 
ATOM     33 O    GLU C1707     -18.602 -30.451 -14.054  1.00 32.31 LIG-0.27  OA
ATOM     34  N   GLY C1708     -19.823 -31.435 -12.432  1.00 26.36 LIG-0.35  N 
ATOM     35 H    GLY C1708     -19.931 -31.676 -11.614  1.00 26.36 LIG 0.16  HD
BRANCH 34 36
ATOM     36  CA  GLY C1708     -20.945 -31.745 -13.297  1.00 26.05 LIG 0.21  C 
BRANCH 36 37
ATOM     37  C   GLY C1708     -20.633 -32.821 -14.314  1.00 34.75 LIG 0.21  C 
ATOM     38 O    GLY C1708     -19.855 -32.609 -15.238  1.00 36.48 LIG-0.29  OA
ENDBRANCH 36 37
ENDBRANCH 34 36
ENDBRANCH 31 32
BRANCH 31 39
ATOM     39  CB  GLU C1707     -17.908 -31.446 -10.622  1.00 30.33 LIG 0.04  C 
BRANCH 39 40
ATOM     40  CG  GLU C1707     -17.461 -32.894 -10.714  1.00 34.25 LIG 0.12  C 
BRANCH 40 41
ATOM     41  CD  GLU C1707     -18.615 -33.876 -10.585  1.00 39.35 LIG 0.17  C 
ATOM     42 OE2  GLU C1707     -18.923 -34.283  -9.444  1.00 42.40 LIG-0.65  OA
ATOM     43 OE1  GLU C1707     -19.211 -34.240 -11.624  1.00 45.84 LIG-0.65  OA
ENDBRANCH 40 41
ENDBRANCH 39 40
ENDBRANCH 31 39
ENDBRANCH 29 31
ENDBRANCH 26 27
BRANCH 26 44
ATOM     44  CB  SER C1706     -15.083 -26.539 -11.571  1.00 19.38 LIG 0.20  C 
BRANCH 44 45
ATOM     45 OG   SER C1706     -15.333 -25.199 -11.978  1.00 20.52 LIG-0.40  OA
ATOM     46 HG   SER C1706     -16.051 -25.168 -12.412  1.00 20.52 LIG 0.21  HD
ENDBRANCH 44 45
ENDBRANCH 26 44
ENDBRANCH 24 26
ENDBRANCH 1 22
BRANCH 1 47
ATOM     47  CB  ARG C1705     -16.637 -25.373  -7.079  1.00 21.30 LIG 0.04  C 
BRANCH 47 48
ATOM     48  CG  ARG C1705     -17.484 -24.100  -7.036  1.00 23.17 LIG 0.02  C 
BRANCH 48 49
ATOM     49  CD  ARG C1705     -16.719 -22.860  -7.500  1.00 21.38 LIG 0.14  C 
BRANCH 49 50
ATOM     50  NE  ARG C1705     -15.713 -22.424  -6.527  1.00 20.43 LIG-0.23  N 
ATOM     51  CZ  ARG C1705     -15.976 -21.997  -5.294  1.00 19.01 LIG 0.67  C 
ATOM     52  NH1 ARG C1705     -17.231 -21.937  -4.841  1.00 20.29 LIG-0.23  N 
ATOM     53  NH2 ARG C1705     -14.979 -21.621  -4.505  1.00 19.46 LIG-0.23  N 
ATOM     54 1HH1 ARG C1705     -17.883 -22.176  -5.349  1.00 20.29 LIG 0.17  HD
ATOM     55 2HH1 ARG C1705     -17.387 -21.659  -4.043  1.00 20.29 LIG 0.17  HD
ATOM     56 2HH2 ARG C1705     -15.142 -21.344  -3.708  1.00 19.46 LIG 0.17  HD
ATOM     57 1HH2 ARG C1705     -14.168 -21.654  -4.791  1.00 19.46 LIG 0.17  HD
ATOM     58 HE   ARG C1705     -14.889 -22.446  -6.772  1.00 20.43 LIG 0.18  HD
ENDBRANCH 49 50
ENDBRANCH 48 49
ENDBRANCH 47 48
ENDBRANCH 1 47
TORSDOF 24
ENDMDL
MODEL 10
USER: ADFR SOLUTION from run 110
USER: SCORE 15.865436 LL:  -3.486 LR: -14.894 RR:   0.000 FEB:  -7.734
USER: RMSD 7.159255
USER: SEED 109
USER: STATUS no improvement in best in 4 clusters for 5 generations
USER: GENES 26
USER: genes 0 Translation |==|  0.45293 0.57545 0.40103
USER: genes 1 Rotation |==|  0.64890 0.10001 0.34797 0.71148
USER: genes 2 Torsion [C]-CA--N-[C] |==|  0.70581
USER: genes 3 Torsion [N]-C--CA-[N] |==|  0.01783
USER: genes 4 Torsion [C]-CA--N-[C] |==|  0.17730
USER: genes 5 Torsion [N]-C--CA-[N] |==|  0.28050
USER: genes 6 Torsion [C]-CA--N-[C] |==|  0.79982
USER: genes 7 Torsion [N]-C--CA-[N] |==|  0.45089
USER: genes 8 Torsion [C]-CA--CB-[SG] |==|  0.72414
USER: genes 9 Torsion [CA]-CB--SG-[HG] |==|  0.61714
USER: genes 10 Torsion [N]-CA--C-[N] |==|  0.93458
USER: genes 11 Torsion [C]-N--CA-[C] |==|  0.60191
USER: genes 12 Torsion [N]-CA--C-[N] |==|  0.52872
USER: genes 13 Torsion [C]-N--CA-[CB] |==|  0.24197
USER: genes 14 Torsion [N]-CA--C-[N] |==|  0.41102
USER: genes 15 Torsion [C]-N--CA-[C] |==|  0.19456
USER: genes 16 Torsion [N]-CA--C-[O] |==|  0.38880
USER: genes 17 Torsion [N]-CA--CB-[CG] |==|  0.32237
USER: genes 18 Torsion [CA]-CB--CG-[CD] |==|  0.71621
USER: genes 19 Torsion [CB]-CG--CD-[OE2] |==|  0.27006
USER: genes 20 Torsion [N]-CA--CB-[OG] |==|  0.85461
USER: genes 21 Torsion [CA]-CB--OG-[HG] |==|  0.18475
USER: genes 22 Torsion [N]-CA--CB-[CG] |==|  0.86863
USER: genes 23 Torsion [CA]-CB--CG-[CD] |==|  0.66903
USER: genes 24 Torsion [CB]-CG--CD-[NE] |==|  0.82425
USER: genes 25 Torsion [CG]-CD--NE-[CZ] |==|  0.68662
ROOT
ATOM      1  CA  ARG C1705     -14.258 -26.104 -10.036  1.00 19.53 LIG 0.18  C 
ENDROOT
BRANCH 1 2
ATOM      2  N   ARG C1705     -14.858 -27.418  -9.788  1.00 19.64 LIG-0.35  N 
ATOM      3 H    ARG C1705     -14.605 -27.813  -9.067  1.00 19.64 LIG 0.16  HD
ATOM      4  C   ALA C1704     -15.730 -27.905 -10.665  1.00 22.93 LIG 0.24  C 
ATOM      5 O    ALA C1704     -16.006 -27.313 -11.716  1.00 21.24 LIG-0.27  OA
BRANCH 4 6
ATOM      6  CA  ALA C1704     -16.380 -29.250 -10.341  1.00 20.87 LIG 0.17  C 
ATOM      7  CB  ALA C1704     -17.884 -29.191 -10.521  1.00 18.21 LIG 0.04  C 
BRANCH 6 8
ATOM      8  N   ALA C1704     -16.041 -29.736  -9.011  1.00 22.42 LIG-0.35  N 
ATOM      9  C   CYS C1703     -16.416 -29.067  -7.927  1.00 22.90 LIG 0.24  C 
ATOM     10 O    CYS C1703     -17.125 -28.064  -7.969  1.00 23.45 LIG-0.27  OA
ATOM     11 H    ALA C1704     -15.593 -30.470  -8.999  1.00 22.42 LIG 0.16  HD
BRANCH 9 12
ATOM     12  CA  CYS C1703     -15.921 -29.610  -6.593  1.00 24.41 LIG 0.18  C 
BRANCH 12 13
ATOM     13  N   CYS C1703     -14.779 -28.836  -6.107  1.00 24.32 LIG-0.34  N 
ATOM     14  C   GLY C1702     -13.591 -28.949  -6.699  1.00 24.70 LIG 0.25  C 
ATOM     15 O    GLY C1702     -13.383 -29.745  -7.615  1.00 27.37 LIG-0.27  OA
ATOM     16 H    CYS C1703     -14.944 -28.326  -5.435  1.00 24.32 LIG 0.16  HD
BRANCH 14 17
ATOM     17  CA  GLY C1702     -12.478 -28.046  -6.197  1.00 25.50 LIG 0.47  C 
ATOM     18  N   GLY C1702     -11.161 -28.515  -6.600  1.00 32.41 LIG 0.61  N 
ENDBRANCH 14 17
ENDBRANCH 12 13
BRANCH 12 19
ATOM     19  CB  CYS C1703     -17.062 -29.642  -5.559  1.00 19.88 LIG 0.10  C 
BRANCH 19 20
ATOM     20 SG   CYS C1703     -17.093 -28.267  -4.391  1.00 23.51 LIG-0.18  SA
ATOM     21 HG   CYS C1703     -17.340 -28.681  -3.292  1.00 23.51 LIG 0.10  HD
ENDBRANCH 19 20
ENDBRANCH 12 19
ENDBRANCH 9 12
ENDBRANCH 6 8
ENDBRANCH 4 6
ENDBRANCH 1 2
BRANCH 1 22
ATOM     22  C   ARG C1705     -12.791 -26.162 -10.492  1.00 20.76 LIG 0.24  C 
ATOM     23 O    ARG C1705     -12.296 -25.226 -11.130  1.00 22.20 LIG-0.27  OA
ATOM     24  N   SER C1706     -12.091 -27.246 -10.165  1.00 20.62 LIG-0.34  N 
ATOM     25 H    SER C1706     -12.409 -27.917  -9.730  1.00 20.62 LIG 0.16  HD
BRANCH 24 26
ATOM     26  CA  SER C1706     -10.686 -27.369 -10.540  1.00 20.36 LIG 0.20  C 
BRANCH 26 27
ATOM     27  C   SER C1706     -10.335 -28.805 -10.913  1.00 23.85 LIG 0.24  C 
ATOM     28 O    SER C1706     -11.219 -29.651 -11.049  1.00 24.92 LIG-0.27  OA
ATOM     29  N   GLU C1707      -9.046 -29.078 -11.066  1.00 21.35 LIG-0.35  N 
ATOM     30 H    GLU C1707      -8.419 -28.493 -11.004  1.00 21.35 LIG 0.16  HD
BRANCH 29 31
ATOM     31  CA  GLU C1707      -8.582 -30.435 -11.358  1.00 28.80 LIG 0.18  C 
BRANCH 31 32
ATOM     32  C   GLU C1707      -7.177 -30.641 -10.813  1.00 29.29 LIG 0.24  C 
ATOM     33 O    GLU C1707      -6.376 -29.705 -10.767  1.00 32.31 LIG-0.27  OA
ATOM     34  N   GLY C1708      -6.886 -31.873 -10.404  1.00 26.36 LIG-0.35  N 
ATOM     35 H    GLY C1708      -7.430 -32.537 -10.460  1.00 26.36 LIG 0.16  HD
BRANCH 34 36
ATOM     36  CA  GLY C1708      -5.600 -32.203  -9.822  1.00 26.05 LIG 0.21  C 
BRANCH 36 37
ATOM     37  C   GLY C1708      -5.398 -31.604  -8.446  1.00 34.75 LIG 0.21  C 
ATOM     38 O    GLY C1708      -4.853 -32.244  -7.553  1.00 36.48 LIG-0.29  OA
ENDBRANCH 36 37
ENDBRANCH 34 36
ENDBRANCH 31 32
BRANCH 31 39
ATOM     39  CB  GLU C1707      -8.582 -30.713 -12.864  1.00 30.33 LIG 0.04  C 
BRANCH 39 40
ATOM     40  CG  GLU C1707      -7.206 -30.973 -13.453  1.00 34.25 LIG 0.12  C 
BRANCH 40 41
ATOM     41  CD  GLU C1707      -6.647 -29.769 -14.196  1.00 39.35 LIG 0.17  C 
ATOM     42 OE2  GLU C1707      -5.852 -29.016 -13.592  1.00 42.40 LIG-0.65  OA
ATOM     43 OE1  GLU C1707      -7.004 -29.577 -15.380  1.00 45.84 LIG-0.65  OA
ENDBRANCH 40 41
ENDBRANCH 39 40
ENDBRANCH 31 39
ENDBRANCH 29 31
ENDBRANCH 26 27
BRANCH 26 44
ATOM     44  CB  SER C1706      -9.767 -26.863  -9.422  1.00 19.38 LIG 0.20  C 
BRANCH 44 45
ATOM     45 OG   SER C1706     -10.126 -25.552  -9.003  1.00 20.52 LIG-0.40  OA
ATOM     46 HG   SER C1706     -10.880 -25.573  -8.634  1.00 20.52 LIG 0.21  HD
ENDBRANCH 44 45
ENDBRANCH 26 44
ENDBRANCH 24 26
ENDBRANCH 1 22
BRANCH 1 47
ATOM     47  CB  ARG C1705     -14.420 -25.175  -8.826  1.00 21.30 LIG 0.04  C 
BRANCH 47 48
ATOM     48  CG  ARG C1705     -15.845 -25.170  -8.269  1.00 23.17 LIG 0.02  C 
BRANCH 48 49
ATOM     49  CD  ARG C1705     -16.501 -23.789  -8.323  1.00 21.38 LIG 0.14  C 
BRANCH 49 50
ATOM     50  NE  ARG C1705     -15.804 -22.805  -7.490  1.00 20.43 LIG-0.23  N 
ATOM     51  CZ  ARG C1705     -16.304 -22.242  -6.391  1.00 19.01 LIG 0.67  C 
ATOM     52  NH1 ARG C1705     -17.526 -22.554  -5.955  1.00 20.29 LIG-0.23  N 
ATOM     53  NH2 ARG C1705     -15.578 -21.356  -5.723  1.00 19.46 LIG-0.23  N 
ATOM     54 1HH1 ARG C1705     -18.003 -23.126  -6.385  1.00 20.29 LIG 0.17  HD
ATOM     55 2HH1 ARG C1705     -17.836 -22.183  -5.244  1.00 20.29 LIG 0.17  HD
ATOM     56 2HH2 ARG C1705     -15.894 -20.990  -5.012  1.00 19.46 LIG 0.17  HD
ATOM     57 1HH2 ARG C1705     -14.791 -21.148  -6.000  1.00 19.46 LIG 0.17  HD
ATOM     58 HE   ARG C1705     -15.012 -22.572  -7.729  1.00 20.43 LIG 0.18  HD
ENDBRANCH 49 50
ENDBRANCH 48 49
ENDBRANCH 47 48
ENDBRANCH 1 47
TORSDOF 24
ENDMDL
MODEL 11
USER: ADFR SOLUTION from run 76
USER: SCORE 18.059594 LL:  -4.336 LR: -14.885 RR:   0.000 FEB:  -7.725
USER: RMSD 4.785822
USER: SEED 75
USER: STATUS searching
USER: GENES 26
USER: genes 0 Translation |==|  0.34330 0.61429 0.53959
USER: genes 1 Rotation |==|  0.57997 0.25648 0.36592 0.90783
USER: genes 2 Torsion [C]-CA--N-[C] |==|  0.67091
USER: genes 3 Torsion [N]-C--CA-[N] |==|  0.01213
USER: genes 4 Torsion [C]-CA--N-[C] |==|  0.74938
USER: genes 5 Torsion [N]-C--CA-[N] |==|  0.62222
USER: genes 6 Torsion [C]-CA--N-[C] |==|  0.15869
USER: genes 7 Torsion [N]-C--CA-[N] |==|  0.68904
USER: genes 8 Torsion [C]-CA--CB-[SG] |==|  0.58907
USER: genes 9 Torsion [CA]-CB--SG-[HG] |==|  0.04226
USER: genes 10 Torsion [N]-CA--C-[N] |==|  0.93919
USER: genes 11 Torsion [C]-N--CA-[C] |==|  0.62552
USER: genes 12 Torsion [N]-CA--C-[N] |==|  0.45229
USER: genes 13 Torsion [C]-N--CA-[CB] |==|  0.85423
USER: genes 14 Torsion [N]-CA--C-[N] |==|  0.35624
USER: genes 15 Torsion [C]-N--CA-[C] |==|  0.17889
USER: genes 16 Torsion [N]-CA--C-[O] |==|  0.32938
USER: genes 17 Torsion [N]-CA--CB-[CG] |==|  0.53175
USER: genes 18 Torsion [CA]-CB--CG-[CD] |==|  0.31605
USER: genes 19 Torsion [CB]-CG--CD-[OE2] |==|  0.44542
USER: genes 20 Torsion [N]-CA--CB-[OG] |==|  0.04309
USER: genes 21 Torsion [CA]-CB--OG-[HG] |==|  0.07196
USER: genes 22 Torsion [N]-CA--CB-[CG] |==|  0.62133
USER: genes 23 Torsion [CA]-CB--CG-[CD] |==|  0.41312
USER: genes 24 Torsion [CB]-CG--CD-[NE] |==|  0.69802
USER: genes 25 Torsion [CG]-CD--NE-[CZ] |==|  0.49182
ROOT
ATOM      1  CA  ARG C1705     -16.232 -25.230  -7.542  1.00 19.53 LIG 0.18  C 
ENDROOT
BRANCH 1 2
ATOM      2  N   ARG C1705     -15.939 -26.462  -6.803  1.00 19.64 LIG-0.35  N 
ATOM      3 H    ARG C1705     -15.109 -26.682  -6.760  1.00 19.64 LIG 0.16  HD
ATOM      4  C   ALA C1704     -16.944 -27.143  -6.262  1.00 22.93 LIG 0.24  C 
ATOM      5 O    ALA C1704     -18.125 -26.805  -6.414  1.00 21.24 LIG-0.27  OA
BRANCH 4 6
ATOM      6  CA  ALA C1704     -16.594 -28.388  -5.448  1.00 20.87 LIG 0.17  C 
ATOM      7  CB  ALA C1704     -17.267 -28.364  -4.089  1.00 18.21 LIG 0.04  C 
BRANCH 6 8
ATOM      8  N   ALA C1704     -15.159 -28.586  -5.305  1.00 22.42 LIG-0.35  N 
ATOM      9  C   CYS C1703     -14.479 -29.305  -6.192  1.00 22.90 LIG 0.24  C 
ATOM     10 O    CYS C1703     -14.988 -29.770  -7.209  1.00 23.45 LIG-0.27  OA
ATOM     11 H    ALA C1704     -14.809 -28.205  -4.617  1.00 22.42 LIG 0.16  HD
BRANCH 9 12
ATOM     12  CA  CYS C1703     -13.004 -29.532  -5.889  1.00 24.41 LIG 0.18  C 
BRANCH 12 13
ATOM     13  N   CYS C1703     -12.191 -29.338  -7.090  1.00 24.32 LIG-0.34  N 
ATOM     14  C   GLY C1702     -12.233 -28.182  -7.750  1.00 24.70 LIG 0.25  C 
ATOM     15 O    GLY C1702     -12.996 -27.268  -7.433  1.00 27.37 LIG-0.27  OA
ATOM     16 H    CYS C1703     -11.707 -30.012  -7.315  1.00 24.32 LIG 0.16  HD
BRANCH 14 17
ATOM     17  CA  GLY C1702     -11.294 -28.024  -8.933  1.00 25.50 LIG 0.47  C 
ATOM     18  N   GLY C1702     -10.253 -27.038  -8.685  1.00 32.41 LIG 0.61  N 
ENDBRANCH 14 17
ENDBRANCH 12 13
BRANCH 12 19
ATOM     19  CB  CYS C1703     -12.537 -28.623  -4.738  1.00 19.88 LIG 0.10  C 
BRANCH 19 20
ATOM     20 SG   CYS C1703     -10.818 -28.078  -4.824  1.00 23.51 LIG-0.18  SA
ATOM     21 HG   CYS C1703     -10.390 -28.275  -5.928  1.00 23.51 LIG 0.10  HD
ENDBRANCH 19 20
ENDBRANCH 12 19
ENDBRANCH 9 12
ENDBRANCH 6 8
ENDBRANCH 4 6
ENDBRANCH 1 2
BRANCH 1 22
ATOM     22  C   ARG C1705     -15.821 -25.277  -9.024  1.00 20.76 LIG 0.24  C 
ATOM     23 O    ARG C1705     -16.342 -24.510  -9.842  1.00 22.20 LIG-0.27  OA
ATOM     24  N   SER C1706     -14.890 -26.161  -9.373  1.00 20.62 LIG-0.34  N 
ATOM     25 H    SER C1706     -14.516 -26.713  -8.829  1.00 20.62 LIG 0.16  HD
BRANCH 24 26
ATOM     26  CA  SER C1706     -14.428 -26.253 -10.754  1.00 20.36 LIG 0.20  C 
BRANCH 26 27
ATOM     27  C   SER C1706     -14.345 -27.705 -11.215  1.00 23.85 LIG 0.24  C 
ATOM     28 O    SER C1706     -14.325 -28.623 -10.395  1.00 24.92 LIG-0.27  OA
ATOM     29  N   GLU C1707     -14.284 -27.906 -12.525  1.00 21.35 LIG-0.35  N 
ATOM     30 H    GLU C1707     -14.327 -27.278 -13.112  1.00 21.35 LIG 0.16  HD
BRANCH 29 31
ATOM     31  CA  GLU C1707     -14.134 -29.249 -13.085  1.00 28.80 LIG 0.18  C 
BRANCH 31 32
ATOM     32  C   GLU C1707     -15.400 -30.061 -12.854  1.00 29.29 LIG 0.24  C 
ATOM     33 O    GLU C1707     -15.890 -30.155 -11.726  1.00 32.31 LIG-0.27  OA
ATOM     34  N   GLY C1708     -15.921 -30.648 -13.928  1.00 26.36 LIG-0.35  N 
ATOM     35 H    GLY C1708     -15.569 -30.610 -14.711  1.00 26.36 LIG 0.16  HD
BRANCH 34 36
ATOM     36  CA  GLY C1708     -17.149 -31.415 -13.862  1.00 26.05 LIG 0.21  C 
BRANCH 36 37
ATOM     37  C   GLY C1708     -18.355 -30.578 -13.493  1.00 34.75 LIG 0.21  C 
ATOM     38 O    GLY C1708     -19.304 -30.466 -14.261  1.00 36.48 LIG-0.29  OA
ENDBRANCH 36 37
ENDBRANCH 34 36
ENDBRANCH 31 32
BRANCH 31 39
ATOM     39  CB  GLU C1707     -12.945 -29.986 -12.461  1.00 30.33 LIG 0.04  C 
BRANCH 39 40
ATOM     40  CG  GLU C1707     -12.559 -31.270 -13.176  1.00 34.25 LIG 0.12  C 
BRANCH 40 41
ATOM     41  CD  GLU C1707     -11.189 -31.189 -13.832  1.00 39.35 LIG 0.17  C 
ATOM     42 OE2  GLU C1707     -10.604 -32.256 -14.118  1.00 42.40 LIG-0.65  OA
ATOM     43 OE1  GLU C1707     -10.698 -30.059 -14.058  1.00 45.84 LIG-0.65  OA
ENDBRANCH 40 41
ENDBRANCH 39 40
ENDBRANCH 31 39
ENDBRANCH 29 31
ENDBRANCH 26 27
BRANCH 26 44
ATOM     44  CB  SER C1706     -13.078 -25.552 -10.937  1.00 19.38 LIG 0.20  C 
BRANCH 44 45
ATOM     45 OG   SER C1706     -12.445 -25.301  -9.687  1.00 20.52 LIG-0.40  OA
ATOM     46 HG   SER C1706     -12.713 -25.860  -9.121  1.00 20.52 LIG 0.21  HD
ENDBRANCH 44 45
ENDBRANCH 26 44
ENDBRANCH 24 26
ENDBRANCH 1 22
BRANCH 1 47
ATOM     47  CB  ARG C1705     -15.632 -24.001  -6.846  1.00 21.30 LIG 0.04  C 
BRANCH 47 48
ATOM     48  CG  ARG C1705     -16.599 -22.816  -6.802  1.00 23.17 LIG 0.02  C 
BRANCH 48 49
ATOM     49  CD  ARG C1705     -16.406 -21.936  -5.565  1.00 21.38 LIG 0.14  C 
BRANCH 49 50
ATOM     50  NE  ARG C1705     -17.506 -22.070  -4.605  1.00 20.43 LIG-0.23  N 
ATOM     51  CZ  ARG C1705     -17.566 -21.463  -3.421  1.00 19.01 LIG 0.67  C 
ATOM     52  NH1 ARG C1705     -16.585 -20.654  -3.014  1.00 20.29 LIG-0.23  N 
ATOM     53  NH2 ARG C1705     -18.613 -21.669  -2.634  1.00 19.46 LIG-0.23  N 
ATOM     54 1HH1 ARG C1705     -15.902 -20.519  -3.519  1.00 20.29 LIG 0.17  HD
ATOM     55 2HH1 ARG C1705     -16.637 -20.268  -2.247  1.00 20.29 LIG 0.17  HD
ATOM     56 2HH2 ARG C1705     -18.658 -21.279  -1.869  1.00 19.46 LIG 0.17  HD
ATOM     57 1HH2 ARG C1705     -19.247 -22.191  -2.889  1.00 19.46 LIG 0.17  HD
ATOM     58 HE   ARG C1705     -18.163 -22.580  -4.823  1.00 20.43 LIG 0.18  HD
ENDBRANCH 49 50
ENDBRANCH 48 49
ENDBRANCH 47 48
ENDBRANCH 1 47
TORSDOF 24
ENDMDL
MODEL 12
USER: ADFR SOLUTION from run 82
USER: SCORE 15.323102 LL:  -3.148 LR: -14.882 RR:   0.000 FEB:  -7.723
USER: RMSD 8.422734
USER: SEED 81
USER: STATUS no improvement in best in 6 clusters for 5 generations
USER: GENES 26
USER: genes 0 Translation |==|  0.37193 0.40665 0.45020
USER: genes 1 Rotation |==|  0.40815 0.21618 0.82753 0.73181
USER: genes 2 Torsion [C]-CA--N-[C] |==|  0.82206
USER: genes 3 Torsion [N]-C--CA-[N] |==|  0.87106
USER: genes 4 Torsion [C]-CA--N-[C] |==|  0.20166
USER: genes 5 Torsion [N]-C--CA-[N] |==|  0.91684
USER: genes 6 Torsion [C]-CA--N-[C] |==|  0.65845
USER: genes 7 Torsion [N]-C--CA-[N] |==|  0.16273
USER: genes 8 Torsion [C]-CA--CB-[SG] |==|  0.85458
USER: genes 9 Torsion [CA]-CB--SG-[HG] |==|  0.76534
USER: genes 10 Torsion [N]-CA--C-[N] |==|  0.92858
USER: genes 11 Torsion [C]-N--CA-[C] |==|  0.15254
USER: genes 12 Torsion [N]-CA--C-[N] |==|  0.56433
USER: genes 13 Torsion [C]-N--CA-[CB] |==|  0.21667
USER: genes 14 Torsion [N]-CA--C-[N] |==|  0.97846
USER: genes 15 Torsion [C]-N--CA-[C] |==|  0.18956
USER: genes 16 Torsion [N]-CA--C-[O] |==|  0.03791
USER: genes 17 Torsion [N]-CA--CB-[CG] |==|  0.56425
USER: genes 18 Torsion [CA]-CB--CG-[CD] |==|  0.67007
USER: genes 19 Torsion [CB]-CG--CD-[OE2] |==|  0.01523
USER: genes 20 Torsion [N]-CA--CB-[OG] |==|  0.66941
USER: genes 21 Torsion [CA]-CB--OG-[HG] |==|  0.78269
USER: genes 22 Torsion [N]-CA--CB-[CG] |==|  0.81055
USER: genes 23 Torsion [CA]-CB--CG-[CD] |==|  0.61535
USER: genes 24 Torsion [CB]-CG--CD-[NE] |==|  0.46556
USER: genes 25 Torsion [CG]-CD--NE-[CZ] |==|  0.39783
ROOT
ATOM      1  CA  ARG C1705     -15.716 -29.902  -9.151  1.00 19.53 LIG 0.18  C 
ENDROOT
BRANCH 1 2
ATOM      2  N   ARG C1705     -16.266 -28.880  -8.256  1.00 19.64 LIG-0.35  N 
ATOM      3 H    ARG C1705     -16.644 -28.211  -8.643  1.00 19.64 LIG 0.16  HD
ATOM      4  C   ALA C1704     -16.149 -29.043  -6.943  1.00 22.93 LIG 0.24  C 
ATOM      5 O    ALA C1704     -15.537 -29.999  -6.450  1.00 21.24 LIG-0.27  OA
BRANCH 4 6
ATOM      6  CA  ALA C1704     -16.787 -27.987  -6.042  1.00 20.87 LIG 0.17  C 
ATOM      7  CB  ALA C1704     -18.285 -28.194  -5.928  1.00 18.21 LIG 0.04  C 
BRANCH 6 8
ATOM      8  N   ALA C1704     -16.490 -26.626  -6.465  1.00 22.42 LIG-0.35  N 
ATOM      9  C   CYS C1703     -17.055 -26.113  -7.553  1.00 22.90 LIG 0.24  C 
ATOM     10 O    CYS C1703     -17.908 -26.707  -8.209  1.00 23.45 LIG-0.27  OA
ATOM     11 H    ALA C1704     -15.934 -26.205  -5.962  1.00 22.42 LIG 0.16  HD
BRANCH 9 12
ATOM     12  CA  CYS C1703     -16.595 -24.720  -7.961  1.00 24.41 LIG 0.18  C 
BRANCH 12 13
ATOM     13  N   CYS C1703     -16.188 -23.943  -6.790  1.00 24.32 LIG-0.34  N 
ATOM     14  C   GLY C1702     -16.768 -22.773  -6.526  1.00 24.70 LIG 0.25  C 
ATOM     15 O    GLY C1702     -17.603 -22.266  -7.276  1.00 27.37 LIG-0.27  OA
ATOM     16 H    CYS C1703     -15.568 -24.300  -6.313  1.00 24.32 LIG 0.16  HD
BRANCH 14 17
ATOM     17  CA  GLY C1702     -16.358 -22.069  -5.244  1.00 25.50 LIG 0.47  C 
ATOM     18  N   GLY C1702     -14.930 -21.795  -5.197  1.00 32.41 LIG 0.61  N 
ENDBRANCH 14 17
ENDBRANCH 12 13
BRANCH 12 19
ATOM     19  CB  CYS C1703     -15.465 -24.802  -9.003  1.00 19.88 LIG 0.10  C 
BRANCH 19 20
ATOM     20 SG   CYS C1703     -14.064 -25.849  -8.555  1.00 23.51 LIG-0.18  SA
ATOM     21 HG   CYS C1703     -13.295 -25.220  -7.881  1.00 23.51 LIG 0.10  HD
ENDBRANCH 19 20
ENDBRANCH 12 19
ENDBRANCH 9 12
ENDBRANCH 6 8
ENDBRANCH 4 6
ENDBRANCH 1 2
BRANCH 1 22
ATOM     22  C   ARG C1705     -14.188 -30.051  -9.070  1.00 20.76 LIG 0.24  C 
ATOM     23 O    ARG C1705     -13.645 -31.119  -9.375  1.00 22.20 LIG-0.27  OA
ATOM     24  N   SER C1706     -13.491 -28.989  -8.669  1.00 20.62 LIG-0.34  N 
ATOM     25 H    SER C1706     -13.840 -28.236  -8.442  1.00 20.62 LIG 0.16  HD
BRANCH 24 26
ATOM     26  CA  SER C1706     -12.035 -29.040  -8.587  1.00 20.36 LIG 0.20  C 
BRANCH 26 27
ATOM     27  C   SER C1706     -11.420 -29.468  -9.915  1.00 23.85 LIG 0.24  C 
ATOM     28 O    SER C1706     -12.040 -29.325 -10.969  1.00 24.92 LIG-0.27  OA
ATOM     29  N   GLU C1707     -10.206 -30.002  -9.859  1.00 21.35 LIG-0.35  N 
ATOM     30 H    GLU C1707      -9.748 -30.081  -9.136  1.00 21.35 LIG 0.16  HD
BRANCH 29 31
ATOM     31  CA  GLU C1707      -9.541 -30.511 -11.058  1.00 28.80 LIG 0.18  C 
BRANCH 31 32
ATOM     32  C   GLU C1707      -8.423 -31.470 -10.675  1.00 29.29 LIG 0.24  C 
ATOM     33 O    GLU C1707      -7.832 -32.123 -11.538  1.00 32.31 LIG-0.27  OA
ATOM     34  N   GLY C1708      -8.144 -31.552  -9.377  1.00 26.36 LIG-0.35  N 
ATOM     35 H    GLY C1708      -8.572 -31.121  -8.768  1.00 26.36 LIG 0.16  HD
BRANCH 34 36
ATOM     36  CA  GLY C1708      -7.075 -32.392  -8.875  1.00 26.05 LIG 0.21  C 
BRANCH 36 37
ATOM     37  C   GLY C1708      -5.698 -31.901  -9.266  1.00 34.75 LIG 0.21  C 
ATOM     38 O    GLY C1708      -5.537 -30.773  -9.721  1.00 36.48 LIG-0.29  OA
ENDBRANCH 36 37
ENDBRANCH 34 36
ENDBRANCH 31 32
BRANCH 31 39
ATOM     39  CB  GLU C1707      -8.957 -29.372 -11.900  1.00 30.33 LIG 0.04  C 
BRANCH 39 40
ATOM     40  CG  GLU C1707      -8.755 -29.717 -13.365  1.00 34.25 LIG 0.12  C 
BRANCH 40 41
ATOM     41  CD  GLU C1707      -7.298 -29.626 -13.795  1.00 39.35 LIG 0.17  C 
ATOM     42 OE2  GLU C1707      -6.435 -29.395 -12.921  1.00 42.40 LIG-0.65  OA
ATOM     43 OE1  GLU C1707      -7.019 -29.784 -15.005  1.00 45.84 LIG-0.65  OA
ENDBRANCH 40 41
ENDBRANCH 39 40
ENDBRANCH 31 39
ENDBRANCH 29 31
ENDBRANCH 26 27
BRANCH 26 44
ATOM     44  CB  SER C1706     -11.575 -29.967  -7.456  1.00 19.38 LIG 0.20  C 
BRANCH 44 45
ATOM     45 OG   SER C1706     -10.817 -29.265  -6.479  1.00 20.52 LIG-0.40  OA
ATOM     46 HG   SER C1706     -10.036 -29.146  -6.763  1.00 20.52 LIG 0.21  HD
ENDBRANCH 44 45
ENDBRANCH 26 44
ENDBRANCH 24 26
ENDBRANCH 1 22
BRANCH 1 47
ATOM     47  CB  ARG C1705     -16.169 -29.682 -10.601  1.00 21.30 LIG 0.04  C 
BRANCH 47 48
ATOM     48  CG  ARG C1705     -17.666 -29.927 -10.797  1.00 23.17 LIG 0.02  C 
BRANCH 48 49
ATOM     49  CD  ARG C1705     -17.982 -30.685 -12.088  1.00 21.38 LIG 0.14  C 
BRANCH 49 50
ATOM     50  NE  ARG C1705     -19.365 -31.168 -12.131  1.00 20.43 LIG-0.23  N 
ATOM     51  CZ  ARG C1705     -20.127 -31.212 -13.223  1.00 19.01 LIG 0.67  C 
ATOM     52  NH1 ARG C1705     -19.658 -30.802 -14.404  1.00 20.29 LIG-0.23  N 
ATOM     53  NH2 ARG C1705     -21.370 -31.664 -13.134  1.00 19.46 LIG-0.23  N 
ATOM     54 1HH1 ARG C1705     -18.854 -30.504 -14.467  1.00 20.29 LIG 0.17  HD
ATOM     55 2HH1 ARG C1705     -20.161 -30.835 -15.100  1.00 20.29 LIG 0.17  HD
ATOM     56 2HH2 ARG C1705     -21.867 -31.695 -13.835  1.00 19.46 LIG 0.17  HD
ATOM     57 1HH2 ARG C1705     -21.679 -31.927 -12.376  1.00 19.46 LIG 0.17  HD
ATOM     58 HE   ARG C1705     -19.711 -31.445 -11.395  1.00 20.43 LIG 0.18  HD
ENDBRANCH 49 50
ENDBRANCH 48 49
ENDBRANCH 47 48
ENDBRANCH 1 47
TORSDOF 24
ENDMDL
MODEL 13
USER: ADFR SOLUTION from run 182
USER: SCORE 15.600710 LL:  -2.857 LR: -14.823 RR:   0.000 FEB:  -7.664
USER: RMSD 7.642519
USER: SEED 181
USER: STATUS no improvement in best in 8 clusters for 5 generations
USER: GENES 26
USER: genes 0 Translation |==|  0.42495 0.56854 0.44320
USER: genes 1 Rotation |==|  0.67400 0.10035 0.40384 0.72530
USER: genes 2 Torsion [C]-CA--N-[C] |==|  0.70015
USER: genes 3 Torsion [N]-C--CA-[N] |==|  0.17615
USER: genes 4 Torsion [C]-CA--N-[C] |==|  0.77313
USER: genes 5 Torsion [N]-C--CA-[N] |==|  0.42802
USER: genes 6 Torsion [C]-CA--N-[C] |==|  0.66002
USER: genes 7 Torsion [N]-C--CA-[N] |==|  0.05549
USER: genes 8 Torsion [C]-CA--CB-[SG] |==|  0.92709
USER: genes 9 Torsion [CA]-CB--SG-[HG] |==|  0.30728
USER: genes 10 Torsion [N]-CA--C-[N] |==|  0.04391
USER: genes 11 Torsion [C]-N--CA-[C] |==|  0.55556
USER: genes 12 Torsion [N]-CA--C-[N] |==|  0.52996
USER: genes 13 Torsion [C]-N--CA-[CB] |==|  0.27132
USER: genes 14 Torsion [N]-CA--C-[N] |==|  0.36788
USER: genes 15 Torsion [C]-N--CA-[C] |==|  0.21953
USER: genes 16 Torsion [N]-CA--C-[O] |==|  0.60187
USER: genes 17 Torsion [N]-CA--CB-[CG] |==|  0.27473
USER: genes 18 Torsion [CA]-CB--CG-[CD] |==|  0.42473
USER: genes 19 Torsion [CB]-CG--CD-[OE2] |==|  0.76345
USER: genes 20 Torsion [N]-CA--CB-[OG] |==|  0.10804
USER: genes 21 Torsion [CA]-CB--OG-[HG] |==|  0.40416
USER: genes 22 Torsion [N]-CA--CB-[CG] |==|  0.66932
USER: genes 23 Torsion [CA]-CB--CG-[CD] |==|  0.47542
USER: genes 24 Torsion [CB]-CG--CD-[NE] |==|  0.13041
USER: genes 25 Torsion [CG]-CD--NE-[CZ] |==|  0.56034
ROOT
ATOM      1  CA  ARG C1705     -14.762 -26.260  -9.277  1.00 19.53 LIG 0.18  C 
ENDROOT
BRANCH 1 2
ATOM      2  N   ARG C1705     -15.122 -27.615  -8.849  1.00 19.64 LIG-0.35  N 
ATOM      3 H    ARG C1705     -14.825 -27.853  -8.078  1.00 19.64 LIG 0.16  HD
ATOM      4  C   ALA C1704     -15.861 -28.370  -9.654  1.00 22.93 LIG 0.24  C 
ATOM      5 O    ALA C1704     -16.206 -27.990 -10.781  1.00 21.24 LIG-0.27  OA
BRANCH 4 6
ATOM      6  CA  ALA C1704     -16.267 -29.754  -9.147  1.00 20.87 LIG 0.17  C 
ATOM      7  CB  ALA C1704     -16.925 -30.570 -10.243  1.00 18.21 LIG 0.04  C 
BRANCH 6 8
ATOM      8  N   ALA C1704     -17.120 -29.697  -7.969  1.00 22.42 LIG-0.35  N 
ATOM      9  C   CYS C1703     -16.597 -29.530  -6.759  1.00 22.90 LIG 0.24  C 
ATOM     10 O    CYS C1703     -15.399 -29.336  -6.566  1.00 23.45 LIG-0.27  OA
ATOM     11 H    ALA C1704     -17.961 -29.778  -8.128  1.00 22.42 LIG 0.16  HD
BRANCH 9 12
ATOM     12  CA  CYS C1703     -17.570 -29.588  -5.589  1.00 24.41 LIG 0.18  C 
BRANCH 12 13
ATOM     13  N   CYS C1703     -16.887 -30.003  -4.363  1.00 24.32 LIG-0.34  N 
ATOM     14  C   GLY C1702     -17.297 -31.081  -3.697  1.00 24.70 LIG 0.25  C 
ATOM     15 O    GLY C1702     -18.293 -31.724  -4.031  1.00 27.37 LIG-0.27  OA
ATOM     16 H    CYS C1703     -16.227 -29.504  -4.128  1.00 24.32 LIG 0.16  HD
BRANCH 14 17
ATOM     17  CA  GLY C1702     -16.482 -31.499  -2.486  1.00 25.50 LIG 0.47  C 
ATOM     18  N   GLY C1702     -15.661 -30.415  -1.970  1.00 32.41 LIG 0.61  N 
ENDBRANCH 14 17
ENDBRANCH 12 13
BRANCH 12 19
ATOM     19  CB  CYS C1703     -18.286 -28.238  -5.407  1.00 19.88 LIG 0.10  C 
BRANCH 19 20
ATOM     20 SG   CYS C1703     -17.386 -26.792  -6.004  1.00 23.51 LIG-0.18  SA
ATOM     21 HG   CYS C1703     -17.938 -26.348  -6.972  1.00 23.51 LIG 0.10  HD
ENDBRANCH 19 20
ENDBRANCH 12 19
ENDBRANCH 9 12
ENDBRANCH 6 8
ENDBRANCH 4 6
ENDBRANCH 1 2
BRANCH 1 22
ATOM     22  C   ARG C1705     -13.282 -26.097  -9.664  1.00 20.76 LIG 0.24  C 
ATOM     23 O    ARG C1705     -12.779 -24.971  -9.753  1.00 22.20 LIG-0.27  OA
ATOM     24  N   SER C1706     -12.582 -27.207  -9.885  1.00 20.62 LIG-0.34  N 
ATOM     25 H    SER C1706     -12.906 -28.003  -9.840  1.00 20.62 LIG 0.16  HD
BRANCH 24 26
ATOM     26  CA  SER C1706     -11.167 -27.140 -10.234  1.00 20.36 LIG 0.20  C 
BRANCH 26 27
ATOM     27  C   SER C1706     -10.700 -28.427 -10.907  1.00 23.85 LIG 0.24  C 
ATOM     28 O    SER C1706     -11.514 -29.279 -11.263  1.00 24.92 LIG-0.27  OA
ATOM     29  N   GLU C1707      -9.391 -28.568 -11.068  1.00 21.35 LIG-0.35  N 
ATOM     30 H    GLU C1707      -8.812 -27.970 -10.853  1.00 21.35 LIG 0.16  HD
BRANCH 29 31
ATOM     31  CA  GLU C1707      -8.820 -29.787 -11.640  1.00 28.80 LIG 0.18  C 
BRANCH 31 32
ATOM     32  C   GLU C1707      -7.533 -30.157 -10.916  1.00 29.29 LIG 0.24  C 
ATOM     33 O    GLU C1707      -6.665 -29.309 -10.704  1.00 32.31 LIG-0.27  OA
ATOM     34  N   GLY C1708      -7.419 -31.429 -10.543  1.00 26.36 LIG-0.35  N 
ATOM     35 H    GLY C1708      -8.008 -32.032 -10.712  1.00 26.36 LIG 0.16  HD
BRANCH 34 36
ATOM     36  CA  GLY C1708      -6.268 -31.911  -9.806  1.00 26.05 LIG 0.21  C 
BRANCH 36 37
ATOM     37  C   GLY C1708      -6.322 -31.578  -8.331  1.00 34.75 LIG 0.21  C 
ATOM     38 O    GLY C1708      -5.305 -31.282  -7.713  1.00 36.48 LIG-0.29  OA
ENDBRANCH 36 37
ENDBRANCH 34 36
ENDBRANCH 31 32
BRANCH 31 39
ATOM     39  CB  GLU C1707      -8.525 -29.620 -13.133  1.00 30.33 LIG 0.04  C 
BRANCH 39 40
ATOM     40  CG  GLU C1707      -7.074 -29.304 -13.453  1.00 34.25 LIG 0.12  C 
BRANCH 40 41
ATOM     41  CD  GLU C1707      -6.661 -29.774 -14.840  1.00 39.35 LIG 0.17  C 
ATOM     42 OE2  GLU C1707      -6.283 -30.958 -14.977  1.00 42.40 LIG-0.65  OA
ATOM     43 OE1  GLU C1707      -6.714 -28.959 -15.789  1.00 45.84 LIG-0.65  OA
ENDBRANCH 40 41
ENDBRANCH 39 40
ENDBRANCH 31 39
ENDBRANCH 29 31
ENDBRANCH 26 27
BRANCH 26 44
ATOM     44  CB  SER C1706     -10.306 -26.832  -9.004  1.00 19.38 LIG 0.20  C 
BRANCH 44 45
ATOM     45 OG   SER C1706     -10.783 -27.511  -7.849  1.00 20.52 LIG-0.40  OA
ATOM     46 HG   SER C1706     -10.133 -27.731  -7.365  1.00 20.52 LIG 0.21  HD
ENDBRANCH 44 45
ENDBRANCH 26 44
ENDBRANCH 24 26
ENDBRANCH 1 22
BRANCH 1 47
ATOM     47  CB  ARG C1705     -15.174 -25.213  -8.234  1.00 21.30 LIG 0.04  C 
BRANCH 47 48
ATOM     48  CG  ARG C1705     -16.177 -24.195  -8.781  1.00 23.17 LIG 0.02  C 
BRANCH 48 49
ATOM     49  CD  ARG C1705     -16.754 -23.285  -7.695  1.00 21.38 LIG 0.14  C 
BRANCH 49 50
ATOM     50  NE  ARG C1705     -15.719 -22.741  -6.811  1.00 20.43 LIG-0.23  N 
ATOM     51  CZ  ARG C1705     -15.930 -22.278  -5.580  1.00 19.01 LIG 0.67  C 
ATOM     52  NH1 ARG C1705     -17.153 -22.282  -5.045  1.00 20.29 LIG-0.23  N 
ATOM     53  NH2 ARG C1705     -14.911 -21.803  -4.877  1.00 19.46 LIG-0.23  N 
ATOM     54 1HH1 ARG C1705     -17.819 -22.586  -5.497  1.00 20.29 LIG 0.17  HD
ATOM     55 2HH1 ARG C1705     -17.275 -21.980  -4.250  1.00 20.29 LIG 0.17  HD
ATOM     56 2HH2 ARG C1705     -15.040 -21.503  -4.081  1.00 19.46 LIG 0.17  HD
ATOM     57 1HH2 ARG C1705     -14.121 -21.795  -5.216  1.00 19.46 LIG 0.17  HD
ATOM     58 HE   ARG C1705     -14.913 -22.719  -7.110  1.00 20.43 LIG 0.18  HD
ENDBRANCH 49 50
ENDBRANCH 48 49
ENDBRANCH 47 48
ENDBRANCH 1 47
TORSDOF 24
ENDMDL
MODEL 14
USER: ADFR SOLUTION from run 50
USER: SCORE 17.121790 LL:  -4.002 LR: -14.805 RR:   0.000 FEB:  -7.645
USER: RMSD 4.242575
USER: SEED 49
USER: STATUS 1 or 2 clusters left
USER: GENES 26
USER: genes 0 Translation |==|  0.36074 0.57770 0.56694
USER: genes 1 Rotation |==|  0.25995 0.61383 0.56181 0.91905
USER: genes 2 Torsion [C]-CA--N-[C] |==|  0.15535
USER: genes 3 Torsion [N]-C--CA-[N] |==|  0.22928
USER: genes 4 Torsion [C]-CA--N-[C] |==|  0.82724
USER: genes 5 Torsion [N]-C--CA-[N] |==|  0.04923
USER: genes 6 Torsion [C]-CA--N-[C] |==|  0.71443
USER: genes 7 Torsion [N]-C--CA-[N] |==|  0.78398
USER: genes 8 Torsion [C]-CA--CB-[SG] |==|  0.91805
USER: genes 9 Torsion [CA]-CB--SG-[HG] |==|  0.89943
USER: genes 10 Torsion [N]-CA--C-[N] |==|  0.12127
USER: genes 11 Torsion [C]-N--CA-[C] |==|  0.18164
USER: genes 12 Torsion [N]-CA--C-[N] |==|  0.18309
USER: genes 13 Torsion [C]-N--CA-[CB] |==|  0.88682
USER: genes 14 Torsion [N]-CA--C-[N] |==|  0.85172
USER: genes 15 Torsion [C]-N--CA-[C] |==|  0.68085
USER: genes 16 Torsion [N]-CA--C-[O] |==|  0.80854
USER: genes 17 Torsion [N]-CA--CB-[CG] |==|  0.48142
USER: genes 18 Torsion [CA]-CB--CG-[CD] |==|  0.61987
USER: genes 19 Torsion [CB]-CG--CD-[OE2] |==|  0.67188
USER: genes 20 Torsion [N]-CA--CB-[OG] |==|  0.96498
USER: genes 21 Torsion [CA]-CB--OG-[HG] |==|  0.53971
USER: genes 22 Torsion [N]-CA--CB-[CG] |==|  0.80006
USER: genes 23 Torsion [CA]-CB--CG-[CD] |==|  0.80943
USER: genes 24 Torsion [CB]-CG--CD-[NE] |==|  0.30501
USER: genes 25 Torsion [CG]-CD--NE-[CZ] |==|  0.55262
ROOT
ATOM      1  CA  ARG C1705     -15.918 -26.054  -7.050  1.00 19.53 LIG 0.18  C 
ENDROOT
BRANCH 1 2
ATOM      2  N   ARG C1705     -14.488 -26.255  -7.302  1.00 19.64 LIG-0.35  N 
ATOM      3 H    ARG C1705     -13.957 -25.729  -6.876  1.00 19.64 LIG 0.16  HD
ATOM      4  C   ALA C1704     -14.110 -27.209  -8.146  1.00 22.93 LIG 0.24  C 
ATOM      5 O    ALA C1704     -14.927 -27.893  -8.775  1.00 21.24 LIG-0.27  OA
BRANCH 4 6
ATOM      6  CA  ALA C1704     -12.609 -27.429  -8.335  1.00 20.87 LIG 0.17  C 
ATOM      7  CB  ALA C1704     -12.305 -27.994  -9.709  1.00 18.21 LIG 0.04  C 
BRANCH 6 8
ATOM      8  N   ALA C1704     -12.024 -28.265  -7.297  1.00 22.42 LIG-0.35  N 
ATOM      9  C   CYS C1703     -12.038 -27.879  -6.026  1.00 22.90 LIG 0.24  C 
ATOM     10 O    CYS C1703     -12.602 -26.858  -5.640  1.00 23.45 LIG-0.27  OA
ATOM     11 H    ALA C1704     -11.684 -29.003  -7.578  1.00 22.42 LIG 0.16  HD
BRANCH 9 12
ATOM     12  CA  CYS C1703     -11.309 -28.781  -5.039  1.00 24.41 LIG 0.18  C 
BRANCH 12 13
ATOM     13  N   CYS C1703     -10.386 -29.677  -5.736  1.00 24.32 LIG-0.34  N 
ATOM     14  C   GLY C1702     -10.708 -30.955  -5.929  1.00 24.70 LIG 0.25  C 
ATOM     15 O    GLY C1702     -11.741 -31.451  -5.477  1.00 27.37 LIG-0.27  OA
ATOM     16 H    CYS C1703      -9.651 -29.313  -5.995  1.00 24.32 LIG 0.16  HD
BRANCH 14 17
ATOM     17  CA  GLY C1702      -9.740 -31.799  -6.740  1.00 25.50 LIG 0.47  C 
ATOM     18  N   GLY C1702      -9.855 -31.553  -8.170  1.00 32.41 LIG 0.61  N 
ENDBRANCH 14 17
ENDBRANCH 12 13
BRANCH 12 19
ATOM     19  CB  CYS C1703     -10.584 -27.945  -3.968  1.00 19.88 LIG 0.10  C 
BRANCH 19 20
ATOM     20 SG   CYS C1703     -10.034 -26.309  -4.497  1.00 23.51 LIG-0.18  SA
ATOM     21 HG   CYS C1703      -9.671 -26.359  -5.640  1.00 23.51 LIG 0.10  HD
ENDBRANCH 19 20
ENDBRANCH 12 19
ENDBRANCH 9 12
ENDBRANCH 6 8
ENDBRANCH 4 6
ENDBRANCH 1 2
BRANCH 1 22
ATOM     22  C   ARG C1705     -16.651 -27.313  -6.560  1.00 20.76 LIG 0.24  C 
ATOM     23 O    ARG C1705     -17.755 -27.616  -7.027  1.00 22.20 LIG-0.27  OA
ATOM     24  N   SER C1706     -16.046 -28.051  -5.631  1.00 20.62 LIG-0.34  N 
ATOM     25 H    SER C1706     -15.283 -27.861  -5.282  1.00 20.62 LIG 0.16  HD
BRANCH 24 26
ATOM     26  CA  SER C1706     -16.664 -29.273  -5.129  1.00 20.36 LIG 0.20  C 
BRANCH 26 27
ATOM     27  C   SER C1706     -16.769 -30.331  -6.223  1.00 23.85 LIG 0.24  C 
ATOM     28 O    SER C1706     -17.870 -30.705  -6.630  1.00 24.92 LIG-0.27  OA
ATOM     29  N   GLU C1707     -15.625 -30.817  -6.687  1.00 21.35 LIG-0.35  N 
ATOM     30 H    GLU C1707     -14.849 -30.545  -6.435  1.00 21.35 LIG 0.16  HD
BRANCH 29 31
ATOM     31  CA  GLU C1707     -15.599 -31.882  -7.689  1.00 28.80 LIG 0.18  C 
BRANCH 31 32
ATOM     32  C   GLU C1707     -15.828 -31.306  -9.078  1.00 29.29 LIG 0.24  C 
ATOM     33 O    GLU C1707     -15.034 -31.537  -9.993  1.00 32.31 LIG-0.27  OA
ATOM     34  N   GLY C1708     -16.914 -30.553  -9.226  1.00 26.36 LIG-0.35  N 
ATOM     35 H    GLY C1708     -17.456 -30.365  -8.586  1.00 26.36 LIG 0.16  HD
BRANCH 34 36
ATOM     36  CA  GLY C1708     -17.279 -29.976 -10.505  1.00 26.05 LIG 0.21  C 
BRANCH 36 37
ATOM     37  C   GLY C1708     -17.224 -28.464 -10.513  1.00 34.75 LIG 0.21  C 
ATOM     38 O    GLY C1708     -18.030 -27.800  -9.871  1.00 36.48 LIG-0.29  OA
ENDBRANCH 36 37
ENDBRANCH 34 36
ENDBRANCH 31 32
BRANCH 31 39
ATOM     39  CB  GLU C1707     -16.666 -32.944  -7.404  1.00 30.33 LIG 0.04  C 
BRANCH 39 40
ATOM     40  CG  GLU C1707     -16.805 -33.998  -8.490  1.00 34.25 LIG 0.12  C 
BRANCH 40 41
ATOM     41  CD  GLU C1707     -18.256 -34.321  -8.812  1.00 39.35 LIG 0.17  C 
ATOM     42 OE2  GLU C1707     -18.661 -35.488  -8.618  1.00 42.40 LIG-0.65  OA
ATOM     43 OE1  GLU C1707     -18.988 -33.410  -9.260  1.00 45.84 LIG-0.65  OA
ENDBRANCH 40 41
ENDBRANCH 39 40
ENDBRANCH 31 39
ENDBRANCH 29 31
ENDBRANCH 26 27
BRANCH 26 44
ATOM     44  CB  SER C1706     -18.042 -28.989  -4.521  1.00 19.38 LIG 0.20  C 
BRANCH 44 45
ATOM     45 OG   SER C1706     -18.254 -27.595  -4.333  1.00 20.52 LIG-0.40  OA
ATOM     46 HG   SER C1706     -18.915 -27.477  -3.829  1.00 20.52 LIG 0.21  HD
ENDBRANCH 44 45
ENDBRANCH 26 44
ENDBRANCH 24 26
ENDBRANCH 1 22
BRANCH 1 47
ATOM     47  CB  ARG C1705     -16.624 -25.449  -8.271  1.00 21.30 LIG 0.04  C 
BRANCH 47 48
ATOM     48  CG  ARG C1705     -16.262 -23.980  -8.497  1.00 23.17 LIG 0.02  C 
BRANCH 48 49
ATOM     49  CD  ARG C1705     -16.819 -23.056  -7.411  1.00 21.38 LIG 0.14  C 
BRANCH 49 50
ATOM     50  NE  ARG C1705     -15.770 -22.514  -6.544  1.00 20.43 LIG-0.23  N 
ATOM     51  CZ  ARG C1705     -15.970 -21.992  -5.335  1.00 19.01 LIG 0.67  C 
ATOM     52  NH1 ARG C1705     -17.195 -21.928  -4.809  1.00 20.29 LIG-0.23  N 
ATOM     53  NH2 ARG C1705     -14.938 -21.526  -4.645  1.00 19.46 LIG-0.23  N 
ATOM     54 1HH1 ARG C1705     -17.870 -22.226  -5.253  1.00 20.29 LIG 0.17  HD
ATOM     55 2HH1 ARG C1705     -17.311 -21.588  -4.028  1.00 20.29 LIG 0.17  HD
ATOM     56 2HH2 ARG C1705     -15.060 -21.188  -3.864  1.00 19.46 LIG 0.17  HD
ATOM     57 1HH2 ARG C1705     -14.146 -21.561  -4.979  1.00 19.46 LIG 0.17  HD
ATOM     58 HE   ARG C1705     -14.962 -22.535  -6.838  1.00 20.43 LIG 0.18  HD
ENDBRANCH 49 50
ENDBRANCH 48 49
ENDBRANCH 47 48
ENDBRANCH 1 47
TORSDOF 24
ENDMDL
MODEL 15
USER: ADFR SOLUTION from run 110
USER: SCORE 16.962213 LL:  -3.924 LR: -14.801 RR:   0.000 FEB:  -7.641
USER: RMSD 6.608484
USER: SEED 109
USER: STATUS no improvement in best in 4 clusters for 5 generations
USER: GENES 26
USER: genes 0 Translation |==|  0.45092 0.55731 0.44751
USER: genes 1 Rotation |==|  0.63309 0.11914 0.44786 0.79071
USER: genes 2 Torsion [C]-CA--N-[C] |==|  0.73526
USER: genes 3 Torsion [N]-C--CA-[N] |==|  0.90569
USER: genes 4 Torsion [C]-CA--N-[C] |==|  0.84592
USER: genes 5 Torsion [N]-C--CA-[N] |==|  0.48015
USER: genes 6 Torsion [C]-CA--N-[C] |==|  0.76780
USER: genes 7 Torsion [N]-C--CA-[N] |==|  0.16202
USER: genes 8 Torsion [C]-CA--CB-[SG] |==|  0.83581
USER: genes 9 Torsion [CA]-CB--SG-[HG] |==|  0.74796
USER: genes 10 Torsion [N]-CA--C-[N] |==|  0.99585
USER: genes 11 Torsion [C]-N--CA-[C] |==|  0.61009
USER: genes 12 Torsion [N]-CA--C-[N] |==|  0.53249
USER: genes 13 Torsion [C]-N--CA-[CB] |==|  0.26995
USER: genes 14 Torsion [N]-CA--C-[N] |==|  0.40091
USER: genes 15 Torsion [C]-N--CA-[C] |==|  0.19149
USER: genes 16 Torsion [N]-CA--C-[O] |==|  0.31811
USER: genes 17 Torsion [N]-CA--CB-[CG] |==|  0.34419
USER: genes 18 Torsion [CA]-CB--CG-[CD] |==|  0.71700
USER: genes 19 Torsion [CB]-CG--CD-[OE2] |==|  0.26922
USER: genes 20 Torsion [N]-CA--CB-[OG] |==|  0.84094
USER: genes 21 Torsion [CA]-CB--OG-[HG] |==|  0.16126
USER: genes 22 Torsion [N]-CA--CB-[CG] |==|  0.85475
USER: genes 23 Torsion [CA]-CB--CG-[CD] |==|  0.62067
USER: genes 24 Torsion [CB]-CG--CD-[NE] |==|  0.81746
USER: genes 25 Torsion [CG]-CD--NE-[CZ] |==|  0.69359
ROOT
ATOM      1  CA  ARG C1705     -14.294 -26.513  -9.200  1.00 19.53 LIG 0.18  C 
ENDROOT
BRANCH 1 2
ATOM      2  N   ARG C1705     -14.482 -27.684  -8.339  1.00 19.64 LIG-0.35  N 
ATOM      3 H    ARG C1705     -14.158 -27.618  -7.545  1.00 19.64 LIG 0.16  HD
ATOM      4  C   ALA C1704     -15.121 -28.744  -8.822  1.00 22.93 LIG 0.24  C 
ATOM      5 O    ALA C1704     -15.510 -28.799  -9.996  1.00 21.24 LIG-0.27  OA
BRANCH 4 6
ATOM      6  CA  ALA C1704     -15.351 -29.921  -7.875  1.00 20.87 LIG 0.17  C 
ATOM      7  CB  ALA C1704     -16.680 -29.796  -7.155  1.00 18.21 LIG 0.04  C 
BRANCH 6 8
ATOM      8  N   ALA C1704     -14.266 -30.100  -6.921  1.00 22.42 LIG-0.35  N 
ATOM      9  C   CYS C1703     -13.013 -30.248  -7.337  1.00 22.90 LIG 0.24  C 
ATOM     10 O    CYS C1703     -12.683 -30.164  -8.518  1.00 23.45 LIG-0.27  OA
ATOM     11 H    ALA C1704     -14.508 -30.100  -6.096  1.00 22.42 LIG 0.16  HD
BRANCH 9 12
ATOM     12  CA  CYS C1703     -11.973 -30.531  -6.261  1.00 24.41 LIG 0.18  C 
BRANCH 12 13
ATOM     13  N   CYS C1703     -10.675 -30.839  -6.860  1.00 24.32 LIG-0.34  N 
ATOM     14  C   GLY C1702     -10.404 -32.075  -7.278  1.00 24.70 LIG 0.25  C 
ATOM     15 O    GLY C1702     -11.187 -33.012  -7.118  1.00 27.37 LIG-0.27  OA
ATOM     16 H    CYS C1703     -10.131 -30.175  -6.912  1.00 24.32 LIG 0.16  HD
BRANCH 14 17
ATOM     17  CA  GLY C1702      -9.071 -32.295  -7.971  1.00 25.50 LIG 0.47  C 
ATOM     18  N   GLY C1702      -7.942 -31.927  -7.130  1.00 32.41 LIG 0.61  N 
ENDBRANCH 14 17
ENDBRANCH 12 13
BRANCH 12 19
ATOM     19  CB  CYS C1703     -11.875 -29.354  -5.274  1.00 19.88 LIG 0.10  C 
BRANCH 19 20
ATOM     20 SG   CYS C1703     -11.430 -27.763  -6.001  1.00 23.51 LIG-0.18  SA
ATOM     21 HG   CYS C1703     -10.237 -27.634  -5.983  1.00 23.51 LIG 0.10  HD
ENDBRANCH 19 20
ENDBRANCH 12 19
ENDBRANCH 9 12
ENDBRANCH 6 8
ENDBRANCH 4 6
ENDBRANCH 1 2
BRANCH 1 22
ATOM     22  C   ARG C1705     -12.938 -26.478  -9.923  1.00 20.76 LIG 0.24  C 
ATOM     23 O    ARG C1705     -12.664 -25.552 -10.695  1.00 22.20 LIG-0.27  OA
ATOM     24  N   SER C1706     -12.086 -27.471  -9.674  1.00 20.62 LIG-0.34  N 
ATOM     25 H    SER C1706     -12.251 -28.132  -9.149  1.00 20.62 LIG 0.16  HD
BRANCH 24 26
ATOM     26  CA  SER C1706     -10.770 -27.500 -10.302  1.00 20.36 LIG 0.20  C 
BRANCH 26 27
ATOM     27  C   SER C1706     -10.386 -28.916 -10.719  1.00 23.85 LIG 0.24  C 
ATOM     28 O    SER C1706     -11.219 -29.822 -10.702  1.00 24.92 LIG-0.27  OA
ATOM     29  N   GLU C1707      -9.122 -29.104 -11.078  1.00 21.35 LIG-0.35  N 
ATOM     30 H    GLU C1707      -8.536 -28.476 -11.124  1.00 21.35 LIG 0.16  HD
BRANCH 29 31
ATOM     31  CA  GLU C1707      -8.619 -30.430 -11.434  1.00 28.80 LIG 0.18  C 
BRANCH 31 32
ATOM     32  C   GLU C1707      -7.207 -30.620 -10.902  1.00 29.29 LIG 0.24  C 
ATOM     33 O    GLU C1707      -6.413 -29.677 -10.877  1.00 32.31 LIG-0.27  OA
ATOM     34  N   GLY C1708      -6.901 -31.844 -10.482  1.00 26.36 LIG-0.35  N 
ATOM     35 H    GLY C1708      -7.441 -32.512 -10.523  1.00 26.36 LIG 0.16  HD
BRANCH 34 36
ATOM     36  CA  GLY C1708      -5.606 -32.157  -9.909  1.00 26.05 LIG 0.21  C 
BRANCH 36 37
ATOM     37  C   GLY C1708      -5.384 -31.517  -8.556  1.00 34.75 LIG 0.21  C 
ATOM     38 O    GLY C1708      -5.269 -32.203  -7.545  1.00 36.48 LIG-0.29  OA
ENDBRANCH 36 37
ENDBRANCH 34 36
ENDBRANCH 31 32
BRANCH 31 39
ATOM     39  CB  GLU C1707      -8.616 -30.639 -12.952  1.00 30.33 LIG 0.04  C 
BRANCH 39 40
ATOM     40  CG  GLU C1707      -7.263 -31.015 -13.529  1.00 34.25 LIG 0.12  C 
BRANCH 40 41
ATOM     41  CD  GLU C1707      -6.562 -29.843 -14.199  1.00 39.35 LIG 0.17  C 
ATOM     42 OE2  GLU C1707      -5.710 -29.207 -13.542  1.00 42.40 LIG-0.65  OA
ATOM     43 OE1  GLU C1707      -6.866 -29.559 -15.380  1.00 45.84 LIG-0.65  OA
ENDBRANCH 40 41
ENDBRANCH 39 40
ENDBRANCH 31 39
ENDBRANCH 29 31
ENDBRANCH 26 27
BRANCH 26 44
ATOM     44  CB  SER C1706      -9.701 -26.901  -9.380  1.00 19.38 LIG 0.20  C 
BRANCH 44 45
ATOM     45 OG   SER C1706     -10.022 -25.566  -9.005  1.00 20.52 LIG-0.40  OA
ATOM     46 HG   SER C1706     -10.769 -25.555  -8.623  1.00 20.52 LIG 0.21  HD
ENDBRANCH 44 45
ENDBRANCH 26 44
ENDBRANCH 24 26
ENDBRANCH 1 22
BRANCH 1 47
ATOM     47  CB  ARG C1705     -14.540 -25.206  -8.433  1.00 21.30 LIG 0.04  C 
BRANCH 47 48
ATOM     48  CG  ARG C1705     -15.887 -25.190  -7.708  1.00 23.17 LIG 0.02  C 
BRANCH 48 49
ATOM     49  CD  ARG C1705     -16.630 -23.862  -7.860  1.00 21.38 LIG 0.14  C 
BRANCH 49 50
ATOM     50  NE  ARG C1705     -15.932 -22.750  -7.209  1.00 20.43 LIG-0.23  N 
ATOM     51  CZ  ARG C1705     -16.351 -22.119  -6.114  1.00 19.01 LIG 0.67  C 
ATOM     52  NH1 ARG C1705     -17.486 -22.476  -5.508  1.00 20.29 LIG-0.23  N 
ATOM     53  NH2 ARG C1705     -15.634 -21.119  -5.620  1.00 19.46 LIG-0.23  N 
ATOM     54 1HH1 ARG C1705     -17.958 -23.122  -5.825  1.00 20.29 LIG 0.17  HD
ATOM     55 2HH1 ARG C1705     -17.746 -22.060  -4.802  1.00 20.29 LIG 0.17  HD
ATOM     56 2HH2 ARG C1705     -15.899 -20.708  -4.913  1.00 19.46 LIG 0.17  HD
ATOM     57 1HH2 ARG C1705     -14.903 -20.882  -6.007  1.00 19.46 LIG 0.17  HD
ATOM     58 HE   ARG C1705     -15.194 -22.485  -7.561  1.00 20.43 LIG 0.18  HD
ENDBRANCH 49 50
ENDBRANCH 48 49
ENDBRANCH 47 48
ENDBRANCH 1 47
TORSDOF 24
ENDMDL
MODEL 16
USER: ADFR SOLUTION from run 30
USER: SCORE 16.897028 LL:  -3.825 LR: -14.755 RR:   0.000 FEB:  -7.596
USER: RMSD 3.956273
USER: SEED 29
USER: STATUS no improvement in best in 13 clusters for 5 generations
USER: GENES 26
USER: genes 0 Translation |==|  0.39107 0.60675 0.54976
USER: genes 1 Rotation |==|  0.48529 0.71545 0.59219 0.94144
USER: genes 2 Torsion [C]-CA--N-[C] |==|  0.14521
USER: genes 3 Torsion [N]-C--CA-[N] |==|  0.04008
USER: genes 4 Torsion [C]-CA--N-[C] |==|  0.19381
USER: genes 5 Torsion [N]-C--CA-[N] |==|  0.43208
USER: genes 6 Torsion [C]-CA--N-[C] |==|  0.84119
USER: genes 7 Torsion [N]-C--CA-[N] |==|  0.11002
USER: genes 8 Torsion [C]-CA--CB-[SG] |==|  0.74971
USER: genes 9 Torsion [CA]-CB--SG-[HG] |==|  0.73664
USER: genes 10 Torsion [N]-CA--C-[N] |==|  0.10000
USER: genes 11 Torsion [C]-N--CA-[C] |==|  0.77715
USER: genes 12 Torsion [N]-CA--C-[N] |==|  0.54191
USER: genes 13 Torsion [C]-N--CA-[CB] |==|  0.54716
USER: genes 14 Torsion [N]-CA--C-[N] |==|  0.32219
USER: genes 15 Torsion [C]-N--CA-[C] |==|  0.25002
USER: genes 16 Torsion [N]-CA--C-[O] |==|  0.26583
USER: genes 17 Torsion [N]-CA--CB-[CG] |==|  0.10359
USER: genes 18 Torsion [CA]-CB--CG-[CD] |==|  0.70538
USER: genes 19 Torsion [CB]-CG--CD-[OE2] |==|  0.69122
USER: genes 20 Torsion [N]-CA--CB-[OG] |==|  0.92256
USER: genes 21 Torsion [CA]-CB--OG-[HG] |==|  0.12331
USER: genes 22 Torsion [N]-CA--CB-[CG] |==|  0.54977
USER: genes 23 Torsion [CA]-CB--CG-[CD] |==|  0.45872
USER: genes 24 Torsion [CB]-CG--CD-[NE] |==|  0.64893
USER: genes 25 Torsion [CG]-CD--NE-[CZ] |==|  0.22851
ROOT
ATOM      1  CA  ARG C1705     -15.372 -25.400  -7.359  1.00 19.53 LIG 0.18  C 
ENDROOT
BRANCH 1 2
ATOM      2  N   ARG C1705     -14.353 -25.457  -8.411  1.00 19.64 LIG-0.35  N 
ATOM      3 H    ARG C1705     -13.537 -25.429  -8.141  1.00 19.64 LIG 0.16  HD
ATOM      4  C   ALA C1704     -14.739 -25.545  -9.679  1.00 22.93 LIG 0.24  C 
ATOM      5 O    ALA C1704     -15.932 -25.519 -10.007  1.00 21.24 LIG-0.27  OA
BRANCH 4 6
ATOM      6  CA  ALA C1704     -13.648 -25.664 -10.743  1.00 20.87 LIG 0.17  C 
ATOM      7  CB  ALA C1704     -14.035 -26.659 -11.819  1.00 18.21 LIG 0.04  C 
BRANCH 6 8
ATOM      8  N   ALA C1704     -12.346 -25.996 -10.182  1.00 22.42 LIG-0.35  N 
ATOM      9  C   CYS C1703     -12.114 -27.199  -9.667  1.00 22.90 LIG 0.24  C 
ATOM     10 O    CYS C1703     -12.934 -28.114  -9.703  1.00 23.45 LIG-0.27  OA
ATOM     11 H    ALA C1704     -11.766 -25.362 -10.217  1.00 22.42 LIG 0.16  HD
BRANCH 9 12
ATOM     12  CA  CYS C1703     -10.752 -27.404  -9.017  1.00 24.41 LIG 0.18  C 
BRANCH 12 13
ATOM     13  N   CYS C1703     -10.806 -28.477  -8.023  1.00 24.32 LIG-0.34  N 
ATOM     14  C   GLY C1702     -11.666 -28.408  -7.008  1.00 24.70 LIG 0.25  C 
ATOM     15 O    GLY C1702     -12.388 -27.428  -6.819  1.00 27.37 LIG-0.27  OA
ATOM     16 H    CYS C1703     -10.255 -29.123  -8.155  1.00 24.32 LIG 0.16  HD
BRANCH 14 17
ATOM     17  CA  GLY C1702     -11.726 -29.601  -6.070  1.00 25.50 LIG 0.47  C 
ATOM     18  N   GLY C1702     -10.410 -30.158  -5.797  1.00 32.41 LIG 0.61  N 
ENDBRANCH 14 17
ENDBRANCH 12 13
BRANCH 12 19
ATOM     19  CB  CYS C1703      -9.674 -27.676 -10.082  1.00 19.88 LIG 0.10  C 
BRANCH 19 20
ATOM     20 SG   CYS C1703      -9.420 -29.411 -10.510  1.00 23.51 LIG-0.18  SA
ATOM     21 HG   CYS C1703      -8.517 -29.856  -9.856  1.00 23.51 LIG 0.10  HD
ENDBRANCH 19 20
ENDBRANCH 12 19
ENDBRANCH 9 12
ENDBRANCH 6 8
ENDBRANCH 4 6
ENDBRANCH 1 2
BRANCH 1 22
ATOM     22  C   ARG C1705     -16.411 -26.531  -7.432  1.00 20.76 LIG 0.24  C 
ATOM     23 O    ARG C1705     -17.593 -26.315  -7.141  1.00 22.20 LIG-0.27  OA
ATOM     24  N   SER C1706     -15.984 -27.730  -7.825  1.00 20.62 LIG-0.34  N 
ATOM     25 H    SER C1706     -15.168 -27.913  -8.025  1.00 20.62 LIG 0.16  HD
BRANCH 24 26
ATOM     26  CA  SER C1706     -16.912 -28.850  -7.942  1.00 20.36 LIG 0.20  C 
BRANCH 26 27
ATOM     27  C   SER C1706     -17.195 -29.480  -6.582  1.00 23.85 LIG 0.24  C 
ATOM     28 O    SER C1706     -16.890 -28.893  -5.544  1.00 24.92 LIG-0.27  OA
ATOM     29  N   GLU C1707     -17.765 -30.678  -6.593  1.00 21.35 LIG-0.35  N 
ATOM     30 H    GLU C1707     -18.012 -31.088  -7.308  1.00 21.35 LIG 0.16  HD
BRANCH 29 31
ATOM     31  CA  GLU C1707     -18.025 -31.411  -5.354  1.00 28.80 LIG 0.18  C 
BRANCH 31 32
ATOM     32  C   GLU C1707     -16.842 -31.280  -4.406  1.00 29.29 LIG 0.24  C 
ATOM     33 O    GLU C1707     -15.742 -31.748  -4.706  1.00 32.31 LIG-0.27  OA
ATOM     34  N   GLY C1708     -17.079 -30.646  -3.261  1.00 26.36 LIG-0.35  N 
ATOM     35 H    GLY C1708     -17.851 -30.342  -3.034  1.00 26.36 LIG 0.16  HD
BRANCH 34 36
ATOM     36  CA  GLY C1708     -16.034 -30.410  -2.285  1.00 26.05 LIG 0.21  C 
BRANCH 36 37
ATOM     37  C   GLY C1708     -15.307 -29.099  -2.495  1.00 34.75 LIG 0.21  C 
ATOM     38 O    GLY C1708     -15.634 -28.091  -1.878  1.00 36.48 LIG-0.29  OA
ENDBRANCH 36 37
ENDBRANCH 34 36
ENDBRANCH 31 32
BRANCH 31 39
ATOM     39  CB  GLU C1707     -18.289 -32.895  -5.627  1.00 30.33 LIG 0.04  C 
BRANCH 39 40
ATOM     40  CG  GLU C1707     -17.441 -33.487  -6.739  1.00 34.25 LIG 0.12  C 
BRANCH 40 41
ATOM     41  CD  GLU C1707     -18.232 -33.728  -8.016  1.00 39.35 LIG 0.17  C 
ATOM     42 OE2  GLU C1707     -18.449 -34.908  -8.367  1.00 42.40 LIG-0.65  OA
ATOM     43 OE1  GLU C1707     -18.633 -32.737  -8.669  1.00 45.84 LIG-0.65  OA
ENDBRANCH 40 41
ENDBRANCH 39 40
ENDBRANCH 31 39
ENDBRANCH 29 31
ENDBRANCH 26 27
BRANCH 26 44
ATOM     44  CB  SER C1706     -16.388 -29.903  -8.925  1.00 19.38 LIG 0.20  C 
BRANCH 44 45
ATOM     45 OG   SER C1706     -15.547 -29.323  -9.915  1.00 20.52 LIG-0.40  OA
ATOM     46 HG   SER C1706     -15.017 -28.784  -9.551  1.00 20.52 LIG 0.21  HD
ENDBRANCH 44 45
ENDBRANCH 26 44
ENDBRANCH 24 26
ENDBRANCH 1 22
BRANCH 1 47
ATOM     47  CB  ARG C1705     -16.058 -24.028  -7.315  1.00 21.30 LIG 0.04  C 
BRANCH 47 48
ATOM     48  CG  ARG C1705     -16.790 -23.775  -5.996  1.00 23.17 LIG 0.02  C 
BRANCH 48 49
ATOM     49  CD  ARG C1705     -17.162 -22.305  -5.793  1.00 21.38 LIG 0.14  C 
BRANCH 49 50
ATOM     50  NE  ARG C1705     -16.678 -21.776  -4.514  1.00 20.43 LIG-0.23  N 
ATOM     51  CZ  ARG C1705     -15.443 -21.331  -4.288  1.00 19.01 LIG 0.67  C 
ATOM     52  NH1 ARG C1705     -14.524 -21.337  -5.255  1.00 20.29 LIG-0.23  N 
ATOM     53  NH2 ARG C1705     -15.122 -20.881  -3.083  1.00 19.46 LIG-0.23  N 
ATOM     54 1HH1 ARG C1705     -14.725 -21.631  -6.038  1.00 20.29 LIG 0.17  HD
ATOM     55 2HH1 ARG C1705     -13.730 -21.047  -5.095  1.00 20.29 LIG 0.17  HD
ATOM     56 2HH2 ARG C1705     -14.326 -20.592  -2.930  1.00 19.46 LIG 0.17  HD
ATOM     57 1HH2 ARG C1705     -15.709 -20.878  -2.454  1.00 19.46 LIG 0.17  HD
ATOM     58 HE   ARG C1705     -17.235 -21.750  -3.860  1.00 20.43 LIG 0.18  HD
ENDBRANCH 49 50
ENDBRANCH 48 49
ENDBRANCH 47 48
ENDBRANCH 1 47
TORSDOF 24
ENDMDL
MODEL 17
USER: ADFR SOLUTION from run 150
USER: SCORE 17.376244 LL:  -3.957 LR: -14.689 RR:   0.000 FEB:  -7.530
USER: RMSD 4.377604
USER: SEED 149
USER: STATUS 1 or 2 clusters left
USER: GENES 26
USER: genes 0 Translation |==|  0.38321 0.51515 0.44537
USER: genes 1 Rotation |==|  0.43101 0.29611 0.34303 0.92312
USER: genes 2 Torsion [C]-CA--N-[C] |==|  0.63971
USER: genes 3 Torsion [N]-C--CA-[N] |==|  0.09449
USER: genes 4 Torsion [C]-CA--N-[C] |==|  0.12499
USER: genes 5 Torsion [N]-C--CA-[N] |==|  0.36327
USER: genes 6 Torsion [C]-CA--N-[C] |==|  0.84341
USER: genes 7 Torsion [N]-C--CA-[N] |==|  0.94081
USER: genes 8 Torsion [C]-CA--CB-[SG] |==|  0.75539
USER: genes 9 Torsion [CA]-CB--SG-[HG] |==|  0.85569
USER: genes 10 Torsion [N]-CA--C-[N] |==|  0.81874
USER: genes 11 Torsion [C]-N--CA-[C] |==|  0.82846
USER: genes 12 Torsion [N]-CA--C-[N] |==|  0.92272
USER: genes 13 Torsion [C]-N--CA-[CB] |==|  0.53581
USER: genes 14 Torsion [N]-CA--C-[N] |==|  0.37995
USER: genes 15 Torsion [C]-N--CA-[C] |==|  0.21003
USER: genes 16 Torsion [N]-CA--C-[O] |==|  0.91098
USER: genes 17 Torsion [N]-CA--CB-[CG] |==|  0.67984
USER: genes 18 Torsion [CA]-CB--CG-[CD] |==|  0.73409
USER: genes 19 Torsion [CB]-CG--CD-[OE2] |==|  0.12578
USER: genes 20 Torsion [N]-CA--CB-[OG] |==|  0.59175
USER: genes 21 Torsion [CA]-CB--OG-[HG] |==|  0.93215
USER: genes 22 Torsion [N]-CA--CB-[CG] |==|  0.70190
USER: genes 23 Torsion [CA]-CB--CG-[CD] |==|  0.22371
USER: genes 24 Torsion [CB]-CG--CD-[NE] |==|  0.51782
USER: genes 25 Torsion [CG]-CD--NE-[CZ] |==|  0.28867
ROOT
ATOM      1  CA  ARG C1705     -15.513 -27.461  -9.238  1.00 19.53 LIG 0.18  C 
ENDROOT
BRANCH 1 2
ATOM      2  N   ARG C1705     -15.264 -28.388  -8.130  1.00 19.64 LIG-0.35  N 
ATOM      3 H    ARG C1705     -14.652 -28.976  -8.268  1.00 19.64 LIG 0.16  HD
ATOM      4  C   ALA C1704     -15.976 -28.266  -7.016  1.00 22.93 LIG 0.24  C 
ATOM      5 O    ALA C1704     -16.886 -27.435  -6.904  1.00 21.24 LIG-0.27  OA
BRANCH 4 6
ATOM      6  CA  ALA C1704     -15.645 -29.211  -5.861  1.00 20.87 LIG 0.17  C 
ATOM      7  CB  ALA C1704     -16.137 -28.656  -4.538  1.00 18.21 LIG 0.04  C 
BRANCH 6 8
ATOM      8  N   ALA C1704     -14.228 -29.536  -5.784  1.00 22.42 LIG-0.35  N 
ATOM      9  C   CYS C1703     -13.305 -28.588  -5.908  1.00 22.90 LIG 0.24  C 
ATOM     10 O    CYS C1703     -13.579 -27.394  -6.010  1.00 23.45 LIG-0.27  OA
ATOM     11 H    ALA C1704     -14.055 -30.369  -5.656  1.00 22.42 LIG 0.16  HD
BRANCH 9 12
ATOM     12  CA  CYS C1703     -11.855 -29.054  -5.915  1.00 24.41 LIG 0.18  C 
BRANCH 12 13
ATOM     13  N   CYS C1703     -11.125 -28.466  -7.038  1.00 24.32 LIG-0.34  N 
ATOM     14  C   GLY C1702     -11.560 -28.637  -8.285  1.00 24.70 LIG 0.25  C 
ATOM     15 O    GLY C1702     -12.533 -29.343  -8.554  1.00 27.37 LIG-0.27  OA
ATOM     16 H    CYS C1703     -10.422 -28.021  -6.822  1.00 24.32 LIG 0.16  HD
BRANCH 14 17
ATOM     17  CA  GLY C1702     -10.801 -27.921  -9.388  1.00 25.50 LIG 0.47  C 
ATOM     18  N   GLY C1702     -10.037 -26.789  -8.889  1.00 32.41 LIG 0.61  N 
ENDBRANCH 14 17
ENDBRANCH 12 13
BRANCH 12 19
ATOM     19  CB  CYS C1703     -11.174 -28.738  -4.571  1.00 19.88 LIG 0.10  C 
BRANCH 19 20
ATOM     20 SG   CYS C1703     -10.413 -27.105  -4.448  1.00 23.51 LIG-0.18  SA
ATOM     21 HG   CYS C1703      -9.680 -26.934  -5.382  1.00 23.51 LIG 0.10  HD
ENDBRANCH 19 20
ENDBRANCH 12 19
ENDBRANCH 9 12
ENDBRANCH 6 8
ENDBRANCH 4 6
ENDBRANCH 1 2
BRANCH 1 22
ATOM     22  C   ARG C1705     -15.726 -28.151 -10.596  1.00 20.76 LIG 0.24  C 
ATOM     23 O    ARG C1705     -16.817 -28.076 -11.172  1.00 22.20 LIG-0.27  OA
ATOM     24  N   SER C1706     -14.693 -28.813 -11.114  1.00 20.62 LIG-0.34  N 
ATOM     25 H    SER C1706     -13.925 -28.889 -10.734  1.00 20.62 LIG 0.16  HD
BRANCH 24 26
ATOM     26  CA  SER C1706     -14.806 -29.476 -12.409  1.00 20.36 LIG 0.20  C 
BRANCH 26 27
ATOM     27  C   SER C1706     -15.871 -30.566 -12.383  1.00 23.85 LIG 0.24  C 
ATOM     28 O    SER C1706     -16.481 -30.872 -13.408  1.00 24.92 LIG-0.27  OA
ATOM     29  N   GLU C1707     -16.102 -31.140 -11.208  1.00 21.35 LIG-0.35  N 
ATOM     30 H    GLU C1707     -15.664 -30.958 -10.490  1.00 21.35 LIG 0.16  HD
BRANCH 29 31
ATOM     31  CA  GLU C1707     -17.146 -32.151 -11.044  1.00 28.80 LIG 0.18  C 
BRANCH 31 32
ATOM     32  C   GLU C1707     -18.430 -31.699 -11.724  1.00 29.29 LIG 0.24  C 
ATOM     33 O    GLU C1707     -18.828 -30.538 -11.607  1.00 32.31 LIG-0.27  OA
ATOM     34  N   GLY C1708     -19.072 -32.624 -12.431  1.00 26.36 LIG-0.35  N 
ATOM     35 H    GLY C1708     -18.815 -33.442 -12.493  1.00 26.36 LIG 0.16  HD
BRANCH 34 36
ATOM     36  CA  GLY C1708     -20.284 -32.322 -13.167  1.00 26.05 LIG 0.21  C 
BRANCH 36 37
ATOM     37  C   GLY C1708     -20.028 -31.554 -14.446  1.00 34.75 LIG 0.21  C 
ATOM     38 O    GLY C1708     -19.096 -30.762 -14.529  1.00 36.48 LIG-0.29  OA
ENDBRANCH 36 37
ENDBRANCH 34 36
ENDBRANCH 31 32
BRANCH 31 39
ATOM     39  CB  GLU C1707     -17.431 -32.425  -9.565  1.00 30.33 LIG 0.04  C 
BRANCH 39 40
ATOM     40  CG  GLU C1707     -17.086 -33.834  -9.111  1.00 34.25 LIG 0.12  C 
BRANCH 40 41
ATOM     41  CD  GLU C1707     -18.286 -34.769  -9.133  1.00 39.35 LIG 0.17  C 
ATOM     42 OE2  GLU C1707     -19.034 -34.751 -10.135  1.00 42.40 LIG-0.65  OA
ATOM     43 OE1  GLU C1707     -18.480 -35.517  -8.149  1.00 45.84 LIG-0.65  OA
ENDBRANCH 40 41
ENDBRANCH 39 40
ENDBRANCH 31 39
ENDBRANCH 29 31
ENDBRANCH 26 27
BRANCH 26 44
ATOM     44  CB  SER C1706     -13.457 -30.051 -12.857  1.00 19.38 LIG 0.20  C 
BRANCH 44 45
ATOM     45 OG   SER C1706     -13.313 -30.005 -14.272  1.00 20.52 LIG-0.40  OA
ATOM     46 HG   SER C1706     -14.072 -29.993 -14.631  1.00 20.52 LIG 0.21  HD
ENDBRANCH 44 45
ENDBRANCH 26 44
ENDBRANCH 24 26
ENDBRANCH 1 22
BRANCH 1 47
ATOM     47  CB  ARG C1705     -14.418 -26.391  -9.334  1.00 21.30 LIG 0.04  C 
BRANCH 47 48
ATOM     48  CG  ARG C1705     -14.896 -25.012  -8.876  1.00 23.17 LIG 0.02  C 
BRANCH 48 49
ATOM     49  CD  ARG C1705     -14.894 -24.855  -7.354  1.00 21.38 LIG 0.14  C 
BRANCH 49 50
ATOM     50  NE  ARG C1705     -15.494 -23.590  -6.919  1.00 20.43 LIG-0.23  N 
ATOM     51  CZ  ARG C1705     -16.710 -23.461  -6.392  1.00 19.01 LIG 0.67  C 
ATOM     52  NH1 ARG C1705     -17.498 -24.524  -6.216  1.00 20.29 LIG-0.23  N 
ATOM     53  NH2 ARG C1705     -17.146 -22.259  -6.043  1.00 19.46 LIG-0.23  N 
ATOM     54 1HH1 ARG C1705     -17.222 -25.306  -6.443  1.00 20.29 LIG 0.17  HD
ATOM     55 2HH1 ARG C1705     -18.281 -24.426  -5.875  1.00 20.29 LIG 0.17  HD
ATOM     56 2HH2 ARG C1705     -17.930 -22.168  -5.702  1.00 19.46 LIG 0.17  HD
ATOM     57 1HH2 ARG C1705     -16.645 -21.569  -6.157  1.00 19.46 LIG 0.17  HD
ATOM     58 HE   ARG C1705     -15.023 -22.876  -7.011  1.00 20.43 LIG 0.18  HD
ENDBRANCH 49 50
ENDBRANCH 48 49
ENDBRANCH 47 48
ENDBRANCH 1 47
TORSDOF 24
ENDMDL
MODEL 18
USER: ADFR SOLUTION from run 14
USER: SCORE 15.598112 LL:  -4.115 LR: -14.669 RR:   0.000 FEB:  -7.510
USER: RMSD 6.113464
USER: SEED 673716
USER: STATUS searching
USER: GENES 26
USER: genes 0 Translation |==|  0.34658 0.55799 0.52021
USER: genes 1 Rotation |==|  0.48428 0.30784 0.20471 0.85445
USER: genes 2 Torsion [C]-CA--N-[C] |==|  0.63993
USER: genes 3 Torsion [N]-C--CA-[N] |==|  0.11182
USER: genes 4 Torsion [C]-CA--N-[C] |==|  0.18178
USER: genes 5 Torsion [N]-C--CA-[N] |==|  0.39114
USER: genes 6 Torsion [C]-CA--N-[C] |==|  0.66316
USER: genes 7 Torsion [N]-C--CA-[N] |==|  0.46726
USER: genes 8 Torsion [C]-CA--CB-[SG] |==|  0.99217
USER: genes 9 Torsion [CA]-CB--SG-[HG] |==|  0.93599
USER: genes 10 Torsion [N]-CA--C-[N] |==|  0.90013
USER: genes 11 Torsion [C]-N--CA-[C] |==|  0.56371
USER: genes 12 Torsion [N]-CA--C-[N] |==|  0.19741
USER: genes 13 Torsion [C]-N--CA-[CB] |==|  0.32870
USER: genes 14 Torsion [N]-CA--C-[N] |==|  0.68243
USER: genes 15 Torsion [C]-N--CA-[C] |==|  0.19705
USER: genes 16 Torsion [N]-CA--C-[O] |==|  0.90167
USER: genes 17 Torsion [N]-CA--CB-[CG] |==|  0.57397
USER: genes 18 Torsion [CA]-CB--CG-[CD] |==|  0.57538
USER: genes 19 Torsion [CB]-CG--CD-[OE2] |==|  0.24225
USER: genes 20 Torsion [N]-CA--CB-[OG] |==|  0.75997
USER: genes 21 Torsion [CA]-CB--OG-[HG] |==|  0.06031
USER: genes 22 Torsion [N]-CA--CB-[CG] |==|  0.08978
USER: genes 23 Torsion [CA]-CB--CG-[CD] |==|  0.30992
USER: genes 24 Torsion [CB]-CG--CD-[NE] |==|  0.94608
USER: genes 25 Torsion [CG]-CD--NE-[CZ] |==|  0.36635
ROOT
ATOM      1  CA  ARG C1705     -16.173 -26.497  -7.891  1.00 19.53 LIG 0.18  C 
ENDROOT
BRANCH 1 2
ATOM      2  N   ARG C1705     -16.661 -27.719  -7.245  1.00 19.64 LIG-0.35  N 
ATOM      3 H    ARG C1705     -16.330 -28.455  -7.542  1.00 19.64 LIG 0.16  HD
ATOM      4  C   ALA C1704     -17.557 -27.618  -6.269  1.00 22.93 LIG 0.24  C 
ATOM      5 O    ALA C1704     -18.039 -26.530  -5.929  1.00 21.24 LIG-0.27  OA
BRANCH 4 6
ATOM      6  CA  ALA C1704     -17.996 -28.909  -5.579  1.00 20.87 LIG 0.17  C 
ATOM      7  CB  ALA C1704     -18.724 -28.618  -4.281  1.00 18.21 LIG 0.04  C 
BRANCH 6 8
ATOM      8  N   ALA C1704     -16.894 -29.832  -5.352  1.00 22.42 LIG-0.35  N 
ATOM      9  C   CYS C1703     -15.904 -29.520  -4.522  1.00 22.90 LIG 0.24  C 
ATOM     10 O    CYS C1703     -15.895 -28.494  -3.845  1.00 23.45 LIG-0.27  OA
ATOM     11 H    ALA C1704     -16.945 -30.570  -5.791  1.00 22.42 LIG 0.16  HD
BRANCH 9 12
ATOM     12  CA  CYS C1703     -14.753 -30.513  -4.438  1.00 24.41 LIG 0.18  C 
BRANCH 12 13
ATOM     13  N   CYS C1703     -13.471 -29.817  -4.339  1.00 24.32 LIG-0.34  N 
ATOM     14  C   GLY C1702     -12.524 -30.019  -5.254  1.00 24.70 LIG 0.25  C 
ATOM     15 O    GLY C1702     -12.651 -30.837  -6.166  1.00 27.37 LIG-0.27  OA
ATOM     16 H    CYS C1703     -13.394 -29.290  -3.664  1.00 24.32 LIG 0.16  HD
BRANCH 14 17
ATOM     17  CA  GLY C1702     -11.256 -29.192  -5.135  1.00 25.50 LIG 0.47  C 
ATOM     18  N   GLY C1702     -10.194 -29.677  -6.003  1.00 32.41 LIG 0.61  N 
ENDBRANCH 14 17
ENDBRANCH 12 13
BRANCH 12 19
ATOM     19  CB  CYS C1703     -14.958 -31.488  -3.265  1.00 19.88 LIG 0.10  C 
BRANCH 19 20
ATOM     20 SG   CYS C1703     -16.419 -31.188  -2.248  1.00 23.51 LIG-0.18  SA
ATOM     21 HG   CYS C1703     -16.755 -30.041  -2.358  1.00 23.51 LIG 0.10  HD
ENDBRANCH 19 20
ENDBRANCH 12 19
ENDBRANCH 9 12
ENDBRANCH 6 8
ENDBRANCH 4 6
ENDBRANCH 1 2
BRANCH 1 22
ATOM     22  C   ARG C1705     -16.237 -26.532  -9.427  1.00 20.76 LIG 0.24  C 
ATOM     23 O    ARG C1705     -16.503 -25.508 -10.066  1.00 22.20 LIG-0.27  OA
ATOM     24  N   SER C1706     -15.989 -27.697 -10.023  1.00 20.62 LIG-0.34  N 
ATOM     25 H    SER C1706     -15.810 -28.427  -9.606  1.00 20.62 LIG 0.16  HD
BRANCH 24 26
ATOM     26  CA  SER C1706     -16.008 -27.809 -11.478  1.00 20.36 LIG 0.20  C 
BRANCH 26 27
ATOM     27  C   SER C1706     -16.261 -29.247 -11.919  1.00 23.85 LIG 0.24  C 
ATOM     28 O    SER C1706     -15.364 -29.911 -12.439  1.00 24.92 LIG-0.27  OA
ATOM     29  N   GLU C1707     -17.486 -29.719 -11.722  1.00 21.35 LIG-0.35  N 
ATOM     30 H    GLU C1707     -18.115 -29.279 -11.333  1.00 21.35 LIG 0.16  HD
BRANCH 29 31
ATOM     31  CA  GLU C1707     -17.867 -31.060 -12.164  1.00 28.80 LIG 0.18  C 
BRANCH 31 32
ATOM     32  C   GLU C1707     -19.020 -30.983 -13.153  1.00 29.29 LIG 0.24  C 
ATOM     33 O    GLU C1707     -18.869 -30.451 -14.254  1.00 32.31 LIG-0.27  OA
ATOM     34  N   GLY C1708     -20.172 -31.513 -12.749  1.00 26.36 LIG-0.35  N 
ATOM     35 H    GLY C1708     -20.292 -31.859 -11.971  1.00 26.36 LIG 0.16  HD
BRANCH 34 36
ATOM     36  CA  GLY C1708     -21.341 -31.548 -13.605  1.00 26.05 LIG 0.21  C 
BRANCH 36 37
ATOM     37  C   GLY C1708     -21.210 -32.528 -14.752  1.00 34.75 LIG 0.21  C 
ATOM     38 O    GLY C1708     -20.130 -32.711 -15.304  1.00 36.48 LIG-0.29  OA
ENDBRANCH 36 37
ENDBRANCH 34 36
ENDBRANCH 31 32
BRANCH 31 39
ATOM     39  CB  GLU C1707     -18.278 -31.943 -10.981  1.00 30.33 LIG 0.04  C 
BRANCH 39 40
ATOM     40  CG  GLU C1707     -18.075 -33.431 -11.210  1.00 34.25 LIG 0.12  C 
BRANCH 40 41
ATOM     41  CD  GLU C1707     -19.031 -34.288 -10.395  1.00 39.35 LIG 0.17  C 
ATOM     42 OE2  GLU C1707     -20.153 -34.551 -10.880  1.00 42.40 LIG-0.65  OA
ATOM     43 OE1  GLU C1707     -18.661 -34.695  -9.270  1.00 45.84 LIG-0.65  OA
ENDBRANCH 40 41
ENDBRANCH 39 40
ENDBRANCH 31 39
ENDBRANCH 29 31
ENDBRANCH 26 27
BRANCH 26 44
ATOM     44  CB  SER C1706     -14.709 -27.278 -12.093  1.00 19.38 LIG 0.20  C 
BRANCH 44 45
ATOM     45 OG   SER C1706     -14.770 -25.874 -12.314  1.00 20.52 LIG-0.40  OA
ATOM     46 HG   SER C1706     -15.357 -25.538 -11.817  1.00 20.52 LIG 0.21  HD
ENDBRANCH 44 45
ENDBRANCH 26 44
ENDBRANCH 24 26
ENDBRANCH 1 22
BRANCH 1 47
ATOM     47  CB  ARG C1705     -14.761 -26.133  -7.411  1.00 21.30 LIG 0.04  C 
BRANCH 47 48
ATOM     48  CG  ARG C1705     -13.916 -27.361  -7.071  1.00 23.17 LIG 0.02  C 
BRANCH 48 49
ATOM     49  CD  ARG C1705     -12.758 -27.576  -8.047  1.00 21.38 LIG 0.14  C 
BRANCH 49 50
ATOM     50  NE  ARG C1705     -12.956 -26.872  -9.317  1.00 20.43 LIG-0.23  N 
ATOM     51  CZ  ARG C1705     -12.046 -26.108  -9.918  1.00 19.01 LIG 0.67  C 
ATOM     52  NH1 ARG C1705     -10.838 -25.927  -9.381  1.00 20.29 LIG-0.23  N 
ATOM     53  NH2 ARG C1705     -12.347 -25.514 -11.065  1.00 19.46 LIG-0.23  N 
ATOM     54 1HH1 ARG C1705     -10.638 -26.307  -8.635  1.00 20.29 LIG 0.17  HD
ATOM     55 2HH1 ARG C1705     -10.260 -25.431  -9.780  1.00 20.29 LIG 0.17  HD
ATOM     56 2HH2 ARG C1705     -11.764 -25.020 -11.459  1.00 19.46 LIG 0.17  HD
ATOM     57 1HH2 ARG C1705     -13.125 -25.623 -11.416  1.00 19.46 LIG 0.17  HD
ATOM     58 HE   ARG C1705     -13.719 -26.959  -9.703  1.00 20.43 LIG 0.18  HD
ENDBRANCH 49 50
ENDBRANCH 48 49
ENDBRANCH 47 48
ENDBRANCH 1 47
TORSDOF 24
ENDMDL
MODEL 19
USER: ADFR SOLUTION from run 156
USER: SCORE 15.350221 LL:  -3.053 LR: -14.660 RR:   0.000 FEB:  -7.501
USER: RMSD 4.072395
USER: SEED 155
USER: STATUS no improvement in best in 6 clusters for 5 generations
USER: GENES 26
USER: genes 0 Translation |==|  0.39750 0.59805 0.54750
USER: genes 1 Rotation |==|  0.30268 0.76206 0.64857 0.84687
USER: genes 2 Torsion [C]-CA--N-[C] |==|  0.18159
USER: genes 3 Torsion [N]-C--CA-[N] |==|  0.18244
USER: genes 4 Torsion [C]-CA--N-[C] |==|  0.74313
USER: genes 5 Torsion [N]-C--CA-[N] |==|  0.86144
USER: genes 6 Torsion [C]-CA--N-[C] |==|  0.87975
USER: genes 7 Torsion [N]-C--CA-[N] |==|  0.23038
USER: genes 8 Torsion [C]-CA--CB-[SG] |==|  0.49933
USER: genes 9 Torsion [CA]-CB--SG-[HG] |==|  0.12213
USER: genes 10 Torsion [N]-CA--C-[N] |==|  0.61591
USER: genes 11 Torsion [C]-N--CA-[C] |==|  0.73779
USER: genes 12 Torsion [N]-CA--C-[N] |==|  0.49409
USER: genes 13 Torsion [C]-N--CA-[CB] |==|  0.22083
USER: genes 14 Torsion [N]-CA--C-[N] |==|  0.10754
USER: genes 15 Torsion [C]-N--CA-[C] |==|  0.28234
USER: genes 16 Torsion [N]-CA--C-[O] |==|  0.99725
USER: genes 17 Torsion [N]-CA--CB-[CG] |==|  0.60788
USER: genes 18 Torsion [CA]-CB--CG-[CD] |==|  0.71446
USER: genes 19 Torsion [CB]-CG--CD-[OE2] |==|  0.41788
USER: genes 20 Torsion [N]-CA--CB-[OG] |==|  0.34549
USER: genes 21 Torsion [CA]-CB--OG-[HG] |==|  0.56353
USER: genes 22 Torsion [N]-CA--CB-[CG] |==|  0.56927
USER: genes 23 Torsion [CA]-CB--CG-[CD] |==|  0.23306
USER: genes 24 Torsion [CB]-CG--CD-[NE] |==|  0.56671
USER: genes 25 Torsion [CG]-CD--NE-[CZ] |==|  0.36840
ROOT
ATOM      1  CA  ARG C1705     -15.256 -25.596  -7.400  1.00 19.53 LIG 0.18  C 
ENDROOT
BRANCH 1 2
ATOM      2  N   ARG C1705     -14.404 -25.786  -8.577  1.00 19.64 LIG-0.35  N 
ATOM      3 H    ARG C1705     -13.662 -25.351  -8.574  1.00 19.64 LIG 0.16  HD
ATOM      4  C   ALA C1704     -14.817 -26.592  -9.549  1.00 22.93 LIG 0.24  C 
ATOM      5 O    ALA C1704     -15.926 -27.141  -9.521  1.00 21.24 LIG-0.27  OA
BRANCH 4 6
ATOM      6  CA  ALA C1704     -13.874 -26.813 -10.731  1.00 20.87 LIG 0.17  C 
ATOM      7  CB  ALA C1704     -14.575 -27.533 -11.867  1.00 18.21 LIG 0.04  C 
BRANCH 6 8
ATOM      8  N   ALA C1704     -12.652 -27.510 -10.359  1.00 22.42 LIG-0.35  N 
ATOM      9  C   CYS C1703     -11.561 -26.835 -10.015  1.00 22.90 LIG 0.24  C 
ATOM     10 O    CYS C1703     -11.535 -25.610  -9.911  1.00 23.45 LIG-0.27  OA
ATOM     11 H    ALA C1704     -12.706 -28.369 -10.382  1.00 22.42 LIG 0.16  HD
BRANCH 9 12
ATOM     12  CA  CYS C1703     -10.312 -27.662  -9.743  1.00 24.41 LIG 0.18  C 
BRANCH 12 13
ATOM     13  N   CYS C1703     -10.605 -28.758  -8.819  1.00 24.32 LIG-0.34  N 
ATOM     14  C   GLY C1702     -11.361 -28.546  -7.743  1.00 24.70 LIG 0.25  C 
ATOM     15 O    GLY C1702     -11.780 -27.428  -7.441  1.00 27.37 LIG-0.27  OA
ATOM     16 H    CYS C1703     -10.256 -29.515  -9.031  1.00 24.32 LIG 0.16  HD
BRANCH 14 17
ATOM     17  CA  GLY C1702     -11.695 -29.752  -6.883  1.00 25.50 LIG 0.47  C 
ATOM     18  N   GLY C1702     -10.633 -30.072  -5.942  1.00 32.41 LIG 0.61  N 
ENDBRANCH 14 17
ENDBRANCH 12 13
BRANCH 12 19
ATOM     19  CB  CYS C1703      -9.703 -28.180 -11.059  1.00 19.88 LIG 0.10  C 
BRANCH 19 20
ATOM     20 SG   CYS C1703      -8.207 -29.175 -10.887  1.00 23.51 LIG-0.18  SA
ATOM     21 HG   CYS C1703      -8.347 -29.956  -9.987  1.00 23.51 LIG 0.10  HD
ENDBRANCH 19 20
ENDBRANCH 12 19
ENDBRANCH 9 12
ENDBRANCH 6 8
ENDBRANCH 4 6
ENDBRANCH 1 2
BRANCH 1 22
ATOM     22  C   ARG C1705     -15.444 -26.865  -6.551  1.00 20.76 LIG 0.24  C 
ATOM     23 O    ARG C1705     -14.485 -27.610  -6.319  1.00 22.20 LIG-0.27  OA
ATOM     24  N   SER C1706     -16.665 -27.111  -6.082  1.00 20.62 LIG-0.34  N 
ATOM     25 H    SER C1706     -17.352 -26.617  -6.233  1.00 20.62 LIG 0.16  HD
BRANCH 24 26
ATOM     26  CA  SER C1706     -16.922 -28.282  -5.249  1.00 20.36 LIG 0.20  C 
BRANCH 26 27
ATOM     27  C   SER C1706     -17.416 -29.458  -6.085  1.00 23.85 LIG 0.24  C 
ATOM     28 O    SER C1706     -17.601 -29.333  -7.295  1.00 24.92 LIG-0.27  OA
ATOM     29  N   GLU C1707     -17.641 -30.592  -5.434  1.00 21.35 LIG-0.35  N 
ATOM     30 H    GLU C1707     -17.488 -30.704  -4.594  1.00 21.35 LIG 0.16  HD
BRANCH 29 31
ATOM     31  CA  GLU C1707     -18.179 -31.769  -6.115  1.00 28.80 LIG 0.18  C 
BRANCH 31 32
ATOM     32  C   GLU C1707     -18.810 -32.719  -5.108  1.00 29.29 LIG 0.24  C 
ATOM     33 O    GLU C1707     -18.689 -33.940  -5.234  1.00 32.31 LIG-0.27  OA
ATOM     34  N   GLY C1708     -19.485 -32.151  -4.113  1.00 26.36 LIG-0.35  N 
ATOM     35 H    GLY C1708     -19.598 -31.302  -4.035  1.00 26.36 LIG 0.16  HD
BRANCH 34 36
ATOM     36  CA  GLY C1708     -20.100 -32.933  -3.058  1.00 26.05 LIG 0.21  C 
BRANCH 36 37
ATOM     37  C   GLY C1708     -19.298 -32.934  -1.774  1.00 34.75 LIG 0.21  C 
ATOM     38 O    GLY C1708     -18.232 -32.333  -1.696  1.00 36.48 LIG-0.29  OA
ENDBRANCH 36 37
ENDBRANCH 34 36
ENDBRANCH 31 32
BRANCH 31 39
ATOM     39  CB  GLU C1707     -17.090 -32.513  -6.893  1.00 30.33 LIG 0.04  C 
BRANCH 39 40
ATOM     40  CG  GLU C1707     -17.541 -33.060  -8.236  1.00 34.25 LIG 0.12  C 
BRANCH 40 41
ATOM     41  CD  GLU C1707     -17.802 -34.559  -8.203  1.00 39.35 LIG 0.17  C 
ATOM     42 OE2  GLU C1707     -18.661 -35.028  -8.980  1.00 42.40 LIG-0.65  OA
ATOM     43 OE1  GLU C1707     -17.150 -35.263  -7.399  1.00 45.84 LIG-0.65  OA
ENDBRANCH 40 41
ENDBRANCH 39 40
ENDBRANCH 31 39
ENDBRANCH 29 31
ENDBRANCH 26 27
BRANCH 26 44
ATOM     44  CB  SER C1706     -17.918 -27.959  -4.130  1.00 19.38 LIG 0.20  C 
BRANCH 44 45
ATOM     45 OG   SER C1706     -19.038 -28.837  -4.157  1.00 20.52 LIG-0.40  OA
ATOM     46 HG   SER C1706     -19.688 -28.472  -3.771  1.00 20.52 LIG 0.21  HD
ENDBRANCH 44 45
ENDBRANCH 26 44
ENDBRANCH 24 26
ENDBRANCH 1 22
BRANCH 1 47
ATOM     47  CB  ARG C1705     -16.612 -24.986  -7.780  1.00 21.30 LIG 0.04  C 
BRANCH 47 48
ATOM     48  CG  ARG C1705     -17.265 -24.227  -6.623  1.00 23.17 LIG 0.02  C 
BRANCH 48 49
ATOM     49  CD  ARG C1705     -16.759 -22.789  -6.493  1.00 21.38 LIG 0.14  C 
BRANCH 49 50
ATOM     50  NE  ARG C1705     -16.919 -22.259  -5.136  1.00 20.43 LIG-0.23  N 
ATOM     51  CZ  ARG C1705     -15.976 -21.615  -4.450  1.00 19.01 LIG 0.67  C 
ATOM     52  NH1 ARG C1705     -14.769 -21.399  -4.978  1.00 20.29 LIG-0.23  N 
ATOM     53  NH2 ARG C1705     -16.238 -21.187  -3.223  1.00 19.46 LIG-0.23  N 
ATOM     54 1HH1 ARG C1705     -14.591 -21.678  -5.772  1.00 20.29 LIG 0.17  HD
ATOM     55 2HH1 ARG C1705     -14.169 -20.983  -4.524  1.00 20.29 LIG 0.17  HD
ATOM     56 2HH2 ARG C1705     -15.634 -20.771  -2.774  1.00 19.46 LIG 0.17  HD
ATOM     57 1HH2 ARG C1705     -17.013 -21.325  -2.875  1.00 19.46 LIG 0.17  HD
ATOM     58 HE   ARG C1705     -17.680 -22.371  -4.753  1.00 20.43 LIG 0.18  HD
ENDBRANCH 49 50
ENDBRANCH 48 49
ENDBRANCH 47 48
ENDBRANCH 1 47
TORSDOF 24
ENDMDL
MODEL 20
USER: ADFR SOLUTION from run 5
USER: SCORE 15.662110 LL:  -3.029 LR: -14.595 RR:   0.000 FEB:  -7.435
USER: RMSD 7.258931
USER: SEED 953858
USER: STATUS no improvement in best in 4 clusters for 5 generations
USER: GENES 26
USER: genes 0 Translation |==|  0.38523 0.57774 0.52119
USER: genes 1 Rotation |==|  0.54375 0.07015 0.52402 0.75048
USER: genes 2 Torsion [C]-CA--N-[C] |==|  0.69687
USER: genes 3 Torsion [N]-C--CA-[N] |==|  0.70428
USER: genes 4 Torsion [C]-CA--N-[C] |==|  0.65343
USER: genes 5 Torsion [N]-C--CA-[N] |==|  0.43333
USER: genes 6 Torsion [C]-CA--N-[C] |==|  0.81774
USER: genes 7 Torsion [N]-C--CA-[N] |==|  0.57280
USER: genes 8 Torsion [C]-CA--CB-[SG] |==|  0.88454
USER: genes 9 Torsion [CA]-CB--SG-[HG] |==|  0.51870
USER: genes 10 Torsion [N]-CA--C-[N] |==|  0.03175
USER: genes 11 Torsion [C]-N--CA-[C] |==|  0.78490
USER: genes 12 Torsion [N]-CA--C-[N] |==|  0.46078
USER: genes 13 Torsion [C]-N--CA-[CB] |==|  0.41243
USER: genes 14 Torsion [N]-CA--C-[N] |==|  0.90007
USER: genes 15 Torsion [C]-N--CA-[C] |==|  0.67324
USER: genes 16 Torsion [N]-CA--C-[O] |==|  0.85337
USER: genes 17 Torsion [N]-CA--CB-[CG] |==|  0.58002
USER: genes 18 Torsion [CA]-CB--CG-[CD] |==|  0.59671
USER: genes 19 Torsion [CB]-CG--CD-[OE2] |==|  0.98368
USER: genes 20 Torsion [N]-CA--CB-[OG] |==|  0.71755
USER: genes 21 Torsion [CA]-CB--OG-[HG] |==|  0.82700
USER: genes 22 Torsion [N]-CA--CB-[CG] |==|  0.92658
USER: genes 23 Torsion [CA]-CB--CG-[CD] |==|  0.49289
USER: genes 24 Torsion [CB]-CG--CD-[NE] |==|  0.64184
USER: genes 25 Torsion [CG]-CD--NE-[CZ] |==|  0.28270
ROOT
ATOM      1  CA  ARG C1705     -15.477 -26.053  -7.874  1.00 19.53 LIG 0.18  C 
ENDROOT
BRANCH 1 2
ATOM      2  N   ARG C1705     -16.112 -26.721  -6.734  1.00 19.64 LIG-0.35  N 
ATOM      3 H    ARG C1705     -15.835 -26.476  -5.957  1.00 19.64 LIG 0.16  HD
ATOM      4  C   ALA C1704     -17.047 -27.637  -6.963  1.00 22.93 LIG 0.24  C 
ATOM      5 O    ALA C1704     -17.356 -27.989  -8.108  1.00 21.24 LIG-0.27  OA
BRANCH 4 6
ATOM      6  CA  ALA C1704     -17.729 -28.267  -5.749  1.00 20.87 LIG 0.17  C 
ATOM      7  CB  ALA C1704     -17.536 -27.418  -4.507  1.00 18.21 LIG 0.04  C 
BRANCH 6 8
ATOM      8  N   ALA C1704     -17.297 -29.636  -5.505  1.00 22.42 LIG-0.35  N 
ATOM      9  C   CYS C1703     -18.182 -30.624  -5.427  1.00 22.90 LIG 0.24  C 
ATOM     10 O    CYS C1703     -19.384 -30.467  -5.633  1.00 23.45 LIG-0.27  OA
ATOM     11 H    ALA C1704     -16.448 -29.737  -5.420  1.00 22.42 LIG 0.16  HD
BRANCH 9 12
ATOM     12  CA  CYS C1703     -17.632 -31.998  -5.068  1.00 24.41 LIG 0.18  C 
BRANCH 12 13
ATOM     13  N   CYS C1703     -18.671 -32.835  -4.470  1.00 24.32 LIG-0.34  N 
ATOM     14  C   GLY C1702     -19.199 -32.511  -3.290  1.00 24.70 LIG 0.25  C 
ATOM     15 O    GLY C1702     -18.796 -31.554  -2.627  1.00 27.37 LIG-0.27  OA
ATOM     16 H    CYS C1703     -18.896 -33.523  -4.933  1.00 24.32 LIG 0.16  HD
BRANCH 14 17
ATOM     17  CA  GLY C1702     -20.336 -33.377  -2.778  1.00 25.50 LIG 0.47  C 
ATOM     18  N   GLY C1702     -21.217 -32.656  -1.872  1.00 32.41 LIG 0.61  N 
ENDBRANCH 14 17
ENDBRANCH 12 13
BRANCH 12 19
ATOM     19  CB  CYS C1703     -17.002 -32.673  -6.299  1.00 19.88 LIG 0.10  C 
BRANCH 19 20
ATOM     20 SG   CYS C1703     -17.919 -32.488  -7.843  1.00 23.51 LIG-0.18  SA
ATOM     21 HG   CYS C1703     -17.406 -33.160  -8.696  1.00 23.51 LIG 0.10  HD
ENDBRANCH 19 20
ENDBRANCH 12 19
ENDBRANCH 9 12
ENDBRANCH 6 8
ENDBRANCH 4 6
ENDBRANCH 1 2
BRANCH 1 22
ATOM     22  C   ARG C1705     -14.013 -26.464  -8.105  1.00 20.76 LIG 0.24  C 
ATOM     23 O    ARG C1705     -13.300 -25.825  -8.887  1.00 22.20 LIG-0.27  OA
ATOM     24  N   SER C1706     -13.560 -27.518  -7.429  1.00 20.62 LIG-0.34  N 
ATOM     25 H    SER C1706     -14.034 -27.987  -6.886  1.00 20.62 LIG 0.16  HD
BRANCH 24 26
ATOM     26  CA  SER C1706     -12.177 -27.959  -7.575  1.00 20.36 LIG 0.20  C 
BRANCH 26 27
ATOM     27  C   SER C1706     -11.976 -28.729  -8.876  1.00 23.85 LIG 0.24  C 
ATOM     28 O    SER C1706     -12.942 -29.145  -9.515  1.00 24.92 LIG-0.27  OA
ATOM     29  N   GLU C1707     -10.720 -28.928  -9.258  1.00 21.35 LIG-0.35  N 
ATOM     30 H    GLU C1707     -10.035 -28.618  -8.839  1.00 21.35 LIG 0.16  HD
BRANCH 29 31
ATOM     31  CA  GLU C1707     -10.399 -29.709 -10.452  1.00 28.80 LIG 0.18  C 
BRANCH 31 32
ATOM     32  C   GLU C1707     -10.227 -31.177 -10.091  1.00 29.29 LIG 0.24  C 
ATOM     33 O    GLU C1707     -10.601 -32.062 -10.864  1.00 32.31 LIG-0.27  OA
ATOM     34  N   GLY C1708      -9.662 -31.426  -8.913  1.00 26.36 LIG-0.35  N 
ATOM     35 H    GLY C1708      -9.425 -30.814  -8.358  1.00 26.36 LIG 0.16  HD
BRANCH 34 36
ATOM     36  CA  GLY C1708      -9.397 -32.778  -8.461  1.00 26.05 LIG 0.21  C 
BRANCH 36 37
ATOM     37  C   GLY C1708     -10.153 -33.143  -7.202  1.00 34.75 LIG 0.21  C 
ATOM     38 O    GLY C1708     -10.093 -32.435  -6.202  1.00 36.48 LIG-0.29  OA
ENDBRANCH 36 37
ENDBRANCH 34 36
ENDBRANCH 31 32
BRANCH 31 39
ATOM     39  CB  GLU C1707      -9.119 -29.203 -11.124  1.00 30.33 LIG 0.04  C 
BRANCH 39 40
ATOM     40  CG  GLU C1707      -9.069 -29.430 -12.625  1.00 34.25 LIG 0.12  C 
BRANCH 40 41
ATOM     41  CD  GLU C1707      -7.666 -29.736 -13.127  1.00 39.35 LIG 0.17  C 
ATOM     42 OE2  GLU C1707      -6.716 -29.661 -12.318  1.00 42.40 LIG-0.65  OA
ATOM     43 OE1  GLU C1707      -7.515 -30.049 -14.330  1.00 45.84 LIG-0.65  OA
ENDBRANCH 40 41
ENDBRANCH 39 40
ENDBRANCH 31 39
ENDBRANCH 29 31
ENDBRANCH 26 27
BRANCH 26 44
ATOM     44  CB  SER C1706     -11.734 -28.804  -6.375  1.00 19.38 LIG 0.20  C 
BRANCH 44 45
ATOM     45 OG   SER C1706     -10.935 -28.050  -5.472  1.00 20.52 LIG-0.40  OA
ATOM     46 HG   SER C1706     -10.234 -27.800  -5.860  1.00 20.52 LIG 0.21  HD
ENDBRANCH 44 45
ENDBRANCH 26 44
ENDBRANCH 24 26
ENDBRANCH 1 22
BRANCH 1 47
ATOM     47  CB  ARG C1705     -15.608 -24.527  -7.775  1.00 21.30 LIG 0.04  C 
BRANCH 47 48
ATOM     48  CG  ARG C1705     -16.830 -24.089  -6.966  1.00 23.17 LIG 0.02  C 
BRANCH 48 49
ATOM     49  CD  ARG C1705     -16.930 -22.570  -6.812  1.00 21.38 LIG 0.14  C 
BRANCH 49 50
ATOM     50  NE  ARG C1705     -17.114 -22.158  -5.418  1.00 20.43 LIG-0.23  N 
ATOM     51  CZ  ARG C1705     -16.156 -21.673  -4.630  1.00 19.01 LIG 0.67  C 
ATOM     52  NH1 ARG C1705     -14.909 -21.521  -5.081  1.00 20.29 LIG-0.23  N 
ATOM     53  NH2 ARG C1705     -16.444 -21.341  -3.379  1.00 19.46 LIG-0.23  N 
ATOM     54 1HH1 ARG C1705     -14.714 -21.738  -5.890  1.00 20.29 LIG 0.17  HD
ATOM     55 2HH1 ARG C1705     -14.300 -21.207  -4.561  1.00 20.29 LIG 0.17  HD
ATOM     56 2HH2 ARG C1705     -15.830 -21.026  -2.866  1.00 19.46 LIG 0.17  HD
ATOM     57 1HH2 ARG C1705     -17.245 -21.439  -3.082  1.00 19.46 LIG 0.17  HD
ATOM     58 HE   ARG C1705     -17.902 -22.236  -5.082  1.00 20.43 LIG 0.18  HD
ENDBRANCH 49 50
ENDBRANCH 48 49
ENDBRANCH 47 48
ENDBRANCH 1 47
TORSDOF 24
ENDMDL
MODEL 21
USER: ADFR SOLUTION from run 125
USER: SCORE 16.996408 LL:  -3.839 LR: -14.586 RR:   0.000 FEB:  -7.427
USER: RMSD 8.177349
USER: SEED 124
USER: STATUS no improvement in best in 2 clusters for 5 generations
USER: GENES 26
USER: genes 0 Translation |==|  0.39928 0.39389 0.25890
USER: genes 1 Rotation |==|  0.46652 0.44620 0.92752 0.75142
USER: genes 2 Torsion [C]-CA--N-[C] |==|  0.80137
USER: genes 3 Torsion [N]-C--CA-[N] |==|  0.37637
USER: genes 4 Torsion [C]-CA--N-[C] |==|  0.67731
USER: genes 5 Torsion [N]-C--CA-[N] |==|  0.95367
USER: genes 6 Torsion [C]-CA--N-[C] |==|  0.79919
USER: genes 7 Torsion [N]-C--CA-[N] |==|  0.69786
USER: genes 8 Torsion [C]-CA--CB-[SG] |==|  0.37971
USER: genes 9 Torsion [CA]-CB--SG-[HG] |==|  0.81988
USER: genes 10 Torsion [N]-CA--C-[N] |==|  0.45143
USER: genes 11 Torsion [C]-N--CA-[C] |==|  0.20310
USER: genes 12 Torsion [N]-CA--C-[N] |==|  0.98967
USER: genes 13 Torsion [C]-N--CA-[CB] |==|  0.13916
USER: genes 14 Torsion [N]-CA--C-[N] |==|  0.62503
USER: genes 15 Torsion [C]-N--CA-[C] |==|  0.76889
USER: genes 16 Torsion [N]-CA--C-[O] |==|  0.33324
USER: genes 17 Torsion [N]-CA--CB-[CG] |==|  0.60143
USER: genes 18 Torsion [CA]-CB--CG-[CD] |==|  0.42606
USER: genes 19 Torsion [CB]-CG--CD-[OE2] |==|  0.45642
USER: genes 20 Torsion [N]-CA--CB-[OG] |==|  0.68662
USER: genes 21 Torsion [CA]-CB--OG-[HG] |==|  0.43818
USER: genes 22 Torsion [N]-CA--CB-[CG] |==|  0.79637
USER: genes 23 Torsion [CA]-CB--CG-[CD] |==|  0.54153
USER: genes 24 Torsion [CB]-CG--CD-[NE] |==|  0.66116
USER: genes 25 Torsion [CG]-CD--NE-[CZ] |==|  0.32333
ROOT
ATOM      1  CA  ARG C1705     -15.224 -30.189 -12.595  1.00 19.53 LIG 0.18  C 
ENDROOT
BRANCH 1 2
ATOM      2  N   ARG C1705     -15.466 -28.760 -12.382  1.00 19.64 LIG-0.35  N 
ATOM      3 H    ARG C1705     -16.137 -28.428 -12.805  1.00 19.64 LIG 0.16  HD
ATOM      4  C   ALA C1704     -14.657 -28.082 -11.574  1.00 22.93 LIG 0.24  C 
ATOM      5 O    ALA C1704     -13.669 -28.605 -11.043  1.00 21.24 LIG-0.27  OA
BRANCH 4 6
ATOM      6  CA  ALA C1704     -14.977 -26.608 -11.329  1.00 20.87 LIG 0.17  C 
ATOM      7  CB  ALA C1704     -14.114 -25.707 -12.191  1.00 18.21 LIG 0.04  C 
BRANCH 6 8
ATOM      8  N   ALA C1704     -14.870 -26.231  -9.927  1.00 22.42 LIG-0.35  N 
ATOM      9  C   CYS C1703     -15.937 -25.821  -9.250  1.00 22.90 LIG 0.24  C 
ATOM     10 O    CYS C1703     -17.070 -25.810  -9.725  1.00 23.45 LIG-0.27  OA
ATOM     11 H    ALA C1704     -14.080 -26.299  -9.595  1.00 22.42 LIG 0.16  HD
BRANCH 9 12
ATOM     12  CA  CYS C1703     -15.692 -25.354  -7.821  1.00 24.41 LIG 0.18  C 
BRANCH 12 13
ATOM     13  N   CYS C1703     -14.389 -25.814  -7.340  1.00 24.32 LIG-0.34  N 
ATOM     14  C   GLY C1702     -14.196 -27.100  -7.048  1.00 24.70 LIG 0.25  C 
ATOM     15 O    GLY C1702     -15.104 -27.931  -7.097  1.00 27.37 LIG-0.27  OA
ATOM     16 H    CYS C1703     -13.790 -25.201  -7.269  1.00 24.32 LIG 0.16  HD
BRANCH 14 17
ATOM     17  CA  GLY C1702     -12.793 -27.515  -6.642  1.00 25.50 LIG 0.47  C 
ATOM     18  N   GLY C1702     -12.133 -28.311  -7.666  1.00 32.41 LIG 0.61  N 
ENDBRANCH 14 17
ENDBRANCH 12 13
BRANCH 12 19
ATOM     19  CB  CYS C1703     -15.825 -23.825  -7.716  1.00 19.88 LIG 0.10  C 
BRANCH 19 20
ATOM     20 SG   CYS C1703     -16.738 -23.218  -6.281  1.00 23.51 LIG-0.18  SA
ATOM     21 HG   CYS C1703     -17.881 -23.575  -6.355  1.00 23.51 LIG 0.10  HD
ENDBRANCH 19 20
ENDBRANCH 12 19
ENDBRANCH 9 12
ENDBRANCH 6 8
ENDBRANCH 4 6
ENDBRANCH 1 2
BRANCH 1 22
ATOM     22  C   ARG C1705     -13.979 -30.495 -13.444  1.00 20.76 LIG 0.24  C 
ATOM     23 O    ARG C1705     -13.464 -29.612 -14.140  1.00 22.20 LIG-0.27  OA
ATOM     24  N   SER C1706     -13.490 -31.732 -13.389  1.00 20.62 LIG-0.34  N 
ATOM     25 H    SER C1706     -13.831 -32.369 -12.922  1.00 20.62 LIG 0.16  HD
BRANCH 24 26
ATOM     26  CA  SER C1706     -12.298 -32.097 -14.147  1.00 20.36 LIG 0.20  C 
BRANCH 26 27
ATOM     27  C   SER C1706     -11.041 -31.495 -13.528  1.00 23.85 LIG 0.24  C 
ATOM     28 O    SER C1706      -9.928 -31.760 -13.984  1.00 24.92 LIG-0.27  OA
ATOM     29  N   GLU C1707     -11.221 -30.698 -12.482  1.00 21.35 LIG-0.35  N 
ATOM     30 H    GLU C1707     -11.992 -30.480 -12.170  1.00 21.35 LIG 0.16  HD
BRANCH 29 31
ATOM     31  CA  GLU C1707     -10.088 -30.115 -11.764  1.00 28.80 LIG 0.18  C 
BRANCH 31 32
ATOM     32  C   GLU C1707     -10.576 -29.087 -10.754  1.00 29.29 LIG 0.24  C 
ATOM     33 O    GLU C1707     -11.542 -29.329 -10.027  1.00 32.31 LIG-0.27  OA
ATOM     34  N   GLY C1708      -9.904 -27.939 -10.719  1.00 26.36 LIG-0.35  N 
ATOM     35 H    GLY C1708      -9.248 -27.753 -11.242  1.00 26.36 LIG 0.16  HD
BRANCH 34 36
ATOM     36  CA  GLY C1708     -10.232 -26.888  -9.776  1.00 26.05 LIG 0.21  C 
BRANCH 36 37
ATOM     37  C   GLY C1708     -11.370 -26.005 -10.241  1.00 34.75 LIG 0.21  C 
ATOM     38 O    GLY C1708     -12.401 -25.907  -9.585  1.00 36.48 LIG-0.29  OA
ENDBRANCH 36 37
ENDBRANCH 34 36
ENDBRANCH 31 32
BRANCH 31 39
ATOM     39  CB  GLU C1707      -9.100 -29.446 -12.724  1.00 30.33 LIG 0.04  C 
BRANCH 39 40
ATOM     40  CG  GLU C1707      -7.642 -29.597 -12.328  1.00 34.25 LIG 0.12  C 
BRANCH 40 41
ATOM     41  CD  GLU C1707      -6.698 -29.529 -13.519  1.00 39.35 LIG 0.17  C 
ATOM     42 OE2  GLU C1707      -5.482 -29.341 -13.303  1.00 42.40 LIG-0.65  OA
ATOM     43 OE1  GLU C1707      -7.175 -29.660 -14.669  1.00 45.84 LIG-0.65  OA
ENDBRANCH 40 41
ENDBRANCH 39 40
ENDBRANCH 31 39
ENDBRANCH 29 31
ENDBRANCH 26 27
BRANCH 26 44
ATOM     44  CB  SER C1706     -12.426 -31.682 -15.617  1.00 19.38 LIG 0.20  C 
BRANCH 44 45
ATOM     45 OG   SER C1706     -12.502 -32.814 -16.476  1.00 20.52 LIG-0.40  OA
ATOM     46 HG   SER C1706     -12.866 -32.593 -17.199  1.00 20.52 LIG 0.21  HD
ENDBRANCH 44 45
ENDBRANCH 26 44
ENDBRANCH 24 26
ENDBRANCH 1 22
BRANCH 1 47
ATOM     47  CB  ARG C1705     -16.464 -30.890 -13.168  1.00 21.30 LIG 0.04  C 
BRANCH 47 48
ATOM     48  CG  ARG C1705     -17.575 -31.067 -12.132  1.00 23.17 LIG 0.02  C 
BRANCH 48 49
ATOM     49  CD  ARG C1705     -18.646 -32.067 -12.573  1.00 21.38 LIG 0.14  C 
BRANCH 49 50
ATOM     50  NE  ARG C1705     -19.986 -31.473 -12.610  1.00 20.43 LIG-0.23  N 
ATOM     51  CZ  ARG C1705     -20.728 -31.327 -13.706  1.00 19.01 LIG 0.67  C 
ATOM     52  NH1 ARG C1705     -20.282 -31.733 -14.897  1.00 20.29 LIG-0.23  N 
ATOM     53  NH2 ARG C1705     -21.927 -30.766 -13.614  1.00 19.46 LIG-0.23  N 
ATOM     54 1HH1 ARG C1705     -19.504 -32.094 -14.964  1.00 20.29 LIG 0.17  HD
ATOM     55 2HH1 ARG C1705     -20.771 -31.632 -15.596  1.00 20.29 LIG 0.17  HD
ATOM     56 2HH2 ARG C1705     -22.411 -30.670 -14.317  1.00 19.46 LIG 0.17  HD
ATOM     57 1HH2 ARG C1705     -22.219 -30.500 -12.850  1.00 19.46 LIG 0.17  HD
ATOM     58 HE   ARG C1705     -20.318 -31.197 -11.866  1.00 20.43 LIG 0.18  HD
ENDBRANCH 49 50
ENDBRANCH 48 49
ENDBRANCH 47 48
ENDBRANCH 1 47
TORSDOF 24
ENDMDL
MODEL 22
USER: ADFR SOLUTION from run 35
USER: SCORE 16.898691 LL:  -3.917 LR: -14.584 RR:   0.000 FEB:  -7.425
USER: RMSD 6.611308
USER: SEED 34
USER: STATUS searching
USER: GENES 26
USER: genes 0 Translation |==|  0.46574 0.57189 0.39913
USER: genes 1 Rotation |==|  0.64686 0.10059 0.37708 0.73194
USER: genes 2 Torsion [C]-CA--N-[C] |==|  0.71140
USER: genes 3 Torsion [N]-C--CA-[N] |==|  0.02746
USER: genes 4 Torsion [C]-CA--N-[C] |==|  0.18239
USER: genes 5 Torsion [N]-C--CA-[N] |==|  0.21834
USER: genes 6 Torsion [C]-CA--N-[C] |==|  0.79444
USER: genes 7 Torsion [N]-C--CA-[N] |==|  0.45811
USER: genes 8 Torsion [C]-CA--CB-[SG] |==|  0.52961
USER: genes 9 Torsion [CA]-CB--SG-[HG] |==|  0.68337
USER: genes 10 Torsion [N]-CA--C-[N] |==|  0.93610
USER: genes 11 Torsion [C]-N--CA-[C] |==|  0.65559
USER: genes 12 Torsion [N]-CA--C-[N] |==|  0.36297
USER: genes 13 Torsion [C]-N--CA-[CB] |==|  0.79740
USER: genes 14 Torsion [N]-CA--C-[N] |==|  0.19168
USER: genes 15 Torsion [C]-N--CA-[C] |==|  0.29110
USER: genes 16 Torsion [N]-CA--C-[O] |==|  0.97411
USER: genes 17 Torsion [N]-CA--CB-[CG] |==|  0.71194
USER: genes 18 Torsion [CA]-CB--CG-[CD] |==|  0.88661
USER: genes 19 Torsion [CB]-CG--CD-[OE2] |==|  0.72754
USER: genes 20 Torsion [N]-CA--CB-[OG] |==|  0.84357
USER: genes 21 Torsion [CA]-CB--OG-[HG] |==|  0.14678
USER: genes 22 Torsion [N]-CA--CB-[CG] |==|  0.87834
USER: genes 23 Torsion [CA]-CB--CG-[CD] |==|  0.65499
USER: genes 24 Torsion [CB]-CG--CD-[NE] |==|  0.80877
USER: genes 25 Torsion [CG]-CD--NE-[CZ] |==|  0.68370
ROOT
ATOM      1  CA  ARG C1705     -14.028 -26.184 -10.071  1.00 19.53 LIG 0.18  C 
ENDROOT
BRANCH 1 2
ATOM      2  N   ARG C1705     -14.526 -27.495  -9.645  1.00 19.64 LIG-0.35  N 
ATOM      3 H    ARG C1705     -14.245 -27.770  -8.880  1.00 19.64 LIG 0.16  HD
ATOM      4  C   ALA C1704     -15.356 -28.160 -10.443  1.00 22.93 LIG 0.24  C 
ATOM      5 O    ALA C1704     -15.674 -27.735 -11.561  1.00 21.24 LIG-0.27  OA
BRANCH 4 6
ATOM      6  CA  ALA C1704     -15.902 -29.495  -9.938  1.00 20.87 LIG 0.17  C 
ATOM      7  CB  ALA C1704     -17.393 -29.609 -10.189  1.00 18.21 LIG 0.04  C 
BRANCH 6 8
ATOM      8  N   ALA C1704     -15.599 -29.736  -8.534  1.00 22.42 LIG-0.35  N 
ATOM      9  C   CYS C1703     -16.123 -28.968  -7.584  1.00 22.90 LIG 0.24  C 
ATOM     10 O    CYS C1703     -16.940 -28.080  -7.814  1.00 23.45 LIG-0.27  OA
ATOM     11 H    ALA C1704     -15.070 -30.397  -8.388  1.00 22.42 LIG 0.16  HD
BRANCH 9 12
ATOM     12  CA  CYS C1703     -15.658 -29.245  -6.161  1.00 24.41 LIG 0.18  C 
BRANCH 12 13
ATOM     13  N   CYS C1703     -14.338 -28.661  -5.921  1.00 24.32 LIG-0.34  N 
ATOM     14  C   GLY C1702     -13.250 -29.222  -6.447  1.00 24.70 LIG 0.25  C 
ATOM     15 O    GLY C1702     -13.293 -30.275  -7.083  1.00 27.37 LIG-0.27  OA
ATOM     16 H    CYS C1703     -14.336 -27.954  -5.432  1.00 24.32 LIG 0.16  HD
BRANCH 14 17
ATOM     17  CA  GLY C1702     -11.928 -28.507  -6.230  1.00 25.50 LIG 0.47  C 
ATOM     18  N   GLY C1702     -10.784 -29.356  -6.526  1.00 32.41 LIG 0.61  N 
ENDBRANCH 14 17
ENDBRANCH 12 13
BRANCH 12 19
ATOM     19  CB  CYS C1703     -16.693 -28.738  -5.141  1.00 19.88 LIG 0.10  C 
BRANCH 19 20
ATOM     20 SG   CYS C1703     -16.149 -28.724  -3.419  1.00 23.51 LIG-0.18  SA
ATOM     21 HG   CYS C1703     -16.792 -29.518  -2.790  1.00 23.51 LIG 0.10  HD
ENDBRANCH 19 20
ENDBRANCH 12 19
ENDBRANCH 9 12
ENDBRANCH 6 8
ENDBRANCH 4 6
ENDBRANCH 1 2
BRANCH 1 22
ATOM     22  C   ARG C1705     -12.574 -26.200 -10.572  1.00 20.76 LIG 0.24  C 
ATOM     23 O    ARG C1705     -12.163 -25.311 -11.327  1.00 22.20 LIG-0.27  OA
ATOM     24  N   SER C1706     -11.793 -27.194 -10.154  1.00 20.62 LIG-0.34  N 
ATOM     25 H    SER C1706     -12.052 -27.830  -9.637  1.00 20.62 LIG 0.16  HD
BRANCH 24 26
ATOM     26  CA  SER C1706     -10.396 -27.269 -10.566  1.00 20.36 LIG 0.20  C 
BRANCH 26 27
ATOM     27  C   SER C1706     -10.086 -28.602 -11.239  1.00 23.85 LIG 0.24  C 
ATOM     28 O    SER C1706     -10.411 -29.663 -10.706  1.00 24.92 LIG-0.27  OA
ATOM     29  N   GLU C1707      -9.448 -28.544 -12.401  1.00 21.35 LIG-0.35  N 
ATOM     30 H    GLU C1707      -9.241 -27.810 -12.801  1.00 21.35 LIG 0.16  HD
BRANCH 29 31
ATOM     31  CA  GLU C1707      -9.039 -29.757 -13.109  1.00 28.80 LIG 0.18  C 
BRANCH 31 32
ATOM     32  C   GLU C1707     -10.198 -30.739 -13.186  1.00 29.29 LIG 0.24  C 
ATOM     33 O    GLU C1707     -10.170 -31.796 -12.552  1.00 32.31 LIG-0.27  OA
ATOM     34  N   GLY C1708     -11.212 -30.384 -13.970  1.00 26.36 LIG-0.35  N 
ATOM     35 H    GLY C1708     -11.226 -29.662 -14.437  1.00 26.36 LIG 0.16  HD
BRANCH 34 36
ATOM     36  CA  GLY C1708     -12.401 -31.203 -14.104  1.00 26.05 LIG 0.21  C 
BRANCH 36 37
ATOM     37  C   GLY C1708     -13.594 -30.647 -13.355  1.00 34.75 LIG 0.21  C 
ATOM     38 O    GLY C1708     -13.469 -29.703 -12.581  1.00 36.48 LIG-0.29  OA
ENDBRANCH 36 37
ENDBRANCH 34 36
ENDBRANCH 31 32
BRANCH 31 39
ATOM     39  CB  GLU C1707      -7.852 -30.434 -12.417  1.00 30.33 LIG 0.04  C 
BRANCH 39 40
ATOM     40  CG  GLU C1707      -6.518 -30.223 -13.112  1.00 34.25 LIG 0.12  C 
BRANCH 40 41
ATOM     41  CD  GLU C1707      -6.623 -30.314 -14.626  1.00 39.35 LIG 0.17  C 
ATOM     42 OE2  GLU C1707      -6.315 -31.393 -15.178  1.00 42.40 LIG-0.65  OA
ATOM     43 OE1  GLU C1707      -7.010 -29.308 -15.262  1.00 45.84 LIG-0.65  OA
ENDBRANCH 40 41
ENDBRANCH 39 40
ENDBRANCH 31 39
ENDBRANCH 29 31
ENDBRANCH 26 27
BRANCH 26 44
ATOM     44  CB  SER C1706      -9.454 -27.033  -9.380  1.00 19.38 LIG 0.20  C 
BRANCH 44 45
ATOM     45 OG   SER C1706      -9.716 -25.788  -8.743  1.00 20.52 LIG-0.40  OA
ATOM     46 HG   SER C1706     -10.531 -25.739  -8.547  1.00 20.52 LIG 0.21  HD
ENDBRANCH 44 45
ENDBRANCH 26 44
ENDBRANCH 24 26
ENDBRANCH 1 22
BRANCH 1 47
ATOM     47  CB  ARG C1705     -14.217 -25.128  -8.974  1.00 21.30 LIG 0.04  C 
BRANCH 47 48
ATOM     48  CG  ARG C1705     -15.593 -25.206  -8.309  1.00 23.17 LIG 0.02  C 
BRANCH 48 49
ATOM     49  CD  ARG C1705     -16.360 -23.884  -8.371  1.00 21.38 LIG 0.14  C 
BRANCH 49 50
ATOM     50  NE  ARG C1705     -15.756 -22.845  -7.532  1.00 20.43 LIG-0.23  N 
ATOM     51  CZ  ARG C1705     -16.320 -22.311  -6.450  1.00 19.01 LIG 0.67  C 
ATOM     52  NH1 ARG C1705     -17.526 -22.707  -6.038  1.00 20.29 LIG-0.23  N 
ATOM     53  NH2 ARG C1705     -15.675 -21.369  -5.775  1.00 19.46 LIG-0.23  N 
ATOM     54 1HH1 ARG C1705     -17.951 -23.315  -6.474  1.00 20.29 LIG 0.17  HD
ATOM     55 2HH1 ARG C1705     -17.879 -22.353  -5.338  1.00 20.29 LIG 0.17  HD
ATOM     56 2HH2 ARG C1705     -16.034 -21.020  -5.075  1.00 19.46 LIG 0.17  HD
ATOM     57 1HH2 ARG C1705     -14.899 -21.106  -6.037  1.00 19.46 LIG 0.17  HD
ATOM     58 HE   ARG C1705     -14.977 -22.557  -7.756  1.00 20.43 LIG 0.18  HD
ENDBRANCH 49 50
ENDBRANCH 48 49
ENDBRANCH 47 48
ENDBRANCH 1 47
TORSDOF 24
ENDMDL
MODEL 23
USER: ADFR SOLUTION from run 41
USER: SCORE 15.699175 LL:  -3.095 LR: -14.513 RR:   0.000 FEB:  -7.354
USER: RMSD 6.512107
USER: SEED 40
USER: STATUS no improvement in best in 8 clusters for 5 generations
USER: GENES 26
USER: genes 0 Translation |==|  0.28089 0.54330 0.53594
USER: genes 1 Rotation |==|  0.51346 0.30974 0.48202 0.96184
USER: genes 2 Torsion [C]-CA--N-[C] |==|  0.64183
USER: genes 3 Torsion [N]-C--CA-[N] |==|  0.60724
USER: genes 4 Torsion [C]-CA--N-[C] |==|  0.19771
USER: genes 5 Torsion [N]-C--CA-[N] |==|  0.93096
USER: genes 6 Torsion [C]-CA--N-[C] |==|  0.79593
USER: genes 7 Torsion [N]-C--CA-[N] |==|  0.19321
USER: genes 8 Torsion [C]-CA--CB-[SG] |==|  0.07250
USER: genes 9 Torsion [CA]-CB--SG-[HG] |==|  0.13730
USER: genes 10 Torsion [N]-CA--C-[N] |==|  0.91473
USER: genes 11 Torsion [C]-N--CA-[C] |==|  0.77433
USER: genes 12 Torsion [N]-CA--C-[N] |==|  0.35720
USER: genes 13 Torsion [C]-N--CA-[CB] |==|  0.13137
USER: genes 14 Torsion [N]-CA--C-[N] |==|  0.63343
USER: genes 15 Torsion [C]-N--CA-[C] |==|  0.69981
USER: genes 16 Torsion [N]-CA--C-[O] |==|  0.08022
USER: genes 17 Torsion [N]-CA--CB-[CG] |==|  0.65294
USER: genes 18 Torsion [CA]-CB--CG-[CD] |==|  0.63202
USER: genes 19 Torsion [CB]-CG--CD-[OE2] |==|  0.09917
USER: genes 20 Torsion [N]-CA--CB-[OG] |==|  0.11778
USER: genes 21 Torsion [CA]-CB--OG-[HG] |==|  0.08431
USER: genes 22 Torsion [N]-CA--CB-[CG] |==|  0.86305
USER: genes 23 Torsion [CA]-CB--CG-[CD] |==|  0.50135
USER: genes 24 Torsion [CB]-CG--CD-[NE] |==|  0.50599
USER: genes 25 Torsion [CG]-CD--NE-[CZ] |==|  0.34788
ROOT
ATOM      1  CA  ARG C1705     -17.355 -26.828  -7.608  1.00 19.53 LIG 0.18  C 
ENDROOT
BRANCH 1 2
ATOM      2  N   ARG C1705     -16.478 -27.470  -6.625  1.00 19.64 LIG-0.35  N 
ATOM      3 H    ARG C1705     -15.651 -27.540  -6.853  1.00 19.64 LIG 0.16  HD
ATOM      4  C   ALA C1704     -16.996 -27.891  -5.476  1.00 22.93 LIG 0.24  C 
ATOM      5 O    ALA C1704     -18.207 -27.815  -5.234  1.00 21.24 LIG-0.27  OA
BRANCH 4 6
ATOM      6  CA  ALA C1704     -16.039 -28.499  -4.452  1.00 20.87 LIG 0.17  C 
ATOM      7  CB  ALA C1704     -14.716 -28.875  -5.090  1.00 18.21 LIG 0.04  C 
BRANCH 6 8
ATOM      8  N   ALA C1704     -16.611 -29.640  -3.751  1.00 22.42 LIG-0.35  N 
ATOM      9  C   CYS C1703     -16.798 -30.798  -4.375  1.00 22.90 LIG 0.24  C 
ATOM     10 O    CYS C1703     -16.435 -31.003  -5.531  1.00 23.45 LIG-0.27  OA
ATOM     11 H    ALA C1704     -16.807 -29.495  -2.926  1.00 22.42 LIG 0.16  HD
BRANCH 9 12
ATOM     12  CA  CYS C1703     -17.497 -31.890  -3.577  1.00 24.41 LIG 0.18  C 
BRANCH 12 13
ATOM     13  N   CYS C1703     -17.313 -31.683  -2.140  1.00 24.32 LIG-0.34  N 
ATOM     14  C   GLY C1702     -16.133 -31.929  -1.572  1.00 24.70 LIG 0.25  C 
ATOM     15 O    GLY C1702     -15.184 -32.400  -2.199  1.00 27.37 LIG-0.27  OA
ATOM     16 H    CYS C1703     -18.008 -31.402  -1.721  1.00 24.32 LIG 0.16  HD
BRANCH 14 17
ATOM     17  CA  GLY C1702     -15.994 -31.604  -0.095  1.00 25.50 LIG 0.47  C 
ATOM     18  N   GLY C1702     -16.772 -32.501   0.745  1.00 32.41 LIG 0.61  N 
ENDBRANCH 14 17
ENDBRANCH 12 13
BRANCH 12 19
ATOM     19  CB  CYS C1703     -18.988 -31.970  -3.949  1.00 19.88 LIG 0.10  C 
BRANCH 19 20
ATOM     20 SG   CYS C1703     -19.410 -31.391  -5.606  1.00 23.51 LIG-0.18  SA
ATOM     21 HG   CYS C1703     -18.676 -31.901  -6.407  1.00 23.51 LIG 0.10  HD
ENDBRANCH 19 20
ENDBRANCH 12 19
ENDBRANCH 9 12
ENDBRANCH 6 8
ENDBRANCH 4 6
ENDBRANCH 1 2
BRANCH 1 22
ATOM     22  C   ARG C1705     -17.250 -27.421  -9.023  1.00 20.76 LIG 0.24  C 
ATOM     23 O    ARG C1705     -18.228 -27.415  -9.779  1.00 22.20 LIG-0.27  OA
ATOM     24  N   SER C1706     -16.073 -27.925  -9.389  1.00 20.62 LIG-0.34  N 
ATOM     25 H    SER C1706     -15.378 -27.951  -8.883  1.00 20.62 LIG 0.16  HD
BRANCH 24 26
ATOM     26  CA  SER C1706     -15.884 -28.486 -10.722  1.00 20.36 LIG 0.20  C 
BRANCH 26 27
ATOM     27  C   SER C1706     -16.411 -29.915 -10.802  1.00 23.85 LIG 0.24  C 
ATOM     28 O    SER C1706     -16.056 -30.761  -9.981  1.00 24.92 LIG-0.27  OA
ATOM     29  N   GLU C1707     -17.245 -30.183 -11.798  1.00 21.35 LIG-0.35  N 
ATOM     30 H    GLU C1707     -17.526 -29.596 -12.362  1.00 21.35 LIG 0.16  HD
BRANCH 29 31
ATOM     31  CA  GLU C1707     -17.764 -31.532 -12.017  1.00 28.80 LIG 0.18  C 
BRANCH 31 32
ATOM     32  C   GLU C1707     -18.898 -31.504 -13.032  1.00 29.29 LIG 0.24  C 
ATOM     33 O    GLU C1707     -18.774 -30.892 -14.095  1.00 32.31 LIG-0.27  OA
ATOM     34  N   GLY C1708     -20.000 -32.167 -12.694  1.00 26.36 LIG-0.35  N 
ATOM     35 H    GLY C1708     -20.103 -32.571 -11.942  1.00 26.36 LIG 0.16  HD
BRANCH 34 36
ATOM     36  CA  GLY C1708     -21.141 -32.261 -13.583  1.00 26.05 LIG 0.21  C 
BRANCH 36 37
ATOM     37  C   GLY C1708     -22.322 -31.430 -13.126  1.00 34.75 LIG 0.21  C 
ATOM     38 O    GLY C1708     -22.157 -30.408 -12.469  1.00 36.48 LIG-0.29  OA
ENDBRANCH 36 37
ENDBRANCH 34 36
ENDBRANCH 31 32
BRANCH 31 39
ATOM     39  CB  GLU C1707     -18.274 -32.154 -10.713  1.00 30.33 LIG 0.04  C 
BRANCH 39 40
ATOM     40  CG  GLU C1707     -17.649 -33.497 -10.374  1.00 34.25 LIG 0.12  C 
BRANCH 40 41
ATOM     41  CD  GLU C1707     -18.681 -34.542  -9.977  1.00 39.35 LIG 0.17  C 
ATOM     42 OE2  GLU C1707     -19.789 -34.531 -10.554  1.00 42.40 LIG-0.65  OA
ATOM     43 OE1  GLU C1707     -18.382 -35.370  -9.087  1.00 45.84 LIG-0.65  OA
ENDBRANCH 40 41
ENDBRANCH 39 40
ENDBRANCH 31 39
ENDBRANCH 29 31
ENDBRANCH 26 27
BRANCH 26 44
ATOM     44  CB  SER C1706     -14.412 -28.430 -11.145  1.00 19.38 LIG 0.20  C 
BRANCH 44 45
ATOM     45 OG   SER C1706     -13.547 -28.800 -10.077  1.00 20.52 LIG-0.40  OA
ATOM     46 HG   SER C1706     -13.937 -29.352  -9.579  1.00 20.52 LIG 0.21  HD
ENDBRANCH 44 45
ENDBRANCH 26 44
ENDBRANCH 24 26
ENDBRANCH 1 22
BRANCH 1 47
ATOM     47  CB  ARG C1705     -17.151 -25.307  -7.635  1.00 21.30 LIG 0.04  C 
BRANCH 47 48
ATOM     48  CG  ARG C1705     -17.188 -24.680  -6.240  1.00 23.17 LIG 0.02  C 
BRANCH 48 49
ATOM     49  CD  ARG C1705     -16.997 -23.162  -6.264  1.00 21.38 LIG 0.14  C 
BRANCH 49 50
ATOM     50  NE  ARG C1705     -16.983 -22.577  -4.920  1.00 20.43 LIG-0.23  N 
ATOM     51  CZ  ARG C1705     -16.011 -21.811  -4.429  1.00 19.01 LIG 0.67  C 
ATOM     52  NH1 ARG C1705     -14.937 -21.510  -5.163  1.00 20.29 LIG-0.23  N 
ATOM     53  NH2 ARG C1705     -16.109 -21.345  -3.191  1.00 19.46 LIG-0.23  N 
ATOM     54 1HH1 ARG C1705     -14.866 -21.812  -5.965  1.00 20.29 LIG 0.17  HD
ATOM     55 2HH1 ARG C1705     -14.317 -21.015  -4.833  1.00 20.29 LIG 0.17  HD
ATOM     56 2HH2 ARG C1705     -15.485 -20.849  -2.868  1.00 19.46 LIG 0.17  HD
ATOM     57 1HH2 ARG C1705     -16.796 -21.538  -2.712  1.00 19.46 LIG 0.17  HD
ATOM     58 HE   ARG C1705     -17.655 -22.741  -4.409  1.00 20.43 LIG 0.18  HD
ENDBRANCH 49 50
ENDBRANCH 48 49
ENDBRANCH 47 48
ENDBRANCH 1 47
TORSDOF 24
ENDMDL
MODEL 24
USER: ADFR SOLUTION from run 76
USER: SCORE 16.574090 LL:  -3.708 LR: -14.482 RR:   0.000 FEB:  -7.322
USER: RMSD 4.373432
USER: SEED 75
USER: STATUS searching
USER: GENES 26
USER: genes 0 Translation |==|  0.31898 0.60982 0.54937
USER: genes 1 Rotation |==|  0.50540 0.29750 0.36976 0.93818
USER: genes 2 Torsion [C]-CA--N-[C] |==|  0.76982
USER: genes 3 Torsion [N]-C--CA-[N] |==|  0.94015
USER: genes 4 Torsion [C]-CA--N-[C] |==|  0.80106
USER: genes 5 Torsion [N]-C--CA-[N] |==|  0.62177
USER: genes 6 Torsion [C]-CA--N-[C] |==|  0.14280
USER: genes 7 Torsion [N]-C--CA-[N] |==|  0.78109
USER: genes 8 Torsion [C]-CA--CB-[SG] |==|  0.61835
USER: genes 9 Torsion [CA]-CB--SG-[HG] |==|  0.93874
USER: genes 10 Torsion [N]-CA--C-[N] |==|  0.99269
USER: genes 11 Torsion [C]-N--CA-[C] |==|  0.60762
USER: genes 12 Torsion [N]-CA--C-[N] |==|  0.78156
USER: genes 13 Torsion [C]-N--CA-[CB] |==|  0.75937
USER: genes 14 Torsion [N]-CA--C-[N] |==|  0.17541
USER: genes 15 Torsion [C]-N--CA-[C] |==|  0.15535
USER: genes 16 Torsion [N]-CA--C-[O] |==|  0.49555
USER: genes 17 Torsion [N]-CA--CB-[CG] |==|  0.53848
USER: genes 18 Torsion [CA]-CB--CG-[CD] |==|  0.63611
USER: genes 19 Torsion [CB]-CG--CD-[OE2] |==|  0.87888
USER: genes 20 Torsion [N]-CA--CB-[OG] |==|  0.94969
USER: genes 21 Torsion [CA]-CB--OG-[HG] |==|  0.07117
USER: genes 22 Torsion [N]-CA--CB-[CG] |==|  0.65461
USER: genes 23 Torsion [CA]-CB--CG-[CD] |==|  0.33848
USER: genes 24 Torsion [CB]-CG--CD-[NE] |==|  0.66941
USER: genes 25 Torsion [CG]-CD--NE-[CZ] |==|  0.52535
ROOT
ATOM      1  CA  ARG C1705     -16.669 -25.331  -7.366  1.00 19.53 LIG 0.18  C 
ENDROOT
BRANCH 1 2
ATOM      2  N   ARG C1705     -16.238 -26.401  -6.462  1.00 19.64 LIG-0.35  N 
ATOM      3 H    ARG C1705     -15.410 -26.379  -6.228  1.00 19.64 LIG 0.16  HD
ATOM      4  C   ALA C1704     -17.123 -27.311  -6.071  1.00 22.93 LIG 0.24  C 
ATOM      5 O    ALA C1704     -18.286 -27.322  -6.494  1.00 21.24 LIG-0.27  OA
BRANCH 4 6
ATOM      6  CA  ALA C1704     -16.650 -28.375  -5.081  1.00 20.87 LIG 0.17  C 
ATOM      7  CB  ALA C1704     -17.152 -28.083  -3.680  1.00 18.21 LIG 0.04  C 
BRANCH 6 8
ATOM      8  N   ALA C1704     -15.205 -28.547  -5.082  1.00 22.42 LIG-0.35  N 
ATOM      9  C   CYS C1703     -14.590 -29.130  -6.105  1.00 22.90 LIG 0.24  C 
ATOM     10 O    CYS C1703     -15.175 -29.480  -7.128  1.00 23.45 LIG-0.27  OA
ATOM     11 H    ALA C1704     -14.805 -28.245  -4.383  1.00 22.42 LIG 0.16  HD
BRANCH 9 12
ATOM     12  CA  CYS C1703     -13.091 -29.350  -5.956  1.00 24.41 LIG 0.18  C 
BRANCH 12 13
ATOM     13  N   CYS C1703     -12.387 -28.989  -7.187  1.00 24.32 LIG-0.34  N 
ATOM     14  C   GLY C1702     -12.595 -27.802  -7.756  1.00 24.70 LIG 0.25  C 
ATOM     15 O    GLY C1702     -13.424 -27.000  -7.325  1.00 27.37 LIG-0.27  OA
ATOM     16 H    CYS C1703     -11.852 -29.590  -7.490  1.00 24.32 LIG 0.16  HD
BRANCH 14 17
ATOM     17  CA  GLY C1702     -11.760 -27.465  -8.979  1.00 25.50 LIG 0.47  C 
ATOM     18  N   GLY C1702     -10.414 -27.039  -8.630  1.00 32.41 LIG 0.61  N 
ENDBRANCH 14 17
ENDBRANCH 12 13
BRANCH 12 19
ATOM     19  CB  CYS C1703     -12.543 -28.575  -4.744  1.00 19.88 LIG 0.10  C 
BRANCH 19 20
ATOM     20 SG   CYS C1703     -10.973 -27.723  -5.008  1.00 23.51 LIG-0.18  SA
ATOM     21 HG   CYS C1703     -10.393 -28.230  -5.928  1.00 23.51 LIG 0.10  HD
ENDBRANCH 19 20
ENDBRANCH 12 19
ENDBRANCH 9 12
ENDBRANCH 6 8
ENDBRANCH 4 6
ENDBRANCH 1 2
BRANCH 1 22
ATOM     22  C   ARG C1705     -16.684 -25.733  -8.851  1.00 20.76 LIG 0.24  C 
ATOM     23 O    ARG C1705     -17.069 -24.934  -9.712  1.00 22.20 LIG-0.27  OA
ATOM     24  N   SER C1706     -16.262 -26.958  -9.156  1.00 20.62 LIG-0.34  N 
ATOM     25 H    SER C1706     -15.996 -27.539  -8.580  1.00 20.62 LIG 0.16  HD
BRANCH 24 26
ATOM     26  CA  SER C1706     -16.222 -27.409 -10.543  1.00 20.36 LIG 0.20  C 
BRANCH 26 27
ATOM     27  C   SER C1706     -16.648 -28.869 -10.664  1.00 23.85 LIG 0.24  C 
ATOM     28 O    SER C1706     -17.785 -29.162 -11.034  1.00 24.92 LIG-0.27  OA
ATOM     29  N   GLU C1707     -15.738 -29.779 -10.339  1.00 21.35 LIG-0.35  N 
ATOM     30 H    GLU C1707     -14.931 -29.591 -10.107  1.00 21.35 LIG 0.16  HD
BRANCH 29 31
ATOM     31  CA  GLU C1707     -16.050 -31.208 -10.350  1.00 28.80 LIG 0.18  C 
BRANCH 31 32
ATOM     32  C   GLU C1707     -17.025 -31.526 -11.474  1.00 29.29 LIG 0.24  C 
ATOM     33 O    GLU C1707     -18.148 -31.969 -11.226  1.00 32.31 LIG-0.27  OA
ATOM     34  N   GLY C1708     -16.585 -31.301 -12.709  1.00 26.36 LIG-0.35  N 
ATOM     35 H    GLY C1708     -15.793 -31.020 -12.891  1.00 26.36 LIG 0.16  HD
BRANCH 34 36
ATOM     36  CA  GLY C1708     -17.422 -31.518 -13.873  1.00 26.05 LIG 0.21  C 
BRANCH 36 37
ATOM     37  C   GLY C1708     -18.723 -30.746 -13.822  1.00 34.75 LIG 0.21  C 
ATOM     38 O    GLY C1708     -19.526 -30.802 -14.747  1.00 36.48 LIG-0.29  OA
ENDBRANCH 36 37
ENDBRANCH 34 36
ENDBRANCH 31 32
BRANCH 31 39
ATOM     39  CB  GLU C1707     -16.656 -31.659  -9.018  1.00 30.33 LIG 0.04  C 
BRANCH 39 40
ATOM     40  CG  GLU C1707     -16.700 -33.165  -8.828  1.00 34.25 LIG 0.12  C 
BRANCH 40 41
ATOM     41  CD  GLU C1707     -18.064 -33.662  -8.374  1.00 39.35 LIG 0.17  C 
ATOM     42 OE2  GLU C1707     -18.661 -33.023  -7.481  1.00 42.40 LIG-0.65  OA
ATOM     43 OE1  GLU C1707     -18.536 -34.691  -8.908  1.00 45.84 LIG-0.65  OA
ENDBRANCH 40 41
ENDBRANCH 39 40
ENDBRANCH 31 39
ENDBRANCH 29 31
ENDBRANCH 26 27
BRANCH 26 44
ATOM     44  CB  SER C1706     -14.833 -27.201 -11.156  1.00 19.38 LIG 0.20  C 
BRANCH 44 45
ATOM     45 OG   SER C1706     -14.063 -26.271 -10.403  1.00 20.52 LIG-0.40  OA
ATOM     46 HG   SER C1706     -14.332 -26.264  -9.608  1.00 20.52 LIG 0.21  HD
ENDBRANCH 44 45
ENDBRANCH 26 44
ENDBRANCH 24 26
ENDBRANCH 1 22
BRANCH 1 47
ATOM     47  CB  ARG C1705     -15.851 -24.050  -7.154  1.00 21.30 LIG 0.04  C 
BRANCH 47 48
ATOM     48  CG  ARG C1705     -16.725 -22.833  -6.848  1.00 23.17 LIG 0.02  C 
BRANCH 48 49
ATOM     49  CD  ARG C1705     -16.383 -22.176  -5.509  1.00 21.38 LIG 0.14  C 
BRANCH 49 50
ATOM     50  NE  ARG C1705     -17.512 -22.187  -4.574  1.00 20.43 LIG-0.23  N 
ATOM     51  CZ  ARG C1705     -17.551 -21.536  -3.413  1.00 19.01 LIG 0.67  C 
ATOM     52  NH1 ARG C1705     -16.518 -20.795  -3.007  1.00 20.29 LIG-0.23  N 
ATOM     53  NH2 ARG C1705     -18.630 -21.630  -2.647  1.00 19.46 LIG-0.23  N 
ATOM     54 1HH1 ARG C1705     -15.814 -20.733  -3.497  1.00 20.29 LIG 0.17  HD
ATOM     55 2HH1 ARG C1705     -16.556 -20.381  -2.254  1.00 20.29 LIG 0.17  HD
ATOM     56 2HH2 ARG C1705     -18.661 -21.212  -1.896  1.00 19.46 LIG 0.17  HD
ATOM     57 1HH2 ARG C1705     -19.298 -22.108  -2.901  1.00 19.46 LIG 0.17  HD
ATOM     58 HE   ARG C1705     -18.203 -22.650  -4.793  1.00 20.43 LIG 0.18  HD
ENDBRANCH 49 50
ENDBRANCH 48 49
ENDBRANCH 47 48
ENDBRANCH 1 47
TORSDOF 24
ENDMDL
MODEL 25
USER: ADFR SOLUTION from run 107
USER: SCORE 17.647243 LL:  -4.731 LR: -14.384 RR:   0.000 FEB:  -7.225
USER: RMSD 1.990900
USER: SEED 106
USER: STATUS no improvement in best in 2 clusters for 5 generations
USER: GENES 26
USER: genes 0 Translation |==|  0.41160 0.57203 0.54232
USER: genes 1 Rotation |==|  0.49088 0.48530 0.49208 0.99964
USER: genes 2 Torsion [C]-CA--N-[C] |==|  0.78337
USER: genes 3 Torsion [N]-C--CA-[N] |==|  0.91600
USER: genes 4 Torsion [C]-CA--N-[C] |==|  0.82778
USER: genes 5 Torsion [N]-C--CA-[N] |==|  0.44050
USER: genes 6 Torsion [C]-CA--N-[C] |==|  0.59444
USER: genes 7 Torsion [N]-C--CA-[N] |==|  0.96129
USER: genes 8 Torsion [C]-CA--CB-[SG] |==|  0.93273
USER: genes 9 Torsion [CA]-CB--SG-[HG] |==|  0.27395
USER: genes 10 Torsion [N]-CA--C-[N] |==|  0.94871
USER: genes 11 Torsion [C]-N--CA-[C] |==|  0.80026
USER: genes 12 Torsion [N]-CA--C-[N] |==|  0.96159
USER: genes 13 Torsion [C]-N--CA-[CB] |==|  0.30534
USER: genes 14 Torsion [N]-CA--C-[N] |==|  0.97611
USER: genes 15 Torsion [C]-N--CA-[C] |==|  0.57339
USER: genes 16 Torsion [N]-CA--C-[O] |==|  0.11618
USER: genes 17 Torsion [N]-CA--CB-[CG] |==|  0.53600
USER: genes 18 Torsion [CA]-CB--CG-[CD] |==|  0.18994
USER: genes 19 Torsion [CB]-CG--CD-[OE2] |==|  0.46634
USER: genes 20 Torsion [N]-CA--CB-[OG] |==|  0.13188
USER: genes 21 Torsion [CA]-CB--OG-[HG] |==|  0.10288
USER: genes 22 Torsion [N]-CA--CB-[CG] |==|  0.46796
USER: genes 23 Torsion [CA]-CB--CG-[CD] |==|  0.34388
USER: genes 24 Torsion [CB]-CG--CD-[NE] |==|  0.04441
USER: genes 25 Torsion [CG]-CD--NE-[CZ] |==|  0.58924
ROOT
ATOM      1  CA  ARG C1705     -15.002 -26.181  -7.493  1.00 19.53 LIG 0.18  C 
ENDROOT
BRANCH 1 2
ATOM      2  N   ARG C1705     -13.662 -26.742  -7.301  1.00 19.64 LIG-0.35  N 
ATOM      3 H    ARG C1705     -13.017 -26.297  -7.656  1.00 19.64 LIG 0.16  HD
ATOM      4  C   ALA C1704     -13.527 -27.869  -6.611  1.00 22.93 LIG 0.24  C 
ATOM      5 O    ALA C1704     -14.503 -28.495  -6.176  1.00 21.24 LIG-0.27  OA
BRANCH 4 6
ATOM      6  CA  ALA C1704     -12.109 -28.390  -6.379  1.00 20.87 LIG 0.17  C 
ATOM      7  CB  ALA C1704     -11.565 -27.928  -5.041  1.00 18.21 LIG 0.04  C 
BRANCH 6 8
ATOM      8  N   ALA C1704     -11.194 -28.035  -7.454  1.00 22.42 LIG-0.35  N 
ATOM      9  C   CYS C1703     -11.399 -28.470  -8.692  1.00 22.90 LIG 0.24  C 
ATOM     10 O    CYS C1703     -12.392 -29.114  -9.022  1.00 23.45 LIG-0.27  OA
ATOM     11 H    ALA C1704     -10.535 -27.536  -7.216  1.00 22.42 LIG 0.16  HD
BRANCH 9 12
ATOM     12  CA  CYS C1703     -10.325 -28.124  -9.716  1.00 24.41 LIG 0.18  C 
BRANCH 12 13
ATOM     13  N   CYS C1703     -10.380 -29.037 -10.857  1.00 24.32 LIG-0.34  N 
ATOM     14  C   GLY C1702      -9.262 -29.395 -11.487  1.00 24.70 LIG 0.25  C 
ATOM     15 O    GLY C1702      -8.161 -28.927 -11.192  1.00 27.37 LIG-0.27  OA
ATOM     16 H    CYS C1703     -11.168 -29.307 -11.070  1.00 24.32 LIG 0.16  HD
BRANCH 14 17
ATOM     17  CA  GLY C1702      -9.390 -30.416 -12.603  1.00 25.50 LIG 0.47  C 
ATOM     18  N   GLY C1702     -10.682 -31.085 -12.595  1.00 32.41 LIG 0.61  N 
ENDBRANCH 14 17
ENDBRANCH 12 13
BRANCH 12 19
ATOM     19  CB  CYS C1703     -10.448 -26.656 -10.161  1.00 19.88 LIG 0.10  C 
BRANCH 19 20
ATOM     20 SG   CYS C1703     -12.086 -25.920  -9.976  1.00 23.51 LIG-0.18  SA
ATOM     21 HG   CYS C1703     -12.123 -25.275  -8.965  1.00 23.51 LIG 0.10  HD
ENDBRANCH 19 20
ENDBRANCH 12 19
ENDBRANCH 9 12
ENDBRANCH 6 8
ENDBRANCH 4 6
ENDBRANCH 1 2
BRANCH 1 22
ATOM     22  C   ARG C1705     -15.827 -26.889  -8.581  1.00 20.76 LIG 0.24  C 
ATOM     23 O    ARG C1705     -17.055 -26.754  -8.623  1.00 22.20 LIG-0.27  OA
ATOM     24  N   SER C1706     -15.164 -27.634  -9.464  1.00 20.62 LIG-0.34  N 
ATOM     25 H    SER C1706     -14.312 -27.754  -9.455  1.00 20.62 LIG 0.16  HD
BRANCH 24 26
ATOM     26  CA  SER C1706     -15.870 -28.320 -10.541  1.00 20.36 LIG 0.20  C 
BRANCH 26 27
ATOM     27  C   SER C1706     -16.680 -29.498 -10.010  1.00 23.85 LIG 0.24  C 
ATOM     28 O    SER C1706     -17.542 -30.032 -10.709  1.00 24.92 LIG-0.27  OA
ATOM     29  N   GLU C1707     -16.411 -29.891  -8.771  1.00 21.35 LIG-0.35  N 
ATOM     30 H    GLU C1707     -15.792 -29.548  -8.281  1.00 21.35 LIG 0.16  HD
BRANCH 29 31
ATOM     31  CA  GLU C1707     -17.167 -30.966  -8.130  1.00 28.80 LIG 0.18  C 
BRANCH 31 32
ATOM     32  C   GLU C1707     -17.671 -30.516  -6.767  1.00 29.29 LIG 0.24  C 
ATOM     33 O    GLU C1707     -18.465 -31.212  -6.129  1.00 32.31 LIG-0.27  OA
ATOM     34  N   GLY C1708     -17.207 -29.349  -6.329  1.00 26.36 LIG-0.35  N 
ATOM     35 H    GLY C1708     -16.676 -28.846  -6.781  1.00 26.36 LIG 0.16  HD
BRANCH 34 36
ATOM     36  CA  GLY C1708     -17.569 -28.819  -5.029  1.00 26.05 LIG 0.21  C 
BRANCH 36 37
ATOM     37  C   GLY C1708     -17.498 -27.309  -4.962  1.00 34.75 LIG 0.21  C 
ATOM     38 O    GLY C1708     -17.911 -26.616  -5.886  1.00 36.48 LIG-0.29  OA
ENDBRANCH 36 37
ENDBRANCH 34 36
ENDBRANCH 31 32
BRANCH 31 39
ATOM     39  CB  GLU C1707     -16.313 -32.226  -7.959  1.00 30.33 LIG 0.04  C 
BRANCH 39 40
ATOM     40  CG  GLU C1707     -17.100 -33.471  -7.591  1.00 34.25 LIG 0.12  C 
BRANCH 40 41
ATOM     41  CD  GLU C1707     -17.997 -33.955  -8.721  1.00 39.35 LIG 0.17  C 
ATOM     42 OE2  GLU C1707     -18.514 -35.089  -8.624  1.00 42.40 LIG-0.65  OA
ATOM     43 OE1  GLU C1707     -18.181 -33.202  -9.704  1.00 45.84 LIG-0.65  OA
ENDBRANCH 40 41
ENDBRANCH 39 40
ENDBRANCH 31 39
ENDBRANCH 29 31
ENDBRANCH 26 27
BRANCH 26 44
ATOM     44  CB  SER C1706     -14.901 -28.782 -11.634  1.00 19.38 LIG 0.20  C 
BRANCH 44 45
ATOM     45 OG   SER C1706     -13.767 -29.443 -11.084  1.00 20.52 LIG-0.40  OA
ATOM     46 HG   SER C1706     -14.005 -29.901 -10.422  1.00 20.52 LIG 0.21  HD
ENDBRANCH 44 45
ENDBRANCH 26 44
ENDBRANCH 24 26
ENDBRANCH 1 22
BRANCH 1 47
ATOM     47  CB  ARG C1705     -14.948 -24.668  -7.744  1.00 21.30 LIG 0.04  C 
BRANCH 47 48
ATOM     48  CG  ARG C1705     -16.285 -24.100  -8.224  1.00 23.17 LIG 0.02  C 
BRANCH 48 49
ATOM     49  CD  ARG C1705     -16.804 -22.967  -7.337  1.00 21.38 LIG 0.14  C 
BRANCH 49 50
ATOM     50  NE  ARG C1705     -15.764 -22.421  -6.459  1.00 20.43 LIG-0.23  N 
ATOM     51  CZ  ARG C1705     -15.974 -21.924  -5.242  1.00 19.01 LIG 0.67  C 
ATOM     52  NH1 ARG C1705     -17.201 -21.892  -4.715  1.00 20.29 LIG-0.23  N 
ATOM     53  NH2 ARG C1705     -14.951 -21.451  -4.544  1.00 19.46 LIG-0.23  N 
ATOM     54 1HH1 ARG C1705     -17.869 -22.194  -5.164  1.00 20.29 LIG 0.17  HD
ATOM     55 2HH1 ARG C1705     -17.322 -21.568  -3.928  1.00 20.29 LIG 0.17  HD
ATOM     56 2HH2 ARG C1705     -15.080 -21.129  -3.757  1.00 19.46 LIG 0.17  HD
ATOM     57 1HH2 ARG C1705     -14.159 -21.466  -4.878  1.00 19.46 LIG 0.17  HD
ATOM     58 HE   ARG C1705     -14.957 -22.422  -6.753  1.00 20.43 LIG 0.18  HD
ENDBRANCH 49 50
ENDBRANCH 48 49
ENDBRANCH 47 48
ENDBRANCH 1 47
TORSDOF 24
ENDMDL
MODEL 26
USER: ADFR SOLUTION from run 35
USER: SCORE 16.980513 LL:  -3.724 LR: -14.347 RR:   0.000 FEB:  -7.187
USER: RMSD 7.173275
USER: SEED 34
USER: STATUS searching
USER: GENES 26
USER: genes 0 Translation |==|  0.45711 0.57420 0.39247
USER: genes 1 Rotation |==|  0.65753 0.10933 0.32073 0.70105
USER: genes 2 Torsion [C]-CA--N-[C] |==|  0.75798
USER: genes 3 Torsion [N]-C--CA-[N] |==|  0.47991
USER: genes 4 Torsion [C]-CA--N-[C] |==|  0.54593
USER: genes 5 Torsion [N]-C--CA-[N] |==|  0.32435
USER: genes 6 Torsion [C]-CA--N-[C] |==|  0.78186
USER: genes 7 Torsion [N]-C--CA-[N] |==|  0.40167
USER: genes 8 Torsion [C]-CA--CB-[SG] |==|  0.60364
USER: genes 9 Torsion [CA]-CB--SG-[HG] |==|  0.62531
USER: genes 10 Torsion [N]-CA--C-[N] |==|  0.89491
USER: genes 11 Torsion [C]-N--CA-[C] |==|  0.65656
USER: genes 12 Torsion [N]-CA--C-[N] |==|  0.37235
USER: genes 13 Torsion [C]-N--CA-[CB] |==|  0.79393
USER: genes 14 Torsion [N]-CA--C-[N] |==|  0.21227
USER: genes 15 Torsion [C]-N--CA-[C] |==|  0.28788
USER: genes 16 Torsion [N]-CA--C-[O] |==|  0.97802
USER: genes 17 Torsion [N]-CA--CB-[CG] |==|  0.70580
USER: genes 18 Torsion [CA]-CB--CG-[CD] |==|  0.89642
USER: genes 19 Torsion [CB]-CG--CD-[OE2] |==|  0.72084
USER: genes 20 Torsion [N]-CA--CB-[OG] |==|  0.83805
USER: genes 21 Torsion [CA]-CB--OG-[HG] |==|  0.14607
USER: genes 22 Torsion [N]-CA--CB-[CG] |==|  0.86438
USER: genes 23 Torsion [CA]-CB--CG-[CD] |==|  0.68968
USER: genes 24 Torsion [CB]-CG--CD-[NE] |==|  0.82342
USER: genes 25 Torsion [CG]-CD--NE-[CZ] |==|  0.67594
ROOT
ATOM      1  CA  ARG C1705     -14.183 -26.132 -10.190  1.00 19.53 LIG 0.18  C 
ENDROOT
BRANCH 1 2
ATOM      2  N   ARG C1705     -14.809 -27.455 -10.105  1.00 19.64 LIG-0.35  N 
ATOM      3 H    ARG C1705     -14.767 -27.838  -9.336  1.00 19.64 LIG 0.16  HD
ATOM      4  C   ALA C1704     -15.385 -27.967 -11.188  1.00 22.93 LIG 0.24  C 
ATOM      5 O    ALA C1704     -15.356 -27.390 -12.283  1.00 21.24 LIG-0.27  OA
BRANCH 4 6
ATOM      6  CA  ALA C1704     -16.080 -29.320 -11.044  1.00 20.87 LIG 0.17  C 
ATOM      7  CB  ALA C1704     -15.096 -30.405 -10.649  1.00 18.21 LIG 0.04  C 
BRANCH 6 8
ATOM      8  N   ALA C1704     -16.816 -29.708 -12.238  1.00 22.42 LIG-0.35  N 
ATOM      9  C   CYS C1703     -17.732 -30.669 -12.190  1.00 22.90 LIG 0.24  C 
ATOM     10 O    CYS C1703     -18.068 -31.224 -11.147  1.00 23.45 LIG-0.27  OA
ATOM     11 H    ALA C1704     -16.608 -29.269 -12.949  1.00 22.42 LIG 0.16  HD
BRANCH 9 12
ATOM     12  CA  CYS C1703     -18.368 -31.063 -13.517  1.00 24.41 LIG 0.18  C 
BRANCH 12 13
ATOM     13  N   CYS C1703     -18.060 -32.455 -13.849  1.00 24.32 LIG-0.34  N 
ATOM     14  C   GLY C1702     -16.869 -32.777 -14.352  1.00 24.70 LIG 0.25  C 
ATOM     15 O    GLY C1702     -16.017 -31.931 -14.625  1.00 27.37 LIG-0.27  OA
ATOM     16 H    CYS C1703     -18.693 -33.015 -13.694  1.00 24.32 LIG 0.16  HD
BRANCH 14 17
ATOM     17  CA  GLY C1702     -16.592 -34.252 -14.585  1.00 25.50 LIG 0.47  C 
ATOM     18  N   GLY C1702     -15.781 -34.483 -15.770  1.00 32.41 LIG 0.61  N 
ENDBRANCH 14 17
ENDBRANCH 12 13
BRANCH 12 19
ATOM     19  CB  CYS C1703     -19.886 -30.812 -13.491  1.00 19.88 LIG 0.10  C 
BRANCH 19 20
ATOM     20 SG   CYS C1703     -20.894 -32.038 -14.351  1.00 23.51 LIG-0.18  SA
ATOM     21 HG   CYS C1703     -21.718 -31.479 -15.021  1.00 23.51 LIG 0.10  HD
ENDBRANCH 19 20
ENDBRANCH 12 19
ENDBRANCH 9 12
ENDBRANCH 6 8
ENDBRANCH 4 6
ENDBRANCH 1 2
BRANCH 1 22
ATOM     22  C   ARG C1705     -12.718 -26.161 -10.658  1.00 20.76 LIG 0.24  C 
ATOM     23 O    ARG C1705     -12.282 -25.277 -11.404  1.00 22.20 LIG-0.27  OA
ATOM     24  N   SER C1706     -11.957 -27.163 -10.222  1.00 20.62 LIG-0.34  N 
ATOM     25 H    SER C1706     -12.234 -27.796  -9.711  1.00 20.62 LIG 0.16  HD
BRANCH 24 26
ATOM     26  CA  SER C1706     -10.551 -27.250 -10.601  1.00 20.36 LIG 0.20  C 
BRANCH 26 27
ATOM     27  C   SER C1706     -10.240 -28.583 -11.274  1.00 23.85 LIG 0.24  C 
ATOM     28 O    SER C1706     -10.643 -29.640 -10.788  1.00 24.92 LIG-0.27  OA
ATOM     29  N   GLU C1707      -9.515 -28.530 -12.384  1.00 21.35 LIG-0.35  N 
ATOM     30 H    GLU C1707      -9.252 -27.799 -12.753  1.00 21.35 LIG 0.16  HD
BRANCH 29 31
ATOM     31  CA  GLU C1707      -9.098 -29.746 -13.082  1.00 28.80 LIG 0.18  C 
BRANCH 31 32
ATOM     32  C   GLU C1707     -10.276 -30.696 -13.238  1.00 29.29 LIG 0.24  C 
ATOM     33 O    GLU C1707     -10.380 -31.692 -12.518  1.00 32.31 LIG-0.27  OA
ATOM     34  N   GLY C1708     -11.157 -30.383 -14.183  1.00 26.36 LIG-0.35  N 
ATOM     35 H    GLY C1708     -11.076 -29.706 -14.707  1.00 26.36 LIG 0.16  HD
BRANCH 34 36
ATOM     36  CA  GLY C1708     -12.350 -31.174 -14.412  1.00 26.05 LIG 0.21  C 
BRANCH 36 37
ATOM     37  C   GLY C1708     -13.606 -30.530 -13.863  1.00 34.75 LIG 0.21  C 
ATOM     38 O    GLY C1708     -13.545 -29.522 -13.167  1.00 36.48 LIG-0.29  OA
ENDBRANCH 36 37
ENDBRANCH 34 36
ENDBRANCH 31 32
BRANCH 31 39
ATOM     39  CB  GLU C1707      -7.971 -30.463 -12.332  1.00 30.33 LIG 0.04  C 
BRANCH 39 40
ATOM     40  CG  GLU C1707      -6.602 -30.323 -12.977  1.00 34.25 LIG 0.12  C 
BRANCH 40 41
ATOM     41  CD  GLU C1707      -6.662 -30.352 -14.497  1.00 39.35 LIG 0.17  C 
ATOM     42 OE2  GLU C1707      -6.369 -31.418 -15.082  1.00 42.40 LIG-0.65  OA
ATOM     43 OE1  GLU C1707      -6.999 -29.311 -15.103  1.00 45.84 LIG-0.65  OA
ENDBRANCH 40 41
ENDBRANCH 39 40
ENDBRANCH 31 39
ENDBRANCH 29 31
ENDBRANCH 26 27
BRANCH 26 44
ATOM     44  CB  SER C1706      -9.635 -27.032  -9.392  1.00 19.38 LIG 0.20  C 
BRANCH 44 45
ATOM     45 OG   SER C1706      -9.867 -25.768  -8.781  1.00 20.52 LIG-0.40  OA
ATOM     46 HG   SER C1706     -10.685 -25.684  -8.613  1.00 20.52 LIG 0.21  HD
ENDBRANCH 44 45
ENDBRANCH 26 44
ENDBRANCH 24 26
ENDBRANCH 1 22
BRANCH 1 47
ATOM     47  CB  ARG C1705     -14.322 -25.359  -8.872  1.00 21.30 LIG 0.04  C 
BRANCH 47 48
ATOM     48  CG  ARG C1705     -15.753 -25.365  -8.331  1.00 23.17 LIG 0.02  C 
BRANCH 48 49
ATOM     49  CD  ARG C1705     -16.414 -23.986  -8.381  1.00 21.38 LIG 0.14  C 
BRANCH 49 50
ATOM     50  NE  ARG C1705     -15.735 -23.006  -7.529  1.00 20.43 LIG-0.23  N 
ATOM     51  CZ  ARG C1705     -16.280 -22.402  -6.474  1.00 19.01 LIG 0.67  C 
ATOM     52  NH1 ARG C1705     -17.536 -22.663  -6.106  1.00 20.29 LIG-0.23  N 
ATOM     53  NH2 ARG C1705     -15.565 -21.526  -5.782  1.00 19.46 LIG-0.23  N 
ATOM     54 1HH1 ARG C1705     -18.006 -23.228  -6.553  1.00 20.29 LIG 0.17  HD
ATOM     55 2HH1 ARG C1705     -17.875 -22.266  -5.423  1.00 20.29 LIG 0.17  HD
ATOM     56 2HH2 ARG C1705     -15.910 -21.132  -5.100  1.00 19.46 LIG 0.17  HD
ATOM     57 1HH2 ARG C1705     -14.756 -21.350  -6.015  1.00 19.46 LIG 0.17  HD
ATOM     58 HE   ARG C1705     -14.922 -22.806  -7.724  1.00 20.43 LIG 0.18  HD
ENDBRANCH 49 50
ENDBRANCH 48 49
ENDBRANCH 47 48
ENDBRANCH 1 47
TORSDOF 24
ENDMDL
MODEL 27
USER: ADFR SOLUTION from run 130
USER: SCORE 17.175363 LL:  -4.364 LR: -14.315 RR:   0.000 FEB:  -7.156
USER: RMSD 6.013706
USER: SEED 129
USER: STATUS no improvement in best in 16 clusters for 5 generations
USER: GENES 26
USER: genes 0 Translation |==|  0.33313 0.44328 0.42962
USER: genes 1 Rotation |==|  0.19157 0.35972 0.61242 0.85007
USER: genes 2 Torsion [C]-CA--N-[C] |==|  0.72337
USER: genes 3 Torsion [N]-C--CA-[N] |==|  0.88553
USER: genes 4 Torsion [C]-CA--N-[C] |==|  0.84620
USER: genes 5 Torsion [N]-C--CA-[N] |==|  0.92317
USER: genes 6 Torsion [C]-CA--N-[C] |==|  0.83793
USER: genes 7 Torsion [N]-C--CA-[N] |==|  0.92860
USER: genes 8 Torsion [C]-CA--CB-[SG] |==|  0.70644
USER: genes 9 Torsion [CA]-CB--SG-[HG] |==|  0.90458
USER: genes 10 Torsion [N]-CA--C-[N] |==|  0.97363
USER: genes 11 Torsion [C]-N--CA-[C] |==|  0.78641
USER: genes 12 Torsion [N]-CA--C-[N] |==|  0.21684
USER: genes 13 Torsion [C]-N--CA-[CB] |==|  0.83704
USER: genes 14 Torsion [N]-CA--C-[N] |==|  0.03333
USER: genes 15 Torsion [C]-N--CA-[C] |==|  0.48856
USER: genes 16 Torsion [N]-CA--C-[O] |==|  0.40850
USER: genes 17 Torsion [N]-CA--CB-[CG] |==|  0.87445
USER: genes 18 Torsion [CA]-CB--CG-[CD] |==|  0.86465
USER: genes 19 Torsion [CB]-CG--CD-[OE2] |==|  0.73729
USER: genes 20 Torsion [N]-CA--CB-[OG] |==|  0.92681
USER: genes 21 Torsion [CA]-CB--OG-[HG] |==|  0.76913
USER: genes 22 Torsion [N]-CA--CB-[CG] |==|  0.58326
USER: genes 23 Torsion [CA]-CB--CG-[CD] |==|  0.70128
USER: genes 24 Torsion [CB]-CG--CD-[NE] |==|  0.56543
USER: genes 25 Torsion [CG]-CD--NE-[CZ] |==|  0.74124
ROOT
ATOM      1  CA  ARG C1705     -16.415 -29.078  -9.522  1.00 19.53 LIG 0.18  C 
ENDROOT
BRANCH 1 2
ATOM      2  N   ARG C1705     -15.481 -28.179  -8.839  1.00 19.64 LIG-0.35  N 
ATOM      3 H    ARG C1705     -14.666 -28.210  -9.113  1.00 19.64 LIG 0.16  HD
ATOM      4  C   ALA C1704     -15.935 -27.394  -7.868  1.00 22.93 LIG 0.24  C 
ATOM      5 O    ALA C1704     -17.109 -27.441  -7.478  1.00 21.24 LIG-0.27  OA
BRANCH 4 6
ATOM      6  CA  ALA C1704     -14.944 -26.427  -7.221  1.00 20.87 LIG 0.17  C 
ATOM      7  CB  ALA C1704     -14.814 -25.150  -8.029  1.00 18.21 LIG 0.04  C 
BRANCH 6 8
ATOM      8  N   ALA C1704     -13.636 -27.024  -6.994  1.00 22.42 LIG-0.35  N 
ATOM      9  C   CYS C1703     -13.513 -28.145  -6.292  1.00 22.90 LIG 0.24  C 
ATOM     10 O    CYS C1703     -14.476 -28.781  -5.869  1.00 23.45 LIG-0.27  OA
ATOM     11 H    ALA C1704     -12.978 -26.596  -7.346  1.00 22.42 LIG 0.16  HD
BRANCH 9 12
ATOM     12  CA  CYS C1703     -12.092 -28.626  -6.030  1.00 24.41 LIG 0.18  C 
BRANCH 12 13
ATOM     13  N   CYS C1703     -11.187 -28.176  -7.088  1.00 24.32 LIG-0.34  N 
ATOM     14  C   GLY C1702     -11.416 -28.514  -8.356  1.00 24.70 LIG 0.25  C 
ATOM     15 O    GLY C1702     -12.336 -29.264  -8.683  1.00 27.37 LIG-0.27  OA
ATOM     16 H    CYS C1703     -10.526 -27.695  -6.822  1.00 24.32 LIG 0.16  HD
BRANCH 14 17
ATOM     17  CA  GLY C1702     -10.485 -27.934  -9.407  1.00 25.50 LIG 0.47  C 
ATOM     18  N   GLY C1702      -9.884 -26.679  -8.982  1.00 32.41 LIG 0.61  N 
ENDBRANCH 14 17
ENDBRANCH 12 13
BRANCH 12 19
ATOM     19  CB  CYS C1703     -11.609 -28.169  -4.642  1.00 19.88 LIG 0.10  C 
BRANCH 19 20
ATOM     20 SG   CYS C1703     -10.415 -26.814  -4.639  1.00 23.51 LIG-0.18  SA
ATOM     21 HG   CYS C1703      -9.701 -26.908  -5.599  1.00 23.51 LIG 0.10  HD
ENDBRANCH 19 20
ENDBRANCH 12 19
ENDBRANCH 9 12
ENDBRANCH 6 8
ENDBRANCH 4 6
ENDBRANCH 1 2
BRANCH 1 22
ATOM     22  C   ARG C1705     -16.365 -30.531  -9.021  1.00 20.76 LIG 0.24  C 
ATOM     23 O    ARG C1705     -17.214 -31.351  -9.392  1.00 22.20 LIG-0.27  OA
ATOM     24  N   SER C1706     -15.378 -30.858  -8.189  1.00 20.62 LIG-0.34  N 
ATOM     25 H    SER C1706     -14.779 -30.309  -7.907  1.00 20.62 LIG 0.16  HD
BRANCH 24 26
ATOM     26  CA  SER C1706     -15.247 -32.221  -7.686  1.00 20.36 LIG 0.20  C 
BRANCH 26 27
ATOM     27  C   SER C1706     -16.261 -32.504  -6.582  1.00 23.85 LIG 0.24  C 
ATOM     28 O    SER C1706     -15.917 -32.508  -5.400  1.00 24.92 LIG-0.27  OA
ATOM     29  N   GLU C1707     -17.505 -32.753  -6.972  1.00 21.35 LIG-0.35  N 
ATOM     30 H    GLU C1707     -17.768 -32.724  -7.791  1.00 21.35 LIG 0.16  HD
BRANCH 29 31
ATOM     31  CA  GLU C1707     -18.551 -33.103  -6.011  1.00 28.80 LIG 0.18  C 
BRANCH 31 32
ATOM     32  C   GLU C1707     -18.782 -31.953  -5.041  1.00 29.29 LIG 0.24  C 
ATOM     33 O    GLU C1707     -19.460 -32.116  -4.025  1.00 32.31 LIG-0.27  OA
ATOM     34  N   GLY C1708     -18.218 -30.794  -5.366  1.00 26.36 LIG-0.35  N 
ATOM     35 H    GLY C1708     -17.768 -30.666  -6.087  1.00 26.36 LIG 0.16  HD
BRANCH 34 36
ATOM     36  CA  GLY C1708     -18.319 -29.627  -4.512  1.00 26.05 LIG 0.21  C 
BRANCH 36 37
ATOM     37  C   GLY C1708     -17.522 -28.445  -5.022  1.00 34.75 LIG 0.21  C 
ATOM     38 O    GLY C1708     -17.911 -27.296  -4.839  1.00 36.48 LIG-0.29  OA
ENDBRANCH 36 37
ENDBRANCH 34 36
ENDBRANCH 31 32
BRANCH 31 39
ATOM     39  CB  GLU C1707     -18.184 -34.362  -5.220  1.00 30.33 LIG 0.04  C 
BRANCH 39 40
ATOM     40  CG  GLU C1707     -17.633 -35.496  -6.067  1.00 34.25 LIG 0.12  C 
BRANCH 40 41
ATOM     41  CD  GLU C1707     -18.488 -35.784  -7.292  1.00 39.35 LIG 0.17  C 
ATOM     42 OE2  GLU C1707     -19.355 -36.681  -7.212  1.00 42.40 LIG-0.65  OA
ATOM     43 OE1  GLU C1707     -18.289 -35.116  -8.332  1.00 45.84 LIG-0.65  OA
ENDBRANCH 40 41
ENDBRANCH 39 40
ENDBRANCH 31 39
ENDBRANCH 29 31
ENDBRANCH 26 27
BRANCH 26 44
ATOM     44  CB  SER C1706     -13.823 -32.496  -7.191  1.00 19.38 LIG 0.20  C 
BRANCH 44 45
ATOM     45 OG   SER C1706     -12.871 -31.668  -7.849  1.00 20.52 LIG-0.40  OA
ATOM     46 HG   SER C1706     -12.665 -32.011  -8.588  1.00 20.52 LIG 0.21  HD
ENDBRANCH 44 45
ENDBRANCH 26 44
ENDBRANCH 24 26
ENDBRANCH 1 22
BRANCH 1 47
ATOM     47  CB  ARG C1705     -16.240 -29.018 -11.045  1.00 21.30 LIG 0.04  C 
BRANCH 47 48
ATOM     48  CG  ARG C1705     -17.540 -29.301 -11.801  1.00 23.17 LIG 0.02  C 
BRANCH 48 49
ATOM     49  CD  ARG C1705     -17.547 -30.671 -12.483  1.00 21.38 LIG 0.14  C 
BRANCH 49 50
ATOM     50  NE  ARG C1705     -18.481 -30.731 -13.611  1.00 20.43 LIG-0.23  N 
ATOM     51  CZ  ARG C1705     -19.743 -31.149 -13.538  1.00 19.01 LIG 0.67  C 
ATOM     52  NH1 ARG C1705     -20.265 -31.557 -12.380  1.00 20.29 LIG-0.23  N 
ATOM     53  NH2 ARG C1705     -20.490 -31.165 -14.634  1.00 19.46 LIG-0.23  N 
ATOM     54 1HH1 ARG C1705     -19.785 -31.553 -11.666  1.00 20.29 LIG 0.17  HD
ATOM     55 2HH1 ARG C1705     -21.082 -31.825 -12.347  1.00 20.29 LIG 0.17  HD
ATOM     56 2HH2 ARG C1705     -21.306 -31.433 -14.594  1.00 19.46 LIG 0.17  HD
ATOM     57 1HH2 ARG C1705     -20.159 -30.906 -15.384  1.00 19.46 LIG 0.17  HD
ATOM     58 HE   ARG C1705     -18.191 -30.477 -14.379  1.00 20.43 LIG 0.18  HD
ENDBRANCH 49 50
ENDBRANCH 48 49
ENDBRANCH 47 48
ENDBRANCH 1 47
TORSDOF 24
ENDMDL
MODEL 28
USER: ADFR SOLUTION from run 13
USER: SCORE 14.563496 LL:  -2.906 LR: -14.298 RR:   0.000 FEB:  -7.138
USER: RMSD 5.213032
USER: SEED 185211
USER: STATUS no improvement in best in 13 clusters for 5 generations
USER: GENES 26
USER: genes 0 Translation |==|  0.26556 0.53130 0.56004
USER: genes 1 Rotation |==|  0.51179 0.28621 0.33760 0.92164
USER: genes 2 Torsion [C]-CA--N-[C] |==|  0.19980
USER: genes 3 Torsion [N]-C--CA-[N] |==|  0.49496
USER: genes 4 Torsion [C]-CA--N-[C] |==|  0.20681
USER: genes 5 Torsion [N]-C--CA-[N] |==|  0.94335
USER: genes 6 Torsion [C]-CA--N-[C] |==|  0.72817
USER: genes 7 Torsion [N]-C--CA-[N] |==|  0.80009
USER: genes 8 Torsion [C]-CA--CB-[SG] |==|  0.17228
USER: genes 9 Torsion [CA]-CB--SG-[HG] |==|  0.46201
USER: genes 10 Torsion [N]-CA--C-[N] |==|  0.79817
USER: genes 11 Torsion [C]-N--CA-[C] |==|  0.76759
USER: genes 12 Torsion [N]-CA--C-[N] |==|  0.32784
USER: genes 13 Torsion [C]-N--CA-[CB] |==|  0.17625
USER: genes 14 Torsion [N]-CA--C-[N] |==|  0.68273
USER: genes 15 Torsion [C]-N--CA-[C] |==|  0.20000
USER: genes 16 Torsion [N]-CA--C-[O] |==|  0.77932
USER: genes 17 Torsion [N]-CA--CB-[CG] |==|  0.56566
USER: genes 18 Torsion [CA]-CB--CG-[CD] |==|  0.57898
USER: genes 19 Torsion [CB]-CG--CD-[OE2] |==|  0.74995
USER: genes 20 Torsion [N]-CA--CB-[OG] |==|  0.75718
USER: genes 21 Torsion [CA]-CB--OG-[HG] |==|  0.12905
USER: genes 22 Torsion [N]-CA--CB-[CG] |==|  0.64108
USER: genes 23 Torsion [CA]-CB--CG-[CD] |==|  0.63803
USER: genes 24 Torsion [CB]-CG--CD-[NE] |==|  0.77406
USER: genes 25 Torsion [CG]-CD--NE-[CZ] |==|  0.82725
ROOT
ATOM      1  CA  ARG C1705     -17.631 -27.098  -7.174  1.00 19.53 LIG 0.18  C 
ENDROOT
BRANCH 1 2
ATOM      2  N   ARG C1705     -17.397 -28.264  -6.317  1.00 19.64 LIG-0.35  N 
ATOM      3 H    ARG C1705     -18.087 -28.563  -5.899  1.00 19.64 LIG 0.16  HD
ATOM      4  C   ALA C1704     -16.172 -28.772  -6.240  1.00 22.93 LIG 0.24  C 
ATOM      5 O    ALA C1704     -15.208 -28.256  -6.820  1.00 21.24 LIG-0.27  OA
BRANCH 4 6
ATOM      6  CA  ALA C1704     -15.980 -30.024  -5.385  1.00 20.87 LIG 0.17  C 
ATOM      7  CB  ALA C1704     -16.443 -29.792  -3.959  1.00 18.21 LIG 0.04  C 
BRANCH 6 8
ATOM      8  N   ALA C1704     -14.611 -30.518  -5.404  1.00 22.42 LIG-0.35  N 
ATOM      9  C   CYS C1703     -13.652 -29.890  -4.732  1.00 22.90 LIG 0.24  C 
ATOM     10 O    CYS C1703     -13.865 -28.925  -4.003  1.00 23.45 LIG-0.27  OA
ATOM     11 H    ALA C1704     -14.490 -31.228  -5.875  1.00 22.42 LIG 0.16  HD
BRANCH 9 12
ATOM     12  CA  CYS C1703     -12.239 -30.433  -4.905  1.00 24.41 LIG 0.18  C 
BRANCH 12 13
ATOM     13  N   CYS C1703     -12.268 -31.813  -5.390  1.00 24.32 LIG-0.34  N 
ATOM     14  C   GLY C1702     -12.138 -32.828  -4.536  1.00 24.70 LIG 0.25  C 
ATOM     15 O    GLY C1702     -11.918 -32.657  -3.337  1.00 27.37 LIG-0.27  OA
ATOM     16 H    CYS C1703     -12.373 -31.899  -6.239  1.00 24.32 LIG 0.16  HD
BRANCH 14 17
ATOM     17  CA  GLY C1702     -12.269 -34.231  -5.102  1.00 25.50 LIG 0.47  C 
ATOM     18  N   GLY C1702     -13.641 -34.556  -5.462  1.00 32.41 LIG 0.61  N 
ENDBRANCH 14 17
ENDBRANCH 12 13
BRANCH 12 19
ATOM     19  CB  CYS C1703     -11.416 -29.525  -5.836  1.00 19.88 LIG 0.10  C 
BRANCH 19 20
ATOM     20 SG   CYS C1703     -11.166 -27.834  -5.255  1.00 23.51 LIG-0.18  SA
ATOM     21 HG   CYS C1703     -10.307 -27.309  -5.908  1.00 23.51 LIG 0.10  HD
ENDBRANCH 19 20
ENDBRANCH 12 19
ENDBRANCH 9 12
ENDBRANCH 6 8
ENDBRANCH 4 6
ENDBRANCH 1 2
BRANCH 1 22
ATOM     22  C   ARG C1705     -17.581 -27.407  -8.680  1.00 20.76 LIG 0.24  C 
ATOM     23 O    ARG C1705     -18.618 -27.416  -9.352  1.00 22.20 LIG-0.27  OA
ATOM     24  N   SER C1706     -16.386 -27.652  -9.214  1.00 20.62 LIG-0.34  N 
ATOM     25 H    SER C1706     -15.648 -27.661  -8.772  1.00 20.62 LIG 0.16  HD
BRANCH 24 26
ATOM     26  CA  SER C1706     -16.249 -27.931 -10.640  1.00 20.36 LIG 0.20  C 
BRANCH 26 27
ATOM     27  C   SER C1706     -16.521 -29.400 -10.945  1.00 23.85 LIG 0.24  C 
ATOM     28 O    SER C1706     -15.804 -30.282 -10.472  1.00 24.92 LIG-0.27  OA
ATOM     29  N   GLU C1707     -17.548 -29.658 -11.745  1.00 21.35 LIG-0.35  N 
ATOM     30 H    GLU C1707     -18.077 -29.056 -12.060  1.00 21.35 LIG 0.16  HD
BRANCH 29 31
ATOM     31  CA  GLU C1707     -17.867 -31.023 -12.163  1.00 28.80 LIG 0.18  C 
BRANCH 31 32
ATOM     32  C   GLU C1707     -19.011 -31.014 -13.165  1.00 29.29 LIG 0.24  C 
ATOM     33 O    GLU C1707     -18.869 -30.501 -14.277  1.00 32.31 LIG-0.27  OA
ATOM     34  N   GLY C1708     -20.144 -31.583 -12.762  1.00 26.36 LIG-0.35  N 
ATOM     35 H    GLY C1708     -20.259 -31.917 -11.979  1.00 26.36 LIG 0.16  HD
BRANCH 34 36
ATOM     36  CA  GLY C1708     -21.301 -31.686 -13.630  1.00 26.05 LIG 0.21  C 
BRANCH 36 37
ATOM     37  C   GLY C1708     -21.126 -32.702 -14.738  1.00 34.75 LIG 0.21  C 
ATOM     38 O    GLY C1708     -20.482 -32.432 -15.746  1.00 36.48 LIG-0.29  OA
ENDBRANCH 36 37
ENDBRANCH 34 36
ENDBRANCH 31 32
BRANCH 31 39
ATOM     39  CB  GLU C1707     -18.254 -31.898 -10.967  1.00 30.33 LIG 0.04  C 
BRANCH 39 40
ATOM     40  CG  GLU C1707     -18.051 -33.387 -11.189  1.00 34.25 LIG 0.12  C 
BRANCH 40 41
ATOM     41  CD  GLU C1707     -19.011 -34.239 -10.374  1.00 39.35 LIG 0.17  C 
ATOM     42 OE2  GLU C1707     -18.661 -34.597  -9.228  1.00 42.40 LIG-0.65  OA
ATOM     43 OE1  GLU C1707     -20.113 -34.552 -10.880  1.00 45.84 LIG-0.65  OA
ENDBRANCH 40 41
ENDBRANCH 39 40
ENDBRANCH 31 39
ENDBRANCH 29 31
ENDBRANCH 26 27
BRANCH 26 44
ATOM     44  CB  SER C1706     -14.866 -27.521 -11.156  1.00 19.38 LIG 0.20  C 
BRANCH 44 45
ATOM     45 OG   SER C1706     -14.841 -26.156 -11.558  1.00 20.52 LIG-0.40  OA
ATOM     46 HG   SER C1706     -15.209 -25.684 -10.970  1.00 20.52 LIG 0.21  HD
ENDBRANCH 44 45
ENDBRANCH 26 44
ENDBRANCH 24 26
ENDBRANCH 1 22
BRANCH 1 47
ATOM     47  CB  ARG C1705     -16.686 -25.942  -6.821  1.00 21.30 LIG 0.04  C 
BRANCH 47 48
ATOM     48  CG  ARG C1705     -17.423 -24.618  -6.609  1.00 23.17 LIG 0.02  C 
BRANCH 48 49
ATOM     49  CD  ARG C1705     -16.806 -23.460  -7.396  1.00 21.38 LIG 0.14  C 
BRANCH 49 50
ATOM     50  NE  ARG C1705     -15.640 -22.882  -6.722  1.00 20.43 LIG-0.23  N 
ATOM     51  CZ  ARG C1705     -15.660 -22.294  -5.528  1.00 19.01 LIG 0.67  C 
ATOM     52  NH1 ARG C1705     -16.795 -22.189  -4.833  1.00 20.29 LIG-0.23  N 
ATOM     53  NH2 ARG C1705     -14.537 -21.801  -5.023  1.00 19.46 LIG-0.23  N 
ATOM     54 1HH1 ARG C1705     -17.527 -22.504  -5.156  1.00 20.29 LIG 0.17  HD
ATOM     55 2HH1 ARG C1705     -16.793 -21.806  -4.063  1.00 20.29 LIG 0.17  HD
ATOM     56 2HH2 ARG C1705     -14.543 -21.420  -4.252  1.00 19.46 LIG 0.17  HD
ATOM     57 1HH2 ARG C1705     -13.802 -21.862  -5.467  1.00 19.46 LIG 0.17  HD
ATOM     58 HE   ARG C1705     -14.884 -22.927  -7.130  1.00 20.43 LIG 0.18  HD
ENDBRANCH 49 50
ENDBRANCH 48 49
ENDBRANCH 47 48
ENDBRANCH 1 47
TORSDOF 24
ENDMDL
MODEL 29
USER: ADFR SOLUTION from run 14
USER: SCORE 14.943331 LL:  -3.645 LR: -14.300 RR:   0.000 FEB:  -7.141
USER: RMSD 6.260107
USER: SEED 673716
USER: STATUS searching
USER: GENES 26
USER: genes 0 Translation |==|  0.33996 0.53219 0.52173
USER: genes 1 Rotation |==|  0.44055 0.32105 0.20119 0.85377
USER: genes 2 Torsion [C]-CA--N-[C] |==|  0.68056
USER: genes 3 Torsion [N]-C--CA-[N] |==|  0.11747
USER: genes 4 Torsion [C]-CA--N-[C] |==|  0.15167
USER: genes 5 Torsion [N]-C--CA-[N] |==|  0.88560
USER: genes 6 Torsion [C]-CA--N-[C] |==|  0.77848
USER: genes 7 Torsion [N]-C--CA-[N] |==|  0.49838
USER: genes 8 Torsion [C]-CA--CB-[SG] |==|  0.24968
USER: genes 9 Torsion [CA]-CB--SG-[HG] |==|  0.82880
USER: genes 10 Torsion [N]-CA--C-[N] |==|  0.68087
USER: genes 11 Torsion [C]-N--CA-[C] |==|  0.76580
USER: genes 12 Torsion [N]-CA--C-[N] |==|  0.18333
USER: genes 13 Torsion [C]-N--CA-[CB] |==|  0.35969
USER: genes 14 Torsion [N]-CA--C-[N] |==|  0.69682
USER: genes 15 Torsion [C]-N--CA-[C] |==|  0.20380
USER: genes 16 Torsion [N]-CA--C-[O] |==|  0.90389
USER: genes 17 Torsion [N]-CA--CB-[CG] |==|  0.54144
USER: genes 18 Torsion [CA]-CB--CG-[CD] |==|  0.52548
USER: genes 19 Torsion [CB]-CG--CD-[OE2] |==|  0.44868
USER: genes 20 Torsion [N]-CA--CB-[OG] |==|  0.73985
USER: genes 21 Torsion [CA]-CB--OG-[HG] |==|  0.02827
USER: genes 22 Torsion [N]-CA--CB-[CG] |==|  0.67481
USER: genes 23 Torsion [CA]-CB--CG-[CD] |==|  0.84081
USER: genes 24 Torsion [CB]-CG--CD-[NE] |==|  0.39731
USER: genes 25 Torsion [CG]-CD--NE-[CZ] |==|  0.80421
ROOT
ATOM      1  CA  ARG C1705     -16.292 -27.078  -7.864  1.00 19.53 LIG 0.18  C 
ENDROOT
BRANCH 1 2
ATOM      2  N   ARG C1705     -16.772 -28.196  -7.047  1.00 19.64 LIG-0.35  N 
ATOM      3 H    ARG C1705     -16.392 -28.953  -7.192  1.00 19.64 LIG 0.16  HD
ATOM      4  C   ALA C1704     -17.736 -27.978  -6.159  1.00 22.93 LIG 0.24  C 
ATOM      5 O    ALA C1704     -18.286 -26.875  -6.042  1.00 21.24 LIG-0.27  OA
BRANCH 4 6
ATOM      6  CA  ALA C1704     -18.168 -29.154  -5.284  1.00 20.87 LIG 0.17  C 
ATOM      7  CB  ALA C1704     -19.036 -28.692  -4.130  1.00 18.21 LIG 0.04  C 
BRANCH 6 8
ATOM      8  N   ALA C1704     -17.043 -29.939  -4.796  1.00 22.42 LIG-0.35  N 
ATOM      9  C   CYS C1703     -16.048 -29.361  -4.132  1.00 22.90 LIG 0.24  C 
ATOM     10 O    CYS C1703     -16.050 -28.172  -3.821  1.00 23.45 LIG-0.27  OA
ATOM     11 H    ALA C1704     -17.086 -30.780  -4.974  1.00 22.42 LIG 0.16  HD
BRANCH 9 12
ATOM     12  CA  CYS C1703     -14.875 -30.258  -3.758  1.00 24.41 LIG 0.18  C 
BRANCH 12 13
ATOM     13  N   CYS C1703     -15.345 -31.566  -3.300  1.00 24.32 LIG-0.34  N 
ATOM     14  C   GLY C1702     -15.797 -31.719  -2.056  1.00 24.70 LIG 0.25  C 
ATOM     15 O    GLY C1702     -15.774 -30.808  -1.228  1.00 27.37 LIG-0.27  OA
ATOM     16 H    CYS C1703     -15.302 -32.194  -3.886  1.00 24.32 LIG 0.16  HD
BRANCH 14 17
ATOM     17  CA  GLY C1702     -16.352 -33.083  -1.684  1.00 25.50 LIG 0.47  C 
ATOM     18  N   GLY C1702     -16.803 -33.139  -0.302  1.00 32.41 LIG 0.61  N 
ENDBRANCH 14 17
ENDBRANCH 12 13
BRANCH 12 19
ATOM     19  CB  CYS C1703     -13.893 -30.391  -4.936  1.00 19.88 LIG 0.10  C 
BRANCH 19 20
ATOM     20 SG   CYS C1703     -12.576 -29.158  -4.996  1.00 23.51 LIG-0.18  SA
ATOM     21 HG   CYS C1703     -13.057 -28.065  -5.113  1.00 23.51 LIG 0.10  HD
ENDBRANCH 19 20
ENDBRANCH 12 19
ENDBRANCH 9 12
ENDBRANCH 6 8
ENDBRANCH 4 6
ENDBRANCH 1 2
BRANCH 1 22
ATOM     22  C   ARG C1705     -16.576 -27.232  -9.367  1.00 20.76 LIG 0.24  C 
ATOM     23 O    ARG C1705     -17.739 -27.235  -9.787  1.00 22.20 LIG-0.27  OA
ATOM     24  N   SER C1706     -15.528 -27.353 -10.179  1.00 20.62 LIG-0.34  N 
ATOM     25 H    SER C1706     -14.709 -27.363  -9.916  1.00 20.62 LIG 0.16  HD
BRANCH 24 26
ATOM     26  CA  SER C1706     -15.711 -27.481 -11.621  1.00 20.36 LIG 0.20  C 
BRANCH 26 27
ATOM     27  C   SER C1706     -15.980 -28.929 -12.019  1.00 23.85 LIG 0.24  C 
ATOM     28 O    SER C1706     -15.174 -29.548 -12.713  1.00 24.92 LIG-0.27  OA
ATOM     29  N   GLU C1707     -17.119 -29.458 -11.588  1.00 21.35 LIG-0.35  N 
ATOM     30 H    GLU C1707     -17.678 -29.049 -11.078  1.00 21.35 LIG 0.16  HD
BRANCH 29 31
ATOM     31  CA  GLU C1707     -17.518 -30.815 -11.960  1.00 28.80 LIG 0.18  C 
BRANCH 31 32
ATOM     32  C   GLU C1707     -18.690 -30.774 -12.930  1.00 29.29 LIG 0.24  C 
ATOM     33 O    GLU C1707     -18.534 -30.383 -14.088  1.00 32.31 LIG-0.27  OA
ATOM     34  N   GLY C1708     -19.861 -31.177 -12.445  1.00 26.36 LIG-0.35  N 
ATOM     35 H    GLY C1708     -19.983 -31.424 -11.631  1.00 26.36 LIG 0.16  HD
BRANCH 34 36
ATOM     36  CA  GLY C1708     -21.053 -31.232 -13.269  1.00 26.05 LIG 0.21  C 
BRANCH 36 37
ATOM     37  C   GLY C1708     -21.041 -32.378 -14.258  1.00 34.75 LIG 0.21  C 
ATOM     38 O    GLY C1708     -19.995 -32.748 -14.781  1.00 36.48 LIG-0.29  OA
ENDBRANCH 36 37
ENDBRANCH 34 36
ENDBRANCH 31 32
BRANCH 31 39
ATOM     39  CB  GLU C1707     -17.911 -31.640 -10.731  1.00 30.33 LIG 0.04  C 
BRANCH 39 40
ATOM     40  CG  GLU C1707     -17.992 -33.136 -10.980  1.00 34.25 LIG 0.12  C 
BRANCH 40 41
ATOM     41  CD  GLU C1707     -18.597 -33.895  -9.809  1.00 39.35 LIG 0.17  C 
ATOM     42 OE2  GLU C1707     -19.036 -35.048 -10.013  1.00 42.40 LIG-0.65  OA
ATOM     43 OE1  GLU C1707     -18.633 -33.339  -8.688  1.00 45.84 LIG-0.65  OA
ENDBRANCH 40 41
ENDBRANCH 39 40
ENDBRANCH 31 39
ENDBRANCH 29 31
ENDBRANCH 26 27
BRANCH 26 44
ATOM     44  CB  SER C1706     -14.504 -26.928 -12.385  1.00 19.38 LIG 0.20  C 
BRANCH 44 45
ATOM     45 OG   SER C1706     -14.696 -25.567 -12.753  1.00 20.52 LIG-0.40  OA
ATOM     46 HG   SER C1706     -15.378 -25.266 -12.367  1.00 20.52 LIG 0.21  HD
ENDBRANCH 44 45
ENDBRANCH 26 44
ENDBRANCH 24 26
ENDBRANCH 1 22
BRANCH 1 47
ATOM     47  CB  ARG C1705     -14.803 -26.798  -7.614  1.00 21.30 LIG 0.04  C 
BRANCH 47 48
ATOM     48  CG  ARG C1705     -14.553 -25.408  -7.026  1.00 23.17 LIG 0.02  C 
BRANCH 48 49
ATOM     49  CD  ARG C1705     -15.104 -24.282  -7.902  1.00 21.38 LIG 0.14  C 
BRANCH 49 50
ATOM     50  NE  ARG C1705     -15.660 -23.178  -7.114  1.00 20.43 LIG-0.23  N 
ATOM     51  CZ  ARG C1705     -16.786 -23.236  -6.405  1.00 19.01 LIG 0.67  C 
ATOM     52  NH1 ARG C1705     -17.513 -24.354  -6.361  1.00 20.29 LIG-0.23  N 
ATOM     53  NH2 ARG C1705     -17.192 -22.165  -5.735  1.00 19.46 LIG-0.23  N 
ATOM     54 1HH1 ARG C1705     -17.257 -25.051  -6.795  1.00 20.29 LIG 0.17  HD
ATOM     55 2HH1 ARG C1705     -18.238 -24.377  -5.899  1.00 20.29 LIG 0.17  HD
ATOM     56 2HH2 ARG C1705     -17.917 -22.196  -5.275  1.00 19.46 LIG 0.17  HD
ATOM     57 1HH2 ARG C1705     -16.729 -21.440  -5.762  1.00 19.46 LIG 0.17  HD
ATOM     58 HE   ARG C1705     -15.226 -22.436  -7.109  1.00 20.43 LIG 0.18  HD
ENDBRANCH 49 50
ENDBRANCH 48 49
ENDBRANCH 47 48
ENDBRANCH 1 47
TORSDOF 24
ENDMDL
MODEL 30
USER: ADFR SOLUTION from run 35
USER: SCORE 16.083632 LL:  -3.077 LR: -14.281 RR:   0.000 FEB:  -7.122
USER: RMSD 8.147884
USER: SEED 34
USER: STATUS searching
USER: GENES 26
USER: genes 0 Translation |==|  0.45018 0.53885 0.36966
USER: genes 1 Rotation |==|  0.72080 0.12843 0.31266 0.66758
USER: genes 2 Torsion [C]-CA--N-[C] |==|  0.81620
USER: genes 3 Torsion [N]-C--CA-[N] |==|  0.28051
USER: genes 4 Torsion [C]-CA--N-[C] |==|  0.54444
USER: genes 5 Torsion [N]-C--CA-[N] |==|  0.42409
USER: genes 6 Torsion [C]-CA--N-[C] |==|  0.60337
USER: genes 7 Torsion [N]-C--CA-[N] |==|  0.65482
USER: genes 8 Torsion [C]-CA--CB-[SG] |==|  0.57429
USER: genes 9 Torsion [CA]-CB--SG-[HG] |==|  0.30290
USER: genes 10 Torsion [N]-CA--C-[N] |==|  0.91038
USER: genes 11 Torsion [C]-N--CA-[C] |==|  0.60750
USER: genes 12 Torsion [N]-CA--C-[N] |==|  0.31002
USER: genes 13 Torsion [C]-N--CA-[CB] |==|  0.83172
USER: genes 14 Torsion [N]-CA--C-[N] |==|  0.45556
USER: genes 15 Torsion [C]-N--CA-[C] |==|  0.53062
USER: genes 16 Torsion [N]-CA--C-[O] |==|  0.92575
USER: genes 17 Torsion [N]-CA--CB-[CG] |==|  0.65062
USER: genes 18 Torsion [CA]-CB--CG-[CD] |==|  0.92916
USER: genes 19 Torsion [CB]-CG--CD-[OE2] |==|  0.73536
USER: genes 20 Torsion [N]-CA--CB-[OG] |==|  0.79395
USER: genes 21 Torsion [CA]-CB--OG-[HG] |==|  0.21566
USER: genes 22 Torsion [N]-CA--CB-[CG] |==|  0.49856
USER: genes 23 Torsion [CA]-CB--CG-[CD] |==|  0.47112
USER: genes 24 Torsion [CB]-CG--CD-[NE] |==|  0.69390
USER: genes 25 Torsion [CG]-CD--NE-[CZ] |==|  0.41427
ROOT
ATOM      1  CA  ARG C1705     -14.308 -26.928 -10.601  1.00 19.53 LIG 0.18  C 
ENDROOT
BRANCH 1 2
ATOM      2  N   ARG C1705     -14.699 -28.315 -10.865  1.00 19.64 LIG-0.35  N 
ATOM      3 H    ARG C1705     -14.969 -28.763 -10.181  1.00 19.64 LIG 0.16  HD
ATOM      4  C   ALA C1704     -14.616 -28.784 -12.105  1.00 22.93 LIG 0.24  C 
ATOM      5 O    ALA C1704     -14.161 -28.106 -13.036  1.00 21.24 LIG-0.27  OA
BRANCH 4 6
ATOM      6  CA  ALA C1704     -15.091 -30.216 -12.351  1.00 20.87 LIG 0.17  C 
ATOM      7  CB  ALA C1704     -14.097 -30.987 -13.198  1.00 18.21 LIG 0.04  C 
BRANCH 6 8
ATOM      8  N   ALA C1704     -16.421 -30.277 -12.940  1.00 22.42 LIG-0.35  N 
ATOM      9  C   CYS C1703     -17.117 -31.410 -12.931  1.00 22.90 LIG 0.24  C 
ATOM     10 O    CYS C1703     -16.729 -32.431 -12.369  1.00 23.45 LIG-0.27  OA
ATOM     11 H    ALA C1704     -16.701 -29.538 -13.278  1.00 22.42 LIG 0.16  HD
BRANCH 9 12
ATOM     12  CA  CYS C1703     -18.452 -31.388 -13.663  1.00 24.41 LIG 0.18  C 
BRANCH 12 13
ATOM     13  N   CYS C1703     -18.804 -32.724 -14.145  1.00 24.32 LIG-0.34  N 
ATOM     14  C   GLY C1702     -19.410 -32.876 -15.321  1.00 24.70 LIG 0.25  C 
ATOM     15 O    GLY C1702     -19.763 -31.918 -16.011  1.00 27.37 LIG-0.27  OA
ATOM     16 H    CYS C1703     -18.590 -33.369 -13.618  1.00 24.32 LIG 0.16  HD
BRANCH 14 17
ATOM     17  CA  GLY C1702     -19.661 -34.297 -15.793  1.00 25.50 LIG 0.47  C 
ATOM     18  N   GLY C1702     -19.087 -34.554 -17.106  1.00 32.41 LIG 0.61  N 
ENDBRANCH 14 17
ENDBRANCH 12 13
BRANCH 12 19
ATOM     19  CB  CYS C1703     -19.557 -30.802 -12.766  1.00 19.88 LIG 0.10  C 
BRANCH 19 20
ATOM     20 SG   CYS C1703     -21.234 -31.364 -13.127  1.00 23.51 LIG-0.18  SA
ATOM     21 HG   CYS C1703     -21.611 -32.090 -12.250  1.00 23.51 LIG 0.10  HD
ENDBRANCH 19 20
ENDBRANCH 12 19
ENDBRANCH 9 12
ENDBRANCH 6 8
ENDBRANCH 4 6
ENDBRANCH 1 2
BRANCH 1 22
ATOM     22  C   ARG C1705     -12.810 -26.648 -10.813  1.00 20.76 LIG 0.24  C 
ATOM     23 O    ARG C1705     -12.430 -25.539 -11.204  1.00 22.20 LIG-0.27  OA
ATOM     24  N   SER C1706     -11.961 -27.639 -10.551  1.00 20.62 LIG-0.34  N 
ATOM     25 H    SER C1706     -12.195 -28.423 -10.286  1.00 20.62 LIG 0.16  HD
BRANCH 24 26
ATOM     26  CA  SER C1706     -10.522 -27.449 -10.704  1.00 20.36 LIG 0.20  C 
BRANCH 26 27
ATOM     27  C   SER C1706      -9.857 -28.692 -11.285  1.00 23.85 LIG 0.24  C 
ATOM     28 O    SER C1706      -9.777 -29.727 -10.623  1.00 24.92 LIG-0.27  OA
ATOM     29  N   GLU C1707      -9.371 -28.583 -12.515  1.00 21.35 LIG-0.35  N 
ATOM     30 H    GLU C1707      -9.445 -27.877 -13.001  1.00 21.35 LIG 0.16  HD
BRANCH 29 31
ATOM     31  CA  GLU C1707      -8.653 -29.686 -13.152  1.00 28.80 LIG 0.18  C 
BRANCH 31 32
ATOM     32  C   GLU C1707      -9.557 -30.904 -13.274  1.00 29.29 LIG 0.24  C 
ATOM     33 O    GLU C1707     -10.596 -30.984 -12.615  1.00 32.31 LIG-0.27  OA
ATOM     34  N   GLY C1708      -9.151 -31.851 -14.116  1.00 26.36 LIG-0.35  N 
ATOM     35 H    GLY C1708      -8.413 -31.814 -14.556  1.00 26.36 LIG 0.16  HD
BRANCH 34 36
ATOM     36  CA  GLY C1708      -9.935 -33.045 -14.363  1.00 26.05 LIG 0.21  C 
BRANCH 36 37
ATOM     37  C   GLY C1708      -9.180 -34.102 -15.139  1.00 34.75 LIG 0.21  C 
ATOM     38 O    GLY C1708      -8.268 -33.796 -15.899  1.00 36.48 LIG-0.29  OA
ENDBRANCH 36 37
ENDBRANCH 34 36
ENDBRANCH 31 32
BRANCH 31 39
ATOM     39  CB  GLU C1707      -7.399 -30.069 -12.361  1.00 30.33 LIG 0.04  C 
BRANCH 39 40
ATOM     40  CG  GLU C1707      -6.118 -30.065 -13.178  1.00 34.25 LIG 0.12  C 
BRANCH 40 41
ATOM     41  CD  GLU C1707      -6.365 -30.296 -14.661  1.00 39.35 LIG 0.17  C 
ATOM     42 OE2  GLU C1707      -6.263 -31.460 -15.106  1.00 42.40 LIG-0.65  OA
ATOM     43 OE1  GLU C1707      -6.659 -29.314 -15.380  1.00 45.84 LIG-0.65  OA
ENDBRANCH 40 41
ENDBRANCH 39 40
ENDBRANCH 31 39
ENDBRANCH 29 31
ENDBRANCH 26 27
BRANCH 26 44
ATOM     44  CB  SER C1706      -9.869 -27.060  -9.374  1.00 19.38 LIG 0.20  C 
BRANCH 44 45
ATOM     45 OG   SER C1706     -10.159 -25.712  -9.022  1.00 20.52 LIG-0.40  OA
ATOM     46 HG   SER C1706     -10.939 -25.664  -8.716  1.00 20.52 LIG 0.21  HD
ENDBRANCH 44 45
ENDBRANCH 26 44
ENDBRANCH 24 26
ENDBRANCH 1 22
BRANCH 1 47
ATOM     47  CB  ARG C1705     -14.758 -26.472  -9.207  1.00 21.30 LIG 0.04  C 
BRANCH 47 48
ATOM     48  CG  ARG C1705     -14.353 -25.030  -8.896  1.00 23.17 LIG 0.02  C 
BRANCH 48 49
ATOM     49  CD  ARG C1705     -15.010 -24.487  -7.626  1.00 21.38 LIG 0.14  C 
BRANCH 49 50
ATOM     50  NE  ARG C1705     -16.012 -23.456  -7.909  1.00 20.43 LIG-0.23  N 
ATOM     51  CZ  ARG C1705     -17.101 -23.224  -7.177  1.00 19.01 LIG 0.67  C 
ATOM     52  NH1 ARG C1705     -17.361 -23.948  -6.086  1.00 20.29 LIG-0.23  N 
ATOM     53  NH2 ARG C1705     -17.940 -22.264  -7.540  1.00 19.46 LIG-0.23  N 
ATOM     54 1HH1 ARG C1705     -16.822 -24.574  -5.847  1.00 20.29 LIG 0.17  HD
ATOM     55 2HH1 ARG C1705     -18.067 -23.788  -5.623  1.00 20.29 LIG 0.17  HD
ATOM     56 2HH2 ARG C1705     -18.645 -22.109  -7.072  1.00 19.46 LIG 0.17  HD
ATOM     57 1HH2 ARG C1705     -17.781 -21.796  -8.244  1.00 19.46 LIG 0.17  HD
ATOM     58 HE   ARG C1705     -15.888 -22.961  -8.602  1.00 20.43 LIG 0.18  HD
ENDBRANCH 49 50
ENDBRANCH 48 49
ENDBRANCH 47 48
ENDBRANCH 1 47
TORSDOF 24
ENDMDL
MODEL 31
USER: ADFR SOLUTION from run 96
USER: SCORE 18.167590 LL:  -5.046 LR: -14.285 RR:   0.000 FEB:  -7.126
USER: RMSD 2.784941
USER: SEED 95
USER: STATUS searching
USER: GENES 26
USER: genes 0 Translation |==|  0.39695 0.55702 0.57742
USER: genes 1 Rotation |==|  0.50632 0.47962 0.48954 0.99944
USER: genes 2 Torsion [C]-CA--N-[C] |==|  0.76150
USER: genes 3 Torsion [N]-C--CA-[N] |==|  0.84460
USER: genes 4 Torsion [C]-CA--N-[C] |==|  0.84634
USER: genes 5 Torsion [N]-C--CA-[N] |==|  0.91355
USER: genes 6 Torsion [C]-CA--N-[C] |==|  0.84271
USER: genes 7 Torsion [N]-C--CA-[N] |==|  0.75730
USER: genes 8 Torsion [C]-CA--CB-[SG] |==|  0.57474
USER: genes 9 Torsion [CA]-CB--SG-[HG] |==|  0.20384
USER: genes 10 Torsion [N]-CA--C-[N] |==|  0.95533
USER: genes 11 Torsion [C]-N--CA-[C] |==|  0.78280
USER: genes 12 Torsion [N]-CA--C-[N] |==|  0.99865
USER: genes 13 Torsion [C]-N--CA-[CB] |==|  0.26661
USER: genes 14 Torsion [N]-CA--C-[N] |==|  0.98889
USER: genes 15 Torsion [C]-N--CA-[C] |==|  0.53841
USER: genes 16 Torsion [N]-CA--C-[O] |==|  0.09338
USER: genes 17 Torsion [N]-CA--CB-[CG] |==|  0.51631
USER: genes 18 Torsion [CA]-CB--CG-[CD] |==|  0.19843
USER: genes 19 Torsion [CB]-CG--CD-[OE2] |==|  0.94428
USER: genes 20 Torsion [N]-CA--CB-[OG] |==|  0.11925
USER: genes 21 Torsion [CA]-CB--OG-[HG] |==|  0.84432
USER: genes 22 Torsion [N]-CA--CB-[CG] |==|  0.53054
USER: genes 23 Torsion [CA]-CB--CG-[CD] |==|  0.46430
USER: genes 24 Torsion [CB]-CG--CD-[NE] |==|  0.70936
USER: genes 25 Torsion [CG]-CD--NE-[CZ] |==|  0.32372
ROOT
ATOM      1  CA  ARG C1705     -15.266 -26.519  -6.861  1.00 19.53 LIG 0.18  C 
ENDROOT
BRANCH 1 2
ATOM      2  N   ARG C1705     -13.935 -27.102  -6.672  1.00 19.64 LIG-0.35  N 
ATOM      3 H    ARG C1705     -13.290 -26.698  -7.074  1.00 19.64 LIG 0.16  HD
ATOM      4  C   ALA C1704     -13.807 -28.187  -5.916  1.00 22.93 LIG 0.24  C 
ATOM      5 O    ALA C1704     -14.784 -28.758  -5.414  1.00 21.24 LIG-0.27  OA
BRANCH 4 6
ATOM      6  CA  ALA C1704     -12.396 -28.729  -5.692  1.00 20.87 LIG 0.17  C 
ATOM      7  CB  ALA C1704     -11.577 -27.792  -4.827  1.00 18.21 LIG 0.04  C 
BRANCH 6 8
ATOM      8  N   ALA C1704     -11.698 -29.019  -6.936  1.00 22.42 LIG-0.35  N 
ATOM      9  C   CYS C1703     -12.230 -29.834  -7.841  1.00 22.90 LIG 0.24  C 
ATOM     10 O    CYS C1703     -13.353 -30.319  -7.728  1.00 23.45 LIG-0.27  OA
ATOM     11 H    ALA C1704     -10.938 -28.626  -7.024  1.00 22.42 LIG 0.16  HD
BRANCH 9 12
ATOM     12  CA  CYS C1703     -11.369 -30.147  -9.058  1.00 24.41 LIG 0.18  C 
BRANCH 12 13
ATOM     13  N   CYS C1703     -10.500 -29.016  -9.385  1.00 24.32 LIG-0.34  N 
ATOM     14  C   GLY C1702     -11.024 -27.814  -9.623  1.00 24.70 LIG 0.25  C 
ATOM     15 O    GLY C1702     -12.239 -27.617  -9.651  1.00 27.37 LIG-0.27  OA
ATOM     16 H    CYS C1703      -9.660 -29.197  -9.407  1.00 24.32 LIG 0.16  HD
BRANCH 14 17
ATOM     17  CA  GLY C1702     -10.053 -26.672  -9.866  1.00 25.50 LIG 0.47  C 
ATOM     18  N   GLY C1702      -9.636 -26.027  -8.630  1.00 32.41 LIG 0.61  N 
ENDBRANCH 14 17
ENDBRANCH 12 13
BRANCH 12 19
ATOM     19  CB  CYS C1703     -10.558 -31.436  -8.835  1.00 19.88 LIG 0.10  C 
BRANCH 19 20
ATOM     20 SG   CYS C1703      -9.009 -31.551  -9.755  1.00 23.51 LIG-0.18  SA
ATOM     21 HG   CYS C1703      -8.198 -30.814  -9.266  1.00 23.51 LIG 0.10  HD
ENDBRANCH 19 20
ENDBRANCH 12 19
ENDBRANCH 9 12
ENDBRANCH 6 8
ENDBRANCH 4 6
ENDBRANCH 1 2
BRANCH 1 22
ATOM     22  C   ARG C1705     -16.069 -27.151  -8.010  1.00 20.76 LIG 0.24  C 
ATOM     23 O    ARG C1705     -17.289 -26.966  -8.097  1.00 22.20 LIG-0.27  OA
ATOM     24  N   SER C1706     -15.398 -27.887  -8.894  1.00 20.62 LIG-0.34  N 
ATOM     25 H    SER C1706     -14.552 -28.040  -8.855  1.00 20.62 LIG 0.16  HD
BRANCH 24 26
ATOM     26  CA  SER C1706     -16.082 -28.502 -10.026  1.00 20.36 LIG 0.20  C 
BRANCH 26 27
ATOM     27  C   SER C1706     -16.834 -29.759  -9.602  1.00 23.85 LIG 0.24  C 
ATOM     28 O    SER C1706     -17.490 -30.404 -10.420  1.00 24.92 LIG-0.27  OA
ATOM     29  N   GLU C1707     -16.748 -30.096  -8.321  1.00 21.35 LIG-0.35  N 
ATOM     30 H    GLU C1707     -16.271 -29.673  -7.743  1.00 21.35 LIG 0.16  HD
BRANCH 29 31
ATOM     31  CA  GLU C1707     -17.479 -31.242  -7.782  1.00 28.80 LIG 0.18  C 
BRANCH 31 32
ATOM     32  C   GLU C1707     -17.983 -30.936  -6.380  1.00 29.29 LIG 0.24  C 
ATOM     33 O    GLU C1707     -18.690 -31.744  -5.775  1.00 32.31 LIG-0.27  OA
ATOM     34  N   GLY C1708     -17.615 -29.763  -5.871  1.00 26.36 LIG-0.35  N 
ATOM     35 H    GLY C1708     -17.146 -29.183  -6.298  1.00 26.36 LIG 0.16  HD
BRANCH 34 36
ATOM     36  CA  GLY C1708     -17.986 -29.359  -4.529  1.00 26.05 LIG 0.21  C 
BRANCH 36 37
ATOM     37  C   GLY C1708     -17.761 -27.885  -4.268  1.00 34.75 LIG 0.21  C 
ATOM     38 O    GLY C1708     -17.909 -27.057  -5.160  1.00 36.48 LIG-0.29  OA
ENDBRANCH 36 37
ENDBRANCH 34 36
ENDBRANCH 31 32
BRANCH 31 39
ATOM     39  CB  GLU C1707     -16.600 -32.496  -7.737  1.00 30.33 LIG 0.04  C 
BRANCH 39 40
ATOM     40  CG  GLU C1707     -17.332 -33.760  -7.321  1.00 34.25 LIG 0.12  C 
BRANCH 40 41
ATOM     41  CD  GLU C1707     -18.286 -34.267  -8.392  1.00 39.35 LIG 0.17  C 
ATOM     42 OE2  GLU C1707     -18.667 -33.467  -9.274  1.00 42.40 LIG-0.65  OA
ATOM     43 OE1  GLU C1707     -18.655 -35.462  -8.348  1.00 45.84 LIG-0.65  OA
ENDBRANCH 40 41
ENDBRANCH 39 40
ENDBRANCH 31 39
ENDBRANCH 29 31
ENDBRANCH 26 27
BRANCH 26 44
ATOM     44  CB  SER C1706     -15.103 -28.818 -11.162  1.00 19.38 LIG 0.20  C 
BRANCH 44 45
ATOM     45 OG   SER C1706     -13.893 -29.380 -10.669  1.00 20.52 LIG-0.40  OA
ATOM     46 HG   SER C1706     -13.552 -28.861 -10.104  1.00 20.52 LIG 0.21  HD
ENDBRANCH 44 45
ENDBRANCH 26 44
ENDBRANCH 24 26
ENDBRANCH 1 22
BRANCH 1 47
ATOM     47  CB  ARG C1705     -15.195 -24.994  -7.017  1.00 21.30 LIG 0.04  C 
BRANCH 47 48
ATOM     48  CG  ARG C1705     -16.570 -24.327  -6.948  1.00 23.17 LIG 0.02  C 
BRANCH 48 49
ATOM     49  CD  ARG C1705     -16.488 -22.808  -6.787  1.00 21.38 LIG 0.14  C 
BRANCH 49 50
ATOM     50  NE  ARG C1705     -16.800 -22.370  -5.424  1.00 20.43 LIG-0.23  N 
ATOM     51  CZ  ARG C1705     -15.949 -21.754  -4.605  1.00 19.01 LIG 0.67  C 
ATOM     52  NH1 ARG C1705     -14.701 -21.481  -4.990  1.00 20.29 LIG-0.23  N 
ATOM     53  NH2 ARG C1705     -16.347 -21.411  -3.387  1.00 19.46 LIG-0.23  N 
ATOM     54 1HH1 ARG C1705     -14.435 -21.703  -5.777  1.00 20.29 LIG 0.17  HD
ATOM     55 2HH1 ARG C1705     -14.162 -21.083  -4.450  1.00 20.29 LIG 0.17  HD
ATOM     56 2HH2 ARG C1705     -15.803 -21.013  -2.853  1.00 19.46 LIG 0.17  HD
ATOM     57 1HH2 ARG C1705     -17.150 -21.587  -3.131  1.00 19.46 LIG 0.17  HD
ATOM     58 HE   ARG C1705     -17.593 -22.522  -5.130  1.00 20.43 LIG 0.18  HD
ENDBRANCH 49 50
ENDBRANCH 48 49
ENDBRANCH 47 48
ENDBRANCH 1 47
TORSDOF 24
ENDMDL
MODEL 32
USER: ADFR SOLUTION from run 36
USER: SCORE 16.672234 LL:  -3.861 LR: -14.247 RR:   0.000 FEB:  -7.088
USER: RMSD 8.183833
USER: SEED 35
USER: STATUS no improvement in best in 10 clusters for 5 generations
USER: GENES 26
USER: genes 0 Translation |==|  0.52339 0.41269 0.50879
USER: genes 1 Rotation |==|  0.55911 0.46266 0.99508 0.50219
USER: genes 2 Torsion [C]-CA--N-[C] |==|  0.67087
USER: genes 3 Torsion [N]-C--CA-[N] |==|  0.87244
USER: genes 4 Torsion [C]-CA--N-[C] |==|  0.83623
USER: genes 5 Torsion [N]-C--CA-[N] |==|  0.42409
USER: genes 6 Torsion [C]-CA--N-[C] |==|  0.81667
USER: genes 7 Torsion [N]-C--CA-[N] |==|  0.66576
USER: genes 8 Torsion [C]-CA--CB-[SG] |==|  0.84865
USER: genes 9 Torsion [CA]-CB--SG-[HG] |==|  0.24658
USER: genes 10 Torsion [N]-CA--C-[N] |==|  0.40776
USER: genes 11 Torsion [C]-N--CA-[C] |==|  0.66213
USER: genes 12 Torsion [N]-CA--C-[N] |==|  0.91256
USER: genes 13 Torsion [C]-N--CA-[CB] |==|  0.18186
USER: genes 14 Torsion [N]-CA--C-[N] |==|  0.89389
USER: genes 15 Torsion [C]-N--CA-[C] |==|  0.33625
USER: genes 16 Torsion [N]-CA--C-[O] |==|  0.05735
USER: genes 17 Torsion [N]-CA--CB-[CG] |==|  0.58279
USER: genes 18 Torsion [CA]-CB--CG-[CD] |==|  0.17569
USER: genes 19 Torsion [CB]-CG--CD-[OE2] |==|  0.28946
USER: genes 20 Torsion [N]-CA--CB-[OG] |==|  0.77512
USER: genes 21 Torsion [CA]-CB--OG-[HG] |==|  0.34237
USER: genes 22 Torsion [N]-CA--CB-[CG] |==|  0.52610
USER: genes 23 Torsion [CA]-CB--CG-[CD] |==|  0.19057
USER: genes 24 Torsion [CB]-CG--CD-[NE] |==|  0.81096
USER: genes 25 Torsion [CG]-CD--NE-[CZ] |==|  0.30518
ROOT
ATOM      1  CA  ARG C1705     -12.990 -29.766  -8.097  1.00 19.53 LIG 0.18  C 
ENDROOT
BRANCH 1 2
ATOM      2  N   ARG C1705     -14.282 -29.275  -7.610  1.00 19.64 LIG-0.35  N 
ATOM      3 H    ARG C1705     -14.915 -29.252  -8.192  1.00 19.64 LIG 0.16  HD
ATOM      4  C   ALA C1704     -14.394 -28.906  -6.339  1.00 22.93 LIG 0.24  C 
ATOM      5 O    ALA C1704     -13.427 -28.905  -5.566  1.00 21.24 LIG-0.27  OA
BRANCH 4 6
ATOM      6  CA  ALA C1704     -15.772 -28.458  -5.853  1.00 20.87 LIG 0.17  C 
ATOM      7  CB  ALA C1704     -16.669 -29.647  -5.569  1.00 18.21 LIG 0.04  C 
BRANCH 6 8
ATOM      8  N   ALA C1704     -16.423 -27.534  -6.771  1.00 22.42 LIG-0.35  N 
ATOM      9  C   CYS C1703     -15.851 -26.378  -7.090  1.00 22.90 LIG 0.24  C 
ATOM     10 O    CYS C1703     -14.728 -26.056  -6.708  1.00 23.45 LIG-0.27  OA
ATOM     11 H    ALA C1704     -17.182 -27.800  -7.073  1.00 22.42 LIG 0.16  HD
BRANCH 9 12
ATOM     12  CA  CYS C1703     -16.664 -25.444  -7.976  1.00 24.41 LIG 0.18  C 
BRANCH 12 13
ATOM     13  N   CYS C1703     -16.289 -24.049  -7.745  1.00 24.32 LIG-0.34  N 
ATOM     14  C   GLY C1702     -16.537 -23.473  -6.569  1.00 24.70 LIG 0.25  C 
ATOM     15 O    GLY C1702     -17.145 -24.050  -5.667  1.00 27.37 LIG-0.27  OA
ATOM     16 H    CYS C1703     -15.912 -23.658  -8.411  1.00 24.32 LIG 0.16  HD
BRANCH 14 17
ATOM     17  CA  GLY C1702     -16.037 -22.052  -6.375  1.00 25.50 LIG 0.47  C 
ATOM     18  N   GLY C1702     -15.106 -21.941  -5.262  1.00 32.41 LIG 0.61  N 
ENDBRANCH 14 17
ENDBRANCH 12 13
BRANCH 12 19
ATOM     19  CB  CYS C1703     -16.515 -25.830  -9.459  1.00 19.88 LIG 0.10  C 
BRANCH 19 20
ATOM     20 SG   CYS C1703     -14.819 -25.927 -10.072  1.00 23.51 LIG-0.18  SA
ATOM     21 HG   CYS C1703     -14.393 -27.035  -9.897  1.00 23.51 LIG 0.10  HD
ENDBRANCH 19 20
ENDBRANCH 12 19
ENDBRANCH 9 12
ENDBRANCH 6 8
ENDBRANCH 4 6
ENDBRANCH 1 2
BRANCH 1 22
ATOM     22  C   ARG C1705     -12.378 -28.913  -9.220  1.00 20.76 LIG 0.24  C 
ATOM     23 O    ARG C1705     -13.107 -28.340 -10.038  1.00 22.20 LIG-0.27  OA
ATOM     24  N   SER C1706     -11.051 -28.819  -9.263  1.00 20.62 LIG-0.34  N 
ATOM     25 H    SER C1706     -10.518 -29.212  -8.714  1.00 20.62 LIG 0.16  HD
BRANCH 24 26
ATOM     26  CA  SER C1706     -10.393 -28.010 -10.284  1.00 20.36 LIG 0.20  C 
BRANCH 26 27
ATOM     27  C   SER C1706      -9.433 -28.849 -11.122  1.00 23.85 LIG 0.24  C 
ATOM     28 O    SER C1706      -9.241 -28.584 -12.308  1.00 24.92 LIG-0.27  OA
ATOM     29  N   GLU C1707      -8.845 -29.866 -10.505  1.00 21.35 LIG-0.35  N 
ATOM     30 H    GLU C1707      -8.945 -30.046  -9.670  1.00 21.35 LIG 0.16  HD
BRANCH 29 31
ATOM     31  CA  GLU C1707      -7.956 -30.781 -11.221  1.00 28.80 LIG 0.18  C 
BRANCH 31 32
ATOM     32  C   GLU C1707      -7.557 -31.941 -10.321  1.00 29.29 LIG 0.24  C 
ATOM     33 O    GLU C1707      -7.456 -33.083 -10.775  1.00 32.31 LIG-0.27  OA
ATOM     34  N   GLY C1708      -7.336 -31.640  -9.045  1.00 26.36 LIG-0.35  N 
ATOM     35 H    GLY C1708      -7.432 -30.852  -8.715  1.00 26.36 LIG 0.16  HD
BRANCH 34 36
ATOM     36  CA  GLY C1708      -6.907 -32.639  -8.085  1.00 26.05 LIG 0.21  C 
BRANCH 36 37
ATOM     37  C   GLY C1708      -5.584 -32.305  -7.430  1.00 34.75 LIG 0.21  C 
ATOM     38 O    GLY C1708      -5.160 -31.154  -7.415  1.00 36.48 LIG-0.29  OA
ENDBRANCH 36 37
ENDBRANCH 34 36
ENDBRANCH 31 32
BRANCH 31 39
ATOM     39  CB  GLU C1707      -6.692 -30.066 -11.708  1.00 30.33 LIG 0.04  C 
BRANCH 39 40
ATOM     40  CG  GLU C1707      -6.096 -30.646 -12.980  1.00 34.25 LIG 0.12  C 
BRANCH 40 41
ATOM     41  CD  GLU C1707      -7.029 -30.524 -14.175  1.00 39.35 LIG 0.17  C 
ATOM     42 OE2  GLU C1707      -6.785 -29.647 -15.032  1.00 42.40 LIG-0.65  OA
ATOM     43 OE1  GLU C1707      -8.006 -31.303 -14.255  1.00 45.84 LIG-0.65  OA
ENDBRANCH 40 41
ENDBRANCH 39 40
ENDBRANCH 31 39
ENDBRANCH 29 31
ENDBRANCH 26 27
BRANCH 26 44
ATOM     44  CB  SER C1706      -9.661 -26.816  -9.660  1.00 19.38 LIG 0.20  C 
BRANCH 44 45
ATOM     45 OG   SER C1706     -10.553 -25.744  -9.380  1.00 20.52 LIG-0.40  OA
ATOM     46 HG   SER C1706     -10.507 -25.547  -8.565  1.00 20.52 LIG 0.21  HD
ENDBRANCH 44 45
ENDBRANCH 26 44
ENDBRANCH 24 26
ENDBRANCH 1 22
BRANCH 1 47
ATOM     47  CB  ARG C1705     -13.069 -31.242  -8.511  1.00 21.30 LIG 0.04  C 
BRANCH 47 48
ATOM     48  CG  ARG C1705     -11.696 -31.848  -8.806  1.00 23.17 LIG 0.02  C 
BRANCH 48 49
ATOM     49  CD  ARG C1705     -10.828 -31.993  -7.554  1.00 21.38 LIG 0.14  C 
BRANCH 49 50
ATOM     50  NE  ARG C1705     -10.414 -30.698  -7.006  1.00 20.43 LIG-0.23  N 
ATOM     51  CZ  ARG C1705     -10.855 -30.175  -5.863  1.00 19.01 LIG 0.67  C 
ATOM     52  NH1 ARG C1705     -11.741 -30.827  -5.106  1.00 20.29 LIG-0.23  N 
ATOM     53  NH2 ARG C1705     -10.411 -28.988  -5.473  1.00 19.46 LIG-0.23  N 
ATOM     54 1HH1 ARG C1705     -12.036 -31.596  -5.355  1.00 20.29 LIG 0.17  HD
ATOM     55 2HH1 ARG C1705     -12.018 -30.478  -4.371  1.00 20.29 LIG 0.17  HD
ATOM     56 2HH2 ARG C1705     -10.691 -28.645  -4.736  1.00 19.46 LIG 0.17  HD
ATOM     57 1HH2 ARG C1705      -9.843 -28.561  -5.957  1.00 19.46 LIG 0.17  HD
ATOM     58 HE   ARG C1705      -9.843 -30.241  -7.456  1.00 20.43 LIG 0.18  HD
ENDBRANCH 49 50
ENDBRANCH 48 49
ENDBRANCH 47 48
ENDBRANCH 1 47
TORSDOF 24
ENDMDL
MODEL 33
USER: ADFR SOLUTION from run 34
USER: SCORE 16.115743 LL:  -2.990 LR: -14.254 RR:   0.000 FEB:  -7.095
USER: RMSD 5.689755
USER: SEED 33
USER: STATUS no improvement in best in 12 clusters for 5 generations
USER: GENES 26
USER: genes 0 Translation |==|  0.36306 0.51117 0.36733
USER: genes 1 Rotation |==|  0.17119 0.29654 0.34076 0.77411
USER: genes 2 Torsion [C]-CA--N-[C] |==|  0.72310
USER: genes 3 Torsion [N]-C--CA-[N] |==|  0.92702
USER: genes 4 Torsion [C]-CA--N-[C] |==|  0.83174
USER: genes 5 Torsion [N]-C--CA-[N] |==|  0.98094
USER: genes 6 Torsion [C]-CA--N-[C] |==|  0.79006
USER: genes 7 Torsion [N]-C--CA-[N] |==|  0.44417
USER: genes 8 Torsion [C]-CA--CB-[SG] |==|  0.06394
USER: genes 9 Torsion [CA]-CB--SG-[HG] |==|  0.36592
USER: genes 10 Torsion [N]-CA--C-[N] |==|  0.52059
USER: genes 11 Torsion [C]-N--CA-[C] |==|  0.83598
USER: genes 12 Torsion [N]-CA--C-[N] |==|  0.39365
USER: genes 13 Torsion [C]-N--CA-[CB] |==|  0.87679
USER: genes 14 Torsion [N]-CA--C-[N] |==|  0.94185
USER: genes 15 Torsion [C]-N--CA-[C] |==|  0.79435
USER: genes 16 Torsion [N]-CA--C-[O] |==|  0.16611
USER: genes 17 Torsion [N]-CA--CB-[CG] |==|  0.62177
USER: genes 18 Torsion [CA]-CB--CG-[CD] |==|  0.95827
USER: genes 19 Torsion [CB]-CG--CD-[OE2] |==|  0.26947
USER: genes 20 Torsion [N]-CA--CB-[OG] |==|  0.62725
USER: genes 21 Torsion [CA]-CB--OG-[HG] |==|  0.56846
USER: genes 22 Torsion [N]-CA--CB-[CG] |==|  0.79118
USER: genes 23 Torsion [CA]-CB--CG-[CD] |==|  0.30568
USER: genes 24 Torsion [CB]-CG--CD-[NE] |==|  0.11165
USER: genes 25 Torsion [CG]-CD--NE-[CZ] |==|  0.56766
ROOT
ATOM      1  CA  ARG C1705     -15.876 -27.551 -10.643  1.00 19.53 LIG 0.18  C 
ENDROOT
BRANCH 1 2
ATOM      2  N   ARG C1705     -15.704 -27.170  -9.238  1.00 19.64 LIG-0.35  N 
ATOM      3 H    ARG C1705     -15.174 -27.668  -8.779  1.00 19.64 LIG 0.16  HD
ATOM      4  C   ALA C1704     -16.359 -26.112  -8.772  1.00 22.93 LIG 0.24  C 
ATOM      5 O    ALA C1704     -17.158 -25.473  -9.470  1.00 21.24 LIG-0.27  OA
BRANCH 4 6
ATOM      6  CA  ALA C1704     -16.108 -25.710  -7.319  1.00 20.87 LIG 0.17  C 
ATOM      7  CB  ALA C1704     -15.108 -24.573  -7.228  1.00 18.21 LIG 0.04  C 
BRANCH 6 8
ATOM      8  N   ALA C1704     -15.688 -26.829  -6.487  1.00 22.42 LIG-0.35  N 
ATOM      9  C   CYS C1703     -16.475 -27.887  -6.324  1.00 22.90 LIG 0.24  C 
ATOM     10 O    CYS C1703     -17.544 -28.026  -6.914  1.00 23.45 LIG-0.27  OA
ATOM     11 H    ALA C1704     -14.912 -26.740  -6.128  1.00 22.42 LIG 0.16  HD
BRANCH 9 12
ATOM     12  CA  CYS C1703     -15.981 -28.951  -5.353  1.00 24.41 LIG 0.18  C 
BRANCH 12 13
ATOM     13  N   CYS C1703     -14.622 -28.654  -4.901  1.00 24.32 LIG-0.34  N 
ATOM     14  C   GLY C1702     -13.584 -28.869  -5.709  1.00 24.70 LIG 0.25  C 
ATOM     15 O    GLY C1702     -13.708 -29.384  -6.820  1.00 27.37 LIG-0.27  OA
ATOM     16 H    CYS C1703     -14.564 -28.343  -4.102  1.00 24.32 LIG 0.16  HD
BRANCH 14 17
ATOM     17  CA  GLY C1702     -12.215 -28.450  -5.203  1.00 25.50 LIG 0.47  C 
ATOM     18  N   GLY C1702     -11.135 -29.124  -5.908  1.00 32.41 LIG 0.61  N 
ENDBRANCH 14 17
ENDBRANCH 12 13
BRANCH 12 19
ATOM     19  CB  CYS C1703     -16.951 -29.099  -4.166  1.00 19.88 LIG 0.10  C 
BRANCH 19 20
ATOM     20 SG   CYS C1703     -18.644 -28.551  -4.471  1.00 23.51 LIG-0.18  SA
ATOM     21 HG   CYS C1703     -19.411 -29.395  -4.097  1.00 23.51 LIG 0.10  HD
ENDBRANCH 19 20
ENDBRANCH 12 19
ENDBRANCH 9 12
ENDBRANCH 6 8
ENDBRANCH 4 6
ENDBRANCH 1 2
BRANCH 1 22
ATOM     22  C   ARG C1705     -16.865 -28.708 -10.863  1.00 20.76 LIG 0.24  C 
ATOM     23 O    ARG C1705     -17.543 -29.138  -9.923  1.00 22.20 LIG-0.27  OA
ATOM     24  N   SER C1706     -16.958 -29.208 -12.093  1.00 20.62 LIG-0.34  N 
ATOM     25 H    SER C1706     -16.493 -28.936 -12.764  1.00 20.62 LIG 0.16  HD
BRANCH 24 26
ATOM     26  CA  SER C1706     -17.889 -30.291 -12.390  1.00 20.36 LIG 0.20  C 
BRANCH 26 27
ATOM     27  C   SER C1706     -17.596 -31.522 -11.538  1.00 23.85 LIG 0.24  C 
ATOM     28 O    SER C1706     -16.435 -31.857 -11.299  1.00 24.92 LIG-0.27  OA
ATOM     29  N   GLU C1707     -18.648 -32.199 -11.095  1.00 21.35 LIG-0.35  N 
ATOM     30 H    GLU C1707     -19.464 -31.961 -11.229  1.00 21.35 LIG 0.16  HD
BRANCH 29 31
ATOM     31  CA  GLU C1707     -18.493 -33.433 -10.326  1.00 28.80 LIG 0.18  C 
BRANCH 31 32
ATOM     32  C   GLU C1707     -18.096 -33.114  -8.892  1.00 29.29 LIG 0.24  C 
ATOM     33 O    GLU C1707     -18.284 -33.934  -7.990  1.00 32.31 LIG-0.27  OA
ATOM     34  N   GLY C1708     -17.550 -31.918  -8.690  1.00 26.36 LIG-0.35  N 
ATOM     35 H    GLY C1708     -17.442 -31.331  -9.308  1.00 26.36 LIG 0.16  HD
BRANCH 34 36
ATOM     36  CA  GLY C1708     -17.085 -31.499  -7.382  1.00 26.05 LIG 0.21  C 
BRANCH 36 37
ATOM     37  C   GLY C1708     -18.212 -31.157  -6.431  1.00 34.75 LIG 0.21  C 
ATOM     38 O    GLY C1708     -19.056 -31.993  -6.127  1.00 36.48 LIG-0.29  OA
ENDBRANCH 36 37
ENDBRANCH 34 36
ENDBRANCH 31 32
BRANCH 31 39
ATOM     39  CB  GLU C1707     -17.436 -34.351 -10.947  1.00 30.33 LIG 0.04  C 
BRANCH 39 40
ATOM     40  CG  GLU C1707     -17.837 -35.814 -11.012  1.00 34.25 LIG 0.12  C 
BRANCH 40 41
ATOM     41  CD  GLU C1707     -19.036 -36.135 -10.131  1.00 39.35 LIG 0.17  C 
ATOM     42 OE2  GLU C1707     -20.168 -36.167 -10.660  1.00 42.40 LIG-0.65  OA
ATOM     43 OE1  GLU C1707     -18.844 -36.352  -8.914  1.00 45.84 LIG-0.65  OA
ENDBRANCH 40 41
ENDBRANCH 39 40
ENDBRANCH 31 39
ENDBRANCH 29 31
ENDBRANCH 26 27
BRANCH 26 44
ATOM     44  CB  SER C1706     -17.867 -30.649 -13.880  1.00 19.38 LIG 0.20  C 
BRANCH 44 45
ATOM     45 OG   SER C1706     -19.183 -30.788 -14.404  1.00 20.52 LIG-0.40  OA
ATOM     46 HG   SER C1706     -19.164 -31.290 -15.077  1.00 20.52 LIG 0.21  HD
ENDBRANCH 44 45
ENDBRANCH 26 44
ENDBRANCH 24 26
ENDBRANCH 1 22
BRANCH 1 47
ATOM     47  CB  ARG C1705     -14.528 -27.848 -11.313  1.00 21.30 LIG 0.04  C 
BRANCH 47 48
ATOM     48  CG  ARG C1705     -13.732 -26.581 -11.630  1.00 23.17 LIG 0.02  C 
BRANCH 48 49
ATOM     49  CD  ARG C1705     -12.490 -26.422 -10.750  1.00 21.38 LIG 0.14  C 
BRANCH 49 50
ATOM     50  NE  ARG C1705     -11.792 -27.692 -10.531  1.00 20.43 LIG-0.23  N 
ATOM     51  CZ  ARG C1705     -11.001 -27.962  -9.494  1.00 19.01 LIG 0.67  C 
ATOM     52  NH1 ARG C1705     -10.784 -27.052  -8.541  1.00 20.29 LIG-0.23  N 
ATOM     53  NH2 ARG C1705     -10.417 -29.149  -9.409  1.00 19.46 LIG-0.23  N 
ATOM     54 1HH1 ARG C1705     -11.157 -26.279  -8.592  1.00 20.29 LIG 0.17  HD
ATOM     55 2HH1 ARG C1705     -10.271 -27.239  -7.877  1.00 20.29 LIG 0.17  HD
ATOM     56 2HH2 ARG C1705      -9.905 -29.330  -8.742  1.00 19.46 LIG 0.17  HD
ATOM     57 1HH2 ARG C1705     -10.549 -29.739 -10.021  1.00 19.46 LIG 0.17  HD
ATOM     58 HE   ARG C1705     -11.902 -28.311 -11.117  1.00 20.43 LIG 0.18  HD
ENDBRANCH 49 50
ENDBRANCH 48 49
ENDBRANCH 47 48
ENDBRANCH 1 47
TORSDOF 24
ENDMDL
MODEL 34
USER: ADFR SOLUTION from run 131
USER: SCORE 16.080193 LL:  -3.717 LR: -14.234 RR:   0.000 FEB:  -7.075
USER: RMSD 3.825174
USER: SEED 130
USER: STATUS no improvement in best in 12 clusters for 5 generations
USER: GENES 26
USER: genes 0 Translation |==|  0.38500 0.63118 0.55890
USER: genes 1 Rotation |==|  0.37535 0.64726 0.55186 0.95835
USER: genes 2 Torsion [C]-CA--N-[C] |==|  0.18314
USER: genes 3 Torsion [N]-C--CA-[N] |==|  0.18324
USER: genes 4 Torsion [C]-CA--N-[C] |==|  0.12395
USER: genes 5 Torsion [N]-C--CA-[N] |==|  0.87371
USER: genes 6 Torsion [C]-CA--N-[C] |==|  0.80918
USER: genes 7 Torsion [N]-C--CA-[N] |==|  0.78662
USER: genes 8 Torsion [C]-CA--CB-[SG] |==|  0.81833
USER: genes 9 Torsion [CA]-CB--SG-[HG] |==|  0.91062
USER: genes 10 Torsion [N]-CA--C-[N] |==|  0.11093
USER: genes 11 Torsion [C]-N--CA-[C] |==|  0.20819
USER: genes 12 Torsion [N]-CA--C-[N] |==|  0.33601
USER: genes 13 Torsion [C]-N--CA-[CB] |==|  0.17222
USER: genes 14 Torsion [N]-CA--C-[N] |==|  0.09601
USER: genes 15 Torsion [C]-N--CA-[C] |==|  0.68360
USER: genes 16 Torsion [N]-CA--C-[O] |==|  0.14580
USER: genes 17 Torsion [N]-CA--CB-[CG] |==|  0.68695
USER: genes 18 Torsion [CA]-CB--CG-[CD] |==|  0.80317
USER: genes 19 Torsion [CB]-CG--CD-[OE2] |==|  0.11990
USER: genes 20 Torsion [N]-CA--CB-[OG] |==|  0.92497
USER: genes 21 Torsion [CA]-CB--OG-[HG] |==|  0.24071
USER: genes 22 Torsion [N]-CA--CB-[CG] |==|  0.56186
USER: genes 23 Torsion [CA]-CB--CG-[CD] |==|  0.20039
USER: genes 24 Torsion [CB]-CG--CD-[NE] |==|  0.58811
USER: genes 25 Torsion [CG]-CD--NE-[CZ] |==|  0.48254
ROOT
ATOM      1  CA  ARG C1705     -15.481 -24.851  -7.195  1.00 19.53 LIG 0.18  C 
ENDROOT
BRANCH 1 2
ATOM      2  N   ARG C1705     -14.160 -25.190  -7.731  1.00 19.64 LIG-0.35  N 
ATOM      3 H    ARG C1705     -13.507 -25.140  -7.172  1.00 19.64 LIG 0.16  HD
ATOM      4  C   ALA C1704     -14.053 -25.543  -9.007  1.00 22.93 LIG 0.24  C 
ATOM      5 O    ALA C1704     -15.024 -25.536  -9.775  1.00 21.24 LIG-0.27  OA
BRANCH 4 6
ATOM      6  CA  ALA C1704     -12.669 -25.949  -9.513  1.00 20.87 LIG 0.17  C 
ATOM      7  CB  ALA C1704     -12.648 -26.063 -11.025  1.00 18.21 LIG 0.04  C 
BRANCH 6 8
ATOM      8  N   ALA C1704     -12.179 -27.175  -8.900  1.00 22.42 LIG-0.35  N 
ATOM      9  C   CYS C1703     -12.974 -28.231  -8.763  1.00 22.90 LIG 0.24  C 
ATOM     10 O    CYS C1703     -14.119 -28.272  -9.207  1.00 23.45 LIG-0.27  OA
ATOM     11 H    ALA C1704     -11.358 -27.148  -8.646  1.00 22.42 LIG 0.16  HD
BRANCH 9 12
ATOM     12  CA  CYS C1703     -12.390 -29.423  -8.016  1.00 24.41 LIG 0.18  C 
BRANCH 12 13
ATOM     13  N   CYS C1703     -11.033 -29.713  -8.479  1.00 24.32 LIG-0.34  N 
ATOM     14  C   GLY C1702     -10.829 -30.189  -9.707  1.00 24.70 LIG 0.25  C 
ATOM     15 O    GLY C1702     -11.756 -30.470 -10.468  1.00 27.37 LIG-0.27  OA
ATOM     16 H    CYS C1703     -10.411 -29.554  -7.907  1.00 24.32 LIG 0.16  HD
BRANCH 14 17
ATOM     17  CA  GLY C1702      -9.388 -30.378 -10.147  1.00 25.50 LIG 0.47  C 
ATOM     18  N   GLY C1702      -8.748 -29.121 -10.505  1.00 32.41 LIG 0.61  N 
ENDBRANCH 14 17
ENDBRANCH 12 13
BRANCH 12 19
ATOM     19  CB  CYS C1703     -12.429 -29.188  -6.496  1.00 19.88 LIG 0.10  C 
BRANCH 19 20
ATOM     20 SG   CYS C1703     -11.391 -27.842  -5.888  1.00 23.51 LIG-0.18  SA
ATOM     21 HG   CYS C1703     -10.412 -27.750  -6.576  1.00 23.51 LIG 0.10  HD
ENDBRANCH 19 20
ENDBRANCH 12 19
ENDBRANCH 9 12
ENDBRANCH 6 8
ENDBRANCH 4 6
ENDBRANCH 1 2
BRANCH 1 22
ATOM     22  C   ARG C1705     -16.463 -26.033  -7.154  1.00 20.76 LIG 0.24  C 
ATOM     23 O    ARG C1705     -17.651 -25.871  -7.457  1.00 22.20 LIG-0.27  OA
ATOM     24  N   SER C1706     -15.978 -27.219  -6.791  1.00 20.62 LIG-0.34  N 
ATOM     25 H    SER C1706     -15.160 -27.361  -6.568  1.00 20.62 LIG 0.16  HD
BRANCH 24 26
ATOM     26  CA  SER C1706     -16.840 -28.396  -6.749  1.00 20.36 LIG 0.20  C 
BRANCH 26 27
ATOM     27  C   SER C1706     -17.142 -28.911  -8.152  1.00 23.85 LIG 0.24  C 
ATOM     28 O    SER C1706     -17.707 -28.191  -8.976  1.00 24.92 LIG-0.27  OA
ATOM     29  N   GLU C1707     -16.778 -30.160  -8.415  1.00 21.35 LIG-0.35  N 
ATOM     30 H    GLU C1707     -16.356 -30.665  -7.861  1.00 21.35 LIG 0.16  HD
BRANCH 29 31
ATOM     31  CA  GLU C1707     -17.074 -30.786  -9.703  1.00 28.80 LIG 0.18  C 
BRANCH 31 32
ATOM     32  C   GLU C1707     -16.618 -32.238  -9.701  1.00 29.29 LIG 0.24  C 
ATOM     33 O    GLU C1707     -16.179 -32.760 -10.728  1.00 32.31 LIG-0.27  OA
ATOM     34  N   GLY C1708     -16.730 -32.883  -8.543  1.00 26.36 LIG-0.35  N 
ATOM     35 H    GLY C1708     -17.061 -32.533  -7.831  1.00 26.36 LIG 0.16  HD
BRANCH 34 36
ATOM     36  CA  GLY C1708     -16.293 -34.256  -8.385  1.00 26.05 LIG 0.21  C 
BRANCH 36 37
ATOM     37  C   GLY C1708     -17.432 -35.216  -8.118  1.00 34.75 LIG 0.21  C 
ATOM     38 O    GLY C1708     -18.412 -35.252  -8.855  1.00 36.48 LIG-0.29  OA
ENDBRANCH 36 37
ENDBRANCH 34 36
ENDBRANCH 31 32
BRANCH 31 39
ATOM     39  CB  GLU C1707     -16.389 -30.047 -10.856  1.00 30.33 LIG 0.04  C 
BRANCH 39 40
ATOM     40  CG  GLU C1707     -17.344 -29.342 -11.803  1.00 34.25 LIG 0.12  C 
BRANCH 40 41
ATOM     41  CD  GLU C1707     -18.141 -30.311 -12.664  1.00 39.35 LIG 0.17  C 
ATOM     42 OE2  GLU C1707     -18.620 -31.331 -12.122  1.00 42.40 LIG-0.65  OA
ATOM     43 OE1  GLU C1707     -18.286 -30.052 -13.880  1.00 45.84 LIG-0.65  OA
ENDBRANCH 40 41
ENDBRANCH 39 40
ENDBRANCH 31 39
ENDBRANCH 29 31
ENDBRANCH 26 27
BRANCH 26 44
ATOM     44  CB  SER C1706     -18.139 -28.106  -5.990  1.00 19.38 LIG 0.20  C 
BRANCH 44 45
ATOM     45 OG   SER C1706     -17.963 -27.074  -5.027  1.00 20.52 LIG-0.40  OA
ATOM     46 HG   SER C1706     -18.082 -26.327  -5.392  1.00 20.52 LIG 0.21  HD
ENDBRANCH 44 45
ENDBRANCH 26 44
ENDBRANCH 24 26
ENDBRANCH 1 22
BRANCH 1 47
ATOM     47  CB  ARG C1705     -16.096 -23.653  -7.932  1.00 21.30 LIG 0.04  C 
BRANCH 47 48
ATOM     48  CG  ARG C1705     -17.164 -22.935  -7.105  1.00 23.17 LIG 0.02  C 
BRANCH 48 49
ATOM     49  CD  ARG C1705     -16.577 -22.133  -5.941  1.00 21.38 LIG 0.14  C 
BRANCH 49 50
ATOM     50  NE  ARG C1705     -17.479 -22.077  -4.787  1.00 20.43 LIG-0.23  N 
ATOM     51  CZ  ARG C1705     -17.175 -21.551  -3.603  1.00 19.01 LIG 0.67  C 
ATOM     52  NH1 ARG C1705     -15.974 -21.012  -3.379  1.00 20.29 LIG-0.23  N 
ATOM     53  NH2 ARG C1705     -18.076 -21.566  -2.630  1.00 19.46 LIG-0.23  N 
ATOM     54 1HH1 ARG C1705     -15.384 -21.002  -4.005  1.00 20.29 LIG 0.17  HD
ATOM     55 2HH1 ARG C1705     -15.791 -20.675  -2.609  1.00 20.29 LIG 0.17  HD
ATOM     56 2HH2 ARG C1705     -17.886 -21.227  -1.863  1.00 19.46 LIG 0.17  HD
ATOM     57 1HH2 ARG C1705     -18.851 -21.914  -2.766  1.00 19.46 LIG 0.17  HD
ATOM     58 HE   ARG C1705     -18.266 -22.411  -4.883  1.00 20.43 LIG 0.18  HD
ENDBRANCH 49 50
ENDBRANCH 48 49
ENDBRANCH 47 48
ENDBRANCH 1 47
TORSDOF 24
ENDMDL
MODEL 35
USER: ADFR SOLUTION from run 189
USER: SCORE 16.634971 LL:  -4.126 LR: -14.215 RR:   0.000 FEB:  -7.056
USER: RMSD 5.016609
USER: SEED 188
USER: STATUS no improvement in best in 8 clusters for 5 generations
USER: GENES 26
USER: genes 0 Translation |==|  0.34750 0.60636 0.55423
USER: genes 1 Rotation |==|  0.58733 0.25778 0.35023 0.90159
USER: genes 2 Torsion [C]-CA--N-[C] |==|  0.68064
USER: genes 3 Torsion [N]-C--CA-[N] |==|  0.02069
USER: genes 4 Torsion [C]-CA--N-[C] |==|  0.78885
USER: genes 5 Torsion [N]-C--CA-[N] |==|  0.55189
USER: genes 6 Torsion [C]-CA--N-[C] |==|  0.16474
USER: genes 7 Torsion [N]-C--CA-[N] |==|  0.05655
USER: genes 8 Torsion [C]-CA--CB-[SG] |==|  0.58742
USER: genes 9 Torsion [CA]-CB--SG-[HG] |==|  0.08838
USER: genes 10 Torsion [N]-CA--C-[N] |==|  0.87743
USER: genes 11 Torsion [C]-N--CA-[C] |==|  0.78128
USER: genes 12 Torsion [N]-CA--C-[N] |==|  0.86732
USER: genes 13 Torsion [C]-N--CA-[CB] |==|  0.85412
USER: genes 14 Torsion [N]-CA--C-[N] |==|  0.39396
USER: genes 15 Torsion [C]-N--CA-[C] |==|  0.17126
USER: genes 16 Torsion [N]-CA--C-[O] |==|  0.61465
USER: genes 17 Torsion [N]-CA--CB-[CG] |==|  0.60039
USER: genes 18 Torsion [CA]-CB--CG-[CD] |==|  0.75166
USER: genes 19 Torsion [CB]-CG--CD-[OE2] |==|  0.29887
USER: genes 20 Torsion [N]-CA--CB-[OG] |==|  0.91103
USER: genes 21 Torsion [CA]-CB--OG-[HG] |==|  0.19470
USER: genes 22 Torsion [N]-CA--CB-[CG] |==|  0.50979
USER: genes 23 Torsion [CA]-CB--CG-[CD] |==|  0.25486
USER: genes 24 Torsion [CB]-CG--CD-[NE] |==|  0.15790
USER: genes 25 Torsion [CG]-CD--NE-[CZ] |==|  0.14167
ROOT
ATOM      1  CA  ARG C1705     -16.156 -25.409  -7.279  1.00 19.53 LIG 0.18  C 
ENDROOT
BRANCH 1 2
ATOM      2  N   ARG C1705     -15.921 -26.694  -6.614  1.00 19.64 LIG-0.35  N 
ATOM      3 H    ARG C1705     -15.098 -26.929  -6.538  1.00 19.64 LIG 0.16  HD
ATOM      4  C   ALA C1704     -16.963 -27.396  -6.182  1.00 22.93 LIG 0.24  C 
ATOM      5 O    ALA C1704     -18.130 -27.030  -6.377  1.00 21.24 LIG-0.27  OA
BRANCH 4 6
ATOM      6  CA  ALA C1704     -16.676 -28.700  -5.439  1.00 20.87 LIG 0.17  C 
ATOM      7  CB  ALA C1704     -17.485 -28.795  -4.160  1.00 18.21 LIG 0.04  C 
BRANCH 6 8
ATOM      8  N   ALA C1704     -15.260 -28.895  -5.165  1.00 22.42 LIG-0.35  N 
ATOM      9  C   CYS C1703     -14.426 -29.272  -6.128  1.00 22.90 LIG 0.24  C 
ATOM     10 O    CYS C1703     -14.769 -29.398  -7.301  1.00 23.45 LIG-0.27  OA
ATOM     11 H    ALA C1704     -15.027 -28.747  -4.350  1.00 22.42 LIG 0.16  HD
BRANCH 9 12
ATOM     12  CA  CYS C1703     -12.988 -29.545  -5.708  1.00 24.41 LIG 0.18  C 
BRANCH 12 13
ATOM     13  N   CYS C1703     -12.093 -29.514  -6.865  1.00 24.32 LIG-0.34  N 
ATOM     14  C   GLY C1702     -11.995 -28.413  -7.609  1.00 24.70 LIG 0.25  C 
ATOM     15 O    GLY C1702     -12.691 -27.416  -7.408  1.00 27.37 LIG-0.27  OA
ATOM     16 H    CYS C1703     -11.659 -30.241  -7.009  1.00 24.32 LIG 0.16  HD
BRANCH 14 17
ATOM     17  CA  GLY C1702     -10.979 -28.427  -8.737  1.00 25.50 LIG 0.47  C 
ATOM     18  N   GLY C1702     -10.605 -29.778  -9.129  1.00 32.41 LIG 0.61  N 
ENDBRANCH 14 17
ENDBRANCH 12 13
BRANCH 12 19
ATOM     19  CB  CYS C1703     -12.539 -28.552  -4.621  1.00 19.88 LIG 0.10  C 
BRANCH 19 20
ATOM     20 SG   CYS C1703     -10.786 -28.122  -4.634  1.00 23.51 LIG-0.18  SA
ATOM     21 HG   CYS C1703     -10.375 -28.149  -5.761  1.00 23.51 LIG 0.10  HD
ENDBRANCH 19 20
ENDBRANCH 12 19
ENDBRANCH 9 12
ENDBRANCH 6 8
ENDBRANCH 4 6
ENDBRANCH 1 2
BRANCH 1 22
ATOM     22  C   ARG C1705     -15.738 -25.384  -8.759  1.00 20.76 LIG 0.24  C 
ATOM     23 O    ARG C1705     -16.471 -24.864  -9.608  1.00 22.20 LIG-0.27  OA
ATOM     24  N   SER C1706     -14.566 -25.933  -9.072  1.00 20.62 LIG-0.34  N 
ATOM     25 H    SER C1706     -14.038 -26.309  -8.506  1.00 20.62 LIG 0.16  HD
BRANCH 24 26
ATOM     26  CA  SER C1706     -14.085 -25.930 -10.450  1.00 20.36 LIG 0.20  C 
BRANCH 26 27
ATOM     27  C   SER C1706     -14.764 -27.018 -11.275  1.00 23.85 LIG 0.24  C 
ATOM     28 O    SER C1706     -15.246 -26.759 -12.378  1.00 24.92 LIG-0.27  OA
ATOM     29  N   GLU C1707     -14.812 -28.228 -10.734  1.00 21.35 LIG-0.35  N 
ATOM     30 H    GLU C1707     -14.454 -28.432  -9.978  1.00 21.35 LIG 0.16  HD
BRANCH 29 31
ATOM     31  CA  GLU C1707     -15.495 -29.336 -11.400  1.00 28.80 LIG 0.18  C 
BRANCH 31 32
ATOM     32  C   GLU C1707     -14.736 -29.747 -12.654  1.00 29.29 LIG 0.24  C 
ATOM     33 O    GLU C1707     -14.206 -28.898 -13.374  1.00 32.31 LIG-0.27  OA
ATOM     34  N   GLY C1708     -14.692 -31.052 -12.907  1.00 26.36 LIG-0.35  N 
ATOM     35 H    GLY C1708     -15.083 -31.646 -12.425  1.00 26.36 LIG 0.16  HD
BRANCH 34 36
ATOM     36  CA  GLY C1708     -13.966 -31.588 -14.042  1.00 26.05 LIG 0.21  C 
BRANCH 36 37
ATOM     37  C   GLY C1708     -12.482 -31.297 -13.991  1.00 34.75 LIG 0.21  C 
ATOM     38 O    GLY C1708     -11.869 -30.966 -15.001  1.00 36.48 LIG-0.29  OA
ENDBRANCH 36 37
ENDBRANCH 34 36
ENDBRANCH 31 32
BRANCH 31 39
ATOM     39  CB  GLU C1707     -16.929 -28.960 -11.783  1.00 30.33 LIG 0.04  C 
BRANCH 39 40
ATOM     40  CG  GLU C1707     -17.930 -30.096 -11.655  1.00 34.25 LIG 0.12  C 
BRANCH 40 41
ATOM     41  CD  GLU C1707     -18.051 -30.920 -12.927  1.00 39.35 LIG 0.17  C 
ATOM     42 OE2  GLU C1707     -17.562 -32.070 -12.938  1.00 42.40 LIG-0.65  OA
ATOM     43 OE1  GLU C1707     -18.634 -30.416 -13.914  1.00 45.84 LIG-0.65  OA
ENDBRANCH 40 41
ENDBRANCH 39 40
ENDBRANCH 31 39
ENDBRANCH 29 31
ENDBRANCH 26 27
BRANCH 26 44
ATOM     44  CB  SER C1706     -12.561 -26.083 -10.507  1.00 19.38 LIG 0.20  C 
BRANCH 44 45
ATOM     45 OG   SER C1706     -11.932 -25.483  -9.380  1.00 20.52 LIG-0.40  OA
ATOM     46 HG   SER C1706     -12.100 -25.935  -8.692  1.00 20.52 LIG 0.21  HD
ENDBRANCH 44 45
ENDBRANCH 26 44
ENDBRANCH 24 26
ENDBRANCH 1 22
BRANCH 1 47
ATOM     47  CB  ARG C1705     -15.510 -24.250  -6.507  1.00 21.30 LIG 0.04  C 
BRANCH 47 48
ATOM     48  CG  ARG C1705     -15.809 -22.885  -7.130  1.00 23.17 LIG 0.02  C 
BRANCH 48 49
ATOM     49  CD  ARG C1705     -17.057 -22.223  -6.542  1.00 21.38 LIG 0.14  C 
BRANCH 49 50
ATOM     50  NE  ARG C1705     -16.974 -22.062  -5.087  1.00 20.43 LIG-0.23  N 
ATOM     51  CZ  ARG C1705     -15.954 -21.505  -4.436  1.00 19.01 LIG 0.67  C 
ATOM     52  NH1 ARG C1705     -14.893 -21.034  -5.096  1.00 20.29 LIG-0.23  N 
ATOM     53  NH2 ARG C1705     -15.991 -21.422  -3.113  1.00 19.46 LIG-0.23  N 
ATOM     54 1HH1 ARG C1705     -14.862 -21.089  -5.954  1.00 20.29 LIG 0.17  HD
ATOM     55 2HH1 ARG C1705     -14.241 -20.678  -4.663  1.00 20.29 LIG 0.17  HD
ATOM     56 2HH2 ARG C1705     -15.335 -21.063  -2.687  1.00 19.46 LIG 0.17  HD
ATOM     57 1HH2 ARG C1705     -16.669 -21.726  -2.682  1.00 19.46 LIG 0.17  HD
ATOM     58 HE   ARG C1705     -17.635 -22.348  -4.618  1.00 20.43 LIG 0.18  HD
ENDBRANCH 49 50
ENDBRANCH 48 49
ENDBRANCH 47 48
ENDBRANCH 1 47
TORSDOF 24
ENDMDL
MODEL 36
USER: ADFR SOLUTION from run 21
USER: SCORE 16.019813 LL:  -3.770 LR: -14.195 RR:   0.000 FEB:  -7.036
USER: RMSD 5.815086
USER: SEED 20
USER: STATUS no improvement in best in 2 clusters for 5 generations
USER: GENES 26
USER: genes 0 Translation |==|  0.44529 0.55337 0.48368
USER: genes 1 Rotation |==|  0.45883 0.99455 0.52899 0.55367
USER: genes 2 Torsion [C]-CA--N-[C] |==|  0.74344
USER: genes 3 Torsion [N]-C--CA-[N] |==|  0.41222
USER: genes 4 Torsion [C]-CA--N-[C] |==|  0.46709
USER: genes 5 Torsion [N]-C--CA-[N] |==|  0.10152
USER: genes 6 Torsion [C]-CA--N-[C] |==|  0.16468
USER: genes 7 Torsion [N]-C--CA-[N] |==|  0.77586
USER: genes 8 Torsion [C]-CA--CB-[SG] |==|  0.18573
USER: genes 9 Torsion [CA]-CB--SG-[HG] |==|  0.26519
USER: genes 10 Torsion [N]-CA--C-[N] |==|  0.15188
USER: genes 11 Torsion [C]-N--CA-[C] |==|  0.14769
USER: genes 12 Torsion [N]-CA--C-[N] |==|  0.10822
USER: genes 13 Torsion [C]-N--CA-[CB] |==|  0.48333
USER: genes 14 Torsion [N]-CA--C-[N] |==|  0.48054
USER: genes 15 Torsion [C]-N--CA-[C] |==|  0.39994
USER: genes 16 Torsion [N]-CA--C-[O] |==|  0.84472
USER: genes 17 Torsion [N]-CA--CB-[CG] |==|  0.74922
USER: genes 18 Torsion [CA]-CB--CG-[CD] |==|  0.26823
USER: genes 19 Torsion [CB]-CG--CD-[OE2] |==|  0.50376
USER: genes 20 Torsion [N]-CA--CB-[OG] |==|  0.18888
USER: genes 21 Torsion [CA]-CB--OG-[HG] |==|  0.47359
USER: genes 22 Torsion [N]-CA--CB-[CG] |==|  0.97829
USER: genes 23 Torsion [CA]-CB--CG-[CD] |==|  0.44320
USER: genes 24 Torsion [CB]-CG--CD-[NE] |==|  0.99714
USER: genes 25 Torsion [CG]-CD--NE-[CZ] |==|  0.60847
ROOT
ATOM      1  CA  ARG C1705     -14.396 -26.601  -8.549  1.00 19.53 LIG 0.18  C 
ENDROOT
BRANCH 1 2
ATOM      2  N   ARG C1705     -15.601 -27.307  -8.993  1.00 19.64 LIG-0.35  N 
ATOM      3 H    ARG C1705     -16.325 -27.108  -8.573  1.00 19.64 LIG 0.16  HD
ATOM      4  C   ALA C1704     -15.506 -28.184  -9.986  1.00 22.93 LIG 0.24  C 
ATOM      5 O    ALA C1704     -14.421 -28.472 -10.508  1.00 21.24 LIG-0.27  OA
BRANCH 4 6
ATOM      6  CA  ALA C1704     -16.794 -28.854 -10.461  1.00 20.87 LIG 0.17  C 
ATOM      7  CB  ALA C1704     -17.108 -30.090  -9.639  1.00 18.21 LIG 0.04  C 
BRANCH 6 8
ATOM      8  N   ALA C1704     -16.774 -29.176 -11.881  1.00 22.42 LIG-0.35  N 
ATOM      9  C   CYS C1703     -17.702 -29.964 -12.413  1.00 22.90 LIG 0.24  C 
ATOM     10 O    CYS C1703     -18.661 -30.395 -11.777  1.00 23.45 LIG-0.27  OA
ATOM     11 H    ALA C1704     -16.128 -28.819 -12.323  1.00 22.42 LIG 0.16  HD
BRANCH 9 12
ATOM     12  CA  CYS C1703     -17.527 -30.316 -13.884  1.00 24.41 LIG 0.18  C 
BRANCH 12 13
ATOM     13  N   CYS C1703     -16.112 -30.490 -14.213  1.00 24.32 LIG-0.34  N 
ATOM     14  C   GLY C1702     -15.385 -31.413 -13.584  1.00 24.70 LIG 0.25  C 
ATOM     15 O    GLY C1702     -15.839 -32.098 -12.666  1.00 27.37 LIG-0.27  OA
ATOM     16 H    CYS C1703     -15.812 -29.963 -14.822  1.00 24.32 LIG 0.16  HD
BRANCH 14 17
ATOM     17  CA  GLY C1702     -13.949 -31.596 -14.043  1.00 25.50 LIG 0.47  C 
ATOM     18  N   GLY C1702     -13.851 -32.418 -15.239  1.00 32.41 LIG 0.61  N 
ENDBRANCH 14 17
ENDBRANCH 12 13
BRANCH 12 19
ATOM     19  CB  CYS C1703     -18.349 -31.565 -14.248  1.00 19.88 LIG 0.10  C 
BRANCH 19 20
ATOM     20 SG   CYS C1703     -20.142 -31.367 -14.177  1.00 23.51 LIG-0.18  SA
ATOM     21 HG   CYS C1703     -20.560 -31.106 -15.271  1.00 23.51 LIG 0.10  HD
ENDBRANCH 19 20
ENDBRANCH 12 19
ENDBRANCH 9 12
ENDBRANCH 6 8
ENDBRANCH 4 6
ENDBRANCH 1 2
BRANCH 1 22
ATOM     22  C   ARG C1705     -13.655 -27.293  -7.392  1.00 20.76 LIG 0.24  C 
ATOM     23 O    ARG C1705     -13.412 -26.677  -6.348  1.00 22.20 LIG-0.27  OA
ATOM     24  N   SER C1706     -13.303 -28.565  -7.565  1.00 20.62 LIG-0.34  N 
ATOM     25 H    SER C1706     -13.451 -29.017  -8.282  1.00 20.62 LIG 0.16  HD
BRANCH 24 26
ATOM     26  CA  SER C1706     -12.618 -29.300  -6.507  1.00 20.36 LIG 0.20  C 
BRANCH 26 27
ATOM     27  C   SER C1706     -13.385 -29.221  -5.191  1.00 23.85 LIG 0.24  C 
ATOM     28 O    SER C1706     -12.786 -29.112  -4.121  1.00 24.92 LIG-0.27  OA
ATOM     29  N   GLU C1707     -14.708 -29.291  -5.273  1.00 21.35 LIG-0.35  N 
ATOM     30 H    GLU C1707     -15.143 -29.337  -6.014  1.00 21.35 LIG 0.16  HD
BRANCH 29 31
ATOM     31  CA  GLU C1707     -15.547 -29.293  -4.075  1.00 28.80 LIG 0.18  C 
BRANCH 31 32
ATOM     32  C   GLU C1707     -15.286 -30.544  -3.250  1.00 29.29 LIG 0.24  C 
ATOM     33 O    GLU C1707     -14.562 -31.443  -3.683  1.00 32.31 LIG-0.27  OA
ATOM     34  N   GLY C1708     -15.883 -30.594  -2.062  1.00 26.36 LIG-0.35  N 
ATOM     35 H    GLY C1708     -16.411 -29.984  -1.766  1.00 26.36 LIG 0.16  HD
BRANCH 34 36
ATOM     36  CA  GLY C1708     -15.688 -31.706  -1.153  1.00 26.05 LIG 0.21  C 
BRANCH 36 37
ATOM     37  C   GLY C1708     -15.660 -31.287   0.302  1.00 34.75 LIG 0.21  C 
ATOM     38 O    GLY C1708     -14.867 -30.439   0.698  1.00 36.48 LIG-0.29  OA
ENDBRANCH 36 37
ENDBRANCH 34 36
ENDBRANCH 31 32
BRANCH 31 39
ATOM     39  CB  GLU C1707     -17.035 -29.230  -4.435  1.00 30.33 LIG 0.04  C 
BRANCH 39 40
ATOM     40  CG  GLU C1707     -17.595 -27.822  -4.538  1.00 34.25 LIG 0.12  C 
BRANCH 40 41
ATOM     41  CD  GLU C1707     -17.628 -27.305  -5.968  1.00 39.35 LIG 0.17  C 
ATOM     42 OE2  GLU C1707     -18.047 -26.145  -6.171  1.00 42.40 LIG-0.65  OA
ATOM     43 OE1  GLU C1707     -17.237 -28.060  -6.887  1.00 45.84 LIG-0.65  OA
ENDBRANCH 40 41
ENDBRANCH 39 40
ENDBRANCH 31 39
ENDBRANCH 29 31
ENDBRANCH 26 27
BRANCH 26 44
ATOM     44  CB  SER C1706     -11.181 -28.798  -6.324  1.00 19.38 LIG 0.20  C 
BRANCH 44 45
ATOM     45 OG   SER C1706     -11.151 -27.476  -5.800  1.00 20.52 LIG-0.40  OA
ATOM     46 HG   SER C1706     -10.364 -27.276  -5.588  1.00 20.52 LIG 0.21  HD
ENDBRANCH 44 45
ENDBRANCH 26 44
ENDBRANCH 24 26
ENDBRANCH 1 22
BRANCH 1 47
ATOM     47  CB  ARG C1705     -14.696 -25.135  -8.208  1.00 21.30 LIG 0.04  C 
BRANCH 47 48
ATOM     48  CG  ARG C1705     -16.117 -24.718  -8.592  1.00 23.17 LIG 0.02  C 
BRANCH 48 49
ATOM     49  CD  ARG C1705     -16.596 -23.474  -7.839  1.00 21.38 LIG 0.14  C 
BRANCH 49 50
ATOM     50  NE  ARG C1705     -15.594 -22.969  -6.896  1.00 20.43 LIG-0.23  N 
ATOM     51  CZ  ARG C1705     -15.860 -22.481  -5.686  1.00 19.01 LIG 0.67  C 
ATOM     52  NH1 ARG C1705     -17.114 -22.420  -5.231  1.00 20.29 LIG-0.23  N 
ATOM     53  NH2 ARG C1705     -14.866 -22.045  -4.924  1.00 19.46 LIG-0.23  N 
ATOM     54 1HH1 ARG C1705     -17.763 -22.697  -5.721  1.00 20.29 LIG 0.17  HD
ATOM     55 2HH1 ARG C1705     -17.271 -22.102  -4.448  1.00 20.29 LIG 0.17  HD
ATOM     56 2HH2 ARG C1705     -15.031 -21.729  -4.141  1.00 19.46 LIG 0.17  HD
ATOM     57 1HH2 ARG C1705     -14.056 -22.079  -5.212  1.00 19.46 LIG 0.17  HD
ATOM     58 HE   ARG C1705     -14.771 -22.989  -7.143  1.00 20.43 LIG 0.18  HD
ENDBRANCH 49 50
ENDBRANCH 48 49
ENDBRANCH 47 48
ENDBRANCH 1 47
TORSDOF 24
ENDMDL
MODEL 37
USER: ADFR SOLUTION from run 170
USER: SCORE 14.691849 LL:  -3.458 LR: -14.168 RR:   0.000 FEB:  -7.009
USER: RMSD 6.454775
USER: SEED 169
USER: STATUS no improvement in best in 6 clusters for 5 generations
USER: GENES 26
USER: genes 0 Translation |==|  0.42777 0.50029 0.42884
USER: genes 1 Rotation |==|  0.65755 0.14278 0.63310 0.78259
USER: genes 2 Torsion [C]-CA--N-[C] |==|  0.64749
USER: genes 3 Torsion [N]-C--CA-[N] |==|  0.87829
USER: genes 4 Torsion [C]-CA--N-[C] |==|  0.19164
USER: genes 5 Torsion [N]-C--CA-[N] |==|  0.04598
USER: genes 6 Torsion [C]-CA--N-[C] |==|  0.17473
USER: genes 7 Torsion [N]-C--CA-[N] |==|  0.53206
USER: genes 8 Torsion [C]-CA--CB-[SG] |==|  0.40305
USER: genes 9 Torsion [CA]-CB--SG-[HG] |==|  0.35892
USER: genes 10 Torsion [N]-CA--C-[N] |==|  0.09106
USER: genes 11 Torsion [C]-N--CA-[C] |==|  0.66203
USER: genes 12 Torsion [N]-CA--C-[N] |==|  0.41073
USER: genes 13 Torsion [C]-N--CA-[CB] |==|  0.79925
USER: genes 14 Torsion [N]-CA--C-[N] |==|  0.68450
USER: genes 15 Torsion [C]-N--CA-[C] |==|  0.26146
USER: genes 16 Torsion [N]-CA--C-[O] |==|  0.91436
USER: genes 17 Torsion [N]-CA--CB-[CG] |==|  0.67398
USER: genes 18 Torsion [CA]-CB--CG-[CD] |==|  0.86650
USER: genes 19 Torsion [CB]-CG--CD-[OE2] |==|  0.61681
USER: genes 20 Torsion [N]-CA--CB-[OG] |==|  0.72263
USER: genes 21 Torsion [CA]-CB--OG-[HG] |==|  0.27814
USER: genes 22 Torsion [N]-CA--CB-[CG] |==|  0.23166
USER: genes 23 Torsion [CA]-CB--CG-[CD] |==|  0.73539
USER: genes 24 Torsion [CB]-CG--CD-[NE] |==|  0.55490
USER: genes 25 Torsion [CG]-CD--NE-[CZ] |==|  0.34832
ROOT
ATOM      1  CA  ARG C1705     -14.711 -27.795  -9.536  1.00 19.53 LIG 0.18  C 
ENDROOT
BRANCH 1 2
ATOM      2  N   ARG C1705     -14.600 -28.413  -8.211  1.00 19.64 LIG-0.35  N 
ATOM      3 H    ARG C1705     -14.181 -27.951  -7.619  1.00 19.64 LIG 0.16  HD
ATOM      4  C   ALA C1704     -15.136 -29.612  -8.012  1.00 22.93 LIG 0.24  C 
ATOM      5 O    ALA C1704     -15.673 -30.253  -8.925  1.00 21.24 LIG-0.27  OA
BRANCH 4 6
ATOM      6  CA  ALA C1704     -15.053 -30.197  -6.602  1.00 20.87 LIG 0.17  C 
ATOM      7  CB  ALA C1704     -16.139 -29.632  -5.708  1.00 18.21 LIG 0.04  C 
BRANCH 6 8
ATOM      8  N   ALA C1704     -13.743 -30.019  -5.992  1.00 22.42 LIG-0.35  N 
ATOM      9  C   CYS C1703     -13.316 -28.811  -5.639  1.00 22.90 LIG 0.24  C 
ATOM     10 O    CYS C1703     -14.011 -27.801  -5.725  1.00 23.45 LIG-0.27  OA
ATOM     11 H    ALA C1704     -13.293 -30.744  -5.887  1.00 22.42 LIG 0.16  HD
BRANCH 9 12
ATOM     12  CA  CYS C1703     -11.892 -28.728  -5.105  1.00 24.41 LIG 0.18  C 
BRANCH 12 13
ATOM     13  N   CYS C1703     -11.137 -29.934  -5.446  1.00 24.32 LIG-0.34  N 
ATOM     14  C   GLY C1702     -10.909 -30.246  -6.721  1.00 24.70 LIG 0.25  C 
ATOM     15 O    GLY C1702     -11.374 -29.590  -7.654  1.00 27.37 LIG-0.27  OA
ATOM     16 H    CYS C1703     -10.869 -30.398  -4.773  1.00 24.32 LIG 0.16  HD
BRANCH 14 17
ATOM     17  CA  GLY C1702     -10.042 -31.463  -6.992  1.00 25.50 LIG 0.47  C 
ATOM     18  N   GLY C1702      -9.639 -31.555  -8.387  1.00 32.41 LIG 0.61  N 
ENDBRANCH 14 17
ENDBRANCH 12 13
BRANCH 12 19
ATOM     19  CB  CYS C1703     -11.190 -27.458  -5.619  1.00 19.88 LIG 0.10  C 
BRANCH 19 20
ATOM     20 SG   CYS C1703     -10.036 -26.684  -4.466  1.00 23.51 LIG-0.18  SA
ATOM     21 HG   CYS C1703      -8.986 -26.496  -5.016  1.00 23.51 LIG 0.10  HD
ENDBRANCH 19 20
ENDBRANCH 12 19
ENDBRANCH 9 12
ENDBRANCH 6 8
ENDBRANCH 4 6
ENDBRANCH 1 2
BRANCH 1 22
ATOM     22  C   ARG C1705     -13.368 -27.341 -10.130  1.00 20.76 LIG 0.24  C 
ATOM     23 O    ARG C1705     -13.310 -26.339 -10.852  1.00 22.20 LIG-0.27  OA
ATOM     24  N   SER C1706     -12.290 -28.062  -9.828  1.00 20.62 LIG-0.34  N 
ATOM     25 H    SER C1706     -12.300 -28.768  -9.336  1.00 20.62 LIG 0.16  HD
BRANCH 24 26
ATOM     26  CA  SER C1706     -10.974 -27.685 -10.333  1.00 20.36 LIG 0.20  C 
BRANCH 26 27
ATOM     27  C   SER C1706     -10.353 -28.809 -11.156  1.00 23.85 LIG 0.24  C 
ATOM     28 O    SER C1706     -10.577 -29.987 -10.877  1.00 24.92 LIG-0.27  OA
ATOM     29  N   GLU C1707      -9.566 -28.442 -12.159  1.00 21.35 LIG-0.35  N 
ATOM     30 H    GLU C1707      -9.424 -27.624 -12.385  1.00 21.35 LIG 0.16  HD
BRANCH 29 31
ATOM     31  CA  GLU C1707      -8.862 -29.429 -12.977  1.00 28.80 LIG 0.18  C 
BRANCH 31 32
ATOM     32  C   GLU C1707      -9.823 -30.514 -13.438  1.00 29.29 LIG 0.24  C 
ATOM     33 O    GLU C1707     -10.741 -30.252 -14.219  1.00 32.31 LIG-0.27  OA
ATOM     34  N   GLY C1708      -9.608 -31.732 -12.947  1.00 26.36 LIG-0.35  N 
ATOM     35 H    GLY C1708      -8.987 -31.916 -12.381  1.00 26.36 LIG 0.16  HD
BRANCH 34 36
ATOM     36  CA  GLY C1708     -10.418 -32.869 -13.335  1.00 26.05 LIG 0.21  C 
BRANCH 36 37
ATOM     37  C   GLY C1708      -9.823 -33.662 -14.480  1.00 34.75 LIG 0.21  C 
ATOM     38 O    GLY C1708      -9.140 -33.114 -15.338  1.00 36.48 LIG-0.29  OA
ENDBRANCH 36 37
ENDBRANCH 34 36
ENDBRANCH 31 32
BRANCH 31 39
ATOM     39  CB  GLU C1707      -7.708 -30.075 -12.204  1.00 30.33 LIG 0.04  C 
BRANCH 39 40
ATOM     40  CG  GLU C1707      -6.335 -29.819 -12.800  1.00 34.25 LIG 0.12  C 
BRANCH 40 41
ATOM     41  CD  GLU C1707      -6.286 -30.074 -14.298  1.00 39.35 LIG 0.17  C 
ATOM     42 OE2  GLU C1707      -5.291 -30.668 -14.767  1.00 42.40 LIG-0.65  OA
ATOM     43 OE1  GLU C1707      -7.240 -29.678 -15.005  1.00 45.84 LIG-0.65  OA
ENDBRANCH 40 41
ENDBRANCH 39 40
ENDBRANCH 31 39
ENDBRANCH 29 31
ENDBRANCH 26 27
BRANCH 26 44
ATOM     44  CB  SER C1706     -10.038 -27.273  -9.191  1.00 19.38 LIG 0.20  C 
BRANCH 44 45
ATOM     45 OG   SER C1706      -9.953 -25.858  -9.069  1.00 20.52 LIG-0.40  OA
ATOM     46 HG   SER C1706     -10.449 -25.601  -8.443  1.00 20.52 LIG 0.21  HD
ENDBRANCH 44 45
ENDBRANCH 26 44
ENDBRANCH 24 26
ENDBRANCH 1 22
BRANCH 1 47
ATOM     47  CB  ARG C1705     -15.727 -26.645  -9.536  1.00 21.30 LIG 0.04  C 
BRANCH 47 48
ATOM     48  CG  ARG C1705     -15.128 -25.327  -9.044  1.00 23.17 LIG 0.02  C 
BRANCH 48 49
ATOM     49  CD  ARG C1705     -15.376 -25.078  -7.555  1.00 21.38 LIG 0.14  C 
BRANCH 49 50
ATOM     50  NE  ARG C1705     -15.229 -23.667  -7.189  1.00 20.43 LIG-0.23  N 
ATOM     51  CZ  ARG C1705     -16.152 -22.938  -6.564  1.00 19.01 LIG 0.67  C 
ATOM     52  NH1 ARG C1705     -17.324 -23.471  -6.211  1.00 20.29 LIG-0.23  N 
ATOM     53  NH2 ARG C1705     -15.904 -21.664  -6.292  1.00 19.46 LIG-0.23  N 
ATOM     54 1HH1 ARG C1705     -17.492 -24.296  -6.387  1.00 20.29 LIG 0.17  HD
ATOM     55 2HH1 ARG C1705     -17.911 -22.988  -5.808  1.00 20.29 LIG 0.17  HD
ATOM     56 2HH2 ARG C1705     -16.496 -21.188  -5.889  1.00 19.46 LIG 0.17  HD
ATOM     57 1HH2 ARG C1705     -15.153 -21.313  -6.520  1.00 19.46 LIG 0.17  HD
ATOM     58 HE   ARG C1705     -14.489 -23.279  -7.394  1.00 20.43 LIG 0.18  HD
ENDBRANCH 49 50
ENDBRANCH 48 49
ENDBRANCH 47 48
ENDBRANCH 1 47
TORSDOF 24
ENDMDL
MODEL 38
USER: ADFR SOLUTION from run 80
USER: SCORE 16.197425 LL:  -3.124 LR: -14.095 RR:   0.000 FEB:  -6.936
USER: RMSD 7.239272
USER: SEED 79
USER: STATUS searching
USER: GENES 26
USER: genes 0 Translation |==|  0.46126 0.56378 0.47253
USER: genes 1 Rotation |==|  0.59567 0.17383 0.59016 0.85543
USER: genes 2 Torsion [C]-CA--N-[C] |==|  0.69860
USER: genes 3 Torsion [N]-C--CA-[N] |==|  0.47173
USER: genes 4 Torsion [C]-CA--N-[C] |==|  0.66802
USER: genes 5 Torsion [N]-C--CA-[N] |==|  0.39959
USER: genes 6 Torsion [C]-CA--N-[C] |==|  0.72070
USER: genes 7 Torsion [N]-C--CA-[N] |==|  0.61645
USER: genes 8 Torsion [C]-CA--CB-[SG] |==|  0.57813
USER: genes 9 Torsion [CA]-CB--SG-[HG] |==|  0.33196
USER: genes 10 Torsion [N]-CA--C-[N] |==|  0.04381
USER: genes 11 Torsion [C]-N--CA-[C] |==|  0.69757
USER: genes 12 Torsion [N]-CA--C-[N] |==|  0.41607
USER: genes 13 Torsion [C]-N--CA-[CB] |==|  0.79323
USER: genes 14 Torsion [N]-CA--C-[N] |==|  0.20018
USER: genes 15 Torsion [C]-N--CA-[C] |==|  0.32357
USER: genes 16 Torsion [N]-CA--C-[O] |==|  0.04599
USER: genes 17 Torsion [N]-CA--CB-[CG] |==|  0.63561
USER: genes 18 Torsion [CA]-CB--CG-[CD] |==|  0.19031
USER: genes 19 Torsion [CB]-CG--CD-[OE2] |==|  0.17898
USER: genes 20 Torsion [N]-CA--CB-[OG] |==|  0.88299
USER: genes 21 Torsion [CA]-CB--OG-[HG] |==|  0.02034
USER: genes 22 Torsion [N]-CA--CB-[CG] |==|  0.87484
USER: genes 23 Torsion [CA]-CB--CG-[CD] |==|  0.52185
USER: genes 24 Torsion [CB]-CG--CD-[NE] |==|  0.55942
USER: genes 25 Torsion [CG]-CD--NE-[CZ] |==|  0.24074
ROOT
ATOM      1  CA  ARG C1705     -14.108 -26.367  -8.750  1.00 19.53 LIG 0.18  C 
ENDROOT
BRANCH 1 2
ATOM      2  N   ARG C1705     -13.809 -26.856  -7.401  1.00 19.64 LIG-0.35  N 
ATOM      3 H    ARG C1705     -13.301 -26.350  -6.925  1.00 19.64 LIG 0.16  HD
ATOM      4  C   ALA C1704     -14.324 -28.015  -7.006  1.00 22.93 LIG 0.24  C 
ATOM      5 O    ALA C1704     -14.999 -28.726  -7.761  1.00 21.24 LIG-0.27  OA
BRANCH 4 6
ATOM      6  CA  ALA C1704     -14.040 -28.461  -5.572  1.00 20.87 LIG 0.17  C 
ATOM      7  CB  ALA C1704     -12.563 -28.734  -5.363  1.00 18.21 LIG 0.04  C 
BRANCH 6 8
ATOM      8  N   ALA C1704     -14.835 -29.612  -5.170  1.00 22.42 LIG-0.35  N 
ATOM      9  C   CYS C1703     -15.676 -29.533  -4.144  1.00 22.90 LIG 0.24  C 
ATOM     10 O    CYS C1703     -15.894 -28.488  -3.535  1.00 23.45 LIG-0.27  OA
ATOM     11 H    ALA C1704     -14.711 -30.320  -5.643  1.00 22.42 LIG 0.16  HD
BRANCH 9 12
ATOM     12  CA  CYS C1703     -16.380 -30.823  -3.746  1.00 24.41 LIG 0.18  C 
BRANCH 12 13
ATOM     13  N   CYS C1703     -16.545 -30.900  -2.294  1.00 24.32 LIG-0.34  N 
ATOM     14  C   GLY C1702     -15.715 -31.641  -1.562  1.00 24.70 LIG 0.25  C 
ATOM     15 O    GLY C1702     -14.834 -32.340  -2.067  1.00 27.37 LIG-0.27  OA
ATOM     16 H    CYS C1703     -17.199 -30.441  -1.978  1.00 24.32 LIG 0.16  HD
BRANCH 14 17
ATOM     17  CA  GLY C1702     -15.893 -31.598  -0.055  1.00 25.50 LIG 0.47  C 
ATOM     18  N   GLY C1702     -14.623 -31.533   0.651  1.00 32.41 LIG 0.61  N 
ENDBRANCH 14 17
ENDBRANCH 12 13
BRANCH 12 19
ATOM     19  CB  CYS C1703     -17.729 -30.956  -4.475  1.00 19.88 LIG 0.10  C 
BRANCH 19 20
ATOM     20 SG   CYS C1703     -18.993 -31.911  -3.609  1.00 23.51 LIG-0.18  SA
ATOM     21 HG   CYS C1703     -19.946 -31.213  -3.398  1.00 23.51 LIG 0.10  HD
ENDBRANCH 19 20
ENDBRANCH 12 19
ENDBRANCH 9 12
ENDBRANCH 6 8
ENDBRANCH 4 6
ENDBRANCH 1 2
BRANCH 1 22
ATOM     22  C   ARG C1705     -12.916 -26.432  -9.719  1.00 20.76 LIG 0.24  C 
ATOM     23 O    ARG C1705     -12.933 -25.792 -10.776  1.00 22.20 LIG-0.27  OA
ATOM     24  N   SER C1706     -11.881 -27.191  -9.364  1.00 20.62 LIG-0.34  N 
ATOM     25 H    SER C1706     -11.843 -27.654  -8.640  1.00 20.62 LIG 0.16  HD
BRANCH 24 26
ATOM     26  CA  SER C1706     -10.701 -27.289 -10.217  1.00 20.36 LIG 0.20  C 
BRANCH 26 27
ATOM     27  C   SER C1706     -10.608 -28.660 -10.879  1.00 23.85 LIG 0.24  C 
ATOM     28 O    SER C1706     -11.048 -29.661 -10.313  1.00 24.92 LIG-0.27  OA
ATOM     29  N   GLU C1707     -10.024 -28.703 -12.070  1.00 21.35 LIG-0.35  N 
ATOM     30 H    GLU C1707      -9.738 -28.009 -12.492  1.00 21.35 LIG 0.16  HD
BRANCH 29 31
ATOM     31  CA  GLU C1707      -9.816 -29.968 -12.773  1.00 28.80 LIG 0.18  C 
BRANCH 31 32
ATOM     32  C   GLU C1707     -11.090 -30.800 -12.749  1.00 29.29 LIG 0.24  C 
ATOM     33 O    GLU C1707     -11.167 -31.812 -12.048  1.00 32.31 LIG-0.27  OA
ATOM     34  N   GLY C1708     -12.084 -30.369 -13.520  1.00 26.36 LIG-0.35  N 
ATOM     35 H    GLY C1708     -12.027 -29.681 -14.033  1.00 26.36 LIG 0.16  HD
BRANCH 34 36
ATOM     36  CA  GLY C1708     -13.369 -31.039 -13.561  1.00 26.05 LIG 0.21  C 
BRANCH 36 37
ATOM     37  C   GLY C1708     -14.507 -30.174 -13.063  1.00 34.75 LIG 0.21  C 
ATOM     38 O    GLY C1708     -14.377 -28.958 -12.961  1.00 36.48 LIG-0.29  OA
ENDBRANCH 36 37
ENDBRANCH 34 36
ENDBRANCH 31 32
BRANCH 31 39
ATOM     39  CB  GLU C1707      -8.677 -30.777 -12.146  1.00 30.33 LIG 0.04  C 
BRANCH 39 40
ATOM     40  CG  GLU C1707      -7.658 -31.300 -13.144  1.00 34.25 LIG 0.12  C 
BRANCH 40 41
ATOM     41  CD  GLU C1707      -6.828 -30.192 -13.774  1.00 39.35 LIG 0.17  C 
ATOM     42 OE2  GLU C1707      -6.073 -29.523 -13.036  1.00 42.40 LIG-0.65  OA
ATOM     43 OE1  GLU C1707      -6.935 -29.990 -15.005  1.00 45.84 LIG-0.65  OA
ENDBRANCH 40 41
ENDBRANCH 39 40
ENDBRANCH 31 39
ENDBRANCH 29 31
ENDBRANCH 26 27
BRANCH 26 44
ATOM     44  CB  SER C1706      -9.421 -26.982  -9.432  1.00 19.38 LIG 0.20  C 
BRANCH 44 45
ATOM     45 OG   SER C1706      -9.596 -25.871  -8.560  1.00 20.52 LIG-0.40  OA
ATOM     46 HG   SER C1706     -10.403 -25.641  -8.558  1.00 20.52 LIG 0.21  HD
ENDBRANCH 44 45
ENDBRANCH 26 44
ENDBRANCH 24 26
ENDBRANCH 1 22
BRANCH 1 47
ATOM     47  CB  ARG C1705     -14.710 -24.955  -8.715  1.00 21.30 LIG 0.04  C 
BRANCH 47 48
ATOM     48  CG  ARG C1705     -15.793 -24.800  -7.647  1.00 23.17 LIG 0.02  C 
BRANCH 48 49
ATOM     49  CD  ARG C1705     -16.528 -23.460  -7.734  1.00 21.38 LIG 0.14  C 
BRANCH 49 50
ATOM     50  NE  ARG C1705     -17.180 -23.095  -6.473  1.00 20.43 LIG-0.23  N 
ATOM     51  CZ  ARG C1705     -16.595 -22.441  -5.470  1.00 19.01 LIG 0.67  C 
ATOM     52  NH1 ARG C1705     -15.319 -22.057  -5.553  1.00 20.29 LIG-0.23  N 
ATOM     53  NH2 ARG C1705     -17.289 -22.173  -4.373  1.00 19.46 LIG-0.23  N 
ATOM     54 1HH1 ARG C1705     -14.863 -22.230  -6.261  1.00 20.29 LIG 0.17  HD
ATOM     55 2HH1 ARG C1705     -14.954 -21.636  -4.898  1.00 20.29 LIG 0.17  HD
ATOM     56 2HH2 ARG C1705     -16.917 -21.751  -3.722  1.00 19.46 LIG 0.17  HD
ATOM     57 1HH2 ARG C1705     -18.110 -22.421  -4.311  1.00 19.46 LIG 0.17  HD
ATOM     58 HE   ARG C1705     -18.003 -23.320  -6.372  1.00 20.43 LIG 0.18  HD
ENDBRANCH 49 50
ENDBRANCH 48 49
ENDBRANCH 47 48
ENDBRANCH 1 47
TORSDOF 24
ENDMDL
MODEL 39
USER: ADFR SOLUTION from run 85
USER: SCORE 16.864252 LL:  -4.070 LR: -14.089 RR:   0.000 FEB:  -6.930
USER: RMSD 5.897805
USER: SEED 84
USER: STATUS searching
USER: GENES 26
USER: genes 0 Translation |==|  0.40150 0.46551 0.41334
USER: genes 1 Rotation |==|  0.05271 0.55501 0.46219 0.71325
USER: genes 2 Torsion [C]-CA--N-[C] |==|  0.71645
USER: genes 3 Torsion [N]-C--CA-[N] |==|  0.87911
USER: genes 4 Torsion [C]-CA--N-[C] |==|  0.85398
USER: genes 5 Torsion [N]-C--CA-[N] |==|  0.00690
USER: genes 6 Torsion [C]-CA--N-[C] |==|  0.70385
USER: genes 7 Torsion [N]-C--CA-[N] |==|  0.74280
USER: genes 8 Torsion [C]-CA--CB-[SG] |==|  0.88095
USER: genes 9 Torsion [CA]-CB--SG-[HG] |==|  0.93080
USER: genes 10 Torsion [N]-CA--C-[N] |==|  0.04561
USER: genes 11 Torsion [C]-N--CA-[C] |==|  0.18342
USER: genes 12 Torsion [N]-CA--C-[N] |==|  0.66900
USER: genes 13 Torsion [C]-N--CA-[CB] |==|  0.88301
USER: genes 14 Torsion [N]-CA--C-[N] |==|  0.87538
USER: genes 15 Torsion [C]-N--CA-[C] |==|  0.52251
USER: genes 16 Torsion [N]-CA--C-[O] |==|  0.03747
USER: genes 17 Torsion [N]-CA--CB-[CG] |==|  0.84376
USER: genes 18 Torsion [CA]-CB--CG-[CD] |==|  0.67838
USER: genes 19 Torsion [CB]-CG--CD-[OE2] |==|  0.45127
USER: genes 20 Torsion [N]-CA--CB-[OG] |==|  0.61490
USER: genes 21 Torsion [CA]-CB--OG-[HG] |==|  0.98196
USER: genes 22 Torsion [N]-CA--CB-[CG] |==|  0.56335
USER: genes 23 Torsion [CA]-CB--CG-[CD] |==|  0.61249
USER: genes 24 Torsion [CB]-CG--CD-[NE] |==|  0.57095
USER: genes 25 Torsion [CG]-CD--NE-[CZ] |==|  0.60806
ROOT
ATOM      1  CA  ARG C1705     -15.184 -28.578  -9.815  1.00 19.53 LIG 0.18  C 
ENDROOT
BRANCH 1 2
ATOM      2  N   ARG C1705     -13.776 -28.546  -9.409  1.00 19.64 LIG-0.35  N 
ATOM      3 H    ARG C1705     -13.428 -29.307  -9.212  1.00 19.64 LIG 0.16  HD
ATOM      4  C   ALA C1704     -13.143 -27.378  -9.369  1.00 22.93 LIG 0.24  C 
ATOM      5 O    ALA C1704     -13.720 -26.309  -9.606  1.00 21.24 LIG-0.27  OA
BRANCH 4 6
ATOM      6  CA  ALA C1704     -11.660 -27.392  -9.001  1.00 20.87 LIG 0.17  C 
ATOM      7  CB  ALA C1704     -10.798 -27.741 -10.198  1.00 18.21 LIG 0.04  C 
BRANCH 6 8
ATOM      8  N   ALA C1704     -11.364 -28.275  -7.882  1.00 22.42 LIG-0.35  N 
ATOM      9  C   CYS C1703     -12.034 -28.173  -6.739  1.00 22.90 LIG 0.24  C 
ATOM     10 O    CYS C1703     -12.978 -27.403  -6.581  1.00 23.45 LIG-0.27  OA
ATOM     11 H    ALA C1704     -10.737 -28.846  -8.029  1.00 22.42 LIG 0.16  HD
BRANCH 9 12
ATOM     12  CA  CYS C1703     -11.572 -29.076  -5.603  1.00 24.41 LIG 0.18  C 
BRANCH 12 13
ATOM     13  N   CYS C1703     -10.404 -29.861  -6.003  1.00 24.32 LIG-0.34  N 
ATOM     14  C   GLY C1702     -10.525 -31.163  -6.257  1.00 24.70 LIG 0.25  C 
ATOM     15 O    GLY C1702     -11.585 -31.771  -6.100  1.00 27.37 LIG-0.27  OA
ATOM     16 H    CYS C1703      -9.669 -29.418  -6.055  1.00 24.32 LIG 0.16  HD
BRANCH 14 17
ATOM     17  CA  GLY C1702      -9.288 -31.889  -6.755  1.00 25.50 LIG 0.47  C 
ATOM     18  N   GLY C1702      -9.215 -31.926  -8.208  1.00 32.41 LIG 0.61  N 
ENDBRANCH 14 17
ENDBRANCH 12 13
BRANCH 12 19
ATOM     19  CB  CYS C1703     -11.292 -28.254  -4.332  1.00 19.88 LIG 0.10  C 
BRANCH 19 20
ATOM     20 SG   CYS C1703     -10.402 -26.704  -4.586  1.00 23.51 LIG-0.18  SA
ATOM     21 HG   CYS C1703      -9.756 -26.775  -5.595  1.00 23.51 LIG 0.10  HD
ENDBRANCH 19 20
ENDBRANCH 12 19
ENDBRANCH 9 12
ENDBRANCH 6 8
ENDBRANCH 4 6
ENDBRANCH 1 2
BRANCH 1 22
ATOM     22  C   ARG C1705     -16.171 -28.721  -8.644  1.00 20.76 LIG 0.24  C 
ATOM     23 O    ARG C1705     -17.340 -29.068  -8.849  1.00 22.20 LIG-0.27  OA
ATOM     24  N   SER C1706     -15.710 -28.464  -7.422  1.00 20.62 LIG-0.34  N 
ATOM     25 H    SER C1706     -14.906 -28.213  -7.248  1.00 20.62 LIG 0.16  HD
BRANCH 24 26
ATOM     26  CA  SER C1706     -16.576 -28.598  -6.255  1.00 20.36 LIG 0.20  C 
BRANCH 26 27
ATOM     27  C   SER C1706     -16.981 -30.051  -6.029  1.00 23.85 LIG 0.24  C 
ATOM     28 O    SER C1706     -16.128 -30.914  -5.823  1.00 24.92 LIG-0.27  OA
ATOM     29  N   GLU C1707     -18.280 -30.317  -6.081  1.00 21.35 LIG-0.35  N 
ATOM     30 H    GLU C1707     -18.890 -29.721  -6.194  1.00 21.35 LIG 0.16  HD
BRANCH 29 31
ATOM     31  CA  GLU C1707     -18.785 -31.683  -5.946  1.00 28.80 LIG 0.18  C 
BRANCH 31 32
ATOM     32  C   GLU C1707     -18.808 -32.095  -4.481  1.00 29.29 LIG 0.24  C 
ATOM     33 O    GLU C1707     -19.788 -32.672  -4.006  1.00 32.31 LIG-0.27  OA
ATOM     34  N   GLY C1708     -17.724 -31.791  -3.772  1.00 26.36 LIG-0.35  N 
ATOM     35 H    GLY C1708     -17.049 -31.364  -4.091  1.00 26.36 LIG 0.16  HD
BRANCH 34 36
ATOM     36  CA  GLY C1708     -17.591 -32.163  -2.377  1.00 26.05 LIG 0.21  C 
BRANCH 36 37
ATOM     37  C   GLY C1708     -16.375 -31.554  -1.713  1.00 34.75 LIG 0.21  C 
ATOM     38 O    GLY C1708     -15.752 -30.644  -2.250  1.00 36.48 LIG-0.29  OA
ENDBRANCH 36 37
ENDBRANCH 34 36
ENDBRANCH 31 32
BRANCH 31 39
ATOM     39  CB  GLU C1707     -17.926 -32.677  -6.733  1.00 30.33 LIG 0.04  C 
BRANCH 39 40
ATOM     40  CG  GLU C1707     -17.788 -32.353  -8.210  1.00 34.25 LIG 0.12  C 
BRANCH 40 41
ATOM     41  CD  GLU C1707     -18.412 -33.413  -9.106  1.00 39.35 LIG 0.17  C 
ATOM     42 OE2  GLU C1707     -18.661 -33.114 -10.294  1.00 42.40 LIG-0.65  OA
ATOM     43 OE1  GLU C1707     -18.654 -34.541  -8.621  1.00 45.84 LIG-0.65  OA
ENDBRANCH 40 41
ENDBRANCH 39 40
ENDBRANCH 31 39
ENDBRANCH 29 31
ENDBRANCH 26 27
BRANCH 26 44
ATOM     44  CB  SER C1706     -17.817 -27.706  -6.379  1.00 19.38 LIG 0.20  C 
BRANCH 44 45
ATOM     45 OG   SER C1706     -18.131 -27.071  -5.145  1.00 20.52 LIG-0.40  OA
ATOM     46 HG   SER C1706     -17.629 -27.369  -4.541  1.00 20.52 LIG 0.21  HD
ENDBRANCH 44 45
ENDBRANCH 26 44
ENDBRANCH 24 26
ENDBRANCH 1 22
BRANCH 1 47
ATOM     47  CB  ARG C1705     -15.437 -29.655 -10.879  1.00 21.30 LIG 0.04  C 
BRANCH 47 48
ATOM     48  CG  ARG C1705     -16.688 -29.377 -11.715  1.00 23.17 LIG 0.02  C 
BRANCH 48 49
ATOM     49  CD  ARG C1705     -17.505 -30.639 -12.002  1.00 21.38 LIG 0.14  C 
BRANCH 49 50
ATOM     50  NE  ARG C1705     -18.305 -30.523 -13.224  1.00 20.43 LIG-0.23  N 
ATOM     51  CZ  ARG C1705     -19.542 -30.993 -13.377  1.00 19.01 LIG 0.67  C 
ATOM     52  NH1 ARG C1705     -20.163 -31.628 -12.380  1.00 20.29 LIG-0.23  N 
ATOM     53  NH2 ARG C1705     -20.164 -30.832 -14.537  1.00 19.46 LIG-0.23  N 
ATOM     54 1HH1 ARG C1705     -19.763 -31.738 -11.626  1.00 20.29 LIG 0.17  HD
ATOM     55 2HH1 ARG C1705     -20.961 -31.927 -12.492  1.00 20.29 LIG 0.17  HD
ATOM     56 2HH2 ARG C1705     -20.962 -31.133 -14.642  1.00 19.46 LIG 0.17  HD
ATOM     57 1HH2 ARG C1705     -19.768 -30.427 -15.185  1.00 19.46 LIG 0.17  HD
ATOM     58 HE   ARG C1705     -17.949 -30.120 -13.895  1.00 20.43 LIG 0.18  HD
ENDBRANCH 49 50
ENDBRANCH 48 49
ENDBRANCH 47 48
ENDBRANCH 1 47
TORSDOF 24
ENDMDL
MODEL 40
USER: ADFR SOLUTION from run 159
USER: SCORE 15.681901 LL:  -2.921 LR: -14.093 RR:   0.000 FEB:  -6.934
USER: RMSD 7.908558
USER: SEED 158
USER: STATUS no improvement in best in 4 clusters for 5 generations
USER: GENES 26
USER: genes 0 Translation |==|  0.38979 0.50383 0.42941
USER: genes 1 Rotation |==|  0.75662 0.14675 0.27472 0.59280
USER: genes 2 Torsion [C]-CA--N-[C] |==|  0.83126
USER: genes 3 Torsion [N]-C--CA-[N] |==|  0.09235
USER: genes 4 Torsion [C]-CA--N-[C] |==|  0.63929
USER: genes 5 Torsion [N]-C--CA-[N] |==|  0.12102
USER: genes 6 Torsion [C]-CA--N-[C] |==|  0.15005
USER: genes 7 Torsion [N]-C--CA-[N] |==|  0.94655
USER: genes 8 Torsion [C]-CA--CB-[SG] |==|  0.57009
USER: genes 9 Torsion [CA]-CB--SG-[HG] |==|  0.19855
USER: genes 10 Torsion [N]-CA--C-[N] |==|  0.93287
USER: genes 11 Torsion [C]-N--CA-[C] |==|  0.64445
USER: genes 12 Torsion [N]-CA--C-[N] |==|  0.55745
USER: genes 13 Torsion [C]-N--CA-[CB] |==|  0.15511
USER: genes 14 Torsion [N]-CA--C-[N] |==|  0.16053
USER: genes 15 Torsion [C]-N--CA-[C] |==|  0.74294
USER: genes 16 Torsion [N]-CA--C-[O] |==|  0.90663
USER: genes 17 Torsion [N]-CA--CB-[CG] |==|  0.59339
USER: genes 18 Torsion [CA]-CB--CG-[CD] |==|  0.75097
USER: genes 19 Torsion [CB]-CG--CD-[OE2] |==|  0.72801
USER: genes 20 Torsion [N]-CA--CB-[OG] |==|  0.75002
USER: genes 21 Torsion [CA]-CB--OG-[HG] |==|  0.67031
USER: genes 22 Torsion [N]-CA--CB-[CG] |==|  0.66474
USER: genes 23 Torsion [CA]-CB--CG-[CD] |==|  0.64028
USER: genes 24 Torsion [CB]-CG--CD-[NE] |==|  0.46132
USER: genes 25 Torsion [CG]-CD--NE-[CZ] |==|  0.82847
ROOT
ATOM      1  CA  ARG C1705     -15.395 -27.716  -9.526  1.00 19.53 LIG 0.18  C 
ENDROOT
BRANCH 1 2
ATOM      2  N   ARG C1705     -15.723 -28.929 -10.281  1.00 19.64 LIG-0.35  N 
ATOM      3 H    ARG C1705     -16.175 -29.522  -9.853  1.00 19.64 LIG 0.16  HD
ATOM      4  C   ALA C1704     -15.313 -29.034 -11.540  1.00 22.93 LIG 0.24  C 
ATOM      5 O    ALA C1704     -14.611 -28.169 -12.078  1.00 21.24 LIG-0.27  OA
BRANCH 4 6
ATOM      6  CA  ALA C1704     -15.727 -30.286 -12.313  1.00 20.87 LIG 0.17  C 
ATOM      7  CB  ALA C1704     -15.669 -30.052 -13.811  1.00 18.21 LIG 0.04  C 
BRANCH 6 8
ATOM      8  N   ALA C1704     -17.037 -30.785 -11.924  1.00 22.42 LIG-0.35  N 
ATOM      9  C   CYS C1703     -17.213 -32.065 -11.613  1.00 22.90 LIG 0.24  C 
ATOM     10 O    CYS C1703     -16.290 -32.874 -11.555  1.00 23.45 LIG-0.27  OA
ATOM     11 H    ALA C1704     -17.661 -30.192 -11.915  1.00 22.42 LIG 0.16  HD
BRANCH 9 12
ATOM     12  CA  CYS C1703     -18.643 -32.498 -11.319  1.00 24.41 LIG 0.18  C 
BRANCH 12 13
ATOM     13  N   CYS C1703     -19.571 -31.926 -12.295  1.00 24.32 LIG-0.34  N 
ATOM     14  C   GLY C1702     -19.367 -32.102 -13.599  1.00 24.70 LIG 0.25  C 
ATOM     15 O    GLY C1702     -18.372 -32.678 -14.040  1.00 27.37 LIG-0.27  OA
ATOM     16 H    CYS C1703     -20.228 -31.486 -11.957  1.00 24.32 LIG 0.16  HD
BRANCH 14 17
ATOM     17  CA  GLY C1702     -20.422 -31.555 -14.545  1.00 25.50 LIG 0.47  C 
ATOM     18  N   GLY C1702     -21.694 -31.320 -13.880  1.00 32.41 LIG 0.61  N 
ENDBRANCH 14 17
ENDBRANCH 12 13
BRANCH 12 19
ATOM     19  CB  CYS C1703     -18.749 -34.033 -11.272  1.00 19.88 LIG 0.10  C 
BRANCH 19 20
ATOM     20 SG   CYS C1703     -20.380 -34.713 -11.643  1.00 23.51 LIG-0.18  SA
ATOM     21 HG   CYS C1703     -20.613 -34.581 -12.812  1.00 23.51 LIG 0.10  HD
ENDBRANCH 19 20
ENDBRANCH 12 19
ENDBRANCH 9 12
ENDBRANCH 6 8
ENDBRANCH 4 6
ENDBRANCH 1 2
BRANCH 1 22
ATOM     22  C   ARG C1705     -13.886 -27.464  -9.368  1.00 20.76 LIG 0.24  C 
ATOM     23 O    ARG C1705     -13.460 -26.322  -9.164  1.00 22.20 LIG-0.27  OA
ATOM     24  N   SER C1706     -13.078 -28.519  -9.454  1.00 20.62 LIG-0.34  N 
ATOM     25 H    SER C1706     -13.344 -29.324  -9.604  1.00 20.62 LIG 0.16  HD
BRANCH 24 26
ATOM     26  CA  SER C1706     -11.636 -28.369  -9.294  1.00 20.36 LIG 0.20  C 
BRANCH 26 27
ATOM     27  C   SER C1706     -10.880 -29.002 -10.457  1.00 23.85 LIG 0.24  C 
ATOM     28 O    SER C1706     -11.446 -29.218 -11.529  1.00 24.92 LIG-0.27  OA
ATOM     29  N   GLU C1707      -9.607 -29.309 -10.239  1.00 21.35 LIG-0.35  N 
ATOM     30 H    GLU C1707      -9.190 -29.138  -9.506  1.00 21.35 LIG 0.16  HD
BRANCH 29 31
ATOM     31  CA  GLU C1707      -8.799 -29.980 -11.256  1.00 28.80 LIG 0.18  C 
BRANCH 31 32
ATOM     32  C   GLU C1707      -7.368 -30.147 -10.767  1.00 29.29 LIG 0.24  C 
ATOM     33 O    GLU C1707      -6.425 -29.677 -11.408  1.00 32.31 LIG-0.27  OA
ATOM     34  N   GLY C1708      -7.214 -30.823  -9.631  1.00 26.36 LIG-0.35  N 
ATOM     35 H    GLY C1708      -7.864 -31.178  -9.194  1.00 26.36 LIG 0.16  HD
BRANCH 34 36
ATOM     36  CA  GLY C1708      -5.911 -31.019  -9.027  1.00 26.05 LIG 0.21  C 
BRANCH 36 37
ATOM     37  C   GLY C1708      -5.246 -32.310  -9.454  1.00 34.75 LIG 0.21  C 
ATOM     38 O    GLY C1708      -5.910 -33.315  -9.688  1.00 36.48 LIG-0.29  OA
ENDBRANCH 36 37
ENDBRANCH 34 36
ENDBRANCH 31 32
BRANCH 31 39
ATOM     39  CB  GLU C1707      -8.791 -29.197 -12.572  1.00 30.33 LIG 0.04  C 
BRANCH 39 40
ATOM     40  CG  GLU C1707      -8.724 -30.064 -13.817  1.00 34.25 LIG 0.12  C 
BRANCH 40 41
ATOM     41  CD  GLU C1707      -7.296 -30.354 -14.255  1.00 39.35 LIG 0.17  C 
ATOM     42 OE2  GLU C1707      -6.801 -29.655 -15.166  1.00 42.40 LIG-0.65  OA
ATOM     43 OE1  GLU C1707      -6.673 -31.281 -13.690  1.00 45.84 LIG-0.65  OA
ENDBRANCH 40 41
ENDBRANCH 39 40
ENDBRANCH 31 39
ENDBRANCH 29 31
ENDBRANCH 26 27
BRANCH 26 44
ATOM     44  CB  SER C1706     -11.161 -28.957  -7.960  1.00 19.38 LIG 0.20  C 
BRANCH 44 45
ATOM     45 OG   SER C1706     -11.186 -27.985  -6.921  1.00 20.52 LIG-0.40  OA
ATOM     46 HG   SER C1706     -10.409 -27.873  -6.624  1.00 20.52 LIG 0.21  HD
ENDBRANCH 44 45
ENDBRANCH 26 44
ENDBRANCH 24 26
ENDBRANCH 1 22
BRANCH 1 47
ATOM     47  CB  ARG C1705     -16.098 -27.695  -8.162  1.00 21.30 LIG 0.04  C 
BRANCH 47 48
ATOM     48  CG  ARG C1705     -17.016 -26.484  -7.988  1.00 23.17 LIG 0.02  C 
BRANCH 48 49
ATOM     49  CD  ARG C1705     -16.766 -25.730  -6.680  1.00 21.38 LIG 0.14  C 
BRANCH 49 50
ATOM     50  NE  ARG C1705     -17.401 -24.409  -6.664  1.00 20.43 LIG-0.23  N 
ATOM     51  CZ  ARG C1705     -17.123 -23.415  -7.506  1.00 19.01 LIG 0.67  C 
ATOM     52  NH1 ARG C1705     -16.206 -23.564  -8.465  1.00 20.29 LIG-0.23  N 
ATOM     53  NH2 ARG C1705     -17.762 -22.259  -7.386  1.00 19.46 LIG-0.23  N 
ATOM     54 1HH1 ARG C1705     -15.786 -24.310  -8.545  1.00 20.29 LIG 0.17  HD
ATOM     55 2HH1 ARG C1705     -16.036 -22.914  -9.001  1.00 20.29 LIG 0.17  HD
ATOM     56 2HH2 ARG C1705     -17.587 -21.614  -7.927  1.00 19.46 LIG 0.17  HD
ATOM     57 1HH2 ARG C1705     -18.351 -22.155  -6.768  1.00 19.46 LIG 0.17  HD
ATOM     58 HE   ARG C1705     -18.000 -24.265  -6.065  1.00 20.43 LIG 0.18  HD
ENDBRANCH 49 50
ENDBRANCH 48 49
ENDBRANCH 47 48
ENDBRANCH 1 47
TORSDOF 24
ENDMDL
MODEL 41
USER: ADFR SOLUTION from run 126
USER: SCORE 16.880757 LL:  -3.909 LR: -14.079 RR:   0.000 FEB:  -6.920
USER: RMSD 6.756388
USER: SEED 125
USER: STATUS no improvement in best in 4 clusters for 5 generations
USER: GENES 26
USER: genes 0 Translation |==|  0.40593 0.56580 0.39411
USER: genes 1 Rotation |==|  0.65317 0.04450 0.46118 0.63249
USER: genes 2 Torsion [C]-CA--N-[C] |==|  0.82030
USER: genes 3 Torsion [N]-C--CA-[N] |==|  0.41361
USER: genes 4 Torsion [C]-CA--N-[C] |==|  0.80153
USER: genes 5 Torsion [N]-C--CA-[N] |==|  0.43268
USER: genes 6 Torsion [C]-CA--N-[C] |==|  0.78616
USER: genes 7 Torsion [N]-C--CA-[N] |==|  0.65680
USER: genes 8 Torsion [C]-CA--CB-[SG] |==|  0.00221
USER: genes 9 Torsion [CA]-CB--SG-[HG] |==|  0.64642
USER: genes 10 Torsion [N]-CA--C-[N] |==|  0.97222
USER: genes 11 Torsion [C]-N--CA-[C] |==|  0.79966
USER: genes 12 Torsion [N]-CA--C-[N] |==|  0.84458
USER: genes 13 Torsion [C]-N--CA-[CB] |==|  0.18809
USER: genes 14 Torsion [N]-CA--C-[N] |==|  0.84299
USER: genes 15 Torsion [C]-N--CA-[C] |==|  0.72046
USER: genes 16 Torsion [N]-CA--C-[O] |==|  0.97530
USER: genes 17 Torsion [N]-CA--CB-[CG] |==|  0.43721
USER: genes 18 Torsion [CA]-CB--CG-[CD] |==|  0.30324
USER: genes 19 Torsion [CB]-CG--CD-[OE2] |==|  0.64642
USER: genes 20 Torsion [N]-CA--CB-[OG] |==|  0.70324
USER: genes 21 Torsion [CA]-CB--OG-[HG] |==|  0.73471
USER: genes 22 Torsion [N]-CA--CB-[CG] |==|  0.23794
USER: genes 23 Torsion [CA]-CB--CG-[CD] |==|  0.52796
USER: genes 24 Torsion [CB]-CG--CD-[NE] |==|  0.59531
USER: genes 25 Torsion [CG]-CD--NE-[CZ] |==|  0.56458
ROOT
ATOM      1  CA  ARG C1705     -15.104 -26.321 -10.161  1.00 19.53 LIG 0.18  C 
ENDROOT
BRANCH 1 2
ATOM      2  N   ARG C1705     -15.801 -27.561  -9.804  1.00 19.64 LIG-0.35  N 
ATOM      3 H    ARG C1705     -16.393 -27.490  -9.185  1.00 19.64 LIG 0.16  HD
ATOM      4  C   ALA C1704     -15.485 -28.684 -10.440  1.00 22.93 LIG 0.24  C 
ATOM      5 O    ALA C1704     -14.578 -28.731 -11.280  1.00 21.24 LIG-0.27  OA
BRANCH 4 6
ATOM      6  CA  ALA C1704     -16.275 -29.942 -10.083  1.00 20.87 LIG 0.17  C 
ATOM      7  CB  ALA C1704     -15.673 -30.649  -8.885  1.00 18.21 LIG 0.04  C 
BRANCH 6 8
ATOM      8  N   ALA C1704     -16.412 -30.861 -11.204  1.00 22.42 LIG-0.35  N 
ATOM      9  C   CYS C1703     -17.204 -30.568 -12.230  1.00 22.90 LIG 0.24  C 
ATOM     10 O    CYS C1703     -17.794 -29.496 -12.338  1.00 23.45 LIG-0.27  OA
ATOM     11 H    ALA C1704     -15.948 -31.582 -11.139  1.00 22.42 LIG 0.16  HD
BRANCH 9 12
ATOM     12  CA  CYS C1703     -17.352 -31.644 -13.297  1.00 24.41 LIG 0.18  C 
BRANCH 12 13
ATOM     13  N   CYS C1703     -18.610 -31.485 -14.027  1.00 24.32 LIG-0.34  N 
ATOM     14  C   GLY C1702     -19.760 -31.870 -13.475  1.00 24.70 LIG 0.25  C 
ATOM     15 O    GLY C1702     -19.811 -32.433 -12.380  1.00 27.37 LIG-0.27  OA
ATOM     16 H    CYS C1703     -18.536 -31.135 -14.808  1.00 24.32 LIG 0.16  HD
BRANCH 14 17
ATOM     17  CA  GLY C1702     -21.032 -31.588 -14.255  1.00 25.50 LIG 0.47  C 
ATOM     18  N   GLY C1702     -21.988 -30.802 -13.491  1.00 32.41 LIG 0.61  N 
ENDBRANCH 14 17
ENDBRANCH 12 13
BRANCH 12 19
ATOM     19  CB  CYS C1703     -16.143 -31.638 -14.250  1.00 19.88 LIG 0.10  C 
BRANCH 19 20
ATOM     20 SG   CYS C1703     -14.866 -30.416 -13.880  1.00 23.51 LIG-0.18  SA
ATOM     21 HG   CYS C1703     -14.637 -29.767 -14.863  1.00 23.51 LIG 0.10  HD
ENDBRANCH 19 20
ENDBRANCH 12 19
ENDBRANCH 9 12
ENDBRANCH 6 8
ENDBRANCH 4 6
ENDBRANCH 1 2
BRANCH 1 22
ATOM     22  C   ARG C1705     -13.599 -26.336  -9.847  1.00 20.76 LIG 0.24  C 
ATOM     23 O    ARG C1705     -12.865 -25.430 -10.258  1.00 22.20 LIG-0.27  OA
ATOM     24  N   SER C1706     -13.136 -27.350  -9.119  1.00 20.62 LIG-0.34  N 
ATOM     25 H    SER C1706     -13.620 -27.999  -8.826  1.00 20.62 LIG 0.16  HD
BRANCH 24 26
ATOM     26  CA  SER C1706     -11.724 -27.427  -8.758  1.00 20.36 LIG 0.20  C 
BRANCH 26 27
ATOM     27  C   SER C1706     -10.863 -27.781  -9.966  1.00 23.85 LIG 0.24  C 
ATOM     28 O    SER C1706      -9.937 -27.047 -10.312  1.00 24.92 LIG-0.27  OA
ATOM     29  N   GLU C1707     -11.177 -28.898 -10.610  1.00 21.35 LIG-0.35  N 
ATOM     30 H    GLU C1707     -11.801 -29.436 -10.363  1.00 21.35 LIG 0.16  HD
BRANCH 29 31
ATOM     31  CA  GLU C1707     -10.466 -29.307 -11.821  1.00 28.80 LIG 0.18  C 
BRANCH 31 32
ATOM     32  C   GLU C1707     -11.168 -30.489 -12.471  1.00 29.29 LIG 0.24  C 
ATOM     33 O    GLU C1707     -11.552 -30.427 -13.641  1.00 32.31 LIG-0.27  OA
ATOM     34  N   GLY C1708     -11.335 -31.563 -11.704  1.00 26.36 LIG-0.35  N 
ATOM     35 H    GLY C1708     -11.095 -31.603 -10.879  1.00 26.36 LIG 0.16  HD
BRANCH 34 36
ATOM     36  CA  GLY C1708     -11.948 -32.777 -12.206  1.00 26.05 LIG 0.21  C 
BRANCH 36 37
ATOM     37  C   GLY C1708     -13.399 -32.922 -11.801  1.00 34.75 LIG 0.21  C 
ATOM     38 O    GLY C1708     -13.906 -32.158 -10.987  1.00 36.48 LIG-0.29  OA
ENDBRANCH 36 37
ENDBRANCH 34 36
ENDBRANCH 31 32
BRANCH 31 39
ATOM     39  CB  GLU C1707      -9.015 -29.691 -11.515  1.00 30.33 LIG 0.04  C 
BRANCH 39 40
ATOM     40  CG  GLU C1707      -8.380 -30.609 -12.544  1.00 34.25 LIG 0.12  C 
BRANCH 40 41
ATOM     41  CD  GLU C1707      -7.319 -29.911 -13.381  1.00 39.35 LIG 0.17  C 
ATOM     42 OE2  GLU C1707      -7.410 -29.974 -14.627  1.00 42.40 LIG-0.65  OA
ATOM     43 OE1  GLU C1707      -6.397 -29.302 -12.794  1.00 45.84 LIG-0.65  OA
ENDBRANCH 40 41
ENDBRANCH 39 40
ENDBRANCH 31 39
ENDBRANCH 29 31
ENDBRANCH 26 27
BRANCH 26 44
ATOM     44  CB  SER C1706     -11.495 -28.428  -7.621  1.00 19.38 LIG 0.20  C 
BRANCH 44 45
ATOM     45 OG   SER C1706     -11.208 -27.769  -6.393  1.00 20.52 LIG-0.40  OA
ATOM     46 HG   SER C1706     -10.376 -27.724  -6.288  1.00 20.52 LIG 0.21  HD
ENDBRANCH 44 45
ENDBRANCH 26 44
ENDBRANCH 24 26
ENDBRANCH 1 22
BRANCH 1 47
ATOM     47  CB  ARG C1705     -15.782 -25.095  -9.535  1.00 21.30 LIG 0.04  C 
BRANCH 47 48
ATOM     48  CG  ARG C1705     -15.301 -24.817  -8.110  1.00 23.17 LIG 0.02  C 
BRANCH 48 49
ATOM     49  CD  ARG C1705     -16.140 -23.756  -7.394  1.00 21.38 LIG 0.14  C 
BRANCH 49 50
ATOM     50  NE  ARG C1705     -15.342 -22.929  -6.485  1.00 20.43 LIG-0.23  N 
ATOM     51  CZ  ARG C1705     -15.822 -22.256  -5.441  1.00 19.01 LIG 0.67  C 
ATOM     52  NH1 ARG C1705     -17.122 -22.296  -5.138  1.00 20.29 LIG-0.23  N 
ATOM     53  NH2 ARG C1705     -14.999 -21.534  -4.693  1.00 19.46 LIG-0.23  N 
ATOM     54 1HH1 ARG C1705     -17.662 -22.760  -5.621  1.00 20.29 LIG 0.17  HD
ATOM     55 2HH1 ARG C1705     -17.419 -21.857  -4.461  1.00 20.29 LIG 0.17  HD
ATOM     56 2HH2 ARG C1705     -15.303 -21.098  -4.018  1.00 19.46 LIG 0.17  HD
ATOM     57 1HH2 ARG C1705     -14.161 -21.501  -4.884  1.00 19.46 LIG 0.17  HD
ATOM     58 HE   ARG C1705     -14.497 -22.873  -6.638  1.00 20.43 LIG 0.18  HD
ENDBRANCH 49 50
ENDBRANCH 48 49
ENDBRANCH 47 48
ENDBRANCH 1 47
TORSDOF 24
ENDMDL
